#------------------------------------------------------------------------------
#$Date: 2016-03-21 01:21:50 +0200 (Mon, 21 Mar 2016) $
#$Revision: 178377 $
#$URL: svn://www.crystallography.net/cod/cif/4/00/20/4002094.cif $
#------------------------------------------------------------------------------
#
# This file is available in the Crystallography Open Database (COD),
# http://www.crystallography.net/
#
# All data on this site have been placed in the public domain by the
# contributors.
#
data_4002094
loop_
_publ_author_name
'Nanthamathee, Chompoonoot'
'Ling, Sanliang'
'Slater, Ben'
'Attfield, Martin P.'
_publ_section_title
;
 Contradistinct Thermoresponsive Behavior of Isostructural MIL-53 Type
 Metal--Organic Frameworks by Modifying the Framework Inorganic Anion
;
_journal_name_full               'Chemistry of Materials'
_journal_page_first              141223143002002
_journal_paper_doi               10.1021/cm503311x
_journal_year                    2014
_chemical_formula_sum            'C8 Al F O4'
_chemical_formula_weight         206.06
_chemical_name_systematic        ' ?'
_space_group_IT_number           74
_symmetry_cell_setting           orthorhombic
_symmetry_space_group_name_Hall  '-I 2b 2'
_symmetry_space_group_name_H-M   'I m m a'
_audit_creation_date             2014-08-28T13:19
_audit_creation_method           'from EXP file using GSAS2CIF'
_audit_update_record
' 2014-08-28T13:19  Initial CIF as created by GSAS2CIF'
_cell_angle_alpha                90.0
_cell_angle_beta                 90.0
_cell_angle_gamma                90.0
_cell_formula_units_Z            4
_cell_length_a                   6.56804(17)
_cell_length_b                   16.3885(5)
_cell_length_c                   13.1682(7)
_cell_volume                     1417.43(9)
_computing_structure_refinement  GSAS
_diffrn_radiation_polarisn_ratio 0.95
_diffrn_radiation_probe          x-ray
_diffrn_radiation_wavelength     0.825993
_exptl_absorpt_correction_T_max  1.00000
_exptl_absorpt_correction_T_min  1.00000
_exptl_absorpt_process_details
;   GSAS Absorption/surface roughness correction: function number 0
 No correction is applied.
;
_pd_block_id                     2014-08-28T13:19|475K|475K|
_pd_calc_method                  'Rietveld Refinement'
_pd_instr_location               ' ?'
_pd_meas_2theta_range_inc        0.003
_pd_meas_2theta_range_max        149.9955
_pd_meas_2theta_range_min        0.0015
_pd_meas_number_of_points        49999
_pd_phase_name                   300K
_pd_proc_2theta_range_inc        0.003
_pd_proc_2theta_range_max        150.00505
_pd_proc_2theta_range_min        0.011054
_pd_proc_info_datetime           2014-08-28T13:19:10
_pd_proc_info_excluded_regions   ' ?'
_pd_proc_ls_background_function
;   GSAS Background function number 1 with  2 terms.
 Shifted Chebyshev function of 1st kind
      1:    0.00000     2:    0.00000    
;
_pd_proc_ls_peak_cutoff          0.00010
_pd_proc_ls_profile_function
;
 CW Profile function number 4 with  18 terms
 Pseudovoigt profile coefficients as parameterized in
 P. Thompson, D.E. Cox & J.B. Hastings (1987). J. Appl. Cryst.,20,79-83.
 Asymmetry correction of L.W. Finger, D.E. Cox & A. P. Jephcoat (1994).
 J. Appl. Cryst.,27,892-900.
 Microstrain broadening by P.W. Stephens,  (1999). J. Appl. Cryst.,32,281-289.
 Peak tails are ignored  where the intensity is below 0.0001 times the peak
   Aniso. broadening axis   1.0   0.0   1.0
;
_pd_proc_ls_prof_R_factor        0.0325
_pd_proc_ls_prof_wR_expected     0.0258
_pd_proc_ls_prof_wR_factor       0.0417
_pd_proc_number_of_points        49999
_pd_spec_mounting                ' ?'
_refine_ls_goodness_of_fit_all   1.62
_refine_ls_matrix_type           full
_refine_ls_number_parameters     30
_refine_ls_number_restraints     0
_refine_ls_R_Fsqd_factor         0.17949
_refine_ls_shift/su_max          0.04
_refine_ls_shift/su_mean         0.01
_reflns_d_resolution_high        1.209
_reflns_d_resolution_low         8.194
_reflns_limit_h_max              5
_reflns_limit_h_min              0
_reflns_limit_k_max              13
_reflns_limit_k_min              0
_reflns_limit_l_max              11
_reflns_limit_l_min              0
_reflns_number_total             252
_cod_data_source_file            alf475K.cif
_cod_data_source_block           475K_publ
_cod_depositor_comments
;
The following automatic conversions were performed:

'_geom_bond_publ_flag' value 'N' changed to 'n' according to
/home/saulius/struct/COD-crude-data--automatic-downloads/rss-feeds/ACS/lib/dictionaries/cif_core.dic
dictionary named 'cif_core.dic' version 2.4.2 from 2011-04-26 (18
times).

'_geom_angle_publ_flag' value 'N' changed to 'n' according
to
/home/saulius/struct/COD-crude-data--automatic-downloads/rss-feeds/ACS/lib/dictionaries/cif_core.dic
dictionary named 'cif_core.dic' version 2.4.2 from 2011-04-26 (24
times).

Automatic conversion script
Id: cif_fix_values 2935 2014-11-11 08:27:57Z andrius 
;
_cod_database_code               4002094
#BEGIN Tags that were not found in dictionaries:
_gsas_exptl_extinct_corr_t_min   1.00000
_gsas_exptl_extinct_corr_t_max   1.00000
#END Tags that were not found in dictionaries
loop_
_symmetry_equiv_pos_site_id
_symmetry_equiv_pos_as_xyz
1 +x,+y,+z
2 -x,+y,+z
3 +x,-y+1/2,+z
4 -x,-y+1/2,+z
-1 -x,-y,-z
-2 +x,-y,-z
-3 -x,+y+1/2,-z
-4 +x,+y+1/2,-z
101 +x+1/2,+y+1/2,+z+1/2
102 -x+1/2,+y+1/2,+z+1/2
103 +x+1/2,-y,+z+1/2
104 -x+1/2,-y,+z+1/2
-101 -x+1/2,-y+1/2,-z+1/2
-102 +x+1/2,-y+1/2,-z+1/2
-103 -x+1/2,+y,-z+1/2
-104 +x+1/2,+y,-z+1/2
loop_
_atom_site_type_symbol
_atom_site_label
_atom_site_fract_x
_atom_site_fract_y
_atom_site_fract_z
_atom_site_occupancy
_atom_site_thermal_displace_type
_atom_site_U_iso_or_equiv
_atom_site_symmetry_multiplicity
Al Al1 0.25 0.25 0.75 1.0 Uiso 0.0144(16) 4
F F1 0.0 0.25 0.6931(6) 1.0 Uiso 0.0126(13) 4
O O1 0.1692(6) 0.16741(26) 0.83870(34) 1.0 Uiso 0.0126(13) 16
C C1 -0.1917(7) 0.0277(6) 0.9566(7) 1.0 Uiso 0.0320(25) 16
C C2 0.0 0.0637(6) 0.9457(9) 1.0 Uiso 0.0320(25) 8
C C3 0.0 0.1411(7) 0.8754(9) 1.0 Uiso 0.0320(25) 8
loop_
_atom_type_symbol
_atom_type_number_in_cell
_atom_type_scat_dispersion_real
_atom_type_scat_dispersion_imag
_atom_type_scat_Cromer_Mann_a1
_atom_type_scat_Cromer_Mann_a2
_atom_type_scat_Cromer_Mann_a3
_atom_type_scat_Cromer_Mann_a4
_atom_type_scat_Cromer_Mann_b1
_atom_type_scat_Cromer_Mann_b2
_atom_type_scat_Cromer_Mann_b3
_atom_type_scat_Cromer_Mann_b4
_atom_type_scat_Cromer_Mann_c
_atom_type_scat_source
Al 4.0 0.000 0.000 6.42020 3.03870 1.90020 0.74260 1.59360 31.5472 1.96460
85.0886 1.11510 International_Tables_Vol_C
F 4.0 0.000 0.000 3.53920 10.2825 2.64120 4.29440 1.51700 0.26150 1.02430
26.1476 0.27760 International_Tables_Vol_C
O 16.0 0.000 0.000 3.04850 13.2771 2.28680 5.70110 1.54630 0.32390 0.86700
32.9089 0.25080 International_Tables_Vol_C
C 32.0 0.000 0.000 2.31000 20.8439 1.02000 10.2075 1.58860 0.56870 0.86500
51.6512 0.21560 International_Tables_Vol_C
loop_
_geom_angle_atom_site_label_1
_geom_angle_atom_site_label_2
_geom_angle_atom_site_label_3
_geom_angle
_geom_angle_site_symmetry_1
_geom_angle_site_symmetry_3
_geom_angle_publ_flag
F1 Al1 F1 180.0 1_555 -101_546 n
F1 Al1 O1 90.06(18) 1_555 1_555 n
F1 Al1 O1 90.06(18) 1_555 3_555 n
F1 Al1 O1 89.94(18) 1_555 -101_566 n
F1 Al1 O1 89.94(18) 1_555 -103_566 n
F1 Al1 O1 89.94(18) -101_566 1_555 n
F1 Al1 O1 89.94(18) -101_566 3_555 n
F1 Al1 O1 90.06(18) -101_566 -101_566 n
F1 Al1 O1 90.06(18) -101_566 -103_566 n
O1 Al1 O1 93.07(31) 1_555 3_555 n
O1 Al1 O1 180.0 1_555 -101_566 n
O1 Al1 O1 86.93(31) 1_555 -103_566 n
O1 Al1 O1 86.93(31) 3_555 -101_566 n
O1 Al1 O1 180.0 3_555 -103_566 n
O1 Al1 O1 93.07(31) -101_566 -103_566 n
Al1 F1 Al1 131.0(4) 1_555 2_555 n
Al1 O1 C3 136.4(6) 1_555 1_555 n
C1 C1 C2 110.0(7) -2_557 1_555 n
C1 C2 C1 128.5(11) 1_555 2_555 n
C1 C2 C3 113.7(6) 1_555 1_555 n
C1 C2 C3 113.7(6) 2_555 1_555 n
O1 C3 O1 119.6(9) 1_555 2_555 n
O1 C3 C2 119.5(5) 1_555 1_555 n
O1 C3 C2 119.5(5) 2_555 1_555 n
loop_
_geom_bond_atom_site_label_1
_geom_bond_atom_site_label_2
_geom_bond_distance
_geom_bond_site_symmetry_2
_geom_bond_publ_flag
Al1 F1 1.8048(32) 1_555 n
Al1 F1 1.8048(32) -101_445 n
Al1 O1 1.8649(33) 1_555 n
Al1 O1 1.8649(33) 3_555 n
Al1 O1 1.8649(33) -101_445 n
Al1 O1 1.8649(33) -103_445 n
F1 Al1 1.8048(32) 1_555 n
F1 Al1 1.8048(32) 2_555 n
O1 Al1 1.8649(33) 1_555 n
O1 C3 1.286(5) 1_555 n
C1 C1 1.460(12) -2_557 n
C1 C2 1.398(6) 1_555 n
C2 C1 1.398(6) 1_555 n
C2 C1 1.398(6) 2_555 n
C2 C3 1.571(10) 1_555 n
C3 O1 1.286(5) 1_555 n
C3 O1 1.286(5) 2_555 n
C3 C2 1.571(10) 1_555 n
loop_
_pd_meas_intensity_total
_pd_proc_ls_weight
_pd_proc_intensity_bkg_calc
_pd_calc_intensity_total
15.5(22) 0.0 0.00 .
15.0(20) 0.0 0.00 .
16.7(22) 0.0 0.00 .
24.6(28) 0.0 0.00 .
46(4) 0.0 0.0 .
176(7) 0.0 0.0 .
127(6) 0.0 0.0 .
893(16) 0.0 0.0 .
1604(21) 0.0 0.0 .
3117(31) 0.0 0.0 .
3739(32) 0.0 0.0 .
3713(32) 0.0 0.0 .
3656(33) 0.0 0.0 .
1463(22) 0.0 0.0 .
127(6) 0.0 0.0 .
68(4) 0.0 0.0 .
53(4) 0.0 0.0 .
47(4) 0.0 0.0 .
38.4(34) 0.0 0.00 .
75(5) 0.0 0.0 .
246(9) 0.0 0.0 .
374(10) 0.0 0.0 .
765(15) 0.0 0.0 .
1087(18) 0.0 0.0 .
1107(18) 0.0 0.0 .
1273(19) 0.0 0.0 .
1416(20) 0.0 0.0 .
1610(21) 0.0 0.0 .
1810(24) 0.0 0.0 .
1971(24) 0.0 0.0 .
2117(24) 0.0 0.0 .
2189(24) 0.0 0.0 .
1903(24) 0.0 0.0 .
1640(23) 0.0 0.0 .
1241(19) 0.0 0.0 .
664(13) 0.0 0.0 .
371(10) 0.0 0.0 .
237(8) 0.0 0.0 .
144(7) 0.0 0.0 .
92(5) 0.0 0.0 .
50(4) 0.0 0.0 .
39.8(33) 0.0 0.00 .
32.2(31) 0.0 0.00 .
32.9(33) 0.0 0.00 .
27.7(28) 0.0 0.00 .
20.0(24) 0.0 0.00 .
35.9(33) 0.0 0.00 .
31.0(28) 0.0 0.00 .
32.5(30) 0.0 0.00 .
27.0(27) 0.0 0.00 .
31.9(30) 0.0 0.00 .
30.7(30) 0.0 0.00 .
28.8(29) 0.0 0.00 .
25.4(27) 0.0 0.00 .
37.5(33) 0.0 0.00 .
24.6(26) 0.0 0.00 .
33.1(30) 0.0 0.00 .
36.5(33) 0.0 0.00 .
37.6(35) 0.0 0.00 .
28.5(29) 0.0 0.00 .
25.0(27) 0.0 0.00 .
32.6(31) 0.0 0.00 .
31.7(29) 0.0 0.00 .
35(4) 0.0 0.0 .
31.2(29) 0.0 0.00 .
30.1(29) 0.0 0.00 .
34.1(33) 0.0 0.00 .
36.8(34) 0.0 0.00 .
25.7(27) 0.0 0.00 .
36.5(31) 0.0 0.00 .
41.3(35) 0.0 0.00 .
34.0(31) 0.0 0.00 .
37.7(34) 0.0 0.00 .
34.8(32) 0.0 0.00 .
34.4(30) 0.0 0.00 .
43.4(34) 0.0 0.00 .
40(4) 0.0 0.0 .
30.0(30) 0.0 0.00 .
25.8(26) 0.0 0.00 .
36.6(31) 0.0 0.00 .
41.0(33) 0.0 0.00 .
45(4) 0.0 0.0 .
35.0(33) 0.0 0.00 .
30.1(28) 0.0 0.00 .
35.2(32) 0.0 0.00 .
34.3(30) 0.0 0.00 .
33.7(30) 0.0 0.00 .
35.5(34) 0.0 0.00 .
39.4(35) 0.0 0.00 .
42.6(34) 0.0 0.00 .
42.2(35) 0.0 0.00 .
39.2(34) 0.0 0.00 .
51(4) 0.0 0.0 .
43(4) 0.0 0.0 .
47(4) 0.0 0.0 .
59(4) 0.0 0.0 .
66(4) 0.0 0.0 .
82(5) 0.0 0.0 .
83(5) 0.0 0.0 .
89(5) 0.0 0.0 .
105(6) 0.0 0.0 .
110(6) 0.0 0.0 .
100(5) 0.0 0.0 .
129(6) 0.0 0.0 .
154(6) 0.0 0.0 .
150(7) 0.0 0.0 .
154(7) 0.0 0.0 .
159(7) 0.0 0.0 .
178(7) 0.0 0.0 .
181(7) 0.0 0.0 .
186(7) 0.0 0.0 .
202(8) 0.0 0.0 .
219(8) 0.0 0.0 .
224(8) 0.0 0.0 .
219(8) 0.0 0.0 .
219(8) 0.0 0.0 .
255(9) 0.0 0.0 .
266(9) 0.0 0.0 .
254(8) 0.0 0.0 .
259(8) 0.0 0.0 .
262(9) 0.0 0.0 .
287(9) 0.0 0.0 .
283(9) 0.0 0.0 .
296(9) 0.0 0.0 .
323(9) 0.0 0.0 .
333(10) 0.0 0.0 .
335(10) 0.0 0.0 .
315(10) 0.0 0.0 .
363(10) 0.0 0.0 .
346(10) 0.0 0.0 .
355(10) 0.0 0.0 .
358(11) 0.0 0.0 .
400(11) 0.0 0.0 .
376(10) 0.0 0.0 .
407(11) 0.0 0.0 .
417(11) 0.0 0.0 .
410(11) 0.0 0.0 .
377(10) 0.0 0.0 .
437(11) 0.0 0.0 .
453(11) 0.0 0.0 .
445(11) 0.0 0.0 .
462(12) 0.0 0.0 .
462(12) 0.0 0.0 .
465(11) 0.0 0.0 .
505(12) 0.0 0.0 .
488(12) 0.0 0.0 .
482(12) 0.0 0.0 .
543(13) 0.0 0.0 .
501(12) 0.0 0.0 .
513(12) 0.0 0.0 .
475(12) 0.0 0.0 .
507(12) 0.0 0.0 .
524(12) 0.0 0.0 .
526(12) 0.0 0.0 .
521(12) 0.0 0.0 .
536(12) 0.0 0.0 .
537(12) 0.0 0.0 .
544(12) 0.0 0.0 .
556(12) 0.0 0.0 .
541(13) 0.0 0.0 .
528(12) 0.0 0.0 .
532(12) 0.0 0.0 .
553(12) 0.0 0.0 .
550(12) 0.0 0.0 .
568(13) 0.0 0.0 .
566(13) 0.0 0.0 .
559(13) 0.0 0.0 .
585(13) 0.0 0.0 .
581(12) 0.0 0.0 .
610(13) 0.0 0.0 .
577(13) 0.0 0.0 .
599(13) 0.0 0.0 .
618(13) 0.0 0.0 .
587(13) 0.0 0.0 .
620(13) 0.0 0.0 .
606(14) 0.0 0.0 .
598(13) 0.0 0.0 .
562(12) 0.0 0.0 .
596(13) 0.0 0.0 .
658(14) 0.0 0.0 .
621(14) 0.0 0.0 .
610(13) 0.0 0.0 .
625(13) 0.0 0.0 .
646(13) 0.0 0.0 .
634(13) 0.0 0.0 .
619(14) 0.0 0.0 .
637(14) 0.0 0.0 .
635(13) 0.0 0.0 .
655(13) 0.0 0.0 .
623(13) 0.0 0.0 .
634(14) 0.0 0.0 .
641(13) 0.0 0.0 .
638(13) 0.0 0.0 .
607(13) 0.0 0.0 .
637(14) 0.0 0.0 .
678(14) 0.0 0.0 .
684(14) 0.0 0.0 .
630(13) 0.0 0.0 .
667(14) 0.0 0.0 .
680(14) 0.0 0.0 .
693(14) 0.0 0.0 .
701(14) 0.0 0.0 .
700(14) 0.0 0.0 .
684(14) 0.0 0.0 .
722(15) 0.0 0.0 .
657(14) 0.0 0.0 .
700(14) 0.0 0.0 .
660(13) 0.0 0.0 .
700(14) 0.0 0.0 .
669(14) 0.0 0.0 .
716(15) 0.0 0.0 .
711(14) 0.0 0.0 .
709(14) 0.0 0.0 .
771(15) 0.0 0.0 .
741(15) 0.0 0.0 .
700(14) 0.0 0.0 .
730(14) 0.0 0.0 .
747(14) 0.0 0.0 .
735(15) 0.0 0.0 .
715(15) 0.0 0.0 .
738(15) 0.0 0.0 .
758(14) 0.0 0.0 .
768(14) 0.0 0.0 .
741(15) 0.0 0.0 .
735(15) 0.0 0.0 .
759(15) 0.0 0.0 .
798(15) 0.0 0.0 .
740(14) 0.0 0.0 .
743(14) 0.0 0.0 .
787(16) 0.0 0.0 .
786(15) 0.0 0.0 .
784(15) 0.0 0.0 .
807(15) 0.0 0.0 .
815(15) 0.0 0.0 .
821(16) 0.0 0.0 .
800(15) 0.0 0.0 .
783(15) 0.0 0.0 .
771(14) 0.0 0.0 .
760(15) 0.0 0.0 .
819(16) 0.0 0.0 .
841(16) 0.0 0.0 .
838(15) 0.0 0.0 .
813(15) 0.0 0.0 .
802(15) 0.0 0.0 .
834(16) 0.0 0.0 .
814(15) 0.0 0.0 .
838(15) 0.0 0.0 .
844(15) 0.0 0.0 .
853(16) 0.0 0.0 .
812(15) 0.0 0.0 .
846(16) 0.0 0.0 .
822(15) 0.0 0.0 .
867(16) 0.0 0.0 .
861(16) 0.0 0.0 .
885(16) 0.0 0.0 .
861(16) 0.0 0.0 .
801(15) 0.0 0.0 .
790(15) 0.0 0.0 .
852(16) 0.0 0.0 .
890(16) 0.0 0.0 .
844(15) 0.0 0.0 .
839(15) 0.0 0.0 .
872(16) 0.0 0.0 .
839(16) 0.0 0.0 .
840(15) 0.0 0.0 .
849(15) 0.0 0.0 .
827(15) 0.0 0.0 .
845(16) 0.0 0.0 .
819(16) 0.0 0.0 .
825(16) 0.0 0.0 .
822(15) 0.0 0.0 .
871(15) 0.0 0.0 .
864(16) 0.0 0.0 .
922(17) 0.0 0.0 .
855(16) 0.0 0.0 .
845(15) 0.0 0.0 .
922(16) 0.0 0.0 .
942(16) 0.0 0.0 .
887(17) 0.0 0.0 .
917(16) 0.0 0.0 .
892(16) 0.0 0.0 .
907(16) 0.0 0.0 .
896(16) 0.0 0.0 .
930(17) 0.0 0.0 .
876(16) 0.0 0.0 .
908(16) 0.0 0.0 .
863(15) 0.0 0.0 .
921(16) 0.0 0.0 .
943(17) 0.0 0.0 .
901(16) 0.0 0.0 .
920(16) 0.0 0.0 .
930(16) 0.0 0.0 .
922(16) 0.0 0.0 .
920(17) 0.0 0.0 .
895(16) 0.0 0.0 .
952(16) 0.0 0.0 .
915(16) 0.0 0.0 .
887(16) 0.0 0.0 .
881(16) 0.0 0.0 .
909(16) 0.0 0.0 .
911(16) 0.0 0.0 .
950(16) 0.0 0.0 .
910(16) 0.0 0.0 .
920(16) 0.0 0.0 .
934(16) 0.0 0.0 .
949(16) 0.0 0.0 .
925(16) 0.0 0.0 .
939(17) 0.0 0.0 .
926(16) 0.0 0.0 .
934(16) 0.0 0.0 .
935(16) 0.0 0.0 .
902(16) 0.0 0.0 .
916(16) 0.0 0.0 .
919(16) 0.0 0.0 .
925(16) 0.0 0.0 .
950(16) 0.0 0.0 .
961(17) 0.0 0.0 .
945(17) 0.0 0.0 .
922(16) 0.0 0.0 .
961(16) 0.0 0.0 .
976(16) 0.0 0.0 .
978(17) 0.0 0.0 .
980(17) 0.0 0.0 .
977(17) 0.0 0.0 .
959(16) 0.0 0.0 .
982(16) 0.0 0.0 .
950(17) 0.0 0.0 .
951(17) 0.0 0.0 .
1019(17) 0.0 0.0 .
969(16) 0.0 0.0 .
1010(17) 0.0 0.0 .
1039(17) 0.0 0.0 .
983(17) 0.0 0.0 .
998(17) 0.0 0.0 .
1046(17) 0.0 0.0 .
994(17) 0.0 0.0 .
985(17) 0.0 0.0 .
1042(18) 0.0 0.0 .
999(17) 0.0 0.0 .
1012(17) 0.0 0.0 .
998(17) 0.0 0.0 .
1013(17) 0.0 0.0 .
1022(18) 0.0 0.0 .
983(17) 0.0 0.0 .
1061(17) 0.0 0.0 .
1022(17) 0.0 0.0 .
1019(17) 0.0 0.0 .
1058(18) 0.0 0.0 .
1024(17) 0.0 0.0 .
1062(17) 0.0 0.0 .
1071(17) 0.0 0.0 .
1020(17) 0.0 0.0 .
1069(18) 0.0 0.0 .
1068(17) 0.0 0.0 .
1087(17) 0.0 0.0 .
1073(17) 0.0 0.0 .
1035(17) 0.0 0.0 .
1057(18) 0.0 0.0 .
1070(17) 0.0 0.0 .
1049(17) 0.0 0.0 .
1104(18) 0.0 0.0 .
1093(18) 0.0 0.0 .
1097(18) 0.0 0.0 .
1116(18) 0.0 0.0 .
1062(17) 0.0 0.0 .
1119(18) 0.0 0.0 .
1088(18) 0.0 0.0 .
1088(18) 0.0 0.0 .
1101(17) 0.0 0.0 .
1118(17) 0.0 0.0 .
1122(18) 0.0 0.0 .
1118(18) 0.0 0.0 .
1080(18) 0.0 0.0 .
1079(17) 0.0 0.0 .
1112(17) 0.0 0.0 .
1104(18) 0.0 0.0 .
1173(19) 0.0 0.0 .
1171(19) 0.0 0.0 .
1090(17) 0.0 0.0 .
1090(17) 0.0 0.0 .
1150(18) 0.0 0.0 .
1139(19) 0.0 0.0 .
1101(18) 0.0 0.0 .
1114(17) 0.0 0.0 .
1126(17) 0.0 0.0 .
1195(19) 0.0 0.0 .
1126(18) 0.0 0.0 .
1105(18) 0.0 0.0 .
1113(17) 0.0 0.0 .
1149(18) 0.0 0.0 .
1179(19) 0.0 0.0 .
1150(19) 0.0 0.0 .
1185(18) 0.0 0.0 .
1172(18) 0.0 0.0 .
1159(18) 0.0 0.0 .
1145(18) 0.0 0.0 .
1159(19) 0.0 0.0 .
1213(19) 0.0 0.0 .
1161(18) 0.0 0.0 .
1178(18) 0.0 0.0 .
1220(19) 0.0 0.0 .
1155(18) 0.0 0.0 .
1201(19) 0.0 0.0 .
1178(18) 0.0 0.0 .
1169(18) 0.0 0.0 .
1176(19) 0.0 0.0 .
1189(19) 0.0 0.0 .
1218(19) 0.0 0.0 .
1191(18) 0.0 0.0 .
1193(19) 0.0 0.0 .
1168(19) 0.0 0.0 .
1179(19) 0.0 0.0 .
1181(18) 0.0 0.0 .
1198(18) 0.0 0.0 .
1204(19) 0.0 0.0 .
1134(18) 0.0 0.0 .
1163(18) 0.0 0.0 .
1170(18) 0.0 0.0 .
1221(18) 0.0 0.0 .
1189(18) 0.0 0.0 .
1186(19) 0.0 0.0 .
1219(19) 0.0 0.0 .
1240(18) 0.0 0.0 .
1225(18) 0.0 0.0 .
1221(19) 0.0 0.0 .
1201(19) 0.0 0.0 .
1134(18) 0.0 0.0 .
1219(18) 0.0 0.0 .
1202(18) 0.0 0.0 .
1267(19) 0.0 0.0 .
1170(19) 0.0 0.0 .
1210(19) 0.0 0.0 .
1232(18) 0.0 0.0 .
1239(19) 0.0 0.0 .
1187(18) 0.0 0.0 .
1265(20) 0.0 0.0 .
1243(19) 0.0 0.0 .
1225(18) 0.0 0.0 .
1234(18) 0.0 0.0 .
1224(19) 0.0 0.0 .
1217(19) 0.0 0.0 .
1243(19) 0.0 0.0 .
1243(18) 0.0 0.0 .
1212(18) 0.0 0.0 .
1246(19) 0.0 0.0 .
1199(19) 0.0 0.0 .
1216(19) 0.0 0.0 .
1208(18) 0.0 0.0 .
1269(19) 0.0 0.0 .
1226(19) 0.0 0.0 .
1241(19) 0.0 0.0 .
1250(19) 0.0 0.0 .
1244(18) 0.0 0.0 .
1237(19) 0.0 0.0 .
1291(20) 0.0 0.0 .
1246(19) 0.0 0.0 .
1202(19) 0.0 0.0 .
1205(18) 0.0 0.0 .
1239(19) 0.0 0.0 .
1235(19) 0.0 0.0 .
1214(19) 0.0 0.0 .
1252(19) 0.0 0.0 .
1227(18) 0.0 0.0 .
1239(19) 0.0 0.0 .
1270(19) 0.0 0.0 .
1226(19) 0.0 0.0 .
1228(18) 0.0 0.0 .
1227(18) 0.0 0.0 .
1247(19) 0.0 0.0 .
1281(20) 0.0 0.0 .
1236(19) 0.0 0.0 .
1221(18) 0.0 0.0 .
1247(18) 0.0 0.0 .
1221(19) 0.0 0.0 .
1238(19) 0.0 0.0 .
1255(19) 0.0 0.0 .
1232(18) 0.0 0.0 .
1235(18) 0.0 0.0 .
1214(19) 0.0 0.0 .
1217(19) 0.0 0.0 .
1252(19) 0.0 0.0 .
1261(18) 0.0 0.0 .
1260(18) 0.0 0.0 .
1246(19) 0.0 0.0 .
1209(19) 0.0 0.0 .
1180(19) 0.0 0.0 .
1233(18) 0.0 0.0 .
1247(18) 0.0 0.0 .
1250(19) 0.0 0.0 .
1231(19) 0.0 0.0 .
1217(19) 0.0 0.0 .
1234(18) 0.0 0.0 .
1240(18) 0.0 0.0 .
1260(19) 0.0 0.0 .
1248(19) 0.0 0.0 .
1260(19) 0.0 0.0 .
1237(18) 0.0 0.0 .
1263(19) 0.0 0.0 .
1263(19) 0.0 0.0 .
1252(19) 0.0 0.0 .
1268(19) 0.0 0.0 .
1220(18) 0.0 0.0 .
1234(19) 0.0 0.0 .
1223(19) 0.0 0.0 .
1216(19) 0.0 0.0 .
1207(19) 0.0 0.0 .
1229(18) 0.0 0.0 .
1214(19) 0.0 0.0 .
1257(19) 0.0 0.0 .
1232(19) 0.0 0.0 .
1265(19) 0.0 0.0 .
1225(18) 0.0 0.0 .
1225(19) 0.0 0.0 .
1244(19) 0.0 0.0 .
1246(19) 0.0 0.0 .
1271(19) 0.0 0.0 .
1261(18) 0.0 0.0 .
1202(19) 0.0 0.0 .
1219(19) 0.0 0.0 .
1239(19) 0.0 0.0 .
1254(19) 0.0 0.0 .
1210(18) 0.0 0.0 .
1170(18) 0.0 0.0 .
1246(19) 0.0 0.0 .
1232(19) 0.0 0.0 .
1222(18) 0.0 0.0 .
1226(18) 0.0 0.0 .
1201(19) 0.0 0.0 .
1226(20) 0.0 0.0 .
1194(18) 0.0 0.0 .
1220(18) 0.0 0.0 .
1237(18) 0.0 0.0 .
1221(19) 0.0 0.0 .
1292(20) 0.0 0.0 .
1224(19) 0.0 0.0 .
1236(18) 0.0 0.0 .
1224(18) 0.0 0.0 .
1230(19) 0.0 0.0 .
1206(19) 0.0 0.0 .
1172(18) 0.0 0.0 .
1228(18) 0.0 0.0 .
1224(18) 0.0 0.0 .
1196(19) 0.0 0.0 .
1206(19) 0.0 0.0 .
1244(19) 0.0 0.0 .
1195(18) 0.0 0.0 .
1253(19) 0.0 0.0 .
1194(19) 0.0 0.0 .
1182(19) 0.0 0.0 .
1252(19) 0.0 0.0 .
1239(18) 0.0 0.0 .
1183(18) 0.0 0.0 .
1209(19) 0.0 0.0 .
1200(19) 0.0 0.0 .
1231(19) 0.0 0.0 .
1187(18) 0.0 0.0 .
1181(18) 0.0 0.0 .
1245(19) 0.0 0.0 .
1191(18) 0.0 0.0 .
1225(18) 0.0 0.0 .
1207(18) 0.0 0.0 .
1204(19) 0.0 0.0 .
1209(19) 0.0 0.0 .
1187(18) 0.0 0.0 .
1184(18) 0.0 0.0 .
1159(18) 0.0 0.0 .
1197(19) 0.0 0.0 .
1235(19) 0.0 0.0 .
1244(19) 0.0 0.0 .
1246(18) 0.0 0.0 .
1215(18) 0.0 0.0 .
1202(19) 0.0 0.0 .
1199(19) 0.0 0.0 .
1186(18) 0.0 0.0 .
1138(18) 0.0 0.0 .
1190(18) 0.0 0.0 .
1146(18) 0.0 0.0 .
1179(19) 0.0 0.0 .
1181(18) 0.0 0.0 .
1182(18) 0.0 0.0 .
1183(18) 0.0 0.0 .
1197(18) 0.0 0.0 .
1167(19) 0.0 0.0 .
1154(18) 0.0 0.0 .
1145(18) 0.0 0.0 .
1153(18) 0.0 0.0 .
1226(19) 0.0 0.0 .
1160(19) 0.0 0.0 .
1141(18) 0.0 0.0 .
1193(18) 0.0 0.0 .
1200(18) 0.0 0.0 .
1164(18) 0.0 0.0 .
1193(19) 0.0 0.0 .
1158(18) 0.0 0.0 .
1125(17) 0.0 0.0 .
1170(18) 0.0 0.0 .
1213(19) 0.0 0.0 .
1185(19) 0.0 0.0 .
1180(18) 0.0 0.0 .
1147(18) 0.0 0.0 .
1173(18) 0.0 0.0 .
1170(19) 0.0 0.0 .
1166(19) 0.0 0.0 .
1153(18) 0.0 0.0 .
1160(18) 0.0 0.0 .
1195(18) 0.0 0.0 .
1141(18) 0.0 0.0 .
1125(18) 0.0 0.0 .
1146(18) 0.0 0.0 .
1175(18) 0.0 0.0 .
1177(18) 0.0 0.0 .
1142(18) 0.0 0.0 .
1178(19) 0.0 0.0 .
1180(18) 0.0 0.0 .
1109(17) 0.0 0.0 .
1172(18) 0.0 0.0 .
1119(18) 0.0 0.0 .
1170(19) 0.0 0.0 .
1150(18) 0.0 0.0 .
1131(17) 0.0 0.0 .
1164(18) 0.0 0.0 .
1182(19) 0.0 0.0 .
1155(18) 0.0 0.0 .
1138(18) 0.0 0.0 .
1106(17) 0.0 0.0 .
1203(19) 0.0 0.0 .
1167(19) 0.0 0.0 .
1144(18) 0.0 0.0 .
1143(18) 0.0 0.0 .
1150(18) 0.0 0.0 .
1194(19) 0.0 0.0 .
1136(19) 0.0 0.0 .
1125(18) 0.0 0.0 .
1184(18) 0.0 0.0 .
1137(18) 0.0 0.0 .
1099(18) 0.0 0.0 .
1139(19) 0.0 0.0 .
1151(18) 0.0 0.0 .
1163(18) 0.0 0.0 .
1148(18) 0.0 0.0 .
1143(18) 0.0 0.0 .
1147(19) 0.0 0.0 .
1156(19) 0.0 0.0 .
1107(17) 0.0 0.0 .
1140(18) 0.0 0.0 .
1125(18) 0.0 0.0 .
1142(18) 0.0 0.0 .
1119(18) 0.0 0.0 .
1101(17) 0.0 0.0 .
1123(18) 0.0 0.0 .
1146(18) 0.0 0.0 .
1126(18) 0.0 0.0 .
1140(18) 0.0 0.0 .
1140(18) 0.0 0.0 .
1120(18) 0.0 0.0 .
1118(18) 0.0 0.0 .
1107(18) 0.0 0.0 .
1090(18) 0.0 0.0 .
1121(17) 0.0 0.0 .
1147(18) 0.0 0.0 .
1079(18) 0.0 0.0 .
1108(18) 0.0 0.0 .
1137(18) 0.0 0.0 .
1107(17) 0.0 0.0 .
1115(18) 0.0 0.0 .
1127(18) 0.0 0.0 .
1119(18) 0.0 0.0 .
1079(17) 0.0 0.0 .
1111(17) 0.0 0.0 .
1111(18) 0.0 0.0 .
1064(18) 0.0 0.0 .
1098(18) 0.0 0.0 .
1107(17) 0.0 0.0 .
1089(17) 0.0 0.0 .
1099(18) 0.0 0.0 .
1098(18) 0.0 0.0 .
1120(18) 0.0 0.0 .
1085(17) 0.0 0.0 .
1096(17) 0.0 0.0 .
1137(18) 0.0 0.0 .
1107(18) 0.0 0.0 .
1093(18) 0.0 0.0 .
1090(17) 0.0 0.0 .
1111(17) 0.0 0.0 .
1104(18) 0.0 0.0 .
1093(18) 0.0 0.0 .
1143(18) 0.0 0.0 .
1080(17) 0.0 0.0 .
1089(17) 0.0 0.0 .
1065(18) 0.0 0.0 .
1068(18) 0.0 0.0 .
1032(17) 0.0 0.0 .
1057(17) 0.0 0.0 .
1099(17) 0.0 0.0 .
1109(18) 0.0 0.0 .
1074(18) 0.0 0.0 .
1114(18) 0.0 0.0 .
1048(17) 0.0 0.0 .
1080(17) 0.0 0.0 .
1076(18) 0.0 0.0 .
1055(18) 0.0 0.0 .
1012(17) 0.0 0.0 .
1095(17) 0.0 0.0 .
1095(18) 0.0 0.0 .
1075(18) 0.0 0.0 .
1026(17) 0.0 0.0 .
1084(17) 0.0 0.0 .
1086(17) 0.0 0.0 .
1094(18) 0.0 0.0 .
1067(18) 0.0 0.0 .
1076(18) 0.0 0.0 .
1108(18) 0.0 0.0 .
1058(17) 0.0 0.0 .
1080(18) 0.0 0.0 .
1053(18) 0.0 0.0 .
1037(17) 0.0 0.0 .
1043(17) 0.0 0.0 .
1050(17) 0.0 0.0 .
1017(17) 0.0 0.0 .
1003(17) 0.0 0.0 .
1056(17) 0.0 0.0 .
994(16) 0.0 0.0 .
1040(17) 0.0 0.0 .
1060(18) 0.0 0.0 .
1078(18) 0.0 0.0 .
1031(17) 0.0 0.0 .
988(16) 0.0 0.0 .
1004(16) 0.0 0.0 .
1035(17) 0.0 0.0 .
1081(18) 0.0 0.0 .
1119(18) 0.0 0.0 .
1054(17) 0.0 0.0 .
1059(17) 0.0 0.0 .
1039(17) 0.0 0.0 .
1005(18) 0.0 0.0 .
1001(17) 0.0 0.0 .
1064(17) 0.0 0.0 .
1005(17) 0.0 0.0 .
1017(17) 0.0 0.0 .
1024(18) 0.0 0.0 .
1049(17) 0.0 0.0 .
1012(17) 0.0 0.0 .
1053(17) 0.0 0.0 .
1039(17) 0.0 0.0 .
1047(18) 0.0 0.0 .
1051(17) 0.0 0.0 .
1015(17) 0.0 0.0 .
1017(17) 0.0 0.0 .
1047(17) 0.0 0.0 .
1023(17) 0.0 0.0 .
1067(18) 0.0 0.0 .
983(16) 0.0 0.0 .
1019(17) 0.0 0.0 .
1013(17) 0.0 0.0 .
1004(17) 0.0 0.0 .
1036(17) 0.0 0.0 .
988(16) 0.0 0.0 .
1008(17) 0.0 0.0 .
1009(17) 0.0 0.0 .
993(17) 0.0 0.0 .
981(17) 0.0 0.0 .
1014(16) 0.0 0.0 .
1018(17) 0.0 0.0 .
1031(18) 0.0 0.0 .
979(17) 0.0 0.0 .
995(17) 0.0 0.0 .
1040(17) 0.0 0.0 .
1023(17) 0.0 0.0 .
1003(17) 0.0 0.0 .
963(17) 0.0 0.0 .
997(17) 0.0 0.0 .
989(16) 0.0 0.0 .
988(17) 0.0 0.0 .
1008(17) 0.0 0.0 .
1007(17) 0.0 0.0 .
933(16) 0.0 0.0 .
978(16) 0.0 0.0 .
986(17) 0.0 0.0 .
980(18) 0.0 0.0 .
935(16) 0.0 0.0 .
1006(16) 0.0 0.0 .
965(16) 0.0 0.0 .
981(17) 0.0 0.0 .
983(17) 0.0 0.0 .
996(17) 0.0 0.0 .
965(16) 0.0 0.0 .
958(16) 0.0 0.0 .
963(17) 0.0 0.0 .
956(17) 0.0 0.0 .
978(17) 0.0 0.0 .
940(16) 0.0 0.0 .
998(17) 0.0 0.0 .
983(17) 0.0 0.0 .
1022(18) 0.0 0.0 .
974(17) 0.0 0.0 .
1001(16) 0.0 0.0 .
933(16) 0.0 0.0 .
937(16) 0.0 0.0 .
977(17) 0.0 0.0 .
984(17) 0.0 0.0 .
940(16) 0.0 0.0 .
974(17) 0.0 0.0 .
973(17) 0.0 0.0 .
942(17) 0.0 0.0 .
966(17) 0.0 0.0 .
931(16) 0.0 0.0 .
989(17) 0.0 0.0 .
933(16) 0.0 0.0 .
944(17) 0.0 0.0 .
964(16) 0.0 0.0 .
975(16) 0.0 0.0 .
943(16) 0.0 0.0 .
932(16) 0.0 0.0 .
962(17) 0.0 0.0 .
985(17) 0.0 0.0 .
945(16) 0.0 0.0 .
970(17) 0.0 0.0 .
920(16) 0.0 0.0 .
976(17) 0.0 0.0 .
996(17) 0.0 0.0 .
951(16) 0.0 0.0 .
978(17) 0.0 0.0 .
963(17) 0.0 0.0 .
967(17) 0.0 0.0 .
914(16) 0.0 0.0 .
926(16) 0.0 0.0 .
909(16) 0.0 0.0 .
919(17) 0.0 0.0 .
946(17) 0.0 0.0 .
948(16) 0.0 0.0 .
965(16) 0.0 0.0 .
937(16) 0.0 0.0 .
925(17) 0.0 0.0 .
935(16) 0.0 0.0 .
954(16) 0.0 0.0 .
953(16) 0.0 0.0 .
952(16) 0.0 0.0 .
942(17) 0.0 0.0 .
919(16) 0.0 0.0 .
958(16) 0.0 0.0 .
918(16) 0.0 0.0 .
931(16) 0.0 0.0 .
946(17) 0.0 0.0 .
969(17) 0.0 0.0 .
971(16) 0.0 0.0 .
933(16) 0.0 0.0 .
937(16) 0.0 0.0 .
971(17) 0.0 0.0 .
915(16) 0.0 0.0 .
937(16) 0.0 0.0 .
949(16) 0.0 0.0 .
946(17) 0.0 0.0 .
954(17) 0.0 0.0 .
951(17) 0.0 0.0 .
929(16) 0.0 0.0 .
966(16) 0.0 0.0 .
920(16) 0.0 0.0 .
920(16) 0.0 0.0 .
946(16) 0.0 0.0 .
889(15) 0.0 0.0 .
926(16) 0.0 0.0 .
911(16) 0.0 0.0 .
914(16) 0.0 0.0 .
915(16) 0.0 0.0 .
910(16) 0.0 0.0 .
898(16) 0.0 0.0 .
907(16) 0.0 0.0 .
903(16) 0.0 0.0 .
898(16) 0.0 0.0 .
912(16) 0.0 0.0 .
881(16) 0.0 0.0 .
858(16) 0.0 0.0 .
895(16) 0.0 0.0 .
907(16) 0.0 0.0 .
879(15) 0.0 0.0 .
913(16) 0.0 0.0 .
893(16) 0.0 0.0 .
898(16) 0.0 0.0 .
947(16) 0.0 0.0 .
887(15) 0.0 0.0 .
884(16) 0.0 0.0 .
857(16) 0.0 0.0 .
879(16) 0.0 0.0 .
929(16) 0.0 0.0 .
904(16) 0.0 0.0 .
953(16) 0.0 0.0 .
919(17) 0.0 0.0 .
908(16) 0.0 0.0 .
887(15) 0.0 0.0 .
904(16) 0.0 0.0 .
929(17) 0.0 0.0 .
906(17) 0.0 0.0 .
932(16) 0.0 0.0 .
841(15) 0.0 0.0 .
880(16) 0.0 0.0 .
892(16) 0.0 0.0 .
874(16) 0.0 0.0 .
865(16) 0.0 0.0 .
943(16) 0.0 0.0 .
934(16) 0.0 0.0 .
886(16) 0.0 0.0 .
875(16) 0.0 0.0 .
904(16) 0.0 0.0 .
916(16) 0.0 0.0 .
879(16) 0.0 0.0 .
906(16) 0.0 0.0 .
882(16) 0.0 0.0 .
862(16) 0.0 0.0 .
895(16) 0.0 0.0 .
883(16) 0.0 0.0 .
882(16) 0.0 0.0 .
937(17) 0.0 0.0 .
871(15) 0.0 0.0 .
854(15) 0.0 0.0 .
900(16) 0.0 0.0 .
876(16) 0.0 0.0 .
884(16) 0.0 0.0 .
868(15) 0.0 0.0 .
819(15) 0.0 0.0 .
852(16) 0.0 0.0 .
852(16) 0.0 0.0 .
874(16) 0.0 0.0 .
852(15) 0.0 0.0 .
854(15) 0.0 0.0 .
862(16) 0.0 0.0 .
887(16) 0.0 0.0 .
857(16) 0.0 0.0 .
841(15) 0.0 0.0 .
921(16) 0.0 0.0 .
891(16) 0.0 0.0 .
868(16) 0.0 0.0 .
844(16) 0.0 0.0 .
909(16) 0.0 0.0 .
851(15) 0.0 0.0 .
900(16) 0.0 0.0 .
866(16) 0.0 0.0 .
835(15) 0.0 0.0 .
873(15) 0.0 0.0 .
807(15) 0.0 0.0 .
891(16) 0.0 0.0 .
872(16) 0.0 0.0 .
840(15) 0.0 0.0 .
858(15) 0.0 0.0 .
885(16) 0.0 0.0 .
881(16) 0.0 0.0 .
882(16) 0.0 0.0 .
812(15) 0.0 0.0 .
828(15) 0.0 0.0 .
849(15) 0.0 0.0 .
837(16) 0.0 0.0 .
857(16) 0.0 0.0 .
861(16) 0.0 0.0 .
883(15) 0.0 0.0 .
882(16) 0.0 0.0 .
841(16) 0.0 0.0 .
834(16) 0.0 0.0 .
871(16) 0.0 0.0 .
836(15) 0.0 0.0 .
849(16) 0.0 0.0 .
875(16) 0.0 0.0 .
802(15) 0.0 0.0 .
821(15) 0.0 0.0 .
793(15) 0.0 0.0 .
813(15) 0.0 0.0 .
825(16) 0.0 0.0 .
853(16) 0.0 0.0 .
851(15) 0.0 0.0 .
819(15) 0.0 0.0 .
808(15) 0.0 0.0 .
865(16) 0.0 0.0 .
819(15) 0.0 0.0 .
832(15) 0.0 0.0 .
827(15) 0.0 0.0 .
853(16) 0.0 0.0 .
857(16) 0.0 0.0 .
792(15) 0.0 0.0 .
796(15) 0.0 0.0 .
799(15) 0.0 0.0 .
835(15) 0.0 0.0 .
838(16) 0.0 0.0 .
833(15) 0.0 0.0 .
856(15) 0.0 0.0 .
831(15) 0.0 0.0 .
825(16) 0.0 0.0 .
827(16) 0.0 0.0 .
840(15) 0.0 0.0 .
856(15) 0.0 0.0 .
844(15) 0.0 0.0 .
807(15) 0.0 0.0 .
810(16) 0.0 0.0 .
818(15) 0.0 0.0 .
807(15) 0.0 0.0 .
816(15) 0.0 0.0 .
774(15) 0.0 0.0 .
798(16) 0.0 0.0 .
776(15) 0.0 0.0 .
805(15) 0.0 0.0 .
813(15) 0.0 0.0 .
837(15) 0.0 0.0 .
835(16) 0.0 0.0 .
815(15) 0.0 0.0 .
805(15) 0.0 0.0 .
799(15) 0.0 0.0 .
805(15) 0.0 0.0 .
797(15) 0.0 0.0 .
865(16) 0.0 0.0 .
823(15) 0.0 0.0 .
790(15) 0.0 0.0 .
775(15) 0.0 0.0 .
816(15) 0.0 0.0 .
787(15) 0.0 0.0 .
815(15) 0.0 0.0 .
815(15) 0.0 0.0 .
803(16) 0.0 0.0 .
814(15) 0.0 0.0 .
804(15) 0.0 0.0 .
805(15) 0.0 0.0 .
772(15) 0.0 0.0 .
822(16) 0.0 0.0 .
813(15) 0.0 0.0 .
807(15) 0.0 0.0 .
825(15) 0.0 0.0 .
822(15) 0.0 0.0 .
795(16) 0.0 0.0 .
807(15) 0.0 0.0 .
798(15) 0.0 0.0 .
755(14) 0.0 0.0 .
833(16) 0.0 0.0 .
811(16) 0.0 0.0 .
787(15) 0.0 0.0 .
786(15) 0.0 0.0 .
817(15) 0.0 0.0 .
748(14) 0.0 0.0 .
785(16) 0.0 0.0 .
807(15) 0.0 0.0 .
827(15) 0.0 0.0 .
843(15) 0.0 0.0 .
794(15) 0.0 0.0 .
797(16) 0.0 0.0 .
770(15) 0.0 0.0 .
728(14) 0.0 0.0 .
769(14) 0.0 0.0 .
784(15) 0.0 0.0 .
809(16) 0.0 0.0 .
766(15) 0.0 0.0 .
789(15) 0.0 0.0 .
774(15) 0.0 0.0 .
792(15) 0.0 0.0 .
808(16) 0.0 0.0 .
725(14) 0.0 0.0 .
750(14) 0.0 0.0 .
753(14) 0.0 0.0 .
768(15) 0.0 0.0 .
783(15) 0.0 0.0 .
791(15) 0.0 0.0 .
764(14) 0.0 0.0 .
772(15) 0.0 0.0 .
763(15) 0.0 0.0 .
827(16) 0.0 0.0 .
770(15) 0.0 0.0 .
782(15) 0.0 0.0 .
773(15) 0.0 0.0 .
789(15) 0.0 0.0 .
779(15) 0.0 0.0 .
749(14) 0.0 0.0 .
778(14) 0.0 0.0 .
775(15) 0.0 0.0 .
741(15) 0.0 0.0 .
787(15) 0.0 0.0 .
774(15) 0.0 0.0 .
811(15) 0.0 0.0 .
773(15) 0.0 0.0 .
791(16) 0.0 0.0 .
743(14) 0.0 0.0 .
742(14) 0.0 0.0 .
774(15) 0.0 0.0 .
748(15) 0.0 0.0 .
782(16) 0.0 0.0 .
742(15) 0.0 0.0 .
749(14) 0.0 0.0 .
764(14) 0.0 0.0 .
782(15) 0.0 0.0 .
725(15) 0.0 0.0 .
735(14) 0.0 0.0 .
768(14) 0.0 0.0 .
730(14) 0.0 0.0 .
746(15) 0.0 0.0 .
718(15) 0.0 0.0 .
737(14) 0.0 0.0 .
733(14) 0.0 0.0 .
728(14) 0.0 0.0 .
750(15) 0.0 0.0 .
753(15) 0.0 0.0 .
739(14) 0.0 0.0 .
744(14) 0.0 0.0 .
754(14) 0.0 0.0 .
742(15) 0.0 0.0 .
744(15) 0.0 0.0 .
717(14) 0.0 0.0 .
751(14) 0.0 0.0 .
731(14) 0.0 0.0 .
753(15) 0.0 0.0 .
719(15) 0.0 0.0 .
723(14) 0.0 0.0 .
717(14) 0.0 0.0 .
752(15) 0.0 0.0 .
724(15) 0.0 0.0 .
717(14) 0.0 0.0 .
732(14) 0.0 0.0 .
761(14) 0.0 0.0 .
750(15) 0.0 0.0 .
715(15) 0.0 0.0 .
702(14) 0.0 0.0 .
704(14) 0.0 0.0 .
709(14) 0.0 0.0 .
725(15) 0.0 0.0 .
741(15) 0.0 0.0 .
723(14) 0.0 0.0 .
763(15) 0.0 0.0 .
710(14) 0.0 0.0 .
751(15) 0.0 0.0 .
707(14) 0.0 0.0 .
740(15) 0.0 0.0 .
744(14) 0.0 0.0 .
746(14) 0.0 0.0 .
714(14) 0.0 0.0 .
726(15) 0.0 0.0 .
676(14) 0.0 0.0 .
719(14) 0.0 0.0 .
737(14) 0.0 0.0 .
751(15) 0.0 0.0 .
703(15) 0.0 0.0 .
696(14) 0.0 0.0 .
713(14) 0.0 0.0 .
734(14) 0.0 0.0 .
723(14) 0.0 0.0 .
711(15) 0.0 0.0 .
688(14) 0.0 0.0 .
723(14) 0.0 0.0 .
711(14) 0.0 0.0 .
693(14) 0.0 0.0 .
669(14) 0.0 0.0 .
716(14) 0.0 0.0 .
719(14) 0.0 0.0 .
718(14) 0.0 0.0 .
704(14) 0.0 0.0 .
738(15) 0.0 0.0 .
739(15) 0.0 0.0 .
726(14) 0.0 0.0 .
721(14) 0.0 0.0 .
728(15) 0.0 0.0 .
724(15) 0.0 0.0 .
730(15) 0.0 0.0 .
715(14) 0.0 0.0 .
708(14) 0.0 0.0 .
679(14) 0.0 0.0 .
724(14) 0.0 0.0 .
715(14) 0.0 0.0 .
699(14) 0.0 0.0 .
662(14) 0.0 0.0 .
708(15) 0.0 0.0 .
712(14) 0.0 0.0 .
679(14) 0.0 0.0 .
677(14) 0.0 0.0 .
680(14) 0.0 0.0 .
683(14) 0.0 0.0 .
695(14) 0.0 0.0 .
744(14) 0.0 0.0 .
715(14) 0.0 0.0 .
705(14) 0.0 0.0 .
691(14) 0.0 0.0 .
750(15) 0.0 0.0 .
693(14) 0.0 0.0 .
699(14) 0.0 0.0 .
685(14) 0.0 0.0 .
690(15) 0.0 0.0 .
682(14) 0.0 0.0 .
721(14) 0.0 0.0 .
719(14) 0.0 0.0 .
702(14) 0.0 0.0 .
722(15) 0.0 0.0 .
703(14) 0.0 0.0 .
680(14) 0.0 0.0 .
720(14) 0.0 0.0 .
690(14) 0.0 0.0 .
675(14) 0.0 0.0 .
741(15) 0.0 0.0 .
710(14) 0.0 0.0 .
708(14) 0.0 0.0 .
690(14) 0.0 0.0 .
673(14) 0.0 0.0 .
673(14) 0.0 0.0 .
682(13) 0.0 0.0 .
702(14) 0.0 0.0 .
654(14) 0.0 0.0 .
728(15) 0.0 0.0 .
676(14) 0.0 0.0 .
675(13) 0.0 0.0 .
697(14) 0.0 0.0 .
706(14) 0.0 0.0 .
709(14) 0.0 0.0 .
711(14) 0.0 0.0 .
676(14) 0.0 0.0 .
704(14) 0.0 0.0 .
696(14) 0.0 0.0 .
675(14) 0.0 0.0 .
695(14) 0.0 0.0 .
696(14) 0.0 0.0 .
682(14) 0.0 0.0 .
694(14) 0.0 0.0 .
673(14) 0.0 0.0 .
686(14) 0.0 0.0 .
711(14) 0.0 0.0 .
673(14) 0.0 0.0 .
656(14) 0.0 0.0 .
693(14) 0.0 0.0 .
673(14) 0.0 0.0 .
668(13) 0.0 0.0 .
680(14) 0.0 0.0 .
680(14) 0.0 0.0 .
700(14) 0.0 0.0 .
670(14) 0.0 0.0 .
700(14) 0.0 0.0 .
702(14) 0.0 0.0 .
655(14) 0.0 0.0 .
686(14) 0.0 0.0 .
691(14) 0.0 0.0 .
719(14) 0.0 0.0 .
657(14) 0.0 0.0 .
660(14) 0.0 0.0 .
669(14) 0.0 0.0 .
706(14) 0.0 0.0 .
687(14) 0.0 0.0 .
650(14) 0.0 0.0 .
664(14) 0.0 0.0 .
662(14) 0.0 0.0 .
657(13) 0.0 0.0 .
720(14) 0.0 0.0 .
653(14) 0.0 0.0 .
659(14) 0.0 0.0 .
657(14) 0.0 0.0 .
682(14) 0.0 0.0 .
654(13) 0.0 0.0 .
664(14) 0.0 0.0 .
667(14) 0.0 0.0 .
687(14) 0.0 0.0 .
677(14) 0.0 0.0 .
726(14) 0.0 0.0 .
663(14) 0.0 0.0 .
663(14) 0.0 0.0 .
687(14) 0.0 0.0 .
669(13) 0.0 0.0 .
671(14) 0.0 0.0 .
646(14) 0.0 0.0 .
666(14) 0.0 0.0 .
677(14) 0.0 0.0 .
622(13) 0.0 0.0 .
650(14) 0.0 0.0 .
670(14) 0.0 0.0 .
645(14) 0.0 0.0 .
644(14) 0.0 0.0 .
646(13) 0.0 0.0 .
665(14) 0.0 0.0 .
684(14) 0.0 0.0 .
594(13) 0.0 0.0 .
639(13) 0.0 0.0 .
670(13) 0.0 0.0 .
669(14) 0.0 0.0 .
709(15) 0.0 0.0 .
652(14) 0.0 0.0 .
635(13) 0.0 0.0 .
716(14) 0.0 0.0 .
644(13) 0.0 0.0 .
639(14) 0.0 0.0 .
697(14) 0.0 0.0 .
649(13) 0.0 0.0 .
666(13) 0.0 0.0 .
656(14) 0.0 0.0 .
638(14) 0.0 0.0 .
660(14) 0.0 0.0 .
627(13) 0.0 0.0 .
647(13) 0.0 0.0 .
652(14) 0.0 0.0 .
655(14) 0.0 0.0 .
641(14) 0.0 0.0 .
620(13) 0.0 0.0 .
650(13) 0.0 0.0 .
638(14) 0.0 0.0 .
671(15) 0.0 0.0 .
667(14) 0.0 0.0 .
640(13) 0.0 0.0 .
669(13) 0.0 0.0 .
665(14) 0.0 0.0 .
680(14) 0.0 0.0 .
667(14) 0.0 0.0 .
626(13) 0.0 0.0 .
628(13) 0.0 0.0 .
678(14) 0.0 0.0 .
618(14) 0.0 0.0 .
649(14) 0.0 0.0 .
618(13) 0.0 0.0 .
660(14) 0.0 0.0 .
659(14) 0.0 0.0 .
657(14) 0.0 0.0 .
668(14) 0.0 0.0 .
646(13) 0.0 0.0 .
661(14) 0.0 0.0 .
649(14) 0.0 0.0 .
639(14) 0.0 0.0 .
646(13) 0.0 0.0 .
678(14) 0.0 0.0 .
655(14) 0.0 0.0 .
625(14) 0.0 0.0 .
641(14) 0.0 0.0 .
643(13) 0.0 0.0 .
623(13) 0.0 0.0 .
629(14) 0.0 0.0 .
652(14) 0.0 0.0 .
612(13) 0.0 0.0 .
635(13) 0.0 0.0 .
652(13) 0.0 0.0 .
652(14) 0.0 0.0 .
674(14) 0.0 0.0 .
668(14) 0.0 0.0 .
658(13) 0.0 0.0 .
644(13) 0.0 0.0 .
617(13) 0.0 0.0 .
635(14) 0.0 0.0 .
640(13) 0.0 0.0 .
653(13) 0.0 0.0 .
637(13) 0.0 0.0 .
708(14) 0.0 0.0 .
674(14) 0.0 0.0 .
635(13) 0.0 0.0 .
631(13) 0.0 0.0 .
667(13) 0.0 0.0 .
650(14) 0.0 0.0 .
673(14) 0.0 0.0 .
643(13) 0.0 0.0 .
637(13) 0.0 0.0 .
611(13) 0.0 0.0 .
628(13) 0.0 0.0 .
618(14) 0.0 0.0 .
607(13) 0.0 0.0 .
600(13) 0.0 0.0 .
627(13) 0.0 0.0 .
619(13) 0.0 0.0 .
596(13) 0.0 0.0 .
636(13) 0.0 0.0 .
652(13) 0.0 0.0 .
596(13) 0.0 0.0 .
620(13) 0.0 0.0 .
647(14) 0.0 0.0 .
654(14) 0.0 0.0 .
618(13) 0.0 0.0 .
623(13) 0.0 0.0 .
625(13) 0.0 0.0 .
654(14) 0.0 0.0 .
644(14) 0.0 0.0 .
646(13) 0.0 0.0 .
638(13) 0.0 0.0 .
604(13) 0.0 0.0 .
585(13) 0.0 0.0 .
615(13) 0.0 0.0 .
614(13) 0.0 0.0 .
612(13) 0.0 0.0 .
633(14) 0.0 0.0 .
629(13) 0.0 0.0 .
617(13) 0.0 0.0 .
628(13) 0.0 0.0 .
642(14) 0.0 0.0 .
654(14) 0.0 0.0 .
610(13) 0.0 0.0 .
615(13) 0.0 0.0 .
611(13) 0.0 0.0 .
649(14) 0.0 0.0 .
634(14) 0.0 0.0 .
634(14) 0.0 0.0 .
630(13) 0.0 0.0 .
628(13) 0.0 0.0 .
626(13) 0.0 0.0 .
654(14) 0.0 0.0 .
663(14) 0.0 0.0 .
634(13) 0.0 0.0 .
628(13) 0.0 0.0 .
636(13) 0.0 0.0 .
622(14) 0.0 0.0 .
624(13) 0.0 0.0 .
660(13) 0.0 0.0 .
650(13) 0.0 0.0 .
642(14) 0.0 0.0 .
657(14) 0.0 0.0 .
625(13) 0.0 0.0 .
634(13) 0.0 0.0 .
628(13) 0.0 0.0 .
607(13) 0.0 0.0 .
611(14) 0.0 0.0 .
646(14) 0.0 0.0 .
611(13) 0.0 0.0 .
673(14) 0.0 0.0 .
629(13) 0.0 0.0 .
628(14) 0.0 0.0 .
664(14) 0.0 0.0 .
628(13) 0.0 0.0 .
645(13) 0.0 0.0 .
617(13) 0.0 0.0 .
632(14) 0.0 0.0 .
645(14) 0.0 0.0 .
680(14) 0.0 0.0 .
612(13) 0.0 0.0 .
649(14) 0.0 0.0 .
649(14) 0.0 0.0 .
628(13) 0.0 0.0 .
609(13) 0.0 0.0 .
647(14) 0.0 0.0 .
655(14) 0.0 0.0 .
636(14) 0.0 0.0 .
630(13) 0.0 0.0 .
658(13) 0.0 0.0 .
681(14) 0.0 0.0 .
621(13) 0.0 0.0 .
626(13) 0.0 0.0 .
607(13) 0.0 0.0 .
620(13) 0.0 0.0 .
631(14) 0.0 0.0 .
662(14) 0.0 0.0 .
661(14) 0.0 0.0 .
606(13) 0.0 0.0 .
637(13) 0.0 0.0 .
656(14) 0.0 0.0 .
670(14) 0.0 0.0 .
663(14) 0.0 0.0 .
634(13) 0.0 0.0 .
639(13) 0.0 0.0 .
640(13) 0.0 0.0 .
676(14) 0.0 0.0 .
652(14) 0.0 0.0 .
625(13) 0.0 0.0 .
659(13) 0.0 0.0 .
628(13) 0.0 0.0 .
663(14) 0.0 0.0 .
659(14) 0.0 0.0 .
626(13) 0.0 0.0 .
651(13) 0.0 0.0 .
666(14) 0.0 0.0 .
667(14) 0.0 0.0 .
639(14) 0.0 0.0 .
668(13) 0.0 0.0 .
640(13) 0.0 0.0 .
677(14) 0.0 0.0 .
654(14) 0.0 0.0 .
648(14) 0.0 0.0 .
678(13) 0.0 0.0 .
652(13) 0.0 0.0 .
655(14) 0.0 0.0 .
686(14) 0.0 0.0 .
657(14) 0.0 0.0 .
676(13) 0.0 0.0 .
616(13) 0.0 0.0 .
668(14) 0.0 0.0 .
651(14) 0.0 0.0 .
688(14) 0.0 0.0 .
726(14) 0.0 0.0 .
717(14) 0.0 0.0 .
696(14) 0.0 0.0 .
673(14) 0.0 0.0 .
672(14) 0.0 0.0 .
683(13) 0.0 0.0 .
694(14) 0.0 0.0 .
721(15) 0.0 0.0 .
695(14) 0.0 0.0 .
726(14) 0.0 0.0 .
707(14) 0.0 0.0 .
725(14) 0.0 0.0 .
722(15) 0.0 0.0 .
726(15) 0.0 0.0 .
721(14) 0.0 0.0 .
692(14) 0.0 0.0 .
771(15) 0.0 0.0 .
763(15) 0.0 0.0 .
755(15) 0.0 0.0 .
784(15) 0.0 0.0 .
829(15) 0.0 0.0 .
827(15) 0.0 0.0 .
851(17) 0.0 0.0 .
840(15) 0.0 0.0 .
898(16) 0.0 0.0 .
877(15) 0.0 0.0 .
892(16) 0.0 0.0 .
944(17) 0.0 0.0 .
983(17) 0.0 0.0 .
995(16) 0.0 0.0 .
1039(17) 0.0 0.0 .
1033(17) 0.0 0.0 .
1088(18) 0.0 0.0 .
1131(18) 0.0 0.0 .
1173(18) 0.0 0.0 .
1248(18) 0.0 0.0 .
1287(19) 0.0 0.0 .
1364(20) 0.0 0.0 .
1417(20) 0.0 0.0 .
1461(20) 0.0 0.0 .
1527(21) 0.0 0.0 .
1502(21) 0.0 0.0 .
1623(22) 0.0 0.0 .
1730(22) 0.0 0.0 .
1855(22) 0.0 0.0 .
1923(23) 0.0 0.0 .
2127(25) 0.0 0.0 .
2307(26) 0.0 0.0 .
2498(27) 0.0 0.0 .
2814(28) 0.0 0.0 .
3103(29) 0.0 0.0 .
3596(33) 0.0 0.0 .
4048(34) 0.0 0.0 .
4708(37) 0.0 0. .
5465(38) 0.0 0. .
6332(43) 0.0 0. .
7283(47) 0.0 0. .
8256(49) 0.0 0. .
9399(51) 0.0 0. .
10743(54) 0.0 0. .
11899(59) 0.0 0. .
13354(64) 0.0 0. .
14656(66) 0.0 0. .
16135(68) 0.0 0. .
17836(70) 0.0 0. .
19701(76) 0.0 0. .
21841(83) 0.0 0. .
24157(85) 0.0 0. .
27240(88) 0.0 0. .
30206(92) 0.0 0. .
33970(100) 0.0 0. .
36120(110) 0.0 0. .
37840(110) 0.0 0. .
36640(100) 0.0 0. .
32670(97) 0.0 0. .
27998(92) 0.0 0. .
23410(87) 0.0 0. .
19448(76) 0.0 0. .
16077(66) 0.0 0. .
13506(61) 0.0 0. .
11081(57) 0.0 0. .
9217(54) 0.0 0. .
7825(48) 0.0 0. .
6714(43) 0.0 0. .
5772(40) 0.0 0. .
4953(38) 0.0 0. .
4456(37) 0.0 0. .
3869(33) 0.0 0.0 .
3421(30) 0.0 0.0 .
3127(30) 0.0 0.0 .
2805(28) 0.0 0.0 .
2497(27) 0.0 0.0 .
2252(25) 0.0 0.0 .
2066(24) 0.0 0.0 .
1898(23) 0.0 0.0 .
1807(23) 0.0 0.0 .
1713(22) 0.0 0.0 .
1598(21) 0.0 0.0 .
1535(20) 0.0 0.0 .
1389(20) 0.0 0.0 .
1348(20) 0.0 0.0 .
1320(20) 0.0 0.0 .
1187(18) 0.0 0.0 .
1240(18) 0.0 0.0 .
1178(19) 0.0 0.0 .
1090(18) 0.0 0.0 .
1086(18) 0.0 0.0 .
974(16) 0.0 0.0 .
1020(17) 0.0 0.0 .
950(17) 0.0 0.0 .
942(17) 0.0 0.0 .
932(16) 0.0 0.0 .
912(16) 0.0 0.0 .
897(16) 0.0 0.0 .
879(16) 0.0 0.0 .
869(16) 0.0 0.0 .
833(15) 0.0 0.0 .
841(15) 0.0 0.0 .
790(15) 0.0 0.0 .
769(15) 0.0 0.0 .
779(15) 0.0 0.0 .
799(15) 0.0 0.0 .
785(15) 0.0 0.0 .
738(14) 0.0 0.0 .
737(15) 0.0 0.0 .
729(15) 0.0 0.0 .
731(14) 0.0 0.0 .
738(14) 0.0 0.0 .
730(14) 0.0 0.0 .
727(15) 0.0 0.0 .
702(15) 0.0 0.0 .
714(15) 0.0 0.0 .
677(13) 0.0 0.0 .
728(14) 0.0 0.0 .
696(14) 0.0 0.0 .
660(14) 0.0 0.0 .
647(14) 0.0 0.0 .
688(14) 0.0 0.0 .
665(14) 0.0 0.0 .
658(14) 0.0 0.0 .
662(14) 0.0 0.0 .
658(14) 0.0 0.0 .
634(13) 0.0 0.0 .
640(13) 0.0 0.0 .
665(14) 0.0 0.0 .
658(14) 0.0 0.0 .
665(14) 0.0 0.0 .
635(13) 0.0 0.0 .
630(13) 0.0 0.0 .
660(14) 0.0 0.0 .
654(14) 0.0 0.0 .
653(14) 0.0 0.0 .
623(13) 0.0 0.0 .
610(13) 0.0 0.0 .
628(14) 0.0 0.0 .
699(14) 0.0 0.0 .
604(13) 0.0 0.0 .
603(13) 0.0 0.0 .
615(13) 0.0 0.0 .
626(14) 0.0 0.0 .
628(13) 0.0 0.0 .
604(13) 0.0 0.0 .
613(13) 0.0 0.0 .
584(13) 0.0 0.0 .
627(14) 0.0 0.0 .
627(13) 0.0 0.0 .
605(13) 0.0 0.0 .
639(13) 0.0 0.0 .
649(14) 0.0 0.0 .
607(14) 0.0 0.0 .
634(14) 0.0 0.0 .
614(13) 0.0 0.0 .
588(13) 0.0 0.0 .
609(13) 0.0 0.0 .
591(14) 0.0 0.0 .
574(13) 0.0 0.0 .
585(13) 0.0 0.0 .
594(13) 0.0 0.0 .
616(14) 0.0 0.0 .
568(13) 0.0 0.0 .
602(13) 0.0 0.0 .
594(13) 0.0 0.0 .
581(13) 0.0 0.0 .
575(13) 0.0 0.0 .
616(14) 0.0 0.0 .
574(13) 0.0 0.0 .
595(13) 0.0 0.0 .
590(13) 0.0 0.0 .
593(13) 0.0 0.0 .
592(13) 0.0 0.0 .
621(14) 0.0 0.0 .
564(12) 0.0 0.0 .
596(13) 0.0 0.0 .
540(12) 0.0 0.0 .
551(13) 0.0 0.0 .
558(13) 0.0 0.0 .
596(13) 0.0 0.0 .
576(13) 0.0 0.0 .
546(13) 0.0 0.0 .
522(12) 0.0 0.0 .
562(13) 0.0 0.0 .
577(12) 0.0 0.0 .
567(13) 0.0 0.0 .
594(13) 0.0 0.0 .
594(13) 0.0 0.0 .
575(13) 0.00589 563.9 40.2
588(13) 0.00597 563.9 39.6
582(13) 0.00559 563.9 39.1
587(13) 0.00534 563.9 38.5
548(12) 0.00605 563.9 38.0
553(12) 0.00619 563.9 37.4
590(13) 0.00599 563.7 36.9
567(13) 0.00591 563.4 36.4
559(13) 0.00582 563.0 35.9
597(13) 0.00563 562.7 35.4
566(12) 0.00617 562.4 34.9
529(12) 0.00661 562.1 34.4
548(13) 0.00583 561.8 34.0
559(13) 0.00550 561.5 33.5
570(13) 0.00581 561.2 33.1
577(13) 0.00598 560.9 32.6
583(12) 0.00609 560.6 32.2
585(13) 0.00579 560.3 31.8
572(13) 0.00538 560.0 31.4
594(13) 0.00550 559.7 31.0
540(12) 0.00649 559.4 30.6
541(12) 0.00648 559.1 30.2
581(13) 0.00558 558.8 29.8
571(13) 0.00538 558.5 29.4
577(13) 0.00562 558.2 29.1
553(12) 0.00635 557.9 28.7
530(12) 0.00646 557.6 28.4
540(13) 0.00598 557.2 28.0
600(14) 0.00505 556.9 27.7
546(13) 0.00604 556.6 27.3
553(12) 0.00638 556.3 27.0
551(12) 0.00624 556.0 26.7
549(12) 0.00615 555.7 26.4
569(13) 0.00557 555.4 26.1
547(13) 0.00595 555.1 25.8
539(12) 0.00648 554.8 25.5
561(13) 0.00602 554.5 25.2
554(13) 0.00593 554.2 24.9
560(13) 0.00557 553.9 24.6
529(12) 0.00619 553.6 24.3
534(12) 0.00655 553.3 24.1
579(13) 0.00581 553.0 23.8
575(13) 0.00566 552.7 23.5
559(13) 0.00582 552.4 23.3
554(13) 0.00594 552.1 23.0
532(12) 0.00663 551.8 22.8
542(12) 0.00613 551.4 22.5
560(13) 0.00578 551.1 22.3
543(13) 0.00591 550.8 22.1
528(12) 0.00640 550.5 21.8
553(12) 0.00632 550.2 21.6
546(12) 0.00609 549.9 21.4
537(12) 0.00618 549.6 21.2
559(13) 0.00598 549.3 20.9
559(12) 0.00619 549.0 20.7
568(12) 0.00619 548.7 20.5
568(13) 0.00579 548.4 20.3
552(13) 0.00571 548.1 20.1
542(12) 0.00609 547.8 19.9
565(12) 0.00608 547.5 19.7
561(12) 0.00628 547.2 19.5
555(13) 0.00586 546.9 19.3
539(13) 0.00584 546.6 19.1
542(12) 0.00617 546.3 18.9
523(12) 0.00666 546.0 18.8
557(12) 0.00627 545.6 18.6
559(13) 0.00584 545.3 18.4
552(13) 0.00566 545.0 18.2
552(13) 0.00605 544.7 18.1
538(12) 0.00645 544.4 17.9
527(12) 0.00661 544.1 17.7
525(12) 0.00616 543.8 17.6
528(13) 0.00586 543.5 17.4
556(13) 0.00590 543.2 17.3
514(12) 0.00671 542.9 17.1
513(12) 0.00676 542.6 17.0
503(12) 0.00657 542.3 16.8
512(13) 0.00600 542.0 16.7
508(12) 0.00658 541.7 16.5
507(12) 0.00687 541.4 16.4
519(12) 0.00668 541.1 16.2
542(13) 0.00602 540.8 16.1
537(13) 0.00579 540.5 15.9
538(13) 0.00600 540.2 15.8
515(12) 0.00674 539.8 15.7
557(12) 0.00614 539.5 15.5
541(13) 0.00592 539.2 15.4
554(13) 0.00562 538.9 15.3
524(12) 0.00626 538.6 15.2
545(12) 0.00634 538.3 15.0
566(13) 0.00601 538.0 14.9
553(13) 0.00592 537.7 14.8
547(13) 0.00591 537.4 14.7
545(12) 0.00605 537.1 14.6
507(12) 0.00692 536.8 14.5
536(12) 0.00631 536.5 14.3
523(13) 0.00604 536.2 14.2
529(12) 0.00619 535.9 14.1
571(13) 0.00578 535.6 14.0
529(12) 0.00661 535.3 13.9
543(12) 0.00606 535.0 13.8
533(12) 0.00619 534.7 13.7
548(13) 0.00581 534.4 13.6
538(12) 0.00612 534.0 13.5
537(12) 0.00650 533.7 13.4
519(12) 0.00629 533.4 13.3
523(12) 0.00612 533.1 13.2
544(13) 0.00592 532.8 13.1
530(12) 0.00647 532.5 13.0
524(12) 0.00664 532.2 13.0
534(12) 0.00625 531.9 12.9
534(13) 0.00585 531.6 12.8
550(13) 0.00580 531.3 12.7
542(12) 0.00642 531.0 12.6
511(12) 0.00678 530.7 12.5
515(12) 0.00642 530.4 12.4
535(13) 0.00567 530.1 12.4
542(13) 0.00604 529.8 12.3
555(12) 0.00618 529.5 12.2
519(12) 0.00668 529.2 12.1
527(12) 0.00630 528.9 12.1
521(13) 0.00585 528.6 12.0
545(13) 0.00603 528.2 11.9
521(12) 0.00659 527.9 11.8
559(12) 0.00624 527.6 11.8
527(12) 0.00641 527.3 11.7
510(12) 0.00618 527.0 11.6
501(12) 0.00645 526.7 11.6
529(12) 0.00655 526.4 11.5
514(12) 0.00678 526.1 11.4
527(12) 0.00621 525.8 11.4
513(12) 0.00617 525.5 11.3
518(12) 0.00622 525.2 11.3
526(12) 0.00666 524.9 11.2
514(12) 0.00665 524.6 11.2
516(12) 0.00623 524.3 11.1
504(12) 0.00626 524.0 11.0
518(12) 0.00627 523.7 11.0
506(12) 0.00681 523.4 10.9
518(12) 0.00639 523.1 10.9
527(13) 0.00600 522.8 10.8
525(13) 0.00587 522.4 10.8
524(12) 0.00619 522.1 10.8
509(12) 0.00683 521.8 10.7
546(13) 0.00600 521.5 10.7
524(12) 0.00626 521.2 10.6
529(12) 0.00616 520.9 10.6
534(12) 0.00623 520.6 10.6
526(12) 0.00670 520.3 10.5
515(12) 0.00649 520.0 10.5
517(12) 0.00622 519.7 10.4
512(12) 0.00640 519.4 10.4
522(12) 0.00653 519.1 10.4
536(12) 0.00650 518.8 10.4
495(12) 0.00664 518.5 10.3
537(13) 0.00588 518.2 10.3
542(13) 0.00597 517.9 10.3
531(12) 0.00637 517.6 10.2
490(11) 0.00708 517.3 10.2
499(12) 0.00655 517.0 10.2
519(12) 0.00611 516.6 10.2
524(12) 0.00630 516.3 10.2
513(12) 0.00657 516.0 10.2
535(12) 0.00656 515.7 10.1
522(12) 0.00627 515.4 10.1
529(13) 0.00586 515.1 10.1
477(12) 0.00683 514.8 10.1
516(12) 0.00660 514.5 10.1
514(12) 0.00681 514.2 10.1
520(13) 0.00604 513.9 10.1
551(13) 0.00532 513.6 10.1
524(12) 0.00637 513.3 10.1
513(12) 0.00674 513.0 10.1
544(12) 0.00642 512.7 10.1
531(12) 0.00627 512.4 10.2
501(12) 0.00649 512.1 10.2
516(12) 0.00650 511.8 10.2
525(12) 0.00657 511.5 10.2
505(12) 0.00686 511.2 10.2
537(12) 0.00615 510.8 10.3
516(12) 0.00613 510.5 10.3
513(12) 0.00640 510.2 10.3
521(12) 0.00668 509.9 10.4
530(12) 0.00643 509.6 10.4
527(12) 0.00637 509.3 10.4
526(12) 0.00610 509.0 10.5
520(12) 0.00614 508.7 10.6
526(12) 0.00656 508.6 10.6
520(12) 0.00650 508.5 10.7
513(12) 0.00643 508.3 10.7
511(12) 0.00647 508.2 10.8
523(12) 0.00638 508.1 10.9
529(12) 0.00658 508.0 11.0
540(12) 0.00619 507.9 11.1
530(12) 0.00607 507.8 11.2
490(12) 0.00648 507.7 11.3
521(12) 0.00628 507.5 11.4
517(12) 0.00683 507.4 11.5
502(12) 0.00657 507.3 11.7
500(12) 0.00631 507.2 11.8
516(12) 0.00617 507.1 11.9
521(12) 0.00647 507.0 12.1
522(12) 0.00667 506.9 12.3
513(12) 0.00641 506.8 12.5
482(12) 0.00673 506.6 12.7
505(12) 0.00652 506.5 12.9
523(12) 0.00649 506.4 13.1
510(12) 0.00686 506.3 13.3
515(12) 0.00637 506.2 13.6
539(13) 0.00576 506.1 13.9
517(12) 0.00635 506.0 14.2
519(12) 0.00663 505.9 14.5
519(12) 0.00673 505.7 14.8
521(12) 0.00613 505.6 15.2
523(13) 0.00565 505.5 15.6
517(12) 0.00618 505.4 16.0
513(12) 0.00659 505.3 16.5
526(12) 0.00661 505.2 17.0
525(12) 0.00630 505.1 17.5
541(13) 0.00559 504.9 18.1
521(12) 0.00629 504.8 18.7
548(12) 0.00624 504.7 19.4
518(12) 0.00679 504.6 20.2
576(13) 0.00568 504.5 21.0
521(13) 0.00593 504.4 21.9
524(12) 0.00627 504.3 22.9
551(12) 0.00640 504.2 23.9
537(12) 0.00639 504.0 25.2
541(12) 0.00606 503.9 26.5
521(12) 0.00612 503.8 28.0
562(13) 0.00585 503.7 29.8
523(12) 0.00669 503.6 31.8
531(12) 0.00648 503.5 34.0
552(13) 0.00590 503.4 36.6
556(13) 0.00566 503.3 39.7
549(13) 0.00601 503.1 43.2
544(12) 0.00650 503.0 47.3
555(12) 0.00622 502.9 52.1
588(13) 0.00556 502.8 57.6
576(13) 0.00569 502.7 64.1
560(13) 0.00579 502.6 71.5
610(13) 0.00574 502.5 80.0
606(13) 0.00570 502.3 89.8
640(14) 0.00512 502.2 100.8
650(14) 0.00491 502.1 113.2
613(13) 0.00542 502.0 126.9
681(14) 0.00519 501.9 141.9
681(14) 0.00496 501.8 158.1
656(14) 0.00506 501.7 175.3
674(14) 0.00486 501.6 193.1
718(14) 0.00479 501.4 210.9
695(14) 0.00513 501.3 227.9
688(14) 0.00493 501.2 243.3
694(14) 0.00473 501.1 255.8
721(14) 0.00463 501.0 264.5
717(14) 0.00480 500.9 268.4
700(14) 0.00508 500.8 267.1
710(14) 0.00471 500.7 260.8
676(14) 0.00481 500.5 250.1
677(14) 0.00491 500.4 236.0
645(13) 0.00545 500.3 219.7
647(13) 0.00547 500.2 202.1
630(14) 0.00522 500.1 184.2
612(14) 0.00512 500.0 166.6
614(13) 0.00530 499.9 149.8
544(12) 0.00634 499.7 134.1
568(12) 0.00611 499.6 119.7
536(13) 0.00596 499.5 106.5
554(13) 0.00550 499.4 94.8
571(13) 0.00568 499.3 84.3
552(12) 0.00631 499.2 75.1
524(12) 0.00663 499.1 67.0
535(12) 0.00625 499.0 60.0
543(13) 0.00562 498.8 54.0
550(13) 0.00594 498.7 48.8
517(12) 0.00672 498.6 44.3
547(12) 0.00628 498.5 40.4
534(12) 0.00610 498.4 37.1
511(12) 0.00609 498.3 34.2
519(12) 0.00614 498.2 31.7
511(12) 0.00687 498.0 29.6
546(12) 0.00634 497.9 27.7
520(12) 0.00622 497.8 26.0
488(12) 0.00646 497.7 24.5
508(12) 0.00649 497.6 23.2
506(12) 0.00678 497.5 22.0
505(12) 0.00675 497.4 20.9
518(12) 0.00629 497.3 19.9
525(13) 0.00595 497.1 19.0
503(12) 0.00658 497.0 18.1
508(12) 0.00683 496.9 17.4
500(12) 0.00674 496.8 16.7
516(12) 0.00623 496.7 16.0
506(12) 0.00653 496.6 15.4
520(12) 0.00657 496.5 14.8
521(12) 0.00671 496.4 14.3
502(12) 0.00664 496.2 13.8
536(13) 0.00603 496.1 13.3
512(12) 0.00644 496.0 12.9
511(12) 0.00649 495.9 12.5
516(12) 0.00673 495.8 12.1
495(12) 0.00651 495.7 11.7
487(12) 0.00648 495.6 11.4
496(12) 0.00654 495.4 11.1
523(12) 0.00645 495.3 10.8
491(12) 0.00707 495.2 10.5
513(12) 0.00626 495.1 10.2
492(12) 0.00644 495.0 10.0
501(12) 0.00655 494.9 9.7
511(12) 0.00665 494.8 9.5
510(12) 0.00677 494.7 9.3
527(12) 0.00620 494.5 9.1
486(12) 0.00656 494.4 8.9
492(12) 0.00661 494.3 8.7
503(12) 0.00667 494.2 8.5
504(12) 0.00687 494.1 8.3
518(12) 0.00625 494.0 8.1
501(12) 0.00615 493.9 8.0
497(12) 0.00658 493.8 7.8
524(12) 0.00668 493.6 7.7
469(11) 0.00735 493.5 7.5
494(12) 0.00664 493.4 7.4
499(12) 0.00613 493.3 7.3
493(12) 0.00679 493.2 7.2
511(12) 0.00676 493.1 7.0
483(11) 0.00716 493.0 6.9
487(12) 0.00677 492.8 6.8
489(12) 0.00648 492.7 6.7
518(12) 0.00627 492.6 6.6
460(11) 0.00758 492.5 6.5
478(12) 0.00701 492.4 6.4
462(11) 0.00725 492.3 6.3
499(12) 0.00633 492.2 6.2
517(12) 0.00623 492.1 6.1
519(12) 0.00669 491.9 6.1
531(12) 0.00643 491.8 6.0
524(12) 0.00622 491.7 5.9
484(12) 0.00651 491.6 5.8
494(12) 0.00670 491.5 5.7
502(12) 0.00691 491.4 5.7
448(11) 0.00765 491.3 5.6
495(12) 0.00666 491.2 5.5
538(13) 0.00588 491.0 5.5
500(12) 0.00653 490.9 5.4
484(11) 0.00722 490.8 5.3
510(12) 0.00662 490.7 5.3
472(12) 0.00683 490.6 5.2
485(12) 0.00655 490.5 5.2
486(12) 0.00674 490.4 5.1
498(12) 0.00704 490.2 5.1
537(12) 0.00611 490.1 5.0
483(12) 0.00673 490.0 4.9
476(12) 0.00675 489.9 4.9
491(12) 0.00673 489.8 4.8
478(11) 0.00725 489.7 4.8
505(12) 0.00652 489.6 4.8
517(13) 0.00594 489.5 4.7
507(12) 0.00640 489.3 4.7
516(12) 0.00655 489.2 4.6
511(12) 0.00687 489.1 4.6
474(12) 0.00681 489.0 4.5
517(12) 0.00605 489.0 4.5
529(12) 0.00627 489.0 4.5
495(12) 0.00708 488.9 4.4
486(11) 0.00710 488.9 4.4
503(12) 0.00652 488.9 4.3
487(12) 0.00659 488.8 4.3
525(12) 0.00614 488.8 4.3
511(12) 0.00672 488.8 4.2
473(11) 0.00737 488.7 4.2
504(12) 0.00635 488.7 4.2
514(13) 0.00582 488.6 4.1
477(12) 0.00704 488.6 4.1
472(11) 0.00731 488.6 4.1
448(11) 0.00780 488.5 4.0
485(12) 0.00660 488.5 4.0
472(12) 0.00632 488.5 4.0
467(12) 0.00705 488.4 3.9
500(12) 0.00698 488.4 3.9
496(12) 0.00694 488.4 3.9
510(12) 0.00645 488.3 3.9
501(12) 0.00629 488.3 3.8
467(11) 0.00713 488.3 3.8
491(11) 0.00710 488.2 3.8
517(12) 0.00665 488.2 3.7
497(12) 0.00662 488.1 3.7
522(12) 0.00609 488.1 3.7
511(12) 0.00651 488.1 3.7
481(11) 0.00725 488.0 3.6
513(12) 0.00649 488.0 3.6
495(12) 0.00652 488.0 3.6
467(12) 0.00702 487.9 3.6
460(11) 0.00719 487.9 3.5
469(11) 0.00739 487.9 3.5
505(12) 0.00664 487.8 3.5
498(12) 0.00659 487.8 3.5
513(12) 0.00630 487.8 3.5
489(12) 0.00673 487.7 3.4
497(12) 0.00702 487.7 3.4
507(12) 0.00666 487.6 3.4
499(12) 0.00646 487.6 3.4
484(12) 0.00661 487.6 3.4
472(11) 0.00725 487.5 3.3
501(12) 0.00693 487.5 3.3
475(12) 0.00684 487.5 3.3
488(12) 0.00662 487.4 3.3
482(12) 0.00681 487.4 3.3
475(12) 0.00707 487.4 3.2
477(11) 0.00731 487.3 3.2
478(12) 0.00694 487.3 3.2
522(13) 0.00595 487.3 3.2
511(12) 0.00635 487.2 3.2
533(12) 0.00650 487.2 3.1
519(12) 0.00674 487.1 3.1
501(12) 0.00658 487.1 3.1
504(12) 0.00618 487.1 3.1
500(12) 0.00656 487.0 3.1
478(12) 0.00706 487.0 3.1
507(12) 0.00688 487.0 3.0
476(12) 0.00679 486.9 3.0
487(12) 0.00626 486.9 3.0
507(12) 0.00634 486.9 3.0
488(12) 0.00704 486.8 3.0
500(12) 0.00706 486.8 3.0
475(12) 0.00692 486.8 3.0
490(12) 0.00626 486.7 2.9
516(12) 0.00633 486.7 2.9
481(11) 0.00712 486.6 2.9
502(12) 0.00689 486.6 2.9
504(12) 0.00645 486.6 2.9
489(12) 0.00639 486.5 2.9
481(12) 0.00681 486.5 2.9
489(11) 0.00720 486.5 2.8
491(12) 0.00706 486.4 2.8
484(12) 0.00673 486.4 2.8
490(12) 0.00635 486.4 2.8
468(12) 0.00701 486.3 2.8
471(11) 0.00734 486.3 2.8
499(12) 0.00675 486.2 2.8
525(12) 0.00619 486.2 2.7
510(12) 0.00630 486.2 2.7
455(11) 0.00715 486.1 2.7
501(12) 0.00693 486.1 2.7
494(12) 0.00688 486.1 2.7
495(12) 0.00648 486.0 2.7
490(12) 0.00650 486.0 2.7
494(12) 0.00662 486.0 2.7
480(11) 0.00726 485.9 2.6
524(12) 0.00633 485.9 2.6
502(12) 0.00644 485.9 2.6
459(12) 0.00708 485.8 2.6
474(11) 0.00712 485.8 2.6
464(11) 0.00751 485.7 2.6
487(12) 0.00665 485.7 2.6
493(12) 0.00655 485.7 2.6
500(12) 0.00645 485.6 2.6
495(12) 0.00682 485.6 2.5
503(12) 0.00693 485.6 2.5
460(11) 0.00716 485.5 2.5
472(12) 0.00667 485.5 2.5
498(12) 0.00663 485.5 2.5
482(11) 0.00720 485.4 2.5
483(11) 0.00710 485.4 2.5
495(12) 0.00670 485.4 2.5
496(12) 0.00637 485.3 2.8
510(12) 0.00650 485.3 2.7
474(11) 0.00722 485.2 2.7
469(11) 0.00740 485.2 2.7
490(12) 0.00686 485.2 2.7
519(13) 0.00595 485.1 2.7
492(12) 0.00670 485.1 2.7
510(12) 0.00678 485.1 2.7
506(12) 0.00684 485.0 2.7
453(11) 0.00722 485.0 2.7
466(12) 0.00667 485.0 2.7
466(12) 0.00693 484.9 2.7
490(12) 0.00696 484.9 2.7
474(11) 0.00729 484.9 2.7
482(12) 0.00689 484.8 2.6
489(12) 0.00644 484.8 2.6
509(12) 0.00645 484.7 2.6
507(12) 0.00688 484.7 2.6
469(11) 0.00735 484.7 2.6
486(12) 0.00676 484.6 2.6
478(12) 0.00658 484.6 2.6
490(12) 0.00675 484.6 2.6
507(12) 0.00693 484.5 2.6
507(12) 0.00675 484.5 2.6
493(12) 0.00668 484.5 2.6
491(12) 0.00651 484.4 2.6
495(12) 0.00647 484.4 2.6
484(11) 0.00723 484.4 2.6
498(12) 0.00668 484.3 2.5
496(12) 0.00648 484.3 2.5
501(12) 0.00629 484.2 2.5
462(12) 0.00703 484.2 2.5
495(11) 0.00708 484.2 2.5
491(12) 0.00687 484.1 2.5
494(12) 0.00654 484.1 2.5
491(12) 0.00673 484.1 2.5
487(12) 0.00693 484.0 2.5
464(11) 0.00744 484.0 2.5
502(12) 0.00640 484.0 2.5
489(12) 0.00674 483.9 2.5
472(12) 0.00698 483.9 2.5
470(11) 0.00720 483.9 2.5
454(11) 0.00759 483.8 2.5
473(12) 0.00689 483.8 2.5
489(12) 0.00626 483.7 2.4
491(12) 0.00644 483.7 2.4
489(12) 0.00697 483.7 2.4
447(11) 0.00780 483.6 2.4
487(12) 0.00642 483.6 2.4
466(12) 0.00675 483.6 2.4
498(12) 0.00645 483.5 2.4
471(11) 0.00729 483.5 2.4
467(11) 0.00747 483.5 2.4
493(12) 0.00668 483.4 2.4
470(12) 0.00644 483.4 2.4
466(12) 0.00680 483.3 2.4
483(11) 0.00718 483.3 2.4
483(11) 0.00720 483.3 2.4
446(11) 0.00756 483.2 2.4
490(12) 0.00619 483.2 2.4
492(12) 0.00677 483.2 2.4
500(12) 0.00702 483.1 2.4
475(11) 0.00729 483.1 2.4
502(12) 0.00631 483.1 2.4
494(12) 0.00620 483.0 2.4
455(11) 0.00733 483.0 2.4
490(11) 0.00721 483.0 2.3
526(12) 0.00647 482.9 2.3
507(12) 0.00645 482.9 2.3
464(12) 0.00685 482.8 2.3
432(11) 0.00747 482.8 2.3
485(11) 0.00722 482.8 2.3
501(12) 0.00678 482.7 2.3
475(12) 0.00685 482.7 2.3
487(12) 0.00640 482.7 2.3
499(12) 0.00640 482.6 2.3
502(12) 0.00700 482.6 2.3
471(11) 0.00716 482.6 2.3
495(12) 0.00644 482.5 2.3
498(12) 0.00629 482.5 2.3
491(12) 0.00673 482.5 2.3
496(12) 0.00705 482.4 2.3
486(12) 0.00695 482.4 2.3
498(12) 0.00654 482.3 2.3
481(12) 0.00683 482.3 2.3
477(12) 0.00697 482.3 2.3
488(11) 0.00713 482.2 2.3
493(12) 0.00670 482.2 2.3
491(12) 0.00659 482.2 2.3
508(12) 0.00632 482.1 2.3
463(11) 0.00734 482.1 2.3
483(11) 0.00720 482.1 2.3
503(12) 0.00653 482.0 2.3
507(13) 0.00601 482.0 2.3
464(11) 0.00718 482.0 2.3
490(12) 0.00686 481.9 2.3
505(12) 0.00692 481.9 2.3
515(12) 0.00649 481.8 2.3
488(12) 0.00653 481.8 2.3
476(12) 0.00691 481.8 2.3
490(12) 0.00697 481.7 2.3
457(11) 0.00760 481.7 2.3
498(12) 0.00673 481.8 2.3
486(12) 0.00658 481.8 2.3
481(12) 0.00679 481.8 2.3
459(11) 0.00751 481.8 2.3
497(12) 0.00698 481.8 2.3
521(12) 0.00625 481.9 2.3
502(12) 0.00607 481.9 2.3
484(12) 0.00698 481.9 2.3
502(12) 0.00696 481.9 2.3
500(12) 0.00698 482.0 2.3
482(12) 0.00672 482.0 2.3
486(12) 0.00632 482.0 2.3
501(12) 0.00649 482.0 2.3
488(11) 0.00714 482.1 2.3
486(12) 0.00702 482.1 2.3
479(12) 0.00678 482.1 2.3
478(12) 0.00632 482.1 2.3
446(11) 0.00747 482.2 2.3
477(11) 0.00727 482.2 2.3
465(11) 0.00724 482.2 2.3
464(12) 0.00692 482.2 2.3
485(12) 0.00639 482.2 2.3
490(12) 0.00664 482.3 2.3
492(12) 0.00704 482.3 2.3
484(12) 0.00698 482.3 2.3
467(12) 0.00695 482.3 2.3
485(12) 0.00638 482.4 2.3
470(12) 0.00705 482.4 2.3
508(12) 0.00688 482.4 2.3
488(12) 0.00676 482.4 2.3
478(12) 0.00673 482.5 2.3
482(12) 0.00654 482.5 2.3
498(12) 0.00648 482.5 2.3
461(11) 0.00764 482.5 2.3
452(11) 0.00726 482.6 2.3
469(12) 0.00681 482.6 2.3
465(12) 0.00695 482.6 2.3
488(12) 0.00694 482.6 2.3
484(11) 0.00722 482.6 2.3
500(12) 0.00654 482.7 2.3
483(12) 0.00661 482.7 2.3
470(12) 0.00694 482.7 2.3
502(12) 0.00676 482.7 2.3
497(12) 0.00699 482.8 2.3
500(12) 0.00642 482.8 2.3
496(12) 0.00647 482.8 2.3
472(12) 0.00692 482.8 2.3
487(12) 0.00697 482.9 2.3
504(12) 0.00689 482.9 2.3
484(12) 0.00684 482.9 2.4
515(13) 0.00600 482.9 2.4
514(12) 0.00629 483.0 2.4
484(12) 0.00707 483.0 2.4
486(11) 0.00718 483.0 2.4
466(11) 0.00712 483.0 2.4
485(12) 0.00615 483.0 2.4
452(11) 0.00718 483.1 2.4
460(11) 0.00731 483.1 2.4
461(11) 0.00749 483.1 2.4
485(12) 0.00665 483.1 2.4
459(12) 0.00670 483.2 2.4
471(12) 0.00689 483.2 2.4
482(12) 0.00704 483.2 2.4
485(11) 0.00717 483.2 2.4
477(12) 0.00689 483.3 2.5
476(12) 0.00631 483.3 2.5
502(12) 0.00643 483.3 2.5
515(12) 0.00676 483.3 2.5
444(11) 0.00765 483.3 2.5
483(12) 0.00675 483.4 2.5
510(12) 0.00607 483.4 2.5
494(12) 0.00649 483.4 2.5
484(11) 0.00713 483.4 2.5
496(12) 0.00689 483.5 2.5
455(11) 0.00715 483.5 2.6
473(12) 0.00649 483.5 2.6
465(12) 0.00706 483.5 2.6
490(11) 0.00714 483.6 2.6
482(12) 0.00698 483.6 2.6
479(12) 0.00671 483.6 2.6
502(12) 0.00634 483.6 2.6
497(12) 0.00669 483.7 3.1
509(12) 0.00688 483.7 3.1
499(12) 0.00674 483.7 3.1
512(12) 0.00617 483.7 3.2
463(12) 0.00688 483.7 3.2
473(12) 0.00705 483.8 3.2
488(12) 0.00708 483.8 3.2
508(12) 0.00669 483.8 3.2
516(12) 0.00615 483.8 3.3
483(12) 0.00683 483.9 3.3
477(12) 0.00706 483.9 3.3
473(11) 0.00735 483.9 3.3
484(12) 0.00656 483.9 3.4
501(12) 0.00617 484.0 3.4
510(12) 0.00633 484.0 3.4
505(12) 0.00683 484.0 3.5
453(11) 0.00770 484.0 3.5
498(12) 0.00656 484.1 3.5
479(12) 0.00650 484.1 3.6
473(12) 0.00691 484.1 3.6
470(11) 0.00734 484.1 3.6
477(11) 0.00731 484.1 3.7
488(12) 0.00670 484.2 3.7
502(12) 0.00608 484.2 3.8
484(12) 0.00681 484.2 3.8
488(11) 0.00710 484.2 3.9
485(11) 0.00709 484.3 3.9
475(12) 0.00690 484.3 4.0
478(12) 0.00632 484.3 4.0
493(12) 0.00646 484.3 4.1
479(11) 0.00710 484.4 4.1
486(12) 0.00701 484.4 4.2
477(12) 0.00680 484.4 4.3
486(12) 0.00638 484.4 4.4
486(12) 0.00667 484.5 4.4
511(12) 0.00686 484.5 4.5
485(11) 0.00712 484.5 4.6
492(12) 0.00672 484.5 4.7
480(12) 0.00667 484.5 4.8
508(12) 0.00626 484.6 4.9
467(11) 0.00742 484.6 5.0
479(11) 0.00712 484.6 5.2
464(12) 0.00707 484.6 5.3
483(12) 0.00645 484.7 5.5
486(12) 0.00646 484.7 5.6
489(12) 0.00708 484.7 5.8
486(12) 0.00701 484.7 6.0
503(12) 0.00636 484.8 6.2
475(12) 0.00685 484.8 6.4
507(12) 0.00659 484.8 6.6
481(11) 0.00726 484.8 6.9
512(12) 0.00637 484.8 7.2
528(12) 0.00606 484.9 7.5
502(12) 0.00651 484.9 7.8
504(12) 0.00666 484.9 8.2
487(11) 0.00719 484.9 8.6
479(12) 0.00689 485.0 9.0
461(12) 0.00695 485.0 9.4
479(12) 0.00675 485.0 9.9
483(12) 0.00692 485.0 10.4
509(12) 0.00686 485.1 11.0
500(12) 0.00643 485.1 11.6
471(12) 0.00683 485.1 12.3
516(12) 0.00620 485.1 12.9
458(11) 0.00741 485.2 13.7
496(12) 0.00696 485.2 14.5
502(12) 0.00656 485.2 15.3
498(12) 0.00639 485.2 16.1
530(12) 0.00623 485.2 17.0
539(12) 0.00631 485.3 17.9
465(11) 0.00746 485.3 18.8
471(12) 0.00691 485.3 19.7
498(12) 0.00608 485.3 20.6
480(12) 0.00693 485.4 21.4
476(11) 0.00729 485.4 22.3
504(12) 0.00694 485.4 23.0
487(12) 0.00686 485.4 23.6
485(12) 0.00611 485.5 24.1
498(12) 0.00642 485.5 24.5
506(12) 0.00692 485.5 24.7
511(12) 0.00673 485.5 24.8
454(11) 0.00728 485.6 24.7
476(12) 0.00622 485.6 24.4
445(11) 0.00711 485.6 24.0
500(12) 0.00692 485.6 23.5
557(12) 0.00629 485.6 22.8
487(12) 0.00696 485.7 22.1
458(12) 0.00680 485.7 21.3
455(11) 0.00739 485.7 20.4
519(12) 0.00672 485.7 19.5
485(12) 0.00699 485.8 18.6
495(12) 0.00669 485.8 17.7
495(12) 0.00645 485.8 16.8
468(12) 0.00675 485.8 16.0
461(11) 0.00743 485.9 15.2
514(12) 0.00661 485.9 14.4
495(12) 0.00656 485.9 13.6
484(12) 0.00657 485.9 12.9
482(12) 0.00683 485.9 12.3
481(11) 0.00721 486.0 11.7
468(12) 0.00705 486.0 11.1
493(12) 0.00653 486.0 10.5
467(12) 0.00685 486.0 10.0
479(12) 0.00688 486.1 9.6
533(12) 0.00654 486.1 9.1
516(12) 0.00649 486.1 8.8
485(12) 0.00679 486.1 8.4
489(12) 0.00657 486.2 8.1
445(11) 0.00745 486.2 7.7
500(12) 0.00696 486.2 7.5
497(12) 0.00673 486.2 7.2
510(12) 0.00622 486.3 7.0
500(12) 0.00639 486.3 6.7
471(11) 0.00730 486.3 6.6
495(12) 0.00703 486.3 6.4
504(12) 0.00634 486.3 6.2
503(12) 0.00629 486.4 6.0
500(12) 0.00645 486.4 5.9
485(11) 0.00715 486.4 5.8
505(12) 0.00681 486.4 5.7
493(12) 0.00672 486.5 5.6
503(12) 0.00609 486.5 5.4
499(12) 0.00650 486.5 5.4
473(11) 0.00727 486.5 5.3
499(12) 0.00699 486.6 5.2
474(12) 0.00691 486.6 5.1
504(13) 0.00603 486.6 5.1
496(12) 0.00657 486.7 5.0
474(11) 0.00725 486.8 4.9
495(12) 0.00703 487.0 4.9
507(12) 0.00625 487.1 4.8
468(12) 0.00666 487.2 4.8
539(13) 0.00603 487.3 4.7
510(12) 0.00673 487.4 4.7
508(12) 0.00685 487.6 4.7
494(12) 0.00662 487.7 4.6
470(12) 0.00660 487.8 4.6
477(12) 0.00681 487.9 4.6
477(11) 0.00720 488.0 4.5
496(12) 0.00692 488.2 4.5
495(12) 0.00663 488.3 4.5
488(12) 0.00668 488.4 4.5
524(12) 0.00621 488.5 4.5
491(12) 0.00707 488.6 4.4
459(11) 0.00752 488.8 4.4
482(12) 0.00668 488.9 4.4
486(12) 0.00638 489.0 4.4
519(12) 0.00612 489.1 4.4
483(11) 0.00724 489.2 4.4
496(12) 0.00664 489.4 4.4
515(12) 0.00627 489.5 4.4
504(12) 0.00625 489.6 4.4
477(12) 0.00696 489.7 4.3
496(12) 0.00697 489.8 4.3
484(12) 0.00682 490.0 4.3
508(12) 0.00624 490.1 4.3
467(12) 0.00691 490.2 4.3
494(12) 0.00673 490.3 4.3
487(12) 0.00700 490.4 4.3
470(11) 0.00712 490.6 4.3
487(12) 0.00649 490.7 4.3
493(12) 0.00657 490.8 4.3
487(12) 0.00673 490.9 4.4
491(11) 0.00711 491.0 4.4
510(12) 0.00640 491.2 4.4
483(12) 0.00659 491.3 4.4
442(11) 0.00729 491.4 4.4
484(12) 0.00702 491.5 4.4
524(12) 0.00666 491.7 4.4
506(12) 0.00648 491.8 4.4
479(12) 0.00666 491.9 4.4
499(12) 0.00655 492.0 4.4
513(12) 0.00671 492.1 4.4
486(11) 0.00711 492.3 4.5
471(11) 0.00713 492.4 4.5
498(12) 0.00612 492.5 4.5
479(12) 0.00687 492.6 4.5
486(11) 0.00712 492.7 4.5
471(11) 0.00741 492.9 4.5
501(12) 0.00660 493.0 4.6
514(13) 0.00592 493.1 4.6
496(12) 0.00669 493.2 4.6
507(12) 0.00688 493.3 4.6
502(12) 0.00687 493.5 4.6
481(12) 0.00688 493.6 4.7
498(12) 0.00617 493.7 4.7
485(12) 0.00673 493.8 4.7
497(12) 0.00704 493.9 4.7
499(12) 0.00684 494.1 4.8
520(12) 0.00614 494.2 4.8
488(12) 0.00629 494.3 4.8
514(12) 0.00622 494.4 4.8
489(12) 0.00706 494.5 4.9
495(12) 0.00674 494.7 4.9
492(12) 0.00646 494.8 4.9
485(12) 0.00662 494.9 4.9
511(12) 0.00630 495.0 5.0
515(12) 0.00675 495.1 5.0
487(12) 0.00698 495.3 5.0
492(12) 0.00658 495.4 5.1
500(12) 0.00654 495.5 5.1
508(12) 0.00660 495.6 5.1
511(12) 0.00677 495.7 5.2
514(12) 0.00658 495.9 5.2
502(12) 0.00658 496.0 5.2
504(12) 0.00649 496.1 5.3
517(12) 0.00626 496.2 5.3
520(12) 0.00671 496.3 5.4
517(12) 0.00633 496.5 5.4
521(12) 0.00605 496.6 5.4
473(12) 0.00679 496.7 5.5
474(11) 0.00722 496.8 5.5
510(12) 0.00684 497.0 5.6
470(12) 0.00681 497.1 5.7
514(12) 0.00619 497.2 5.7
506(12) 0.00652 497.3 5.8
481(12) 0.00696 497.4 5.8
499(12) 0.00703 497.6 5.9
489(12) 0.00672 497.7 5.9
484(12) 0.00632 497.8 6.0
496(12) 0.00645 497.9 6.0
491(12) 0.00703 498.0 6.1
509(12) 0.00676 498.2 6.1
509(12) 0.00640 498.3 6.2
487(12) 0.00636 498.4 6.2
474(11) 0.00716 498.5 6.3
502(12) 0.00687 498.6 6.4
501(12) 0.00699 498.8 6.4
491(12) 0.00679 498.9 6.5
516(13) 0.00602 499.0 6.5
523(12) 0.00621 499.1 6.6
513(12) 0.00675 499.2 6.7
478(11) 0.00722 499.4 6.7
513(12) 0.00645 499.5 6.8
530(13) 0.00581 499.6 6.9
516(12) 0.00642 499.7 7.0
494(12) 0.00706 499.8 7.0
530(12) 0.00656 500.0 7.1
524(12) 0.00633 500.1 7.2
523(13) 0.00592 500.2 7.3
499(12) 0.00672 500.3 7.4
518(12) 0.00676 500.4 7.4
477(12) 0.00705 500.6 7.5
496(12) 0.00654 500.7 7.6
477(12) 0.00669 500.8 7.7
498(12) 0.00639 500.9 7.8
507(12) 0.00689 501.0 7.9
525(12) 0.00645 501.2 8.0
522(12) 0.00605 501.3 8.1
486(12) 0.00644 501.4 8.2
513(12) 0.00625 501.5 8.3
504(12) 0.00695 501.7 8.4
477(12) 0.00699 501.8 8.5
486(12) 0.00656 501.9 8.7
488(12) 0.00650 502.0 8.8
516(12) 0.00650 502.1 8.9
524(12) 0.00669 502.3 9.0
505(12) 0.00637 502.4 9.1
495(12) 0.00649 502.5 9.3
510(12) 0.00649 502.6 9.4
511(12) 0.00665 502.7 9.5
522(12) 0.00669 502.9 9.7
545(13) 0.00604 503.0 9.8
526(13) 0.00589 503.1 10.0
488(12) 0.00664 503.2 10.1
497(12) 0.00689 503.3 10.3
486(11) 0.00715 503.5 10.5
487(12) 0.00670 503.6 10.6
530(13) 0.00569 503.7 10.8
472(12) 0.00699 503.9 11.0
523(12) 0.00653 504.0 11.2
520(12) 0.00673 504.2 11.4
499(12) 0.00670 504.4 11.6
490(12) 0.00634 504.6 11.8
492(12) 0.00675 504.8 12.0
492(12) 0.00703 504.9 12.2
494(11) 0.00710 505.1 12.4
524(12) 0.00640 505.3 12.6
498(12) 0.00638 505.5 12.9
514(12) 0.00638 505.7 13.1
516(12) 0.00668 505.8 13.4
512(12) 0.00678 506.0 13.6
534(12) 0.00614 506.2 13.9
530(13) 0.00574 506.4 14.2
498(12) 0.00670 506.6 14.5
533(12) 0.00660 506.7 14.8
513(12) 0.00657 506.9 15.1
509(12) 0.00641 507.1 15.4
520(13) 0.00586 507.3 15.8
503(12) 0.00664 507.5 16.1
522(12) 0.00667 507.6 16.5
526(12) 0.00648 507.8 16.8
503(12) 0.00656 508.0 17.2
513(12) 0.00627 508.2 17.6
510(12) 0.00651 508.4 18.1
525(12) 0.00664 508.5 18.5
516(12) 0.00655 508.7 19.0
504(12) 0.00670 508.9 19.4
554(13) 0.00584 509.1 19.9
532(13) 0.00604 509.3 20.5
522(12) 0.00668 509.4 21.0
512(12) 0.00647 509.6 21.6
516(12) 0.00634 509.8 22.1
540(13) 0.00596 510.0 22.8
529(12) 0.00633 510.2 23.4
517(12) 0.00678 510.3 24.1
536(12) 0.00614 510.5 24.8
503(12) 0.00641 510.7 25.5
520(13) 0.00592 510.9 26.3
525(12) 0.00646 511.1 27.1
498(12) 0.00696 511.2 28.0
533(13) 0.00605 511.4 28.9
506(12) 0.00638 511.6 29.8
518(12) 0.00624 511.8 30.8
541(12) 0.00630 512.0 31.9
547(12) 0.00642 512.1 33.0
540(13) 0.00603 512.3 34.1
515(12) 0.00623 512.5 35.4
547(12) 0.00606 512.7 36.7
548(12) 0.00631 512.9 38.1
555(12) 0.00633 513.0 39.6
514(12) 0.00634 513.2 41.1
554(13) 0.00547 513.4 42.8
528(12) 0.00620 513.6 44.6
535(12) 0.00641 513.8 46.5
537(12) 0.00649 513.9 48.5
559(13) 0.00586 514.1 50.7
566(13) 0.00529 514.3 53.0
537(13) 0.00600 514.5 55.5
547(12) 0.00631 514.7 58.1
573(12) 0.00611 514.8 61.0
581(13) 0.00571 515.0 64.1
533(13) 0.00596 515.2 67.4
558(13) 0.00586 515.4 71.0
567(12) 0.00615 515.6 74.9
543(12) 0.00641 515.7 79.2
566(13) 0.00570 515.9 83.8
587(14) 0.00523 516.1 88.9
555(13) 0.00597 516.3 94.4
571(12) 0.00619 516.5 100.5
585(13) 0.00578 516.6 107.2
564(13) 0.00559 516.8 114.5
611(14) 0.00514 517.0 122.7
615(13) 0.00532 517.2 131.8
639(13) 0.00549 517.4 141.9
650(13) 0.00533 517.5 153.3
678(14) 0.00490 517.7 166.1
694(15) 0.00453 517.9 180.7
682(14) 0.00484 518.1 197.5
787(15) 0.00454 518.3 217.1
737(14) 0.00459 518.4 240.3
769(15) 0.00436 518.6 268.3
820(15) 0.00409 518.8 302.8
854(16) 0.00400 519.0 346.0
941(16) 0.00382 519.2 400.8
1040(17) 0.003287 519.3 471.1
1167(19) 0.002829 519.5 561.3
1220(19) 0.002755 519.7 676.7
1377(20) 0.002522 519.9 822.7
1589(21) 0.002292 520.1 1004.5
1762(22) 0.001957 520.2 1226.3
2030(24) 0.001643 520.4 1490.4
2326(26) 0.001433 520.6 1796.1
2588(27) 0.001354 520.8 2137.8
2894(28) 0.001263 521.0 2504.0
3243(30) 0.001066 521.1 2873.3
3661(33) 0.000891 521.3 3213.5
3978(34) 0.000857 521.5 3481.2
4343(35) 0.000826 521.7 3631.6
4247(34) 0.000863 521.9 3634.4
4237(35) 0.000804 522. 3489.
3876(34) 0.000849 522.2 3224.8
3367(31) 0.001028 522.4 2886.5
2905(28) 0.001251 522.6 2517.6
2522(26) 0.001446 522.8 2150.9
2293(26) 0.001461 522.9 1808.1
1987(25) 0.001620 523.1 1500.9
1738(22) 0.001996 523.3 1235.3
1571(21) 0.002313 523.5 1012.0
1423(20) 0.002524 523.7 828.8
1291(19) 0.002592 523.8 681.6
1169(19) 0.002714 524.0 565.2
1133(18) 0.002998 524.2 474.2
1040(17) 0.003483 524.4 403.3
961(16) 0.00369 524.6 348.0
876(16) 0.00385 524.7 304.5
874(16) 0.00367 524.9 269.7
837(16) 0.00400 525.1 241.5
792(15) 0.00452 525.3 218.2
760(14) 0.00463 525.5 198.5
747(15) 0.00439 525.6 181.6
698(15) 0.00453 525.8 166.9
679(14) 0.00480 526.0 154.0
672(13) 0.00531 526.2 142.7
653(13) 0.00534 526.4 132.5
636(14) 0.00499 526.6 123.4
599(13) 0.00528 526.7 115.2
630(13) 0.00539 526.9 107.8
639(13) 0.00549 527.1 101.2
628(13) 0.00544 527.3 95.1
599(13) 0.00552 527.5 89.6
623(14) 0.00513 527.6 84.5
606(13) 0.00539 527.8 79.9
604(13) 0.00581 528.0 75.6
581(13) 0.00566 528.2 71.7
587(13) 0.00539 528.4 68.1
590(13) 0.00549 528.5 64.8
599(13) 0.00555 528.7 61.7
596(13) 0.00593 528.9 58.8
571(13) 0.00593 529.1 56.2
567(13) 0.00556 529.3 53.7
571(13) 0.00569 529.4 51.4
573(13) 0.00591 529.6 49.2
587(13) 0.00601 529.8 47.2
577(13) 0.00563 530.0 45.3
590(13) 0.00546 530.2 43.6
569(13) 0.00583 530.3 41.9
590(13) 0.00576 530.5 40.4
580(12) 0.00608 530.7 38.9
568(13) 0.00573 530.9 37.5
527(12) 0.00606 531.1 36.2
571(13) 0.00570 531.2 35.0
528(12) 0.00659 531.4 33.9
514(12) 0.00684 531.6 32.8
564(13) 0.00577 531.8 31.7
515(12) 0.00626 532.0 30.7
572(13) 0.00572 532.1 29.8
575(13) 0.00605 532.3 28.9
596(13) 0.00586 532.5 28.1
548(13) 0.00594 532.7 27.3
534(13) 0.00596 532.9 26.5
569(13) 0.00588 533.0 25.8
529(12) 0.00658 533.2 25.1
540(12) 0.00632 533.4 24.4
540(12) 0.00613 533.6 23.8
567(13) 0.00552 533.8 23.2
570(13) 0.00585 533.9 22.7
557(12) 0.00625 534.1 22.1
548(12) 0.00623 534.3 21.6
563(13) 0.00573 534.5 21.1
570(13) 0.00547 534.7 20.6
538(12) 0.00610 534.8 20.1
559(12) 0.00625 535.0 19.7
534(12) 0.00641 535.2 19.3
553(13) 0.00579 535.4 18.9
553(13) 0.00556 535.6 18.5
516(12) 0.00620 535.7 18.1
523(12) 0.00671 535.9 17.8
545(12) 0.00633 536.1 17.4
553(13) 0.00579 536.3 17.1
537(13) 0.00593 536.5 16.8
565(13) 0.00578 536.6 16.5
540(12) 0.00646 536.8 16.2
546(12) 0.00628 537.0 15.9
541(12) 0.00616 537.2 15.6
570(13) 0.00556 537.4 15.4
541(12) 0.00607 537.5 15.1
577(12) 0.00610 537.7 14.9
534(12) 0.00634 537.9 14.6
547(13) 0.00589 538.1 14.4
583(13) 0.00553 538.3 14.2
553(12) 0.00622 538.4 14.0
532(12) 0.00658 538.6 13.8
547(13) 0.00600 538.8 13.6
561(13) 0.00570 539.0 13.4
557(13) 0.00604 539.2 13.2
517(12) 0.00675 539.3 13.0
543(12) 0.00642 539.5 12.9
543(12) 0.00607 539.7 12.7
570(13) 0.00544 539.9 12.6
530(12) 0.00625 540.1 12.4
552(12) 0.00634 540.2 12.3
561(12) 0.00629 540.4 12.1
563(13) 0.00576 540.6 12.0
574(13) 0.00534 540.8 11.8
536(12) 0.00623 541.0 11.7
521(12) 0.00660 541.1 11.6
540(12) 0.00647 541.3 11.5
556(13) 0.00580 541.5 11.4
522(13) 0.00578 541.7 11.2
540(13) 0.00597 541.9 11.1
551(12) 0.00635 542.0 11.0
553(12) 0.00630 542.2 10.9
556(13) 0.00599 542.4 10.8
562(13) 0.00553 542.6 10.7
541(12) 0.00621 542.8 10.7
571(12) 0.00616 542.9 10.6
547(12) 0.00627 543.1 10.5
533(12) 0.00622 543.3 10.4
544(13) 0.00567 543.5 10.3
540(12) 0.00612 543.7 10.2
558(12) 0.00631 543.8 10.2
526(12) 0.00652 544.0 10.1
530(12) 0.00611 544.2 10.0
566(13) 0.00560 544.4 10.0
508(12) 0.00656 544.6 9.9
531(12) 0.00657 544.7 9.9
561(13) 0.00602 544.9 9.8
538(13) 0.00601 545.1 9.7
524(13) 0.00597 545.3 9.7
538(12) 0.00609 545.5 9.6
536(12) 0.00656 545.6 9.6
579(13) 0.00578 545.8 9.5
538(12) 0.00621 546.0 9.5
535(12) 0.00605 546.2 9.5
551(12) 0.00611 546.4 9.4
566(12) 0.00625 546.5 9.4
588(13) 0.00568 546.7 9.3
571(13) 0.00567 546.9 9.3
584(13) 0.00546 547.1 9.3
558(13) 0.00605 547.3 9.2
568(12) 0.00622 547.4 9.2
604(13) 0.00551 547.6 9.2
571(13) 0.00562 547.8 9.2
533(12) 0.00609 548.2 9.1
524(12) 0.00656 548.7 9.1
570(12) 0.00619 549.1 9.1
587(13) 0.00553 549.6 9.1
581(13) 0.00549 550.0 9.0
581(13) 0.00556 550.5 9.0
560(12) 0.00610 550.9 9.0
602(13) 0.00586 551.4 9.0
542(12) 0.00611 551.9 9.0
565(13) 0.00554 552.3 9.0
535(12) 0.00610 552.8 9.0
513(12) 0.00672 553.2 9.0
572(12) 0.00621 553.7 9.0
544(12) 0.00613 554.1 9.0
586(14) 0.00520 554.6 8.9
551(13) 0.00600 555.0 8.9
548(12) 0.00636 555.5 9.0
569(12) 0.00619 555.9 9.0
575(13) 0.00557 556.4 9.0
581(13) 0.00526 556.8 9.0
573(13) 0.00594 557.3 9.0
577(12) 0.00610 557.8 9.0
564(12) 0.00614 558.2 9.0
573(13) 0.00581 558.7 9.0
540(13) 0.00583 559.1 9.0
534(12) 0.00621 559.6 9.1
585(13) 0.00598 560.0 9.1
581(13) 0.00591 560.5 9.1
556(13) 0.00580 560.9 9.1
533(13) 0.00596 561.4 9.1
572(13) 0.00582 561.8 9.1
568(12) 0.00618 562.3 9.2
564(13) 0.00602 562.7 9.2
559(13) 0.00570 563.2 9.2
551(13) 0.00573 563.7 9.2
577(13) 0.00574 564.1 9.2
548(12) 0.00645 564.6 9.3
612(13) 0.00552 565.0 9.3
562(13) 0.00580 565.5 9.3
568(13) 0.00554 565.9 9.3
553(13) 0.00597 566.4 9.4
577(12) 0.00613 566.8 9.4
574(13) 0.00583 567.3 9.4
571(13) 0.00563 567.7 9.5
568(13) 0.00590 568.2 9.5
582(13) 0.00578 568.7 9.5
575(12) 0.00612 569.1 9.6
549(12) 0.00606 569.6 9.6
530(12) 0.00615 570.0 9.7
590(13) 0.00544 570.5 9.7
557(12) 0.00612 570.9 9.8
594(13) 0.00597 571.4 9.8
586(13) 0.00571 571.8 9.8
568(13) 0.00552 572.3 9.9
589(13) 0.00539 572.7 9.9
588(13) 0.00582 573.2 10.0
547(12) 0.00637 573.6 10.0
590(13) 0.00543 574.1 10.1
573(13) 0.00550 574.6 10.2
567(13) 0.00602 575.0 10.2
610(13) 0.00570 575.5 10.3
615(13) 0.00575 575.9 10.3
581(13) 0.00568 576.4 10.4
569(13) 0.00548 576.8 10.5
600(13) 0.00541 577.3 10.5
629(13) 0.00565 577.7 10.6
560(12) 0.00621 578.2 10.7
574(13) 0.00581 578.6 10.7
586(14) 0.00522 579.1 10.8
609(13) 0.00541 579.5 10.9
584(13) 0.00597 580.0 11.0
555(12) 0.00633 580.5 11.0
590(13) 0.00548 580.9 11.1
601(14) 0.00504 581.4 11.2
590(13) 0.00550 581.8 11.3
629(13) 0.00557 582.3 11.4
592(13) 0.00581 582.7 11.4
588(13) 0.00546 583.2 11.5
593(14) 0.00517 583.6 11.6
587(13) 0.00563 584.1 11.7
580(12) 0.00608 584.5 11.8
570(13) 0.00600 585.0 11.9
613(13) 0.00524 585.4 12.0
606(14) 0.00516 585.9 12.1
615(13) 0.00533 586.4 12.2
619(13) 0.00571 586.8 12.3
583(13) 0.00581 587.3 12.4
592(13) 0.00547 587.7 12.6
555(13) 0.00581 588.2 12.7
594(13) 0.00567 588.6 12.8
623(13) 0.00566 589.1 12.9
613(13) 0.00530 589.5 13.0
567(13) 0.00579 590.0 13.2
608(13) 0.00526 590.4 13.3
573(13) 0.00581 590.9 13.4
591(13) 0.00599 591.4 13.6
588(13) 0.00556 591.8 13.7
594(13) 0.00541 592.3 13.8
579(13) 0.00575 592.7 14.0
617(13) 0.00542 593.2 14.1
589(13) 0.00601 593.6 14.3
604(13) 0.00542 594.1 14.4
577(13) 0.00553 594.5 14.6
569(13) 0.00586 595.0 14.8
586(13) 0.00592 595.4 14.9
607(13) 0.00581 595.9 15.1
595(13) 0.00551 596.3 15.3
563(13) 0.00563 596.8 15.4
562(13) 0.00592 597.3 15.6
583(13) 0.00597 597.7 15.8
605(13) 0.00580 598.2 16.0
609(13) 0.00547 598.6 16.2
607(14) 0.00509 599.1 16.4
599(13) 0.00557 599.5 16.6
630(13) 0.00555 600.0 16.8
617(13) 0.00571 600.4 17.0
614(13) 0.00551 600.9 17.3
600(14) 0.00517 601.3 17.5
620(13) 0.00528 601.8 17.7
604(13) 0.00582 602.2 18.0
593(13) 0.00590 602.7 18.2
590(13) 0.00539 603.2 18.4
606(14) 0.00511 603.6 18.7
605(13) 0.00564 604.1 19.0
598(13) 0.00587 604.5 19.2
616(13) 0.00563 605.0 19.5
625(13) 0.00530 605.4 19.8
598(14) 0.00517 605.9 20.1
580(13) 0.00549 606.3 20.4
614(13) 0.00574 606.8 20.7
642(13) 0.00541 607.2 21.0
636(14) 0.00521 607.7 21.3
608(14) 0.00517 608.2 21.7
609(13) 0.00533 608.6 22.0
607(13) 0.00580 609.1 22.4
616(13) 0.00550 609.5 22.7
608(13) 0.00528 610.0 23.1
597(13) 0.00531 610.4 23.5
588(13) 0.00569 610.9 23.9
592(13) 0.00594 611.3 24.3
597(13) 0.00552 611.8 24.7
618(14) 0.00521 612.2 25.1
646(14) 0.00507 612.7 25.6
624(13) 0.00537 613.1 26.0
638(13) 0.00555 613.6 26.5
656(14) 0.00504 614.1 27.0
647(14) 0.00488 614.5 27.5
632(14) 0.00518 615.0 28.0
644(13) 0.00532 615.4 28.5
669(13) 0.00527 615.9 29.0
603(13) 0.00546 616.3 29.6
598(13) 0.00535 616.8 30.2
638(14) 0.00509 617.2 30.8
611(13) 0.00561 617.7 31.4
623(13) 0.00568 618.1 32.0
610(13) 0.00549 618.6 32.7
611(13) 0.00527 619.0 33.4
634(13) 0.00527 619.5 34.1
658(13) 0.00526 620.0 34.8
629(13) 0.00562 620.4 35.6
634(14) 0.00515 620.9 36.3
607(14) 0.00517 621.3 37.1
635(14) 0.00511 621.8 38.0
639(13) 0.00541 622.2 38.9
624(13) 0.00565 622.7 39.8
649(14) 0.00510 623.1 40.7
618(14) 0.00504 623.6 41.7
625(13) 0.00529 624.0 42.7
649(13) 0.00546 624.5 43.7
663(13) 0.00525 625.0 44.8
648(14) 0.00499 625.4 45.9
634(14) 0.00493 625.9 47.1
649(14) 0.00514 626.3 48.3
686(14) 0.00515 626.8 49.6
667(14) 0.00522 627.2 50.9
679(14) 0.00482 627.7 52.3
668(14) 0.00475 628.1 53.7
702(14) 0.00468 628.6 55.2
645(13) 0.00550 629.0 56.8
697(14) 0.00508 629.5 58.4
684(14) 0.00489 629.9 60.1
651(14) 0.00490 630.4 61.9
683(14) 0.00487 630.9 63.8
676(13) 0.00526 631.3 65.8
671(14) 0.00507 631.8 67.8
650(14) 0.00500 632.2 70.0
674(14) 0.00468 632.7 72.2
661(14) 0.00510 633.1 74.6
692(14) 0.00513 633.6 77.1
707(14) 0.00471 634.0 79.8
683(14) 0.00486 634.5 82.5
689(14) 0.00476 634.9 85.4
699(14) 0.00491 635.4 88.5
700(14) 0.00504 635.8 91.8
704(14) 0.00464 636.3 95.2
701(14) 0.00460 636.8 98.9
723(15) 0.00455 637.2 102.7
715(14) 0.00477 637.7 106.8
699(14) 0.00508 638.1 111.2
709(14) 0.00476 638.6 115.8
710(15) 0.00455 639.0 120.7
689(14) 0.00491 639.5 125.9
735(14) 0.00468 639.9 131.5
734(14) 0.00484 640.4 137.5
742(15) 0.00436 640.8 143.8
720(15) 0.00451 641.3 150.7
730(15) 0.00447 641.8 158.0
731(14) 0.00472 642.2 165.9
774(14) 0.00457 642.7 174.4
790(15) 0.00413 643.1 183.5
725(15) 0.00448 643.6 193.4
765(15) 0.00432 644.0 204.1
803(15) 0.00434 644.5 215.7
801(15) 0.00445 644.9 228.3
789(15) 0.00427 645.4 242.1
825(16) 0.00382 645.8 257.1
839(15) 0.00403 646.3 273.6
849(15) 0.00420 646.7 291.8
915(16) 0.00388 647.2 311.9
925(16) 0.00361 647.7 334.2
950(17) 0.003277 648.1 359.2
959(16) 0.00356 648.6 387.4
1035(17) 0.003459 649.0 419.3
1049(17) 0.003418 649.5 455.9
1075(17) 0.003180 649.9 498.1
1160(19) 0.002739 650.4 547.4
1200(19) 0.002805 650.8 605.1
1291(19) 0.002789 651.3 673.4
1388(19) 0.002589 651.7 754.4
1478(21) 0.002298 652.2 850.9
1555(22) 0.002101 652.6 965.6
1792(23) 0.001856 653.1 1101.8
1864(22) 0.001969 653.6 1262.9
2044(24) 0.001738 654.0 1451.8
2271(25) 0.001525 654.5 1671.6
2639(28) 0.001256 654.9 1924.7
2963(30) 0.001133 655.4 2212.2
3257(30) 0.001122 655.8 2534.1
3642(32) 0.000979 656.3 2887.8
4096(35) 0.000829 656.7 3267.1
4510(37) 0.000740 657. 3661.
4956(38) 0.000698 658. 4053.
5325(38) 0.000689 658. 4417.
5765(41) 0.000602 659. 4723.
5906(42) 0.000568 659. 4937.
5896(42) 0.000572 659. 5031.
5748(40) 0.000611 660. 4992.
5509(39) 0.000667 660. 4825.
5059(39) 0.000670 661. 4554.
4617(37) 0.000722 661. 4210.
4237(35) 0.000811 661.7 3826.9
3866(33) 0.000918 662.2 3431.7
3525(31) 0.001039 662.6 3044.8
3200(31) 0.001045 663.1 2679.8
2947(30) 0.001124 663.5 2344.8
2769(28) 0.001228 664.0 2043.3
2543(26) 0.001419 664.5 1776.5
2336(25) 0.001569 664.9 1543.6
2191(25) 0.001539 665.4 1342.6
2043(25) 0.001583 665.8 1170.9
1893(23) 0.001816 666.3 1025.3
1751(22) 0.002051 666.7 902.6
1645(21) 0.002211 667.2 799.5
1579(21) 0.002137 667.6 713.1
1492(21) 0.002137 668.1 640.5
1395(20) 0.002433 668.5 579.3
1350(19) 0.002671 669.0 527.6
1317(19) 0.002713 669.4 483.4
1241(19) 0.002731 669.9 445.5
1202(19) 0.002588 670.4 412.7
1156(18) 0.002898 670.8 384.1
1100(17) 0.003256 671.3 359.1
1060(17) 0.003355 671.7 337.0
1042(17) 0.003223 672.2 317.5
1052(18) 0.003039 672.6 300.2
1031(17) 0.003287 673.1 284.9
1017(17) 0.00353 673.5 271.3
962(16) 0.00369 674.0 259.5
938(17) 0.00351 674.4 249.2
952(17) 0.003283 674.9 240.4
934(17) 0.00353 675.3 233.1
941(16) 0.00383 675.8 227.2
887(16) 0.00388 676.3 222.7
866(16) 0.00386 676.7 219.7
869(16) 0.00372 677.2 218.2
881(16) 0.00377 677.6 218.3
942(16) 0.00381 678.1 219.8
896(16) 0.00384 678.5 223.0
866(16) 0.00378 679.0 227.7
885(16) 0.00368 679.4 233.9
895(16) 0.00380 679.9 241.5
906(16) 0.00392 680.3 250.3
915(16) 0.00375 680.8 260.0
910(16) 0.00357 681.3 270.1
916(16) 0.00360 681.7 280.0
918(16) 0.00374 682.2 288.7
922(16) 0.00386 682.6 295.3
942(17) 0.00354 683.1 298.8
983(17) 0.003315 683.5 298.5
941(16) 0.00363 684.0 293.9
952(16) 0.00362 684.4 285.3
915(16) 0.00390 684.9 273.2
920(16) 0.00356 685.3 258.6
887(16) 0.00369 685.8 242.4
842(15) 0.00403 686.2 225.6
858(15) 0.00405 686.7 208.8
829(15) 0.00433 687.2 192.5
809(15) 0.00416 687.6 177.2
770(15) 0.00421 688.1 162.9
779(15) 0.00425 688.5 149.9
809(15) 0.00430 689.0 138.0
782(14) 0.00458 689.4 127.3
772(15) 0.00426 689.9 117.8
748(15) 0.00419 690.3 109.3
777(15) 0.00425 690.8 101.7
741(14) 0.00476 691.2 95.1
724(14) 0.00486 691.7 89.2
730(14) 0.00459 692.1 84.0
707(15) 0.00441 692.6 79.3
733(14) 0.00459 693.1 75.2
725(14) 0.00489 693.5 71.6
768(15) 0.00452 694.0 68.3
727(15) 0.00454 694.4 65.3
697(14) 0.00457 694.9 62.6
729(15) 0.00454 695.3 60.1
703(14) 0.00505 695.8 57.9
754(15) 0.00452 696.2 55.8
711(14) 0.00467 696.7 53.8
733(15) 0.00435 697.1 52.0
724(14) 0.00460 697.6 50.3
711(14) 0.00499 698.1 48.8
747(14) 0.00466 698.5 47.3
731(14) 0.00458 699.0 45.9
779(16) 0.00398 699.4 44.5
663(14) 0.00506 699.9 43.3
755(14) 0.00470 700.3 42.1
713(14) 0.00478 700.8 41.0
740(15) 0.00453 701.2 39.9
727(15) 0.00451 701.7 38.9
720(14) 0.00456 702.1 37.9
709(14) 0.00502 702.6 37.0
705(14) 0.00489 703.0 36.1
708(14) 0.00477 703.5 35.2
706(14) 0.00459 704.0 34.4
731(15) 0.00456 704.4 33.6
725(14) 0.00490 704.9 32.9
696(14) 0.00485 705.3 32.2
705(14) 0.00473 705.8 31.5
701(14) 0.00465 706.2 30.8
740(14) 0.00460 706.7 30.2
735(14) 0.00482 707.1 29.6
727(14) 0.00466 707.6 29.0
688(14) 0.00473 708.0 28.4
710(14) 0.00466 708.5 27.8
701(14) 0.00481 708.9 27.3
743(14) 0.00481 709.4 26.8
700(14) 0.00474 709.9 26.3
726(15) 0.00443 710.3 25.8
704(14) 0.00472 710.8 25.4
742(14) 0.00471 711.2 24.9
722(14) 0.00494 711.7 24.5
690(14) 0.00487 712.1 24.1
698(15) 0.00449 712.6 23.7
684(14) 0.00480 713.0 23.3
664(13) 0.00528 713.5 22.9
743(14) 0.00479 713.9 22.6
752(15) 0.00446 714.4 22.2
753(15) 0.00409 714.9 21.9
721(14) 0.00475 715.3 21.6
706(14) 0.00502 715.8 21.2
726(14) 0.00485 716.2 20.9
740(14) 0.00456 716.7 20.6
734(15) 0.00422 717.1 20.4
700(14) 0.00479 717.6 20.1
712(14) 0.00499 718.0 19.8
709(14) 0.00500 718.5 19.5
673(14) 0.00503 718.9 19.3
717(15) 0.00444 719.4 19.0
733(15) 0.00450 719.8 18.8
708(14) 0.00506 720.3 18.6
749(14) 0.00458 720.8 18.4
738(15) 0.00450 721.3 18.1
731(15) 0.00443 721.8 17.9
718(14) 0.00466 722.4 17.7
756(14) 0.00471 722.9 17.5
709(14) 0.00495 723.5 17.3
739(15) 0.00447 724.0 17.2
727(15) 0.00439 724.6 17.0
726(14) 0.00465 725.2 16.8
730(14) 0.00486 725.7 16.6
711(14) 0.00479 726.3 16.5
691(14) 0.00466 726.8 16.3
731(15) 0.00437 727.4 16.2
743(15) 0.00444 727.9 16.1
786(15) 0.00454 728.5 15.9
764(15) 0.00429 729.1 15.8
728(15) 0.00444 729.6 15.7
746(15) 0.00441 730.2 15.6
732(14) 0.00468 730.7 15.4
730(14) 0.00487 731.3 15.3
732(14) 0.00458 731.8 15.2
724(15) 0.00446 732.4 15.1
731(15) 0.00449 733.0 15.1
771(15) 0.00449 733.5 15.0
762(14) 0.00466 734.1 14.9
774(15) 0.00435 734.6 14.8
758(15) 0.00424 735.2 14.8
764(15) 0.00437 735.7 14.7
687(14) 0.00513 736.3 14.7
756(14) 0.00474 736.9 14.6
710(14) 0.00466 737.4 14.6
761(15) 0.00408 738.0 14.5
784(15) 0.00431 738.5 14.5
744(14) 0.00472 739.1 14.5
770(14) 0.00463 739.6 14.5
729(14) 0.00465 740.2 14.5
739(15) 0.00431 740.8 14.5
742(15) 0.00446 741.3 14.5
754(14) 0.00467 741.9 14.5
741(14) 0.00471 742.4 14.5
763(15) 0.00440 743.0 14.6
781(16) 0.00398 743.5 14.6
772(15) 0.00434 744.1 14.7
732(14) 0.00490 744.7 14.8
767(14) 0.00456 745.2 14.8
761(15) 0.00445 745.8 14.9
786(16) 0.00397 746.3 15.0
740(15) 0.00447 746.9 15.2
767(14) 0.00464 747.4 15.3
773(15) 0.00447 748.0 15.5
741(15) 0.00450 748.6 15.6
749(15) 0.00421 749.1 15.8
721(15) 0.00455 749.7 16.0
726(14) 0.00489 750.2 16.3
730(14) 0.00472 750.8 16.5
769(15) 0.00437 751.3 16.8
765(15) 0.00423 751.9 17.1
777(15) 0.00425 752.5 17.4
757(14) 0.00469 753.0 17.8
761(15) 0.00454 753.6 18.2
761(15) 0.00435 754.1 18.7
784(15) 0.00426 754.7 19.2
770(15) 0.00443 755.2 19.7
796(15) 0.00448 755.8 20.3
792(15) 0.00429 756.4 21.0
786(15) 0.00418 756.9 21.8
757(15) 0.00436 757.5 22.6
775(15) 0.00438 758.0 23.5
766(14) 0.00468 758.6 24.5
804(15) 0.00412 759.1 25.7
793(15) 0.00420 759.7 27.0
792(15) 0.00424 760.3 28.4
785(15) 0.00442 760.8 30.0
797(15) 0.00445 761.4 31.9
792(15) 0.00414 761.9 34.0
800(16) 0.00393 762.5 36.3
792(15) 0.00426 763.0 39.1
822(15) 0.00422 763.6 42.3
797(15) 0.00444 764.2 46.1
795(15) 0.00419 764.7 50.7
867(16) 0.00365 765.3 56.4
803(15) 0.00423 765.8 63.6
869(15) 0.00408 766.4 73.0
913(16) 0.00390 766.9 85.5
917(16) 0.00364 767.5 102.3
874(16) 0.00371 768.1 124.9
978(17) 0.003385 768.6 155.1
1005(17) 0.00353 769.2 194.5
1029(17) 0.003495 769.7 244.8
1102(18) 0.003121 770.3 306.6
1139(19) 0.002774 770.8 379.9
1225(19) 0.002796 771.4 462.5
1320(19) 0.002711 772.0 550.0
1345(19) 0.002679 772.5 634.1
1442(20) 0.002345 773.1 702.8
1454(21) 0.002169 773.6 741.8
1540(21) 0.002148 774.2 741.2
1532(20) 0.002360 774.7 701.1
1473(20) 0.002417 775.3 631.7
1291(19) 0.002624 775.9 547.3
1161(19) 0.002797 776.4 459.8
1089(18) 0.003081 777.0 377.3
995(16) 0.00361 777.5 304.3
957(16) 0.00367 778.1 242.7
968(17) 0.003472 778.6 192.7
949(17) 0.003406 779.2 153.4
909(16) 0.00371 779.8 123.5
879(15) 0.00407 780.3 100.9
838(15) 0.00409 780.9 84.2
850(16) 0.00385 781.4 71.8
857(16) 0.00374 782.0 62.4
829(15) 0.00404 782.5 55.1
810(15) 0.00444 783.1 49.4
801(15) 0.00416 783.7 44.8
802(15) 0.00405 784.2 40.9
828(16) 0.00396 784.8 37.6
832(15) 0.00405 785.3 34.8
823(15) 0.00436 785.9 32.4
849(16) 0.00401 786.4 30.2
791(15) 0.00421 787.0 28.3
787(15) 0.00433 787.6 26.6
810(15) 0.00427 788.1 25.1
785(14) 0.00457 788.7 23.7
806(15) 0.00418 789.2 22.5
852(16) 0.00375 789.8 21.4
772(15) 0.00426 790.3 20.4
796(15) 0.00435 790.9 19.5
805(15) 0.00443 791.5 18.7
779(15) 0.00428 792.0 18.0
831(16) 0.00376 792.6 17.3
826(16) 0.00392 793.1 16.6
771(14) 0.00460 793.7 16.1
827(15) 0.00431 794.2 15.5
829(15) 0.00403 794.8 15.0
807(16) 0.00395 795.4 14.6
767(15) 0.00445 795.9 14.1
821(15) 0.00427 796.5 13.7
787(15) 0.00452 797.0 13.4
827(15) 0.00405 797.6 13.0
834(16) 0.00376 798.1 12.7
843(15) 0.00403 798.7 12.4
808(15) 0.00445 799.3 12.1
803(15) 0.00435 799.8 11.9
788(15) 0.00431 800.4 11.6
794(15) 0.00408 800.9 11.4
839(16) 0.00399 801.5 11.2
821(15) 0.00435 802.1 11.0
812(15) 0.00431 802.6 10.8
796(15) 0.00425 803.2 10.6
843(16) 0.00374 803.7 10.5
824(15) 0.00410 804.3 10.3
831(15) 0.00428 804.8 10.2
815(15) 0.00428 805.4 10.0
807(15) 0.00413 806.0 9.9
796(15) 0.00414 806.5 9.8
849(16) 0.00389 807.1 9.6
838(15) 0.00428 807.6 9.5
835(15) 0.00412 808.2 9.4
798(15) 0.00423 808.7 9.3
811(16) 0.00395 809.3 9.2
851(16) 0.00390 809.9 9.1
800(15) 0.00448 810.4 9.1
814(15) 0.00423 811.0 9.0
827(16) 0.00395 811.5 8.9
830(16) 0.00395 812.1 8.8
839(16) 0.00399 812.6 8.8
799(15) 0.00447 813.2 8.7
821(15) 0.00412 813.8 8.7
838(16) 0.00386 814.3 8.6
778(15) 0.00430 814.9 8.6
824(15) 0.00415 815.4 8.5
810(15) 0.00439 816.0 8.5
804(15) 0.00423 816.5 8.4
833(16) 0.00388 817.1 8.4
814(15) 0.00411 817.7 8.4
871(15) 0.00401 818.2 8.3
816(15) 0.00438 818.8 8.3
818(15) 0.00402 819.3 8.3
804(16) 0.00400 819.9 8.3
833(15) 0.00402 820.4 8.3
790(15) 0.00443 821.0 8.2
840(15) 0.00422 821.6 8.2
805(15) 0.00413 822.1 8.2
807(16) 0.00394 822.7 8.2
822(15) 0.00411 823.2 8.2
843(15) 0.00418 823.8 8.2
820(15) 0.00439 824.3 8.2
868(16) 0.00387 824.9 8.2
872(16) 0.00358 825.5 8.2
850(16) 0.00397 826.0 8.2
815(15) 0.00440 826.6 8.2
809(15) 0.00435 827.1 8.2
811(15) 0.00410 827.7 8.3
809(16) 0.00387 828.2 8.3
825(15) 0.00403 828.8 8.3
865(15) 0.00414 829.4 8.3
825(15) 0.00433 829.9 8.3
806(15) 0.00425 830.5 8.4
853(16) 0.00374 831.0 8.4
860(16) 0.00384 831.6 8.4
847(15) 0.00417 832.1 8.5
826(15) 0.00432 832.7 8.5
830(15) 0.00404 833.3 8.5
833(16) 0.00384 833.8 8.6
854(16) 0.00386 834.4 8.6
798(15) 0.00446 834.9 8.7
821(15) 0.00422 835.5 8.7
850(16) 0.00393 836.0 8.8
796(15) 0.00412 836.6 8.8
815(15) 0.00414 837.1 8.9
853(15) 0.00421 837.7 9.0
838(15) 0.00412 838.2 9.0
846(16) 0.00391 838.7 9.1
885(16) 0.00372 839.2 9.2
832(15) 0.00414 839.7 9.3
844(15) 0.00422 840.3 9.3
848(16) 0.00397 840.8 9.4
837(16) 0.00394 841.3 9.5
850(16) 0.00388 841.8 9.6
867(16) 0.00395 842.3 9.7
881(15) 0.00407 842.9 9.8
834(15) 0.00406 843.4 9.9
857(16) 0.00377 843.9 10.0
875(16) 0.00387 844.4 10.1
854(15) 0.00410 844.9 10.2
829(15) 0.00431 845.5 10.3
817(15) 0.00405 846.0 10.5
886(16) 0.00359 846.5 10.6
848(16) 0.00393 847.0 10.7
864(15) 0.00411 847.5 10.9
840(15) 0.00426 848.1 11.0
887(16) 0.00377 848.6 11.2
893(17) 0.003494 849.1 11.3
856(16) 0.00392 849.6 11.5
869(15) 0.00404 850.1 11.7
884(15) 0.00402 850.7 11.9
846(15) 0.00402 851.2 12.1
834(16) 0.00374 851.7 12.2
897(16) 0.00372 852.2 12.5
878(15) 0.00408 852.7 12.7
892(16) 0.00399 853.2 12.9
832(15) 0.00408 853.8 13.1
870(17) 0.003502 854.3 13.4
880(16) 0.00380 854.8 13.6
858(15) 0.00415 855.3 13.9
859(15) 0.00411 855.8 14.1
870(16) 0.00389 856.4 14.4
879(17) 0.00355 856.9 14.7
853(16) 0.00390 857.4 15.0
906(16) 0.00398 857.9 15.3
866(15) 0.00405 858.4 15.7
903(16) 0.00369 859.0 16.0
869(16) 0.00366 859.5 16.4
844(16) 0.00389 860.0 16.8
845(15) 0.00420 860.5 17.2
917(16) 0.00386 861.0 17.6
886(16) 0.00380 861.6 18.1
855(16) 0.00386 862.1 18.5
913(17) 0.00354 862.6 19.0
899(16) 0.00398 863.1 19.5
910(16) 0.00382 863.6 20.1
879(16) 0.00377 864.2 20.6
883(16) 0.00370 864.7 21.2
879(16) 0.00382 865.2 21.8
904(16) 0.00400 865.7 22.5
897(16) 0.00382 866.2 23.2
871(16) 0.00387 866.8 23.9
882(16) 0.00380 867.3 24.7
887(16) 0.00384 867.8 25.5
906(16) 0.00393 868.3 26.3
892(16) 0.00382 868.8 27.3
863(16) 0.00379 869.3 28.2
886(16) 0.00376 869.9 29.2
917(16) 0.00382 870.4 30.3
870(15) 0.00406 870.9 31.5
903(16) 0.00370 871.4 32.7
844(16) 0.00388 871.9 34.0
904(16) 0.00367 872.5 35.4
846(15) 0.00416 873.0 36.9
926(16) 0.00387 873.5 38.5
955(17) 0.003463 874.0 40.2
880(16) 0.00364 874.5 42.0
869(16) 0.00389 875.1 44.0
928(16) 0.00383 875.6 46.1
934(16) 0.00383 876.1 48.3
938(16) 0.00357 876.6 50.8
970(17) 0.003282 877.1 53.5
971(17) 0.003481 877.7 56.4
926(16) 0.00384 878.2 59.6
952(16) 0.00376 878.7 63.1
940(17) 0.00353 879.2 66.9
919(17) 0.003460 879.7 71.2
978(17) 0.003437 880.3 75.9
949(16) 0.00376 880.8 81.1
979(16) 0.00364 881.3 87.0
980(17) 0.003418 881.8 93.6
963(17) 0.003281 882.3 101.0
990(17) 0.003338 882.9 109.3
1016(17) 0.00354 883.4 118.8
967(16) 0.00368 883.9 129.5
982(17) 0.003419 884.4 141.5
1012(18) 0.003144 884.9 155.2
1053(18) 0.003134 885.4 170.6
1104(17) 0.003279 886.0 187.9
1065(17) 0.003301 886.5 207.3
1095(18) 0.003075 887.0 229.0
1151(19) 0.002824 887.5 253.1
1189(18) 0.002849 888.0 279.7
1214(18) 0.002983 888.6 308.9
1213(18) 0.002909 889.1 340.8
1291(19) 0.002597 889.6 375.1
1281(19) 0.002597 890.1 411.6
1396(20) 0.002414 890.6 449.9
1421(20) 0.002563 891.2 489.2
1469(20) 0.002353 891.7 528.4
1502(21) 0.002206 892.2 566.2
1543(21) 0.002167 892.7 600.7
1627(22) 0.002102 893.2 630.0
1627(21) 0.002241 893.8 652.1
1624(22) 0.002103 894.3 665.3
1616(22) 0.002068 894.8 668.4
1593(22) 0.002117 895.3 661.1
1564(21) 0.002260 895.8 644.2
1596(21) 0.002277 896.4 619.0
1483(21) 0.002302 896.9 587.3
1427(21) 0.002307 897.4 551.3
1445(21) 0.002287 897.9 512.7
1366(19) 0.002594 898.4 473.3
1370(19) 0.002628 899.0 434.3
1317(19) 0.002570 899.5 396.6
1322(20) 0.002483 900.0 360.9
1244(19) 0.002750 900.5 327.6
1224(18) 0.002876 901.0 296.8
1196(18) 0.003012 901.5 268.5
1187(19) 0.002811 902.1 242.9
1132(19) 0.002841 902.6 219.8
1135(18) 0.002961 903.1 199.0
1148(18) 0.003086 903.6 180.4
1112(17) 0.003228 904.1 163.9
1081(17) 0.003191 904.7 149.2
1079(18) 0.002938 905.2 136.2
1084(18) 0.003143 905.7 124.7
1083(17) 0.003315 906.2 114.5
1043(17) 0.003466 906.7 105.5
1037(17) 0.003292 907.3 97.5
1027(18) 0.003023 907.8 90.5
999(17) 0.003330 908.3 84.2
1059(17) 0.003423 908.8 78.5
1041(17) 0.003417 909.3 73.5
1043(17) 0.003225 909.9 69.0
1024(17) 0.003188 910.4 64.9
1100(18) 0.003053 910.9 61.2
1022(17) 0.00352 911.4 57.8
998(17) 0.00353 911.9 54.7
1001(17) 0.003369 912.5 51.9
985(17) 0.003269 913.0 49.2
980(17) 0.003406 913.5 46.8
984(16) 0.00365 914.0 44.6
945(16) 0.00371 914.5 42.5
996(17) 0.003412 915.1 40.6
979(17) 0.003340 915.6 38.8
963(17) 0.003442 916.1 37.2
1026(17) 0.00352 916.6 35.6
966(16) 0.00356 917.1 34.1
976(17) 0.003407 917.6 32.8
992(17) 0.003299 918.2 31.5
942(16) 0.00364 918.7 30.3
973(16) 0.00369 919.2 29.1
989(17) 0.003417 919.7 28.1
977(17) 0.003378 920.2 27.0
964(17) 0.003459 920.8 26.1
1002(17) 0.003428 921.3 25.2
979(16) 0.00367 921.8 24.3
949(17) 0.00354 922.3 23.5
942(17) 0.003404 922.8 22.7
988(17) 0.003324 923.4 22.0
982(16) 0.00356 923.9 21.3
903(16) 0.00395 924.4 20.6
928(16) 0.00360 924.9 20.0
983(17) 0.003333 925.4 19.4
983(17) 0.003491 926.0 18.8
998(17) 0.00353 926.5 18.3
959(16) 0.00372 927.0 17.8
975(17) 0.003398 927.5 17.3
946(17) 0.003376 928.0 16.8
938(16) 0.00359 928.6 16.4
980(16) 0.00361 929.1 15.9
959(16) 0.00374 929.6 15.5
974(17) 0.003447 930.1 15.1
950(17) 0.003356 930.6 14.7
933(16) 0.00365 931.2 14.4
935(16) 0.00382 931.7 14.0
933(16) 0.00382 932.2 13.7
979(17) 0.003360 932.7 13.4
918(17) 0.003373 933.2 13.0
941(16) 0.00357 933.8 12.7
984(16) 0.00366 934.3 12.5
940(16) 0.00382 934.8 12.2
974(17) 0.003476 935.3 11.9
1004(18) 0.003159 935.8 11.6
944(17) 0.00353 936.3 11.4
962(16) 0.00374 936.9 11.2
962(16) 0.00364 937.4 10.9
948(16) 0.00356 937.9 10.7
978(17) 0.003264 938.4 10.5
940(17) 0.003464 938.9 10.3
935(16) 0.00383 939.5 10.1
933(16) 0.00375 940.0 9.9
948(17) 0.003489 940.5 9.7
935(17) 0.003442 941.0 9.6
962(17) 0.003393 941.5 9.4
961(16) 0.00374 942.1 9.2
951(16) 0.00369 942.6 9.1
956(17) 0.00354 943.1 8.9
990(17) 0.003311 943.6 8.8
918(16) 0.00374 944.1 8.6
949(16) 0.00379 944.7 8.5
1012(17) 0.003395 945.2 8.3
952(17) 0.003485 945.7 8.2
969(17) 0.003382 946.2 8.1
945(16) 0.00363 946.7 7.9
1001(16) 0.00362 947.3 7.8
971(17) 0.003491 947.8 7.7
941(17) 0.00353 948.3 7.6
971(17) 0.003423 948.8 7.5
920(16) 0.00385 949.3 7.3
971(16) 0.00370 949.9 7.2
979(17) 0.003425 950.4 7.1
954(17) 0.003397 950.9 7.0
991(17) 0.003387 951.4 6.9
981(16) 0.00365 951.9 6.8
993(16) 0.00362 952.4 6.7
970(17) 0.003471 953.0 6.7
983(17) 0.003253 953.5 6.6
930(16) 0.00364 954.0 6.5
940(16) 0.00378 954.5 6.4
955(16) 0.00377 955.0 6.3
991(17) 0.003389 955.6 6.2
1004(18) 0.003098 956.1 6.2
987(17) 0.003364 956.6 6.1
972(16) 0.00364 957.1 6.0
969(16) 0.00371 957.6 5.9
971(17) 0.003457 958.2 5.9
975(17) 0.003224 958.7 5.8
982(17) 0.003445 959.2 5.7
968(16) 0.00371 959.7 5.7
975(16) 0.00366 960.2 5.6
981(17) 0.003414 960.8 5.5
958(17) 0.003296 961.3 5.5
977(17) 0.003396 961.8 5.4
957(16) 0.00378 962.3 5.4
928(16) 0.00380 962.8 5.3
970(17) 0.00352 963.4 5.3
988(17) 0.003274 963.9 5.2
984(17) 0.003412 964.4 5.2
980(16) 0.00366 964.9 5.1
977(16) 0.00358 965.4 5.1
963(17) 0.003435 966.0 5.0
975(17) 0.003382 966.5 5.0
975(17) 0.003464 967.0 4.9
982(16) 0.00365 967.5 4.9
997(17) 0.003478 968.0 4.8
996(17) 0.003319 968.5 4.8
1001(17) 0.003295 969.1 4.8
974(17) 0.003450 969.6 4.7
962(16) 0.00374 970.1 4.7
954(16) 0.00366 970.6 4.7
1011(17) 0.003208 971.1 4.6
980(17) 0.003367 971.7 4.6
956(16) 0.00364 972.2 4.6
943(16) 0.00380 972.7 4.5
985(17) 0.003418 973.2 4.5
1013(17) 0.003278 973.7 4.5
998(17) 0.003326 974.3 4.4
970(16) 0.00359 974.8 4.4
1001(16) 0.00360 975.3 4.4
1025(17) 0.003252 975.8 4.4
1001(17) 0.003282 976.3 4.4
968(17) 0.003498 976.9 4.3
988(16) 0.00360 977.4 4.3
1009(17) 0.00355 977.9 4.3
1019(17) 0.003250 978.4 4.3
1014(17) 0.003199 978.9 4.3
1016(17) 0.003312 979.5 4.3
977(16) 0.00363 980.0 4.3
1001(16) 0.00359 980.5 4.2
1054(18) 0.003159 981.0 4.2
958(17) 0.003339 981.5 4.2
992(17) 0.003437 982.1 4.2
1018(17) 0.00352 982.6 4.2
1007(16) 0.00356 983.1 4.2
971(17) 0.00351 983.6 4.2
1025(18) 0.003029 984.1 4.2
1021(17) 0.003274 984.6 4.2
1000(16) 0.00361 985.2 4.3
997(16) 0.00356 985.7 4.3
1006(17) 0.003291 986.2 4.3
1012(18) 0.003106 986.7 4.3
1007(17) 0.003309 987.2 4.3
965(16) 0.00373 987.8 4.3
1040(17) 0.003393 988.3 4.3
1001(17) 0.003331 988.8 4.4
1021(18) 0.003082 989.2 4.4
981(17) 0.003422 989.7 4.4
956(16) 0.00372 990.1 4.4
1007(17) 0.003494 990.5 4.4
1051(18) 0.003124 991.0 4.5
983(17) 0.003311 991.4 4.5
1003(17) 0.003343 991.8 4.5
1016(17) 0.00353 992.2 4.5
1030(17) 0.003427 992.7 4.5
1030(18) 0.003171 993.1 4.5
1023(18) 0.003157 993.5 4.5
987(17) 0.00354 993.9 4.5
995(16) 0.00360 994.4 4.5
1004(17) 0.003458 994.8 4.5
1025(17) 0.003185 995.2 4.5
993(17) 0.003337 995.6 4.5
1011(17) 0.003369 996.1 4.4
999(16) 0.00360 996.5 4.4
1023(17) 0.003349 996.9 4.4
1020(17) 0.003228 997.4 4.4
1009(17) 0.003287 997.8 4.3
953(16) 0.00361 998.2 4.3
983(16) 0.00367 998.6 4.2
1004(17) 0.003324 999.1 4.2
1017(17) 0.003242 999.5 4.2
1055(17) 0.003187 999.9 4.1
1039(17) 0.003374 1000.3 4.1
1056(17) 0.003393 1000.8 4.0
1014(17) 0.003287 1001.2 4.0
1022(17) 0.003201 1001.6 4.0
1000(17) 0.003459 1002.1 3.9
967(16) 0.00365 1002.5 3.9
964(16) 0.00374 1002.9 3.8
1027(17) 0.003331 1003.3 3.8
1002(17) 0.003242 1003.8 3.8
1037(17) 0.003237 1004.2 3.7
1038(17) 0.003419 1004.6 3.7
1007(16) 0.00357 1005.0 3.7
960(17) 0.00351 1005.5 3.7
1016(18) 0.003048 1005.9 3.6
973(17) 0.003493 1006.3 3.6
992(16) 0.00359 1006.7 3.6
1011(17) 0.00352 1007.2 3.6
993(17) 0.003416 1007.6 3.6
984(17) 0.003237 1008.0 3.6
1017(17) 0.003285 1008.5 3.5
987(16) 0.00364 1008.9 3.5
1007(17) 0.003492 1009.3 3.5
1021(17) 0.003265 1009.7 3.5
984(17) 0.003275 1010.2 3.5
1008(17) 0.003347 1010.6 3.5
989(16) 0.00367 1011.0 3.5
1009(17) 0.003504 1011.4 3.5
1007(17) 0.003312 1011.9 3.5
979(17) 0.003300 1012.3 3.5
992(17) 0.003381 1012.7 3.5
980(16) 0.00365 1013.2 3.5
995(17) 0.00351 1013.6 3.5
1043(17) 0.003204 1014.0 3.5
1002(17) 0.003333 1014.4 3.6
1020(17) 0.003345 1014.9 3.6
1006(17) 0.00355 1015.3 3.6
1016(17) 0.003334 1015.7 3.6
1029(18) 0.003143 1016.1 3.6
992(17) 0.003333 1016.6 3.6
1034(17) 0.003191 1017.0 3.7
1021(17) 0.00353 1017.4 3.7
975(17) 0.00351 1017.8 3.7
1044(18) 0.003100 1018.3 3.7
1073(18) 0.003068 1018.7 3.8
1043(17) 0.003322 1019.1 3.8
989(16) 0.00364 1019.6 3.8
1004(17) 0.003324 1020.0 3.8
999(17) 0.003250 1020.4 3.9
970(17) 0.00352 1020.8 3.9
1007(17) 0.003448 1021.3 4.0
994(16) 0.00361 1021.7 4.0
1046(18) 0.003110 1022.1 4.0
1017(17) 0.003198 1022.5 4.1
1011(17) 0.003257 1023.0 4.1
986(16) 0.00357 1023.4 4.2
1016(17) 0.003484 1023.8 4.3
1026(17) 0.003285 1024.2 4.3
1008(18) 0.003095 1024.7 4.4
1006(17) 0.003324 1025.1 4.4
1011(17) 0.00353 1025.5 4.5
1029(17) 0.003473 1026.0 4.6
975(17) 0.00354 1026.4 4.7
997(18) 0.003105 1026.8 4.8
1002(17) 0.003348 1027.2 4.8
1028(17) 0.003486 1027.7 4.9
1079(17) 0.003291 1028.1 5.0
1057(17) 0.003212 1028.5 5.1
1032(18) 0.003027 1028.9 5.3
992(17) 0.003391 1029.4 5.4
994(16) 0.00356 1029.8 5.5
1047(17) 0.003387 1030.2 5.6
1024(17) 0.003328 1030.7 5.8
1024(18) 0.003135 1031.1 5.9
1062(18) 0.003158 1031.5 6.1
1030(17) 0.003487 1031.9 6.3
1020(17) 0.003436 1032.4 6.5
987(17) 0.003319 1032.8 6.7
1002(17) 0.003177 1033.2 6.9
1006(17) 0.003321 1033.6 7.1
998(16) 0.00360 1034.1 7.4
1041(17) 0.003362 1034.5 7.7
999(17) 0.003303 1034.9 8.0
1007(17) 0.003257 1035.3 8.3
1004(17) 0.003384 1035.3 8.7
1037(17) 0.003492 1035.1 9.0
994(17) 0.003454 1034.9 9.4
1022(17) 0.003226 1034.7 9.9
1023(17) 0.003245 1034.6 10.4
1012(17) 0.003331 1034.4 10.9
1044(17) 0.003448 1034.2 11.5
1036(17) 0.003277 1034.0 12.1
1039(18) 0.003125 1033.9 12.7
1014(17) 0.003332 1033.7 13.4
1061(17) 0.003238 1033.5 14.2
1025(17) 0.003496 1033.3 15.1
1077(18) 0.003170 1033.1 16.0
1044(18) 0.003145 1033.0 16.9
1000(17) 0.003357 1032.8 17.9
1052(17) 0.003297 1032.6 19.1
1051(17) 0.003429 1032.4 20.2
1059(18) 0.003154 1032.3 21.5
1044(18) 0.003086 1032.1 22.8
1049(18) 0.003158 1031.9 24.2
1016(17) 0.003475 1031.7 25.7
1024(17) 0.00351 1031.5 27.2
1015(17) 0.003393 1031.4 28.8
1031(18) 0.003088 1031.2 30.4
996(17) 0.003297 1031.0 32.0
1004(17) 0.00352 1030.8 33.7
986(16) 0.00365 1030.7 35.3
1011(17) 0.003322 1030.5 36.9
1030(18) 0.003072 1030.3 38.4
1009(17) 0.003357 1030.1 39.7
991(16) 0.00358 1029.9 40.9
1053(17) 0.003410 1029.8 41.9
1054(17) 0.003174 1029.6 42.6
1076(18) 0.002861 1029.4 43.1
1030(17) 0.003322 1029.2 43.3
1017(17) 0.003502 1029.1 43.2
1015(17) 0.003488 1028.9 42.8
993(17) 0.003481 1028.7 42.2
1066(18) 0.003021 1028.5 41.2
1069(17) 0.003222 1028.3 40.1
1054(17) 0.003403 1028.2 38.8
1034(17) 0.003405 1028.0 37.3
1035(17) 0.003252 1027.8 35.8
996(17) 0.003280 1027.6 34.2
1052(17) 0.003203 1027.5 32.5
1012(16) 0.00357 1027.3 30.9
1088(17) 0.003196 1027.1 29.2
1020(17) 0.003261 1026.9 27.6
1063(18) 0.003016 1026.7 26.1
1099(18) 0.003010 1026.6 24.6
1056(17) 0.003412 1026.4 23.1
1067(17) 0.003255 1026.2 21.8
1024(17) 0.003246 1026.0 20.5
1014(17) 0.003274 1025.9 19.3
1005(17) 0.003322 1025.7 18.1
1057(17) 0.003410 1025.5 17.1
1037(17) 0.003336 1025.3 16.1
992(17) 0.003364 1025.1 15.1
1041(17) 0.003179 1025.0 14.3
1033(17) 0.003289 1024.8 13.5
1031(17) 0.003506 1024.6 12.7
1056(17) 0.003228 1024.4 12.0
1032(17) 0.003251 1024.3 11.4
1022(17) 0.003333 1024.1 10.8
1013(17) 0.003464 1023.9 10.2
1036(17) 0.003461 1023.7 9.7
1033(17) 0.003270 1023.5 9.3
1011(17) 0.003253 1023.4 8.8
1021(17) 0.003303 1023.2 8.4
1017(17) 0.003448 1023.0 8.0
991(16) 0.00362 1022.8 7.7
1060(18) 0.003159 1022.7 7.4
1039(18) 0.003065 1022.5 7.1
993(17) 0.003400 1022.3 6.8
983(16) 0.00365 1022.1 6.6
1007(16) 0.00358 1022.0 6.3
1022(17) 0.003333 1021.8 6.1
1024(18) 0.003038 1021.6 5.9
965(17) 0.00352 1021.4 5.7
1024(17) 0.003465 1021.2 5.5
1025(17) 0.003487 1021.1 5.3
1044(17) 0.003214 1020.9 5.2
1014(18) 0.003095 1020.7 5.0
1028(17) 0.003257 1020.5 4.9
1032(17) 0.003485 1020.4 4.8
1002(16) 0.00358 1020.2 4.6
1043(17) 0.003252 1020.0 4.5
1015(18) 0.003122 1019.8 4.4
1012(17) 0.003356 1019.6 4.3
1053(17) 0.003386 1019.5 4.2
992(16) 0.00360 1019.3 4.1
1013(17) 0.003300 1019.1 4.0
1040(18) 0.003011 1018.9 3.9
1024(17) 0.003292 1018.8 3.8
1021(17) 0.00353 1018.6 3.7
1014(17) 0.003471 1018.4 3.6
976(17) 0.003388 1018.2 3.6
1016(17) 0.003181 1018.0 3.5
1055(17) 0.003206 1017.9 3.4
1037(17) 0.003463 1017.7 3.4
1004(17) 0.003456 1017.5 3.3
1034(17) 0.003268 1017.3 3.2
1058(18) 0.003141 1017.2 3.2
1077(18) 0.003144 1017.0 3.1
1036(17) 0.003483 1016.8 3.1
1044(17) 0.003298 1016.6 3.0
982(17) 0.003468 1016.4 3.0
966(17) 0.00351 1016.3 2.9
1007(17) 0.003343 1016.1 2.9
1025(17) 0.003504 1015.9 2.8
1044(17) 0.003347 1015.7 2.8
1041(17) 0.003175 1015.6 2.7
1037(17) 0.003220 1015.4 2.7
1010(17) 0.003452 1015.2 2.7
1015(17) 0.00354 1015.0 2.6
970(17) 0.003475 1014.8 2.6
997(17) 0.003347 1014.7 2.5
1016(17) 0.003312 1014.5 2.5
996(17) 0.00354 1014.3 2.5
1019(17) 0.00353 1014.1 2.4
993(17) 0.003447 1014.0 2.4
1047(18) 0.003079 1013.8 2.4
1055(17) 0.003218 1013.6 2.4
1035(17) 0.003404 1013.4 2.3
1018(17) 0.00351 1013.2 2.3
985(17) 0.003493 1013.1 2.3
1013(17) 0.003175 1012.9 2.2
1010(17) 0.003341 1012.7 2.2
1028(17) 0.003467 1012.5 2.2
996(16) 0.00361 1012.4 2.2
987(17) 0.003339 1012.2 2.2
1001(18) 0.003078 1012.0 2.1
1001(17) 0.003365 1011.8 2.1
1035(17) 0.003457 1011.6 2.1
1023(17) 0.003488 1011.5 2.1
1051(17) 0.003178 1011.3 2.0
1028(18) 0.003042 1011.1 2.0
1046(18) 0.003165 1010.9 2.0
1010(17) 0.00355 1010.8 2.0
999(17) 0.00355 1010.6 2.0
1037(17) 0.003212 1010.4 2.0
1044(18) 0.003022 1010.2 1.9
997(17) 0.003388 1010.0 1.9
989(16) 0.00364 1009.9 1.9
992(16) 0.00357 1009.7 1.9
1024(17) 0.003292 1009.5 1.9
989(17) 0.003287 1009.3 1.9
1029(17) 0.003247 1009.2 1.8
1023(17) 0.00352 1009.0 1.8
993(17) 0.00354 1008.8 1.8
1044(18) 0.003133 1008.6 1.8
1031(18) 0.003109 1008.4 1.8
980(17) 0.003446 1008.0 1.8
998(16) 0.00360 1007.5 1.8
980(17) 0.00355 1007.1 1.7
1006(17) 0.003324 1006.6 1.7
972(17) 0.003449 1006.2 1.7
1058(17) 0.003201 1005.8 1.7
949(16) 0.00379 1005.3 1.7
973(17) 0.003464 1004.9 1.6
1024(17) 0.003251 1004.4 1.5
988(17) 0.003431 1004.0 1.5
1037(17) 0.003348 1003.6 1.5
1039(17) 0.003449 1003.1 1.5
1008(17) 0.003393 1002.7 1.5
1032(18) 0.003145 1002.2 1.5
1020(17) 0.003239 1001.8 1.5
1018(17) 0.003366 1001.4 1.5
1011(17) 0.00355 1000.9 1.5
1014(17) 0.003285 1000.5 1.5
1012(17) 0.003172 1000.0 1.5
1036(17) 0.003271 999.6 1.4
985(17) 0.00352 999.2 1.4
986(16) 0.00365 998.7 1.4
1030(17) 0.003315 998.3 1.4
1009(17) 0.003234 997.9 1.4
1009(17) 0.003327 997.4 1.4
1031(17) 0.003442 997.0 1.4
987(16) 0.00365 996.5 1.4
987(17) 0.003392 996.1 1.4
996(18) 0.003163 995.7 1.4
1021(17) 0.003337 995.2 1.4
1065(17) 0.003329 994.8 1.4
1029(17) 0.003471 994.3 1.4
1007(17) 0.003299 993.9 1.4
1002(18) 0.003119 993.5 1.4
1000(17) 0.003366 993.0 1.4
987(16) 0.00364 992.6 1.4
1017(17) 0.003471 992.1 1.4
992(17) 0.003409 991.7 1.4
983(17) 0.003319 991.3 1.4
996(17) 0.003374 990.8 1.4
999(16) 0.00360 990.4 1.4
1014(17) 0.003483 989.9 1.4
986(17) 0.003409 989.5 1.4
998(17) 0.003277 989.1 1.4
1009(17) 0.003348 988.6 1.4
1021(17) 0.00353 988.2 1.3
992(16) 0.00358 987.7 1.3
974(17) 0.003457 987.3 1.3
996(17) 0.003206 986.9 1.3
1024(17) 0.003302 986.4 1.3
1017(17) 0.00353 986.0 1.3
995(17) 0.003474 985.5 1.3
1001(17) 0.003296 985.1 1.3
960(17) 0.003409 984.7 1.3
981(17) 0.003456 984.2 1.3
1016(17) 0.00353 983.8 1.3
972(17) 0.00355 983.3 1.3
1026(17) 0.003238 982.9 1.3
970(17) 0.003463 982.5 1.3
1028(17) 0.003331 982.0 1.3
1013(16) 0.00356 981.6 1.3
976(17) 0.003481 981.1 1.3
988(17) 0.003314 980.7 1.3
999(17) 0.003404 980.3 1.3
1027(17) 0.003452 979.8 1.3
1038(17) 0.003471 979.4 1.3
1017(17) 0.003248 978.9 1.3
994(17) 0.003197 978.5 1.3
938(16) 0.00357 978.1 1.3
989(17) 0.00354 977.6 1.3
1010(16) 0.00360 977.2 1.2
975(17) 0.003439 976.7 1.2
970(17) 0.003360 976.3 1.2
1015(17) 0.003317 975.9 1.2
981(16) 0.00360 975.4 1.2
980(16) 0.00369 975.0 1.2
1021(17) 0.003347 974.5 1.2
1012(18) 0.003120 974.1 1.2
953(16) 0.00358 973.7 1.2
994(16) 0.00359 973.2 1.2
990(16) 0.00363 972.8 1.2
982(17) 0.003432 972.3 1.2
996(18) 0.003087 971.9 1.2
976(17) 0.003431 971.5 1.2
1017(17) 0.003498 971.0 1.2
965(16) 0.00373 970.6 1.2
999(17) 0.003405 970.1 1.2
1030(18) 0.003102 969.7 1.2
947(16) 0.00360 969.3 1.2
979(16) 0.00368 968.8 1.2
1030(17) 0.003477 968.4 1.2
1000(17) 0.003366 967.9 1.2
1001(17) 0.003203 967.5 1.2
968(17) 0.003430 967.1 1.2
962(16) 0.00374 966.6 1.2
952(16) 0.00373 966.2 1.2
1028(17) 0.003210 965.7 1.2
944(17) 0.003461 965.3 1.2
963(17) 0.003420 964.9 1.2
929(16) 0.00388 964.4 1.2
1001(17) 0.003443 964.0 1.2
975(17) 0.003379 963.5 1.2
983(17) 0.003264 963.1 1.2
970(17) 0.003434 962.7 1.2
965(16) 0.00374 962.2 1.2
984(17) 0.003498 961.8 1.2
969(17) 0.003386 961.3 1.2
968(17) 0.003338 960.9 1.2
953(17) 0.00354 960.5 1.2
1011(16) 0.00357 960.0 1.2
933(16) 0.00364 959.6 1.2
945(17) 0.00355 959.1 1.2
987(17) 0.003399 958.7 1.2
938(16) 0.00370 958.3 1.2
962(16) 0.00373 957.8 1.2
996(17) 0.003330 957.4 1.2
942(17) 0.003428 956.9 1.2
946(16) 0.00359 956.5 1.2
945(16) 0.00373 956.1 1.2
984(16) 0.00365 955.6 1.2
957(17) 0.003498 955.2 1.2
969(17) 0.003303 954.7 1.2
992(17) 0.003336 954.3 1.2
974(16) 0.00361 953.9 1.2
916(16) 0.00394 953.4 1.2
966(17) 0.003458 953.0 1.2
954(17) 0.003345 952.5 1.2
964(17) 0.003482 952.1 1.2
947(16) 0.00370 951.7 1.2
950(16) 0.00381 951.2 1.2
970(17) 0.003443 950.8 1.2
923(17) 0.003403 950.3 1.2
965(17) 0.003506 949.9 1.2
967(16) 0.00371 949.5 1.1
980(16) 0.00361 949.0 1.1
969(17) 0.003507 948.6 1.1
935(17) 0.003432 948.1 1.1
979(17) 0.003482 947.7 1.1
956(16) 0.00376 947.3 1.1
932(16) 0.00377 946.8 1.1
935(16) 0.00357 946.4 1.1
932(17) 0.003339 945.9 1.1
947(17) 0.003503 945.5 1.1
956(16) 0.00376 945.1 1.1
947(16) 0.00369 944.6 1.1
949(17) 0.00351 944.2 1.1
929(17) 0.00351 943.7 1.1
923(16) 0.00358 943.3 1.1
946(16) 0.00378 942.9 1.1
932(16) 0.00371 942.4 1.2
926(16) 0.00359 942.0 1.2
923(16) 0.00357 941.5 1.2
939(17) 0.00353 941.1 1.2
942(16) 0.00380 940.7 1.2
955(16) 0.00365 940.2 1.2
954(17) 0.003460 939.8 1.2
949(17) 0.003463 939.3 1.2
961(16) 0.00356 938.9 1.2
937(16) 0.00384 938.5 1.2
930(16) 0.00362 938.0 1.2
932(17) 0.003445 937.6 1.2
942(17) 0.00351 937.2 1.2
973(16) 0.00356 936.7 1.2
953(16) 0.00375 936.3 1.2
899(16) 0.00376 935.8 1.2
996(17) 0.003214 935.4 1.2
934(17) 0.00355 935.0 1.2
919(16) 0.00379 934.5 1.2
956(16) 0.00377 934.1 1.2
961(17) 0.003501 933.6 1.2
935(17) 0.003422 933.2 1.2
943(17) 0.003465 932.8 1.2
951(16) 0.00374 932.3 1.2
938(16) 0.00385 931.9 1.2
926(16) 0.00362 931.4 1.2
930(17) 0.003388 931.0 1.2
934(16) 0.00363 930.6 1.2
925(16) 0.00385 930.1 1.2
946(16) 0.00380 929.7 1.2
944(16) 0.00357 929.2 1.2
902(17) 0.003449 928.8 1.2
935(17) 0.00353 928.4 1.2
937(16) 0.00380 927.9 1.2
936(16) 0.00378 927.5 1.2
958(17) 0.00354 927.0 1.2
963(17) 0.003330 926.6 1.2
990(17) 0.003374 926.2 1.2
961(16) 0.00373 925.7 1.2
912(16) 0.00389 925.3 1.2
933(16) 0.00359 924.8 1.2
946(17) 0.003340 924.4 1.2
958(17) 0.003459 924.0 1.2
927(16) 0.00387 923.5 1.2
935(16) 0.00379 923.1 1.2
931(16) 0.00363 922.6 1.2
908(16) 0.00364 922.2 1.2
940(16) 0.00356 921.8 1.2
964(16) 0.00372 921.3 1.2
956(16) 0.00363 920.9 1.2
928(17) 0.00354 920.4 1.2
949(17) 0.003405 920.0 1.2
940(17) 0.00356 919.6 1.2
949(16) 0.00375 919.1 1.2
886(16) 0.00392 918.7 1.2
949(17) 0.003411 918.2 1.2
910(16) 0.00367 917.8 1.2
927(16) 0.00366 917.3 1.2
929(16) 0.00386 916.8 1.2
858(15) 0.00403 916.2 1.2
914(16) 0.00365 915.7 1.2
919(16) 0.00367 915.2 1.2
928(16) 0.00368 914.7 1.2
915(16) 0.00391 914.2 1.3
966(17) 0.00351 913.7 1.3
940(17) 0.003479 913.1 1.3
956(17) 0.003435 912.6 1.3
874(15) 0.00404 912.1 1.3
882(15) 0.00405 911.6 1.3
899(16) 0.00365 911.1 1.3
893(16) 0.00363 910.6 1.3
935(17) 0.00351 910.0 1.3
941(16) 0.00369 909.5 1.3
915(16) 0.00389 909.0 1.3
962(17) 0.00353 908.5 1.3
892(16) 0.00366 908.0 1.3
919(16) 0.00357 907.5 1.3
866(15) 0.00415 906.9 1.3
898(16) 0.00399 906.4 1.3
942(17) 0.003499 905.9 1.3
906(17) 0.003468 905.4 1.3
942(16) 0.00360 904.9 1.3
938(16) 0.00383 904.4 1.3
968(16) 0.00368 903.8 1.3
904(16) 0.00376 903.3 1.3
890(17) 0.00353 902.8 1.3
895(16) 0.00370 902.3 1.3
904(16) 0.00400 901.8 1.3
937(16) 0.00378 901.3 1.4
900(16) 0.00382 900.8 1.4
903(16) 0.00359 900.2 1.4
904(16) 0.00370 899.7 1.4
953(16) 0.00375 899.2 1.4
872(15) 0.00405 898.7 1.4
899(16) 0.00373 898.2 1.4
910(17) 0.003507 897.7 1.4
923(16) 0.00360 897.1 1.4
894(15) 0.00402 896.6 1.4
903(16) 0.00389 896.1 1.4
893(16) 0.00378 895.6 1.4
852(16) 0.00397 895.1 1.4
895(16) 0.00366 894.6 1.4
929(16) 0.00388 894.0 1.4
918(16) 0.00378 893.5 1.4
898(16) 0.00371 893.0 1.4
918(17) 0.00355 892.5 1.5
875(16) 0.00387 892.0 1.5
859(15) 0.00415 891.5 1.5
917(16) 0.00377 890.9 1.5
887(16) 0.00380 890.4 1.5
881(16) 0.00380 889.9 1.5
899(16) 0.00379 889.4 1.5
896(16) 0.00401 888.9 1.5
879(16) 0.00377 888.4 1.5
878(16) 0.00365 887.8 1.5
868(16) 0.00382 887.3 1.5
871(16) 0.00388 886.8 1.5
842(15) 0.00424 886.3 1.5
879(16) 0.00379 885.8 1.6
878(16) 0.00367 885.3 1.6
893(16) 0.00374 884.7 1.6
896(16) 0.00392 884.2 1.6
886(15) 0.00403 883.7 1.6
929(17) 0.00351 883.2 1.6
876(16) 0.00359 882.7 1.6
894(16) 0.00369 882.2 1.6
874(15) 0.00409 881.7 1.6
876(15) 0.00408 881.1 1.6
910(16) 0.00367 880.6 1.7
909(17) 0.003483 880.1 1.7
888(16) 0.00382 879.6 1.7
917(16) 0.00389 879.1 1.7
952(16) 0.00376 878.6 1.7
880(16) 0.00378 878.0 1.7
885(17) 0.003481 877.5 1.7
872(16) 0.00388 877.0 1.8
893(16) 0.00401 876.5 1.8
886(15) 0.00402 876.0 1.8
879(16) 0.00387 875.5 1.8
898(17) 0.00352 874.9 1.8
873(16) 0.00383 874.4 1.8
868(15) 0.00414 873.9 1.8
924(16) 0.00381 873.4 1.9
885(16) 0.00377 872.9 1.9
859(16) 0.00371 872.4 1.9
872(16) 0.00385 871.8 1.9
872(15) 0.00409 871.3 1.9
866(15) 0.00407 870.8 2.0
881(16) 0.00380 870.3 2.0
843(16) 0.00388 869.8 2.0
858(16) 0.00382 869.3 2.0
870(15) 0.00412 868.7 2.0
820(15) 0.00425 868.2 2.1
837(16) 0.00392 867.7 2.1
852(16) 0.00385 867.2 2.1
844(15) 0.00403 866.7 2.1
862(15) 0.00416 866.2 2.2
877(16) 0.00381 865.7 2.2
859(16) 0.00383 865.1 2.2
867(16) 0.00383 864.6 2.3
881(16) 0.00391 864.1 2.3
863(15) 0.00415 863.6 2.3
859(16) 0.00394 863.1 2.4
892(16) 0.00370 862.6 2.4
894(16) 0.00375 862.0 2.5
876(16) 0.00390 861.5 2.5
815(15) 0.00440 861.0 2.6
834(16) 0.00396 860.5 2.6
864(16) 0.00380 860.0 2.7
885(16) 0.00375 859.5 2.7
863(15) 0.00406 858.9 2.8
843(15) 0.00423 858.4 2.8
830(15) 0.00401 857.9 2.9
854(16) 0.00379 857.4 3.0
875(16) 0.00382 856.9 3.0
862(15) 0.00413 856.4 3.1
861(15) 0.00415 855.8 3.2
865(16) 0.00389 855.3 3.3
850(16) 0.00378 854.8 3.4
890(16) 0.00381 854.3 3.5
871(15) 0.00411 853.8 3.6
888(15) 0.00402 853.3 3.7
899(16) 0.00378 852.7 3.8
881(17) 0.00355 852.2 3.9
842(15) 0.00403 851.7 4.0
855(15) 0.00418 851.2 4.2
825(15) 0.00429 850.7 4.3
905(16) 0.00366 850.2 4.5
886(17) 0.003498 849.6 4.6
875(16) 0.00382 849.1 4.8
902(16) 0.00397 848.6 4.9
864(15) 0.00411 848.1 5.1
849(16) 0.00394 847.6 5.3
820(16) 0.00393 847.1 5.5
857(16) 0.00387 846.6 5.7
888(16) 0.00399 846.0 5.9
866(15) 0.00407 845.5 6.1
825(15) 0.00413 845.0 6.2
809(15) 0.00403 844.5 6.4
848(16) 0.00392 844.0 6.6
859(15) 0.00413 843.5 6.8
873(16) 0.00395 842.9 7.0
871(16) 0.00381 842.4 7.2
873(16) 0.00377 841.9 7.3
835(15) 0.00410 841.4 7.4
837(15) 0.00429 840.9 7.6
844(15) 0.00403 840.4 7.6
823(15) 0.00406 839.8 7.7
835(16) 0.00392 839.3 7.7
829(15) 0.00414 838.8 7.8
843(15) 0.00424 838.3 7.7
842(16) 0.00401 837.8 7.7
861(16) 0.00380 837.3 7.6
840(16) 0.00395 836.7 7.6
871(16) 0.00390 836.2 7.5
866(15) 0.00413 835.7 7.3
834(16) 0.00401 835.2 7.2
832(16) 0.00393 834.7 7.1
845(15) 0.00403 834.2 6.9
829(15) 0.00417 833.6 6.8
822(15) 0.00435 833.1 6.6
822(15) 0.00406 832.6 6.4
846(16) 0.00383 832.1 6.3
854(16) 0.00397 831.6 6.1
863(15) 0.00408 831.1 6.0
858(15) 0.00412 830.6 5.9
875(16) 0.00381 830.0 5.7
848(16) 0.00377 829.5 5.6
834(15) 0.00404 829.0 5.5
848(15) 0.00420 828.5 5.4
887(16) 0.00399 828.0 5.3
804(15) 0.00421 827.5 5.2
808(16) 0.00383 826.9 5.1
810(15) 0.00413 826.4 5.0
845(15) 0.00424 825.9 4.9
864(15) 0.00415 825.4 4.8
898(16) 0.00374 824.9 4.8
831(16) 0.00381 824.4 4.7
833(15) 0.00405 823.8 4.7
837(15) 0.00428 823.3 4.6
811(15) 0.00438 822.8 4.6
796(15) 0.00423 822.3 4.5
780(15) 0.00406 821.8 4.5
805(15) 0.00415 821.3 4.5
797(15) 0.00449 820.7 4.5
814(15) 0.00432 820.2 4.5
809(15) 0.00412 819.7 4.5
828(16) 0.00385 819.2 4.5
804(15) 0.00410 818.7 4.5
841(15) 0.00424 818.2 4.5
841(15) 0.00417 817.6 4.5
830(16) 0.00401 817.1 4.5
788(15) 0.00411 816.6 4.5
814(15) 0.00413 816.1 4.5
811(15) 0.00438 815.6 4.6
853(15) 0.00405 815.1 4.6
839(16) 0.00396 814.5 4.6
836(16) 0.00396 814.0 4.7
837(15) 0.00407 813.5 4.7
847(15) 0.00424 813.0 4.7
801(15) 0.00420 812.5 4.8
775(15) 0.00428 812.0 4.8
824(15) 0.00405 811.5 4.9
816(15) 0.00423 811.0 5.0
818(15) 0.00437 810.5 5.0
809(15) 0.00408 810.0 5.1
814(16) 0.00397 809.4 5.2
816(15) 0.00415 808.9 5.2
825(15) 0.00423 808.4 5.3
824(15) 0.00433 807.9 5.4
807(16) 0.00392 807.4 5.5
770(15) 0.00418 806.9 5.6
828(15) 0.00405 806.4 5.7
821(15) 0.00425 805.9 5.8
818(15) 0.00434 805.4 5.9
803(15) 0.00413 804.9 6.0
766(15) 0.00427 804.4 6.1
836(15) 0.00413 803.9 6.2
821(15) 0.00431 803.4 6.3
803(15) 0.00446 802.9 6.5
864(16) 0.00392 802.4 6.6
819(16) 0.00390 801.8 6.8
817(15) 0.00410 801.3 6.9
793(15) 0.00445 800.8 7.1
803(15) 0.00447 800.3 7.3
812(15) 0.00421 799.8 7.4
827(16) 0.00378 799.3 7.6
811(15) 0.00413 798.8 7.8
807(15) 0.00444 798.3 8.1
841(15) 0.00420 797.8 8.3
799(15) 0.00434 797.3 8.5
812(16) 0.00394 796.8 8.8
804(15) 0.00426 796.3 9.1
783(14) 0.00457 795.8 9.3
801(15) 0.00439 795.3 9.6
780(15) 0.00431 794.8 10.0
760(15) 0.00425 794.3 10.3
804(15) 0.00420 793.7 10.7
784(15) 0.00456 793.2 11.1
813(15) 0.00437 792.7 11.5
807(15) 0.00414 792.2 11.9
784(16) 0.00399 791.7 12.4
796(15) 0.00416 791.2 12.9
785(15) 0.00455 790.7 13.5
827(15) 0.00419 790.2 14.1
833(16) 0.00397 789.7 14.7
790(15) 0.00411 789.2 15.4
802(15) 0.00413 788.7 16.1
833(15) 0.00431 788.2 17.0
800(15) 0.00420 787.7 17.9
819(16) 0.00400 787.2 18.8
808(16) 0.00400 786.7 19.9
834(15) 0.00407 786.1 21.0
819(15) 0.00436 785.6 22.3
851(16) 0.00394 785.1 23.7
790(15) 0.00410 784.6 25.3
794(15) 0.00411 784.1 27.1
783(15) 0.00441 783.6 29.0
796(15) 0.00444 783.1 31.2
778(15) 0.00423 782.6 33.6
768(15) 0.00410 782.1 36.4
792(15) 0.00406 781.6 39.5
823(15) 0.00421 781.1 43.1
860(15) 0.00412 780.6 47.3
832(16) 0.00395 780.1 52.2
843(16) 0.00370 779.6 57.9
845(16) 0.00396 779.1 64.9
844(15) 0.00413 778.6 73.5
875(15) 0.00408 778.0 84.3
887(16) 0.00378 777.5 98.2
886(17) 0.00351 777.0 116.4
895(16) 0.00375 776.5 140.3
933(16) 0.00382 776.0 171.7
991(16) 0.00363 775.5 212.5
955(16) 0.00360 775.0 264.3
1079(18) 0.002852 774.5 328.6
1155(18) 0.002906 774.0 405.9
1174(18) 0.003015 773.5 494.8
1281(19) 0.002818 773.0 591.7
1363(20) 0.002493 772.5 688.2
1552(22) 0.002034 772.0 770.9
1580(21) 0.002123 771.5 822.5
1638(21) 0.002213 771.0 829.1
1645(21) 0.002162 770.4 788.6
1496(21) 0.002239 769.9 712.6
1393(21) 0.002266 769.4 618.3
1223(19) 0.002736 768.9 520.6
1155(18) 0.003127 768.4 429.1
1138(18) 0.003073 767.9 348.6
1067(18) 0.003167 767.4 280.9
971(17) 0.003378 766.9 225.8
955(17) 0.003438 766.4 182.3
920(16) 0.00389 765.9 148.7
881(16) 0.00391 765.4 123.0
862(16) 0.00392 764.9 103.5
839(16) 0.00395 764.4 88.6
860(16) 0.00380 763.9 77.1
803(15) 0.00444 763.4 68.1
828(15) 0.00419 762.8 60.8
858(16) 0.00385 762.3 54.8
817(15) 0.00405 761.8 49.8
816(15) 0.00420 761.3 45.6
849(15) 0.00419 760.8 41.9
822(15) 0.00415 760.3 38.7
769(15) 0.00425 759.8 35.9
773(15) 0.00428 759.3 33.5
789(15) 0.00444 758.8 31.3
784(15) 0.00452 758.3 29.4
795(15) 0.00417 757.8 27.7
786(15) 0.00418 757.3 26.2
780(15) 0.00428 756.8 24.8
756(14) 0.00459 756.3 23.5
775(14) 0.00460 755.8 22.4
805(15) 0.00411 755.3 21.4
780(15) 0.00404 754.7 20.5
812(15) 0.00414 754.2 19.7
765(14) 0.00464 753.7 19.0
778(14) 0.00458 753.2 18.3
786(15) 0.00415 752.7 17.7
760(15) 0.00422 752.2 17.1
815(16) 0.00398 751.7 16.6
787(15) 0.00450 751.2 16.1
804(15) 0.00445 750.7 15.7
803(15) 0.00409 750.2 15.3
770(15) 0.00410 749.7 15.0
780(15) 0.00433 749.2 14.6
795(15) 0.00447 748.7 14.4
754(14) 0.00471 748.2 14.1
739(15) 0.00449 747.7 13.9
742(15) 0.00406 747.1 13.6
767(15) 0.00434 746.6 13.4
765(14) 0.00463 746.1 13.3
730(14) 0.00484 745.6 13.1
772(15) 0.00430 745.1 13.0
757(15) 0.00427 744.6 12.9
805(15) 0.00417 744.1 12.8
778(14) 0.00457 743.6 12.7
748(14) 0.00470 743.1 12.6
716(14) 0.00476 742.6 12.6
772(15) 0.00408 742.1 12.5
771(15) 0.00419 741.6 12.5
742(14) 0.00478 741.1 12.5
765(15) 0.00453 740.6 12.5
768(15) 0.00435 740.1 12.5
769(15) 0.00427 739.6 12.5
717(14) 0.00468 739.0 12.5
768(14) 0.00464 738.5 12.6
727(14) 0.00473 738.0 12.6
770(15) 0.00415 737.5 12.7
735(15) 0.00434 737.0 12.8
737(15) 0.00456 736.5 12.9
741(14) 0.00475 736.0 13.0
748(15) 0.00455 735.5 13.1
725(15) 0.00454 735.0 13.3
743(15) 0.00444 734.5 13.4
752(15) 0.00440 734.0 13.6
730(14) 0.00488 733.5 13.8
748(15) 0.00451 733.0 14.0
726(15) 0.00450 732.6 14.2
728(15) 0.00456 732.1 14.5
726(14) 0.00478 731.7 14.7
753(14) 0.00469 731.2 14.9
727(14) 0.00458 730.8 15.2
723(15) 0.00446 730.3 15.4
700(14) 0.00488 729.9 15.6
738(14) 0.00469 729.4 15.8
697(14) 0.00511 729.0 16.1
715(14) 0.00462 728.6 16.3
746(15) 0.00430 728.1 16.6
773(15) 0.00431 727.7 16.8
753(14) 0.00466 727.2 17.2
713(14) 0.00494 726.8 17.5
766(15) 0.00420 726.3 17.8
725(15) 0.00432 725.9 18.2
713(14) 0.00468 725.4 18.6
713(14) 0.00499 725.0 19.0
698(14) 0.00507 724.6 19.5
762(15) 0.00424 724.1 20.0
665(14) 0.00465 723.7 20.5
732(15) 0.00449 723.2 21.0
749(14) 0.00480 722.8 21.6
758(14) 0.00463 722.3 22.2
729(15) 0.00448 721.9 22.9
719(15) 0.00434 721.4 23.6
701(14) 0.00469 721.0 24.3
754(14) 0.00473 720.6 25.0
814(15) 0.00434 720.1 25.8
745(14) 0.00459 719.7 26.7
768(15) 0.00417 719.2 27.6
756(15) 0.00438 718.8 28.6
728(14) 0.00492 718.3 29.6
720(14) 0.00480 717.9 30.7
816(16) 0.00392 717.4 31.8
736(15) 0.00444 717.0 33.0
725(14) 0.00463 716.6 34.3
743(14) 0.00480 716.1 35.7
739(14) 0.00465 715.7 37.2
751(15) 0.00443 715.2 38.8
729(15) 0.00451 714.8 40.5
747(15) 0.00447 714.3 42.3
714(14) 0.00499 713.9 44.3
745(14) 0.00463 713.4 46.4
768(15) 0.00426 713.0 48.7
741(15) 0.00447 712.5 51.2
748(15) 0.00448 712.1 53.8
710(14) 0.00502 711.7 56.7
757(15) 0.00437 711.2 59.9
795(15) 0.00408 710.8 63.4
773(15) 0.00428 710.3 67.2
774(15) 0.00451 709.9 71.3
750(14) 0.00470 709.4 76.0
784(15) 0.00427 709.0 81.1
799(16) 0.00399 708.5 86.9
824(16) 0.00396 708.1 93.3
800(15) 0.00445 707.7 100.5
824(15) 0.00432 707.2 108.6
797(15) 0.00419 706.8 117.7
792(15) 0.00401 706.3 127.9
799(15) 0.00417 705.9 139.5
808(15) 0.00434 705.4 152.5
886(16) 0.00400 705.0 167.2
889(16) 0.00373 704.5 183.7
883(17) 0.00355 704.1 202.2
901(16) 0.00369 703.7 222.9
945(16) 0.00376 703.2 245.8
905(16) 0.00394 702.8 271.2
992(17) 0.003351 702.3 299.1
989(17) 0.003174 701.9 329.6
1030(17) 0.003274 701.4 362.5
1102(17) 0.003282 701.0 397.7
1135(17) 0.003184 700.5 434.7
1157(18) 0.002959 700.1 472.9
1206(19) 0.002661 699.7 511.3
1254(19) 0.002755 699.2 548.5
1348(19) 0.002674 698.8 582.9
1306(19) 0.002732 698.3 612.6
1289(19) 0.002644 697.9 635.4
1352(20) 0.002418 697.4 649.8
1364(20) 0.002487 697.0 654.4
1305(19) 0.002759 696.5 648.9
1240(19) 0.002843 696.1 633.7
1228(19) 0.002739 695.7 610.2
1192(19) 0.002724 695.2 580.1
1143(18) 0.002979 694.8 545.4
1109(17) 0.003231 694.3 508.1
1106(18) 0.003159 693.9 469.7
1063(18) 0.003149 693.4 431.7
1057(18) 0.003095 693.0 394.9
1007(17) 0.003389 692.5 359.9
980(16) 0.00366 692.1 327.3
946(16) 0.00359 691.7 297.2
991(17) 0.003243 691.2 269.5
909(16) 0.00371 690.8 244.4
932(16) 0.00366 690.3 221.8
894(15) 0.00403 689.9 201.4
844(16) 0.00401 689.4 183.2
891(16) 0.00366 689.0 167.0
864(16) 0.00380 688.5 152.5
827(15) 0.00415 688.1 139.7
807(15) 0.00442 687.7 128.4
810(15) 0.00416 687.2 118.3
825(16) 0.00394 686.8 109.4
798(15) 0.00415 686.3 101.5
811(15) 0.00427 685.9 94.5
822(15) 0.00438 685.4 88.3
788(15) 0.00432 685.0 82.7
758(15) 0.00423 684.5 77.7
762(15) 0.00428 684.1 73.2
784(15) 0.00449 683.7 69.2
791(15) 0.00448 683.2 65.6
774(15) 0.00422 682.8 62.3
739(15) 0.00425 682.3 59.3
726(14) 0.00460 681.9 56.5
718(14) 0.00489 681.4 54.0
746(14) 0.00472 681.0 51.7
759(15) 0.00431 680.5 49.6
762(16) 0.00399 680.1 47.7
724(15) 0.00456 679.7 46.0
747(14) 0.00473 679.2 44.3
714(14) 0.00497 678.8 42.8
707(14) 0.00466 678.3 41.5
704(15) 0.00439 677.9 40.2
683(14) 0.00498 677.4 39.1
691(14) 0.00516 677.0 38.1
717(14) 0.00490 676.5 37.1
712(14) 0.00475 676.1 36.3
701(15) 0.00448 675.7 35.5
676(14) 0.00494 675.2 34.9
726(14) 0.00493 674.8 34.3
725(14) 0.00474 674.3 33.8
696(14) 0.00475 673.9 33.4
688(14) 0.00463 673.4 33.1
724(14) 0.00466 673.0 32.9
720(14) 0.00494 672.5 32.7
694(14) 0.00497 672.1 32.7
696(14) 0.00479 671.7 32.7
705(15) 0.00456 671.2 32.9
680(14) 0.00489 670.8 33.2
715(14) 0.00495 670.3 33.6
706(14) 0.00488 669.9 34.1
730(15) 0.00450 669.4 34.8
732(15) 0.00451 669.0 35.7
722(14) 0.00472 668.5 36.7
728(14) 0.00489 668.1 37.8
709(14) 0.00486 667.7 39.2
698(14) 0.00478 667.2 40.8
710(14) 0.00459 666.8 42.6
682(14) 0.00499 666.3 44.6
715(14) 0.00496 665.9 46.9
702(14) 0.00470 665.4 49.3
717(15) 0.00449 665.0 52.1
715(14) 0.00458 664.5 55.0
721(14) 0.00475 664.1 58.1
702(14) 0.00505 663.7 61.5
711(14) 0.00469 663.2 64.9
759(15) 0.00419 662.8 68.4
710(14) 0.00470 662.3 71.8
714(14) 0.00481 661.9 75.0
713(14) 0.00501 661.4 78.0
703(14) 0.00485 661.0 80.4
740(15) 0.00427 660.5 82.2
751(15) 0.00441 660.1 83.3
722(14) 0.00494 659.7 83.6
750(14) 0.00469 659.2 83.1
755(15) 0.00439 658.8 81.8
744(15) 0.00416 658.3 79.8
769(15) 0.00424 657.9 77.4
725(14) 0.00489 657.4 74.5
726(14) 0.00483 657.0 71.5
713(14) 0.00474 656.5 68.4
730(15) 0.00430 656.1 65.3
707(14) 0.00470 655.6 62.3
727(14) 0.00491 655.2 59.6
712(14) 0.00490 654.8 57.0
676(14) 0.00478 654.3 54.8
676(14) 0.00457 653.9 52.8
668(14) 0.00487 653.4 51.2
660(13) 0.00538 653.0 49.8
680(14) 0.00507 652.5 48.8
663(14) 0.00503 652.1 48.1
673(14) 0.00466 651.6 47.6
669(14) 0.00501 651.2 47.4
660(13) 0.00536 650.8 47.6
611(13) 0.00553 650.3 47.9
639(14) 0.00501 649.9 48.6
654(14) 0.00503 649.4 49.5
697(14) 0.00493 649.0 50.6
726(14) 0.00488 648.5 52.0
678(14) 0.00508 648.1 53.5
705(14) 0.00461 647.6 55.2
677(14) 0.00477 647.2 57.1
669(14) 0.00511 646.8 59.0
737(14) 0.00481 646.3 61.1
718(14) 0.00467 645.9 63.1
701(14) 0.00471 645.4 65.1
721(14) 0.00458 645.0 66.9
710(14) 0.00487 644.5 68.6
699(14) 0.00507 644.1 70.0
708(14) 0.00469 643.6 71.0
701(14) 0.00459 643.2 71.6
728(15) 0.00455 642.8 71.8
695(14) 0.00501 642.3 71.5
732(14) 0.00487 641.9 70.7
740(15) 0.00437 641.4 69.5
728(15) 0.00431 641.0 67.8
663(14) 0.00500 640.5 65.8
693(14) 0.00499 640.1 63.5
661(13) 0.00537 639.6 61.0
662(14) 0.00496 639.2 58.3
684(15) 0.00450 638.8 55.5
676(14) 0.00486 638.3 52.8
694(14) 0.00501 637.9 50.0
668(13) 0.00530 637.4 47.3
672(14) 0.00491 637.0 44.7
665(14) 0.00464 636.5 42.2
624(13) 0.00538 636.1 39.8
637(13) 0.00553 635.6 37.5
683(14) 0.00514 635.2 35.4
675(14) 0.00484 634.8 33.4
685(15) 0.00445 634.3 31.5
661(14) 0.00510 633.9 29.8
655(13) 0.00538 633.4 28.2
622(13) 0.00558 633.0 26.7
631(13) 0.00533 632.5 25.3
630(14) 0.00508 632.1 24.0
684(14) 0.00484 631.6 22.8
653(13) 0.00540 631.2 21.7
627(13) 0.00556 630.8 20.7
639(14) 0.00514 630.3 19.8
674(14) 0.00465 629.9 19.0
647(14) 0.00510 629.4 18.2
615(13) 0.00573 629.0 17.5
650(13) 0.00537 628.5 16.9
661(14) 0.00504 628.1 16.3
632(14) 0.00509 627.6 15.8
593(13) 0.00550 627.2 15.3
629(13) 0.00559 626.8 14.9
631(13) 0.00541 626.3 14.5
615(13) 0.00527 625.9 14.1
640(14) 0.00488 625.4 13.8
591(13) 0.00570 625.0 13.5
622(13) 0.00560 624.5 13.3
625(13) 0.00531 624.1 13.0
608(13) 0.00529 623.6 12.8
625(14) 0.00502 623.2 12.7
617(13) 0.00528 622.8 12.5
646(13) 0.00549 622.3 12.4
632(13) 0.00535 621.9 12.3
609(13) 0.00533 621.4 12.3
600(13) 0.00551 621.0 12.2
594(13) 0.00588 620.5 12.3
646(13) 0.00547 620.1 12.3
640(14) 0.00515 619.6 12.4
613(13) 0.00525 619.2 12.5
642(14) 0.00511 618.8 12.7
611(13) 0.00576 618.3 12.9
598(13) 0.00590 617.9 13.3
627(13) 0.00530 617.4 13.7
624(13) 0.00526 617.0 14.2
610(13) 0.00557 616.5 14.9
641(13) 0.00540 616.1 15.7
647(13) 0.00546 615.6 16.9
623(13) 0.00545 615.2 18.6
646(14) 0.00495 614.8 21.1
684(14) 0.00482 614.3 24.9
641(13) 0.00550 613.9 30.5
680(14) 0.00518 613.4 38.9
717(14) 0.00472 613.0 50.8
718(15) 0.00432 612.5 66.6
738(15) 0.00449 612.1 86.3
712(14) 0.00498 611.6 108.3
727(14) 0.00488 611.2 129.5
747(15) 0.00451 610.8 144.4
810(16) 0.00383 610.3 147.2
755(15) 0.00439 609.9 136.5
742(14) 0.00478 609.4 117.0
675(14) 0.00520 609.0 94.5
663(14) 0.00495 608.5 73.4
681(14) 0.00456 608.1 55.7
639(14) 0.00520 607.6 41.9
664(13) 0.00534 607.2 31.9
644(13) 0.00543 606.8 25.0
641(14) 0.00510 606.3 20.3
612(14) 0.00522 605.9 17.1
619(13) 0.00532 605.4 14.9
634(13) 0.00556 605.0 13.3
596(13) 0.00565 604.5 12.1
602(13) 0.00555 604.1 11.1
636(14) 0.00511 603.6 10.3
599(13) 0.00560 603.2 9.6
617(13) 0.00571 602.8 9.0
603(13) 0.00553 602.3 8.5
603(13) 0.00536 601.9 8.1
619(14) 0.00509 601.4 7.7
594(13) 0.00565 601.0 7.3
597(13) 0.00594 600.5 7.0
587(13) 0.00574 600.1 6.7
634(14) 0.00506 599.6 6.5
606(14) 0.00521 599.2 6.2
595(13) 0.00572 598.7 6.0
606(13) 0.00584 598.3 5.8
603(13) 0.00540 597.9 5.6
584(13) 0.00550 597.4 5.5
604(13) 0.00546 597.0 5.3
597(13) 0.00575 596.5 5.2
602(13) 0.00582 596.1 5.0
583(13) 0.00573 595.6 4.9
582(13) 0.00539 595.2 4.8
591(13) 0.00553 594.7 4.7
607(13) 0.00569 594.3 4.6
606(13) 0.00584 593.9 4.5
593(13) 0.00558 593.4 4.4
609(13) 0.00524 593.0 4.3
607(13) 0.00542 592.5 4.2
605(13) 0.00582 592.1 4.1
585(13) 0.00591 591.6 4.0
544(13) 0.00603 591.2 4.0
557(13) 0.00554 590.7 3.9
598(13) 0.00555 590.3 3.8
607(13) 0.00579 589.9 3.8
607(13) 0.00575 589.4 3.7
595(13) 0.00554 589.0 3.7
593(13) 0.00533 588.5 3.6
582(13) 0.00571 588.1 3.5
613(13) 0.00566 587.6 3.5
594(13) 0.00593 587.2 3.4
577(13) 0.00577 586.7 3.4
593(14) 0.00511 586.3 3.3
565(13) 0.00569 585.9 3.3
568(12) 0.00615 585.4 3.3
602(13) 0.00582 585.0 3.2
581(13) 0.00574 584.5 3.2
596(13) 0.00525 584.1 3.1
575(13) 0.00569 583.6 3.1
575(12) 0.00610 583.2 3.1
584(13) 0.00576 582.7 3.0
561(13) 0.00584 582.3 3.0
618(14) 0.00510 581.9 3.0
610(13) 0.00540 581.4 2.9
558(12) 0.00627 581.0 2.9
551(12) 0.00608 580.5 2.9
568(13) 0.00563 580.1 2.8
589(13) 0.00540 579.6 2.8
581(13) 0.00566 579.2 2.8
577(12) 0.00606 578.7 2.7
576(13) 0.00580 578.3 2.7
586(13) 0.00543 577.9 2.7
578(13) 0.00565 577.4 2.7
566(13) 0.00600 577.0 2.6
565(12) 0.00625 576.5 2.6
575(13) 0.00572 576.1 2.6
569(13) 0.00570 575.6 2.6
560(13) 0.00584 575.2 2.5
571(13) 0.00594 574.7 2.5
564(12) 0.00625 574.3 2.5
585(13) 0.00552 573.9 2.5
567(13) 0.00563 573.4 2.5
600(13) 0.00545 573.0 2.4
550(12) 0.00630 572.5 2.4
573(12) 0.00609 572.1 2.4
575(13) 0.00576 571.6 2.4
571(13) 0.00540 571.2 2.4
573(13) 0.00589 570.7 2.4
565(12) 0.00612 570.3 2.3
534(12) 0.00657 569.9 2.3
549(13) 0.00595 569.4 2.3
581(13) 0.00534 569.0 2.3
574(13) 0.00575 568.5 2.3
516(12) 0.00672 568.1 2.3
559(12) 0.00623 567.6 2.3
592(13) 0.00555 567.2 2.2
581(13) 0.00543 566.7 2.2
549(12) 0.00608 566.3 2.2
565(12) 0.00618 565.9 2.2
576(12) 0.00610 565.4 2.2
614(13) 0.00539 565.0 2.2
567(13) 0.00550 564.5 2.2
525(12) 0.00626 564.1 2.2
569(12) 0.00617 563.6 2.2
588(13) 0.00584 563.2 2.1
569(13) 0.00577 562.7 2.1
583(13) 0.00530 562.3 2.1
567(13) 0.00587 561.9 2.1
578(13) 0.00604 561.4 2.1
580(13) 0.00580 561.0 2.1
566(13) 0.00573 560.5 2.1
532(13) 0.00604 560.1 2.1
525(12) 0.00615 559.6 2.1
554(12) 0.00633 559.2 2.1
586(13) 0.00569 558.7 2.1
558(13) 0.00586 558.3 2.1
531(12) 0.00617 557.9 2.1
557(13) 0.00596 557.4 2.1
589(13) 0.00600 557.0 2.1
551(12) 0.00621 556.5 2.1
539(13) 0.00602 556.1 2.1
562(13) 0.00572 555.6 2.1
561(13) 0.00602 555.2 2.1
569(12) 0.00614 554.7 2.1
552(13) 0.00598 554.3 2.1
556(13) 0.00574 553.9 2.1
540(13) 0.00601 553.4 2.1
547(12) 0.00617 553.0 2.1
536(12) 0.00652 552.5 2.1
559(13) 0.00576 552.1 2.1
563(13) 0.00549 551.8 2.1
534(12) 0.00611 551.5 2.1
558(12) 0.00612 551.3 2.1
556(12) 0.00627 551.0 2.1
546(13) 0.00583 550.7 2.1
582(13) 0.00535 550.5 2.1
555(13) 0.00592 550.2 2.2
560(12) 0.00613 549.9 2.2
552(12) 0.00640 549.7 2.2
591(13) 0.00560 549.4 2.2
559(13) 0.00554 549.2 2.2
544(13) 0.00604 548.9 2.3
570(12) 0.00616 548.6 2.3
526(12) 0.00667 548.4 2.3
545(13) 0.00598 548.1 2.3
545(13) 0.00554 547.8 2.3
561(13) 0.00574 547.6 2.4
554(12) 0.00637 547.3 2.4
560(12) 0.00625 547.1 2.4
549(13) 0.00595 546.8 2.4
567(13) 0.00554 546.5 2.5
572(13) 0.00576 546.3 2.5
579(12) 0.00609 546.0 2.5
553(12) 0.00612 545.7 2.5
547(13) 0.00587 545.5 2.5
503(12) 0.00635 545.2 2.5
570(13) 0.00584 544.9 2.5
545(12) 0.00639 544.7 2.5
551(12) 0.00622 544.4 2.5
550(13) 0.00589 544.2 2.5
557(13) 0.00573 543.9 2.5
573(13) 0.00562 543.6 2.5
557(12) 0.00627 543.4 2.5
545(12) 0.00620 543.1 2.5
544(13) 0.00596 542.8 2.5
550(13) 0.00579 542.6 2.5
558(13) 0.00595 542.3 2.4
525(12) 0.00664 542.1 2.4
581(13) 0.00571 541.8 2.4
558(13) 0.00601 541.5 2.4
565(13) 0.00573 541.3 2.4
558(12) 0.00608 541.0 2.4
547(12) 0.00637 540.7 2.4
529(12) 0.00615 540.5 2.4
528(12) 0.00606 540.2 2.4
526(12) 0.00613 540.0 2.4
551(12) 0.00610 539.7 2.4
560(12) 0.00625 539.4 2.4
549(13) 0.00589 539.2 2.4
547(13) 0.00580 538.9 2.4
542(13) 0.00594 538.6 2.4
563(13) 0.00604 538.4 2.5
531(12) 0.00657 538.1 2.5
520(12) 0.00646 537.9 2.5
511(12) 0.00610 537.6 2.5
518(12) 0.00626 537.3 2.5
523(12) 0.00661 537.1 2.6
541(12) 0.00647 536.8 2.6
549(12) 0.00608 536.5 2.6
529(13) 0.00582 536.3 2.7
512(12) 0.00638 536.0 2.7
536(12) 0.00638 535.8 2.8
537(12) 0.00651 535.5 2.8
558(13) 0.00596 535.2 2.9
542(13) 0.00570 535.0 2.9
580(13) 0.00552 534.7 3.0
539(12) 0.00650 534.4 3.0
519(12) 0.00673 534.2 3.1
518(12) 0.00619 533.9 3.2
504(12) 0.00606 533.6 3.3
551(13) 0.00605 533.4 3.4
533(12) 0.00652 533.1 3.5
539(12) 0.00633 532.9 3.6
541(13) 0.00604 532.6 3.7
514(12) 0.00612 532.3 3.8
539(13) 0.00594 532.1 4.0
539(12) 0.00652 531.8 4.1
525(12) 0.00646 531.5 4.3
518(12) 0.00624 531.3 4.5
511(12) 0.00623 531.0 4.7
535(13) 0.00602 530.8 4.9
543(12) 0.00649 530.5 5.1
519(12) 0.00630 530.2 5.4
529(12) 0.00618 530.0 5.7
547(13) 0.00575 529.7 6.0
528(12) 0.00612 529.4 6.4
566(12) 0.00618 529.2 6.8
535(12) 0.00622 528.9 7.3
560(13) 0.00578 528.7 7.8
562(13) 0.00579 528.4 8.4
546(12) 0.00611 528.1 9.1
514(12) 0.00675 527.9 9.9
526(12) 0.00633 527.6 10.8
508(12) 0.00621 527.3 11.9
526(12) 0.00622 527.1 13.2
550(13) 0.00604 526.8 14.9
556(12) 0.00633 526.6 16.9
540(12) 0.00610 526.3 19.5
572(13) 0.00545 526.0 22.9
530(12) 0.00628 525.8 27.3
597(13) 0.00575 525.5 33.3
603(13) 0.00584 525.2 41.1
610(13) 0.00537 525.0 51.3
607(14) 0.00518 524.7 64.2
612(13) 0.00546 524.4 79.9
625(13) 0.00561 524.2 98.5
638(13) 0.00550 523.9 119.0
655(14) 0.00512 523.7 139.9
661(14) 0.00471 523.4 157.9
694(14) 0.00474 523.1 168.9
697(14) 0.00513 522.9 169.7
722(14) 0.00487 522.6 159.9
676(14) 0.00481 522.3 142.6
639(14) 0.00474 522.1 121.9
631(14) 0.00521 521.8 101.2
600(13) 0.00583 521.6 82.4
587(13) 0.00601 521.3 66.2
583(13) 0.00571 521.0 52.9
568(13) 0.00556 520.8 42.4
569(13) 0.00581 520.5 34.3
534(12) 0.00650 520.2 28.1
526(12) 0.00655 520.0 23.5
529(12) 0.00637 519.7 20.0
528(13) 0.00600 519.5 17.3
524(12) 0.00634 519.2 15.2
550(12) 0.00629 518.9 13.5
550(12) 0.00617 518.7 12.2
529(12) 0.00621 518.4 11.1
520(13) 0.00581 518.1 10.1
485(12) 0.00664 517.9 9.3
561(12) 0.00617 517.6 8.6
566(13) 0.00590 517.4 8.0
532(12) 0.00618 517.1 7.5
537(13) 0.00589 516.8 7.0
547(13) 0.00601 516.6 6.6
496(12) 0.00687 516.3 6.2
517(12) 0.00654 516.0 5.9
524(12) 0.00621 515.8 5.6
529(13) 0.00587 515.5 5.3
500(12) 0.00642 515.3 5.1
497(12) 0.00695 515.0 4.9
534(12) 0.00622 514.7 4.7
509(12) 0.00616 514.5 4.5
510(12) 0.00634 514.2 4.4
509(12) 0.00652 513.9 4.2
498(12) 0.00700 513.7 4.1
486(12) 0.00676 513.4 4.0
513(13) 0.00601 513.1 3.9
528(12) 0.00606 512.9 3.8
492(12) 0.00680 512.6 3.7
520(12) 0.00671 512.4 3.6
483(12) 0.00675 512.1 3.5
512(12) 0.00614 511.8 3.5
495(12) 0.00647 511.6 3.4
511(12) 0.00662 511.3 3.4
518(12) 0.00671 511.0 3.3
519(13) 0.00595 510.8 3.3
507(12) 0.00610 510.5 3.2
509(12) 0.00651 510.3 3.2
521(12) 0.00662 510.0 3.2
514(12) 0.00678 509.7 3.1
510(12) 0.00642 509.5 3.1
518(13) 0.00595 509.2 3.1
517(12) 0.00638 508.9 3.1
542(12) 0.00643 508.7 3.1
487(11) 0.00714 508.4 3.1
520(12) 0.00619 508.2 3.1
532(13) 0.00573 507.9 3.1
520(12) 0.00630 507.6 3.1
483(11) 0.00723 507.4 3.1
521(12) 0.00672 507.1 3.1
497(12) 0.00662 506.8 3.1
491(12) 0.00631 506.6 3.1
494(12) 0.00655 506.3 3.1
506(12) 0.00692 506.1 3.2
472(11) 0.00730 505.8 3.2
525(12) 0.00630 505.5 3.2
545(13) 0.00578 505.3 3.2
475(12) 0.00695 505.0 3.3
483(11) 0.00726 504.7 3.3
515(12) 0.00648 504.5 3.4
503(12) 0.00649 504.2 3.4
505(12) 0.00627 504.0 3.5
530(12) 0.00608 503.7 3.5
499(12) 0.00696 503.4 3.6
498(12) 0.00686 503.2 3.7
494(12) 0.00670 502.9 3.7
515(12) 0.00617 502.6 3.8
490(12) 0.00671 502.4 3.9
500(12) 0.00694 502.1 4.0
501(12) 0.00675 501.8 4.1
508(12) 0.00631 501.6 4.2
503(12) 0.00642 501.3 4.3
519(12) 0.00646 501.1 4.4
493(12) 0.00706 500.8 4.5
483(12) 0.00684 500.5 4.6
535(13) 0.00595 500.3 4.8
551(13) 0.00594 500.0 4.9
504(12) 0.00673 499.7 5.1
493(12) 0.00705 499.5 5.2
512(12) 0.00624 499.2 5.4
480(12) 0.00656 499.0 5.6
511(12) 0.00645 498.7 5.7
516(12) 0.00658 498.4 5.9
546(12) 0.00645 498.2 6.1
494(12) 0.00674 497.9 6.3
488(12) 0.00650 497.6 6.5
525(12) 0.00617 497.4 6.8
508(12) 0.00680 497.1 7.0
488(11) 0.00714 496.9 7.2
499(12) 0.00652 496.6 7.5
501(12) 0.00614 496.3 7.8
493(12) 0.00674 496.1 8.0
490(12) 0.00704 495.8 8.3
471(11) 0.00732 495.5 8.6
496(12) 0.00660 495.3 8.9
496(12) 0.00617 495.0 9.1
517(12) 0.00632 494.8 9.4
497(12) 0.00698 494.5 9.7
536(12) 0.00644 494.2 10.0
491(12) 0.00680 494.0 10.3
547(13) 0.00549 493.7 10.5
507(12) 0.00659 493.4 10.8
535(12) 0.00649 493.2 11.0
521(12) 0.00657 492.9 11.3
516(12) 0.00645 492.7 11.5
551(13) 0.00563 492.4 11.7
524(13) 0.00603 492.1 11.9
513(12) 0.00680 491.9 12.0
518(12) 0.00663 491.6 12.2
551(13) 0.00595 491.3 12.4
496(12) 0.00638 491.1 12.5
488(12) 0.00673 490.8 12.6
518(12) 0.00666 490.5 12.8
485(11) 0.00714 490.3 13.0
526(12) 0.00616 490.0 13.2
500(12) 0.00636 489.8 13.5
512(12) 0.00640 489.5 13.8
511(12) 0.00684 489.2 14.2
511(12) 0.00647 489.0 14.5
511(12) 0.00639 488.7 14.9
511(12) 0.00624 488.4 15.1
514(12) 0.00649 488.2 15.1
539(12) 0.00648 487.9 14.8
495(12) 0.00676 487.7 14.2
519(12) 0.00613 487.4 13.4
504(12) 0.00649 487.1 12.6
521(12) 0.00648 486.9 11.7
512(12) 0.00679 486.6 10.9
497(12) 0.00632 486.3 10.2
484(12) 0.00636 486.1 9.6
498(12) 0.00648 485.8 9.0
537(12) 0.00631 485.6 8.5
495(11) 0.00708 485.3 8.1
505(12) 0.00659 485.0 7.7
515(12) 0.00613 484.8 7.3
508(12) 0.00637 484.5 7.0
496(12) 0.00690 484.2 6.7
523(12) 0.00669 484.0 6.4
499(12) 0.00645 483.7 6.2
515(13) 0.00594 483.5 5.9
493(12) 0.00668 483.2 5.7
508(12) 0.00685 482.9 5.5
501(12) 0.00696 482.7 5.3
500(12) 0.00657 482.4 5.1
503(12) 0.00620 482.1 4.9
505(12) 0.00656 481.9 4.8
490(12) 0.00704 481.6 4.6
467(11) 0.00738 481.4 4.4
450(11) 0.00723 481.1 4.3
487(12) 0.00626 480.8 4.1
517(12) 0.00619 480.6 4.0
504(12) 0.00686 480.3 3.9
514(12) 0.00676 480.0 3.8
510(12) 0.00641 479.8 3.7
504(12) 0.00622 479.5 3.6
475(12) 0.00684 479.2 3.5
500(12) 0.00700 479.0 3.4
507(12) 0.00674 478.7 3.3
493(12) 0.00645 478.5 3.2
484(12) 0.00652 478.2 3.1
497(12) 0.00658 477.9 3.0
465(11) 0.00753 477.7 2.9
491(12) 0.00690 477.4 2.9
490(12) 0.00653 477.1 2.8
511(12) 0.00613 476.9 2.7
457(11) 0.00713 476.6 2.7
477(11) 0.00729 476.4 2.6
482(12) 0.00688 476.1 2.6
466(12) 0.00702 475.8 2.5
469(12) 0.00683 475.6 2.5
446(11) 0.00757 475.3 2.4
474(11) 0.00731 475.0 2.4
460(11) 0.00736 474.8 2.3
512(12) 0.00617 474.5 2.3
469(12) 0.00680 474.3 2.3
477(11) 0.00713 474.0 2.2
483(11) 0.00721 473.7 2.2
461(11) 0.00710 473.5 2.1
470(12) 0.00675 473.2 2.1
515(12) 0.00622 472.9 2.1
480(11) 0.00708 472.7 2.1
460(11) 0.00753 472.4 2.0
464(11) 0.00718 472.2 2.0
497(12) 0.00636 471.9 2.0
456(11) 0.00742 471.6 1.9
491(11) 0.00710 471.4 1.9
495(12) 0.00705 471.1 1.9
482(12) 0.00656 470.8 1.9
452(12) 0.00683 470.6 1.9
477(12) 0.00680 470.3 1.8
480(11) 0.00711 470.0 1.8
486(11) 0.00716 469.8 1.8
494(12) 0.00660 469.5 1.8
499(13) 0.00601 469.3 1.8
471(12) 0.00689 469.0 1.7
451(11) 0.00767 468.7 1.7
468(11) 0.00727 468.5 1.7
449(11) 0.00713 468.2 1.7
439(12) 0.00689 467.9 1.7
476(12) 0.00680 467.7 1.7
455(11) 0.00754 467.4 1.7
485(12) 0.00707 467.2 1.6
473(12) 0.00701 466.9 1.6
452(12) 0.00702 466.6 1.6
473(12) 0.00690 466.4 1.6
447(11) 0.00773 466.1 1.6
496(12) 0.00683 465.8 1.6
465(11) 0.00708 465.6 1.6
467(12) 0.00670 465.3 1.6
466(12) 0.00689 465.1 1.6
453(11) 0.00759 464.8 1.6
443(11) 0.00760 464.5 1.6
476(12) 0.00672 464.3 1.5
480(12) 0.00661 464.0 1.5
460(11) 0.00712 463.7 1.5
472(11) 0.00738 463.5 1.5
479(12) 0.00701 463.2 1.5
457(12) 0.00708 463.0 1.5
478(12) 0.00658 462.7 1.5
474(12) 0.00681 462.4 1.5
463(11) 0.00755 462.2 1.5
482(12) 0.00678 461.9 1.5
464(12) 0.00695 461.6 1.5
460(12) 0.00693 461.4 1.5
465(12) 0.00705 461.1 1.5
482(11) 0.00727 460.9 1.5
495(12) 0.00665 460.6 1.5
505(12) 0.00635 460.3 1.5
444(11) 0.00753 460.1 1.5
436(11) 0.00769 459.8 1.5
465(11) 0.00744 459.5 1.5
510(12) 0.00644 459.3 1.5
457(12) 0.00703 459.0 1.5
462(12) 0.00698 458.7 1.5
454(11) 0.00744 458.5 1.5
470(11) 0.00746 458.2 1.5
466(12) 0.00700 458.0 1.5
463(12) 0.00672 457.7 1.5
466(11) 0.00720 457.4 1.5
474(11) 0.00718 457.2 1.5
438(11) 0.00788 456.9 1.5
474(12) 0.00696 456.6 1.5
493(12) 0.00623 456.4 1.5
481(12) 0.00693 456.1 1.5
470(11) 0.00737 455.9 1.5
461(11) 0.00754 455.6 1.5
464(11) 0.00725 455.3 1.5
488(12) 0.00619 455.1 1.5
470(12) 0.00691 454.8 1.5
422(11) 0.00827 454.5 1.5
450(11) 0.00757 454.3 1.6
466(12) 0.00701 454.0 1.6
457(12) 0.00667 453.8 1.6
471(12) 0.00676 453.6 1.6
473(11) 0.00735 453.4 1.6
458(11) 0.00742 453.2 1.6
473(12) 0.00689 453.1 1.6
470(12) 0.00652 452.9 1.6
422(11) 0.00768 452.7 1.6
418(11) 0.00823 452.5 1.7
485(12) 0.00700 452.3 1.7
421(11) 0.00764 452.2 1.7
454(12) 0.00673 452.0 1.7
437(11) 0.00741 451.8 1.7
451(11) 0.00768 451.6 1.8
473(12) 0.00700 451.4 1.8
452(12) 0.00703 451.3 1.8
466(12) 0.00657 451.1 1.8
457(11) 0.00720 450.9 1.9
454(11) 0.00762 450.7 1.9
469(12) 0.00702 450.5 1.9
438(11) 0.00723 450.4 2.0
446(11) 0.00723 450.2 2.0
421(11) 0.00798 450.0 2.0
471(11) 0.00739 449.8 2.1
468(12) 0.00705 449.6 2.1
456(12) 0.00707 449.5 2.2
458(12) 0.00697 449.3 2.2
476(11) 0.00709 449.1 2.3
466(11) 0.00742 448.9 2.3
425(11) 0.00746 448.7 2.4
480(12) 0.00643 448.6 2.5
471(12) 0.00682 448.4 2.5
441(11) 0.00754 448.2 2.6
441(11) 0.00779 448.0 2.7
448(11) 0.00741 447.8 2.8
466(12) 0.00672 447.7 2.9
474(12) 0.00686 447.5 3.0
464(11) 0.00733 447.3 3.1
472(11) 0.00728 447.1 3.3
460(12) 0.00703 447.0 3.4
448(12) 0.00697 446.8 3.6
477(12) 0.00678 446.6 3.8
444(11) 0.00778 446.4 4.0
475(11) 0.00726 446.2 4.3
455(11) 0.00717 446.1 4.6
453(12) 0.00669 445.9 4.9
462(11) 0.00719 445.7 5.3
457(11) 0.00753 445.5 5.7
441(11) 0.00783 445.3 6.2
456(12) 0.00706 445.2 6.7
460(12) 0.00665 445.0 7.4
433(11) 0.00757 444.8 8.1
439(11) 0.00791 444.6 9.0
455(11) 0.00751 444.4 9.9
447(11) 0.00730 444.3 11.0
476(12) 0.00655 444.1 12.2
497(12) 0.00639 443.9 13.5
444(11) 0.00782 443.7 15.0
457(11) 0.00747 443.5 16.5
460(11) 0.00712 443.4 18.1
456(12) 0.00695 443.2 19.7
447(11) 0.00727 443.0 21.3
433(11) 0.00796 442.8 22.7
473(12) 0.00703 442.6 23.9
464(12) 0.00699 442.5 24.7
464(12) 0.00662 442.3 25.0
459(12) 0.00685 442.1 24.9
467(11) 0.00741 441.9 24.2
482(12) 0.00702 441.7 23.2
474(12) 0.00683 441.6 21.9
438(11) 0.00725 441.4 20.3
458(11) 0.00720 441.2 18.7
470(11) 0.00734 441.0 17.1
462(12) 0.00703 440.9 15.6
470(12) 0.00666 440.7 14.1
460(12) 0.00698 440.5 12.8
474(11) 0.00719 440.3 11.5
444(11) 0.00774 440.1 10.4
445(11) 0.00739 440.0 9.5
436(11) 0.00737 439.8 8.6
445(11) 0.00732 439.6 7.8
447(11) 0.00755 439.4 7.2
453(11) 0.00766 439.2 6.6
447(11) 0.00727 439.1 6.1
454(12) 0.00671 438.9 5.7
453(12) 0.00697 438.7 5.3
455(11) 0.00741 438.5 5.0
473(11) 0.00736 438.3 4.7
457(11) 0.00723 438.2 4.5
422(11) 0.00743 438.0 4.3
477(12) 0.00666 437.8 4.1
464(11) 0.00744 437.6 3.9
442(11) 0.00781 437.4 3.8
471(12) 0.00677 437.3 3.7
457(12) 0.00654 437.1 3.6
443(11) 0.00738 436.9 3.5
467(11) 0.00745 436.7 3.4
442(11) 0.00777 436.5 3.3
430(11) 0.00776 436.4 3.2
445(12) 0.00676 436.2 3.2
436(11) 0.00739 436.0 3.2
434(11) 0.00796 435.8 3.1
444(11) 0.00775 435.7 3.1
433(11) 0.00760 435.5 3.1
485(12) 0.00631 435.3 3.0
455(12) 0.00703 435.1 3.0
436(11) 0.00799 434.9 3.0
465(11) 0.00736 434.8 3.0
450(11) 0.00714 434.6 3.0
434(11) 0.00724 434.4 3.0
467(12) 0.00667 434.2 3.0
427(11) 0.00806 434.0 3.1
449(11) 0.00751 433.9 3.1
420(11) 0.00768 433.7 3.1
437(11) 0.00724 433.5 3.1
424(11) 0.00769 433.3 3.2
470(11) 0.00740 433.1 3.2
447(11) 0.00753 433.0 3.2
441(11) 0.00752 432.8 3.3
436(11) 0.00740 432.6 3.3
449(11) 0.00713 432.4 3.4
434(11) 0.00797 432.2 3.4
430(11) 0.00774 432.1 3.5
453(11) 0.00710 431.9 3.5
422(11) 0.00765 431.7 3.6
423(11) 0.00784 431.5 3.7
443(11) 0.00777 431.3 3.7
455(11) 0.00729 431.2 3.8
435(11) 0.00711 431.0 3.9
453(12) 0.00682 430.8 3.9
453(11) 0.00738 430.6 4.0
432(11) 0.00798 430.4 4.1
416(11) 0.00766 430.3 4.1
439(12) 0.00705 430.1 4.2
435(11) 0.00758 429.9 4.3
401(10) 0.00855 429.7 4.3
426(11) 0.00799 429.6 4.4
439(11) 0.00731 429.4 4.4
429(11) 0.00735 429.2 4.5
460(11) 0.00724 429.0 4.5
426(11) 0.00808 428.8 4.5
422(11) 0.00820 428.7 4.6
451(11) 0.00729 428.5 4.6
435(11) 0.00711 428.3 4.6
425(11) 0.00755 428.1 4.6
429(11) 0.00793 427.9 4.6
440(11) 0.00781 427.8 4.6
462(12) 0.00704 427.6 4.5
443(12) 0.00692 427.4 4.5
435(11) 0.00747 427.2 4.5
434(11) 0.00788 427.0 4.4
418(11) 0.00812 426.9 4.3
418(11) 0.00774 426.7 4.3
423(11) 0.00740 426.5 4.2
426(11) 0.00775 426.3 4.2
472(11) 0.00744 426.1 4.1
423(11) 0.00809 426.0 4.0
445(11) 0.00717 425.8 3.9
433(11) 0.00737 425.6 3.8
453(11) 0.00718 425.4 3.8
434(11) 0.00790 425.2 3.7
412(11) 0.00824 425.1 3.6
443(11) 0.00737 424.9 3.5
421(11) 0.00758 424.7 3.5
437(11) 0.00733 424.5 3.4
445(11) 0.00778 424.3 3.3
418(11) 0.00805 424.2 3.2
438(11) 0.00720 424.0 3.2
427(11) 0.00755 423.8 3.1
428(11) 0.00769 423.6 3.0
426(11) 0.00816 423.5 3.0
404(11) 0.00810 423.3 2.9
429(11) 0.00732 423.1 2.8
411(11) 0.00787 422.9 2.8
462(11) 0.00715 422.7 2.7
451(11) 0.00765 422.6 2.7
411(11) 0.00818 422.4 2.6
457(12) 0.00689 422.2 2.6
441(11) 0.00718 422.0 2.5
429(11) 0.00774 421.8 2.5
466(11) 0.00746 421.7 2.4
424(11) 0.00774 421.5 2.4
435(12) 0.00696 421.3 2.3
403(11) 0.00819 421.1 2.3
415(11) 0.00828 420.9 2.3
417(11) 0.00827 420.8 2.2
446(12) 0.00707 420.6 2.2
447(12) 0.00682 420.4 2.2
436(11) 0.00752 420.2 2.1
442(11) 0.00775 420.0 2.1
421(11) 0.00825 419.9 2.1
451(12) 0.00700 419.7 2.1
424(11) 0.00730 419.5 2.0
438(11) 0.00741 419.3 2.0
437(11) 0.00788 419.1 2.0
422(11) 0.00820 419.0 2.0
420(11) 0.00755 418.8 2.0
469(12) 0.00633 418.6 2.0
454(11) 0.00710 418.4 1.9
411(11) 0.00834 418.2 1.9
426(11) 0.00797 418.1 1.9
433(11) 0.00725 417.9 1.9
402(11) 0.00745 417.7 1.9
421(11) 0.00759 417.5 1.9
416(11) 0.00835 417.4 1.9
425(11) 0.00812 417.2 1.9
415(11) 0.00784 417.0 1.8
381(11) 0.00809 416.8 1.8
424(11) 0.00765 416.6 1.8
463(11) 0.00743 416.5 1.8
430(11) 0.00797 416.3 1.8
406(11) 0.00812 416.1 1.8
432(11) 0.00737 415.9 1.8
441(11) 0.00709 415.7 1.8
411(10) 0.00840 415.6 1.8
429(11) 0.00755 415.4 1.8
429(11) 0.00753 415.2 1.8
409(11) 0.00793 415.0 1.8
433(11) 0.00746 414.8 1.8
421(11) 0.00822 414.7 1.8
427(11) 0.00747 414.5 1.8
393(11) 0.00812 414.3 1.8
428(11) 0.00753 414.1 1.8
419(11) 0.00790 413.9 1.8
393(10) 0.00871 413.8 1.8
420(11) 0.00768 413.6 1.8
442(11) 0.00721 413.4 1.8
427(11) 0.00748 413.2 1.8
442(11) 0.00768 413.0 1.8
396(10) 0.00862 412.9 1.8
432(11) 0.00754 412.7 1.8
409(11) 0.00785 412.5 1.8
410(11) 0.00786 412.3 1.8
402(11) 0.00817 412.1 1.8
427(11) 0.00811 412.0 1.8
437(12) 0.00707 411.8 1.8
412(11) 0.00745 411.6 1.8
422(11) 0.00751 411.4 1.8
428(11) 0.00790 411.3 1.8
406(10) 0.00849 411.1 1.8
409(11) 0.00804 410.9 1.8
409(11) 0.00738 410.7 1.8
404(11) 0.00793 410.5 1.8
415(11) 0.00827 410.4 1.8
406(10) 0.00855 410.2 1.9
439(11) 0.00730 410.0 1.9
410(11) 0.00756 409.8 1.9
439(11) 0.00745 409.6 1.9
430(11) 0.00801 409.5 1.9
428(11) 0.00797 409.3 1.9
404(11) 0.00814 409.1 1.9
406(11) 0.00769 408.9 1.9
435(11) 0.00740 408.7 1.9
421(11) 0.00803 408.6 1.9
412(11) 0.00819 408.4 1.9
400(11) 0.00796 408.2 1.9
429(12) 0.00696 408.0 1.9
410(11) 0.00784 407.8 2.0
417(11) 0.00821 407.7 2.0
407(11) 0.00828 407.5 2.0
412(11) 0.00762 407.3 2.0
412(11) 0.00751 407.1 2.0
400(11) 0.00784 406.9 2.0
423(11) 0.00804 406.8 2.0
413(11) 0.00816 406.6 2.0
420(11) 0.00762 406.4 2.0
430(11) 0.00737 406.2 2.1
436(11) 0.00738 406.0 2.1
404(10) 0.00848 405.9 2.1
407(11) 0.00804 405.7 2.1
435(11) 0.00713 405.5 2.1
401(11) 0.00803 405.3 2.1
397(11) 0.00835 405.2 2.1
399(10) 0.00852 405.0 2.2
405(11) 0.00818 404.8 2.2
418(11) 0.00747 404.6 2.2
424(11) 0.00758 404.4 2.2
406(11) 0.00821 404.3 2.2
391(10) 0.00877 404.1 2.2
382(11) 0.00824 403.9 2.2
401(11) 0.00775 403.7 2.3
408(11) 0.00769 403.5 2.3
415(11) 0.00795 403.4 2.3
386(10) 0.00888 403.2 2.3
398(11) 0.00801 403.0 2.3
418(11) 0.00753 402.8 2.4
420(11) 0.00761 402.6 2.4
383(10) 0.00876 402.5 2.4
418(11) 0.00831 402.3 2.4
413(11) 0.00794 402.2 2.4
391(11) 0.00775 402.2 2.5
411(11) 0.00764 402.1 2.5
397(10) 0.00866 402.0 2.5
410(11) 0.00835 401.9 2.5
418(11) 0.00779 401.8 2.6
410(11) 0.00726 401.8 2.6
423(11) 0.00742 401.7 2.6
434(11) 0.00787 401.6 2.6
402(10) 0.00861 401.5 2.7
401(11) 0.00790 401.4 2.7
400(11) 0.00765 401.4 2.7
393(11) 0.00821 401.3 2.7
403(10) 0.00841 401.2 2.8
398(10) 0.00860 401.1 2.8
379(10) 0.00864 401.0 2.8
406(11) 0.00739 401.0 2.9
420(11) 0.00762 400.9 2.9
416(11) 0.00815 400.8 2.9
420(11) 0.00823 400.7 3.0
380(11) 0.00836 400.6 3.0
408(11) 0.00746 400.6 3.0
412(11) 0.00798 400.5 3.1
385(10) 0.00886 400.4 3.1
401(10) 0.00850 400.3 3.1
410(11) 0.00811 400.2 3.2
406(11) 0.00765 400.2 3.2
405(11) 0.00785 400.1 3.3
396(10) 0.00866 400.0 3.3
405(11) 0.00803 399.9 3.4
399(11) 0.00801 399.8 3.4
394(11) 0.00783 399.7 3.5
379(10) 0.00875 399.7 3.5
403(10) 0.00865 399.6 3.5
410(11) 0.00798 399.5 3.6
422(11) 0.00759 399.4 3.7
401(11) 0.00799 399.3 3.7
407(11) 0.00798 399.3 3.8
415(11) 0.00827 399.2 3.8
375(10) 0.00858 399.1 3.9
394(11) 0.00803 399.0 4.0
418(11) 0.00765 398.9 4.0
422(11) 0.00806 398.9 4.1
425(11) 0.00819 398.8 4.2
421(11) 0.00774 398.7 4.2
407(11) 0.00739 398.6 4.3
395(11) 0.00799 398.5 4.4
399(10) 0.00859 398.5 4.5
409(10) 0.00848 398.4 4.5
410(11) 0.00786 398.3 4.6
372(11) 0.00830 398.2 4.7
396(11) 0.00838 398.1 4.8
394(10) 0.00876 398.1 4.9
409(11) 0.00838 398.0 5.0
414(11) 0.00809 397.9 5.1
408(11) 0.00765 397.8 5.2
392(10) 0.00851 397.7 5.3
422(11) 0.00819 397.7 5.5
399(10) 0.00865 397.6 5.6
416(11) 0.00774 397.5 5.7
419(11) 0.00723 397.4 5.9
437(11) 0.00729 397.3 6.0
389(10) 0.00879 397.2 6.1
416(11) 0.00814 397.2 6.3
411(11) 0.00797 397.1 6.5
413(11) 0.00756 397.0 6.6
426(11) 0.00754 396.9 6.8
429(11) 0.00812 396.8 7.0
418(11) 0.00784 396.8 7.2
392(11) 0.00830 396.7 7.4
406(11) 0.00765 396.6 7.7
392(11) 0.00814 396.5 7.9
415(11) 0.00833 396.4 8.2
414(11) 0.00811 396.4 8.4
414(11) 0.00785 396.3 8.7
423(11) 0.00754 396.2 9.1
423(11) 0.00755 396.1 9.4
415(11) 0.00832 396.0 9.7
423(11) 0.00779 396.0 10.1
385(10) 0.00840 395.9 10.5
377(10) 0.00840 395.8 11.0
389(10) 0.00856 395.7 11.4
402(10) 0.00856 395.6 12.0
398(11) 0.00829 395.6 12.5
427(11) 0.00718 395.5 13.1
402(11) 0.00775 395.4 13.8
411(11) 0.00796 395.3 14.5
409(10) 0.00839 395.2 15.3
400(10) 0.00839 395.2 16.1
397(11) 0.00793 395.1 17.1
404(11) 0.00798 395.0 18.1
406(11) 0.00807 394.9 19.3
403(10) 0.00854 394.8 20.6
406(11) 0.00771 394.7 22.1
378(10) 0.00839 394.7 23.8
444(11) 0.00715 394.6 25.8
411(11) 0.00814 394.5 28.1
419(11) 0.00825 394.4 30.7
425(11) 0.00741 394.3 33.9
426(11) 0.00716 394.3 37.6
433(11) 0.00749 394.2 42.0
445(11) 0.00764 394.1 47.2
453(11) 0.00762 394.0 53.4
475(12) 0.00683 393.9 60.7
491(12) 0.00605 393.9 69.3
477(12) 0.00679 393.8 79.3
491(12) 0.00706 393.7 90.8
502(12) 0.00688 393.6 103.9
521(12) 0.00630 393.5 118.4
592(14) 0.00506 393.5 134.1
580(13) 0.00559 393.4 150.4
599(13) 0.00590 393.3 166.5
606(13) 0.00559 393.2 181.0
602(13) 0.00538 393.1 192.1
633(14) 0.00483 393.1 198.4
640(14) 0.00509 393.0 198.7
598(13) 0.00586 392.9 193.2
606(13) 0.00564 392.8 182.8
589(13) 0.00564 392.7 169.0
612(14) 0.00495 392.7 153.5
550(13) 0.00589 392.6 137.8
538(12) 0.00641 392.5 122.7
504(12) 0.00678 392.4 108.8
479(12) 0.00698 392.3 96.4
506(12) 0.00609 392.2 85.7
492(12) 0.00654 392.2 76.5
464(11) 0.00739 392.1 68.8
464(11) 0.00717 392.0 62.5
475(12) 0.00688 391.9 57.5
472(12) 0.00679 391.8 53.7
437(11) 0.00743 391.8 51.0
462(11) 0.00746 391.7 49.2
458(11) 0.00722 391.6 48.4
444(11) 0.00720 391.5 48.4
447(11) 0.00716 391.4 49.3
470(12) 0.00701 391.4 51.0
459(11) 0.00754 391.3 53.4
493(12) 0.00649 391.2 56.6
499(12) 0.00630 391.1 60.4
484(12) 0.00653 391.0 64.7
484(12) 0.00695 391.0 69.0
476(11) 0.00731 390.9 73.0
480(12) 0.00682 390.8 76.1
494(12) 0.00642 390.7 77.7
463(11) 0.00710 390.6 77.3
487(12) 0.00701 390.6 75.1
493(11) 0.00709 390.5 71.3
472(12) 0.00688 390.4 66.6
466(12) 0.00657 390.3 61.5
434(11) 0.00766 390.2 56.5
451(11) 0.00760 390.2 51.9
438(11) 0.00783 390.1 47.8
419(11) 0.00758 390.0 44.2
439(12) 0.00706 389.9 41.2
437(11) 0.00741 389.8 38.7
445(11) 0.00776 389.7 36.7
412(11) 0.00828 389.7 35.2
407(11) 0.00781 389.6 34.0
409(11) 0.00716 389.5 33.2
417(11) 0.00779 389.4 32.7
404(10) 0.00844 389.3 32.5
428(11) 0.00806 389.3 32.4
407(11) 0.00788 389.2 32.6
405(11) 0.00757 389.1 32.9
413(11) 0.00787 389.0 33.4
405(10) 0.00853 388.9 34.0
408(11) 0.00837 388.9 34.7
418(11) 0.00779 388.8 35.6
408(11) 0.00769 388.7 36.6
432(11) 0.00770 388.6 37.8
410(10) 0.00840 388.5 39.0
426(11) 0.00792 388.5 40.4
441(11) 0.00734 388.4 42.0
422(11) 0.00728 388.3 43.7
419(11) 0.00776 388.2 45.6
399(10) 0.00860 388.1 47.7
423(11) 0.00777 388.1 50.0
462(12) 0.00691 388.0 52.5
450(11) 0.00711 387.9 55.3
422(11) 0.00758 387.8 58.4
452(11) 0.00767 387.7 61.9
430(11) 0.00756 387.7 65.7
434(11) 0.00738 387.6 70.1
453(12) 0.00703 387.5 75.2
446(11) 0.00738 387.4 81.0
473(11) 0.00736 387.3 87.9
479(12) 0.00683 387.2 96.1
470(12) 0.00682 387.2 106.0
498(12) 0.00650 387.1 118.1
509(12) 0.00678 387.0 132.7
511(12) 0.00683 386.9 150.6
549(13) 0.00599 386.8 172.4
549(13) 0.00586 386.8 198.7
606(13) 0.00535 386.7 230.1
598(13) 0.00567 386.6 266.9
677(13) 0.00525 386.5 309.4
709(14) 0.00461 386.4 357.1
769(15) 0.00416 386.4 408.6
841(16) 0.00391 386.3 461.1
861(15) 0.00409 386.2 509.7
903(16) 0.00396 386.1 548.0
912(16) 0.00364 386.0 569.3
886(16) 0.00361 386.0 569.1
925(16) 0.00360 385.9 547.1
861(15) 0.00416 385.8 508.1
813(15) 0.00441 385.7 458.6
805(15) 0.00402 385.6 405.2
709(15) 0.00434 385.6 352.7
688(14) 0.00481 385.5 304.1
639(13) 0.00548 385.4 260.7
603(13) 0.00585 385.3 222.9
619(13) 0.00535 385.2 190.7
554(13) 0.00577 385.2 163.7
575(13) 0.00570 385.1 141.2
556(12) 0.00630 385.0 122.7
518(12) 0.00651 384.9 107.6
513(12) 0.00638 384.8 95.1
498(12) 0.00634 384.7 84.9
478(12) 0.00670 384.7 76.4
474(11) 0.00734 384.6 69.4
451(11) 0.00756 384.5 63.4
471(12) 0.00697 384.4 58.3
463(12) 0.00677 384.3 53.9
464(12) 0.00693 384.3 50.1
413(11) 0.00830 384.2 46.8
416(11) 0.00796 384.1 43.8
447(11) 0.00716 384.0 41.1
410(11) 0.00797 383.9 38.8
424(11) 0.00779 383.9 36.7
420(11) 0.00820 383.8 34.8
416(11) 0.00812 383.7 33.1
406(11) 0.00790 383.6 31.5
420(11) 0.00748 383.5 30.1
417(11) 0.00789 383.5 28.8
405(10) 0.00844 383.4 27.7
390(11) 0.00833 383.3 26.6
401(11) 0.00789 383.2 25.7
391(11) 0.00828 383.1 24.8
401(11) 0.00820 383.1 24.0
420(11) 0.00816 383.0 23.3
415(11) 0.00769 382.9 22.6
419(11) 0.00746 382.8 22.0
392(11) 0.00819 382.7 21.5
400(11) 0.00825 382.7 21.0
399(10) 0.00858 382.6 20.6
400(11) 0.00813 382.5 20.2
422(11) 0.00724 382.4 19.9
410(11) 0.00782 382.3 19.6
402(11) 0.00821 382.2 19.3
405(10) 0.00849 382.2 19.1
412(11) 0.00771 382.1 18.9
392(11) 0.00791 382.0 18.7
397(11) 0.00829 381.9 18.6
414(11) 0.00810 381.8 18.6
396(10) 0.00875 381.8 18.5
392(11) 0.00820 381.7 18.5
429(12) 0.00672 381.6 18.5
410(11) 0.00775 381.5 18.6
387(10) 0.00893 381.4 18.7
372(10) 0.00924 381.4 18.8
422(11) 0.00742 381.3 19.0
407(11) 0.00740 381.2 19.2
384(10) 0.00857 381.1 19.5
404(10) 0.00858 381.0 19.8
406(11) 0.00835 381.0 20.1
418(11) 0.00771 380.9 20.5
381(11) 0.00818 380.8 21.0
406(11) 0.00778 380.7 21.5
428(11) 0.00803 380.6 22.0
397(10) 0.00857 380.6 22.7
405(11) 0.00788 380.5 23.4
417(11) 0.00750 380.4 24.2
427(11) 0.00741 380.3 25.1
400(10) 0.00854 380.2 26.1
427(11) 0.00784 380.2 27.3
391(11) 0.00826 380.1 28.5
412(11) 0.00755 380.0 30.0
406(11) 0.00782 379.9 31.6
425(11) 0.00808 379.8 33.4
427(11) 0.00767 379.7 35.5
393(11) 0.00816 379.7 37.8
441(12) 0.00700 379.6 40.4
413(11) 0.00788 379.5 43.3
451(11) 0.00767 379.4 46.6
449(11) 0.00740 379.3 50.3
458(12) 0.00682 379.3 54.5
457(12) 0.00695 379.2 59.1
448(11) 0.00723 379.1 64.3
458(11) 0.00760 379.0 70.0
454(11) 0.00714 378.9 76.4
452(12) 0.00708 378.9 83.3
490(12) 0.00666 378.8 90.9
480(11) 0.00713 378.7 99.1
467(11) 0.00747 378.6 107.8
493(12) 0.00667 378.5 117.0
531(13) 0.00590 378.5 126.5
518(12) 0.00623 378.4 136.0
531(12) 0.00644 378.3 145.4
514(12) 0.00681 378.2 154.2
527(12) 0.00630 378.1 161.9
548(13) 0.00575 378.1 168.1
543(13) 0.00601 378.0 172.3
599(13) 0.00585 377.9 174.3
553(12) 0.00628 377.8 173.8
587(13) 0.00551 377.7 170.9
571(13) 0.00542 377.7 165.7
573(13) 0.00574 377.6 158.8
540(12) 0.00634 377.5 150.6
513(12) 0.00680 377.4 141.5
517(12) 0.00623 377.3 131.9
519(13) 0.00585 377.2 122.2
495(12) 0.00683 377.2 112.7
472(11) 0.00733 377.1 103.6
464(11) 0.00742 377.0 95.0
464(11) 0.00710 376.9 87.0
428(12) 0.00697 376.8 79.6
452(12) 0.00697 376.8 72.8
437(11) 0.00796 376.7 66.6
458(11) 0.00726 376.6 61.0
423(11) 0.00745 376.5 55.9
399(11) 0.00767 376.4 51.3
398(11) 0.00784 376.4 47.3
410(11) 0.00831 376.3 43.6
405(11) 0.00820 376.2 40.3
408(11) 0.00780 376.1 37.4
398(11) 0.00795 376.0 34.8
417(11) 0.00739 376.0 32.5
394(10) 0.00864 375.9 30.4
377(10) 0.00883 375.8 28.6
370(11) 0.00836 375.7 26.9
376(11) 0.00832 375.6 25.4
405(11) 0.00787 375.6 24.1
401(10) 0.00860 375.5 22.9
380(10) 0.00852 375.4 21.7
401(11) 0.00791 375.3 20.7
394(11) 0.00818 375.2 19.8
368(10) 0.00886 375.2 19.0
370(10) 0.00917 375.1 18.2
382(10) 0.00855 375.0 17.5
373(10) 0.00840 374.9 16.8
396(11) 0.00797 374.8 16.2
390(10) 0.00855 374.7 15.6
366(10) 0.00933 374.7 15.1
332(10) 0.00980 374.6 14.6
358(11) 0.00838 374.5 14.2
348(10) 0.00869 374.4 13.8
372(10) 0.00890 374.3 13.4
384(10) 0.00883 374.3 13.0
358(10) 0.00864 374.2 12.6
380(11) 0.00804 374.1 12.3
376(10) 0.00864 374.0 12.0
391(10) 0.00860 373.9 11.7
387(10) 0.00887 373.9 11.5
394(11) 0.00813 373.8 11.2
405(11) 0.00756 373.7 11.0
409(11) 0.00784 373.6 10.7
376(10) 0.00919 373.5 10.5
377(10) 0.00890 373.5 10.3
395(11) 0.00824 373.4 10.2
376(11) 0.00822 373.3 10.0
374(10) 0.00862 373.2 9.8
380(10) 0.00901 373.1 9.7
387(10) 0.00869 373.1 9.5
376(10) 0.00851 373.0 9.4
358(10) 0.00852 372.9 9.3
377(11) 0.00828 372.8 9.2
379(10) 0.00903 372.7 9.1
379(10) 0.00870 372.7 9.0
344(10) 0.00925 372.6 8.9
372(11) 0.00822 372.5 8.8
374(10) 0.00857 372.4 8.7
397(10) 0.00851 372.3 8.6
399(11) 0.00837 372.2 8.6
361(10) 0.00889 372.2 8.5
366(10) 0.00855 372.1 8.4
395(11) 0.00820 372.0 8.4
369(10) 0.00930 371.9 8.4
391(10) 0.00856 371.8 8.3
362(10) 0.00875 371.8 8.3
375(11) 0.00827 371.7 8.3
383(10) 0.00847 371.6 8.3
363(10) 0.00934 371.5 8.2
354(10) 0.00925 371.4 8.2
393(11) 0.00804 371.4 8.2
369(10) 0.00884 371.3 8.2
399(10) 0.00849 371.2 8.2
397(10) 0.00861 371.1 8.2
361(10) 0.00904 371.0 8.3
394(11) 0.00801 371.0 8.3
369(10) 0.00856 370.9 8.3
348(10) 0.00930 370.8 8.3
361(10) 0.00950 370.7 8.4
355(10) 0.00898 370.6 8.4
380(11) 0.00807 370.6 8.5
397(11) 0.00792 370.4 8.6
373(10) 0.00887 370.3 8.6
372(10) 0.00914 370.2 8.7
362(10) 0.00883 370.0 8.8
357(10) 0.00881 369.9 8.9
394(11) 0.00813 369.8 9.0
382(10) 0.00893 369.7 9.2
354(10) 0.00956 369.5 9.3
396(11) 0.00805 369.4 9.5
355(10) 0.00872 369.3 9.7
388(11) 0.00807 369.2 9.9
354(10) 0.00954 369.0 10.2
364(10) 0.00941 368.9 10.5
375(10) 0.00864 368.8 10.8
392(11) 0.00777 368.6 11.2
378(10) 0.00858 368.5 11.7
404(11) 0.00832 368.4 12.4
390(10) 0.00882 368.3 13.2
333(10) 0.00975 368.1 14.2
367(11) 0.00809 368.0 15.6
393(11) 0.00807 367.9 17.5
379(10) 0.00903 367.7 20.0
351(10) 0.00976 367.6 23.3
384(10) 0.00849 367.5 27.4
377(11) 0.00794 367.4 32.2
379(11) 0.00838 367.2 37.6
365(10) 0.00927 367.1 43.0
405(10) 0.00844 367.0 47.2
394(11) 0.00811 366.8 49.1
409(11) 0.00768 366.7 47.9
400(11) 0.00814 366.6 44.2
401(10) 0.00851 366.5 39.2
385(10) 0.00874 366.3 34.0
380(10) 0.00849 366.2 29.4
361(10) 0.00891 366.1 25.5
372(10) 0.00851 366.0 22.5
368(10) 0.00920 365.8 20.2
378(10) 0.00866 365.7 18.5
391(11) 0.00793 365.6 17.4
383(11) 0.00838 365.4 16.6
378(10) 0.00843 365.3 16.1
350(10) 0.00974 365.2 15.8
364(10) 0.00889 365.1 15.6
372(10) 0.00858 364.9 15.5
374(10) 0.00841 364.8 15.5
355(10) 0.00909 364.7 15.6
382(10) 0.00893 364.5 15.7
380(10) 0.00848 364.4 15.8
374(10) 0.00875 364.3 16.0
383(10) 0.00847 364.2 16.2
381(10) 0.00894 364.0 16.5
380(10) 0.00896 363.9 16.7
357(10) 0.00887 363.8 17.0
386(11) 0.00798 363.6 17.4
380(11) 0.00835 363.5 17.7
373(10) 0.00875 363.4 18.1
383(10) 0.00893 363.3 18.5
393(11) 0.00807 363.1 18.9
373(11) 0.00806 363.0 19.4
350(10) 0.00904 362.9 19.9
368(10) 0.00907 362.7 20.4
395(10) 0.00860 362.6 21.0
371(10) 0.00856 362.5 21.6
356(11) 0.00804 362.4 22.2
357(10) 0.00898 362.2 22.9
379(10) 0.00879 362.1 23.6
387(10) 0.00882 362.0 24.4
393(11) 0.00799 361.9 25.2
371(11) 0.00804 361.7 26.0
347(10) 0.00925 361.6 26.9
373(10) 0.00918 361.5 27.9
403(10) 0.00844 361.3 28.9
398(11) 0.00802 361.2 30.0
385(11) 0.00774 361.1 31.2
399(11) 0.00768 361.0 32.5
391(10) 0.00879 360.8 33.8
373(10) 0.00897 360.7 35.2
383(11) 0.00830 360.6 36.8
387(11) 0.00765 360.4 38.4
401(11) 0.00787 360.3 40.1
393(10) 0.00868 360.2 41.9
424(11) 0.00779 360.1 43.9
415(11) 0.00770 359.9 45.9
418(11) 0.00746 359.8 48.1
413(11) 0.00797 359.7 50.3
397(10) 0.00860 359.5 52.7
415(11) 0.00808 359.4 55.2
422(11) 0.00789 359.3 57.7
438(12) 0.00706 359.2 60.3
422(11) 0.00732 359.0 62.9
422(11) 0.00817 358.9 65.6
424(11) 0.00770 358.8 68.1
432(11) 0.00741 358.7 70.6
438(11) 0.00728 358.5 72.9
470(12) 0.00686 358.4 75.0
440(11) 0.00779 358.3 76.7
424(11) 0.00752 358.1 78.1
429(11) 0.00732 358.0 79.1
445(11) 0.00731 357.9 79.6
447(11) 0.00754 357.8 79.6
439(11) 0.00784 357.6 79.1
448(11) 0.00726 357.5 78.3
424(11) 0.00734 357.4 77.0
416(11) 0.00780 357.2 75.4
443(11) 0.00777 357.1 73.5
426(11) 0.00804 357.0 71.4
409(11) 0.00801 356.9 69.2
432(11) 0.00730 356.7 67.0
400(11) 0.00837 356.6 64.7
431(11) 0.00788 356.5 62.4
428(11) 0.00819 356.3 60.2
411(11) 0.00782 356.2 58.1
417(11) 0.00721 356.1 56.1
407(11) 0.00815 356.0 54.2
411(10) 0.00842 355.8 52.4
393(10) 0.00856 355.7 50.8
405(11) 0.00779 355.6 49.3
398(11) 0.00756 355.4 48.0
404(11) 0.00791 355.3 46.8
389(10) 0.00879 355.2 45.7
383(10) 0.00892 355.1 44.7
399(11) 0.00800 354.9 43.9
418(12) 0.00699 354.8 43.3
402(11) 0.00821 354.7 42.7
392(10) 0.00868 354.6 42.3
415(11) 0.00835 354.4 42.0
393(10) 0.00845 354.3 41.9
378(11) 0.00823 354.2 41.8
391(11) 0.00834 354.0 41.9
391(10) 0.00873 353.9 42.1
374(10) 0.00908 353.8 42.5
383(11) 0.00835 353.7 43.0
390(11) 0.00787 353.5 43.6
379(11) 0.00833 353.4 44.3
378(10) 0.00898 353.3 45.2
364(10) 0.00905 353.1 46.3
406(11) 0.00783 353.0 47.5
406(11) 0.00773 352.9 48.9
390(11) 0.00833 352.8 50.5
387(10) 0.00885 352.6 52.2
372(10) 0.00881 352.5 54.3
374(10) 0.00856 352.4 56.5
418(11) 0.00779 352.2 59.0
411(11) 0.00789 352.1 61.8
388(10) 0.00880 352.0 64.9
430(11) 0.00762 351.9 68.4
438(11) 0.00710 351.7 72.2
412(11) 0.00789 351.6 76.4
474(12) 0.00704 351.5 81.1
405(10) 0.00845 351.4 86.2
435(11) 0.00734 351.2 91.8
420(11) 0.00742 351.1 98.0
446(11) 0.00727 351.0 104.7
483(12) 0.00699 350.8 112.0
493(11) 0.00712 350.7 119.9
476(12) 0.00677 350.6 128.4
483(12) 0.00636 350.5 137.6
483(12) 0.00681 350.3 147.4
461(11) 0.00746 350.2 157.9
519(12) 0.00672 350.1 168.9
496(12) 0.00661 349.9 180.5
530(13) 0.00572 349.8 192.5
526(12) 0.00628 349.7 204.7
576(13) 0.00602 349.6 216.9
586(13) 0.00599 349.4 229.0
591(13) 0.00561 349.3 240.6
592(14) 0.00517 349.2 251.3
559(13) 0.00600 349.0 260.9
555(12) 0.00633 348.9 268.9
629(13) 0.00558 348.8 275.2
574(13) 0.00589 348.7 279.3
566(13) 0.00549 348.5 281.3
568(13) 0.00573 348.4 281.2
556(12) 0.00620 348.3 278.9
578(13) 0.00602 348.1 274.7
551(13) 0.00597 348.0 268.8
547(13) 0.00575 347.9 261.4
551(13) 0.00582 347.8 252.7
517(12) 0.00674 347.6 243.1
528(12) 0.00659 347.5 232.5
519(12) 0.00639 347.4 221.3
504(12) 0.00634 347.3 209.6
508(12) 0.00618 347.1 197.6
496(12) 0.00700 347.0 185.6
505(12) 0.00677 346.9 173.6
492(12) 0.00663 346.7 161.9
485(12) 0.00657 346.6 150.7
438(11) 0.00747 346.5 140.0
436(11) 0.00796 346.4 129.9
484(12) 0.00692 346.2 120.4
469(12) 0.00682 346.1 111.6
420(11) 0.00756 346.0 103.4
414(11) 0.00773 345.8 95.9
432(11) 0.00799 345.7 89.1
440(11) 0.00758 345.6 82.8
410(11) 0.00784 345.5 77.0
391(11) 0.00834 345.3 71.8
400(10) 0.00839 345.2 67.0
399(10) 0.00862 345.1 62.7
391(11) 0.00834 344.9 58.7
395(11) 0.00777 344.8 55.1
409(11) 0.00773 344.7 51.9
389(10) 0.00861 344.6 48.9
396(10) 0.00854 344.4 46.2
376(10) 0.00863 344.3 43.7
387(11) 0.00795 344.2 41.5
362(10) 0.00901 344.1 39.4
393(10) 0.00850 343.9 37.5
363(10) 0.00940 343.8 35.8
389(11) 0.00818 343.7 34.2
385(11) 0.00792 343.5 32.7
377(10) 0.00869 343.4 31.3
366(10) 0.00929 343.3 30.0
371(10) 0.00920 343.2 28.8
373(10) 0.00858 343.0 27.7
388(11) 0.00766 342.9 26.7
363(10) 0.00874 342.8 25.7
365(10) 0.00926 342.6 24.8
353(10) 0.00969 342.5 23.9
353(10) 0.00916 342.4 23.1
380(11) 0.00777 342.3 22.4
373(10) 0.00841 342.1 21.6
377(10) 0.00894 342.0 21.0
356(10) 0.00932 341.9 20.3
367(10) 0.00877 341.7 19.7
353(10) 0.00890 341.6 19.2
394(11) 0.00818 341.5 18.6
363(10) 0.00934 341.4 18.1
356(10) 0.00947 341.2 17.7
356(10) 0.00895 341.1 17.2
353(10) 0.00848 341.0 16.8
360(10) 0.00883 340.8 16.4
358(10) 0.00955 340.7 16.0
363(10) 0.00914 340.6 15.7
358(10) 0.00880 340.5 15.3
333(10) 0.00933 340.3 15.0
318(9) 0.01008 340.2 14.7
361(10) 0.00942 340.1 14.4
371(10) 0.00872 340.0 14.2
355(10) 0.00865 339.8 13.9
348(10) 0.00907 339.7 13.7
348(10) 0.00906 339.6 13.5
349(10) 0.00974 339.4 13.3
351(10) 0.00909 339.3 13.1
362(10) 0.00852 339.2 13.0
363(10) 0.00891 339.1 12.8
361(10) 0.00900 338.9 12.7
331(9) 0.01023 338.8 12.6
344(10) 0.00936 338.7 12.5
350(10) 0.00885 338.5 12.5
356(10) 0.00886 338.4 12.4
345(10) 0.00968 338.3 12.4
337(10) 0.01002 338.2 12.4
335(10) 0.00936 338.0 12.4
335(10) 0.00930 337.9 12.4
363(10) 0.00874 337.8 12.5
348(10) 0.00922 337.6 12.6
347(10) 0.00983 337.5 12.7
331(10) 0.00964 337.4 12.8
341(10) 0.00917 337.3 12.9
344(10) 0.00938 337.1 13.1
368(10) 0.00900 337.0 13.3
357(10) 0.00958 336.9 13.5
351(10) 0.00914 336.8 13.7
338(10) 0.00890 336.6 13.9
342(10) 0.00915 336.5 14.2
350(10) 0.00981 336.4 14.4
331(9) 0.01030 336.2 14.7
353(10) 0.00914 336.1 15.0
357(11) 0.00833 336.0 15.3
375(10) 0.00849 335.9 15.5
331(9) 0.01012 335.7 15.8
346(10) 0.00987 335.6 16.0
308(10) 0.01004 335.5 16.2
334(10) 0.00857 335.3 16.4
373(10) 0.00856 335.2 16.5
356(10) 0.00949 335.1 16.5
358(10) 0.00934 335.0 16.5
324(10) 0.00977 334.8 16.4
334(10) 0.00892 334.7 16.3
331(10) 0.00951 334.6 16.1
312(9) 0.01075 334.4 15.8
326(9) 0.01027 334.3 15.5
346(10) 0.00938 334.2 15.1
343(10) 0.00918 334.1 14.7
347(10) 0.00916 333.9 14.3
344(10) 0.00982 333.8 13.9
335(10) 0.00963 333.7 13.5
324(10) 0.00973 333.5 13.0
334(10) 0.00940 333.4 12.6
359(10) 0.00884 333.3 12.2
377(10) 0.00910 333.2 11.8
350(10) 0.00925 333.0 11.4
337(10) 0.00923 332.9 11.0
337(10) 0.00953 332.8 10.6
330(10) 0.00968 332.7 10.3
359(10) 0.00946 332.5 10.0
307(9) 0.01058 332.4 9.7
346(10) 0.00900 332.3 9.4
337(10) 0.00927 332.1 9.1
308(9) 0.01068 332.0 8.8
343(10) 0.00986 331.9 8.6
364(10) 0.00853 331.8 8.4
342(10) 0.00878 331.6 8.2
362(10) 0.00843 331.5 8.0
332(9) 0.01008 331.4 7.8
337(10) 0.00997 331.3 7.7
342(10) 0.00931 331.2 7.5
330(10) 0.00943 331.1 7.4
356(10) 0.00890 331.0 7.3
349(10) 0.00960 330.8 7.1
340(10) 0.01006 330.7 7.0
347(10) 0.00914 330.6 6.9
315(10) 0.00943 330.5 6.8
300(9) 0.01093 330.4 6.8
326(9) 0.01019 330.3 6.7
333(9) 0.01019 330.2 6.6
311(9) 0.01019 330.1 6.6
345(10) 0.00848 330.0 6.5
356(10) 0.00877 329.9 6.5
312(9) 0.01079 329.8 6.4
348(10) 0.00961 329.7 6.4
331(10) 0.00961 329.6 6.4
338(10) 0.00872 329.5 6.4
356(10) 0.00891 329.4 6.3
341(10) 0.00986 329.3 6.3
325(9) 0.01034 329.2 6.3
329(10) 0.00967 329.1 6.3
326(10) 0.00933 329.0 6.3
330(10) 0.00962 328.9 6.3
323(9) 0.01055 328.8 6.3
354(10) 0.00914 328.7 6.3
327(10) 0.00949 328.6 6.4
334(10) 0.00912 328.4 6.4
336(10) 0.00925 328.3 6.4
322(9) 0.01036 328.2 6.5
330(10) 0.00989 328.1 6.5
363(10) 0.00871 328.0 6.5
367(11) 0.00830 327.9 6.6
315(9) 0.01010 327.8 6.7
337(10) 0.01002 327.7 6.7
331(10) 0.00983 327.6 6.8
329(10) 0.00908 327.5 6.9
325(10) 0.00940 327.4 7.0
362(10) 0.00904 327.3 7.0
340(10) 0.00997 327.2 7.1
356(10) 0.00892 327.1 7.3
343(10) 0.00918 327.0 7.4
344(10) 0.00914 326.9 7.5
328(10) 0.00988 326.8 7.6
330(9) 0.01029 326.7 7.8
350(10) 0.00907 326.6 8.0
336(10) 0.00884 326.5 8.1
325(10) 0.00967 326.4 8.3
330(9) 0.01019 326.3 8.5
335(10) 0.00999 326.2 8.7
325(10) 0.00974 326.0 9.0
329(10) 0.00946 325.9 9.2
332(10) 0.01003 325.8 9.5
342(10) 0.00973 325.7 9.8
328(9) 0.01031 325.6 10.1
329(10) 0.00996 325.5 10.4
345(10) 0.00881 325.4 10.8
338(10) 0.00940 325.3 11.1
328(9) 0.01012 325.2 11.5
336(10) 0.01006 325.1 11.9
316(9) 0.01028 325.0 12.4
306(10) 0.00998 324.9 12.9
335(10) 0.00969 324.8 13.4
354(10) 0.00953 324.7 13.9
320(9) 0.01053 324.6 14.5
341(10) 0.00934 324.5 15.1
359(10) 0.00840 324.4 15.7
338(10) 0.00962 324.3 16.4
327(9) 0.01028 324.2 17.1
363(10) 0.00931 324.1 17.8
333(10) 0.00964 324.0 18.5
307(10) 0.00980 323.9 19.3
349(10) 0.00888 323.8 20.1
345(10) 0.00981 323.6 21.0
350(10) 0.00942 323.5 21.8
346(10) 0.00890 323.4 22.7
326(10) 0.00960 323.3 23.6
376(11) 0.00835 323.2 24.4
365(10) 0.00933 323.1 25.3
363(10) 0.00883 323.0 26.2
339(10) 0.00932 322.9 27.0
348(10) 0.00870 322.8 27.8
350(10) 0.00884 322.7 28.5
340(10) 0.00985 322.6 29.2
338(10) 0.00949 322.5 29.8
360(10) 0.00873 322.4 30.3
359(10) 0.00865 322.3 30.7
374(10) 0.00865 322.2 31.0
369(10) 0.00923 322.1 31.2
367(10) 0.00844 322.0 31.2
358(11) 0.00834 321.9 31.1
337(10) 0.00936 321.8 31.0
353(10) 0.00936 321.7 30.6
348(10) 0.00970 321.6 30.2
339(10) 0.00922 321.5 29.7
338(10) 0.00917 321.4 29.1
351(10) 0.00916 321.3 28.4
362(10) 0.00911 321.1 27.7
363(10) 0.00926 321.0 26.9
332(10) 0.00916 320.9 26.0
334(10) 0.00908 320.8 25.2
334(10) 0.00946 320.7 24.3
309(9) 0.01062 320.6 23.5
328(9) 0.01016 320.5 22.6
330(10) 0.00960 320.4 21.8
333(10) 0.00881 320.3 20.9
317(10) 0.00978 320.2 20.1
310(9) 0.01050 320.1 19.3
341(10) 0.00996 320.0 18.6
341(10) 0.00939 319.9 17.8
326(10) 0.00910 319.8 17.1
328(10) 0.00926 319.7 16.5
311(9) 0.01073 319.6 15.8
324(9) 0.01047 319.5 15.2
304(9) 0.01061 319.4 14.7
328(10) 0.00894 319.3 14.1
358(10) 0.00868 319.2 13.6
290(9) 0.01153 319.1 13.1
297(9) 0.01128 319.0 12.7
333(10) 0.00946 318.9 12.3
350(10) 0.00843 318.7 11.9
324(10) 0.00994 318.6 11.5
300(9) 0.01108 318.5 11.2
319(9) 0.01040 318.4 10.9
314(10) 0.01005 318.3 10.6
322(10) 0.00963 318.2 10.3
342(10) 0.00925 318.1 10.1
318(9) 0.01066 318.0 9.8
326(10) 0.00989 317.9 9.6
339(10) 0.00918 317.8 9.4
335(10) 0.00935 317.7 9.2
328(10) 0.00965 317.6 9.1
335(9) 0.01016 317.5 8.9
310(9) 0.01038 317.4 8.8
315(9) 0.01023 317.3 8.7
304(9) 0.01039 317.2 8.6
321(10) 0.00998 317.1 8.5
347(10) 0.00977 317.0 8.4
322(10) 0.01007 316.9 8.4
328(10) 0.00960 316.8 8.3
328(10) 0.00956 316.7 8.2
303(9) 0.01085 316.6 8.2
304(9) 0.01092 316.5 8.2
283(9) 0.01131 316.3 8.2
316(10) 0.00959 316.2 8.1
317(10) 0.00979 316.1 8.1
314(9) 0.01042 316.0 8.1
333(10) 0.01003 315.9 8.1
287(9) 0.01108 315.8 8.2
313(10) 0.00955 315.7 8.2
325(10) 0.00962 315.6 8.2
327(9) 0.01027 315.5 8.2
327(9) 0.01027 315.4 8.3
345(10) 0.00919 315.3 8.3
325(10) 0.00923 315.2 8.3
316(10) 0.00982 315.1 8.4
326(9) 0.01019 315.0 8.4
316(9) 0.01065 314.9 8.5
318(10) 0.00976 314.8 8.5
327(10) 0.00923 314.7 8.6
341(10) 0.00919 314.6 8.6
341(10) 0.00977 314.5 8.6
319(9) 0.01049 314.4 8.7
310(9) 0.01037 314.3 8.7
329(10) 0.00902 314.2 8.8
308(9) 0.01037 314.1 8.8
312(9) 0.01065 314.0 8.8
300(9) 0.01127 313.8 8.9
326(10) 0.00977 313.7 8.9
333(10) 0.00889 313.6 8.9
328(10) 0.00954 313.5 8.9
339(10) 0.00996 313.4 8.9
314(9) 0.01059 313.3 8.9
333(10) 0.00958 313.2 8.9
323(10) 0.00964 313.1 8.9
323(10) 0.00977 313.0 8.8
319(9) 0.01057 312.9 8.8
323(10) 0.00986 312.8 8.7
304(9) 0.01026 312.7 8.7
317(10) 0.00966 312.6 8.6
340(10) 0.00923 312.5 8.6
307(9) 0.01090 312.4 8.5
310(9) 0.01046 312.3 8.4
343(10) 0.00919 312.2 8.3
326(10) 0.00952 312.1 8.2
336(10) 0.00951 312.0 8.1
334(9) 0.01018 311.9 8.0
331(10) 0.00951 311.8 7.9
313(10) 0.00970 311.7 7.8
316(10) 0.00974 311.6 7.7
319(9) 0.01014 311.4 7.5
330(9) 0.01014 311.3 7.4
330(10) 0.00990 311.2 7.3
322(10) 0.00968 311.1 7.2
306(9) 0.01042 311.0 7.1
334(10) 0.00979 310.9 6.9
335(9) 0.01013 310.8 6.8
306(10) 0.00984 310.7 6.7
318(10) 0.00971 310.6 6.5
330(10) 0.00962 310.5 6.4
313(9) 0.01066 310.4 6.3
333(9) 0.01016 310.3 6.2
323(10) 0.00987 310.2 6.1
308(10) 0.00991 310.1 5.9
332(10) 0.00937 310.0 5.8
315(9) 0.01060 309.9 5.7
329(9) 0.01023 309.8 5.6
329(10) 0.00969 309.7 5.5
318(10) 0.00957 309.6 5.4
324(10) 0.00984 309.5 5.3
318(9) 0.01049 309.4 5.2
295(9) 0.01141 309.3 5.1
323(10) 0.00984 309.2 5.0
328(10) 0.00893 309.2 4.9
313(9) 0.01014 309.1 4.8
317(9) 0.01063 309.1 4.7
333(10) 0.01007 309.0 4.6
317(10) 0.00980 309.0 4.5
327(10) 0.00901 308.9 4.4
319(9) 0.01019 308.8 4.4
299(9) 0.01110 308.8 4.3
298(9) 0.01123 308.7 4.2
287(9) 0.01107 308.7 4.1
315(10) 0.00928 308.6 4.1
295(9) 0.01064 308.6 4.0
302(9) 0.01107 308.5 3.9
311(9) 0.01069 308.5 3.9
319(10) 0.00972 308.4 3.8
305(10) 0.00974 308.4 3.7
313(10) 0.00968 308.3 3.7
321(9) 0.01047 308.2 3.6
313(9) 0.01061 308.2 3.6
330(10) 0.00952 308.1 3.5
313(10) 0.00994 308.1 3.5
324(10) 0.00962 308.0 3.4
315(9) 0.01068 308.0 3.4
321(9) 0.01015 307.9 3.3
324(10) 0.00905 307.9 3.3
303(10) 0.00956 307.8 3.3
292(9) 0.01097 307.8 3.2
313(9) 0.01064 307.7 3.2
313(9) 0.01027 307.6 3.1
308(10) 0.01004 307.6 3.1
306(9) 0.01040 307.5 3.1
313(9) 0.01051 307.5 3.0
312(9) 0.01068 307.4 3.0
302(9) 0.01057 307.4 3.0
322(10) 0.00930 307.3 3.0
318(10) 0.00959 307.3 2.9
316(9) 0.01010 307.2 2.9
315(9) 0.01065 307.2 2.9
315(9) 0.01012 307.1 2.9
312(10) 0.00957 307.0 2.8
301(9) 0.01064 307.0 2.8
330(10) 0.00988 306.9 2.8
316(9) 0.01068 306.9 2.8
292(9) 0.01097 306.8 2.8
317(10) 0.00945 306.8 2.7
313(9) 0.01017 306.7 2.7
334(9) 0.01008 306.7 2.7
319(9) 0.01054 306.6 2.7
328(10) 0.00975 306.6 2.7
322(10) 0.00900 306.5 2.7
298(9) 0.01034 306.4 2.7
305(9) 0.01082 306.4 2.7
304(9) 0.01078 306.3 2.6
294(9) 0.01067 306.3 2.6
295(10) 0.00997 306.2 2.6
320(9) 0.01018 306.2 2.6
315(9) 0.01061 306.1 2.6
304(9) 0.01100 306.1 2.6
329(10) 0.00920 306.0 2.6
324(10) 0.00909 306.0 2.6
307(9) 0.01020 305.9 2.6
327(9) 0.01018 305.8 2.6
317(9) 0.01048 305.8 2.6
308(9) 0.01016 305.7 2.6
292(9) 0.01026 305.7 2.6
309(9) 0.01034 305.6 2.6
320(9) 0.01049 305.6 2.6
305(9) 0.01066 305.5 2.6
283(9) 0.01113 305.5 2.7
293(9) 0.01043 305.4 2.7
297(9) 0.01050 305.4 2.7
311(9) 0.01075 305.3 2.7
310(9) 0.01027 305.2 2.7
297(9) 0.01060 305.2 2.7
300(9) 0.01014 305.1 2.8
303(9) 0.01057 305.1 2.8
287(9) 0.01162 305.0 2.8
282(9) 0.01158 305.0 2.8
291(9) 0.01065 304.9 2.9
288(9) 0.01061 304.9 2.9
296(9) 0.01040 304.8 2.9
297(9) 0.01130 304.8 3.0
324(10) 0.00986 304.7 3.0
302(9) 0.01046 304.6 3.1
322(10) 0.00948 304.6 3.1
312(9) 0.01009 304.5 3.2
302(9) 0.01106 304.5 3.3
319(10) 0.00999 304.4 3.3
310(10) 0.00978 304.4 3.4
299(9) 0.01070 304.3 3.5
314(9) 0.01033 304.3 3.6
309(9) 0.01084 304.2 3.7
302(9) 0.01022 304.2 3.8
290(9) 0.01021 304.1 4.0
287(9) 0.01102 304.1 4.1
315(9) 0.01039 304.0 4.3
316(9) 0.01052 303.9 4.5
319(10) 0.01003 303.9 4.8
303(10) 0.01004 303.8 5.1
324(10) 0.00959 303.8 5.4
330(9) 0.01019 303.7 5.8
305(9) 0.01097 303.7 6.2
290(9) 0.01045 303.6 6.7
300(10) 0.00947 303.6 7.4
308(9) 0.01033 303.5 8.1
306(9) 0.01097 303.5 9.0
319(9) 0.01035 303.4 10.0
309(9) 0.01039 303.3 11.1
332(10) 0.00869 303.3 12.5
314(10) 0.01001 303.2 14.0
319(9) 0.01059 303.2 15.7
326(9) 0.01023 303.1 17.5
307(9) 0.01054 303.1 19.5
329(10) 0.00912 303.0 21.4
318(10) 0.01000 303.0 23.1
297(9) 0.01129 302.9 24.5
310(9) 0.01079 302.9 25.4
316(9) 0.01015 302.8 25.7
317(10) 0.00982 302.7 25.2
308(9) 0.01044 302.7 24.1
317(9) 0.01062 302.6 22.6
319(9) 0.01023 302.6 20.8
327(10) 0.00963 302.5 18.9
322(10) 0.00955 302.5 17.0
304(9) 0.01020 302.4 15.3
305(9) 0.01095 302.4 13.7
306(9) 0.01057 302.3 12.3
311(9) 0.01021 302.3 11.0
311(9) 0.01031 302.2 9.9
302(9) 0.01085 302.1 9.0
288(9) 0.01164 302.1 8.3
301(9) 0.01080 302.0 7.6
305(10) 0.00985 302.0 7.1
288(9) 0.01103 301.9 6.6
313(9) 0.01048 301.9 6.2
299(9) 0.01120 301.8 5.9
300(9) 0.01024 301.8 5.6
302(10) 0.00981 301.7 5.4
310(10) 0.00994 301.7 5.2
292(9) 0.01120 301.6 5.1
296(9) 0.01145 301.5 5.0
291(9) 0.01062 301.5 4.9
305(10) 0.00966 301.4 4.8
291(9) 0.01102 301.4 4.7
299(9) 0.01116 301.3 4.7
322(9) 0.01038 301.3 4.7
269(9) 0.01194 301.2 4.6
289(9) 0.01057 301.2 4.6
311(9) 0.01035 301.1 4.6
299(9) 0.01108 301.1 4.6
314(9) 0.01042 301.0 4.7
286(9) 0.01108 300.9 4.7
284(9) 0.01062 300.9 4.8
311(10) 0.01001 300.8 4.8
300(9) 0.01091 300.8 4.9
296(9) 0.01105 300.7 5.0
288(9) 0.01086 300.7 5.1
300(10) 0.00972 300.6 5.2
320(10) 0.00963 300.6 5.3
299(9) 0.01130 300.5 5.5
300(9) 0.01093 300.5 5.6
284(9) 0.01090 300.4 5.8
294(9) 0.01056 300.3 5.9
303(9) 0.01068 300.3 6.1
300(9) 0.01108 300.2 6.3
301(9) 0.01083 300.2 6.5
296(9) 0.01029 300.1 6.6
301(9) 0.01009 300.1 6.8
309(10) 0.00996 300.0 6.8
280(9) 0.01191 300.0 6.9
306(9) 0.01070 299.9 6.9
305(9) 0.01033 299.9 6.8
290(9) 0.01076 299.8 6.8
305(9) 0.01065 299.7 6.6
299(9) 0.01111 299.7 6.5
293(9) 0.01092 299.6 6.3
278(9) 0.01111 299.6 6.1
288(9) 0.01083 299.5 5.9
293(9) 0.01102 299.5 5.8
303(9) 0.01100 299.4 5.6
298(9) 0.01070 299.4 5.4
300(9) 0.01039 299.3 5.3
295(9) 0.01096 299.3 5.2
318(9) 0.01028 299.2 5.1
304(9) 0.01090 299.1 5.0
299(9) 0.01062 299.1 4.9
303(10) 0.00994 299.0 4.8
298(9) 0.01059 299.0 4.8
309(9) 0.01077 298.9 4.7
296(9) 0.01134 298.9 4.7
299(9) 0.01066 298.8 4.7
305(10) 0.01005 298.8 4.6
323(10) 0.01003 298.7 4.6
303(9) 0.01092 298.7 4.6
289(9) 0.01140 298.6 4.7
288(9) 0.01102 298.5 4.7
305(10) 0.00957 298.5 4.7
299(9) 0.01057 298.4 4.7
294(9) 0.01150 298.4 4.8
304(9) 0.01097 298.3 4.8
312(10) 0.00987 298.3 4.9
303(10) 0.00950 298.2 4.9
300(9) 0.01046 298.2 5.0
305(9) 0.01105 298.1 5.0
315(9) 0.01048 298.1 5.1
323(10) 0.00991 298.0 5.2
307(10) 0.00996 297.9 5.3
291(9) 0.01109 297.9 5.3
326(9) 0.01036 297.8 5.4
312(9) 0.01057 297.8 5.5
306(9) 0.01040 297.7 5.6
306(9) 0.01015 297.7 5.7
318(9) 0.01019 297.6 5.8
307(9) 0.01095 297.6 5.9
298(9) 0.01128 297.5 6.1
298(9) 0.01027 297.5 6.2
271(9) 0.01119 297.4 6.3
298(9) 0.01032 297.3 6.5
281(9) 0.01168 297.3 6.6
309(9) 0.01042 297.2 6.7
297(9) 0.01054 297.2 6.9
284(9) 0.01070 297.1 7.0
265(9) 0.01196 297.1 7.2
286(9) 0.01163 297.0 7.3
317(10) 0.01004 297.0 7.5
306(10) 0.00999 296.9 7.7
301(9) 0.01013 296.9 7.8
295(9) 0.01078 296.8 8.0
291(9) 0.01149 296.7 8.2
304(9) 0.01043 296.7 8.4
316(10) 0.00943 296.6 8.5
310(10) 0.00999 296.6 8.7
303(9) 0.01084 296.5 8.9
289(9) 0.01146 296.5 9.1
289(9) 0.01071 296.4 9.3
292(9) 0.01056 296.4 9.4
312(10) 0.01007 296.3 9.6
307(9) 0.01040 296.3 9.8
295(9) 0.01134 296.2 9.9
284(9) 0.01115 296.1 10.1
300(10) 0.00997 296.1 10.2
293(9) 0.01048 296.0 10.4
312(9) 0.01056 296.0 10.5
331(9) 0.01017 295.9 10.6
339(10) 0.00951 295.9 10.8
314(10) 0.00962 295.8 10.9
313(10) 0.00982 295.8 11.0
326(9) 0.01022 295.7 11.1
326(9) 0.01041 295.7 11.2
300(9) 0.01058 295.6 11.2
298(10) 0.00961 295.5 11.3
285(9) 0.01111 295.5 11.4
295(9) 0.01137 295.4 11.4
283(9) 0.01175 295.4 11.5
289(9) 0.01109 295.3 11.5
311(10) 0.00951 295.3 11.5
314(10) 0.00966 295.2 11.6
305(9) 0.01098 295.2 11.6
300(9) 0.01096 295.1 11.7
316(10) 0.00992 295.1 11.7
299(10) 0.01002 295.0 11.7
278(9) 0.01090 294.9 11.8
292(9) 0.01125 294.9 11.8
318(9) 0.01042 294.8 11.9
295(9) 0.01072 294.8 12.0
309(10) 0.00969 294.7 12.1
323(10) 0.00977 294.7 12.1
301(9) 0.01116 294.6 12.3
314(9) 0.01063 294.6 12.4
293(9) 0.01094 294.5 12.5
312(10) 0.00959 294.5 12.6
293(9) 0.01077 294.4 12.8
290(9) 0.01143 294.3 13.0
300(9) 0.01111 294.3 13.2
310(10) 0.01005 294.2 13.4
308(9) 0.01031 294.2 13.6
302(9) 0.01058 294.1 13.9
305(9) 0.01098 294.1 14.1
290(9) 0.01113 294.0 14.4
300(10) 0.01006 294.0 14.7
314(10) 0.00990 293.9 15.0
327(10) 0.00981 293.9 15.3
296(9) 0.01133 293.8 15.7
319(10) 0.01005 293.7 16.0
317(10) 0.00973 293.7 16.4
319(10) 0.00987 293.6 16.7
334(10) 0.00965 293.6 17.1
334(10) 0.01005 293.5 17.4
316(10) 0.01001 293.5 17.8
332(10) 0.00892 293.4 18.1
337(10) 0.00931 293.4 18.5
333(10) 0.00987 293.3 18.8
345(10) 0.00978 293.3 19.0
325(10) 0.00953 293.2 19.3
315(10) 0.00950 293.1 19.5
324(10) 0.00990 293.1 19.7
330(10) 0.01003 293.0 19.8
319(9) 0.01043 293.0 19.8
324(10) 0.00997 292.9 19.8
323(10) 0.00924 292.9 19.8
331(10) 0.00974 292.8 19.7
327(9) 0.01022 292.8 19.6
311(9) 0.01070 292.7 19.4
319(10) 0.00961 292.7 19.1
310(10) 0.00999 292.6 18.8
306(9) 0.01035 292.6 18.5
325(9) 0.01035 292.5 18.1
307(9) 0.01081 292.4 17.7
333(10) 0.00946 292.4 17.3
327(10) 0.00902 292.3 16.9
303(10) 0.01004 292.3 16.4
288(9) 0.01162 292.2 16.0
297(9) 0.01108 292.2 15.5
308(9) 0.01013 292.1 15.0
294(9) 0.01022 292.1 14.6
310(9) 0.01045 292.0 14.1
320(9) 0.01046 292.0 13.7
309(9) 0.01082 291.9 13.2
308(9) 0.01022 291.8 12.8
296(9) 0.01077 291.8 12.4
315(9) 0.01012 291.7 12.0
318(9) 0.01057 291.7 11.6
312(9) 0.01037 291.6 11.3
295(9) 0.01079 291.6 10.9
311(10) 0.00986 291.5 10.6
322(10) 0.00967 291.5 10.3
308(9) 0.01094 291.4 10.0
274(9) 0.01176 291.4 9.7
304(9) 0.01019 291.3 9.4
313(10) 0.00998 291.2 9.2
314(9) 0.01027 291.2 9.0
285(9) 0.01162 291.1 8.7
288(9) 0.01114 291.1 8.5
284(9) 0.01089 291.0 8.4
302(9) 0.01011 291.0 8.2
288(9) 0.01155 290.9 8.0
291(9) 0.01147 290.9 7.9
293(9) 0.01078 290.8 7.8
295(9) 0.01014 290.8 7.6
288(9) 0.01081 290.7 7.5
295(9) 0.01130 290.6 7.4
315(9) 0.01057 290.6 7.3
297(9) 0.01080 290.5 7.3
290(9) 0.01025 290.5 7.2
293(9) 0.01039 290.4 7.1
275(9) 0.01183 290.4 7.1
292(9) 0.01134 290.3 7.0
296(9) 0.01065 290.3 6.9
297(10) 0.01007 290.2 6.9
303(9) 0.01035 290.2 6.9
280(9) 0.01169 290.1 6.8
261(8) 0.01266 290.0 6.8
308(10) 0.01002 290.0 6.7
313(10) 0.00938 289.9 6.7
299(9) 0.01036 289.9 6.6
282(9) 0.01158 289.8 6.6
279(9) 0.01183 289.8 6.5
296(9) 0.01066 289.7 6.5
298(10) 0.00991 289.7 6.4
295(9) 0.01072 289.6 6.3
290(9) 0.01140 289.6 6.3
284(9) 0.01165 289.5 6.2
285(9) 0.01100 289.4 6.1
309(10) 0.00961 289.4 6.0
315(10) 0.00982 289.3 5.9
283(9) 0.01172 289.3 5.8
284(9) 0.01155 289.2 5.7
286(9) 0.01069 289.2 5.7
288(9) 0.01039 289.1 5.6
278(9) 0.01099 289.1 5.4
289(9) 0.01155 289.0 5.3
304(9) 0.01051 289.0 5.2
286(9) 0.01122 288.9 5.1
292(9) 0.01071 288.8 5.0
287(9) 0.01137 288.8 4.9
270(8) 0.01232 288.7 4.8
287(9) 0.01104 288.7 4.7
267(9) 0.01205 288.6 4.6
288(9) 0.01069 288.6 4.5
270(9) 0.01192 288.5 4.4
297(9) 0.01132 288.5 4.3
295(9) 0.01089 288.4 4.3
285(9) 0.01068 288.4 4.2
299(9) 0.01043 288.3 4.1
292(9) 0.01147 288.2 4.0
291(9) 0.01145 288.2 3.9
283(9) 0.01129 288.1 3.9
310(10) 0.00939 288.1 3.8
282(9) 0.01130 288.0 3.7
274(9) 0.01193 288.0 3.7
278(9) 0.01191 287.9 3.6
290(9) 0.01060 287.9 3.5
267(9) 0.01132 287.8 3.5
292(9) 0.01075 287.8 3.4
284(9) 0.01134 287.7 3.4
287(9) 0.01177 287.6 3.3
295(9) 0.01061 287.6 3.3
298(10) 0.00958 287.5 3.2
266(9) 0.01144 287.5 3.2
281(9) 0.01190 287.4 3.2
295(9) 0.01133 287.4 3.1
293(9) 0.01090 287.3 3.1
293(10) 0.00985 287.3 3.1
274(9) 0.01157 287.2 3.1
329(10) 0.01001 287.2 3.0
297(9) 0.01136 287.1 3.0
296(9) 0.01083 287.0 3.0
298(10) 0.00951 287.0 3.0
276(9) 0.01128 286.9 3.0
298(9) 0.01107 286.9 3.0
301(9) 0.01110 286.8 3.0
270(9) 0.01175 286.8 3.0
289(9) 0.01047 286.7 3.0
283(9) 0.01095 286.7 3.0
257(8) 0.01277 286.6 3.0
284(9) 0.01159 286.6 3.0
302(10) 0.01005 286.5 3.0
284(9) 0.01067 286.4 3.0
293(9) 0.01089 286.4 3.0
290(9) 0.01149 286.3 3.0
308(9) 0.01055 286.3 3.0
276(9) 0.01080 286.2 2.9
282(9) 0.01065 286.2 2.9
284(9) 0.01139 286.1 2.9
313(9) 0.01080 286.1 2.9
301(9) 0.01071 286.0 2.8
289(9) 0.01076 286.0 2.8
279(9) 0.01106 285.9 2.7
290(9) 0.01091 285.8 2.7
274(9) 0.01211 285.8 2.7
289(9) 0.01129 285.7 2.6
295(9) 0.01016 285.7 2.6
296(9) 0.01017 285.6 2.5
271(9) 0.01176 285.6 2.5
289(9) 0.01154 285.5 2.5
302(9) 0.01042 285.5 2.4
293(10) 0.01001 285.4 2.4
277(9) 0.01047 285.4 2.4
294(9) 0.01074 285.3 2.4
298(9) 0.01127 285.2 2.3
277(9) 0.01115 285.2 2.3
268(9) 0.01140 285.1 2.3
272(9) 0.01169 285.1 2.3
282(9) 0.01162 285.0 2.3
290(9) 0.01140 285.0 2.2
276(9) 0.01170 284.9 2.2
300(10) 0.01007 284.9 2.2
327(10) 0.00970 284.8 2.2
288(9) 0.01172 284.8 2.2
283(9) 0.01174 284.8 2.2
304(9) 0.01019 284.9 2.2
307(10) 0.00942 284.9 2.2
285(9) 0.01105 284.9 2.2
275(9) 0.01188 284.9 2.1
268(8) 0.01256 284.9 2.1
300(9) 0.01051 284.9 2.1
272(9) 0.01041 284.9 2.1
272(9) 0.01128 284.9 2.1
274(9) 0.01216 284.9 2.1
307(9) 0.01069 284.9 2.1
298(9) 0.01034 285.0 2.1
285(9) 0.01012 285.0 2.1
278(9) 0.01125 285.0 2.1
262(8) 0.01264 285.0 2.1
288(9) 0.01157 285.0 2.1
275(9) 0.01147 285.0 2.1
296(9) 0.01018 285.0 2.1
301(9) 0.01025 285.0 2.1
283(9) 0.01177 285.0 2.1
282(9) 0.01130 285.0 2.1
284(9) 0.01070 285.1 2.1
276(9) 0.01125 285.1 2.1
279(9) 0.01140 285.1 2.1
284(9) 0.01183 285.1 2.1
280(9) 0.01123 285.1 2.1
268(9) 0.01201 285.1 2.1
288(9) 0.01070 285.1 2.1
262(9) 0.01182 285.1 2.1
268(9) 0.01230 285.1 2.1
260(9) 0.01184 285.2 2.1
291(9) 0.01044 285.2 2.1
296(9) 0.01055 285.2 2.1
280(9) 0.01180 285.2 2.1
273(9) 0.01217 285.2 2.1
293(9) 0.01092 285.2 2.1
285(9) 0.01070 285.2 2.1
290(9) 0.01075 285.2 2.1
292(9) 0.01088 285.2 2.1
285(9) 0.01175 285.2 2.1
282(9) 0.01088 285.3 2.1
272(9) 0.01098 285.3 2.2
272(9) 0.01131 285.3 2.2
271(9) 0.01148 285.3 2.2
279(9) 0.01210 285.3 2.2
301(9) 0.01011 285.3 2.2
286(9) 0.01088 285.3 2.2
264(9) 0.01215 285.3 2.2
290(9) 0.01118 285.3 2.2
286(9) 0.01160 285.3 2.2
287(9) 0.01095 285.4 2.2
275(9) 0.01052 285.4 2.2
282(9) 0.01120 285.4 2.2
282(9) 0.01166 285.4 2.2
276(9) 0.01215 285.4 2.3
289(9) 0.01052 285.4 2.3
278(9) 0.01042 285.4 2.3
288(9) 0.01073 285.4 2.3
267(9) 0.01224 285.4 2.3
287(9) 0.01155 285.4 2.3
280(9) 0.01078 285.5 2.3
284(9) 0.01017 285.5 2.3
301(9) 0.01056 285.5 2.3
331(9) 0.01024 285.5 2.4
295(9) 0.01115 285.5 2.4
289(9) 0.01087 285.5 2.4
274(9) 0.01086 285.5 2.4
271(9) 0.01152 285.5 2.4
309(9) 0.01076 285.5 2.4
274(9) 0.01169 285.6 2.5
292(9) 0.01050 285.6 2.5
272(9) 0.01148 285.6 2.5
280(9) 0.01100 285.6 2.5
263(8) 0.01245 285.6 2.5
295(9) 0.01120 285.6 2.5
284(9) 0.01120 285.6 2.6
273(9) 0.01113 285.6 2.6
269(9) 0.01167 285.6 2.6
247(8) 0.01324 285.6 2.6
261(9) 0.01201 285.7 2.7
299(9) 0.01019 285.7 2.7
297(9) 0.01045 285.7 2.7
253(9) 0.01226 285.7 2.7
301(9) 0.01107 285.7 2.8
266(9) 0.01160 285.7 2.8
287(9) 0.01031 285.7 2.8
278(9) 0.01123 285.7 2.9
282(9) 0.01119 285.7 2.9
292(9) 0.01138 285.7 3.0
288(9) 0.01055 285.8 3.0
283(9) 0.01085 285.8 3.0
287(9) 0.01086 285.8 3.1
258(9) 0.01229 285.8 3.1
304(9) 0.01104 285.8 3.2
290(9) 0.01037 285.8 3.2
266(9) 0.01165 285.8 3.3
278(9) 0.01113 285.8 3.4
285(9) 0.01162 285.8 3.4
290(9) 0.01147 285.8 3.5
295(9) 0.01079 285.9 3.5
279(9) 0.01067 285.9 3.6
287(9) 0.01072 285.9 3.7
267(8) 0.01239 285.9 3.8
279(9) 0.01165 285.9 3.8
267(9) 0.01181 285.9 3.9
285(9) 0.01024 285.9 4.0
288(9) 0.01080 285.9 4.1
290(9) 0.01141 285.9 4.2
293(9) 0.01106 286.0 4.3
285(9) 0.01101 286.0 4.3
251(9) 0.01216 286.0 4.4
275(9) 0.01129 286.0 4.5
293(9) 0.01125 286.0 4.6
303(9) 0.01068 286.0 4.7
280(9) 0.01130 286.0 4.8
294(9) 0.01017 286.0 4.9
286(9) 0.01095 286.0 4.9
290(9) 0.01144 286.0 5.0
295(9) 0.01083 286.1 5.1
279(9) 0.01122 286.1 5.1
267(9) 0.01126 286.1 5.2
278(9) 0.01089 286.1 5.2
290(9) 0.01141 286.1 5.3
291(9) 0.01105 286.1 5.3
285(9) 0.01090 286.1 5.3
291(9) 0.01051 286.1 5.3
260(9) 0.01227 286.1 5.3
305(9) 0.01091 286.1 5.3
297(9) 0.01098 286.2 5.3
272(9) 0.01181 286.2 5.3
311(10) 0.00958 286.2 5.2
262(9) 0.01199 286.2 5.2
272(9) 0.01207 286.2 5.2
270(9) 0.01186 286.2 5.1
259(9) 0.01174 286.2 5.1
291(9) 0.01034 286.2 5.0
280(9) 0.01152 286.2 5.0
304(9) 0.01107 286.2 5.0
299(9) 0.01044 286.3 4.9
272(9) 0.01125 286.3 4.9
298(9) 0.01059 286.3 4.9
307(9) 0.01083 286.3 4.9
284(9) 0.01165 286.3 4.8
296(9) 0.01090 286.3 4.8
305(9) 0.01030 286.3 4.8
285(9) 0.01135 286.3 4.8
303(9) 0.01091 286.3 4.8
271(9) 0.01215 286.4 4.8
279(9) 0.01077 286.4 4.8
274(9) 0.01067 286.4 4.8
284(9) 0.01128 286.4 4.8
273(9) 0.01204 286.4 4.8
274(9) 0.01210 286.4 4.8
297(9) 0.01064 286.4 4.8
299(10) 0.00970 286.4 4.9
288(9) 0.01103 286.4 4.9
300(9) 0.01099 286.4 4.9
286(9) 0.01145 286.5 4.9
285(9) 0.01100 286.5 5.0
282(9) 0.01040 286.5 5.0
295(9) 0.01042 286.5 5.0
266(9) 0.01228 286.5 5.1
292(9) 0.01118 286.5 5.1
296(9) 0.01092 286.5 5.2
290(9) 0.01045 286.5 5.2
297(9) 0.01041 286.5 5.3
285(9) 0.01169 286.5 5.3
270(9) 0.01209 286.6 5.4
276(9) 0.01146 286.6 5.4
288(9) 0.01027 286.6 5.5
275(9) 0.01133 286.6 5.6
266(8) 0.01254 286.6 5.6
277(9) 0.01155 286.6 5.7
299(9) 0.01048 286.6 5.8
282(9) 0.01124 286.6 5.9
298(9) 0.01013 286.6 5.9
286(9) 0.01156 286.6 6.0
280(9) 0.01145 286.7 6.1
291(9) 0.01077 286.7 6.2
274(9) 0.01123 286.7 6.3
289(9) 0.01061 286.7 6.4
289(9) 0.01151 286.7 6.5
296(9) 0.01093 286.7 6.6
292(9) 0.01021 286.7 6.7
291(9) 0.01035 286.7 6.8
296(9) 0.01087 286.7 6.9
264(8) 0.01244 286.8 7.0
286(9) 0.01059 286.8 7.1
297(10) 0.00986 286.8 7.3
298(9) 0.01026 286.8 7.4
295(9) 0.01109 286.8 7.5
296(9) 0.01130 286.8 7.7
285(9) 0.01128 286.8 7.8
289(9) 0.01064 286.8 8.0
290(9) 0.01100 286.8 8.1
284(9) 0.01177 286.8 8.3
269(9) 0.01206 286.9 8.4
303(10) 0.01000 286.9 8.6
304(10) 0.00978 286.9 8.8
308(9) 0.01024 286.9 9.0
277(9) 0.01195 286.9 9.1
287(9) 0.01162 286.9 9.3
304(9) 0.01056 286.9 9.5
300(9) 0.01011 286.9 9.8
304(9) 0.01032 286.9 10.0
290(9) 0.01160 286.9 10.2
294(9) 0.01141 287.0 10.4
289(9) 0.01039 287.0 10.7
292(10) 0.01003 287.0 10.9
297(9) 0.01069 287.0 11.2
297(9) 0.01135 287.0 11.5
294(9) 0.01132 287.0 11.7
281(9) 0.01147 287.0 12.0
294(9) 0.01018 287.0 12.3
285(9) 0.01125 287.0 12.7
295(9) 0.01135 287.0 13.0
302(9) 0.01087 287.1 13.3
293(9) 0.01066 287.1 13.7
281(9) 0.01081 287.1 14.1
293(9) 0.01071 287.1 14.5
313(9) 0.01081 287.1 14.9
298(9) 0.01079 287.1 15.3
289(9) 0.01087 287.1 15.8
295(9) 0.01023 287.1 16.3
294(9) 0.01070 287.1 16.7
301(9) 0.01105 287.2 17.3
303(9) 0.01030 287.2 17.8
310(9) 0.01008 287.2 18.4
321(10) 0.00928 287.2 19.0
296(9) 0.01079 287.2 19.6
308(9) 0.01097 287.2 20.3
315(9) 0.01055 287.2 21.0
307(9) 0.01042 287.2 21.8
299(9) 0.01051 287.2 22.5
269(9) 0.01157 287.2 23.4
273(9) 0.01206 287.3 24.3
292(9) 0.01082 287.3 25.2
302(9) 0.01039 287.3 26.2
320(10) 0.00985 287.3 27.3
313(9) 0.01053 287.3 28.4
307(9) 0.01095 287.3 29.6
312(10) 0.01004 287.3 30.9
327(10) 0.00933 287.3 32.3
337(10) 0.00937 287.3 33.9
342(10) 0.00972 287.3 35.5
332(9) 0.01019 287.4 37.2
324(10) 0.00979 287.4 39.1
320(10) 0.00939 287.4 41.2
297(9) 0.01065 287.4 43.5
315(9) 0.01071 287.4 46.0
325(9) 0.01031 287.4 48.7
343(10) 0.00949 287.4 51.7
354(10) 0.00860 287.4 55.1
371(10) 0.00880 287.4 58.9
374(10) 0.00915 287.4 63.1
353(10) 0.00967 287.5 67.9
362(11) 0.00838 287.5 73.3
361(11) 0.00806 287.5 79.5
384(10) 0.00844 287.5 86.5
372(10) 0.00922 287.5 94.5
364(10) 0.00936 287.5 103.7
388(10) 0.00851 287.5 114.2
433(12) 0.00680 287.5 126.2
422(11) 0.00750 287.5 139.8
428(11) 0.00798 287.6 155.2
448(11) 0.00762 287.6 172.5
445(11) 0.00724 287.6 192.0
494(12) 0.00625 287.6 213.5
505(12) 0.00648 287.6 237.0
524(12) 0.00668 287.6 262.4
595(13) 0.00574 287.6 289.1
614(13) 0.00538 287.6 316.4
622(13) 0.00534 287.6 343.3
643(14) 0.00509 287.6 368.4
675(13) 0.00524 287.7 390.3
695(14) 0.00494 287.7 407.6
685(14) 0.00481 287.7 419.6
698(15) 0.00456 287.7 426.2
672(14) 0.00499 287.7 427.9
652(13) 0.00540 287.7 426.0
670(14) 0.00502 287.7 421.5
675(14) 0.00485 287.7 415.4
695(14) 0.00465 287.7 408.1
672(14) 0.00495 287.7 399.7
670(13) 0.00529 287.8 389.8
666(14) 0.00504 287.8 377.7
659(14) 0.00491 287.8 363.0
687(14) 0.00482 287.8 345.6
683(14) 0.00504 287.8 325.7
635(13) 0.00558 287.8 304.0
611(13) 0.00536 287.8 281.1
552(13) 0.00581 287.8 258.1
566(13) 0.00580 287.8 235.5
564(13) 0.00604 287.8 214.0
465(11) 0.00743 287.9 193.9
414(11) 0.00769 287.9 175.4
430(11) 0.00711 287.9 158.6
430(11) 0.00732 287.9 143.4
401(10) 0.00853 287.9 129.8
371(10) 0.00902 287.9 117.7
379(11) 0.00838 287.9 106.9
359(10) 0.00849 287.9 97.4
387(11) 0.00806 287.9 89.0
359(10) 0.00925 288.0 81.6
370(10) 0.00914 288.0 75.0
354(10) 0.00886 288.0 69.2
348(11) 0.00821 288.0 64.1
353(10) 0.00911 288.0 59.5
331(10) 0.01004 288.0 55.5
319(9) 0.01044 288.0 51.9
347(10) 0.00930 288.0 48.6
348(11) 0.00836 288.0 45.7
342(10) 0.00933 288.0 43.1
316(9) 0.01058 288.1 40.8
306(9) 0.01067 288.1 38.6
302(9) 0.01070 288.1 36.6
325(10) 0.00956 288.1 34.8
330(10) 0.00974 288.1 33.2
310(9) 0.01088 288.1 31.7
318(9) 0.01038 288.1 30.3
309(9) 0.01029 288.1 29.0
322(10) 0.00930 288.1 27.8
329(10) 0.00953 288.1 26.7
291(9) 0.01148 288.2 25.6
312(9) 0.01062 288.2 24.7
303(9) 0.01059 288.2 23.8
310(9) 0.01013 288.2 22.9
349(10) 0.00918 288.2 22.1
312(9) 0.01073 288.2 21.4
308(9) 0.01055 288.2 20.7
309(9) 0.01036 288.2 20.1
313(10) 0.00962 288.2 19.5
311(10) 0.01001 288.3 18.9
306(9) 0.01096 288.3 18.4
293(9) 0.01076 288.3 17.9
308(10) 0.00981 288.3 17.5
280(9) 0.01118 288.3 17.1
276(9) 0.01149 288.3 16.7
297(9) 0.01135 288.3 16.3
322(10) 0.00981 288.3 16.0
299(9) 0.01025 288.3 15.7
294(9) 0.01073 288.3 15.4
291(9) 0.01139 288.4 15.1
300(9) 0.01106 288.4 14.9
282(9) 0.01090 288.4 14.7
291(9) 0.01045 288.4 14.5
314(10) 0.01004 288.4 14.3
304(9) 0.01070 288.4 14.2
313(9) 0.01079 288.4 14.1
298(9) 0.01081 288.4 14.0
297(9) 0.01017 288.4 14.0
298(9) 0.01106 288.4 14.0
309(9) 0.01059 288.5 14.0
338(10) 0.01006 288.5 14.1
307(9) 0.01034 288.5 14.2
309(10) 0.00964 288.5 14.3
319(10) 0.00990 288.5 14.5
291(9) 0.01132 288.5 14.8
299(9) 0.01106 288.5 15.1
304(9) 0.01033 288.5 15.5
306(10) 0.00975 288.5 16.0
292(9) 0.01082 288.5 16.7
289(9) 0.01156 288.6 17.5
287(9) 0.01147 288.6 18.5
312(9) 0.01023 288.6 19.8
309(10) 0.00973 288.6 21.4
311(10) 0.01003 288.6 23.5
308(9) 0.01111 288.6 26.2
354(10) 0.00940 288.6 29.7
349(10) 0.00888 288.6 34.1
334(10) 0.00898 288.6 39.6
325(10) 0.00941 288.7 46.4
331(9) 0.01024 288.7 54.5
347(10) 0.00962 288.7 63.9
391(10) 0.00840 288.7 74.3
375(10) 0.00844 288.7 84.9
374(10) 0.00842 288.7 94.6
394(10) 0.00871 288.7 101.4
401(11) 0.00838 288.7 103.7
366(10) 0.00859 288.7 100.9
356(10) 0.00891 288.7 93.7
374(10) 0.00859 288.8 83.8
384(10) 0.00894 288.8 73.0
340(10) 0.00917 288.8 62.5
313(10) 0.00966 288.8 53.0
314(10) 0.00988 288.8 44.8
325(9) 0.01016 288.8 38.0
297(9) 0.01121 288.8 32.4
288(9) 0.01093 288.8 27.8
320(10) 0.00924 288.8 24.2
305(10) 0.00992 288.8 21.4
321(10) 0.00987 288.9 19.1
308(9) 0.01096 288.9 17.3
326(10) 0.00979 288.9 15.9
324(10) 0.00954 288.9 14.7
328(10) 0.00945 288.9 13.7
293(9) 0.01154 288.9 12.9
297(9) 0.01118 288.9 12.2
307(9) 0.01018 288.9 11.6
300(10) 0.00986 288.9 11.0
274(9) 0.01184 288.9 10.6
304(9) 0.01098 289.0 10.2
297(9) 0.01141 289.0 9.8
308(9) 0.01017 289.0 9.4
309(10) 0.00957 289.0 9.1
306(10) 0.00983 289.0 8.9
285(9) 0.01176 289.0 8.6
285(9) 0.01176 289.0 8.4
295(9) 0.01062 289.0 8.2
299(10) 0.00964 289.0 8.0
285(9) 0.01113 289.1 7.9
304(9) 0.01115 289.1 7.7
303(9) 0.01090 289.1 7.6
287(9) 0.01066 289.1 7.4
312(10) 0.00936 289.1 7.3
302(9) 0.01045 289.1 7.2
278(9) 0.01202 289.1 7.1
278(9) 0.01183 289.1 7.0
306(9) 0.01010 289.1 6.9
292(9) 0.01012 289.1 6.8
295(9) 0.01030 289.2 6.8
284(9) 0.01184 289.2 6.7
313(9) 0.01028 289.2 6.6
294(9) 0.01023 289.2 6.6
286(9) 0.01041 289.2 6.5
289(9) 0.01066 289.2 6.5
293(9) 0.01125 289.2 6.4
305(9) 0.01090 289.2 6.4
282(9) 0.01109 289.2 6.4
275(9) 0.01145 289.2 6.3
293(9) 0.01089 289.3 6.3
296(9) 0.01125 289.3 6.3
311(9) 0.01021 289.3 6.2
282(9) 0.01107 289.3 6.2
281(9) 0.01116 289.3 6.2
288(9) 0.01071 289.3 6.2
290(9) 0.01158 289.3 6.2
304(9) 0.01008 289.3 6.2
297(9) 0.01063 289.3 6.2
302(9) 0.01039 289.3 6.2
293(9) 0.01102 289.4 6.2
306(9) 0.01093 289.4 6.2
305(9) 0.01022 289.4 6.2
297(9) 0.01022 289.4 6.2
295(9) 0.01019 289.4 6.2
297(9) 0.01097 289.4 6.2
294(9) 0.01137 289.4 6.2
275(9) 0.01109 289.4 6.2
300(10) 0.00969 289.4 6.2
314(10) 0.00982 289.5 6.2
290(9) 0.01156 289.5 6.3
293(9) 0.01130 289.5 6.3
282(9) 0.01106 289.5 6.3
286(9) 0.01036 289.5 6.3
294(9) 0.01067 289.5 6.3
283(9) 0.01176 289.5 6.4
282(9) 0.01178 289.5 6.4
309(9) 0.01013 289.5 6.4
279(9) 0.01074 289.5 6.5
293(9) 0.01093 289.6 6.5
300(9) 0.01104 289.6 6.6
303(9) 0.01077 289.6 6.6
292(9) 0.01095 289.6 6.6
286(9) 0.01055 289.6 6.7
300(9) 0.01044 289.6 6.7
303(9) 0.01107 289.6 6.8
285(9) 0.01153 289.6 6.8
302(9) 0.01034 289.6 6.9
307(10) 0.00981 289.6 6.9
290(9) 0.01104 289.7 7.0
296(9) 0.01126 289.7 7.1
289(9) 0.01149 289.7 7.1
289(9) 0.01095 289.7 7.2
287(9) 0.01069 289.7 7.3
306(9) 0.01017 289.7 7.3
303(9) 0.01105 289.7 7.4
308(9) 0.01058 289.7 7.5
306(10) 0.00972 289.7 7.5
267(9) 0.01133 289.7 7.6
290(9) 0.01082 289.7 7.7
271(9) 0.01224 289.7 7.8
312(9) 0.01072 289.7 7.9
300(9) 0.01070 289.7 8.0
281(9) 0.01091 289.7 8.1
298(9) 0.01085 289.7 8.1
304(9) 0.01103 289.7 8.2
294(9) 0.01081 289.7 8.3
297(9) 0.01043 289.7 8.4
297(9) 0.01023 289.7 8.5
308(9) 0.01037 289.7 8.6
313(9) 0.01072 289.7 8.7
304(9) 0.01052 289.7 8.9
303(9) 0.01017 289.7 9.0
253(8) 0.01252 289.7 9.1
278(9) 0.01176 289.7 9.2
295(9) 0.01141 289.7 9.3
283(9) 0.01118 289.7 9.4
283(9) 0.01061 289.7 9.5
290(9) 0.01098 289.7 9.6
301(9) 0.01096 289.7 9.8
282(9) 0.01175 289.7 9.9
305(9) 0.01041 289.7 10.0
293(9) 0.01032 289.7 10.1
292(9) 0.01106 289.7 10.3
281(9) 0.01196 289.7 10.4
299(9) 0.01113 289.7 10.5
309(10) 0.01006 289.7 10.6
302(10) 0.00999 289.7 10.8
300(9) 0.01059 289.7 10.9
299(9) 0.01106 289.7 11.0
281(9) 0.01187 289.7 11.1
290(9) 0.01088 289.7 11.3
319(10) 0.00922 289.7 11.4
330(10) 0.00952 289.7 11.5
300(9) 0.01125 289.7 11.6
315(9) 0.01026 289.7 11.8
308(10) 0.00989 289.7 11.9
281(9) 0.01065 289.7 12.0
288(9) 0.01090 289.7 12.2
286(9) 0.01162 289.7 12.3
314(9) 0.01047 289.7 12.4
312(9) 0.01026 289.7 12.6
337(10) 0.00900 289.7 12.7
333(10) 0.00931 289.7 12.8
305(9) 0.01105 289.7 13.0
318(9) 0.01011 289.7 13.1
292(9) 0.01106 289.7 13.3
306(10) 0.00999 289.7 13.4
301(9) 0.01030 289.7 13.6
300(9) 0.01122 289.7 13.7
299(9) 0.01094 289.7 13.9
322(10) 0.00949 289.7 14.1
290(9) 0.01090 289.7 14.3
330(10) 0.00985 289.7 14.5
302(9) 0.01098 289.7 14.7
282(9) 0.01134 289.7 14.9
308(10) 0.00967 289.7 15.1
293(9) 0.01060 289.7 15.4
311(9) 0.01048 289.7 15.6
331(9) 0.01013 289.7 15.9
300(9) 0.01055 289.7 16.2
298(9) 0.01043 289.7 16.5
304(9) 0.01030 289.7 16.8
301(9) 0.01088 289.7 17.2
321(9) 0.01047 289.7 17.6
302(9) 0.01049 289.7 18.0
317(10) 0.00951 289.7 18.4
309(9) 0.01029 289.7 18.9
335(10) 0.00998 289.7 19.4
315(9) 0.01068 289.7 19.9
322(10) 0.00979 289.7 20.5
336(10) 0.00892 289.7 21.2
317(10) 0.00993 289.7 21.9
312(9) 0.01081 289.7 22.6
339(10) 0.00967 289.7 23.4
309(9) 0.01026 289.7 24.3
332(10) 0.00876 289.7 25.3
312(10) 0.01001 289.7 26.4
311(9) 0.01072 289.7 27.5
304(9) 0.01109 289.7 28.8
345(10) 0.00889 289.7 30.3
316(10) 0.00919 289.7 31.9
316(10) 0.00985 289.7 33.6
322(9) 0.01048 289.7 35.6
328(9) 0.01023 289.7 37.8
331(10) 0.00956 289.7 40.3
332(10) 0.00922 289.7 43.2
294(9) 0.01074 289.7 46.6
339(10) 0.00990 289.7 50.5
354(10) 0.00927 289.7 55.2
343(10) 0.00945 289.7 61.1
364(10) 0.00858 289.7 68.6
386(11) 0.00803 289.7 78.4
357(10) 0.00954 289.7 91.2
417(11) 0.00806 289.7 108.3
439(11) 0.00730 289.7 130.7
442(11) 0.00713 289.7 159.5
468(12) 0.00678 289.7 195.3
541(12) 0.00650 289.7 237.7
554(12) 0.00626 289.7 284.8
646(14) 0.00497 289.7 331.1
659(14) 0.00508 289.7 367.7
717(14) 0.00466 289.7 383.5
682(14) 0.00520 289.7 373.0
693(14) 0.00479 289.7 340.8
613(13) 0.00530 289.7 297.5
583(13) 0.00560 289.7 252.7
568(13) 0.00595 289.7 212.1
521(12) 0.00674 289.7 177.9
501(12) 0.00643 289.7 150.5
470(12) 0.00660 289.7 129.6
451(12) 0.00706 289.7 113.9
417(11) 0.00806 289.7 102.4
433(11) 0.00791 289.7 94.0
413(11) 0.00761 289.7 87.9
400(11) 0.00762 289.7 83.3
379(10) 0.00854 289.7 79.8
375(10) 0.00877 289.7 77.1
376(10) 0.00911 289.7 75.0
365(10) 0.00886 289.7 73.3
375(11) 0.00802 289.7 71.9
375(10) 0.00843 289.7 70.9
369(10) 0.00889 289.7 70.1
384(10) 0.00894 289.7 69.6
358(10) 0.00889 289.7 69.3
357(11) 0.00818 289.7 69.1
374(10) 0.00866 289.7 69.2
375(10) 0.00912 289.7 69.4
370(10) 0.00925 289.7 69.7
377(11) 0.00826 289.7 70.2
356(11) 0.00829 289.7 70.8
351(10) 0.00885 289.7 71.4
366(10) 0.00932 289.7 72.1
388(10) 0.00868 289.7 72.8
386(10) 0.00840 289.7 73.5
364(10) 0.00846 289.7 74.2
365(10) 0.00896 289.7 74.8
365(10) 0.00935 289.7 75.4
369(10) 0.00913 289.7 75.8
383(11) 0.00836 289.7 76.1
377(11) 0.00805 289.7 76.2
369(10) 0.00880 289.7 76.2
352(10) 0.00965 289.7 76.0
359(10) 0.00930 289.7 75.6
357(10) 0.00879 289.7 74.9
337(10) 0.00914 289.7 74.2
399(11) 0.00789 289.7 73.2
386(10) 0.00887 289.7 72.1
349(10) 0.00937 289.7 70.8
385(11) 0.00805 289.7 69.5
365(10) 0.00857 289.7 68.0
374(10) 0.00853 289.7 66.4
356(10) 0.00962 289.7 64.7
343(10) 0.00964 289.7 62.9
383(11) 0.00799 289.7 60.9
343(10) 0.00915 289.7 59.0
343(10) 0.00955 289.7 57.0
353(10) 0.00962 289.7 55.1
333(10) 0.00961 289.7 53.3
333(10) 0.00946 289.7 51.5
328(10) 0.00965 289.7 49.7
344(10) 0.00950 289.7 48.1
327(9) 0.01026 289.7 46.6
347(10) 0.00924 289.7 45.1
337(10) 0.00922 289.7 43.7
330(10) 0.00972 289.7 42.4
325(9) 0.01014 289.7 41.2
345(10) 0.00984 289.7 40.1
308(10) 0.00996 289.7 39.1
316(10) 0.00953 289.7 38.1
324(10) 0.00945 289.7 37.2
306(9) 0.01089 289.7 36.4
302(9) 0.01098 289.7 35.6
323(9) 0.01014 289.7 35.0
331(10) 0.00927 289.7 34.3
319(9) 0.01019 289.7 33.8
329(9) 0.01015 289.7 33.3
311(9) 0.01080 289.7 32.9
303(9) 0.01071 289.7 32.5
317(10) 0.00944 289.7 32.1
322(10) 0.00997 289.7 31.9
350(10) 0.00964 289.7 31.7
349(10) 0.00965 289.7 31.5
311(9) 0.01051 289.7 31.4
321(10) 0.00962 289.7 31.3
346(10) 0.00904 289.7 31.3
318(9) 0.01076 289.7 31.3
336(10) 0.00986 289.7 31.3
304(9) 0.01047 289.7 31.5
323(10) 0.00929 289.7 31.6
323(10) 0.00953 289.7 31.8
326(9) 0.01019 289.7 32.1
312(9) 0.01063 289.7 32.4
312(10) 0.00980 289.7 32.7
318(10) 0.00948 289.7 33.1
328(10) 0.00971 289.7 33.5
300(9) 0.01110 289.7 34.0
338(10) 0.00963 289.7 34.6
339(10) 0.00937 289.7 35.2
343(10) 0.00918 289.7 35.8
343(10) 0.00935 289.7 36.6
320(9) 0.01053 289.7 37.3
360(10) 0.00916 289.7 38.2
349(10) 0.00903 289.7 39.2
319(10) 0.00977 289.7 40.2
344(10) 0.00951 289.7 41.3
328(9) 0.01019 289.7 42.5
348(10) 0.00947 289.7 43.8
344(10) 0.00903 289.7 45.2
353(10) 0.00905 289.7 46.8
349(10) 0.00947 289.7 48.4
360(10) 0.00947 289.7 50.2
355(10) 0.00875 289.7 52.2
358(10) 0.00840 289.7 54.3
385(11) 0.00807 289.7 56.6
364(10) 0.00927 289.7 59.1
363(10) 0.00929 289.7 61.8
384(11) 0.00825 289.7 64.6
386(11) 0.00786 289.7 67.7
394(11) 0.00807 289.7 71.1
358(10) 0.00934 289.7 74.6
402(10) 0.00851 289.7 78.5
396(11) 0.00811 289.7 82.5
396(11) 0.00758 289.7 86.8
359(10) 0.00923 289.7 91.4
403(10) 0.00840 289.7 96.2
384(10) 0.00873 289.7 101.2
405(11) 0.00787 289.7 106.4
420(12) 0.00707 289.7 111.7
415(11) 0.00778 289.7 117.2
415(11) 0.00832 289.7 122.6
419(11) 0.00822 289.7 128.0
405(11) 0.00806 289.7 133.2
418(11) 0.00728 289.7 138.2
433(11) 0.00739 289.7 142.8
440(11) 0.00786 289.7 147.1
463(11) 0.00740 289.7 150.9
484(12) 0.00657 289.7 154.3
459(12) 0.00665 289.7 157.3
454(11) 0.00725 289.7 160.1
469(11) 0.00734 289.7 162.7
451(11) 0.00755 289.7 165.3
424(11) 0.00754 289.7 168.2
425(11) 0.00732 289.7 171.5
454(11) 0.00717 289.7 175.4
488(11) 0.00709 289.7 180.1
460(11) 0.00748 289.7 185.7
460(12) 0.00699 289.7 192.2
465(12) 0.00683 289.7 199.6
512(12) 0.00638 289.7 207.8
521(12) 0.00666 289.7 216.4
534(12) 0.00630 289.7 225.0
521(12) 0.00621 289.7 232.7
509(12) 0.00625 289.7 238.8
533(12) 0.00611 289.7 242.6
529(12) 0.00662 289.7 243.5
523(12) 0.00619 289.7 241.4
505(12) 0.00644 289.7 236.9
504(12) 0.00636 289.7 230.6
491(12) 0.00686 289.7 223.3
490(11) 0.00714 289.7 215.8
488(12) 0.00667 289.7 208.8
503(12) 0.00606 289.7 202.6
486(12) 0.00675 289.7 197.6
452(11) 0.00756 289.7 193.8
487(11) 0.00709 289.7 191.4
458(11) 0.00719 289.7 190.2
463(12) 0.00695 289.7 190.4
460(11) 0.00709 289.7 191.7
477(11) 0.00709 289.7 194.1
501(12) 0.00687 289.7 197.5
511(12) 0.00638 289.7 201.8
523(13) 0.00578 289.7 206.9
506(12) 0.00646 289.7 212.6
531(12) 0.00648 289.7 218.9
504(12) 0.00690 289.7 225.5
546(12) 0.00610 289.7 232.2
547(13) 0.00569 289.7 239.0
542(12) 0.00622 289.7 245.7
592(13) 0.00594 289.7 251.9
552(12) 0.00622 289.7 257.6
600(13) 0.00542 289.7 262.5
543(13) 0.00577 289.7 266.5
545(12) 0.00605 289.7 269.3
542(12) 0.00638 289.7 270.8
573(12) 0.00609 289.7 271.0
578(13) 0.00568 289.7 269.9
548(13) 0.00568 289.7 267.3
532(12) 0.00615 289.7 263.4
549(12) 0.00635 289.7 258.3
513(12) 0.00673 289.7 252.1
533(12) 0.00608 289.7 244.9
490(12) 0.00645 289.7 236.9
517(12) 0.00643 289.7 228.2
522(12) 0.00664 289.7 219.1
481(11) 0.00711 289.7 209.6
459(12) 0.00704 289.7 200.0
459(12) 0.00677 289.7 190.4
448(11) 0.00715 289.7 180.9
423(11) 0.00810 289.7 171.6
449(11) 0.00738 289.7 162.6
411(11) 0.00789 289.7 153.9
442(12) 0.00706 289.7 145.6
429(11) 0.00739 289.7 137.7
425(11) 0.00808 289.7 130.2
401(11) 0.00795 289.7 123.1
388(11) 0.00803 289.7 116.5
378(10) 0.00856 289.7 110.2
389(10) 0.00842 289.7 104.3
390(10) 0.00877 289.7 98.7
383(11) 0.00817 289.7 93.5
383(11) 0.00802 289.7 88.7
396(11) 0.00787 289.7 84.2
350(10) 0.00957 289.7 79.9
360(10) 0.00942 289.7 76.0
372(10) 0.00862 289.7 72.3
381(11) 0.00800 289.7 68.9
364(10) 0.00866 289.7 65.7
382(10) 0.00887 289.7 62.8
368(10) 0.00921 289.7 60.0
367(10) 0.00889 289.7 57.4
360(10) 0.00873 289.7 55.0
376(11) 0.00834 289.7 52.8
357(10) 0.00931 289.7 50.7
359(10) 0.00948 289.7 48.8
327(10) 0.00988 289.7 47.0
344(10) 0.00875 289.7 45.3
334(10) 0.00928 289.7 43.7
331(9) 0.01015 289.7 42.2
340(10) 0.00991 289.7 40.8
340(10) 0.00945 289.7 39.5
335(10) 0.00874 289.7 38.3
351(10) 0.00892 289.7 37.1
330(9) 0.01022 289.7 36.0
336(10) 0.00976 289.7 35.0
350(10) 0.00892 289.7 34.0
327(10) 0.00918 289.7 33.1
330(10) 0.00966 289.7 32.2
347(10) 0.00975 289.7 31.4
333(10) 0.01002 289.7 30.6
342(10) 0.00920 289.7 29.8
329(10) 0.00913 289.7 29.1
327(10) 0.00968 289.7 28.4
315(9) 0.01059 289.7 27.7
337(10) 0.00975 289.7 27.1
311(9) 0.01041 289.7 26.5
343(10) 0.00899 289.7 25.9
338(10) 0.00955 289.7 25.3
342(10) 0.00995 289.7 24.8
347(10) 0.00950 289.7 24.3
333(10) 0.00972 289.7 23.8
320(10) 0.00970 289.7 23.3
300(9) 0.01049 289.7 22.9
330(9) 0.01019 289.7 22.4
327(9) 0.01009 289.7 22.0
325(10) 0.00966 289.7 21.6
283(9) 0.01121 289.7 21.2
330(10) 0.00959 289.7 20.9
348(10) 0.00971 289.7 20.5
319(9) 0.01008 289.7 20.2
324(10) 0.00933 289.7 19.9
313(10) 0.00983 289.7 19.6
315(9) 0.01051 289.7 19.3
318(9) 0.01046 289.7 19.0
316(10) 0.00980 289.7 18.8
303(9) 0.01025 289.7 18.6
314(10) 0.00998 289.7 18.4
300(9) 0.01069 289.7 18.2
325(9) 0.01042 289.7 18.0
326(10) 0.00971 289.7 17.9
323(10) 0.00932 289.7 17.8
302(9) 0.01040 289.7 17.7
314(9) 0.01033 289.7 17.6
295(9) 0.01128 289.7 17.6
318(10) 0.00980 289.7 17.6
329(10) 0.00910 289.7 17.6
352(10) 0.00902 289.7 17.6
308(9) 0.01090 289.7 17.7
296(9) 0.01140 289.7 17.8
317(10) 0.01005 289.7 18.0
320(10) 0.00910 289.7 18.1
312(9) 0.01029 289.7 18.4
306(9) 0.01093 289.7 18.7
297(9) 0.01110 289.7 19.0
288(9) 0.01130 289.7 19.4
333(10) 0.00906 289.7 19.8
307(9) 0.01015 289.7 20.4
293(9) 0.01130 289.7 20.9
295(9) 0.01122 289.7 21.6
296(9) 0.01071 289.7 22.3
294(9) 0.01016 289.7 23.1
311(9) 0.01009 289.7 23.9
326(9) 0.01042 289.7 24.8
322(9) 0.01043 289.7 25.8
322(10) 0.00989 289.7 26.8
324(10) 0.00963 289.7 27.9
314(9) 0.01022 289.7 29.0
356(10) 0.00953 289.7 30.1
322(9) 0.01020 289.7 31.3
324(10) 0.00984 289.7 32.3
330(10) 0.00951 289.7 33.3
333(10) 0.00982 289.7 34.2
354(10) 0.00955 289.7 34.9
346(10) 0.00959 289.7 35.4
321(10) 0.00963 289.7 35.7
342(10) 0.00895 289.7 35.8
328(10) 0.00957 289.7 35.6
333(9) 0.01008 289.7 35.1
344(10) 0.00903 289.7 34.4
298(9) 0.01041 289.7 33.5
291(9) 0.01071 289.7 32.5
314(9) 0.01033 289.7 31.3
334(9) 0.01008 289.7 30.0
298(9) 0.01054 289.7 28.7
309(10) 0.00983 289.7 27.4
324(10) 0.00956 289.7 26.1
336(10) 0.00977 289.7 24.8
312(9) 0.01068 289.7 23.5
283(9) 0.01123 289.7 22.4
336(10) 0.00868 289.7 21.2
293(9) 0.01044 289.7 20.2
294(9) 0.01126 289.7 19.2
318(9) 0.01060 289.7 18.2
285(9) 0.01140 289.7 17.4
303(10) 0.01000 289.7 16.6
310(9) 0.01041 289.7 15.8
280(9) 0.01170 289.7 15.1
311(9) 0.01079 289.7 14.5
309(9) 0.01045 289.7 13.9
328(10) 0.00900 289.7 13.4
299(9) 0.01071 289.7 12.9
304(9) 0.01114 289.7 12.5
299(9) 0.01122 289.7 12.1
326(10) 0.00921 289.7 11.7
293(9) 0.01036 289.7 11.4
306(9) 0.01023 289.7 11.0
296(9) 0.01132 289.7 10.8
316(9) 0.01068 289.7 10.5
295(9) 0.01058 289.7 10.3
308(10) 0.00940 289.7 10.0
297(9) 0.01047 289.7 9.8
305(9) 0.01108 289.7 9.7
301(9) 0.01094 289.7 9.5
319(10) 0.00990 289.7 9.3
310(10) 0.00951 289.7 9.2
312(10) 0.00993 289.7 9.1
307(9) 0.01084 289.7 9.0
338(10) 0.00977 289.7 8.9
308(9) 0.01023 289.7 8.8
280(9) 0.01113 289.7 8.7
293(9) 0.01093 289.7 8.6
302(9) 0.01109 289.7 8.5
285(9) 0.01130 289.7 8.5
284(9) 0.01053 289.7 8.5
289(9) 0.01038 289.7 8.4
275(9) 0.01160 289.7 8.4
310(9) 0.01070 289.7 8.4
290(9) 0.01131 289.7 8.4
335(10) 0.00920 289.7 8.4
310(10) 0.00997 289.7 8.5
284(9) 0.01099 289.7 8.5
264(8) 0.01262 289.7 8.6
286(9) 0.01098 289.7 8.6
299(10) 0.00997 289.7 8.7
308(9) 0.01017 289.7 8.8
307(9) 0.01068 289.7 9.0
310(9) 0.01068 289.7 9.1
312(9) 0.01013 289.7 9.3
302(9) 0.01030 289.7 9.5
313(10) 0.01007 289.7 9.7
296(9) 0.01131 289.7 9.9
302(9) 0.01101 289.7 10.2
316(10) 0.00966 289.7 10.5
316(10) 0.00941 289.7 10.8
293(9) 0.01069 289.7 11.1
282(9) 0.01161 289.7 11.5
290(9) 0.01130 289.7 11.9
315(10) 0.00986 289.7 12.3
310(10) 0.00985 289.7 12.8
307(9) 0.01042 289.7 13.2
301(9) 0.01114 289.7 13.7
310(9) 0.01093 289.7 14.2
311(9) 0.01035 289.7 14.7
309(10) 0.00953 289.7 15.2
299(9) 0.01048 289.7 15.7
297(9) 0.01129 289.7 16.1
294(9) 0.01134 289.7 16.5
312(9) 0.01036 289.7 16.9
324(10) 0.00922 289.7 17.1
316(10) 0.00990 289.7 17.3
294(9) 0.01159 289.7 17.4
296(9) 0.01091 289.7 17.3
308(9) 0.01015 289.7 17.2
291(9) 0.01031 289.7 16.9
300(9) 0.01044 289.7 16.6
306(9) 0.01092 289.7 16.2
306(9) 0.01081 289.7 15.7
300(9) 0.01075 289.7 15.2
290(9) 0.01057 289.7 14.6
306(10) 0.00995 289.7 14.1
295(9) 0.01128 289.7 13.5
286(9) 0.01107 289.7 13.0
294(9) 0.01055 289.7 12.4
294(9) 0.01030 289.7 11.9
294(9) 0.01068 289.7 11.4
307(9) 0.01099 289.7 10.9
268(9) 0.01195 289.7 10.5
300(10) 0.01000 289.7 10.0
299(9) 0.01008 289.7 9.6
275(9) 0.01177 289.7 9.3
295(9) 0.01132 289.7 8.9
280(9) 0.01118 289.7 8.6
303(9) 0.01009 289.7 8.3
276(9) 0.01165 289.7 8.0
299(9) 0.01085 289.7 7.8
297(9) 0.01126 289.7 7.6
269(9) 0.01186 289.7 7.3
281(9) 0.01044 289.7 7.1
284(9) 0.01076 289.7 7.0
291(9) 0.01116 289.7 6.8
303(9) 0.01104 289.7 6.6
310(10) 0.01001 289.7 6.5
282(9) 0.01061 289.7 6.4
278(9) 0.01105 289.6 6.3
306(9) 0.01048 289.6 6.2
283(9) 0.01168 289.6 6.1
266(9) 0.01227 289.5 6.0
312(10) 0.00948 289.5 5.9
326(10) 0.00989 289.5 5.8
311(9) 0.01091 289.4 5.7
294(9) 0.01129 289.4 5.7
289(9) 0.01111 289.4 5.6
318(10) 0.00913 289.3 5.6
286(9) 0.01130 289.3 5.5
312(9) 0.01074 289.3 5.5
296(9) 0.01129 289.2 5.4
302(10) 0.00987 289.2 5.4
294(9) 0.01021 289.2 5.3
292(9) 0.01116 289.1 5.3
299(9) 0.01128 289.1 5.3
296(9) 0.01101 289.1 5.2
300(9) 0.01050 289.0 5.2
307(10) 0.00981 289.0 5.2
284(9) 0.01066 289.0 5.2
299(9) 0.01117 288.9 5.2
299(9) 0.01097 288.9 5.1
296(9) 0.01028 288.9 5.1
291(9) 0.01035 288.8 5.1
283(9) 0.01146 288.8 5.1
277(9) 0.01191 288.8 5.1
295(9) 0.01083 288.7 5.1
301(9) 0.01043 288.7 5.1
318(10) 0.00998 288.7 5.1
318(9) 0.01018 288.6 5.1
291(9) 0.01153 288.6 5.1
290(9) 0.01102 288.6 5.1
274(9) 0.01158 288.5 5.1
315(9) 0.01015 288.5 5.1
309(9) 0.01046 288.5 5.1
302(9) 0.01111 288.4 5.1
304(9) 0.01026 288.4 5.1
288(9) 0.01048 288.4 5.1
291(9) 0.01081 288.3 5.1
311(9) 0.01064 288.3 5.1
295(9) 0.01122 288.3 5.1
278(9) 0.01116 288.3 5.2
304(10) 0.00951 288.2 5.2
272(9) 0.01153 288.2 5.2
286(9) 0.01154 288.2 5.2
286(9) 0.01152 288.1 5.2
303(10) 0.01000 288.1 5.3
314(10) 0.00944 288.1 5.3
307(9) 0.01061 288.0 5.3
293(9) 0.01142 288.0 5.3
293(9) 0.01144 288.0 5.4
305(9) 0.01018 287.9 5.4
273(9) 0.01066 287.9 5.4
273(9) 0.01147 287.9 5.5
290(9) 0.01131 287.8 5.5
294(9) 0.01126 287.8 5.6
308(10) 0.00977 287.8 5.6
267(9) 0.01072 287.7 5.6
293(9) 0.01031 287.7 5.7
292(9) 0.01152 287.7 5.7
310(9) 0.01072 287.6 5.8
319(10) 0.00979 287.6 5.8
285(9) 0.01034 287.6 5.9
273(9) 0.01157 287.5 5.9
301(9) 0.01108 287.5 6.0
301(9) 0.01081 287.5 6.1
294(9) 0.01048 287.4 6.1
288(9) 0.01045 287.4 6.2
314(10) 0.00958 287.4 6.3
273(9) 0.01223 287.3 6.3
283(9) 0.01165 287.3 6.4
294(9) 0.01083 287.3 6.5
285(9) 0.01059 287.2 6.6
286(9) 0.01059 287.2 6.7
320(9) 0.01041 287.2 6.8
296(9) 0.01073 287.1 6.8
282(9) 0.01089 287.1 6.9
311(10) 0.00956 287.1 7.1
289(9) 0.01075 287.0 7.2
282(9) 0.01182 287.0 7.3
277(9) 0.01142 287.0 7.4
296(9) 0.01026 286.9 7.5
280(9) 0.01091 286.9 7.7
319(10) 0.00988 286.9 7.8
319(9) 0.01057 286.8 7.9
308(9) 0.01025 286.8 8.1
300(10) 0.01004 286.8 8.2
284(9) 0.01070 286.7 8.4
299(9) 0.01067 286.7 8.6
283(9) 0.01175 286.7 8.8
295(9) 0.01060 286.6 9.0
291(9) 0.01064 286.6 9.2
289(9) 0.01106 286.6 9.4
284(9) 0.01123 286.5 9.6
303(9) 0.01112 286.5 9.9
284(9) 0.01113 286.5 10.1
282(9) 0.01057 286.4 10.4
283(9) 0.01113 286.4 10.7
315(9) 0.01040 286.4 11.0
296(9) 0.01123 286.3 11.3
298(9) 0.01058 286.3 11.7
289(9) 0.01055 286.3 12.0
289(9) 0.01116 286.2 12.4
285(9) 0.01186 286.2 12.9
278(9) 0.01151 286.2 13.3
301(9) 0.01023 286.1 13.8
315(10) 0.00945 286.1 14.3
309(9) 0.01047 286.1 14.9
324(9) 0.01043 286.0 15.5
318(9) 0.01047 286.0 16.2
306(10) 0.00997 286.0 17.0
304(10) 0.00959 285.9 17.8
309(9) 0.01060 285.9 18.6
334(9) 0.01012 285.9 19.6
322(9) 0.01041 285.8 20.6
299(9) 0.01079 285.8 21.7
294(9) 0.01015 285.8 22.9
296(9) 0.01025 285.7 24.2
315(9) 0.01065 285.7 25.6
333(10) 0.01004 285.7 27.1
319(10) 0.01003 285.6 28.8
321(10) 0.00933 285.6 30.5
316(9) 0.01014 285.6 32.4
339(10) 0.00995 285.5 34.4
324(9) 0.01025 285.5 36.6
315(9) 0.01019 285.5 38.9
325(10) 0.00979 285.4 41.2
341(10) 0.00933 285.4 43.7
307(9) 0.01091 285.4 46.3
335(10) 0.00968 285.3 48.9
332(10) 0.00882 285.3 51.4
347(10) 0.00863 285.3 54.0
352(10) 0.00889 285.2 56.3
335(9) 0.01013 285.2 58.5
346(10) 0.00925 285.2 60.5
369(11) 0.00809 285.1 62.0
334(10) 0.00935 285.1 63.2
345(10) 0.00968 285.1 63.9
356(10) 0.00948 285.0 64.1
357(10) 0.00880 285.0 63.9
370(11) 0.00832 285.0 63.2
363(10) 0.00886 284.9 62.1
325(9) 0.01026 284.9 60.7
360(10) 0.00950 284.9 59.0
321(9) 0.01012 284.8 57.2
354(10) 0.00887 284.8 55.3
364(10) 0.00892 284.8 53.3
376(10) 0.00872 284.7 51.3
332(9) 0.01019 284.7 49.3
350(10) 0.00933 284.7 47.4
347(10) 0.00853 284.6 45.5
350(10) 0.00914 284.6 43.8
338(10) 0.00999 284.6 42.1
331(10) 0.00998 284.5 40.5
344(10) 0.00931 284.5 39.1
354(10) 0.00839 284.5 37.7
358(10) 0.00905 284.4 36.4
345(10) 0.00969 284.4 35.2
336(10) 0.00987 284.4 34.1
364(10) 0.00907 284.3 33.1
348(10) 0.00846 284.3 32.1
324(10) 0.00954 284.3 31.3
331(9) 0.01024 284.2 30.5
343(10) 0.00988 284.2 29.7
316(9) 0.01027 284.2 29.1
321(10) 0.00942 284.1 28.5
309(10) 0.00991 284.1 28.0
313(9) 0.01075 284.1 27.5
310(9) 0.01064 284.0 27.0
326(10) 0.00939 284.0 26.7
323(10) 0.00912 284.0 26.3
301(9) 0.01036 283.9 26.0
336(10) 0.00997 283.9 25.8
347(10) 0.00952 283.9 25.6
330(10) 0.00931 283.8 25.4
338(10) 0.00864 283.8 25.2
303(9) 0.01025 283.8 25.1
317(9) 0.01064 283.7 25.1
291(9) 0.01125 283.7 25.0
343(10) 0.00931 283.7 25.0
321(10) 0.01007 283.6 25.0
304(9) 0.01053 283.6 25.1
318(9) 0.01060 283.6 25.1
330(10) 0.00984 283.5 25.2
323(10) 0.00979 283.5 25.4
295(9) 0.01091 283.5 25.5
327(10) 0.00979 283.4 25.7
338(10) 0.01007 283.4 25.9
310(10) 0.01005 283.4 26.2
313(10) 0.00977 283.3 26.5
317(9) 0.01008 283.3 26.8
337(10) 0.00982 283.3 27.2
312(9) 0.01074 283.2 27.6
349(10) 0.00885 283.2 28.1
338(10) 0.00881 283.2 28.7
312(10) 0.01004 283.1 29.4
325(9) 0.01015 283.1 30.2
319(9) 0.01054 283.1 31.1
324(10) 0.00993 283.0 32.2
314(10) 0.01005 283.0 33.4
354(10) 0.00911 283.0 34.8
366(10) 0.00921 282.9 36.5
375(10) 0.00890 282.9 38.4
333(10) 0.00910 282.9 40.5
361(11) 0.00821 282.8 42.8
357(10) 0.00888 282.8 45.3
401(10) 0.00858 282.8 47.8
361(10) 0.00934 282.7 50.4
367(10) 0.00872 282.7 52.7
379(11) 0.00779 282.7 54.6
389(11) 0.00816 282.6 55.9
373(10) 0.00912 282.6 56.3
394(10) 0.00860 282.6 55.9
354(10) 0.00933 282.5 54.6
386(11) 0.00759 282.5 52.9
371(11) 0.00821 282.5 50.7
351(10) 0.00971 282.4 48.5
339(10) 0.00980 282.4 46.2
341(10) 0.00953 282.4 44.2
339(10) 0.00910 282.3 42.3
342(10) 0.00933 282.3 40.6
360(10) 0.00943 282.3 39.2
345(10) 0.00971 282.2 38.0
339(10) 0.00942 282.2 37.0
331(10) 0.00928 282.2 36.1
347(10) 0.00909 282.1 35.5
321(9) 0.01044 282.1 35.0
323(10) 0.00999 282.1 34.6
344(10) 0.00892 282.0 34.3
320(10) 0.00970 282.0 34.1
329(10) 0.00966 282.0 33.9
338(10) 0.01002 281.9 33.8
334(10) 0.00946 281.9 33.8
346(10) 0.00910 281.9 33.7
329(10) 0.00963 281.8 33.7
307(9) 0.01041 281.8 33.7
310(9) 0.01080 281.8 33.6
314(9) 0.01027 281.7 33.6
320(10) 0.00987 281.7 33.6
313(9) 0.01030 281.7 33.5
315(9) 0.01037 281.6 33.5
326(9) 0.01030 281.6 33.4
319(10) 0.00985 281.6 33.3
307(10) 0.00995 281.5 33.2
343(10) 0.00908 281.5 33.0
337(10) 0.00973 281.5 32.8
324(9) 0.01042 281.4 32.6
319(10) 0.00992 281.4 32.4
290(9) 0.01072 281.4 32.2
316(10) 0.00988 281.3 31.9
321(9) 0.01051 281.3 31.7
323(9) 0.01034 281.3 31.4
299(9) 0.01061 281.2 31.1
310(10) 0.00947 281.2 30.8
321(10) 0.00974 281.2 30.5
321(9) 0.01041 281.1 30.1
347(10) 0.00974 281.1 29.8
332(10) 0.00965 281.1 29.5
319(10) 0.00953 281.0 29.2
319(10) 0.00960 281.0 28.9
345(10) 0.00966 281.0 28.6
324(9) 0.01040 280.9 28.4
319(10) 0.00994 280.9 28.1
300(10) 0.01002 280.9 27.8
302(9) 0.01049 280.8 27.6
310(9) 0.01089 280.8 27.4
305(9) 0.01079 280.8 27.2
285(9) 0.01076 280.7 27.0
301(10) 0.00986 280.7 26.9
329(10) 0.00950 280.7 26.8
296(9) 0.01124 280.6 26.6
332(10) 0.01004 280.6 26.6
304(9) 0.01070 280.6 26.5
279(9) 0.01071 280.5 26.4
303(9) 0.01023 280.5 26.4
324(9) 0.01045 280.5 26.4
316(9) 0.01025 280.4 26.4
312(9) 0.01021 280.4 26.4
313(9) 0.01009 280.4 26.4
316(9) 0.01015 280.3 26.5
319(9) 0.01058 280.3 26.5
310(9) 0.01049 280.3 26.6
294(9) 0.01062 280.2 26.6
295(9) 0.01050 280.2 26.7
323(10) 0.00977 280.2 26.7
308(9) 0.01083 280.1 26.7
324(10) 0.01005 280.1 26.8
348(10) 0.00884 280.1 26.8
316(10) 0.01003 280.0 26.7
299(9) 0.01054 280.0 26.7
305(9) 0.01090 280.0 26.6
307(10) 0.01005 279.9 26.5
311(10) 0.00991 279.9 26.4
322(10) 0.00950 279.9 26.3
306(9) 0.01034 279.8 26.1
296(9) 0.01136 279.8 25.9
303(9) 0.01064 279.8 25.6
335(10) 0.00912 279.7 25.4
311(9) 0.01050 279.7 25.1
304(9) 0.01106 279.7 24.8
302(9) 0.01089 279.6 24.5
285(9) 0.01096 279.6 24.2
304(10) 0.00970 279.6 23.8
312(10) 0.01006 279.5 23.5
329(9) 0.01023 279.5 23.2
288(9) 0.01156 279.5 22.8
298(9) 0.01070 279.4 22.5
317(10) 0.00911 279.4 22.2
302(9) 0.01035 279.4 21.9
323(9) 0.01049 279.3 21.6
291(9) 0.01138 279.3 21.4
330(10) 0.00970 279.3 21.1
333(10) 0.00894 279.2 20.9
297(9) 0.01079 279.2 20.7
297(9) 0.01125 279.2 20.5
295(9) 0.01109 279.1 20.4
315(10) 0.00988 279.1 20.3
298(10) 0.01007 279.1 20.2
321(10) 0.00986 279.0 20.1
309(9) 0.01073 279.0 20.1
335(10) 0.00984 279.0 20.2
309(10) 0.01005 278.9 20.3
313(10) 0.00980 278.9 20.4
310(9) 0.01045 278.9 20.6
293(9) 0.01145 278.8 20.8
287(9) 0.01131 278.8 21.1
294(9) 0.01094 278.8 21.5
305(9) 0.01034 278.7 21.9
305(9) 0.01043 278.7 22.4
316(9) 0.01066 278.7 23.1
304(9) 0.01092 278.6 23.8
289(9) 0.01083 278.6 24.7
304(9) 0.01008 278.6 25.7
310(9) 0.01043 278.5 26.9
313(9) 0.01067 278.5 28.2
358(10) 0.00893 278.5 29.7
338(10) 0.00933 278.4 31.4
320(10) 0.00983 278.4 33.3
336(10) 0.00976 278.4 35.4
336(10) 0.01003 278.3 37.7
357(10) 0.00880 278.3 40.2
334(10) 0.00977 278.3 42.9
355(10) 0.00884 278.2 45.7
327(10) 0.00997 278.2 48.5
344(10) 0.00978 278.2 51.3
361(10) 0.00895 278.1 53.9
364(11) 0.00835 278.1 56.3
340(10) 0.00917 278.1 58.3
365(10) 0.00931 278.0 60.0
354(10) 0.00959 278.0 61.4
368(10) 0.00870 278.0 62.7
353(10) 0.00848 277.9 63.8
356(10) 0.00872 277.9 65.0
354(10) 0.00948 277.9 66.5
379(10) 0.00909 277.8 68.2
393(11) 0.00822 277.8 70.4
382(11) 0.00765 277.8 73.0
347(10) 0.00926 277.7 76.1
390(10) 0.00867 277.7 79.6
386(10) 0.00888 277.7 83.7
392(11) 0.00831 277.6 88.1
419(11) 0.00722 277.6 92.8
420(11) 0.00757 277.6 97.8
422(11) 0.00815 277.5 102.9
442(11) 0.00781 277.5 107.9
455(12) 0.00704 277.5 112.6
457(12) 0.00642 277.4 116.7
446(11) 0.00729 277.4 120.0
437(11) 0.00799 277.4 122.2
429(11) 0.00798 277.3 123.3
443(11) 0.00710 277.3 123.0
442(12) 0.00678 277.3 121.4
416(11) 0.00752 277.2 118.5
426(11) 0.00816 277.2 114.5
424(11) 0.00776 277.2 109.7
369(10) 0.00855 277.1 104.2
406(11) 0.00747 277.1 98.4
368(10) 0.00887 277.1 92.3
374(10) 0.00914 277.0 86.2
369(10) 0.00886 277.0 80.2
367(10) 0.00861 277.0 74.5
346(10) 0.00902 276.9 69.0
352(10) 0.00920 276.9 63.8
364(10) 0.00934 276.9 59.0
353(10) 0.00914 276.8 54.6
361(10) 0.00850 276.8 50.5
347(10) 0.00890 276.8 46.7
332(10) 0.00989 276.7 43.2
339(10) 0.01000 276.7 40.1
342(10) 0.00929 276.7 37.3
313(10) 0.00998 276.6 34.7
308(10) 0.01008 276.6 32.4
319(9) 0.01034 276.6 30.3
322(9) 0.01047 276.5 28.4
327(10) 0.00955 276.5 26.6
325(10) 0.00942 276.5 25.1
306(9) 0.01032 276.4 23.7
302(9) 0.01086 276.4 22.4
302(9) 0.01106 276.4 21.3
341(10) 0.00926 276.3 20.3
293(9) 0.01048 276.3 19.3
298(9) 0.01043 276.3 18.5
294(9) 0.01115 276.2 17.7
267(9) 0.01227 276.2 17.0
280(9) 0.01100 276.2 16.4
314(10) 0.00937 276.1 15.8
306(9) 0.01064 276.1 15.3
280(9) 0.01154 276.1 14.8
278(9) 0.01187 276.0 14.3
288(9) 0.01121 276.0 13.9
290(9) 0.01031 276.0 13.5
299(9) 0.01063 275.9 13.2
302(9) 0.01105 275.9 12.8
300(9) 0.01118 275.9 12.5
301(9) 0.01049 275.8 12.3
287(9) 0.01040 275.8 12.0
306(9) 0.01047 275.8 11.8
277(9) 0.01178 275.7 11.6
289(9) 0.01129 275.7 11.4
273(9) 0.01132 275.7 11.2
290(9) 0.01023 275.6 11.1
265(9) 0.01186 275.6 11.0
289(9) 0.01142 275.6 10.8
292(9) 0.01136 275.5 10.7
298(9) 0.01056 275.5 10.7
301(9) 0.01026 275.5 10.6
279(9) 0.01130 275.4 10.5
312(9) 0.01078 275.4 10.5
314(9) 0.01039 275.4 10.5
315(10) 0.00974 275.3 10.5
268(9) 0.01145 275.3 10.5
270(9) 0.01138 275.3 10.5
261(8) 0.01260 275.2 10.5
274(9) 0.01150 275.2 10.6
291(9) 0.01034 275.2 10.6
283(9) 0.01074 275.1 10.7
306(9) 0.01039 275.1 10.8
295(9) 0.01120 275.1 10.9
287(9) 0.01123 275.0 11.0
284(9) 0.01098 275.0 11.1
292(10) 0.01007 275.0 11.2
289(9) 0.01093 274.9 11.3
297(9) 0.01113 274.9 11.4
267(9) 0.01138 274.9 11.5
285(9) 0.01078 274.8 11.6
303(9) 0.01038 274.8 11.7
287(9) 0.01112 274.8 11.8
281(9) 0.01177 274.7 11.9
289(9) 0.01057 274.7 12.0
278(9) 0.01059 274.7 12.1
286(9) 0.01096 274.6 12.1
287(9) 0.01146 274.6 12.1
305(9) 0.01098 274.6 12.1
296(9) 0.01064 274.5 12.1
273(9) 0.01086 274.5 12.1
289(9) 0.01041 274.5 12.0
257(8) 0.01263 274.4 11.9
298(9) 0.01129 274.4 11.8
286(9) 0.01098 274.4 11.7
301(10) 0.00987 274.3 11.6
331(10) 0.00967 274.3 11.4
287(9) 0.01156 274.3 11.2
277(9) 0.01197 274.2 11.0
268(9) 0.01135 274.2 10.8
309(10) 0.00905 274.2 10.6
278(9) 0.01062 274.1 10.4
254(8) 0.01303 274.1 10.2
265(9) 0.01203 274.1 10.0
301(10) 0.01002 274.0 9.8
288(9) 0.01022 274.0 9.6
319(10) 0.00957 274.0 9.4
289(9) 0.01164 273.9 9.1
283(9) 0.01161 273.9 8.9
284(9) 0.01126 273.9 8.7
288(9) 0.01024 273.8 8.6
296(9) 0.01029 273.8 8.4
276(9) 0.01200 273.8 8.2
268(9) 0.01211 273.7 8.0
288(9) 0.01069 273.7 7.9
282(9) 0.01098 273.7 7.7
278(9) 0.01122 273.6 7.6
278(9) 0.01200 273.6 7.4
287(9) 0.01098 273.6 7.3
290(9) 0.01083 273.5 7.2
279(9) 0.01132 273.5 7.1
294(9) 0.01059 273.5 7.0
266(8) 0.01240 273.4 6.9
268(9) 0.01206 273.4 6.8
289(9) 0.01054 273.4 6.7
288(9) 0.01071 273.3 6.6
295(9) 0.01096 273.3 6.5
282(9) 0.01180 273.3 6.4
288(9) 0.01057 273.2 6.4
290(9) 0.01022 273.2 6.3
276(9) 0.01150 273.2 6.2
279(9) 0.01162 273.1 6.2
276(9) 0.01190 273.1 6.1
264(9) 0.01196 273.1 6.1
314(10) 0.00969 273.0 6.1
267(9) 0.01192 273.0 6.0
273(9) 0.01201 273.0 6.0
277(9) 0.01190 272.9 6.0
287(9) 0.01111 272.9 5.9
266(9) 0.01138 272.9 5.9
286(9) 0.01103 272.8 5.9
281(9) 0.01179 272.8 5.9
296(9) 0.01140 272.8 5.8
272(9) 0.01177 272.7 5.8
276(9) 0.01069 272.7 5.8
283(9) 0.01077 272.7 5.8
261(8) 0.01248 272.6 5.8
265(9) 0.01226 272.6 5.8
260(9) 0.01180 272.6 5.8
274(9) 0.01021 272.6 5.8
284(9) 0.01101 272.6 5.8
283(9) 0.01165 272.5 5.8
258(8) 0.01297 272.5 5.8
279(9) 0.01134 272.5 5.7
279(9) 0.01027 272.5 5.7
276(9) 0.01118 272.5 5.7
280(9) 0.01196 272.5 5.7
290(9) 0.01129 272.5 5.7
250(8) 0.01253 272.4 5.7
276(9) 0.01064 272.4 5.7
285(9) 0.01070 272.4 5.7
286(9) 0.01153 272.4 5.7
294(9) 0.01112 272.4 5.7
275(9) 0.01135 272.4 5.7
288(9) 0.01016 272.4 5.7
263(9) 0.01207 272.4 5.7
270(9) 0.01222 272.3 5.7
271(9) 0.01192 272.3 5.7
281(9) 0.01104 272.3 5.7
293(9) 0.01019 272.3 5.7
261(9) 0.01190 272.3 5.6
296(9) 0.01123 272.3 5.6
282(9) 0.01123 272.3 5.6
278(9) 0.01108 272.3 5.6
294(9) 0.01049 272.2 5.6
276(9) 0.01146 272.2 5.6
273(9) 0.01209 272.2 5.5
275(9) 0.01150 272.2 5.5
275(9) 0.01133 272.2 5.5
272(9) 0.01156 272.2 5.5
282(9) 0.01161 272.2 5.4
255(8) 0.01288 272.1 5.4
312(10) 0.00979 272.1 5.4
307(10) 0.00999 272.1 5.4
278(9) 0.01111 272.1 5.3
282(9) 0.01162 272.1 5.3
259(8) 0.01262 272.1 5.3
279(9) 0.01105 272.1 5.2
289(9) 0.01028 272.1 5.2
273(9) 0.01095 272.0 5.2
276(9) 0.01194 272.0 5.1
279(9) 0.01188 272.0 5.1
301(9) 0.01013 272.0 5.1
270(9) 0.01111 272.0 5.0
281(9) 0.01145 272.0 5.0
299(9) 0.01105 272.0 5.0
285(9) 0.01164 272.0 4.9
277(9) 0.01110 271.9 4.9
283(9) 0.01034 271.9 4.9
301(9) 0.01048 271.9 4.8
269(9) 0.01201 271.9 4.8
265(8) 0.01245 271.9 4.8
290(9) 0.01056 271.9 4.7
259(9) 0.01132 271.9 4.7
274(9) 0.01145 271.8 4.6
291(9) 0.01128 271.8 4.6
276(9) 0.01168 271.8 4.6
275(9) 0.01121 271.8 4.5
273(9) 0.01096 271.8 4.5
275(9) 0.01143 271.8 4.5
278(9) 0.01204 271.8 4.4
278(9) 0.01159 271.8 4.4
266(9) 0.01203 271.7 4.4
288(9) 0.01065 271.7 4.3
269(9) 0.01152 271.7 4.3
274(9) 0.01203 271.7 4.3
270(9) 0.01225 271.7 4.3
283(9) 0.01077 271.7 4.2
276(9) 0.01066 271.7 4.2
268(9) 0.01155 271.7 4.2
274(9) 0.01209 271.6 4.1
304(9) 0.01070 271.6 4.1
276(9) 0.01141 271.6 4.1
269(9) 0.01127 271.6 4.1
299(9) 0.01061 271.6 4.0
284(9) 0.01169 271.6 4.0
296(9) 0.01025 271.6 4.0
264(9) 0.01162 271.5 4.0
287(9) 0.01074 271.5 4.0
288(9) 0.01126 271.5 3.9
282(9) 0.01176 271.5 3.9
272(9) 0.01120 271.5 3.9
276(9) 0.01087 271.5 3.9
277(9) 0.01136 271.5 3.9
264(8) 0.01244 271.5 3.9
267(8) 0.01233 271.4 3.8
269(9) 0.01132 271.4 3.8
268(9) 0.01117 271.4 3.8
277(9) 0.01129 271.4 3.8
283(9) 0.01167 271.4 3.8
277(9) 0.01174 271.4 3.8
284(9) 0.01036 271.4 3.8
273(9) 0.01076 271.4 3.7
273(9) 0.01144 271.3 3.7
286(9) 0.01144 271.3 3.7
251(8) 0.01293 271.3 3.7
267(9) 0.01151 271.3 3.7
256(9) 0.01135 271.3 3.7
268(9) 0.01203 271.3 3.7
322(9) 0.01034 271.3 3.7
257(8) 0.01287 271.2 3.7
271(9) 0.01161 271.2 3.7
279(9) 0.01043 271.2 3.7
267(9) 0.01221 271.2 3.7
280(9) 0.01173 271.2 3.7
273(9) 0.01194 271.2 3.7
284(9) 0.01114 271.2 3.7
279(9) 0.01087 271.2 3.7
289(9) 0.01075 271.1 3.7
237(8) 0.01385 271.1 3.7
253(8) 0.01257 271.1 3.7
277(9) 0.01146 271.1 3.7
273(9) 0.01113 271.1 3.7
288(9) 0.01053 271.1 3.7
273(9) 0.01220 271.1 3.7
263(8) 0.01238 271.1 3.7
286(9) 0.01070 271.0 3.7
269(9) 0.01105 271.0 3.7
266(9) 0.01170 271.0 3.7
279(9) 0.01203 271.0 3.7
273(9) 0.01155 271.0 3.7
274(9) 0.01089 271.0 3.8
278(9) 0.01053 271.0 3.8
291(9) 0.01094 271.0 3.8
284(9) 0.01168 270.9 3.8
269(9) 0.01203 270.9 3.8
277(9) 0.01092 270.9 3.8
261(9) 0.01200 270.9 3.8
260(9) 0.01228 270.9 3.9
274(9) 0.01206 270.9 3.9
271(9) 0.01156 270.9 3.9
276(9) 0.01146 270.8 3.9
272(9) 0.01187 270.8 3.9
267(9) 0.01222 270.8 4.0
282(9) 0.01174 270.8 4.0
290(9) 0.01048 270.8 4.0
259(9) 0.01146 270.8 4.0
251(9) 0.01222 270.8 4.1
269(9) 0.01203 270.8 4.1
254(8) 0.01298 270.7 4.1
263(9) 0.01159 270.7 4.1
278(9) 0.01069 270.7 4.2
260(9) 0.01198 270.7 4.2
267(9) 0.01210 270.7 4.2
267(8) 0.01240 270.7 4.3
262(9) 0.01197 270.7 4.3
258(9) 0.01111 270.7 4.4
271(9) 0.01126 270.6 4.4
273(9) 0.01210 270.6 4.5
262(8) 0.01240 270.6 4.5
280(9) 0.01083 270.6 4.6
258(9) 0.01131 270.6 4.6
288(9) 0.01095 270.6 4.7
283(9) 0.01169 270.6 4.7
315(9) 0.01061 270.5 4.8
265(9) 0.01211 270.5 4.9
291(9) 0.01029 270.5 4.9
268(9) 0.01206 270.5 5.0
290(9) 0.01147 270.5 5.1
278(9) 0.01200 270.5 5.2
253(8) 0.01259 270.5 5.2
252(9) 0.01173 270.5 5.3
277(9) 0.01077 270.4 5.4
277(9) 0.01197 270.4 5.5
260(8) 0.01236 270.4 5.7
270(9) 0.01131 270.4 5.8
313(10) 0.00976 270.4 5.9
276(9) 0.01142 270.4 6.1
274(9) 0.01212 270.4 6.2
263(9) 0.01230 270.4 6.4
259(9) 0.01223 270.3 6.6
277(9) 0.01100 270.3 6.8
263(9) 0.01165 270.3 7.0
295(9) 0.01116 270.3 7.3
278(9) 0.01108 270.3 7.5
274(9) 0.01093 270.3 7.9
271(9) 0.01169 270.3 8.2
314(9) 0.01029 270.2 8.7
284(9) 0.01169 270.2 9.2
280(9) 0.01113 270.2 9.7
275(9) 0.01093 270.2 10.4
271(9) 0.01139 270.2 11.2
284(9) 0.01131 270.2 12.0
305(9) 0.01099 270.2 13.1
284(9) 0.01120 270.2 14.2
285(9) 0.01014 270.1 15.6
265(9) 0.01179 270.1 17.1
293(9) 0.01115 270.1 18.7
302(9) 0.01119 270.1 20.6
300(10) 0.01006 270.1 22.5
297(9) 0.01021 270.1 24.5
316(9) 0.01014 270.1 26.5
299(9) 0.01124 270.1 28.4
292(9) 0.01141 270.0 29.9
306(9) 0.01044 270.0 30.9
298(10) 0.00995 270.0 31.4
291(9) 0.01075 270.0 31.1
314(9) 0.01061 270.0 30.3
312(9) 0.01072 270.0 29.0
296(9) 0.01074 270.0 27.3
302(10) 0.00924 269.9 25.5
294(9) 0.01055 269.9 23.7
277(9) 0.01209 269.9 21.9
299(9) 0.01105 269.9 20.3
278(9) 0.01130 269.9 18.8
264(9) 0.01077 269.9 17.5
283(9) 0.01096 269.9 16.4
299(9) 0.01124 269.9 15.4
309(9) 0.01075 269.8 14.6
300(9) 0.01058 269.8 13.9
292(9) 0.01081 269.8 13.4
290(9) 0.01075 269.8 12.9
292(9) 0.01140 269.8 12.6
292(9) 0.01116 269.8 12.4
277(9) 0.01147 269.8 12.2
291(9) 0.01031 269.8 12.1
274(9) 0.01146 269.7 12.1
287(9) 0.01159 269.7 12.1
275(9) 0.01135 269.7 12.1
280(9) 0.01107 269.7 12.2
262(9) 0.01197 269.7 12.4
276(9) 0.01133 269.7 12.6
271(9) 0.01227 269.7 12.8
278(9) 0.01156 269.6 13.1
302(10) 0.01007 269.6 13.4
281(9) 0.01119 269.6 13.8
264(9) 0.01216 269.6 14.2
274(9) 0.01224 269.6 14.6
297(9) 0.01114 269.6 15.2
301(9) 0.01058 269.6 15.7
294(9) 0.01055 269.6 16.3
270(9) 0.01188 269.5 17.0
290(9) 0.01158 269.5 17.8
294(9) 0.01075 269.5 18.6
294(9) 0.01060 269.5 19.5
282(9) 0.01132 269.5 20.4
294(9) 0.01120 269.5 21.4
282(9) 0.01174 269.5 22.4
303(9) 0.01040 269.5 23.6
290(9) 0.01068 269.4 24.7
283(9) 0.01115 269.4 25.8
277(9) 0.01161 269.4 27.0
294(9) 0.01138 269.4 28.1
274(9) 0.01147 269.4 29.1
307(10) 0.00956 269.4 30.1
294(9) 0.01076 269.4 30.9
307(9) 0.01089 269.3 31.5
292(9) 0.01151 269.3 32.0
326(10) 0.00928 269.3 32.2
294(10) 0.00978 269.3 32.3
272(9) 0.01128 269.3 32.3
287(9) 0.01166 269.3 32.1
317(9) 0.01056 269.3 31.8
280(9) 0.01148 269.3 31.6
303(10) 0.00950 269.2 31.3
280(9) 0.01079 269.2 31.0
282(9) 0.01187 269.2 30.8
305(9) 0.01091 269.2 30.6
302(9) 0.01034 269.2 30.6
315(10) 0.00954 269.2 30.6
293(9) 0.01043 269.2 30.7
289(9) 0.01156 269.2 30.9
283(9) 0.01132 269.1 31.3
301(10) 0.00990 269.1 31.7
268(9) 0.01115 269.1 32.3
300(9) 0.01008 269.1 33.0
282(9) 0.01182 269.1 33.8
266(9) 0.01225 269.1 34.7
291(9) 0.01057 269.1 35.7
303(10) 0.00994 269.0 36.8
312(9) 0.01010 269.0 38.1
311(9) 0.01075 269.0 39.4
304(9) 0.01068 269.0 40.9
323(10) 0.00968 269.0 42.5
334(10) 0.00951 269.0 44.2
335(10) 0.00962 269.0 46.0
333(9) 0.01015 269.0 47.8
323(10) 0.00990 268.9 49.8
312(9) 0.01017 268.9 51.9
325(10) 0.00956 268.9 54.0
310(9) 0.01073 268.9 56.2
323(9) 0.01037 268.9 58.5
344(10) 0.00895 268.9 60.8
357(10) 0.00861 268.9 63.1
366(10) 0.00867 268.9 65.5
353(10) 0.00943 268.8 67.7
336(9) 0.01014 268.8 70.0
349(10) 0.00918 268.8 72.1
353(10) 0.00892 268.8 74.1
348(10) 0.00924 268.8 75.9
363(10) 0.00932 268.8 77.5
349(10) 0.00972 268.8 78.8
345(10) 0.00943 268.7 79.9
366(11) 0.00816 268.7 80.7
325(10) 0.01001 268.7 81.2
348(10) 0.00955 268.7 81.4
349(10) 0.00975 268.7 81.3
358(10) 0.00883 268.7 80.8
353(11) 0.00835 268.7 80.1
342(10) 0.00923 268.7 79.1
324(9) 0.01049 268.6 77.9
348(10) 0.00970 268.6 76.4
324(10) 0.00985 268.6 74.9
333(10) 0.00889 268.6 73.2
361(10) 0.00891 268.6 71.4
315(9) 0.01051 268.6 69.5
333(9) 0.01026 268.6 67.6
329(10) 0.00986 268.6 65.7
331(10) 0.00913 268.5 63.8
348(10) 0.00908 268.5 62.0
328(9) 0.01021 268.5 60.2
280(9) 0.01191 268.5 58.5
328(10) 0.00994 268.5 56.8
322(10) 0.00951 268.5 55.2
322(10) 0.00983 268.5 53.7
313(9) 0.01069 268.5 52.2
303(9) 0.01056 268.4 50.8
318(10) 0.00977 268.4 49.5
314(10) 0.00971 268.4 48.3
321(10) 0.00962 268.4 47.2
314(9) 0.01061 268.4 46.1
315(9) 0.01020 268.4 45.1
310(9) 0.01017 268.4 44.1
307(9) 0.01028 268.3 43.2
318(10) 0.01001 268.3 42.4
331(9) 0.01009 268.3 41.6
290(9) 0.01089 268.3 40.8
317(10) 0.00942 268.3 40.1
328(10) 0.00934 268.3 39.4
317(9) 0.01027 268.3 38.8
306(9) 0.01101 268.3 38.1
300(9) 0.01012 268.2 37.5
317(10) 0.00923 268.2 36.9
296(9) 0.01064 268.2 36.4
306(9) 0.01076 268.2 35.8
317(9) 0.01068 268.2 35.2
328(10) 0.00960 268.2 34.7
316(10) 0.00980 268.2 34.1
325(10) 0.01001 268.2 33.6
312(9) 0.01049 268.1 33.0
306(9) 0.01099 268.1 32.5
312(9) 0.01013 268.1 31.9
298(10) 0.00988 268.1 31.4
289(9) 0.01082 268.1 30.8
280(9) 0.01188 268.1 30.3
287(9) 0.01155 268.1 29.7
307(10) 0.00990 268.0 29.2
281(9) 0.01033 268.0 28.7
294(9) 0.01056 268.0 28.1
286(9) 0.01154 268.0 27.6
286(9) 0.01132 268.0 27.0
322(10) 0.00994 268.0 26.5
329(10) 0.00899 268.0 26.0
304(9) 0.01054 268.0 25.5
303(9) 0.01094 267.9 25.0
312(9) 0.01062 267.9 24.5
290(9) 0.01131 267.9 24.0
289(9) 0.01057 267.9 23.5
320(10) 0.00981 267.9 23.0
305(9) 0.01096 267.9 22.5
283(9) 0.01154 267.9 22.1
286(9) 0.01100 267.9 21.7
278(9) 0.01050 267.8 21.2
299(9) 0.01024 267.8 20.8
285(9) 0.01168 267.8 20.4
304(9) 0.01057 267.8 20.0
286(9) 0.01121 267.8 19.6
315(10) 0.00958 267.8 19.3
268(9) 0.01123 267.8 18.9
271(9) 0.01229 267.7 18.6
259(9) 0.01198 267.7 18.3
274(9) 0.01068 267.7 18.0
249(8) 0.01260 267.7 17.7
276(9) 0.01162 267.7 17.4
296(9) 0.01133 267.7 17.1
293(9) 0.01120 267.7 16.8
278(9) 0.01140 267.7 16.6
280(9) 0.01136 267.6 16.4
292(9) 0.01108 267.6 16.1
305(9) 0.01096 267.6 15.9
275(9) 0.01149 267.6 15.7
257(9) 0.01197 267.6 15.6
270(9) 0.01146 267.6 15.4
296(9) 0.01070 267.6 15.2
283(9) 0.01181 267.6 15.1
286(9) 0.01080 267.5 15.0
294(9) 0.01020 267.5 14.8
287(9) 0.01071 267.5 14.7
271(9) 0.01202 267.5 14.7
273(9) 0.01215 267.5 14.6
262(9) 0.01198 267.5 14.5
267(9) 0.01104 267.5 14.5
263(9) 0.01120 267.4 14.4
267(9) 0.01203 267.4 14.4
277(9) 0.01202 267.4 14.4
293(9) 0.01059 267.4 14.4
275(9) 0.01056 267.4 14.4
265(9) 0.01187 267.4 14.5
273(9) 0.01220 267.4 14.5
287(9) 0.01147 267.4 14.6
266(9) 0.01158 267.3 14.6
293(10) 0.00975 267.3 14.7
303(9) 0.01020 267.3 14.8
272(9) 0.01213 267.3 14.9
282(9) 0.01175 267.3 15.1
278(9) 0.01126 267.3 15.2
283(9) 0.01013 267.3 15.4
275(9) 0.01085 267.3 15.5
284(9) 0.01177 267.2 15.7
274(9) 0.01212 267.2 15.9
288(9) 0.01080 267.2 16.1
291(9) 0.01026 267.2 16.3
283(9) 0.01127 267.2 16.5
278(9) 0.01208 267.2 16.7
287(9) 0.01111 267.2 16.9
277(9) 0.01105 267.1 17.1
281(9) 0.01035 267.1 17.3
280(9) 0.01119 267.1 17.5
293(9) 0.01133 267.1 17.6
292(9) 0.01111 267.1 17.8
295(9) 0.01074 267.1 18.0
295(9) 0.01058 267.1 18.1
287(9) 0.01119 267.1 18.2
303(9) 0.01098 267.0 18.3
278(9) 0.01129 267.0 18.4
269(9) 0.01145 267.0 18.5
265(9) 0.01155 267.0 18.5
275(9) 0.01167 267.0 18.5
285(9) 0.01161 267.0 18.5
269(9) 0.01179 267.0 18.6
287(9) 0.01067 267.0 18.6
291(9) 0.01054 266.9 18.5
281(9) 0.01168 266.9 18.5
312(9) 0.01068 266.9 18.5
312(10) 0.00992 266.9 18.5
294(9) 0.01039 266.9 18.5
289(9) 0.01072 266.9 18.5
291(9) 0.01088 266.9 18.5
298(9) 0.01120 266.8 18.4
318(10) 0.00954 266.8 18.4
281(9) 0.01087 266.8 18.4
294(9) 0.01056 266.8 18.4
289(9) 0.01128 266.8 18.4
293(9) 0.01137 266.8 18.4
279(9) 0.01126 266.8 18.4
285(9) 0.01024 266.8 18.4
295(9) 0.01084 266.7 18.4
310(9) 0.01074 266.7 18.4
288(9) 0.01147 266.7 18.4
294(9) 0.01061 266.7 18.4
277(9) 0.01079 266.7 18.3
315(10) 0.00981 266.7 18.3
285(9) 0.01168 266.7 18.3
301(9) 0.01088 266.7 18.3
264(9) 0.01161 266.6 18.3
295(10) 0.00948 266.6 18.3
311(10) 0.01000 266.6 18.2
284(9) 0.01157 266.6 18.2
292(9) 0.01129 266.6 18.2
312(9) 0.01040 266.6 18.2
283(9) 0.01061 266.6 18.2
286(9) 0.01080 266.5 18.1
258(8) 0.01282 266.5 18.1
284(9) 0.01107 266.5 18.1
271(9) 0.01168 266.5 18.1
285(9) 0.01057 266.5 18.1
283(9) 0.01102 266.5 18.0
283(9) 0.01182 266.5 18.0
291(9) 0.01095 266.5 18.0
297(9) 0.01051 266.4 18.0
293(9) 0.01046 266.4 18.1
293(9) 0.01084 266.4 18.1
288(9) 0.01171 266.4 18.1
305(9) 0.01031 266.4 18.1
272(9) 0.01120 266.4 18.2
288(9) 0.01059 266.4 18.3
277(9) 0.01141 266.4 18.4
284(9) 0.01164 266.3 18.5
298(9) 0.01028 266.3 18.6
301(10) 0.00998 266.3 18.8
313(10) 0.01000 266.3 18.9
301(9) 0.01065 266.3 19.2
279(9) 0.01191 266.3 19.4
286(9) 0.01087 266.3 19.8
291(9) 0.01064 266.2 20.1
292(9) 0.01057 266.2 20.6
295(9) 0.01114 266.2 21.1
280(9) 0.01188 266.2 21.7
284(9) 0.01140 266.2 22.4
295(9) 0.01023 266.2 23.2
290(9) 0.01106 266.2 24.1
325(9) 0.01011 266.2 25.1
314(9) 0.01078 266.1 26.3
291(9) 0.01084 266.1 27.7
318(10) 0.00935 266.1 29.2
298(9) 0.01059 266.1 30.9
316(9) 0.01038 266.1 32.7
338(10) 0.01001 266.1 34.6
307(9) 0.01068 266.1 36.6
320(10) 0.00916 266.1 38.5
317(9) 0.01023 266.0 40.4
329(9) 0.01017 266.0 42.1
341(9) 0.01011 266.0 43.4
329(10) 0.00955 266.0 44.3
329(10) 0.00897 266.0 44.6
343(10) 0.00907 266.0 44.4
339(10) 0.00999 266.0 43.8
334(9) 0.01012 266.0 42.9
326(10) 0.00947 265.9 41.7
323(10) 0.00899 265.9 40.5
327(10) 0.00919 265.9 39.3
307(9) 0.01096 265.9 38.1
329(9) 0.01020 265.9 37.1
309(9) 0.01024 265.9 36.2
301(9) 0.01012 265.9 35.5
309(10) 0.00991 265.8 34.8
313(9) 0.01070 265.8 34.2
311(9) 0.01049 265.8 33.7
290(9) 0.01092 265.8 33.1
290(9) 0.01045 265.8 32.4
289(9) 0.01101 265.8 31.7
311(9) 0.01076 265.8 30.9
286(9) 0.01110 265.8 30.0
287(9) 0.01092 265.7 29.1
298(9) 0.01030 265.7 28.1
283(9) 0.01132 265.7 27.2
272(9) 0.01222 265.7 26.3
281(9) 0.01127 265.7 25.5
307(10) 0.00997 265.7 24.7
295(9) 0.01095 265.7 24.0
304(9) 0.01077 265.7 23.4
260(8) 0.01265 265.6 22.8
285(9) 0.01103 265.6 22.3
322(10) 0.00959 265.6 21.9
301(9) 0.01014 265.6 21.5
289(9) 0.01131 265.6 21.1
306(9) 0.01107 265.6 20.8
280(9) 0.01095 265.6 20.6
285(9) 0.01061 265.5 20.4
280(9) 0.01135 265.5 20.2
279(9) 0.01184 265.5 20.0
258(8) 0.01263 265.5 19.9
279(9) 0.01095 265.5 19.8
281(9) 0.01051 265.5 19.7
273(9) 0.01111 265.5 19.6
279(9) 0.01196 265.5 19.6
309(9) 0.01092 265.4 19.6
297(9) 0.01036 265.4 19.6
289(10) 0.00998 265.4 19.6
297(9) 0.01059 265.4 19.6
263(8) 0.01234 265.4 19.7
303(9) 0.01080 265.4 19.7
270(9) 0.01189 265.4 19.8
309(10) 0.00943 265.4 19.9
287(9) 0.01100 265.3 20.0
276(9) 0.01204 265.3 20.1
295(9) 0.01107 265.3 20.3
266(9) 0.01203 265.3 20.4
281(9) 0.01045 265.3 20.5
273(9) 0.01145 265.3 20.7
274(9) 0.01212 265.3 20.9
284(9) 0.01152 265.2 21.1
290(9) 0.01090 265.2 21.3
276(9) 0.01065 265.2 21.5
271(9) 0.01138 265.2 21.7
330(9) 0.01021 265.2 21.9
299(9) 0.01098 265.2 22.2
268(9) 0.01187 265.2 22.4
293(10) 0.00995 265.2 22.7
276(9) 0.01112 265.1 22.9
284(9) 0.01162 265.1 23.2
293(9) 0.01085 265.1 23.5
281(9) 0.01127 265.1 23.9
291(9) 0.01056 265.1 24.2
276(9) 0.01151 265.1 24.6
307(9) 0.01082 265.1 24.9
294(9) 0.01113 265.1 25.3
284(9) 0.01097 265.0 25.7
295(9) 0.01008 265.0 26.2
289(9) 0.01111 265.0 26.6
284(9) 0.01172 265.0 27.1
269(9) 0.01173 265.0 27.5
294(10) 0.00991 265.0 27.9
281(9) 0.01079 265.0 28.2
278(9) 0.01169 264.9 28.5
294(9) 0.01134 264.9 28.7
290(9) 0.01097 264.9 28.8
292(9) 0.01037 264.9 28.9
320(10) 0.00973 264.9 28.9
314(10) 0.01007 264.9 28.8
288(9) 0.01143 264.9 28.7
296(9) 0.01052 264.9 28.6
298(10) 0.01000 264.8 28.6
314(10) 0.00990 264.8 28.7
290(9) 0.01120 264.8 28.8
285(9) 0.01164 264.8 29.1
305(10) 0.00980 264.8 29.5
308(10) 0.00923 264.8 30.2
312(10) 0.01001 264.8 31.0
282(9) 0.01175 264.8 32.1
285(9) 0.01167 264.7 33.5
312(9) 0.01023 264.7 35.2
289(9) 0.01040 264.7 37.2
312(9) 0.01008 264.7 39.6
333(9) 0.01013 264.7 42.3
319(9) 0.01031 264.7 45.4
330(10) 0.00957 264.7 48.9
324(10) 0.00929 264.6 52.6
337(10) 0.00932 264.6 56.4
328(9) 0.01035 264.6 60.0
354(10) 0.00950 264.6 63.2
361(10) 0.00883 264.6 65.6
327(10) 0.00924 264.6 66.9
337(10) 0.00933 264.6 67.1
345(10) 0.00983 264.6 66.3
352(10) 0.00943 264.5 64.7
306(9) 0.01047 264.5 62.6
293(9) 0.01066 264.5 60.2
328(10) 0.00972 264.5 57.7
337(9) 0.01011 264.5 55.3
342(10) 0.00926 264.5 52.9
318(10) 0.00975 264.5 50.7
297(9) 0.01033 264.5 48.5
307(9) 0.01025 264.4 46.5
276(9) 0.01198 264.4 44.7
312(9) 0.01036 264.4 43.0
318(10) 0.00986 264.4 41.5
309(9) 0.01014 264.4 40.1
299(9) 0.01035 264.4 38.9
307(9) 0.01098 264.4 37.9
315(9) 0.01040 264.3 37.0
309(9) 0.01014 264.3 36.2
283(9) 0.01110 264.3 35.6
311(9) 0.01027 264.3 35.2
290(9) 0.01144 264.3 34.9
316(10) 0.00975 264.3 34.8
321(10) 0.00945 264.3 34.8
322(10) 0.00967 264.3 34.9
308(9) 0.01067 264.2 35.2
305(9) 0.01107 264.2 35.6
292(9) 0.01088 264.2 36.2
315(10) 0.00924 264.2 36.9
283(9) 0.01113 264.2 37.7
284(9) 0.01167 264.2 38.7
314(9) 0.01070 264.2 39.8
300(9) 0.01013 264.2 41.1
301(10) 0.00978 264.1 42.4
307(9) 0.01010 264.1 43.9
287(9) 0.01133 264.1 45.4
298(9) 0.01116 264.1 47.0
313(9) 0.01014 264.1 48.7
311(10) 0.00977 264.1 50.5
324(9) 0.01015 264.1 52.2
347(10) 0.00978 264.0 54.0
317(9) 0.01050 264.0 55.6
353(10) 0.00897 264.0 57.3
308(10) 0.00967 264.0 58.8
313(9) 0.01023 264.0 60.1
332(9) 0.01031 264.0 61.3
278(9) 0.01175 264.0 62.3
304(9) 0.01070 264.0 63.0
323(10) 0.00946 263.9 63.5
328(10) 0.00950 263.9 63.8
305(9) 0.01106 263.9 63.8
301(9) 0.01092 263.9 63.5
308(9) 0.01036 263.9 62.8
354(10) 0.00848 263.9 61.9
342(10) 0.00906 263.9 60.7
303(9) 0.01106 263.9 59.2
308(9) 0.01055 263.8 57.4
305(9) 0.01052 263.8 55.4
332(10) 0.00902 263.8 53.3
307(10) 0.01007 263.8 51.0
315(9) 0.01072 263.8 48.6
275(9) 0.01134 263.8 46.2
277(9) 0.01094 263.8 43.9
280(9) 0.01078 263.8 41.5
302(9) 0.01050 263.7 39.3
274(9) 0.01219 263.7 37.1
303(9) 0.01049 263.7 35.1
301(9) 0.01040 263.7 33.1
293(9) 0.01065 263.7 31.3
278(9) 0.01136 263.7 29.6
284(9) 0.01178 263.7 28.0
292(9) 0.01081 263.6 26.5
302(10) 0.00997 263.6 25.2
287(9) 0.01081 263.6 23.9
280(9) 0.01184 263.6 22.8
308(9) 0.01085 263.6 21.7
279(9) 0.01152 263.6 20.7
287(9) 0.01079 263.6 19.8
308(9) 0.01041 263.6 19.0
308(9) 0.01052 263.5 18.3
300(9) 0.01122 263.5 17.6
296(9) 0.01043 263.5 17.0
292(9) 0.01011 263.5 16.5
287(9) 0.01107 263.5 16.0
271(9) 0.01217 263.5 15.5
279(9) 0.01178 263.5 15.1
307(9) 0.01011 263.5 14.8
287(10) 0.00996 263.4 14.5
287(9) 0.01049 263.4 14.2
284(9) 0.01180 263.4 14.0
277(9) 0.01173 263.4 13.8
266(9) 0.01149 263.4 13.6
284(9) 0.01026 263.4 13.5
285(9) 0.01088 263.4 13.4
267(8) 0.01232 263.3 13.3
274(9) 0.01208 263.3 13.2
267(9) 0.01150 263.3 13.2
275(9) 0.01079 263.3 13.2
264(9) 0.01175 263.3 13.1
268(8) 0.01240 263.3 13.2
262(9) 0.01214 263.3 13.2
234(8) 0.01302 263.3 13.2
278(9) 0.01075 263.2 13.2
269(9) 0.01156 263.2 13.3
280(9) 0.01165 263.2 13.3
277(9) 0.01190 263.2 13.3
269(9) 0.01176 263.2 13.3
287(9) 0.01085 263.2 13.2
312(10) 0.01000 263.2 13.2
280(9) 0.01198 263.2 13.1
266(9) 0.01206 263.1 13.0
263(9) 0.01151 263.1 12.9
274(9) 0.01144 263.1 12.7
268(9) 0.01190 263.1 12.5
245(8) 0.01326 263.1 12.3
267(9) 0.01190 263.1 12.1
284(9) 0.01086 263.1 11.8
289(9) 0.01057 263.0 11.6
269(9) 0.01190 263.0 11.4
269(9) 0.01219 263.0 11.1
252(8) 0.01239 263.0 10.9
258(9) 0.01168 263.0 10.7
266(9) 0.01189 263.0 10.4
268(8) 0.01247 263.0 10.2
288(9) 0.01153 263.0 10.0
264(9) 0.01204 262.9 9.8
249(9) 0.01198 262.9 9.7
259(9) 0.01198 262.9 9.5
264(9) 0.01201 262.9 9.3
273(9) 0.01214 262.9 9.2
273(9) 0.01183 262.9 9.1
283(9) 0.01064 262.9 9.0
288(9) 0.01088 262.9 8.9
264(8) 0.01248 262.8 8.8
248(8) 0.01310 262.8 8.7
265(9) 0.01127 262.8 8.6
282(9) 0.01014 262.8 8.6
252(8) 0.01251 262.8 8.5
261(8) 0.01269 262.8 8.5
265(8) 0.01250 262.8 8.5
252(9) 0.01185 262.8 8.4
252(9) 0.01166 262.8 8.4
261(9) 0.01213 262.8 8.4
288(9) 0.01157 262.8 8.4
272(9) 0.01219 262.9 8.5
284(9) 0.01126 262.9 8.5
293(9) 0.01039 262.9 8.5
279(9) 0.01148 262.9 8.6
283(9) 0.01167 262.9 8.6
276(9) 0.01210 262.9 8.7
274(9) 0.01128 262.9 8.8
256(9) 0.01129 262.9 8.8
264(9) 0.01165 263.0 8.9
262(8) 0.01266 263.0 9.0
259(8) 0.01264 263.0 9.1
262(9) 0.01164 263.0 9.3
285(9) 0.01016 263.0 9.4
270(9) 0.01173 263.0 9.5
281(9) 0.01181 263.0 9.7
257(9) 0.01229 263.0 9.9
264(9) 0.01135 263.0 10.0
267(9) 0.01114 263.1 10.2
279(9) 0.01140 263.1 10.4
265(8) 0.01236 263.1 10.7
252(8) 0.01241 263.1 10.9
264(9) 0.01143 263.1 11.2
270(9) 0.01142 263.1 11.4
258(8) 0.01255 263.1 11.7
266(8) 0.01242 263.1 12.0
280(9) 0.01113 263.2 12.4
268(9) 0.01111 263.2 12.7
265(9) 0.01143 263.2 13.1
303(9) 0.01090 263.2 13.5
270(9) 0.01227 263.2 14.0
271(9) 0.01114 263.2 14.4
282(9) 0.01039 263.2 14.9
282(9) 0.01116 263.2 15.5
287(9) 0.01092 263.2 16.0
302(9) 0.01110 263.3 16.6
290(9) 0.01045 263.3 17.2
287(9) 0.01035 263.3 17.9
271(9) 0.01162 263.3 18.6
286(9) 0.01166 263.3 19.4
282(9) 0.01197 263.3 20.2
299(9) 0.01028 263.3 21.0
272(9) 0.01080 263.3 21.9
272(9) 0.01169 263.4 22.8
270(9) 0.01220 263.4 23.7
281(9) 0.01179 263.4 24.8
297(9) 0.01059 263.4 25.8
278(9) 0.01062 263.4 26.9
307(9) 0.01026 263.4 28.1
303(9) 0.01102 263.4 29.2
275(9) 0.01200 263.4 30.4
307(9) 0.01014 263.4 31.7
284(9) 0.01028 263.5 33.0
282(9) 0.01104 263.5 34.3
297(9) 0.01121 263.5 35.6
329(10) 0.01005 263.5 36.9
314(10) 0.00975 263.5 38.2
300(10) 0.01001 263.5 39.4
287(9) 0.01103 263.5 40.6
295(9) 0.01130 263.5 41.8
303(9) 0.01084 263.6 42.9
306(10) 0.00992 263.6 43.9
306(10) 0.00965 263.6 44.8
314(10) 0.00997 263.6 45.5
297(9) 0.01112 263.6 46.2
302(9) 0.01087 263.6 46.6
292(9) 0.01075 263.6 46.9
289(9) 0.01045 263.6 47.0
290(9) 0.01115 263.6 46.9
324(9) 0.01048 263.7 46.7
286(9) 0.01121 263.7 46.3
312(10) 0.00964 263.7 45.7
305(10) 0.01001 263.7 45.0
302(9) 0.01085 263.7 44.2
283(9) 0.01176 263.7 43.2
283(9) 0.01120 263.7 42.2
288(9) 0.01062 263.7 41.0
284(9) 0.01066 263.8 39.8
258(9) 0.01219 263.8 38.6
283(9) 0.01174 263.8 37.4
281(9) 0.01105 263.8 36.1
300(10) 0.00999 263.8 34.8
292(9) 0.01057 263.8 33.5
295(9) 0.01122 263.8 32.3
298(9) 0.01124 263.8 31.1
274(9) 0.01126 263.8 29.9
273(9) 0.01096 263.9 28.7
266(9) 0.01169 263.9 27.6
261(8) 0.01272 263.9 26.6
309(9) 0.01070 263.9 25.5
263(9) 0.01159 263.9 24.6
276(9) 0.01038 263.9 23.6
268(9) 0.01159 263.9 22.7
272(9) 0.01196 263.9 21.9
283(9) 0.01188 264.0 21.1
276(9) 0.01111 264.0 20.3
262(9) 0.01137 264.0 19.6
267(9) 0.01188 264.0 19.0
282(9) 0.01171 264.0 18.3
296(9) 0.01140 264.0 17.8
274(9) 0.01129 264.0 17.2
276(9) 0.01066 264.0 16.7
270(9) 0.01202 264.0 16.2
277(9) 0.01213 264.1 15.8
289(9) 0.01148 264.1 15.4
280(9) 0.01131 264.1 15.0
289(9) 0.01059 264.1 14.6
287(9) 0.01090 264.1 14.3
280(9) 0.01191 264.1 14.0
269(9) 0.01171 264.1 13.8
281(9) 0.01098 264.1 13.5
245(8) 0.01256 264.2 13.3
272(9) 0.01129 264.2 13.2
284(9) 0.01164 264.2 13.0
282(9) 0.01161 264.2 12.8
282(9) 0.01097 264.2 12.7
268(9) 0.01100 264.2 12.6
270(9) 0.01146 264.2 12.6
285(9) 0.01161 264.2 12.5
260(9) 0.01208 264.2 12.5
252(8) 0.01253 264.3 12.5
293(9) 0.01036 264.3 12.5
270(9) 0.01164 264.3 12.5
290(9) 0.01154 264.3 12.6
302(9) 0.01055 264.3 12.7
284(9) 0.01075 264.3 12.8
264(9) 0.01163 264.3 13.0
281(9) 0.01139 264.3 13.1
285(9) 0.01171 264.4 13.3
270(9) 0.01175 264.4 13.6
273(9) 0.01103 264.4 13.8
303(10) 0.01001 264.4 14.1
299(9) 0.01101 264.4 14.5
280(9) 0.01186 264.4 14.8
290(9) 0.01074 264.4 15.3
269(9) 0.01134 264.4 15.7
279(9) 0.01126 264.4 16.2
280(9) 0.01170 264.5 16.8
284(9) 0.01164 264.5 17.4
286(9) 0.01094 264.5 18.0
272(9) 0.01079 264.5 18.8
261(9) 0.01216 264.5 19.5
289(9) 0.01143 264.5 20.4
304(9) 0.01095 264.5 21.2
284(9) 0.01078 264.5 22.2
278(9) 0.01047 264.6 23.2
296(9) 0.01029 264.6 24.3
290(9) 0.01132 264.6 25.4
296(9) 0.01141 264.6 26.6
283(9) 0.01111 264.6 27.8
317(10) 0.00878 264.6 29.0
304(9) 0.01044 264.6 30.3
321(9) 0.01052 264.6 31.5
279(9) 0.01188 264.6 32.8
282(9) 0.01132 264.7 34.0
309(10) 0.00960 264.7 35.1
282(9) 0.01157 264.7 36.2
316(9) 0.01064 264.7 37.1
306(9) 0.01094 264.7 37.8
314(10) 0.00989 264.7 38.4
294(9) 0.01044 264.7 38.7
291(9) 0.01087 264.7 38.9
280(9) 0.01186 264.8 38.8
312(9) 0.01042 264.8 38.5
291(9) 0.01105 264.8 38.0
306(10) 0.00989 264.8 37.4
297(9) 0.01052 264.8 36.6
286(9) 0.01166 264.8 35.6
297(9) 0.01076 264.8 34.6
278(9) 0.01097 264.8 33.5
259(9) 0.01166 264.8 32.3
296(9) 0.01037 264.9 31.2
311(9) 0.01077 264.9 30.0
274(9) 0.01164 264.9 28.9
273(9) 0.01140 264.9 27.8
296(9) 0.01060 264.9 26.8
306(9) 0.01049 264.9 25.8
275(9) 0.01204 264.9 24.9
262(9) 0.01174 264.9 24.0
278(9) 0.01143 265.0 23.2
273(9) 0.01160 265.0 22.5
280(9) 0.01142 265.0 21.8
241(8) 0.01324 265.0 21.2
291(9) 0.01060 265.0 20.7
272(9) 0.01128 265.0 20.2
292(9) 0.01094 265.0 19.8
282(9) 0.01138 265.0 19.4
302(9) 0.01108 265.0 19.1
283(9) 0.01109 265.1 18.8
275(9) 0.01067 265.1 18.6
261(9) 0.01171 265.1 18.4
287(9) 0.01112 265.1 18.3
264(8) 0.01252 265.1 18.2
287(9) 0.01121 265.1 18.2
297(10) 0.00981 265.1 18.2
278(9) 0.01125 265.1 18.2
287(9) 0.01180 265.2 18.3
281(9) 0.01155 265.2 18.4
283(9) 0.01096 265.2 18.5
293(9) 0.01015 265.2 18.7
282(9) 0.01130 265.2 18.9
267(9) 0.01217 265.2 19.1
251(8) 0.01294 265.2 19.3
282(9) 0.01121 265.2 19.6
281(9) 0.01106 265.2 19.8
276(9) 0.01173 265.3 20.1
262(8) 0.01248 265.3 20.4
279(9) 0.01188 265.3 20.6
282(9) 0.01165 265.3 20.9
285(9) 0.01084 265.3 21.2
302(9) 0.01008 265.3 21.5
288(9) 0.01151 265.3 21.8
296(9) 0.01081 265.3 22.0
281(9) 0.01129 265.4 22.3
321(10) 0.00955 265.4 22.5
308(9) 0.01025 265.4 22.7
285(9) 0.01160 265.4 22.9
286(9) 0.01109 265.4 23.1
298(9) 0.01020 265.4 23.2
292(9) 0.01061 265.4 23.3
313(9) 0.01028 265.4 23.3
303(9) 0.01093 265.5 23.4
313(9) 0.01029 265.5 23.3
283(9) 0.01112 265.5 23.3
288(9) 0.01075 265.5 23.2
284(9) 0.01140 265.5 23.1
292(9) 0.01158 265.5 22.9
286(9) 0.01093 265.5 22.7
289(9) 0.01041 265.5 22.5
290(9) 0.01088 265.5 22.3
298(9) 0.01093 265.6 22.0
300(9) 0.01122 265.6 21.7
319(10) 0.00988 265.6 21.4
286(9) 0.01078 265.6 21.1
300(9) 0.01015 265.6 20.8
302(9) 0.01066 265.6 20.4
285(9) 0.01158 265.6 20.1
296(9) 0.01091 265.6 19.7
272(9) 0.01112 265.7 19.4
278(9) 0.01119 265.7 19.0
290(9) 0.01130 265.7 18.7
304(9) 0.01103 265.7 18.3
271(9) 0.01148 265.7 18.0
286(9) 0.01041 265.7 17.7
264(9) 0.01212 265.7 17.3
275(9) 0.01203 265.7 17.0
275(9) 0.01209 265.7 16.7
291(9) 0.01018 265.8 16.4
271(9) 0.01072 265.8 16.1
291(9) 0.01036 265.8 15.9
294(9) 0.01133 265.8 15.6
282(9) 0.01167 265.8 15.4
300(9) 0.01070 265.8 15.1
289(9) 0.01052 265.8 14.9
260(9) 0.01202 265.8 14.7
282(9) 0.01165 265.9 14.6
282(9) 0.01161 265.9 14.4
290(9) 0.01101 265.9 14.2
264(9) 0.01164 265.9 14.1
270(9) 0.01161 265.9 14.0
292(9) 0.01149 265.9 13.9
283(9) 0.01146 265.9 13.8
279(9) 0.01147 265.9 13.8
287(9) 0.01026 265.9 13.7
263(9) 0.01178 266.0 13.7
273(9) 0.01205 266.0 13.7
281(9) 0.01164 266.0 13.7
276(9) 0.01173 266.0 13.7
275(9) 0.01114 266.0 13.7
257(8) 0.01262 266.0 13.8
284(9) 0.01168 266.0 13.9
296(9) 0.01086 266.0 13.9
300(9) 0.01069 266.1 14.1
281(9) 0.01132 266.1 14.2
291(9) 0.01077 266.1 14.3
279(9) 0.01201 266.1 14.5
298(9) 0.01058 266.1 14.6
271(9) 0.01123 266.1 14.8
275(9) 0.01078 266.1 15.0
275(9) 0.01139 266.1 15.2
287(9) 0.01161 266.1 15.5
263(9) 0.01190 266.2 15.7
273(9) 0.01115 266.2 16.0
273(9) 0.01129 266.2 16.3
277(9) 0.01168 266.2 16.6
282(9) 0.01175 266.2 16.9
279(9) 0.01114 266.2 17.3
259(9) 0.01182 266.2 17.6
277(9) 0.01133 266.2 18.0
291(9) 0.01129 266.3 18.4
288(9) 0.01124 266.3 18.8
287(9) 0.01094 266.3 19.2
289(9) 0.01025 266.3 19.6
295(9) 0.01051 266.3 20.1
280(9) 0.01197 266.3 20.5
269(9) 0.01226 266.3 21.0
284(9) 0.01113 266.3 21.5
276(9) 0.01048 266.3 22.0
260(9) 0.01190 266.4 22.5
268(8) 0.01231 266.4 23.0
270(9) 0.01229 266.4 23.5
259(9) 0.01206 266.4 24.0
273(9) 0.01057 266.4 24.5
286(9) 0.01076 266.4 25.0
279(9) 0.01206 266.4 25.5
278(9) 0.01159 266.4 25.9
271(9) 0.01181 266.5 26.4
290(9) 0.01060 266.5 26.8
299(9) 0.01041 266.5 27.2
269(8) 0.01234 266.5 27.6
300(9) 0.01102 266.5 28.0
291(9) 0.01067 266.5 28.3
265(9) 0.01145 266.5 28.6
281(9) 0.01067 266.5 28.9
290(9) 0.01142 266.5 29.1
284(9) 0.01122 266.6 29.2
287(9) 0.01066 266.6 29.3
284(9) 0.01058 266.6 29.4
301(9) 0.01033 266.6 29.4
304(9) 0.01102 266.6 29.3
291(9) 0.01120 266.6 29.3
296(9) 0.01018 266.6 29.1
294(9) 0.01045 266.6 28.9
286(9) 0.01139 266.7 28.7
284(9) 0.01170 266.7 28.4
285(9) 0.01104 266.7 28.1
297(9) 0.01038 266.7 27.7
290(9) 0.01062 266.7 27.4
265(8) 0.01243 266.7 26.9
255(8) 0.01295 266.7 26.5
283(9) 0.01070 266.7 26.0
298(9) 0.01025 266.7 25.5
283(9) 0.01107 266.8 25.0
295(9) 0.01119 266.8 24.5
305(9) 0.01106 266.8 24.0
306(9) 0.01014 266.8 23.5
293(9) 0.01034 266.8 23.0
285(9) 0.01116 266.8 22.4
289(9) 0.01147 266.8 21.9
279(9) 0.01178 266.8 21.4
282(9) 0.01096 266.9 20.9
274(9) 0.01065 266.9 20.4
285(9) 0.01088 266.9 19.9
287(9) 0.01119 266.9 19.4
278(9) 0.01200 266.9 18.9
272(9) 0.01146 266.9 18.5
281(9) 0.01097 266.9 18.0
286(9) 0.01103 266.9 17.6
279(9) 0.01208 266.9 17.2
285(9) 0.01154 267.0 16.8
293(9) 0.01062 267.0 16.4
281(9) 0.01065 267.0 16.0
269(9) 0.01194 267.0 15.6
266(8) 0.01243 267.0 15.3
295(9) 0.01144 267.0 14.9
276(9) 0.01137 267.0 14.6
278(9) 0.01070 267.0 14.3
285(9) 0.01086 267.1 14.0
250(8) 0.01325 267.1 13.7
260(8) 0.01252 267.1 13.5
277(9) 0.01152 267.1 13.2
262(9) 0.01132 267.1 13.0
277(9) 0.01115 267.1 12.7
276(9) 0.01201 267.1 12.5
258(8) 0.01258 267.1 12.3
258(9) 0.01171 267.1 12.1
284(9) 0.01051 267.2 11.9
274(9) 0.01157 267.2 11.8
265(8) 0.01249 267.2 11.6
296(9) 0.01074 267.2 11.5
267(9) 0.01152 267.2 11.3
280(9) 0.01045 267.2 11.2
253(9) 0.01210 267.2 11.1
249(8) 0.01322 267.2 11.0
285(9) 0.01122 267.3 10.9
299(9) 0.01014 267.3 10.8
280(9) 0.01100 267.3 10.7
271(9) 0.01195 267.3 10.7
298(9) 0.01119 267.3 10.6
271(9) 0.01145 267.3 10.6
275(9) 0.01100 267.3 10.5
276(9) 0.01128 267.3 10.5
280(9) 0.01154 267.3 10.5
287(9) 0.01164 267.4 10.5
268(9) 0.01137 267.4 10.4
264(9) 0.01095 267.4 10.4
251(9) 0.01220 267.4 10.5
271(9) 0.01191 267.4 10.5
263(8) 0.01248 267.4 10.5
277(9) 0.01101 267.4 10.5
268(9) 0.01089 267.4 10.6
276(9) 0.01104 267.5 10.6
268(9) 0.01200 267.5 10.7
254(8) 0.01293 267.5 10.7
279(9) 0.01086 267.5 10.8
292(10) 0.00993 267.5 10.9
282(9) 0.01131 267.5 11.0
276(9) 0.01186 267.5 11.1
249(8) 0.01314 267.5 11.2
281(9) 0.01139 267.5 11.3
282(9) 0.01035 267.6 11.4
276(9) 0.01130 267.6 11.5
274(9) 0.01219 267.6 11.6
293(9) 0.01139 267.6 11.8
269(9) 0.01116 267.6 11.9
278(9) 0.01062 267.6 12.0
275(9) 0.01150 267.6 12.2
264(8) 0.01237 267.6 12.4
296(9) 0.01122 267.7 12.5
280(9) 0.01112 267.7 12.7
261(9) 0.01138 267.7 12.8
280(9) 0.01142 267.7 13.0
279(9) 0.01185 267.6 13.2
263(9) 0.01196 267.6 13.3
288(9) 0.01070 267.6 13.5
264(9) 0.01156 267.6 13.7
285(9) 0.01096 267.6 13.8
275(9) 0.01200 267.6 14.0
290(9) 0.01088 267.5 14.1
257(9) 0.01222 267.5 14.3
268(9) 0.01134 267.5 14.4
276(9) 0.01144 267.5 14.5
281(9) 0.01203 267.5 14.6
280(9) 0.01129 267.5 14.7
288(9) 0.01073 267.4 14.8
283(9) 0.01117 267.4 14.9
283(9) 0.01151 267.4 15.0
281(9) 0.01176 267.4 15.1
254(8) 0.01242 267.4 15.1
256(9) 0.01183 267.4 15.2
261(9) 0.01139 267.3 15.2
265(9) 0.01214 267.3 15.3
268(8) 0.01236 267.3 15.3
299(9) 0.01031 267.3 15.4
263(9) 0.01191 267.3 15.4
266(9) 0.01178 267.3 15.5
283(9) 0.01138 267.2 15.5
281(9) 0.01177 267.2 15.6
259(9) 0.01202 267.2 15.7
289(9) 0.01047 267.2 15.8
261(9) 0.01221 267.2 15.9
272(9) 0.01214 267.1 16.0
285(9) 0.01171 267.1 16.2
286(9) 0.01094 267.1 16.3
293(10) 0.00974 267.1 16.5
299(10) 0.00997 267.1 16.7
284(9) 0.01181 267.1 17.0
272(9) 0.01182 267.0 17.3
295(9) 0.01037 267.0 17.6
275(9) 0.01093 267.0 18.0
288(9) 0.01104 267.0 18.5
294(9) 0.01136 267.0 19.0
279(9) 0.01162 267.0 19.7
280(9) 0.01138 266.9 20.6
300(10) 0.01000 266.9 21.6
308(9) 0.01028 266.9 22.8
295(9) 0.01129 266.9 24.3
305(9) 0.01063 266.9 26.1
312(9) 0.01012 266.9 28.1
302(10) 0.00993 266.8 30.5
287(9) 0.01132 266.8 33.2
293(9) 0.01133 266.8 36.1
286(9) 0.01141 266.8 39.1
301(9) 0.01062 266.8 42.1
313(10) 0.00966 266.8 44.6
299(9) 0.01047 266.7 46.3
283(9) 0.01160 266.7 47.0
294(9) 0.01113 266.7 46.4
290(9) 0.01058 266.7 44.9
321(10) 0.00923 266.7 42.6
307(9) 0.01008 266.6 40.0
295(9) 0.01136 266.6 37.3
301(9) 0.01016 266.6 34.7
309(10) 0.00962 266.6 32.4
282(9) 0.01097 266.6 30.3
280(9) 0.01157 266.6 28.6
283(9) 0.01158 266.5 27.1
271(9) 0.01169 266.5 25.9
307(9) 0.01020 266.5 24.9
302(9) 0.01040 266.5 24.2
301(9) 0.01075 266.5 23.5
293(9) 0.01141 266.5 23.0
282(9) 0.01121 266.4 22.6
289(9) 0.01016 266.4 22.3
283(9) 0.01065 266.4 22.0
278(9) 0.01182 266.4 21.7
298(9) 0.01112 266.4 21.4
277(9) 0.01130 266.4 21.2
287(9) 0.01028 266.3 21.0
284(9) 0.01122 266.3 20.8
284(9) 0.01146 266.3 20.6
294(9) 0.01120 266.3 20.3
289(9) 0.01112 266.3 20.1
296(10) 0.00989 266.2 19.9
294(9) 0.01062 266.2 19.7
285(9) 0.01131 266.2 19.4
299(9) 0.01098 266.2 19.2
268(9) 0.01143 266.2 18.9
274(9) 0.01026 266.2 18.7
288(9) 0.01084 266.1 18.4
306(9) 0.01092 266.1 18.2
295(9) 0.01140 266.1 17.9
277(9) 0.01098 266.1 17.7
291(10) 0.00991 266.1 17.4
273(9) 0.01138 266.1 17.1
309(9) 0.01074 266.0 16.9
286(9) 0.01172 266.0 16.6
278(9) 0.01140 266.0 16.3
284(9) 0.01023 266.0 16.1
260(9) 0.01180 266.0 15.8
279(9) 0.01176 266.0 15.5
285(9) 0.01153 265.9 15.3
274(9) 0.01132 265.9 15.0
271(9) 0.01121 265.9 14.8
272(9) 0.01148 265.9 14.5
268(9) 0.01225 265.9 14.3
246(8) 0.01269 265.9 14.0
266(9) 0.01095 265.8 13.8
269(9) 0.01134 265.8 13.5
277(9) 0.01106 265.8 13.3
270(9) 0.01229 265.8 13.1
268(9) 0.01191 265.8 12.9
271(9) 0.01122 265.7 12.7
282(9) 0.01065 265.7 12.5
264(9) 0.01183 265.7 12.2
264(8) 0.01249 265.7 12.1
269(9) 0.01165 265.7 11.9
278(9) 0.01125 265.7 11.7
286(9) 0.01073 265.6 11.5
276(9) 0.01144 265.6 11.3
308(9) 0.01082 265.6 11.2
268(9) 0.01180 265.6 11.0
276(9) 0.01101 265.6 10.8
272(9) 0.01159 265.6 10.7
251(8) 0.01288 265.5 10.5
290(9) 0.01143 265.5 10.4
276(9) 0.01111 265.5 10.3
272(9) 0.01091 265.5 10.2
263(9) 0.01223 265.5 10.0
294(9) 0.01121 265.5 9.9
290(9) 0.01143 265.4 9.8
273(9) 0.01162 265.4 9.7
285(9) 0.01068 265.4 9.6
266(9) 0.01174 265.4 9.5
271(9) 0.01225 265.4 9.4
265(8) 0.01245 265.4 9.4
269(9) 0.01110 265.3 9.3
312(10) 0.00921 265.3 9.2
300(9) 0.01029 265.3 9.2
294(9) 0.01143 265.3 9.1
262(8) 0.01239 265.3 9.1
276(9) 0.01125 265.2 9.0
273(9) 0.01041 265.2 9.0
285(9) 0.01067 265.2 9.0
290(9) 0.01142 265.2 8.9
283(9) 0.01147 265.2 8.9
276(9) 0.01114 265.2 8.9
248(9) 0.01209 265.1 8.9
257(9) 0.01190 265.1 9.0
266(8) 0.01247 265.1 9.0
269(9) 0.01214 265.1 9.0
284(9) 0.01108 265.1 9.1
292(9) 0.01042 265.1 9.1
267(9) 0.01183 265.0 9.2
284(9) 0.01174 265.0 9.3
282(9) 0.01152 265.0 9.4
291(9) 0.01055 265.0 9.5
277(9) 0.01095 265.0 9.6
275(9) 0.01120 265.0 9.8
272(9) 0.01200 264.9 10.0
277(9) 0.01147 264.9 10.2
280(9) 0.01085 264.9 10.5
267(9) 0.01171 264.9 10.8
283(9) 0.01100 264.9 11.2
287(9) 0.01148 264.8 11.7
282(9) 0.01130 264.8 12.2
263(9) 0.01185 264.8 12.9
273(9) 0.01133 264.8 13.7
286(9) 0.01134 264.8 14.7
286(9) 0.01155 264.8 15.9
274(9) 0.01183 264.7 17.4
288(9) 0.01040 264.7 19.2
293(9) 0.01034 264.7 21.3
284(9) 0.01148 264.7 23.8
310(9) 0.01079 264.7 26.6
301(9) 0.01024 264.7 29.8
287(9) 0.01012 264.6 33.3
310(10) 0.00982 264.6 37.1
320(9) 0.01042 264.6 40.9
323(9) 0.01042 264.6 44.5
351(10) 0.00885 264.6 47.7
343(10) 0.00875 264.6 49.9
340(10) 0.00926 264.5 50.8
300(9) 0.01106 264.5 50.3
338(9) 0.01011 264.5 48.4
316(10) 0.00982 264.5 45.5
311(10) 0.00940 264.5 42.0
313(9) 0.01022 264.5 38.1
287(9) 0.01168 264.4 34.3
275(9) 0.01188 264.4 30.6
276(9) 0.01131 264.4 27.3
281(9) 0.01037 264.4 24.3
289(9) 0.01101 264.4 21.7
291(9) 0.01139 264.3 19.4
293(9) 0.01116 264.3 17.5
282(9) 0.01110 264.3 15.9
261(9) 0.01138 264.3 14.5
283(9) 0.01096 264.3 13.4
270(9) 0.01220 264.3 12.5
269(9) 0.01195 264.2 11.7
279(9) 0.01117 264.2 11.1
264(9) 0.01142 264.2 10.6
292(9) 0.01065 264.2 10.1
253(8) 0.01309 264.2 9.8
274(9) 0.01160 264.2 9.4
274(9) 0.01163 264.1 9.1
280(9) 0.01100 264.1 8.9
280(9) 0.01106 264.1 8.7
273(9) 0.01222 264.1 8.5
286(9) 0.01124 264.1 8.3
302(9) 0.01013 264.1 8.2
266(9) 0.01174 264.0 8.0
256(9) 0.01229 264.0 7.9
269(9) 0.01213 264.0 7.8
252(8) 0.01268 264.0 7.7
253(9) 0.01192 264.0 7.6
260(9) 0.01176 264.0 7.5
265(9) 0.01210 263.9 7.4
247(8) 0.01322 263.9 7.4
274(9) 0.01159 263.9 7.3
280(9) 0.01076 263.9 7.2
239(8) 0.01317 263.9 7.2
247(8) 0.01287 263.8 7.1
264(8) 0.01242 263.8 7.1
289(9) 0.01079 263.8 7.1
280(9) 0.01100 263.8 7.0
280(9) 0.01096 263.8 7.0
262(9) 0.01228 263.8 7.0
274(9) 0.01206 263.7 7.0
257(9) 0.01193 263.7 7.0
253(9) 0.01197 263.7 7.0
252(9) 0.01226 263.7 7.0
280(9) 0.01156 263.7 7.0
279(9) 0.01185 263.7 7.0
276(9) 0.01123 263.6 7.1
288(9) 0.01025 263.6 7.1
301(9) 0.01041 263.6 7.2
271(9) 0.01196 263.6 7.3
273(9) 0.01221 263.6 7.4
274(9) 0.01152 263.6 7.5
280(9) 0.01008 263.5 7.7
269(9) 0.01151 263.5 7.9
285(9) 0.01164 263.5 8.2
289(9) 0.01167 263.5 8.6
273(9) 0.01146 263.5 9.0
291(10) 0.01001 263.5 9.5
270(9) 0.01194 263.4 10.1
290(9) 0.01153 263.4 10.7
282(9) 0.01152 263.4 11.4
285(9) 0.01129 263.4 12.1
298(10) 0.01005 263.4 12.8
269(9) 0.01181 263.3 13.4
278(9) 0.01199 263.3 13.8
260(9) 0.01229 263.3 14.0
292(9) 0.01081 263.3 14.0
257(9) 0.01214 263.3 13.6
283(9) 0.01094 263.3 13.1
277(9) 0.01195 263.2 12.4
285(9) 0.01143 263.2 11.7
254(8) 0.01240 263.2 10.9
276(9) 0.01081 263.2 10.2
287(9) 0.01134 263.2 9.5
297(9) 0.01118 263.2 8.9
276(9) 0.01149 263.1 8.4
285(9) 0.01050 263.1 8.0
284(9) 0.01096 263.1 7.6
297(9) 0.01061 263.1 7.3
274(9) 0.01208 263.1 7.0
271(9) 0.01169 263.1 6.8
272(9) 0.01147 263.0 6.6
275(9) 0.01093 263.0 6.4
275(9) 0.01131 263.0 6.3
271(9) 0.01216 263.0 6.2
265(9) 0.01157 263.0 6.1
265(9) 0.01129 262.9 6.0
276(9) 0.01121 262.9 6.0
278(9) 0.01175 262.9 5.9
284(9) 0.01179 262.9 5.9
279(9) 0.01099 262.9 5.8
251(9) 0.01170 262.9 5.8
257(9) 0.01190 262.8 5.8
277(9) 0.01175 262.8 5.8
274(9) 0.01207 262.8 5.7
254(9) 0.01229 262.8 5.7
270(9) 0.01057 262.8 5.7
264(9) 0.01156 262.8 5.7
270(9) 0.01220 262.8 5.7
259(8) 0.01265 262.9 5.7
270(9) 0.01192 262.9 5.7
267(9) 0.01130 262.9 5.7
251(8) 0.01249 263.0 5.7
247(8) 0.01322 263.0 5.7
276(9) 0.01195 263.0 5.7
242(8) 0.01328 263.0 5.7
303(10) 0.00958 263.1 5.8
256(8) 0.01265 263.1 5.8
280(9) 0.01197 263.1 5.8
272(9) 0.01194 263.1 5.8
268(9) 0.01216 263.2 5.8
264(9) 0.01179 263.2 5.9
287(9) 0.01077 263.2 5.9
274(9) 0.01197 263.3 6.0
273(9) 0.01200 263.3 6.0
274(9) 0.01102 263.3 6.0
258(9) 0.01221 263.3 6.1
290(9) 0.01092 263.4 6.1
284(9) 0.01169 263.4 6.2
280(9) 0.01153 263.4 6.2
269(9) 0.01139 263.5 6.3
268(9) 0.01113 263.5 6.4
260(9) 0.01200 263.5 6.4
286(9) 0.01150 263.5 6.5
296(9) 0.01103 263.6 6.6
267(9) 0.01162 263.6 6.7
293(9) 0.01032 263.6 6.7
273(9) 0.01150 263.6 6.8
281(9) 0.01181 263.7 6.9
279(9) 0.01122 263.7 7.0
282(9) 0.01105 263.7 7.1
258(9) 0.01208 263.8 7.2
293(9) 0.01104 263.8 7.4
275(9) 0.01199 263.8 7.5
276(9) 0.01105 263.8 7.6
299(10) 0.00996 263.9 7.7
263(9) 0.01170 263.9 7.9
265(9) 0.01218 263.9 8.0
271(9) 0.01218 264.0 8.2
257(9) 0.01216 264.0 8.4
270(9) 0.01085 264.0 8.6
263(9) 0.01174 264.0 8.8
266(9) 0.01211 264.1 9.0
277(9) 0.01184 264.1 9.2
287(9) 0.01086 264.1 9.5
278(9) 0.01055 264.1 9.7
281(9) 0.01071 264.2 10.0
280(9) 0.01146 264.2 10.3
280(9) 0.01195 264.2 10.6
268(9) 0.01230 264.3 11.0
309(10) 0.00938 264.3 11.4
281(9) 0.01134 264.3 11.8
280(9) 0.01198 264.3 12.3
287(9) 0.01145 264.4 12.8
288(9) 0.01082 264.4 13.4
290(10) 0.01001 264.4 14.0
277(9) 0.01169 264.5 14.6
271(9) 0.01218 264.5 15.3
295(9) 0.01131 264.5 16.1
280(9) 0.01046 264.5 17.0
287(9) 0.01085 264.6 17.9
260(8) 0.01285 264.6 18.9
287(9) 0.01156 264.6 19.9
291(9) 0.01089 264.6 21.0
294(9) 0.01013 264.7 22.2
280(9) 0.01098 264.7 23.4
283(9) 0.01183 264.7 24.7
280(9) 0.01133 264.8 25.9
258(9) 0.01225 264.8 27.1
297(10) 0.01001 264.8 28.3
292(9) 0.01057 264.8 29.3
281(9) 0.01175 264.9 30.2
319(9) 0.01038 264.9 31.0
310(9) 0.01014 264.9 31.5
297(9) 0.01061 265.0 31.9
299(9) 0.01032 265.0 32.0
307(9) 0.01096 265.0 32.0
289(9) 0.01108 265.0 31.8
296(9) 0.01037 265.1 31.4
284(9) 0.01071 265.1 30.9
302(9) 0.01071 265.1 30.3
304(9) 0.01104 265.1 29.5
300(9) 0.01058 265.2 28.7
278(9) 0.01105 265.2 27.8
282(9) 0.01109 265.2 26.9
295(9) 0.01096 265.3 26.0
271(9) 0.01215 265.3 25.0
293(9) 0.01078 265.3 24.1
277(9) 0.01082 265.3 23.2
285(9) 0.01109 265.4 22.4
303(9) 0.01082 265.4 21.6
282(9) 0.01180 265.4 20.8
294(9) 0.01022 265.5 20.1
285(9) 0.01034 265.5 19.5
312(10) 0.01007 265.5 18.9
308(9) 0.01085 265.5 18.3
297(9) 0.01131 265.6 17.8
290(9) 0.01095 265.6 17.3
297(10) 0.00976 265.6 16.9
301(9) 0.01053 265.6 16.5
297(9) 0.01105 265.7 16.1
264(9) 0.01218 265.7 15.8
264(9) 0.01200 265.7 15.5
286(10) 0.01003 265.8 15.2
276(9) 0.01128 265.8 14.9
305(9) 0.01098 265.8 14.6
311(9) 0.01065 265.8 14.4
297(9) 0.01073 265.9 14.1
293(10) 0.00994 265.9 13.9
283(9) 0.01097 265.9 13.7
286(9) 0.01146 266.0 13.5
307(9) 0.01087 266.0 13.3
285(9) 0.01096 266.0 13.1
283(9) 0.01028 266.0 12.9
279(9) 0.01143 266.1 12.8
280(9) 0.01186 266.1 12.6
290(9) 0.01130 266.1 12.4
292(9) 0.01091 266.1 12.3
294(9) 0.01026 266.2 12.1
272(9) 0.01121 266.2 12.0
276(9) 0.01193 266.2 11.9
275(9) 0.01179 266.3 11.7
279(9) 0.01126 266.3 11.6
286(9) 0.01051 266.3 11.5
273(9) 0.01095 266.3 11.4
276(9) 0.01201 266.4 11.3
291(9) 0.01120 266.4 11.2
297(9) 0.01037 266.4 11.1
275(9) 0.01128 266.5 11.0
279(9) 0.01123 266.5 10.9
274(9) 0.01214 266.5 10.8
267(9) 0.01191 266.5 10.7
277(9) 0.01105 266.6 10.6
272(9) 0.01131 266.6 10.6
274(9) 0.01147 266.6 10.5
253(8) 0.01303 266.6 10.4
285(9) 0.01126 266.7 10.4
292(9) 0.01040 266.7 10.3
285(9) 0.01089 266.7 10.3
265(9) 0.01225 266.8 10.2
247(8) 0.01316 266.8 10.2
272(9) 0.01152 266.8 10.1
276(9) 0.01109 266.8 10.1
263(8) 0.01231 266.9 10.1
278(9) 0.01170 266.9 10.0
272(8) 0.01237 266.9 10.0
275(9) 0.01120 267.0 10.0
280(9) 0.01091 267.0 10.0
258(8) 0.01256 267.0 9.9
278(9) 0.01183 267.0 9.9
266(8) 0.01238 267.1 9.9
260(9) 0.01227 267.1 9.9
278(9) 0.01106 267.1 9.9
301(9) 0.01064 267.1 9.9
293(9) 0.01133 267.2 9.9
284(9) 0.01174 267.2 9.8
275(9) 0.01143 267.2 9.8
280(9) 0.01057 267.3 9.8
278(9) 0.01105 267.3 9.8
303(9) 0.01120 267.3 9.8
284(9) 0.01143 267.3 9.8
300(9) 0.01051 267.4 9.8
289(9) 0.01060 267.4 9.8
289(9) 0.01103 267.4 9.8
275(9) 0.01203 267.5 9.7
288(9) 0.01138 267.5 9.7
317(10) 0.00977 267.5 9.7
287(9) 0.01057 267.5 9.7
273(9) 0.01172 267.6 9.7
260(8) 0.01263 267.6 9.7
287(9) 0.01118 267.6 9.7
292(9) 0.01036 267.6 9.7
295(9) 0.01027 267.7 9.7
279(9) 0.01137 267.7 9.7
272(9) 0.01218 267.7 9.6
292(9) 0.01072 267.8 9.6
281(9) 0.01087 267.8 9.6
298(9) 0.01015 267.8 9.6
284(9) 0.01118 267.8 9.6
272(9) 0.01224 267.9 9.6
304(9) 0.01037 267.9 9.6
288(9) 0.01085 267.9 9.7
273(9) 0.01153 268.0 9.7
266(9) 0.01188 268.0 9.7
275(9) 0.01206 268.0 9.7
294(9) 0.01078 268.0 9.7
266(9) 0.01151 268.1 9.8
286(9) 0.01035 268.1 9.8
257(8) 0.01252 268.1 9.8
296(9) 0.01128 268.1 9.9
285(9) 0.01047 268.2 9.9
282(10) 0.01001 268.2 10.0
253(9) 0.01221 268.2 10.1
276(9) 0.01197 268.3 10.2
269(9) 0.01223 268.3 10.3
276(9) 0.01117 268.3 10.4
262(9) 0.01168 268.3 10.5
269(9) 0.01143 268.4 10.6
280(9) 0.01192 268.4 10.7
272(9) 0.01199 268.4 10.9
282(9) 0.01138 268.5 11.1
276(9) 0.01060 268.5 11.3
281(9) 0.01067 268.5 11.5
286(9) 0.01161 268.5 11.8
286(9) 0.01156 268.6 12.1
279(9) 0.01149 268.6 12.5
256(9) 0.01177 268.6 12.9
294(9) 0.01044 268.6 13.4
280(9) 0.01160 268.7 13.9
288(9) 0.01161 268.7 14.6
277(9) 0.01162 268.7 15.4
282(9) 0.01051 268.8 16.2
300(9) 0.01009 268.8 17.3
292(9) 0.01136 268.8 18.4
286(9) 0.01153 268.8 19.8
262(9) 0.01167 268.9 21.3
274(9) 0.01101 268.9 22.9
276(9) 0.01125 268.9 24.7
295(9) 0.01138 269.0 26.5
276(9) 0.01200 269.0 28.4
273(9) 0.01094 269.0 30.2
270(9) 0.01102 269.0 31.7
280(9) 0.01133 269.1 32.8
291(9) 0.01137 269.1 33.5
288(9) 0.01109 269.1 33.6
280(9) 0.01071 269.1 33.1
276(9) 0.01069 269.2 32.2
296(9) 0.01048 269.2 31.0
284(9) 0.01172 269.2 29.6
274(9) 0.01129 269.3 28.2
292(9) 0.01086 269.3 26.9
323(10) 0.00997 269.3 25.7
311(9) 0.01055 269.3 24.7
283(9) 0.01168 269.4 23.8
283(9) 0.01095 269.4 23.0
316(10) 0.00963 269.4 22.5
307(9) 0.01019 269.5 22.1
285(9) 0.01153 269.5 21.9
292(9) 0.01142 269.5 21.8
307(9) 0.01019 269.5 21.9
303(10) 0.00990 269.6 22.0
310(10) 0.00981 269.6 22.3
299(9) 0.01099 269.6 22.8
303(9) 0.01098 269.6 23.3
286(9) 0.01104 269.7 24.0
300(10) 0.00989 269.7 24.8
275(9) 0.01154 269.7 25.7
296(9) 0.01111 269.8 26.9
282(9) 0.01159 269.8 28.1
301(10) 0.01006 269.8 29.6
300(10) 0.00983 269.8 31.3
308(10) 0.01005 269.9 33.2
295(9) 0.01108 269.9 35.4
299(9) 0.01103 269.9 37.8
312(10) 0.01004 270.0 40.5
335(10) 0.00854 270.0 43.5
305(9) 0.01021 270.0 46.7
325(9) 0.01022 270.0 50.1
317(9) 0.01036 270.1 53.7
315(10) 0.00992 270.1 57.3
324(10) 0.00953 270.1 60.9
335(10) 0.00991 270.1 64.3
333(9) 0.01026 270.2 67.2
347(10) 0.00965 270.2 69.4
309(9) 0.01023 270.2 70.8
346(10) 0.00864 270.3 71.4
340(10) 0.00966 270.3 71.0
330(9) 0.01011 270.3 70.0
295(9) 0.01099 270.3 68.4
302(9) 0.01044 270.4 66.5
335(10) 0.00912 270.4 64.5
322(10) 0.00982 270.4 62.7
346(10) 0.00975 270.5 61.1
322(10) 0.00966 270.5 59.8
311(10) 0.00995 270.5 58.9
317(10) 0.00977 270.5 58.4
326(10) 0.00976 270.6 58.1
302(9) 0.01100 270.6 58.1
309(9) 0.01036 270.6 58.1
320(10) 0.00936 270.6 58.1
319(10) 0.00984 270.7 57.7
324(10) 0.01001 270.7 56.9
317(9) 0.01071 270.7 55.5
293(9) 0.01100 270.8 53.6
331(10) 0.00934 270.8 51.2
300(9) 0.01090 270.8 48.6
306(9) 0.01055 270.8 45.8
303(9) 0.01094 270.9 43.1
330(10) 0.00946 270.9 40.4
292(9) 0.01034 270.9 38.0
280(9) 0.01134 271.0 35.7
276(9) 0.01191 271.0 33.7
314(9) 0.01071 271.0 31.9
305(9) 0.01072 271.0 30.4
299(9) 0.01026 271.1 29.0
290(9) 0.01069 271.1 27.9
271(9) 0.01212 271.1 27.0
281(9) 0.01190 271.1 26.3
287(9) 0.01096 271.2 25.7
290(10) 0.00971 271.2 25.3
285(9) 0.01086 271.2 25.0
285(9) 0.01174 271.3 24.8
287(9) 0.01151 271.3 24.8
307(9) 0.01037 271.3 24.8
321(10) 0.00907 271.3 24.9
307(10) 0.01001 271.4 25.1
286(9) 0.01154 271.4 25.4
325(9) 0.01021 271.4 25.8
280(9) 0.01161 271.5 26.2
309(10) 0.00962 271.5 26.7
287(9) 0.01137 271.5 27.3
322(9) 0.01047 271.5 27.9
331(9) 0.01008 271.6 28.6
284(9) 0.01129 271.6 29.3
295(10) 0.00993 271.6 30.0
289(9) 0.01094 271.6 30.8
306(9) 0.01110 271.7 31.5
323(9) 0.01013 271.7 32.3
299(9) 0.01058 271.7 33.0
290(9) 0.01062 271.8 33.8
297(9) 0.01044 271.8 34.5
325(9) 0.01037 271.8 35.1
316(9) 0.01051 271.8 35.7
299(9) 0.01036 271.9 36.2
320(10) 0.00955 271.9 36.7
325(10) 0.00954 271.9 37.0
307(9) 0.01082 272.0 37.3
294(9) 0.01111 272.0 37.5
302(9) 0.01055 272.0 37.6
288(9) 0.01079 272.0 37.6
289(9) 0.01122 272.1 37.5
289(9) 0.01147 272.1 37.3
297(9) 0.01083 272.1 36.9
313(10) 0.00934 272.1 36.5
290(9) 0.01030 272.2 35.9
272(9) 0.01173 272.2 35.2
300(9) 0.01114 272.2 34.5
310(10) 0.01004 272.3 33.6
304(9) 0.01021 272.3 32.8
293(9) 0.01048 272.3 31.8
293(9) 0.01117 272.3 30.9
283(9) 0.01150 272.4 29.9
322(10) 0.00974 272.4 29.0
313(10) 0.00967 272.4 28.1
302(10) 0.01005 272.5 27.2
290(9) 0.01094 272.5 26.3
287(9) 0.01167 272.5 25.5
292(9) 0.01037 272.5 24.7
267(9) 0.01092 272.6 24.0
251(8) 0.01248 272.6 23.3
280(9) 0.01186 272.6 22.7
314(9) 0.01065 272.6 22.1
283(9) 0.01127 272.7 21.6
291(10) 0.00992 272.7 21.1
297(9) 0.01061 272.7 20.7
279(9) 0.01173 272.8 20.3
288(9) 0.01146 272.8 20.0
307(10) 0.00969 272.8 19.7
287(9) 0.01039 272.8 19.5
302(9) 0.01033 272.9 19.3
291(9) 0.01137 272.9 19.2
315(9) 0.01043 272.9 19.1
301(9) 0.01048 273.0 19.0
277(9) 0.01100 273.0 18.9
290(9) 0.01037 273.0 18.8
292(9) 0.01139 273.0 18.8
289(9) 0.01116 273.1 18.8
288(9) 0.01067 273.1 18.8
322(10) 0.00951 273.1 18.8
306(9) 0.01036 273.1 18.8
315(9) 0.01064 273.2 18.8
298(9) 0.01108 273.2 18.8
281(9) 0.01133 273.2 18.9
298(9) 0.01021 273.3 19.0
292(9) 0.01088 273.3 19.1
297(9) 0.01122 273.3 19.3
280(9) 0.01136 273.3 19.5
300(9) 0.01009 273.4 19.8
294(9) 0.01034 273.4 20.1
256(9) 0.01206 273.4 20.6
290(9) 0.01155 273.5 21.1
326(10) 0.00970 273.5 21.7
297(9) 0.01052 273.5 22.5
272(9) 0.01152 273.5 23.4
303(9) 0.01068 273.6 24.4
289(9) 0.01152 273.6 25.5
287(9) 0.01128 273.6 26.8
298(9) 0.01061 273.6 28.2
298(9) 0.01071 273.7 29.8
324(10) 0.00995 273.7 31.4
316(9) 0.01065 273.7 33.2
338(10) 0.00926 273.8 35.0
336(10) 0.00925 273.8 36.7
343(10) 0.00890 273.8 38.4
292(9) 0.01113 273.8 40.0
324(9) 0.01034 273.9 41.3
320(10) 0.00982 273.9 42.2
353(11) 0.00818 273.9 42.7
323(10) 0.00957 274.0 42.7
332(10) 0.01004 274.0 42.3
300(9) 0.01103 274.0 41.4
312(10) 0.00996 274.0 40.2
329(10) 0.00902 274.1 38.7
312(10) 0.01007 274.1 36.9
282(9) 0.01207 274.1 35.1
316(9) 0.01052 274.1 33.2
312(10) 0.01004 274.2 31.4
319(10) 0.00903 274.2 29.6
301(9) 0.01094 274.2 28.0
296(9) 0.01133 274.3 26.4
307(9) 0.01104 274.3 25.0
339(10) 0.00896 274.3 23.8
310(10) 0.00985 274.3 22.6
290(9) 0.01078 274.4 21.7
297(9) 0.01119 274.4 20.8
332(10) 0.00981 274.4 20.1
305(9) 0.01036 274.5 19.5
290(9) 0.01029 274.5 19.0
316(9) 0.01019 274.5 18.7
308(9) 0.01094 274.5 18.4
291(9) 0.01116 274.6 18.3
303(9) 0.01049 274.6 18.2
310(9) 0.01028 274.6 18.3
314(10) 0.00986 274.6 18.5
281(9) 0.01170 274.7 18.7
276(9) 0.01170 274.7 19.1
302(9) 0.01042 274.7 19.5
307(9) 0.01036 274.8 20.1
307(9) 0.01034 274.8 20.7
303(9) 0.01090 274.8 21.5
307(9) 0.01065 274.8 22.3
309(10) 0.00998 274.9 23.3
299(9) 0.01062 274.9 24.3
308(9) 0.01062 274.9 25.5
301(9) 0.01115 275.0 26.7
315(9) 0.01018 275.0 28.1
290(9) 0.01078 275.0 29.5
312(9) 0.01020 275.0 31.0
300(9) 0.01097 275.1 32.6
311(9) 0.01083 275.1 34.1
305(9) 0.01013 275.1 35.7
317(10) 0.00923 275.1 37.3
301(9) 0.01040 275.2 38.7
303(9) 0.01087 275.2 40.1
309(9) 0.01090 275.2 41.2
334(10) 0.00939 275.3 42.1
311(10) 0.00988 275.3 42.7
324(10) 0.00938 275.3 43.0
298(9) 0.01109 275.3 42.9
295(9) 0.01126 275.4 42.5
343(10) 0.00914 275.4 41.8
335(10) 0.00899 275.4 40.8
312(9) 0.01017 275.5 39.6
283(9) 0.01192 275.5 38.2
294(9) 0.01127 275.5 36.6
310(9) 0.01010 275.5 35.0
325(10) 0.00895 275.6 33.3
298(9) 0.01070 275.6 31.7
304(9) 0.01104 275.6 30.0
302(9) 0.01105 275.7 28.5
283(9) 0.01119 275.7 27.0
296(9) 0.01016 275.7 25.6
265(9) 0.01180 275.7 24.3
279(9) 0.01191 275.8 23.1
275(9) 0.01208 275.8 22.0
325(10) 0.00964 275.8 21.0
292(9) 0.01039 275.8 20.1
300(9) 0.01030 275.9 19.3
274(9) 0.01224 275.9 18.6
293(9) 0.01126 275.9 18.0
294(9) 0.01057 276.0 17.5
257(8) 0.01237 276.0 17.1
297(9) 0.01044 276.0 16.8
281(9) 0.01172 276.0 16.5
301(9) 0.01095 276.1 16.4
283(9) 0.01134 276.1 16.3
283(9) 0.01078 276.1 16.3
286(9) 0.01086 276.2 16.3
299(9) 0.01117 276.2 16.4
300(9) 0.01055 276.2 16.5
293(9) 0.01053 276.2 16.7
266(9) 0.01160 276.3 16.9
294(9) 0.01068 276.3 17.1
283(9) 0.01174 276.3 17.3
290(9) 0.01052 276.3 17.4
305(9) 0.01041 276.4 17.6
291(9) 0.01109 276.4 17.7
314(9) 0.01023 276.4 17.7
284(9) 0.01164 276.5 17.6
295(9) 0.01075 276.5 17.5
300(9) 0.01049 276.5 17.2
296(9) 0.01063 276.5 16.9
291(9) 0.01130 276.6 16.6
288(9) 0.01155 276.6 16.1
285(9) 0.01067 276.6 15.7
268(9) 0.01134 276.7 15.2
314(9) 0.01008 276.7 14.7
272(9) 0.01197 276.7 14.2
280(9) 0.01186 276.7 13.8
286(9) 0.01042 276.8 13.3
288(9) 0.01022 276.8 12.9
295(9) 0.01054 276.8 12.5
299(9) 0.01112 276.8 12.2
291(9) 0.01154 276.9 11.9
281(9) 0.01100 276.9 11.6
262(9) 0.01131 276.9 11.3
267(9) 0.01095 277.0 11.1
286(9) 0.01144 277.0 10.9
304(9) 0.01090 277.0 10.8
296(9) 0.01039 277.0 10.7
308(10) 0.00936 277.1 10.6
313(10) 0.00993 277.1 10.6
299(9) 0.01115 277.1 10.6
281(9) 0.01167 277.2 10.7
271(9) 0.01156 277.2 10.7
323(10) 0.00910 277.2 10.9
285(9) 0.01070 277.2 11.1
285(9) 0.01164 277.3 11.3
299(9) 0.01097 277.3 11.6
310(10) 0.01001 277.3 12.0
312(10) 0.00981 277.3 12.4
277(9) 0.01151 277.4 12.9
270(8) 0.01233 277.4 13.5
289(9) 0.01105 277.4 14.2
276(9) 0.01117 277.5 14.9
294(9) 0.01035 277.5 15.8
293(9) 0.01056 277.5 16.7
300(9) 0.01105 277.5 17.8
296(9) 0.01068 277.6 18.9
291(9) 0.01043 277.6 20.1
273(9) 0.01128 277.6 21.4
297(9) 0.01062 277.7 22.8
340(10) 0.01002 277.7 24.1
275(9) 0.01143 277.7 25.4
314(10) 0.00977 277.7 26.6
292(9) 0.01102 277.8 27.6
285(9) 0.01143 277.8 28.4
323(9) 0.01038 277.8 28.8
303(9) 0.01045 277.8 29.0
283(9) 0.01070 277.9 28.8
293(9) 0.01084 277.9 28.3
311(9) 0.01044 277.9 27.6
299(9) 0.01123 278.0 26.7
306(10) 0.00992 278.0 25.7
287(9) 0.01057 278.0 24.6
291(9) 0.01077 278.0 23.6
298(9) 0.01110 278.1 22.6
279(9) 0.01189 278.1 21.8
301(9) 0.01016 278.1 21.0
280(9) 0.01034 278.2 20.3
289(9) 0.01102 278.2 19.7
318(9) 0.01033 278.2 19.2
304(9) 0.01086 278.2 18.8
304(9) 0.01018 278.3 18.6
285(10) 0.00981 278.3 18.4
289(9) 0.01065 278.3 18.4
285(9) 0.01180 278.3 18.4
289(9) 0.01145 278.4 18.5
320(10) 0.00974 278.4 18.7
309(10) 0.00947 278.4 19.0
320(10) 0.00974 278.5 19.4
310(9) 0.01067 278.5 19.8
300(9) 0.01108 278.5 20.3
307(9) 0.01026 278.5 20.8
296(9) 0.01034 278.6 21.4
318(10) 0.00965 278.6 22.0
326(9) 0.01029 278.6 22.7
272(9) 0.01216 278.7 23.5
312(10) 0.01004 278.7 24.3
297(9) 0.01033 278.7 25.1
313(10) 0.00975 278.7 25.9
290(9) 0.01137 278.8 26.8
296(9) 0.01094 278.8 27.7
292(9) 0.01068 278.8 28.6
315(10) 0.00937 278.8 29.5
313(9) 0.01025 278.9 30.4
293(9) 0.01143 278.9 31.3
310(9) 0.01061 278.9 32.2
294(9) 0.01110 279.0 33.0
320(10) 0.00951 279.0 33.8
298(9) 0.01068 279.0 34.5
314(9) 0.01062 279.0 35.2
281(9) 0.01131 279.1 35.7
321(10) 0.00954 279.1 36.1
333(10) 0.00935 279.1 36.4
317(9) 0.01013 279.2 36.6
322(9) 0.01039 279.2 36.7
293(9) 0.01071 279.2 36.6
300(9) 0.01009 279.2 36.4
321(10) 0.00992 279.3 36.1
297(9) 0.01115 279.3 35.7
330(9) 0.01009 279.3 35.1
309(9) 0.01021 279.3 34.5
294(9) 0.01060 279.4 33.7
309(10) 0.01006 279.4 32.9
299(9) 0.01080 279.4 32.1
311(9) 0.01081 279.5 31.2
311(10) 0.00988 279.5 30.2
277(9) 0.01138 279.5 29.2
316(10) 0.00986 279.5 28.2
302(9) 0.01085 279.6 27.3
319(9) 0.01042 279.6 26.3
283(9) 0.01137 279.6 25.3
306(10) 0.00979 279.7 24.4
296(9) 0.01037 279.7 23.5
299(9) 0.01119 279.7 22.6
298(9) 0.01114 279.7 21.7
295(9) 0.01090 279.8 20.9
288(9) 0.01010 279.8 20.1
296(9) 0.01062 279.8 19.3
295(9) 0.01149 279.8 18.6
291(9) 0.01149 279.9 17.9
309(9) 0.01015 279.9 17.2
305(10) 0.00979 279.9 16.6
296(9) 0.01060 280.0 16.0
301(9) 0.01128 280.0 15.4
285(9) 0.01100 280.0 14.9
322(10) 0.00972 280.0 14.4
312(10) 0.00970 280.1 13.9
306(9) 0.01013 280.1 13.5
266(8) 0.01241 280.1 13.1
295(9) 0.01118 280.2 12.7
306(9) 0.01035 280.2 12.3
301(10) 0.00987 280.2 12.0
282(9) 0.01114 280.2 11.7
312(9) 0.01072 280.3 11.4
315(10) 0.00979 280.3 11.1
279(9) 0.01144 280.3 10.9
286(9) 0.01118 280.3 10.6
300(9) 0.01030 280.4 10.4
281(9) 0.01187 280.4 10.2
289(9) 0.01094 280.4 10.0
313(10) 0.00983 280.5 9.9
292(9) 0.01089 280.5 9.7
313(9) 0.01049 280.5 9.6
289(9) 0.01156 280.5 9.4
281(9) 0.01093 280.6 9.3
297(9) 0.01023 280.6 9.2
294(9) 0.01091 280.6 9.1
274(9) 0.01200 280.7 9.0
275(9) 0.01207 280.7 8.9
299(9) 0.01027 280.7 8.9
300(10) 0.00980 280.7 8.8
273(9) 0.01114 280.8 8.7
294(9) 0.01125 280.8 8.7
290(9) 0.01158 280.8 8.6
279(9) 0.01129 280.8 8.5
275(9) 0.01094 280.9 8.5
294(9) 0.01058 280.9 8.4
284(9) 0.01166 280.9 8.4
267(8) 0.01242 281.0 8.3
283(9) 0.01082 281.0 8.3
285(9) 0.01032 281.0 8.2
307(9) 0.01008 281.0 8.2
307(9) 0.01074 281.1 8.1
293(9) 0.01141 281.1 8.0
294(9) 0.01098 281.1 8.0
273(9) 0.01071 281.2 7.9
298(9) 0.01030 281.2 7.9
309(9) 0.01062 281.2 7.8
277(9) 0.01202 281.2 7.7
291(9) 0.01060 281.3 7.7
271(9) 0.01086 281.3 7.6
289(9) 0.01119 281.3 7.5
285(9) 0.01167 281.3 7.5
323(9) 0.01010 281.4 7.4
315(9) 0.01018 281.4 7.4
283(9) 0.01093 281.4 7.3
285(9) 0.01105 281.5 7.2
291(9) 0.01145 281.5 7.2
285(9) 0.01125 281.5 7.1
311(9) 0.01021 281.5 7.1
295(9) 0.01050 281.6 7.0
310(10) 0.00999 281.6 7.0
300(9) 0.01114 281.6 6.9
291(9) 0.01119 281.7 6.9
284(9) 0.01171 281.7 6.8
292(9) 0.01107 281.7 6.8
305(9) 0.01057 281.7 6.8
284(9) 0.01171 281.8 6.7
300(9) 0.01075 281.8 6.7
322(10) 0.00980 281.8 6.7
284(9) 0.01125 281.8 6.7
292(9) 0.01080 281.9 6.7
295(9) 0.01141 281.9 6.7
278(9) 0.01134 281.9 6.7
301(10) 0.00994 282.0 6.7
285(9) 0.01090 282.0 6.7
295(9) 0.01106 282.0 6.8
311(9) 0.01084 282.0 6.8
280(9) 0.01097 282.1 6.8
276(9) 0.01091 282.1 6.9
308(9) 0.01012 282.1 6.9
287(9) 0.01160 282.2 7.0
283(9) 0.01179 282.2 7.1
307(9) 0.01025 282.2 7.2
290(9) 0.01072 282.2 7.3
282(9) 0.01125 282.3 7.4
279(9) 0.01187 282.3 7.5
288(9) 0.01154 282.3 7.7
285(9) 0.01119 282.3 7.9
295(10) 0.01005 282.4 8.1
278(9) 0.01126 282.4 8.3
298(9) 0.01104 282.4 8.6
287(9) 0.01162 282.4 8.8
280(9) 0.01143 282.4 9.2
306(10) 0.00932 282.5 9.6
270(9) 0.01170 282.5 10.0
289(9) 0.01159 282.5 10.5
279(9) 0.01168 282.5 11.1
307(9) 0.01028 282.5 11.7
310(10) 0.00979 282.5 12.5
299(9) 0.01070 282.6 13.3
310(9) 0.01084 282.6 14.2
290(9) 0.01153 282.6 15.2
322(10) 0.00966 282.6 16.4
295(10) 0.00992 282.6 17.6
307(10) 0.01003 282.7 19.0
298(9) 0.01132 282.7 20.5
294(9) 0.01122 282.7 22.1
326(10) 0.00950 282.7 23.7
319(10) 0.00951 282.7 25.4
290(9) 0.01074 282.7 27.1
309(9) 0.01081 282.8 28.8
310(9) 0.01084 282.8 30.3
331(10) 0.00910 282.8 31.6
304(9) 0.01034 282.8 32.6
326(10) 0.00966 282.8 33.2
326(9) 0.01017 282.8 33.4
316(9) 0.01049 282.9 33.2
308(9) 0.01044 282.9 32.5
309(9) 0.01017 282.9 31.5
330(10) 0.00976 282.9 30.2
321(9) 0.01050 282.9 28.7
324(10) 0.00963 283.0 27.1
298(9) 0.01034 283.0 25.5
299(9) 0.01053 283.0 23.8
299(9) 0.01095 283.0 22.2
326(9) 0.01037 283.0 20.7
316(10) 0.00994 283.0 19.3
309(10) 0.00988 283.1 18.0
319(10) 0.00959 283.1 16.8
312(9) 0.01041 283.1 15.7
310(9) 0.01062 283.1 14.8
282(9) 0.01108 283.1 13.9
284(9) 0.01088 283.1 13.1
310(9) 0.01033 283.2 12.5
281(9) 0.01172 283.2 11.9
288(9) 0.01147 283.2 11.4
292(9) 0.01067 283.2 10.9
321(10) 0.00948 283.2 10.5
325(10) 0.00977 283.3 10.2
305(9) 0.01083 283.3 9.9
303(9) 0.01094 283.3 9.7
317(10) 0.00999 283.3 9.5
307(10) 0.00960 283.3 9.3
309(10) 0.00999 283.3 9.1
293(9) 0.01151 283.4 9.0
300(9) 0.01102 283.4 8.9
297(9) 0.01050 283.4 8.8
302(10) 0.00960 283.4 8.8
300(9) 0.01086 283.4 8.7
303(9) 0.01091 283.5 8.7
289(9) 0.01138 283.5 8.6
307(10) 0.00989 283.5 8.6
304(10) 0.01006 283.5 8.6
307(9) 0.01032 283.5 8.6
297(9) 0.01126 283.5 8.7
299(9) 0.01099 283.6 8.7
299(9) 0.01057 283.6 8.7
311(10) 0.00940 283.6 8.8
307(10) 0.00990 283.6 8.8
298(9) 0.01111 283.6 8.9
293(9) 0.01138 283.6 9.0
307(9) 0.01025 283.7 9.0
294(9) 0.01085 283.7 9.1
301(9) 0.01070 283.7 9.2
300(9) 0.01103 283.7 9.3
295(9) 0.01129 283.7 9.4
308(9) 0.01021 283.8 9.5
307(9) 0.01026 283.8 9.7
303(9) 0.01045 283.8 9.8
310(9) 0.01081 283.8 10.0
297(9) 0.01090 283.8 10.1
305(9) 0.01022 283.8 10.3
289(9) 0.01101 283.9 10.5
311(9) 0.01056 283.9 10.7
320(9) 0.01054 283.9 10.9
308(9) 0.01029 283.9 11.1
309(10) 0.00948 283.9 11.4
296(9) 0.01049 283.9 11.6
322(9) 0.01023 284.0 11.9
306(9) 0.01102 284.0 12.2
317(10) 0.00968 284.0 12.5
297(9) 0.01022 284.0 12.9
309(10) 0.00994 284.0 13.2
307(9) 0.01044 284.1 13.7
329(10) 0.01003 284.1 14.1
296(9) 0.01095 284.1 14.6
309(10) 0.00964 284.1 15.2
328(10) 0.00940 284.1 15.8
304(9) 0.01084 284.1 16.5
320(9) 0.01057 284.2 17.2
296(9) 0.01077 284.2 18.1
307(10) 0.00944 284.2 19.0
306(9) 0.01042 284.2 20.1
329(9) 0.01025 284.2 21.3
300(9) 0.01101 284.2 22.6
314(10) 0.01003 284.3 24.0
309(10) 0.00956 284.3 25.7
305(9) 0.01060 284.3 27.4
329(9) 0.01022 284.3 29.4
340(10) 0.00997 284.3 31.4
329(10) 0.00950 284.4 33.7
341(10) 0.00887 284.4 36.0
321(9) 0.01012 284.4 38.5
349(10) 0.00981 284.4 41.0
373(10) 0.00901 284.4 43.5
385(10) 0.00844 284.4 45.9
357(10) 0.00874 284.5 48.0
353(10) 0.00909 284.5 49.8
366(10) 0.00935 284.5 51.1
364(10) 0.00905 284.5 51.9
366(10) 0.00886 284.5 52.2
347(10) 0.00923 284.5 51.8
342(10) 0.00932 284.6 51.0
325(9) 0.01040 284.6 49.9
348(10) 0.00947 284.6 48.5
336(10) 0.00954 284.6 46.9
348(10) 0.00894 284.6 45.4
341(10) 0.00954 284.7 43.9
362(10) 0.00953 284.7 42.6
330(10) 0.00991 284.7 41.4
354(10) 0.00878 284.7 40.4
316(10) 0.00996 284.7 39.6
327(10) 0.01007 284.7 39.1
329(9) 0.01021 284.8 38.8
333(10) 0.00976 284.8 38.7
341(10) 0.00897 284.8 38.9
334(10) 0.00952 284.8 39.3
337(10) 0.00968 284.8 40.0
347(10) 0.00976 284.8 40.8
342(10) 0.00942 284.9 41.9
344(10) 0.00891 284.9 43.2
366(10) 0.00861 284.9 44.7
342(10) 0.00976 284.9 46.3
356(10) 0.00952 284.9 48.2
349(10) 0.00883 285.0 50.1
369(11) 0.00816 285.0 52.1
367(10) 0.00870 285.0 54.2
360(10) 0.00933 285.0 56.2
365(10) 0.00938 285.0 58.1
383(10) 0.00865 285.0 59.8
394(11) 0.00754 285.1 61.2
386(11) 0.00823 285.1 62.3
372(10) 0.00923 285.1 62.9
395(10) 0.00855 285.1 63.0
374(10) 0.00839 285.1 62.6
350(10) 0.00858 285.1 61.7
359(10) 0.00870 285.2 60.4
339(10) 0.00991 285.2 58.6
351(10) 0.00962 285.2 56.7
340(10) 0.00938 285.2 54.5
350(10) 0.00848 285.2 52.2
339(10) 0.00919 285.3 49.9
336(10) 0.01007 285.3 47.5
336(10) 0.00998 285.3 45.3
321(10) 0.01002 285.3 43.1
348(10) 0.00885 285.3 41.1
304(9) 0.01046 285.3 39.1
343(10) 0.00991 285.4 37.3
331(10) 0.01005 285.4 35.6
342(10) 0.00912 285.4 34.0
329(10) 0.00940 285.4 32.6
310(9) 0.01015 285.4 31.2
334(10) 0.01005 285.4 30.0
337(10) 0.00985 285.5 28.9
331(10) 0.00956 285.5 27.9
337(10) 0.00907 285.5 26.9
316(9) 0.01014 285.5 26.1
306(9) 0.01103 285.5 25.3
320(9) 0.01008 285.6 24.6
283(9) 0.01062 285.6 23.9
304(9) 0.01011 285.6 23.4
316(9) 0.01034 285.6 22.8
305(9) 0.01085 285.6 22.3
298(9) 0.01055 285.6 21.9
315(10) 0.00967 285.7 21.4
306(9) 0.01058 285.7 21.1
332(10) 0.00953 285.7 20.7
316(9) 0.01058 285.7 20.4
314(10) 0.00998 285.7 20.1
332(10) 0.00896 285.7 19.8
298(9) 0.01082 285.8 19.6
293(9) 0.01105 285.8 19.3
294(9) 0.01144 285.8 19.1
297(9) 0.01020 285.8 18.9
287(9) 0.01045 285.8 18.8
304(9) 0.01025 285.9 18.6
303(9) 0.01111 285.9 18.5
313(9) 0.01079 285.9 18.4
283(9) 0.01135 285.9 18.3
297(10) 0.00990 285.9 18.2
306(9) 0.01029 285.9 18.1
287(9) 0.01156 286.0 18.1
300(9) 0.01112 286.0 18.1
293(9) 0.01092 286.0 18.1
318(10) 0.00940 286.0 18.1
330(10) 0.00946 286.0 18.1
322(9) 0.01035 286.0 18.2
307(9) 0.01090 286.1 18.3
292(9) 0.01084 286.1 18.4
281(9) 0.01050 286.1 18.5
318(10) 0.00977 286.1 18.6
321(9) 0.01048 286.1 18.8
306(9) 0.01097 286.2 19.0
335(10) 0.00935 286.2 19.2
314(10) 0.00974 286.2 19.4
318(10) 0.01005 286.2 19.7
315(9) 0.01076 286.2 19.9
314(9) 0.01052 286.2 20.2
314(10) 0.00992 286.3 20.6
311(10) 0.00999 286.3 20.9
331(10) 0.00961 286.3 21.3
319(9) 0.01051 286.3 21.7
295(9) 0.01109 286.3 22.1
285(9) 0.01065 286.3 22.6
301(9) 0.01012 286.4 23.0
321(9) 0.01013 286.4 23.5
307(9) 0.01090 286.4 24.0
346(10) 0.00945 286.4 24.6
315(10) 0.00992 286.4 25.1
302(10) 0.01005 286.5 25.7
331(10) 0.00958 286.5 26.2
323(9) 0.01038 286.5 26.8
314(9) 0.01040 286.5 27.4
311(10) 0.00991 286.5 27.9
318(10) 0.00996 286.5 28.5
319(9) 0.01014 286.6 29.0
332(9) 0.01021 286.6 29.6
295(9) 0.01079 286.6 30.1
300(9) 0.01048 286.6 30.7
327(10) 0.00953 286.6 31.2
316(9) 0.01032 286.6 31.7
318(9) 0.01058 286.7 32.2
336(10) 0.00893 286.7 32.7
318(10) 0.00954 286.7 33.2
321(10) 0.00985 286.7 33.7
313(9) 0.01028 286.7 34.2
301(9) 0.01109 286.8 34.6
323(10) 0.00995 286.8 35.1
327(10) 0.00952 286.8 35.6
320(10) 0.00987 286.8 36.0
304(9) 0.01108 286.8 36.4
318(9) 0.01055 286.8 36.8
344(10) 0.00917 286.9 37.2
318(10) 0.00959 286.9 37.6
312(9) 0.01011 286.9 37.9
299(9) 0.01118 286.9 38.2
316(9) 0.01061 286.9 38.5
301(9) 0.01060 286.9 38.7
325(10) 0.00939 287.0 38.8
332(10) 0.00942 287.0 39.0
328(9) 0.01038 287.0 39.1
321(9) 0.01030 287.0 39.1
342(10) 0.00912 287.0 39.1
322(10) 0.00934 287.1 39.1
328(10) 0.00945 287.1 39.0
312(9) 0.01079 287.1 39.0
314(9) 0.01057 287.1 38.8
310(9) 0.01030 287.1 38.7
308(10) 0.01000 287.1 38.6
309(9) 0.01047 287.2 38.4
304(9) 0.01111 287.2 38.3
311(9) 0.01029 287.2 38.1
324(10) 0.00961 287.2 38.0
315(10) 0.00996 287.2 37.8
322(9) 0.01012 287.2 37.7
335(9) 0.01009 287.3 37.6
333(10) 0.00996 287.3 37.5
346(10) 0.00909 287.3 37.5
325(10) 0.00967 287.3 37.5
301(9) 0.01053 287.3 37.5
308(9) 0.01086 287.4 37.5
308(9) 0.01026 287.4 37.5
352(10) 0.00889 287.4 37.6
357(10) 0.00892 287.4 37.7
319(9) 0.01025 287.4 37.9
311(9) 0.01069 287.4 38.1
334(10) 0.00977 287.5 38.3
322(10) 0.00983 287.5 38.6
337(10) 0.00935 287.5 38.9
329(10) 0.00999 287.5 39.3
322(9) 0.01047 287.5 39.7
328(10) 0.00939 287.5 40.2
322(10) 0.00942 287.6 40.8
316(9) 0.01025 287.6 41.4
307(9) 0.01087 287.6 42.1
323(9) 0.01034 287.6 42.9
366(10) 0.00862 287.6 43.7
339(10) 0.00876 287.7 44.7
328(10) 0.00970 287.7 45.7
318(9) 0.01036 287.7 46.9
375(10) 0.00914 287.7 48.1
364(10) 0.00869 287.7 49.5
312(10) 0.00972 287.7 51.0
341(10) 0.00927 287.8 52.6
350(10) 0.00973 287.8 54.2
326(9) 0.01041 287.8 56.0
365(10) 0.00874 287.8 57.9
351(11) 0.00837 287.8 59.7
348(10) 0.00891 287.8 61.6
322(9) 0.01047 287.9 63.5
369(10) 0.00919 287.9 65.2
355(10) 0.00893 287.9 66.7
332(10) 0.00900 287.9 67.9
344(10) 0.00909 287.9 68.7
376(10) 0.00908 288.0 69.2
344(10) 0.00969 288.0 69.1
342(10) 0.00951 288.0 68.5
359(10) 0.00878 288.0 67.4
366(10) 0.00885 288.0 65.9
362(10) 0.00942 288.0 64.0
350(10) 0.00962 288.1 61.7
340(10) 0.00939 288.1 59.3
327(10) 0.00952 288.1 56.7
317(10) 0.01006 288.1 54.1
356(10) 0.00950 288.1 51.4
331(9) 0.01011 288.1 48.8
323(10) 0.00972 288.2 46.3
301(9) 0.01012 288.2 43.9
324(10) 0.00969 288.2 41.6
339(10) 0.01005 288.2 39.5
337(10) 0.00947 288.2 37.5
331(10) 0.00917 288.3 35.6
315(10) 0.00977 288.3 33.9
348(10) 0.00893 288.3 32.3
320(9) 0.01053 288.3 30.8
321(10) 0.01007 288.3 29.4
307(10) 0.01007 288.3 28.2
325(10) 0.00935 288.4 27.0
333(10) 0.00977 288.4 26.0
306(9) 0.01103 288.4 25.0
327(10) 0.00940 288.4 24.1
320(10) 0.00959 288.4 23.3
326(10) 0.00917 288.4 22.5
318(9) 0.01047 288.5 21.9
298(9) 0.01114 288.5 21.2
305(9) 0.01060 288.5 20.6
334(10) 0.00908 288.5 20.1
319(10) 0.00983 288.5 19.6
331(10) 0.00982 288.6 19.1
295(9) 0.01142 288.6 18.7
317(10) 0.00985 288.6 18.3
318(10) 0.00961 288.6 17.9
334(10) 0.00946 288.6 17.6
301(9) 0.01069 288.6 17.3
281(9) 0.01199 288.7 17.0
319(10) 0.00959 288.7 16.7
302(10) 0.00983 288.7 16.4
298(9) 0.01046 288.7 16.2
297(9) 0.01108 288.7 16.0
314(9) 0.01058 288.7 15.7
313(10) 0.01001 288.8 15.6
310(10) 0.00979 288.8 15.4
337(10) 0.00941 288.8 15.2
324(9) 0.01035 288.8 15.0
293(9) 0.01135 288.8 14.9
331(10) 0.00905 288.9 14.7
302(10) 0.01000 288.9 14.6
300(9) 0.01050 288.9 14.5
323(9) 0.01032 288.9 14.4
296(9) 0.01089 288.9 14.3
307(9) 0.01016 288.9 14.2
303(9) 0.01008 289.0 14.1
304(10) 0.01005 289.0 14.1
302(9) 0.01114 289.0 14.0
318(9) 0.01030 289.0 14.0
321(10) 0.01003 289.0 13.9
310(9) 0.01024 289.0 13.9
296(9) 0.01084 289.1 13.9
311(9) 0.01074 289.1 13.9
311(9) 0.01031 289.1 13.9
293(9) 0.01088 289.1 13.9
289(9) 0.01040 289.1 13.9
305(9) 0.01037 289.2 13.9
314(9) 0.01073 289.2 13.9
303(9) 0.01034 289.2 14.0
308(9) 0.01021 289.2 14.0
320(10) 0.00988 289.2 14.1
302(9) 0.01080 289.2 14.2
308(9) 0.01082 289.3 14.3
327(10) 0.00941 289.3 14.4
303(10) 0.00994 289.3 14.5
329(10) 0.00966 289.3 14.6
322(9) 0.01025 289.3 14.7
283(9) 0.01185 289.3 14.9
334(10) 0.00905 289.4 15.1
325(10) 0.00930 289.4 15.2
304(9) 0.01047 289.4 15.4
340(10) 0.00979 289.4 15.6
310(9) 0.01085 289.4 15.8
308(10) 0.00976 289.5 16.1
314(10) 0.00973 289.5 16.3
314(9) 0.01034 289.5 16.5
302(9) 0.01062 289.5 16.8
335(9) 0.01020 289.5 17.0
317(9) 0.01021 289.5 17.3
330(10) 0.00884 289.6 17.5
316(9) 0.01017 289.6 17.8
331(10) 0.01007 289.6 18.0
333(10) 0.01004 289.6 18.2
347(10) 0.00925 289.6 18.4
333(10) 0.00911 289.6 18.6
333(10) 0.00967 289.7 18.7
326(9) 0.01040 289.7 18.8
330(9) 0.01015 289.7 18.8
337(10) 0.00941 289.7 18.7
315(10) 0.00951 289.7 18.7
325(10) 0.00990 289.8 18.5
349(10) 0.00980 289.8 18.3
352(10) 0.00946 289.8 18.1
326(10) 0.00971 289.8 17.8
303(10) 0.00986 289.8 17.5
299(9) 0.01029 289.8 17.1
322(9) 0.01048 289.9 16.8
308(9) 0.01056 289.9 16.4
286(9) 0.01086 289.9 16.0
303(10) 0.00985 289.9 15.5
305(9) 0.01017 289.9 15.1
337(10) 0.01005 289.9 14.7
282(9) 0.01120 290.0 14.3
307(9) 0.01012 290.0 13.9
304(9) 0.01029 290.0 13.5
324(10) 0.00986 290.0 13.1
333(9) 0.01016 290.0 12.7
304(9) 0.01050 290.1 12.4
304(9) 0.01010 290.1 12.0
315(10) 0.00969 290.1 11.7
302(9) 0.01086 290.1 11.4
331(9) 0.01013 290.1 11.1
315(10) 0.00991 290.1 10.8
291(9) 0.01066 290.2 10.6
302(9) 0.01013 290.2 10.3
307(9) 0.01080 290.2 10.1
303(9) 0.01106 290.2 9.8
294(9) 0.01102 290.2 9.6
295(9) 0.01046 290.2 9.4
312(10) 0.01005 290.3 9.2
329(10) 0.00996 290.3 9.0
296(9) 0.01124 290.3 8.9
283(9) 0.01145 290.3 8.7
317(10) 0.00954 290.3 8.5
303(9) 0.01046 290.4 8.4
317(9) 0.01047 290.4 8.3
297(9) 0.01134 290.4 8.1
301(9) 0.01035 290.4 8.0
302(10) 0.00978 290.4 7.9
317(10) 0.00976 290.4 7.8
299(9) 0.01112 290.5 7.7
305(9) 0.01076 290.5 7.6
309(9) 0.01013 290.5 7.5
321(10) 0.00894 290.5 7.4
321(10) 0.00948 290.5 7.3
302(9) 0.01109 290.5 7.3
288(9) 0.01126 290.6 7.2
302(9) 0.01063 290.6 7.1
307(9) 0.01013 290.6 7.1
283(9) 0.01103 290.6 7.0
299(9) 0.01110 290.6 7.0
310(9) 0.01041 290.7 7.0
292(9) 0.01108 290.7 6.9
317(10) 0.00958 290.7 6.9
329(10) 0.00948 290.7 6.9
286(9) 0.01142 290.7 6.8
307(9) 0.01085 290.7 6.8
300(9) 0.01047 290.8 6.8
294(10) 0.00996 290.8 6.8
278(9) 0.01108 290.8 6.7
295(9) 0.01131 290.8 6.7
277(9) 0.01125 290.8 6.7
281(9) 0.01088 290.8 6.7
322(10) 0.00925 290.9 6.6
331(10) 0.00974 290.9 6.6
315(9) 0.01063 290.9 6.6
292(9) 0.01084 290.9 6.6
292(9) 0.01048 290.9 6.6
300(9) 0.01033 291.0 6.5
309(9) 0.01032 291.0 6.5
307(9) 0.01083 291.0 6.5
278(9) 0.01139 291.0 6.5
297(9) 0.01024 291.0 6.5
298(9) 0.01053 291.0 6.5
315(9) 0.01060 291.1 6.5
315(9) 0.01060 291.1 6.5
304(9) 0.01037 291.1 6.5
315(10) 0.00984 291.1 6.5
316(9) 0.01029 291.1 6.6
305(9) 0.01084 291.1 6.6
282(9) 0.01176 291.2 6.6
298(9) 0.01027 291.2 6.6
294(9) 0.01038 291.2 6.7
311(9) 0.01008 291.2 6.7
303(9) 0.01080 291.2 6.8
307(9) 0.01092 291.3 6.8
291(9) 0.01063 291.3 6.9
274(9) 0.01064 291.3 6.9
280(9) 0.01115 291.3 7.0
276(9) 0.01191 291.3 7.1
306(9) 0.01097 291.3 7.2
314(10) 0.01004 291.4 7.2
310(10) 0.00962 291.4 7.3
297(9) 0.01078 291.4 7.4
309(9) 0.01074 291.4 7.5
297(9) 0.01087 291.4 7.6
280(9) 0.01120 291.4 7.6
309(10) 0.00941 291.5 7.7
297(9) 0.01057 291.5 7.8
311(9) 0.01092 291.5 7.9
301(9) 0.01057 291.5 8.0
306(9) 0.01014 291.5 8.0
301(10) 0.01005 291.6 8.1
312(10) 0.00978 291.6 8.1
306(9) 0.01098 291.6 8.2
307(9) 0.01055 291.6 8.2
325(10) 0.00967 291.6 8.3
339(10) 0.00893 291.6 8.3
319(10) 0.01003 291.7 8.3
313(9) 0.01072 291.7 8.3
302(9) 0.01086 291.7 8.3
315(10) 0.00986 291.7 8.3
292(9) 0.01077 291.7 8.3
291(9) 0.01099 291.7 8.3
306(9) 0.01073 291.8 8.3
322(10) 0.00997 291.8 8.3
317(10) 0.00982 291.8 8.3
305(10) 0.00988 291.8 8.3
314(9) 0.01040 291.8 8.2
301(9) 0.01107 291.9 8.2
294(9) 0.01091 291.9 8.2
321(10) 0.00963 291.9 8.1
302(9) 0.01051 291.9 8.1
297(9) 0.01084 291.9 8.1
317(9) 0.01060 291.9 8.0
298(9) 0.01075 292.0 8.0
316(10) 0.00982 292.0 8.0
301(9) 0.01062 292.0 7.9
298(9) 0.01109 292.0 7.9
310(9) 0.01078 292.0 7.8
282(9) 0.01130 292.0 7.8
294(9) 0.01023 292.1 7.7
317(10) 0.00975 292.1 7.7
291(9) 0.01103 292.1 7.6
315(9) 0.01067 292.1 7.6
300(9) 0.01045 292.1 7.5
296(10) 0.00993 292.2 7.5
274(9) 0.01160 292.2 7.4
324(9) 0.01032 292.2 7.4
302(9) 0.01097 292.2 7.3
310(9) 0.01014 292.2 7.2
291(9) 0.01014 292.2 7.2
272(9) 0.01171 292.2 7.1
300(9) 0.01120 292.2 7.1
306(9) 0.01095 292.3 7.0
307(9) 0.01033 292.3 7.0
312(10) 0.00968 292.3 6.9
302(9) 0.01060 292.3 6.9
309(9) 0.01095 292.3 6.8
289(9) 0.01129 292.3 6.8
281(9) 0.01102 292.3 6.7
296(10) 0.00994 292.3 6.7
298(9) 0.01058 292.3 6.7
320(9) 0.01047 292.4 6.6
297(9) 0.01116 292.4 6.6
296(9) 0.01086 292.4 6.5
306(9) 0.01031 292.4 6.5
316(10) 0.00997 292.4 6.4
303(9) 0.01110 292.4 6.4
305(9) 0.01105 292.4 6.4
327(10) 0.00977 292.4 6.3
315(10) 0.00993 292.5 6.3
298(9) 0.01104 292.5 6.3
302(9) 0.01112 292.5 6.2
304(9) 0.01059 292.5 6.2
287(9) 0.01081 292.5 6.2
282(9) 0.01098 292.5 6.1
293(9) 0.01107 292.5 6.1
293(9) 0.01149 292.5 6.1
301(9) 0.01049 292.5 6.1
300(9) 0.01040 292.6 6.0
285(9) 0.01107 292.6 6.0
319(10) 0.00992 292.6 6.0
303(9) 0.01108 292.6 6.0
295(9) 0.01033 292.6 5.9
289(9) 0.01030 292.6 5.9
292(9) 0.01086 292.6 5.9
298(9) 0.01106 292.6 5.9
311(9) 0.01083 292.7 5.9
326(10) 0.00940 292.7 5.9
292(9) 0.01051 292.7 5.9
320(10) 0.00979 292.7 5.9
280(9) 0.01169 292.7 5.8
314(9) 0.01060 292.7 5.8
332(10) 0.00948 292.7 5.8
292(9) 0.01047 292.7 5.8
308(10) 0.00987 292.8 5.9
302(9) 0.01105 292.8 5.9
298(9) 0.01126 292.8 5.9
309(9) 0.01019 292.8 5.9
294(9) 0.01025 292.8 5.9
313(9) 0.01008 292.8 5.9
291(9) 0.01134 292.8 5.9
289(9) 0.01148 292.8 5.9
295(9) 0.01072 292.8 6.0
309(10) 0.00953 292.9 6.0
318(10) 0.01003 292.9 6.0
304(9) 0.01096 292.9 6.1
308(9) 0.01079 292.9 6.1
307(9) 0.01038 292.9 6.1
302(10) 0.01002 292.9 6.2
290(9) 0.01078 292.9 6.2
275(9) 0.01223 292.9 6.3
284(9) 0.01152 293.0 6.3
308(9) 0.01024 293.0 6.4
291(9) 0.01087 293.0 6.5
297(9) 0.01066 293.0 6.5
274(9) 0.01220 293.0 6.6
290(9) 0.01128 293.0 6.7
287(9) 0.01092 293.0 6.8
306(10) 0.00958 293.0 6.9
272(9) 0.01174 293.0 7.0
298(9) 0.01119 293.1 7.1
304(9) 0.01078 293.1 7.2
296(9) 0.01053 293.1 7.3
311(10) 0.00961 293.1 7.4
320(10) 0.00990 293.1 7.6
311(9) 0.01069 293.1 7.7
305(9) 0.01053 293.1 7.9
299(9) 0.01017 293.1 8.1
292(9) 0.01087 293.2 8.2
315(9) 0.01018 293.2 8.4
317(9) 0.01054 293.2 8.6
307(9) 0.01064 293.2 8.8
313(9) 0.01014 293.2 9.0
327(10) 0.00962 293.2 9.3
315(9) 0.01024 293.2 9.5
284(9) 0.01159 293.2 9.7
301(9) 0.01028 293.2 10.0
282(9) 0.01068 293.3 10.3
291(9) 0.01043 293.3 10.5
320(9) 0.01021 293.3 10.8
323(9) 0.01042 293.3 11.1
289(9) 0.01060 293.3 11.3
289(9) 0.01074 293.3 11.6
330(10) 0.00967 293.3 11.9
312(9) 0.01074 293.3 12.1
324(9) 0.01048 293.4 12.4
314(10) 0.00964 293.4 12.6
288(9) 0.01016 293.4 12.8
276(9) 0.01176 293.4 13.0
294(9) 0.01145 293.4 13.1
296(9) 0.01118 293.4 13.2
296(9) 0.01061 293.4 13.3
321(10) 0.00910 293.4 13.3
324(10) 0.00964 293.4 13.3
299(9) 0.01100 293.5 13.3
312(9) 0.01073 293.5 13.2
304(9) 0.01026 293.5 13.1
294(9) 0.01030 293.5 12.9
300(9) 0.01065 293.5 12.8
268(9) 0.01222 293.5 12.6
303(9) 0.01099 293.5 12.4
303(9) 0.01058 293.5 12.3
299(10) 0.00996 293.6 12.1
298(9) 0.01035 293.6 11.9
305(9) 0.01081 293.6 11.7
312(9) 0.01074 293.6 11.5
305(9) 0.01029 293.6 11.3
280(9) 0.01123 293.6 11.2
317(10) 0.00981 293.6 11.0
305(9) 0.01097 293.6 10.9
304(9) 0.01054 293.6 10.8
319(10) 0.00925 293.7 10.6
315(10) 0.00955 293.7 10.5
347(10) 0.00912 293.7 10.5
325(9) 0.01042 293.7 10.4
295(9) 0.01105 293.7 10.3
297(9) 0.01048 293.7 10.3
304(9) 0.01022 293.7 10.3
335(10) 0.00949 293.7 10.2
309(9) 0.01096 293.8 10.2
315(10) 0.01005 293.8 10.3
308(10) 0.01002 293.8 10.3
324(10) 0.00944 293.8 10.3
307(9) 0.01074 293.8 10.4
306(9) 0.01101 293.8 10.5
339(10) 0.00917 293.8 10.5
298(9) 0.01059 293.8 10.6
303(9) 0.01028 293.8 10.8
297(9) 0.01115 293.9 10.9
309(9) 0.01077 293.9 11.1
287(9) 0.01064 293.9 11.2
294(9) 0.01013 293.9 11.4
296(9) 0.01026 293.9 11.6
287(9) 0.01161 293.9 11.8
299(9) 0.01127 293.9 12.1
315(10) 0.01006 293.9 12.4
308(10) 0.00957 294.0 12.7
309(9) 0.01031 294.0 13.0
321(9) 0.01048 294.0 13.4
328(9) 0.01013 294.0 13.8
307(9) 0.01009 294.0 14.2
307(10) 0.00986 294.0 14.6
288(9) 0.01082 294.0 15.1
295(9) 0.01132 294.0 15.7
306(9) 0.01102 294.0 16.2
318(10) 0.00976 294.1 16.9
302(10) 0.00935 294.1 17.5
307(10) 0.00979 294.1 18.2
300(9) 0.01122 294.1 18.9
312(9) 0.01054 294.1 19.7
315(9) 0.01024 294.1 20.5
302(9) 0.01008 294.1 21.3
312(9) 0.01021 294.1 22.1
313(9) 0.01079 294.2 23.0
349(10) 0.00979 294.2 23.8
338(10) 0.00938 294.2 24.6
332(10) 0.00919 294.2 25.4
346(10) 0.00920 294.2 26.1
336(10) 0.01003 294.2 26.7
328(10) 0.01004 294.2 27.2
319(10) 0.01005 294.2 27.6
342(10) 0.00899 294.3 27.9
314(9) 0.01036 294.3 28.0
326(9) 0.01034 294.3 27.9
348(10) 0.00911 294.3 27.7
321(10) 0.00983 294.3 27.4
318(10) 0.00998 294.3 26.9
317(9) 0.01009 294.3 26.2
298(9) 0.01131 294.3 25.5
311(9) 0.01019 294.3 24.7
335(10) 0.00927 294.4 23.8
317(10) 0.01004 294.4 22.9
310(9) 0.01026 294.4 22.0
315(9) 0.01065 294.4 21.1
296(9) 0.01073 294.4 20.2
313(10) 0.00981 294.4 19.3
300(9) 0.01058 294.4 18.4
316(9) 0.01059 294.4 17.6
307(9) 0.01101 294.5 16.8
318(10) 0.00979 294.5 16.0
343(10) 0.00883 294.5 15.3
317(9) 0.01013 294.5 14.6
291(9) 0.01144 294.5 14.0
288(9) 0.01133 294.5 13.4
295(9) 0.01079 294.5 12.8
320(10) 0.00953 294.5 12.3
300(9) 0.01065 294.5 11.8
286(9) 0.01165 294.6 11.4
297(9) 0.01118 294.6 11.0
332(10) 0.00919 294.6 10.7
300(10) 0.00982 294.6 10.3
299(9) 0.01049 294.6 10.0
293(9) 0.01132 294.6 9.7
307(9) 0.01066 294.6 9.5
297(9) 0.01051 294.6 9.2
300(10) 0.01005 294.7 9.0
300(9) 0.01048 294.7 8.9
323(9) 0.01045 294.7 8.7
314(9) 0.01045 294.7 8.5
309(10) 0.01005 294.7 8.4
292(9) 0.01049 294.7 8.3
312(10) 0.00978 294.7 8.2
294(9) 0.01143 294.7 8.1
305(9) 0.01063 294.7 8.0
305(9) 0.01019 294.8 7.9
320(10) 0.00931 294.8 7.8
308(9) 0.01018 294.8 7.7
307(9) 0.01083 294.8 7.7
306(9) 0.01077 294.8 7.6
315(10) 0.00966 294.8 7.5
303(10) 0.00991 294.8 7.5
296(9) 0.01081 294.8 7.4
282(9) 0.01178 294.9 7.4
303(9) 0.01061 294.9 7.3
309(9) 0.01013 294.9 7.3
317(10) 0.00977 294.9 7.2
310(9) 0.01013 294.9 7.1
291(9) 0.01142 294.9 7.1
299(9) 0.01080 294.9 7.0
301(10) 0.01006 294.9 7.0
301(9) 0.01041 294.9 6.9
316(9) 0.01035 295.0 6.8
285(9) 0.01183 295.0 6.8
298(9) 0.01067 295.0 6.7
319(10) 0.00935 295.0 6.7
287(9) 0.01109 295.0 6.6
300(9) 0.01084 295.0 6.5
299(9) 0.01108 295.0 6.5
302(9) 0.01034 295.0 6.4
301(10) 0.00996 295.1 6.4
302(9) 0.01033 295.1 6.3
291(9) 0.01117 295.1 6.3
294(9) 0.01140 295.1 6.2
278(9) 0.01163 295.1 6.2
311(10) 0.00973 295.1 6.2
312(9) 0.01014 295.1 6.1
282(9) 0.01158 295.1 6.1
309(9) 0.01086 295.1 6.1
300(9) 0.01069 295.2 6.1
286(9) 0.01033 295.2 6.1
284(9) 0.01129 295.2 6.1
305(9) 0.01095 295.2 6.1
292(9) 0.01149 295.2 6.1
315(10) 0.00982 295.2 6.1
298(9) 0.01021 295.2 6.1
312(10) 0.00987 295.2 6.1
311(9) 0.01093 295.3 6.1
299(9) 0.01117 295.3 6.1
301(9) 0.01024 295.3 6.2
301(10) 0.00981 295.3 6.2
291(9) 0.01079 295.3 6.2
301(9) 0.01115 295.3 6.3
295(9) 0.01117 295.3 6.3
294(9) 0.01077 295.3 6.4
319(10) 0.00966 295.3 6.5
288(9) 0.01094 295.4 6.5
302(9) 0.01112 295.4 6.6
298(9) 0.01068 295.4 6.7
301(9) 0.01012 295.4 6.8
298(9) 0.01036 295.4 6.9
303(10) 0.01007 295.4 7.1
329(9) 0.01024 295.4 7.2
312(10) 0.01004 295.4 7.4
306(10) 0.00970 295.5 7.6
284(9) 0.01072 295.5 7.7
301(9) 0.01034 295.5 8.0
300(9) 0.01104 295.5 8.2
295(9) 0.01082 295.5 8.5
328(10) 0.00941 295.5 8.7
292(9) 0.01077 295.5 9.1
295(9) 0.01088 295.5 9.4
316(9) 0.01062 295.5 9.8
290(9) 0.01104 295.6 10.2
309(9) 0.01015 295.6 10.7
318(10) 0.01005 295.6 11.2
293(9) 0.01127 295.6 11.7
301(9) 0.01113 295.6 12.3
317(10) 0.00995 295.6 12.9
325(10) 0.00930 295.6 13.6
307(9) 0.01016 295.6 14.3
305(9) 0.01065 295.7 15.0
320(9) 0.01069 295.7 15.7
309(10) 0.01000 295.7 16.5
310(10) 0.00987 295.7 17.2
328(10) 0.00977 295.7 18.0
308(9) 0.01051 295.7 18.6
302(9) 0.01104 295.7 19.2
336(10) 0.00960 295.7 19.8
331(10) 0.00892 295.7 20.2
288(9) 0.01045 295.8 20.4
298(9) 0.01100 295.8 20.6
314(9) 0.01073 295.8 20.6
320(10) 0.00998 295.8 20.5
330(10) 0.00876 295.8 20.3
318(10) 0.01006 295.8 20.0
315(9) 0.01081 295.8 19.7
311(9) 0.01052 295.8 19.4
301(9) 0.01019 295.9 19.1
310(10) 0.00966 295.9 18.8
300(9) 0.01050 295.9 18.5
324(9) 0.01040 295.9 18.2
310(9) 0.01072 295.9 18.0
306(9) 0.01056 295.9 17.9
327(10) 0.00924 295.9 17.7
307(9) 0.01046 295.9 17.6
340(10) 0.00984 296.0 17.6
318(9) 0.01043 296.0 17.6
276(9) 0.01155 296.0 17.6
307(10) 0.00992 296.0 17.7
292(9) 0.01101 296.0 17.8
296(9) 0.01129 296.0 17.9
302(9) 0.01062 296.0 18.0
321(10) 0.01001 296.0 18.2
312(9) 0.01010 296.0 18.4
331(10) 0.00967 296.1 18.5
300(9) 0.01102 296.1 18.7
317(9) 0.01011 296.1 18.9
306(10) 0.00983 296.1 19.1
300(9) 0.01033 296.1 19.3
299(9) 0.01074 296.1 19.4
310(9) 0.01077 296.1 19.6
306(9) 0.01038 296.1 19.7
311(10) 0.00978 296.2 19.8
317(10) 0.00982 296.2 19.9
328(10) 0.00990 296.2 19.9
326(9) 0.01037 296.2 20.0
311(10) 0.00974 296.2 20.0
325(10) 0.00925 296.2 20.0
333(10) 0.00894 296.2 20.0
308(9) 0.01086 296.2 20.0
301(9) 0.01117 296.2 19.9
301(9) 0.01059 296.3 19.9
314(10) 0.00946 296.3 19.8
304(9) 0.01055 296.3 19.7
321(9) 0.01021 296.3 19.7
315(9) 0.01072 296.3 19.6
300(9) 0.01027 296.3 19.5
323(10) 0.00904 296.3 19.5
313(9) 0.01021 296.3 19.4
298(9) 0.01110 296.4 19.4
319(9) 0.01062 296.4 19.3
357(10) 0.00896 296.4 19.3
318(10) 0.00927 296.4 19.3
295(9) 0.01073 296.4 19.4
313(9) 0.01069 296.4 19.4
308(9) 0.01090 296.4 19.5
320(10) 0.00997 296.4 19.6
330(10) 0.00913 296.4 19.7
340(10) 0.00943 296.5 19.8
298(9) 0.01133 296.5 20.0
310(9) 0.01063 296.5 20.2
313(10) 0.00976 296.5 20.4
305(9) 0.01012 296.5 20.6
346(10) 0.00919 296.5 20.9
361(10) 0.00948 296.5 21.2
326(10) 0.01007 296.5 21.5
304(9) 0.01055 296.6 21.8
303(9) 0.01031 296.6 22.2
326(10) 0.00960 296.6 22.6
336(10) 0.01005 296.6 22.9
329(10) 0.00996 296.6 23.3
339(10) 0.00935 296.6 23.6
341(10) 0.00905 296.6 23.9
336(10) 0.00943 296.6 24.2
356(10) 0.00945 296.6 24.4
315(9) 0.01030 296.7 24.5
342(10) 0.00888 296.7 24.6
333(10) 0.00933 296.7 24.5
333(10) 0.00978 296.7 24.4
315(9) 0.01066 296.7 24.2
322(10) 0.00997 296.7 23.9
329(10) 0.00932 296.7 23.5
320(10) 0.00981 296.7 23.1
321(9) 0.01019 296.8 22.6
299(9) 0.01121 296.8 22.0
308(9) 0.01049 296.8 21.4
308(10) 0.00992 296.8 20.8
327(10) 0.00927 296.8 20.2
328(10) 0.01004 296.8 19.6
310(9) 0.01072 296.8 19.0
282(9) 0.01121 296.8 18.4
274(9) 0.01111 296.8 17.9
283(9) 0.01079 296.9 17.3
317(9) 0.01044 296.9 16.8
317(9) 0.01055 296.9 16.3
322(10) 0.00944 296.9 15.9
323(10) 0.00914 296.9 15.5
303(9) 0.01009 296.9 15.1
306(9) 0.01091 296.9 14.7
303(9) 0.01101 296.9 14.4
306(9) 0.01035 297.0 14.1
299(9) 0.01013 297.0 13.8
298(9) 0.01064 297.0 13.6
314(9) 0.01066 297.0 13.4
282(9) 0.01165 297.0 13.3
281(9) 0.01169 297.0 13.1
307(10) 0.00949 297.0 13.0
300(9) 0.01069 297.0 12.9
309(9) 0.01087 297.0 12.9
309(9) 0.01062 297.1 12.9
281(9) 0.01118 297.1 12.9
287(9) 0.01047 297.1 13.0
334(10) 0.00924 297.0 13.1
298(9) 0.01113 297.0 13.2
329(10) 0.01007 297.0 13.4
309(9) 0.01013 297.0 13.6
282(9) 0.01079 297.0 13.9
320(10) 0.00985 297.0 14.2
315(9) 0.01046 297.0 14.5
313(9) 0.01029 297.0 14.9
292(9) 0.01081 297.0 15.4
284(9) 0.01102 297.0 15.8
314(10) 0.01005 296.9 16.4
315(9) 0.01057 296.9 17.0
301(9) 0.01070 296.9 17.6
324(10) 0.00922 296.9 18.2
306(9) 0.01033 296.9 19.0
331(10) 0.00935 296.9 19.7
324(9) 0.01039 296.9 20.5
317(9) 0.01019 296.9 21.2
312(9) 0.01008 296.9 22.0
309(10) 0.01007 296.9 22.7
301(9) 0.01094 296.8 23.4
313(9) 0.01068 296.8 24.1
339(10) 0.00952 296.8 24.6
340(10) 0.00921 296.8 25.1
327(10) 0.00940 296.8 25.4
289(9) 0.01132 296.8 25.5
290(9) 0.01148 296.8 25.5
284(9) 0.01132 296.8 25.3
320(10) 0.00929 296.8 25.0
323(10) 0.00942 296.8 24.5
306(9) 0.01066 296.7 24.0
314(9) 0.01065 296.7 23.3
321(10) 0.00988 296.7 22.5
309(10) 0.00994 296.7 21.7
310(9) 0.01064 296.7 20.9
325(9) 0.01009 296.7 20.1
293(9) 0.01143 296.7 19.2
328(10) 0.00953 296.7 18.4
321(10) 0.00923 296.7 17.7
305(9) 0.01050 296.7 16.9
285(9) 0.01170 296.6 16.2
342(10) 0.00974 296.6 15.6
299(9) 0.01072 296.6 14.9
311(10) 0.00908 296.6 14.4
304(9) 0.01015 296.6 13.9
309(9) 0.01080 296.6 13.4
318(9) 0.01055 296.6 13.0
315(9) 0.01027 296.6 12.6
299(9) 0.01054 296.6 12.2
300(9) 0.01065 296.6 11.9
316(9) 0.01051 296.5 11.7
277(9) 0.01207 296.5 11.5
310(10) 0.01004 296.5 11.3
309(10) 0.00968 296.5 11.1
287(9) 0.01103 296.5 11.0
317(9) 0.01067 296.5 11.0
327(10) 0.01006 296.5 10.9
326(10) 0.00977 296.5 10.9
323(10) 0.00952 296.5 11.0
317(10) 0.00989 296.5 11.1
297(9) 0.01125 296.4 11.2
302(9) 0.01068 296.4 11.4
301(9) 0.01014 296.4 11.7
310(10) 0.00998 296.4 12.0
297(9) 0.01093 296.4 12.3
305(9) 0.01105 296.4 12.7
325(10) 0.00944 296.4 13.2
301(9) 0.01010 296.4 13.7
295(9) 0.01051 296.4 14.3
323(9) 0.01017 296.4 14.9
308(9) 0.01097 296.3 15.4
323(10) 0.00966 296.3 16.0
319(10) 0.00954 296.3 16.6
328(10) 0.00953 296.3 17.0
320(9) 0.01021 296.3 17.4
311(9) 0.01079 296.3 17.6
298(9) 0.01044 296.3 17.6
303(9) 0.01008 296.3 17.5
302(9) 0.01070 296.3 17.3
313(9) 0.01053 296.3 16.9
288(9) 0.01153 296.2 16.5
280(9) 0.01123 296.2 16.0
289(9) 0.01014 296.2 15.6
298(9) 0.01044 296.2 15.1
298(9) 0.01083 296.2 14.7
288(9) 0.01167 296.2 14.4
302(9) 0.01035 296.2 14.0
305(10) 0.00964 296.2 13.8
319(10) 0.00982 296.2 13.5
313(9) 0.01068 296.2 13.4
304(9) 0.01092 296.1 13.2
304(9) 0.01052 296.1 13.1
322(10) 0.00912 296.1 13.1
292(9) 0.01096 296.1 13.1
317(9) 0.01065 296.1 13.1
303(9) 0.01095 296.1 13.1
304(9) 0.01051 296.1 13.2
311(10) 0.00962 296.1 13.3
302(9) 0.01063 296.1 13.4
321(9) 0.01055 296.1 13.6
329(10) 0.01004 296.0 13.7
314(10) 0.00999 296.0 13.9
308(10) 0.00986 296.0 14.1
315(9) 0.01021 296.0 14.4
313(9) 0.01075 296.0 14.6
321(9) 0.01018 296.0 14.9
279(9) 0.01102 296.0 15.2
293(9) 0.01067 296.0 15.5
317(10) 0.00979 296.0 15.9
304(9) 0.01112 296.0 16.3
314(9) 0.01059 295.9 16.7
316(9) 0.01025 295.9 17.2
294(9) 0.01073 295.9 17.7
321(10) 0.00990 295.9 18.3
313(9) 0.01074 295.9 18.9
322(10) 0.00994 295.9 19.6
327(10) 0.00950 295.9 20.3
328(10) 0.00951 295.9 21.1
322(10) 0.00999 295.9 22.1
332(9) 0.01021 295.9 23.1
342(10) 0.00920 295.8 24.2
316(10) 0.00964 295.8 25.4
345(10) 0.00933 295.8 26.8
339(10) 0.00996 295.8 28.3
340(10) 0.00985 295.8 30.0
334(10) 0.00961 295.8 31.8
336(10) 0.00921 295.8 33.8
352(10) 0.00890 295.8 36.0
332(10) 0.01002 295.8 38.3
352(10) 0.00965 295.8 40.9
372(11) 0.00830 295.7 43.7
362(10) 0.00855 295.7 46.7
374(10) 0.00875 295.7 49.8
395(10) 0.00851 295.7 53.2
346(10) 0.00983 295.7 56.7
376(11) 0.00832 295.7 60.3
380(11) 0.00829 295.7 64.1
371(10) 0.00882 295.7 67.8
396(10) 0.00848 295.7 71.6
398(10) 0.00851 295.7 75.2
388(11) 0.00813 295.6 78.5
420(12) 0.00704 295.6 81.5
441(11) 0.00720 295.6 84.0
413(11) 0.00832 295.6 85.9
398(10) 0.00862 295.6 87.2
384(10) 0.00846 295.6 87.6
387(11) 0.00782 295.6 87.3
383(11) 0.00833 295.6 86.3
385(10) 0.00884 295.6 84.6
370(10) 0.00904 295.6 82.2
377(10) 0.00842 295.5 79.4
384(11) 0.00800 295.5 76.2
376(10) 0.00854 295.5 72.7
368(10) 0.00940 295.5 69.1
386(10) 0.00852 295.5 65.4
367(10) 0.00866 295.5 61.8
321(10) 0.00985 295.5 58.1
336(10) 0.00945 295.5 54.6
333(9) 0.01010 295.5 51.3
340(10) 0.00980 295.5 48.1
312(9) 0.01036 295.4 45.0
343(10) 0.00902 295.4 42.2
329(10) 0.00971 295.4 39.5
315(9) 0.01075 295.4 37.0
303(9) 0.01047 295.4 34.6
332(10) 0.00934 295.4 32.5
318(10) 0.00980 295.4 30.5
306(9) 0.01029 295.4 28.6
300(9) 0.01105 295.4 27.0
306(9) 0.01073 295.4 25.4
316(10) 0.00980 295.3 24.0
328(10) 0.00959 295.3 22.7
315(9) 0.01050 295.3 21.5
319(9) 0.01043 295.3 20.5
301(9) 0.01052 295.3 19.5
324(10) 0.00945 295.3 18.6
328(10) 0.00953 295.3 17.8
309(9) 0.01050 295.3 17.1
316(9) 0.01071 295.3 16.4
339(10) 0.00924 295.3 15.8
306(9) 0.01027 295.2 15.2
328(10) 0.00959 295.2 14.7
320(9) 0.01020 295.2 14.3
305(9) 0.01115 295.2 13.8
308(10) 0.00985 295.2 13.5
300(10) 0.00987 295.2 13.1
308(9) 0.01017 295.2 12.8
308(9) 0.01092 295.2 12.5
312(9) 0.01080 295.2 12.2
302(9) 0.01075 295.2 12.0
316(10) 0.00922 295.1 11.8
310(10) 0.01004 295.1 11.6
306(9) 0.01105 295.1 11.4
285(9) 0.01161 295.1 11.2
297(9) 0.01037 295.1 11.1
292(9) 0.01010 295.1 10.9
297(9) 0.01084 295.1 10.8
302(9) 0.01110 295.1 10.7
309(9) 0.01065 295.1 10.6
328(10) 0.00984 295.1 10.5
321(10) 0.00931 295.0 10.4
309(10) 0.00972 295.0 10.3
290(9) 0.01153 295.0 10.2
315(9) 0.01027 295.0 10.2
304(9) 0.01011 295.0 10.1
305(9) 0.01022 295.0 10.0
305(9) 0.01073 295.0 9.9
299(9) 0.01115 295.0 9.9
295(9) 0.01089 295.0 9.8
326(10) 0.00946 295.0 9.7
328(10) 0.00939 294.9 9.6
304(9) 0.01027 294.9 9.5
308(9) 0.01090 294.9 9.5
310(9) 0.01036 294.9 9.4
288(9) 0.01122 294.9 9.3
295(9) 0.01061 294.9 9.2
282(9) 0.01073 294.9 9.1
292(9) 0.01132 294.9 9.1
298(9) 0.01041 294.9 9.0
306(10) 0.00965 294.9 8.9
288(9) 0.01095 294.8 8.9
283(9) 0.01116 294.8 8.8
309(9) 0.01083 294.8 8.7
266(9) 0.01208 294.8 8.7
302(10) 0.00984 294.8 8.7
288(9) 0.01101 294.8 8.6
297(9) 0.01062 294.8 8.6
301(9) 0.01124 294.8 8.6
279(9) 0.01109 294.8 8.5
278(9) 0.01093 294.8 8.5
299(9) 0.01067 294.7 8.5
310(9) 0.01053 294.7 8.5
317(9) 0.01055 294.7 8.5
289(9) 0.01108 294.7 8.6
315(10) 0.00927 294.7 8.6
293(9) 0.01063 294.7 8.6
290(9) 0.01162 294.7 8.6
300(9) 0.01095 294.7 8.7
296(9) 0.01049 294.7 8.7
313(10) 0.00896 294.7 8.8
305(9) 0.01029 294.6 8.8
298(9) 0.01121 294.6 8.9
287(9) 0.01135 294.6 8.9
281(9) 0.01125 294.6 9.0
275(9) 0.01052 294.6 9.1
311(10) 0.00986 294.6 9.2
306(9) 0.01095 294.6 9.2
304(9) 0.01108 294.6 9.3
304(9) 0.01040 294.6 9.4
337(10) 0.00851 294.5 9.5
286(9) 0.01141 294.5 9.6
288(9) 0.01151 294.5 9.6
290(9) 0.01115 294.5 9.7
299(9) 0.01047 294.5 9.8
317(10) 0.00940 294.5 9.9
301(9) 0.01059 294.5 10.0
306(9) 0.01095 294.5 10.0
276(9) 0.01166 294.5 10.1
292(9) 0.01085 294.5 10.2
303(9) 0.01033 294.4 10.2
308(9) 0.01036 294.4 10.3
310(9) 0.01082 294.4 10.4
300(9) 0.01113 294.4 10.4
301(9) 0.01041 294.4 10.5
313(10) 0.01006 294.4 10.5
319(9) 0.01021 294.4 10.6
303(9) 0.01109 294.4 10.6
274(9) 0.01175 294.4 10.7
308(9) 0.01012 294.3 10.7
300(9) 0.01010 294.3 10.7
297(9) 0.01117 294.3 10.8
316(9) 0.01073 294.3 10.8
284(9) 0.01138 294.3 10.9
316(10) 0.00966 294.3 10.9
301(9) 0.01053 294.3 10.9
298(9) 0.01091 294.3 11.0
315(9) 0.01058 294.3 11.0
314(9) 0.01024 294.3 11.1
295(9) 0.01047 294.2 11.1
308(10) 0.00995 294.2 11.1
296(9) 0.01124 294.2 11.2
300(9) 0.01121 294.2 11.2
294(9) 0.01075 294.2 11.3
302(10) 0.00998 294.2 11.3
291(9) 0.01087 294.2 11.4
312(9) 0.01043 294.2 11.4
297(9) 0.01143 294.2 11.5
321(10) 0.00975 294.1 11.5
346(10) 0.00857 294.1 11.6
306(9) 0.01050 294.1 11.7
305(9) 0.01095 294.1 11.7
294(9) 0.01118 294.1 11.8
308(9) 0.01035 294.1 11.9
313(10) 0.00953 294.1 12.0
299(9) 0.01088 294.1 12.1
298(9) 0.01124 294.1 12.1
309(9) 0.01083 294.1 12.2
290(9) 0.01121 294.0 12.4
302(10) 0.00983 294.0 12.5
289(9) 0.01092 294.0 12.6
311(9) 0.01066 294.0 12.7
319(9) 0.01038 294.0 12.9
287(9) 0.01025 294.0 13.0
288(9) 0.01025 294.0 13.2
309(9) 0.01015 294.0 13.3
308(9) 0.01079 294.0 13.5
308(9) 0.01074 293.9 13.7
293(9) 0.01053 293.9 13.9
309(10) 0.00977 293.9 14.1
278(9) 0.01099 293.9 14.4
306(9) 0.01094 293.9 14.6
315(9) 0.01033 293.9 14.9
334(10) 0.00917 293.9 15.2
328(10) 0.00945 293.9 15.5
301(9) 0.01075 293.9 15.8
308(9) 0.01081 293.9 16.1
317(9) 0.01024 293.8 16.5
324(10) 0.00958 293.8 16.8
309(10) 0.00999 293.8 17.2
310(9) 0.01028 293.8 17.6
326(9) 0.01040 293.8 18.1
309(9) 0.01028 293.8 18.5
296(9) 0.01034 293.8 19.0
328(10) 0.00932 293.8 19.5
311(9) 0.01054 293.8 20.1
309(9) 0.01077 293.7 20.7
324(10) 0.01007 293.7 21.2
332(10) 0.00955 293.7 21.9
338(10) 0.00954 293.7 22.5
336(10) 0.00984 293.7 23.2
325(9) 0.01019 293.7 23.9
312(10) 0.00983 293.7 24.7
321(10) 0.00942 293.7 25.5
353(10) 0.00873 293.7 26.3
343(10) 0.00972 293.7 27.2
331(9) 0.01032 293.6 28.0
354(10) 0.00863 293.6 29.0
327(10) 0.00939 293.6 29.9
337(10) 0.00951 293.6 30.9
339(10) 0.01000 293.6 32.0
336(10) 0.00999 293.6 33.0
303(9) 0.01056 293.6 34.1
325(10) 0.00876 293.6 35.2
338(10) 0.00893 293.6 36.4
348(10) 0.00971 293.5 37.6
318(9) 0.01045 293.5 38.8
345(10) 0.00912 293.5 40.0
358(11) 0.00835 293.5 41.2
337(10) 0.00951 293.5 42.4
311(9) 0.01088 293.5 43.6
350(10) 0.00951 293.5 44.9
367(10) 0.00849 293.5 46.1
340(10) 0.00910 293.5 47.3
371(10) 0.00864 293.5 48.4
358(10) 0.00956 293.4 49.6
371(10) 0.00907 293.4 50.6
361(10) 0.00877 293.4 51.7
366(11) 0.00818 293.4 52.7
332(10) 0.00969 293.4 53.6
362(10) 0.00948 293.4 54.5
348(10) 0.00971 293.4 55.3
371(10) 0.00840 293.4 56.0
358(10) 0.00850 293.4 56.7
350(10) 0.00908 293.3 57.3
379(10) 0.00904 293.3 57.8
340(10) 0.00971 293.3 58.2
351(10) 0.00886 293.3 58.5
366(10) 0.00852 293.3 58.8
348(10) 0.00918 293.3 58.9
353(10) 0.00976 293.3 59.0
362(10) 0.00852 293.3 58.9
312(10) 0.00986 293.3 58.8
337(10) 0.00933 293.3 58.5
354(10) 0.00925 293.2 58.1
339(10) 0.00996 293.2 57.5
339(10) 0.00929 293.2 56.9
321(10) 0.00962 293.2 56.1
342(10) 0.00917 293.2 55.2
361(10) 0.00914 293.2 54.2
351(10) 0.00970 293.2 53.1
329(10) 0.00965 293.2 52.0
318(10) 0.00940 293.2 50.7
318(10) 0.00989 293.1 49.4
344(10) 0.00964 293.1 48.1
348(10) 0.00977 293.1 46.7
337(10) 0.00933 293.1 45.3
344(10) 0.00863 293.1 44.0
314(10) 0.00997 293.1 42.6
340(10) 0.00989 293.1 41.2
328(9) 0.01028 293.1 39.9
361(10) 0.00877 293.1 38.6
324(10) 0.00949 293.1 37.4
340(10) 0.00940 293.0 36.1
344(10) 0.00981 293.0 35.0
328(9) 0.01016 293.0 33.8
334(10) 0.00956 293.0 32.7
325(10) 0.00922 293.0 31.7
329(10) 0.00955 293.0 30.7
313(9) 0.01065 293.0 29.7
316(9) 0.01068 293.0 28.8
324(10) 0.00957 293.0 27.9
334(10) 0.00877 292.9 27.1
330(10) 0.00948 292.9 26.3
313(9) 0.01069 292.9 25.6
317(9) 0.01063 292.9 24.9
293(9) 0.01105 292.9 24.2
314(10) 0.00969 292.9 23.5
310(9) 0.01051 292.9 22.9
312(9) 0.01082 292.9 22.4
321(9) 0.01021 292.9 21.8
299(9) 0.01034 292.9 21.3
312(10) 0.00965 292.8 20.8
293(9) 0.01096 292.8 20.3
311(9) 0.01086 292.8 19.9
318(9) 0.01012 292.8 19.4
294(9) 0.01080 292.8 19.0
305(9) 0.01015 292.8 18.6
308(9) 0.01034 292.8 18.3
282(9) 0.01188 292.8 17.9
322(10) 0.00997 292.8 17.6
317(10) 0.00983 292.8 17.3
337(10) 0.00880 292.7 17.0
302(9) 0.01044 292.7 16.7
307(9) 0.01098 292.7 16.4
294(9) 0.01062 292.7 16.1
314(10) 0.00966 292.7 15.8
302(9) 0.01036 292.7 15.6
313(9) 0.01072 292.7 15.4
308(9) 0.01083 292.7 15.1
310(10) 0.01007 292.7 14.9
294(9) 0.01041 292.6 14.7
292(9) 0.01031 292.6 14.5
293(9) 0.01133 292.6 14.3
294(9) 0.01138 292.6 14.1
299(9) 0.01087 292.6 13.9
305(10) 0.00973 292.6 13.7
301(9) 0.01041 292.6 13.5
291(9) 0.01146 292.6 13.3
310(9) 0.01069 292.6 13.2
333(10) 0.00940 292.6 13.0
292(9) 0.01020 292.5 12.8
293(9) 0.01111 292.5 12.7
314(9) 0.01077 292.5 12.5
294(9) 0.01114 292.5 12.4
293(9) 0.01066 292.5 12.2
315(10) 0.00937 292.5 12.1
317(10) 0.00988 292.5 11.9
304(9) 0.01102 292.5 11.8
277(9) 0.01176 292.5 11.7
308(9) 0.01011 292.4 11.5
292(9) 0.01031 292.4 11.4
291(9) 0.01104 292.4 11.3
321(9) 0.01052 292.4 11.2
308(9) 0.01067 292.4 11.0
298(9) 0.01056 292.4 10.9
295(9) 0.01015 292.4 10.8
301(9) 0.01066 292.4 10.7
319(9) 0.01050 292.4 10.6
286(9) 0.01161 292.4 10.5
277(9) 0.01117 292.3 10.4
275(9) 0.01138 292.3 10.3
307(10) 0.00995 292.3 10.2
283(9) 0.01178 292.3 10.1
311(9) 0.01047 292.3 10.0
311(10) 0.00984 292.3 9.9
290(9) 0.01063 292.3 9.9
308(9) 0.01042 292.3 9.8
298(9) 0.01101 292.3 9.7
290(9) 0.01070 292.2 9.6
286(9) 0.01088 292.2 9.6
295(9) 0.01029 292.2 9.5
289(9) 0.01075 292.2 9.4
256(8) 0.01288 292.2 9.3
298(9) 0.01038 292.2 9.3
302(9) 0.01015 292.2 9.2
317(10) 0.00973 292.2 9.2
290(9) 0.01140 292.2 9.1
296(9) 0.01113 292.1 9.1
304(10) 0.00996 292.1 9.0
298(9) 0.01014 292.1 9.0
272(9) 0.01115 292.1 8.9
293(9) 0.01127 292.1 8.9
292(9) 0.01147 292.1 8.8
301(10) 0.00992 292.1 8.8
302(10) 0.00995 292.1 8.8
283(9) 0.01125 292.0 8.7
307(9) 0.01078 292.0 8.7
300(9) 0.01119 292.0 8.7
299(9) 0.01064 292.0 8.7
305(10) 0.00970 292.0 8.6
281(9) 0.01131 292.0 8.6
276(9) 0.01210 292.0 8.6
294(9) 0.01140 292.0 8.6
305(10) 0.00982 291.9 8.6
281(9) 0.01022 291.9 8.6
318(10) 0.00966 291.9 8.6
321(9) 0.01034 291.9 8.6
299(9) 0.01108 291.9 8.6
295(9) 0.01083 291.9 8.6
315(10) 0.00958 291.9 8.6
310(9) 0.01014 291.8 8.6
295(9) 0.01135 291.8 8.6
309(9) 0.01071 291.8 8.6
314(10) 0.00984 291.8 8.6
300(10) 0.01005 291.8 8.6
298(9) 0.01097 291.8 8.6
293(9) 0.01135 291.8 8.7
307(9) 0.01059 291.8 8.7
290(9) 0.01075 291.7 8.7
312(10) 0.00967 291.7 8.7
295(9) 0.01061 291.7 8.8
306(9) 0.01093 291.7 8.8
291(9) 0.01104 291.7 8.9
314(10) 0.00959 291.7 8.9
314(10) 0.00972 291.7 8.9
304(9) 0.01056 291.7 9.0
271(9) 0.01229 291.6 9.0
275(9) 0.01174 291.6 9.1
298(9) 0.01029 291.6 9.1
282(9) 0.01096 291.6 9.2
289(9) 0.01107 291.6 9.3
269(9) 0.01226 291.6 9.3
288(9) 0.01109 291.6 9.4
303(9) 0.01016 291.5 9.5
281(9) 0.01126 291.5 9.5
311(9) 0.01043 291.5 9.6
330(9) 0.01023 291.5 9.7
308(9) 0.01010 291.5 9.7
313(9) 0.01009 291.5 9.8
317(10) 0.01000 291.5 9.9
308(9) 0.01014 291.5 10.0
298(9) 0.01118 291.4 10.1
294(9) 0.01027 291.4 10.1
300(10) 0.00995 291.4 10.2
304(9) 0.01034 291.4 10.3
303(9) 0.01046 291.4 10.4
296(9) 0.01131 291.4 10.5
298(9) 0.01069 291.4 10.6
297(10) 0.00977 291.4 10.6
283(9) 0.01123 291.3 10.7
292(9) 0.01137 291.3 10.8
300(9) 0.01121 291.3 10.9
292(9) 0.01084 291.3 11.0
281(9) 0.01067 291.3 11.0
289(9) 0.01117 291.3 11.1
294(9) 0.01125 291.3 11.2
311(9) 0.01078 291.2 11.3
316(10) 0.01002 291.2 11.4
302(9) 0.01029 291.2 11.4
287(9) 0.01077 291.2 11.5
319(9) 0.01054 291.2 11.6
289(9) 0.01127 291.2 11.7
285(9) 0.01111 291.2 11.7
295(9) 0.01041 291.2 11.8
286(9) 0.01099 291.1 11.9
286(9) 0.01144 291.1 11.9
290(9) 0.01147 291.1 12.0
286(9) 0.01106 291.1 12.1
287(9) 0.01097 291.1 12.1
306(10) 0.00999 291.1 12.2
293(9) 0.01133 291.1 12.3
272(9) 0.01175 291.1 12.3
304(9) 0.01021 291.0 12.4
324(10) 0.00955 291.0 12.5
307(9) 0.01025 291.0 12.5
307(9) 0.01095 291.0 12.6
293(9) 0.01097 291.0 12.7
308(10) 0.00985 291.0 12.8
301(9) 0.01013 291.0 12.8
293(9) 0.01078 290.9 12.9
287(9) 0.01161 290.9 13.0
297(9) 0.01076 290.9 13.0
303(9) 0.01026 290.9 13.1
298(9) 0.01084 290.9 13.2
295(9) 0.01097 290.9 13.3
292(9) 0.01136 290.9 13.3
293(9) 0.01053 290.9 13.4
294(9) 0.01047 290.8 13.5
302(9) 0.01043 290.8 13.5
311(9) 0.01020 290.8 13.6
281(9) 0.01189 290.8 13.6
303(9) 0.01053 290.8 13.7
306(10) 0.01004 290.8 13.7
301(9) 0.01035 290.8 13.8
274(9) 0.01187 290.8 13.8
300(9) 0.01124 290.7 13.9
295(9) 0.01065 290.7 13.9
308(10) 0.00944 290.7 13.9
301(9) 0.01025 290.7 13.9
307(9) 0.01091 290.7 13.9
314(9) 0.01048 290.7 13.9
303(9) 0.01044 290.7 13.9
312(10) 0.00955 290.7 13.9
285(9) 0.01133 290.6 13.9
287(9) 0.01139 290.6 13.9
291(9) 0.01129 290.6 13.8
284(9) 0.01095 290.6 13.8
292(10) 0.01007 290.6 13.8
292(9) 0.01109 290.6 13.7
289(9) 0.01149 290.6 13.7
297(9) 0.01115 290.5 13.6
288(9) 0.01065 290.5 13.6
302(9) 0.01027 290.5 13.5
309(9) 0.01035 290.5 13.5
297(9) 0.01117 290.5 13.4
300(9) 0.01100 290.5 13.3
314(9) 0.01027 290.5 13.3
304(9) 0.01023 290.5 13.2
302(9) 0.01057 290.4 13.1
292(9) 0.01137 290.4 13.1
310(9) 0.01055 290.4 13.0
301(9) 0.01061 290.4 12.9
289(9) 0.01068 290.4 12.9
307(9) 0.01024 290.4 12.8
316(9) 0.01075 290.4 12.8
324(10) 0.00997 290.4 12.7
273(9) 0.01178 290.3 12.6
325(10) 0.00956 290.3 12.6
325(10) 0.00958 290.3 12.5
290(9) 0.01150 290.3 12.5
320(10) 0.00996 290.3 12.4
268(9) 0.01162 290.3 12.4
303(9) 0.01029 290.3 12.3
289(9) 0.01127 290.2 12.3
297(9) 0.01126 290.2 12.2
325(10) 0.00977 290.2 12.2
309(10) 0.01004 290.2 12.1
298(9) 0.01042 290.2 12.1
287(9) 0.01136 290.2 12.1
285(9) 0.01158 290.2 12.1
308(9) 0.01030 290.2 12.0
313(10) 0.00952 290.1 12.0
292(9) 0.01063 290.1 12.0
304(9) 0.01069 290.1 12.0
295(9) 0.01127 290.1 12.1
303(9) 0.01058 290.1 12.1
309(10) 0.00971 290.1 12.1
296(9) 0.01065 290.1 12.2
327(9) 0.01017 290.1 12.3
301(9) 0.01101 290.0 12.4
297(9) 0.01069 290.0 12.5
296(9) 0.01013 290.0 12.7
318(10) 0.00998 290.0 12.9
335(9) 0.01012 290.0 13.1
311(9) 0.01083 290.0 13.4
305(9) 0.01022 290.0 13.8
286(9) 0.01071 289.9 14.2
314(9) 0.01036 289.9 14.7
293(9) 0.01132 289.9 15.3
300(9) 0.01107 289.9 16.0
313(9) 0.01054 289.9 16.8
330(10) 0.00927 289.9 17.7
314(9) 0.01015 289.9 18.7
314(9) 0.01069 289.9 19.7
310(9) 0.01069 289.8 20.9
316(9) 0.01023 289.8 22.1
326(10) 0.00913 289.8 23.4
317(10) 0.01002 289.8 24.7
313(9) 0.01075 289.8 26.0
326(9) 0.01015 289.8 27.1
328(10) 0.00941 289.8 28.0
296(9) 0.01044 289.8 28.7
327(10) 0.00961 289.7 29.0
298(9) 0.01131 289.7 29.0
310(9) 0.01068 289.7 28.6
326(10) 0.00949 289.7 27.8
349(10) 0.00900 289.7 26.8
304(9) 0.01084 289.7 25.7
316(9) 0.01060 289.7 24.4
322(10) 0.00982 289.6 23.0
292(9) 0.01089 289.6 21.7
305(10) 0.00981 289.6 20.4
286(9) 0.01118 289.6 19.2
282(9) 0.01174 289.6 18.1
294(9) 0.01038 289.6 17.1
311(10) 0.00972 289.6 16.2
283(9) 0.01122 289.6 15.4
270(9) 0.01205 289.5 14.7
304(9) 0.01109 289.5 14.1
294(9) 0.01067 289.5 13.5
306(9) 0.01014 289.5 13.1
300(9) 0.01061 289.5 12.7
283(9) 0.01159 289.5 12.4
277(9) 0.01206 289.5 12.1
322(10) 0.00961 289.5 11.9
321(10) 0.00946 289.4 11.7
321(10) 0.00993 289.4 11.6
316(9) 0.01068 289.4 11.5
305(9) 0.01090 289.4 11.4
269(9) 0.01182 289.4 11.4
313(10) 0.00907 289.4 11.3
296(9) 0.01081 289.4 11.3
297(9) 0.01114 289.3 11.3
318(9) 0.01049 289.3 11.3
289(9) 0.01118 289.3 11.3
288(9) 0.01027 289.3 11.4
305(9) 0.01057 289.3 11.4
324(9) 0.01047 289.3 11.5
284(9) 0.01162 289.3 11.5
318(10) 0.00995 289.3 11.6
284(9) 0.01064 289.2 11.7
301(9) 0.01044 289.2 11.8
301(9) 0.01092 289.2 11.9
300(9) 0.01112 289.2 12.0
324(10) 0.00968 289.2 12.1
312(10) 0.00951 289.2 12.3
288(9) 0.01089 289.2 12.4
293(9) 0.01134 289.2 12.6
281(9) 0.01143 289.1 12.8
274(9) 0.01100 289.1 13.0
285(9) 0.01030 289.1 13.2
293(9) 0.01088 289.1 13.4
305(9) 0.01093 289.1 13.6
291(9) 0.01104 289.1 13.8
307(10) 0.00979 289.1 14.0
291(9) 0.01071 289.1 14.3
311(9) 0.01015 289.0 14.6
290(9) 0.01144 289.0 14.8
317(9) 0.01025 289.0 15.1
321(10) 0.00977 289.0 15.4
289(9) 0.01083 289.0 15.7
318(10) 0.00986 289.0 16.0
327(9) 0.01030 289.0 16.3
318(9) 0.01031 288.9 16.6
307(9) 0.01012 288.9 16.9
296(9) 0.01056 288.9 17.2
297(9) 0.01096 288.9 17.5
281(9) 0.01177 288.9 17.8
316(10) 0.00961 288.9 18.1
305(10) 0.01006 288.9 18.4
324(10) 0.00955 288.9 18.6
320(9) 0.01040 288.8 18.9
314(9) 0.01078 288.8 19.3
302(9) 0.01020 288.8 19.6
317(10) 0.00940 288.8 19.9
323(10) 0.00998 288.8 20.2
309(9) 0.01073 288.8 20.5
308(9) 0.01093 288.8 20.9
295(9) 0.01092 288.8 21.2
296(10) 0.01005 288.7 21.6
295(9) 0.01096 288.7 22.0
317(9) 0.01052 288.7 22.3
319(9) 0.01045 288.7 22.7
308(9) 0.01071 288.7 23.1
304(10) 0.00990 288.7 23.5
315(9) 0.01015 288.7 23.9
335(10) 0.00994 288.6 24.3
320(9) 0.01034 288.6 24.8
306(9) 0.01068 288.6 25.2
321(10) 0.00933 288.6 25.6
308(9) 0.01010 288.6 26.0
306(9) 0.01092 288.6 26.4
308(9) 0.01093 288.6 26.8
291(9) 0.01101 288.6 27.2
305(10) 0.01005 288.5 27.6
339(10) 0.00915 288.5 28.0
305(9) 0.01103 288.5 28.4
327(10) 0.01000 288.5 28.8
321(10) 0.00981 288.5 29.1
311(10) 0.00961 288.5 29.5
312(10) 0.00975 288.5 29.8
316(9) 0.01061 288.5 30.1
303(9) 0.01058 288.4 30.4
345(10) 0.00892 288.4 30.7
328(10) 0.00970 288.4 30.9
336(10) 0.00958 288.4 31.1
331(9) 0.01030 288.4 31.3
311(9) 0.01024 288.4 31.5
316(10) 0.00992 288.4 31.6
338(10) 0.00886 288.3 31.7
323(10) 0.00979 288.3 31.8
330(9) 0.01023 288.3 31.9
320(10) 0.00991 288.3 32.0
313(10) 0.01005 288.3 32.0
330(10) 0.00956 288.3 32.0
320(9) 0.01014 288.3 32.0
310(9) 0.01078 288.3 32.0
327(10) 0.00970 288.2 32.0
330(10) 0.00928 288.2 32.0
317(10) 0.00986 288.2 31.9
319(9) 0.01019 288.2 31.9
330(9) 0.01025 288.2 31.8
337(10) 0.00926 288.2 31.7
317(10) 0.00942 288.2 31.6
316(10) 0.00986 288.2 31.5
322(9) 0.01033 288.1 31.3
320(9) 0.01054 288.1 31.2
318(10) 0.00975 288.1 31.0
305(10) 0.00979 288.1 30.8
299(9) 0.01043 288.1 30.5
299(9) 0.01091 288.1 30.2
311(9) 0.01079 288.1 29.9
306(9) 0.01055 288.0 29.5
307(10) 0.00939 288.0 29.0
299(9) 0.01073 288.0 28.6
322(9) 0.01048 288.0 28.0
303(9) 0.01122 288.0 27.5
303(9) 0.01033 288.0 27.0
285(9) 0.01021 288.0 26.4
321(10) 0.00977 288.0 25.9
288(9) 0.01163 287.9 25.3
317(9) 0.01056 287.9 24.8
307(9) 0.01046 287.9 24.3
286(9) 0.01069 287.9 23.8
324(10) 0.00945 287.9 23.3
297(9) 0.01130 287.9 22.9
286(9) 0.01121 287.9 22.6
319(10) 0.00957 287.9 22.3
321(10) 0.00937 287.8 22.0
327(10) 0.00961 287.8 21.8
332(9) 0.01021 287.8 21.7
291(9) 0.01119 287.8 21.6
266(9) 0.01176 287.8 21.5
286(9) 0.01054 287.8 21.6
312(10) 0.01003 287.8 21.6
318(9) 0.01058 287.7 21.8
296(9) 0.01122 287.7 22.0
315(10) 0.00996 287.7 22.2
306(9) 0.01014 287.7 22.4
305(9) 0.01046 287.7 22.6
306(9) 0.01102 287.7 22.8
322(10) 0.00960 287.7 22.9
283(9) 0.01091 287.7 22.9
297(9) 0.01033 287.6 22.7
289(9) 0.01124 287.6 22.5
308(9) 0.01094 287.6 22.1
297(9) 0.01114 287.6 21.6
310(10) 0.00981 287.6 21.0
310(10) 0.00983 287.6 20.3
286(9) 0.01137 287.6 19.6
308(9) 0.01097 287.6 18.9
316(9) 0.01022 287.5 18.2
303(9) 0.01027 287.5 17.5
303(9) 0.01031 287.5 16.8
291(9) 0.01112 287.5 16.2
309(9) 0.01082 287.5 15.7
308(9) 0.01024 287.5 15.2
301(10) 0.00992 287.5 14.8
311(10) 0.00993 287.4 14.4
290(9) 0.01144 287.4 14.0
283(9) 0.01172 287.4 13.7
275(9) 0.01137 287.4 13.5
324(10) 0.00902 287.4 13.3
310(10) 0.01000 287.4 13.1
310(9) 0.01064 287.4 13.0
276(9) 0.01216 287.4 12.8
323(10) 0.00950 287.3 12.8
309(10) 0.00953 287.3 12.7
307(9) 0.01038 287.3 12.7
282(9) 0.01155 287.3 12.7
291(9) 0.01160 287.3 12.7
300(9) 0.01044 287.3 12.7
298(9) 0.01033 287.3 12.8
298(9) 0.01082 287.3 12.9
280(9) 0.01182 287.2 13.0
288(9) 0.01117 287.2 13.1
281(9) 0.01149 287.2 13.3
292(9) 0.01022 287.2 13.5
311(10) 0.00941 287.2 13.7
342(10) 0.00987 287.2 14.0
296(9) 0.01128 287.2 14.2
291(9) 0.01074 287.2 14.5
314(10) 0.00970 287.1 14.9
322(10) 0.00969 287.1 15.3
307(9) 0.01104 287.1 15.7
291(9) 0.01113 287.1 16.1
311(10) 0.01000 287.1 16.6
308(10) 0.01007 287.1 17.1
311(9) 0.01044 287.1 17.6
316(9) 0.01066 287.0 18.2
302(9) 0.01062 287.0 18.8
313(10) 0.00957 287.0 19.4
297(9) 0.01049 287.0 20.0
293(9) 0.01110 287.0 20.6
321(9) 0.01045 287.0 21.1
328(10) 0.00963 287.0 21.7
300(9) 0.01018 287.0 22.2
294(9) 0.01065 286.9 22.7
317(9) 0.01044 286.9 23.2
321(9) 0.01037 286.9 23.6
351(10) 0.00889 286.9 24.0
327(10) 0.00909 286.9 24.4
330(10) 0.00952 286.9 24.7
323(10) 0.00994 286.9 24.9
297(9) 0.01104 286.9 25.2
297(9) 0.01061 286.8 25.4
306(10) 0.00970 286.8 25.5
317(10) 0.00995 286.8 25.5
313(9) 0.01058 286.8 25.5
313(9) 0.01085 286.8 25.4
329(10) 0.00949 286.8 25.2
296(10) 0.00981 286.8 24.9
301(9) 0.01039 286.7 24.5
303(9) 0.01090 286.7 24.1
316(9) 0.01062 286.7 23.7
313(9) 0.01028 286.7 23.3
309(10) 0.00956 286.7 22.8
331(10) 0.00951 286.7 22.4
314(9) 0.01058 286.7 22.0
319(9) 0.01063 286.7 21.6
315(10) 0.00983 286.6 21.3
300(9) 0.01015 286.6 21.0
332(10) 0.00957 286.6 20.7
314(9) 0.01065 286.6 20.4
300(9) 0.01090 286.6 20.2
300(9) 0.01060 286.6 20.0
301(9) 0.01011 286.6 19.8
306(9) 0.01072 286.6 19.6
304(9) 0.01108 286.5 19.5
284(9) 0.01151 286.5 19.3
295(9) 0.01073 286.5 19.1
288(9) 0.01063 286.5 18.9
282(9) 0.01120 286.5 18.7
314(9) 0.01074 286.5 18.5
310(9) 0.01070 286.5 18.3
304(9) 0.01078 286.4 18.0
320(10) 0.00964 286.4 17.8
293(9) 0.01079 286.4 17.5
311(9) 0.01077 286.4 17.2
299(9) 0.01088 286.4 16.9
301(9) 0.01028 286.4 16.6
326(10) 0.00950 286.4 16.3
291(9) 0.01112 286.4 16.0
301(9) 0.01117 286.3 15.6
320(9) 0.01016 286.3 15.3
303(9) 0.01036 286.3 14.9
318(10) 0.00984 286.3 14.5
314(9) 0.01042 286.3 14.2
290(9) 0.01140 286.3 13.8
298(9) 0.01058 286.3 13.4
301(9) 0.01025 286.3 13.0
298(9) 0.01045 286.2 12.7
306(9) 0.01085 286.2 12.3
309(9) 0.01082 286.2 11.9
296(9) 0.01072 286.2 11.6
299(9) 0.01013 286.2 11.3
293(9) 0.01109 286.2 10.9
314(9) 0.01076 286.2 10.6
313(9) 0.01075 286.1 10.3
286(9) 0.01096 286.1 10.0
285(9) 0.01038 286.1 9.7
277(9) 0.01155 286.1 9.4
280(9) 0.01159 286.1 9.1
284(9) 0.01172 286.1 8.9
315(10) 0.01002 286.1 8.6
294(10) 0.00989 286.1 8.4
290(9) 0.01051 286.0 8.2
279(9) 0.01170 286.0 7.9
297(9) 0.01109 286.0 7.7
282(9) 0.01100 286.0 7.5
300(10) 0.00964 286.0 7.3
305(9) 0.01024 286.0 7.2
290(9) 0.01142 286.0 7.0
300(9) 0.01099 286.0 6.8
305(9) 0.01036 285.9 6.7
302(10) 0.00975 285.9 6.5
315(9) 0.01016 285.9 6.4
282(9) 0.01180 285.9 6.2
296(9) 0.01082 285.9 6.1
277(9) 0.01092 285.9 6.0
300(10) 0.00972 285.9 5.8
287(9) 0.01064 285.8 5.7
293(9) 0.01134 285.8 5.6
288(9) 0.01158 285.8 5.5
300(9) 0.01061 285.8 5.4
313(10) 0.00988 285.8 5.3
309(9) 0.01011 285.8 5.2
276(9) 0.01202 285.8 5.2
281(9) 0.01162 285.8 5.1
286(9) 0.01095 285.7 5.0
285(9) 0.01139 285.7 4.9
307(9) 0.01047 285.7 4.8
286(9) 0.01167 285.7 4.8
293(9) 0.01080 285.7 4.7
279(9) 0.01098 285.7 4.7
301(9) 0.01067 285.7 4.6
289(9) 0.01142 285.7 4.5
266(8) 0.01250 285.6 4.5
292(9) 0.01068 285.6 4.4
293(9) 0.01044 285.6 4.4
280(9) 0.01119 285.6 4.3
311(9) 0.01023 285.6 4.3
293(9) 0.01138 285.6 4.3
304(9) 0.01031 285.6 4.2
296(9) 0.01046 285.6 4.2
283(9) 0.01097 285.5 4.1
276(9) 0.01168 285.5 4.1
270(9) 0.01211 285.5 4.1
269(9) 0.01170 285.5 4.0
289(9) 0.01021 285.5 4.0
307(10) 0.00991 285.5 4.0
299(9) 0.01132 285.5 3.9
326(9) 0.01031 285.4 3.9
296(9) 0.01085 285.4 3.9
305(10) 0.00979 285.4 3.9
294(9) 0.01069 285.4 3.9
311(9) 0.01053 285.4 3.8
287(9) 0.01154 285.4 3.8
303(9) 0.01050 285.4 3.8
263(9) 0.01130 285.4 3.8
271(9) 0.01167 285.3 3.8
306(9) 0.01100 285.3 3.7
318(9) 0.01063 285.3 3.7
320(10) 0.00987 285.3 3.7
296(9) 0.01071 285.3 3.7
316(10) 0.00994 285.3 3.7
282(9) 0.01179 285.3 3.7
292(9) 0.01140 285.3 3.7
292(9) 0.01076 285.2 3.7
311(10) 0.00976 285.2 3.7
284(9) 0.01136 285.2 3.7
303(9) 0.01100 285.2 3.7
310(9) 0.01052 285.2 3.7
319(10) 0.00979 285.2 3.7
321(10) 0.00951 285.2 3.7
287(9) 0.01121 285.1 3.7
260(8) 0.01262 285.1 3.7
300(9) 0.01097 285.1 3.7
304(9) 0.01062 285.1 3.7
260(8) 0.01241 285.1 3.7
281(9) 0.01070 285.1 3.7
293(9) 0.01132 285.1 3.7
280(9) 0.01125 285.1 3.7
287(9) 0.01020 285.0 3.7
287(9) 0.01034 285.0 3.7
307(9) 0.01074 285.0 3.7
312(9) 0.01078 285.0 3.7
296(9) 0.01081 285.0 3.8
307(10) 0.00991 285.0 3.8
285(9) 0.01125 285.0 3.8
306(9) 0.01069 285.0 3.8
307(9) 0.01093 284.9 3.8
275(9) 0.01152 284.9 3.8
308(10) 0.00966 284.9 3.9
284(9) 0.01094 284.9 3.9
295(9) 0.01117 284.9 3.9
274(9) 0.01199 284.9 3.9
287(9) 0.01082 284.9 4.0
296(10) 0.01007 284.8 4.0
301(9) 0.01024 284.8 4.0
302(9) 0.01079 284.8 4.1
307(9) 0.01100 284.8 4.1
283(9) 0.01095 284.8 4.1
295(10) 0.00976 284.8 4.2
266(9) 0.01154 284.8 4.2
284(9) 0.01157 284.8 4.2
291(9) 0.01136 284.8 4.3
295(9) 0.01077 284.8 4.3
299(9) 0.01026 284.8 4.4
316(10) 0.01004 284.9 4.4
306(9) 0.01098 284.9 4.5
294(9) 0.01104 284.9 4.5
273(9) 0.01148 284.9 4.6
294(10) 0.00979 284.9 4.6
289(9) 0.01101 284.9 4.7
315(9) 0.01067 284.9 4.8
290(9) 0.01128 284.9 4.8
276(9) 0.01153 284.9 4.9
282(9) 0.01019 284.9 5.0
282(9) 0.01096 284.9 5.0
275(9) 0.01227 284.9 5.1
302(9) 0.01084 284.9 5.2
343(10) 0.00909 284.9 5.3
304(10) 0.00988 284.9 5.3
285(9) 0.01051 284.9 5.4
309(9) 0.01080 284.9 5.5
291(9) 0.01109 284.9 5.6
289(9) 0.01111 284.9 5.7
299(9) 0.01052 284.9 5.8
305(9) 0.01059 284.9 5.8
285(9) 0.01162 284.9 5.9
274(9) 0.01176 284.9 6.0
313(10) 0.00989 284.9 6.1
304(10) 0.01005 284.9 6.2
281(9) 0.01104 284.9 6.3
307(9) 0.01101 284.9 6.4
286(9) 0.01116 285.0 6.5
279(9) 0.01134 285.0 6.6
284(9) 0.01120 285.0 6.7
291(9) 0.01091 285.0 6.8
295(9) 0.01127 285.0 6.9
287(9) 0.01101 285.0 7.0
293(9) 0.01022 285.0 7.1
286(9) 0.01095 285.0 7.1
310(9) 0.01078 285.0 7.2
302(9) 0.01094 285.0 7.3
286(9) 0.01115 285.0 7.4
293(9) 0.01050 285.0 7.5
320(10) 0.00964 285.0 7.5
287(9) 0.01116 285.0 7.6
292(9) 0.01147 285.0 7.6
292(9) 0.01069 285.0 7.7
311(10) 0.00931 285.0 7.8
271(9) 0.01148 285.0 7.8
295(9) 0.01107 285.0 7.8
302(9) 0.01100 285.0 7.9
296(9) 0.01091 285.0 7.9
280(9) 0.01034 285.0 8.0
291(9) 0.01035 285.0 8.0
267(8) 0.01232 285.0 8.0
301(9) 0.01099 285.0 8.1
308(10) 0.01005 285.0 8.1
277(9) 0.01051 285.0 8.1
284(9) 0.01062 285.0 8.2
281(9) 0.01178 285.1 8.2
258(8) 0.01262 285.1 8.2
285(9) 0.01100 285.1 8.3
294(10) 0.00994 285.1 8.3
269(9) 0.01170 285.1 8.3
278(9) 0.01197 285.1 8.4
303(9) 0.01078 285.1 8.4
305(9) 0.01039 285.1 8.5
284(9) 0.01085 285.1 8.5
309(9) 0.01019 285.1 8.6
291(9) 0.01152 285.1 8.7
275(9) 0.01148 285.1 8.7
303(9) 0.01017 285.1 8.8
319(10) 0.00964 285.1 8.9
291(9) 0.01101 285.1 9.0
277(9) 0.01201 285.1 9.1
293(9) 0.01086 285.1 9.2
297(9) 0.01058 285.1 9.3
310(10) 0.00965 285.1 9.5
296(9) 0.01078 285.1 9.6
307(9) 0.01082 285.1 9.8
302(9) 0.01068 285.1 9.9
316(10) 0.00961 285.1 10.1
283(9) 0.01080 285.1 10.3
310(9) 0.01042 285.1 10.5
321(9) 0.01052 285.1 10.7
302(9) 0.01018 285.1 10.9
295(9) 0.01039 285.2 11.1
295(9) 0.01064 285.2 11.4
296(9) 0.01112 285.2 11.6
285(9) 0.01177 285.2 11.9
309(9) 0.01015 285.2 12.2
297(9) 0.01040 285.2 12.5
308(10) 0.01006 285.2 12.8
303(9) 0.01082 285.2 13.2
290(9) 0.01150 285.2 13.6
291(9) 0.01099 285.2 13.9
304(10) 0.00960 285.2 14.3
300(9) 0.01032 285.2 14.7
330(10) 0.00997 285.2 15.2
288(9) 0.01182 285.2 15.6
263(8) 0.01239 285.2 16.1
308(10) 0.00937 285.2 16.6
305(9) 0.01009 285.2 17.1
276(9) 0.01218 285.2 17.6
304(9) 0.01081 285.2 18.1
307(10) 0.01007 285.2 18.6
295(10) 0.00941 285.2 19.1
301(9) 0.01038 285.2 19.7
308(9) 0.01075 285.2 20.2
301(9) 0.01101 285.2 20.7
307(9) 0.01018 285.2 21.2
310(10) 0.00964 285.2 21.7
313(9) 0.01016 285.2 22.2
304(9) 0.01108 285.3 22.6
342(10) 0.00947 285.3 23.0
299(9) 0.01057 285.3 23.4
291(9) 0.01046 285.3 23.7
293(9) 0.01048 285.3 23.9
294(9) 0.01146 285.3 24.1
323(10) 0.00993 285.3 24.3
305(9) 0.01028 285.3 24.4
308(9) 0.01012 285.3 24.4
303(9) 0.01036 285.3 24.3
290(9) 0.01156 285.3 24.2
321(10) 0.01001 285.3 24.1
317(10) 0.01001 285.3 23.9
329(10) 0.00938 285.3 23.7
318(10) 0.00969 285.3 23.4
318(9) 0.01059 285.3 23.1
333(10) 0.00970 285.3 22.8
313(9) 0.01023 285.3 22.4
328(10) 0.00941 285.3 22.1
320(10) 0.00990 285.3 21.7
338(10) 0.00991 285.3 21.4
308(9) 0.01042 285.3 21.0
312(10) 0.00976 285.3 20.6
327(10) 0.00974 285.3 20.3
309(9) 0.01054 285.3 20.0
290(9) 0.01154 285.3 19.7
295(9) 0.01074 285.3 19.4
305(10) 0.00973 285.3 19.2
299(9) 0.01076 285.4 19.0
302(9) 0.01098 285.4 18.8
300(9) 0.01114 285.4 18.6
286(9) 0.01100 285.4 18.5
309(10) 0.00974 285.4 18.5
311(10) 0.00995 285.4 18.4
328(9) 0.01014 285.4 18.4
308(9) 0.01092 285.4 18.5
281(9) 0.01136 285.4 18.5
320(10) 0.00908 285.4 18.6
308(9) 0.01016 285.4 18.8
290(9) 0.01152 285.4 18.9
293(9) 0.01099 285.4 19.1
307(9) 0.01045 285.4 19.2
309(10) 0.00960 285.4 19.4
297(9) 0.01069 285.4 19.5
313(9) 0.01048 285.4 19.5
296(9) 0.01126 285.4 19.5
299(9) 0.01075 285.4 19.3
337(10) 0.00883 285.4 19.1
318(10) 0.00975 285.4 18.8
304(9) 0.01104 285.4 18.4
280(9) 0.01167 285.4 17.9
299(9) 0.01093 285.4 17.4
308(10) 0.00999 285.4 16.8
293(9) 0.01084 285.4 16.3
300(9) 0.01119 285.4 15.7
307(9) 0.01026 285.5 15.1
300(9) 0.01016 285.5 14.5
299(9) 0.01023 285.5 14.0
290(9) 0.01090 285.5 13.4
298(9) 0.01130 285.5 12.9
317(9) 0.01038 285.5 12.4
295(9) 0.01078 285.5 12.0
297(9) 0.01052 285.5 11.6
287(9) 0.01129 285.5 11.2
283(9) 0.01177 285.5 10.8
297(9) 0.01056 285.5 10.5
282(9) 0.01086 285.5 10.2
289(9) 0.01043 285.5 9.9
292(9) 0.01100 285.5 9.7
309(9) 0.01094 285.5 9.4
289(9) 0.01068 285.5 9.2
308(9) 0.01010 285.5 9.0
282(9) 0.01130 285.5 8.8
277(9) 0.01190 285.5 8.6
294(9) 0.01148 285.5 8.4
273(9) 0.01133 285.5 8.2
286(9) 0.01081 285.5 8.1
276(9) 0.01143 285.5 7.9
305(9) 0.01029 285.5 7.8
314(9) 0.01066 285.5 7.7
318(10) 0.00983 285.5 7.6
288(9) 0.01055 285.5 7.4
295(9) 0.01049 285.6 7.3
282(9) 0.01190 285.6 7.2
275(9) 0.01193 285.6 7.1
295(9) 0.01092 285.6 7.0
287(9) 0.01027 285.6 6.9
283(9) 0.01121 285.6 6.8
304(9) 0.01093 285.6 6.7
287(9) 0.01141 285.6 6.6
298(9) 0.01038 285.6 6.6
315(10) 0.00935 285.6 6.5
297(9) 0.01060 285.6 6.4
264(8) 0.01237 285.6 6.3
296(9) 0.01122 285.6 6.3
287(9) 0.01107 285.6 6.2
289(9) 0.01031 285.6 6.1
317(10) 0.00998 285.6 6.1
315(9) 0.01064 285.6 6.0
295(9) 0.01126 285.6 6.0
281(9) 0.01119 285.6 5.9
290(9) 0.01042 285.6 5.9
286(9) 0.01073 285.6 5.8
306(9) 0.01098 285.6 5.8
277(9) 0.01209 285.6 5.8
306(9) 0.01035 285.6 5.7
311(10) 0.00969 285.6 5.7
293(9) 0.01080 285.6 5.7
312(9) 0.01073 285.6 5.6
285(9) 0.01124 285.6 5.6
271(9) 0.01099 285.7 5.6
277(9) 0.01083 285.7 5.6
303(9) 0.01037 285.7 5.6
279(9) 0.01178 285.7 5.5
287(9) 0.01118 285.7 5.5
283(9) 0.01097 285.7 5.5
298(9) 0.01027 285.7 5.5
298(9) 0.01062 285.7 5.5
308(9) 0.01088 285.7 5.5
297(9) 0.01053 285.7 5.5
306(10) 0.00986 285.7 5.6
306(10) 0.01004 285.7 5.6
279(9) 0.01165 285.7 5.6
297(9) 0.01124 285.7 5.6
300(9) 0.01047 285.7 5.7
296(9) 0.01024 285.7 5.7
286(9) 0.01084 285.7 5.8
303(9) 0.01047 285.7 5.8
268(8) 0.01234 285.7 5.9
290(9) 0.01060 285.7 5.9
294(9) 0.01013 285.7 6.0
280(9) 0.01122 285.7 6.1
311(9) 0.01071 285.7 6.2
275(9) 0.01198 285.7 6.3
318(10) 0.00993 285.7 6.4
308(10) 0.01002 285.7 6.5
292(9) 0.01108 285.7 6.7
282(9) 0.01167 285.8 6.8
285(9) 0.01177 285.8 6.9
320(10) 0.00984 285.8 7.1
280(9) 0.01053 285.8 7.3
294(9) 0.01049 285.8 7.4
298(9) 0.01108 285.8 7.6
290(9) 0.01150 285.8 7.8
320(10) 0.00999 285.8 8.0
300(9) 0.01033 285.8 8.2
309(9) 0.01039 285.8 8.4
311(9) 0.01081 285.8 8.5
299(9) 0.01109 285.8 8.7
276(9) 0.01142 285.8 8.9
294(10) 0.00976 285.8 9.0
311(10) 0.01002 285.8 9.1
306(9) 0.01090 285.8 9.2
287(9) 0.01131 285.8 9.3
293(9) 0.01034 285.8 9.3
280(9) 0.01096 285.8 9.3
334(10) 0.00941 285.8 9.3
305(9) 0.01112 285.8 9.3
294(9) 0.01106 285.8 9.2
302(10) 0.00986 285.8 9.1
288(9) 0.01037 285.8 9.0
294(9) 0.01077 285.8 8.9
290(9) 0.01143 285.8 8.8
286(9) 0.01140 285.8 8.8
308(9) 0.01029 285.9 8.7
276(9) 0.01176 285.9 8.6
283(9) 0.01132 285.9 8.5
299(9) 0.01119 285.9 8.4
298(9) 0.01072 285.9 8.4
289(9) 0.01073 285.9 8.3
302(10) 0.01004 285.9 8.3
323(10) 0.00985 285.9 8.3
299(9) 0.01119 285.9 8.3
265(9) 0.01193 285.9 8.2
286(9) 0.01130 285.9 8.2
321(10) 0.00981 285.9 8.3
292(9) 0.01137 285.9 8.3
286(9) 0.01155 285.9 8.3
308(10) 0.01003 285.9 8.3
295(9) 0.01056 285.9 8.4
298(9) 0.01060 285.9 8.4
294(9) 0.01106 285.9 8.5
278(9) 0.01187 285.9 8.5
283(9) 0.01119 285.9 8.6
310(10) 0.00939 285.9 8.7
277(9) 0.01117 285.9 8.7
290(9) 0.01124 285.9 8.8
303(9) 0.01100 285.9 8.9
316(10) 0.00986 285.9 9.0
312(10) 0.00969 285.9 9.1
319(10) 0.00991 285.9 9.1
296(9) 0.01107 285.9 9.2
270(9) 0.01222 286.0 9.3
287(9) 0.01077 286.0 9.4
286(9) 0.01047 286.0 9.5
290(9) 0.01086 286.0 9.6
290(9) 0.01150 286.0 9.7
279(9) 0.01185 286.0 9.8
314(9) 0.01013 286.0 9.8
300(9) 0.01035 286.0 9.9
304(9) 0.01034 286.0 10.0
303(9) 0.01086 286.0 10.1
304(9) 0.01107 286.0 10.2
299(9) 0.01072 286.0 10.2
303(9) 0.01018 286.0 10.3
312(10) 0.01006 286.0 10.4
289(9) 0.01143 286.0 10.4
303(9) 0.01076 286.0 10.5
305(9) 0.01019 286.0 10.6
294(9) 0.01077 286.0 10.6
305(9) 0.01024 286.0 10.7
282(9) 0.01179 286.0 10.7
306(9) 0.01039 286.0 10.8
300(9) 0.01025 286.0 10.8
305(9) 0.01015 286.0 10.8
311(9) 0.01037 286.0 10.9
297(9) 0.01117 286.0 10.9
310(9) 0.01043 286.0 10.9
310(10) 0.01002 286.0 10.9
313(10) 0.00980 286.1 10.9
313(10) 0.01001 286.1 11.0
314(9) 0.01064 286.1 11.0
300(9) 0.01065 286.1 11.0
299(9) 0.01027 286.1 10.9
292(9) 0.01102 286.1 10.9
282(9) 0.01161 286.1 10.9
310(9) 0.01071 286.1 10.9
297(9) 0.01105 286.1 10.9
327(10) 0.00935 286.1 10.9
314(10) 0.00984 286.1 10.8
302(9) 0.01090 286.1 10.8
306(9) 0.01092 286.1 10.8
276(9) 0.01146 286.1 10.7
312(10) 0.00969 286.1 10.7
289(9) 0.01094 286.1 10.7
309(9) 0.01079 286.1 10.6
302(9) 0.01105 286.1 10.6
311(9) 0.01027 286.1 10.5
291(9) 0.01014 286.1 10.5
307(9) 0.01015 286.1 10.4
311(9) 0.01082 286.1 10.4
325(9) 0.01032 286.1 10.3
308(9) 0.01021 286.1 10.3
301(10) 0.00966 286.1 10.2
274(9) 0.01152 286.1 10.2
298(9) 0.01110 286.1 10.1
308(9) 0.01086 286.2 10.1
309(9) 0.01057 286.2 10.0
311(10) 0.00973 286.2 10.0
297(9) 0.01072 286.2 9.9
280(9) 0.01177 286.2 9.8
288(9) 0.01137 286.2 9.8
310(9) 0.01033 286.2 9.7
306(10) 0.00992 286.2 9.7
297(9) 0.01063 286.2 9.6
295(9) 0.01129 286.2 9.6
302(9) 0.01085 286.2 9.5
275(9) 0.01180 286.2 9.4
270(9) 0.01146 286.2 9.4
281(9) 0.01058 286.2 9.3
296(9) 0.01132 286.2 9.3
293(9) 0.01087 286.2 9.2
303(9) 0.01036 286.2 9.1
275(9) 0.01148 286.2 9.1
296(9) 0.01068 286.2 9.0
286(9) 0.01161 286.2 8.9
293(9) 0.01087 286.2 8.8
299(9) 0.01049 286.2 8.8
302(9) 0.01033 286.2 8.7
293(9) 0.01054 286.2 8.6
298(9) 0.01117 286.2 8.6
320(10) 0.00984 286.2 8.5
284(9) 0.01103 286.2 8.4
300(9) 0.01026 286.2 8.3
282(9) 0.01113 286.3 8.3
301(9) 0.01110 286.3 8.2
282(9) 0.01122 286.3 8.1
295(9) 0.01028 286.3 8.0
288(9) 0.01085 286.3 7.9
288(9) 0.01127 286.3 7.9
305(9) 0.01084 286.3 7.8
292(9) 0.01068 286.3 7.7
277(9) 0.01089 286.3 7.6
280(9) 0.01133 286.3 7.5
289(9) 0.01109 286.3 7.5
286(9) 0.01164 286.3 7.4
292(9) 0.01057 286.3 7.3
296(10) 0.00992 286.3 7.3
318(10) 0.00989 286.3 7.2
296(9) 0.01117 286.3 7.1
293(9) 0.01128 286.3 7.0
313(10) 0.01003 286.3 7.0
301(10) 0.00973 286.3 6.9
290(9) 0.01107 286.3 6.8
290(9) 0.01150 286.3 6.8
288(9) 0.01155 286.3 6.7
318(10) 0.00940 286.3 6.7
288(9) 0.01048 286.3 6.6
307(10) 0.00986 286.3 6.6
280(9) 0.01176 286.3 6.5
263(8) 0.01249 286.3 6.5
272(9) 0.01116 286.4 6.4
309(10) 0.00938 286.4 6.4
289(9) 0.01106 286.4 6.3
305(9) 0.01098 286.4 6.3
319(9) 0.01023 286.4 6.2
290(9) 0.01073 286.4 6.2
288(9) 0.01077 286.4 6.2
290(9) 0.01111 286.4 6.1
306(9) 0.01088 286.4 6.1
287(9) 0.01142 286.4 6.1
304(9) 0.01055 286.4 6.0
302(9) 0.01058 286.4 6.0
323(10) 0.00974 286.4 6.0
320(9) 0.01048 286.4 6.0
274(9) 0.01197 286.4 6.0
282(9) 0.01113 286.4 5.9
289(9) 0.01095 286.4 5.9
304(9) 0.01063 286.4 5.9
309(9) 0.01075 286.4 5.9
300(9) 0.01035 286.4 5.9
298(9) 0.01029 286.4 5.9
298(9) 0.01053 286.4 5.9
293(9) 0.01116 286.4 5.9
276(9) 0.01200 286.4 5.9
299(9) 0.01033 286.4 5.9
299(9) 0.01027 286.4 5.9
308(10) 0.00985 286.4 5.9
305(9) 0.01078 286.5 5.9
274(9) 0.01191 286.5 5.9
289(9) 0.01060 286.5 5.9
300(10) 0.00990 286.5 5.9
288(9) 0.01083 286.5 6.0
317(9) 0.01013 286.5 6.0
290(9) 0.01149 286.5 6.0
298(9) 0.01019 286.5 6.0
295(10) 0.01007 286.5 6.0
306(10) 0.00993 286.5 6.1
278(9) 0.01177 286.5 6.1
276(9) 0.01219 286.5 6.1
302(9) 0.01060 286.5 6.1
298(10) 0.00976 286.5 6.2
258(9) 0.01218 286.5 6.2
289(9) 0.01134 286.5 6.2
277(9) 0.01175 286.5 6.3
282(9) 0.01116 286.5 6.3
265(9) 0.01096 286.5 6.3
263(9) 0.01163 286.5 6.4
292(9) 0.01144 286.5 6.4
277(9) 0.01175 286.5 6.5
292(9) 0.01050 286.5 6.5
282(9) 0.01084 286.5 6.6
277(9) 0.01145 286.5 6.6
286(9) 0.01164 286.5 6.7
279(9) 0.01183 286.5 6.7
300(9) 0.01033 286.5 6.8
291(9) 0.01023 286.6 6.8
263(9) 0.01194 286.6 6.9
297(9) 0.01126 286.6 6.9
279(9) 0.01163 286.6 7.0
312(9) 0.01009 286.6 7.1
306(10) 0.01004 286.6 7.1
278(9) 0.01134 286.6 7.2
292(9) 0.01140 286.6 7.2
311(9) 0.01030 286.6 7.3
327(10) 0.00980 286.6 7.4
301(9) 0.01039 286.6 7.4
287(9) 0.01109 286.6 7.5
292(9) 0.01138 286.6 7.6
306(10) 0.00999 286.6 7.7
281(9) 0.01101 286.6 7.7
276(9) 0.01148 286.6 7.8
296(9) 0.01110 286.6 7.9
284(9) 0.01165 286.6 8.0
325(10) 0.00962 286.6 8.0
312(10) 0.00978 286.6 8.1
279(9) 0.01125 286.6 8.2
299(9) 0.01105 286.6 8.3
301(9) 0.01093 286.6 8.4
292(9) 0.01060 286.6 8.4
271(9) 0.01079 286.6 8.5
313(10) 0.00978 286.6 8.6
302(9) 0.01102 286.6 8.7
291(9) 0.01138 286.7 8.8
303(9) 0.01033 286.7 8.9
303(10) 0.00942 286.7 8.9
286(9) 0.01082 286.7 9.0
302(9) 0.01095 286.7 9.1
284(9) 0.01176 286.7 9.2
260(9) 0.01184 286.7 9.3
290(9) 0.01012 286.7 9.4
321(10) 0.00997 286.7 9.5
307(9) 0.01093 286.7 9.6
284(9) 0.01159 286.7 9.6
283(9) 0.01102 286.7 9.7
281(9) 0.01048 286.7 9.8
294(9) 0.01059 286.7 9.9
285(9) 0.01182 286.7 10.0
277(9) 0.01183 286.7 10.1
310(10) 0.00990 286.7 10.2
309(10) 0.00973 286.7 10.3
319(10) 0.00967 286.7 10.4
282(9) 0.01178 286.7 10.5
261(8) 0.01260 286.7 10.6
286(9) 0.01123 286.7 10.7
301(10) 0.00981 286.7 10.8
303(9) 0.01030 286.7 10.9
297(9) 0.01122 286.7 11.1
302(9) 0.01087 286.7 11.2
315(9) 0.01012 286.7 11.3
295(9) 0.01042 286.8 11.5
263(9) 0.01189 286.8 11.6
300(9) 0.01119 286.8 11.8
299(9) 0.01067 286.8 11.9
299(9) 0.01027 286.8 12.1
288(9) 0.01046 286.8 12.3
278(9) 0.01110 286.8 12.4
287(9) 0.01153 286.8 12.6
281(9) 0.01148 286.8 12.8
273(9) 0.01197 286.8 12.9
292(9) 0.01070 286.8 13.1
312(9) 0.01036 286.8 13.2
303(9) 0.01110 286.8 13.3
314(10) 0.00997 286.8 13.4
294(9) 0.01069 286.8 13.5
278(9) 0.01110 286.8 13.5
289(9) 0.01127 286.8 13.5
287(9) 0.01157 286.8 13.5
280(9) 0.01142 286.8 13.5
306(10) 0.00985 286.8 13.4
290(9) 0.01104 286.8 13.3
298(9) 0.01119 286.8 13.2
305(9) 0.01084 286.8 13.2
309(10) 0.00989 286.8 13.1
291(10) 0.01007 286.8 13.0
289(9) 0.01052 286.8 12.9
290(9) 0.01100 286.8 12.9
282(9) 0.01166 286.8 12.8
283(9) 0.01097 286.9 12.7
299(10) 0.00949 286.9 12.7
292(9) 0.01103 286.9 12.7
311(9) 0.01070 286.9 12.7
303(9) 0.01099 286.9 12.7
316(10) 0.01004 286.9 12.7
287(9) 0.01022 286.9 12.7
310(9) 0.01037 286.9 12.8
292(9) 0.01131 286.9 12.8
281(9) 0.01183 286.9 12.9
314(10) 0.01007 286.9 13.0
301(9) 0.01013 286.9 13.1
301(9) 0.01058 286.9 13.2
296(9) 0.01117 286.9 13.3
278(9) 0.01167 286.9 13.4
299(9) 0.01071 286.9 13.6
284(9) 0.01077 286.9 13.7
277(9) 0.01132 286.9 13.9
299(9) 0.01112 286.9 14.1
296(9) 0.01097 286.9 14.3
291(9) 0.01091 286.9 14.5
284(9) 0.01110 286.9 14.7
328(10) 0.00947 286.9 14.9
319(9) 0.01049 286.9 15.2
303(9) 0.01068 286.9 15.4
292(9) 0.01060 286.9 15.7
300(10) 0.00983 286.9 15.9
295(9) 0.01034 287.0 16.2
304(9) 0.01104 287.0 16.5
306(9) 0.01040 287.0 16.7
306(9) 0.01053 287.0 17.0
313(10) 0.00996 287.0 17.3
304(9) 0.01058 287.0 17.6
300(9) 0.01116 287.0 17.9
300(9) 0.01056 287.0 18.2
303(9) 0.01012 287.0 18.4
311(10) 0.00987 287.0 18.7
299(9) 0.01089 287.0 18.9
305(9) 0.01108 287.0 19.1
325(10) 0.00947 287.0 19.3
314(10) 0.00964 287.0 19.4
326(10) 0.00966 287.0 19.5
292(9) 0.01120 287.0 19.6
315(9) 0.01076 287.0 19.6
293(9) 0.01064 287.0 19.5
310(10) 0.00976 287.0 19.5
298(9) 0.01082 287.0 19.3
315(9) 0.01044 287.0 19.2
316(9) 0.01066 287.0 19.0
294(9) 0.01040 287.0 18.8
302(10) 0.00984 287.0 18.5
279(9) 0.01128 287.0 18.3
323(9) 0.01050 287.0 18.1
287(9) 0.01145 287.0 17.8
287(9) 0.01101 287.1 17.6
310(10) 0.00975 287.1 17.4
294(9) 0.01103 287.1 17.2
298(9) 0.01122 287.1 16.9
307(9) 0.01060 287.1 16.7
296(9) 0.01057 287.1 16.5
313(10) 0.00970 287.1 16.4
308(9) 0.01043 287.1 16.2
315(9) 0.01069 287.1 16.0
296(9) 0.01143 287.1 15.9
282(9) 0.01130 287.1 15.7
305(9) 0.01029 287.1 15.6
299(9) 0.01097 287.1 15.5
295(9) 0.01140 287.1 15.4
300(9) 0.01104 287.1 15.3
297(9) 0.01095 287.1 15.2
299(9) 0.01056 287.1 15.1
306(9) 0.01020 287.1 15.0
287(9) 0.01156 287.1 14.8
274(9) 0.01181 287.1 14.7
281(9) 0.01094 287.1 14.6
295(9) 0.01047 287.1 14.5
310(9) 0.01023 287.1 14.3
284(9) 0.01171 287.1 14.1
294(9) 0.01094 287.1 14.0
291(9) 0.01073 287.1 13.8
297(9) 0.01008 287.1 13.6
309(10) 0.01002 287.1 13.4
292(9) 0.01143 287.2 13.2
296(9) 0.01098 287.2 13.0
274(9) 0.01117 287.2 12.8
275(9) 0.01111 287.2 12.6
285(9) 0.01135 287.2 12.4
288(9) 0.01147 287.2 12.2
281(9) 0.01107 287.2 12.1
271(9) 0.01121 287.2 11.9
267(9) 0.01177 287.2 11.7
279(9) 0.01167 287.2 11.5
291(9) 0.01154 287.2 11.4
286(9) 0.01096 287.2 11.2
289(9) 0.01022 287.2 11.1
294(9) 0.01085 287.2 11.0
288(9) 0.01133 287.2 10.8
294(9) 0.01142 287.2 10.7
294(9) 0.01034 287.2 10.6
302(10) 0.00970 287.2 10.5
294(9) 0.01053 287.2 10.4
288(9) 0.01150 287.2 10.3
282(9) 0.01186 287.2 10.2
307(9) 0.01029 287.2 10.1
292(9) 0.01031 287.2 10.0
277(9) 0.01168 287.2 9.9
303(9) 0.01102 287.2 9.8
298(9) 0.01118 287.2 9.8
285(9) 0.01114 287.2 9.7
283(9) 0.01076 287.3 9.6
272(9) 0.01178 287.3 9.6
279(9) 0.01172 287.3 9.5
283(9) 0.01167 287.3 9.5
276(9) 0.01166 287.3 9.4
304(10) 0.00997 287.3 9.4
286(9) 0.01112 287.3 9.4
277(9) 0.01183 287.3 9.3
267(8) 0.01235 287.3 9.3
275(9) 0.01149 287.3 9.3
282(9) 0.01074 287.3 9.3
288(9) 0.01068 287.3 9.2
280(9) 0.01183 287.3 9.2
297(9) 0.01103 287.3 9.2
279(9) 0.01097 287.3 9.2
288(9) . . .
311(9) . . .
303(9) . . .
285(9) . . .
272(9) . . .
274(9) . . .
304(9) . . .
295(9) . . .
297(9) . . .
281(9) . . .
309(10) . . .
289(9) . . .
296(9) . . .
270(9) . . .
305(10) . . .
277(9) . . .
295(9) . . .
270(8) . . .
272(9) . . .
302(9) . . .
312(9) . . .
298(9) . . .
284(9) . . .
279(9) . . .
285(9) . . .
277(9) . . .
292(9) . . .
303(9) . . .
296(9) . . .
302(10) . . .
296(9) . . .
295(9) . . .
284(9) . . .
285(9) . . .
295(10) . . .
274(9) . . .
295(9) . . .
300(9) . . .
324(10) . . .
302(10) . . .
301(9) . . .
278(9) . . .
310(9) . . .
301(9) . . .
307(10) . . .
311(9) . . .
318(9) . . .
317(9) . . .
308(10) . . .
306(10) . . .
314(10) . . .
300(9) . . .
309(9) . . .
285(9) . . .
277(9) . . .
299(9) . . .
302(9) . . .
293(9) . . .
275(9) . . .
278(9) . . .
285(9) . . .
306(9) . . .
299(9) . . .
264(9) . . .
281(9) . . .
293(9) . . .
285(9) . . .
286(9) . . .
262(9) . . .
275(9) . . .
279(9) . . .
280(9) . . .
281(9) . . .
294(10) . . .
286(9) . . .
278(9) . . .
265(8) . . .
294(9) . . .
287(9) . . .
316(10) . . .
279(9) . . .
295(9) . . .
286(9) . . .
308(10) . . .
289(9) . . .
273(9) . . .
273(9) . . .
272(9) . . .
293(10) . . .
293(9) . . .
292(9) . . .
308(9) . . .
292(9) . . .
283(9) . . .
282(9) . . .
292(9) . . .
293(9) . . .
262(9) . . .
274(9) . . .
306(9) . . .
289(9) . . .
290(9) . . .
316(9) . . .
288(9) . . .
292(9) . . .
285(9) . . .
294(9) . . .
245(8) . . .
277(9) . . .
274(9) . . .
308(9) . . .
283(9) . . .
293(9) . . .
294(9) . . .
293(9) . . .
306(9) . . .
260(9) . . .
274(9) . . .
301(9) . . .
280(9) . . .
279(9) . . .
274(9) . . .
258(9) . . .
258(9) . . .
305(9) . . .
288(9) . . .
273(9) . . .
275(9) . . .
270(9) . . .
279(9) . . .
278(9) . . .
292(9) . . .
273(9) . . .
270(9) . . .
266(9) . . .
278(9) . . .
261(9) . . .
250(9) . . .
284(9) . . .
274(9) . . .
281(9) . . .
272(9) . . .
264(9) . . .
283(9) . . .
289(9) . . .
292(9) . . .
287(9) . . .
275(9) . . .
266(9) . . .
298(9) . . .
297(9) . . .
280(9) . . .
285(9) . . .
274(9) . . .
285(9) . . .
299(9) . . .
282(9) . . .
275(9) . . .
289(9) . . .
267(9) . . .
272(9) . . .
265(9) . . .
282(9) . . .
263(9) . . .
264(8) . . .
258(8) . . .
268(9) . . .
260(9) . . .
260(9) . . .
290(9) . . .
267(9) . . .
272(9) . . .
285(9) . . .
283(9) . . .
270(9) . . .
278(9) . . .
285(9) . . .
299(9) . . .
275(9) . . .
275(9) . . .
265(9) . . .
259(9) . . .
294(9) . . .
290(9) . . .
286(9) . . .
290(9) . . .
268(9) . . .
287(9) . . .
263(8) . . .
292(9) . . .
266(9) . . .
287(9) . . .
287(9) . . .
282(9) . . .
282(9) . . .
291(9) . . .
277(9) . . .
279(9) . . .
276(9) . . .
278(9) . . .
269(9) . . .
258(9) . . .
286(9) . . .
281(9) . . .
273(9) . . .
291(10) . . .
275(9) . . .
283(9) . . .
273(9) . . .
261(9) . . .
265(9) . . .
283(9) . . .
268(9) . . .
272(9) . . .
266(9) . . .
296(9) . . .
280(9) . . .
271(9) . . .
257(8) . . .
261(9) . . .
255(9) . . .
271(9) . . .
248(8) . . .
288(9) . . .
282(9) . . .
274(9) . . .
254(8) . . .
271(9) . . .
275(9) . . .
281(9) . . .
273(9) . . .
282(9) . . .
244(8) . . .
278(9) . . .
254(8) . . .
282(10) . . .
295(9) . . .
257(8) . . .
328(10) . . .
279(9) . . .
293(10) . . .
277(9) . . .
257(8) . . .
288(9) . . .
265(9) . . .
265(9) . . .
279(9) . . .
268(8) . . .
264(9) . . .
242(8) . . .
278(9) . . .
283(9) . . .
295(9) . . .
255(8) . . .
276(9) . . .
284(9) . . .
279(9) . . .
276(9) . . .
285(9) . . .
272(9) . . .
273(9) . . .
287(9) . . .
272(9) . . .
240(8) . . .
248(9) . . .
281(9) . . .
275(9) . . .
250(8) . . .
254(8) . . .
292(9) . . .
279(9) . . .
256(8) . . .
273(9) . . .
285(9) . . .
267(9) . . .
271(9) . . .
293(9) . . .
273(9) . . .
251(8) . . .
265(9) . . .
268(9) . . .
284(9) . . .
279(9) . . .
272(9) . . .
289(10) . . .
272(9) . . .
270(9) . . .
264(8) . . .
266(9) . . .
272(9) . . .
277(9) . . .
268(8) . . .
286(9) . . .
288(9) . . .
271(9) . . .
268(9) . . .
269(9) . . .
253(8) . . .
266(9) . . .
265(9) . . .
274(9) . . .
293(9) . . .
271(9) . . .
273(9) . . .
265(9) . . .
271(9) . . .
282(9) . . .
288(9) . . .
274(9) . . .
282(9) . . .
274(9) . . .
271(9) . . .
291(9) . . .
292(9) . . .
288(9) . . .
316(9) . . .
302(9) . . .
322(10) . . .
283(9) . . .
283(9) . . .
291(9) . . .
290(9) . . .
291(9) . . .
296(9) . . .
291(9) . . .
272(9) . . .
264(8) . . .
255(9) . . .
281(9) . . .
279(9) . . .
276(9) . . .
302(9) . . .
280(9) . . .
307(10) . . .
283(9) . . .
290(9) . . .
285(9) . . .
254(8) . . .
282(9) . . .
289(9) . . .
282(9) . . .
276(9) . . .
285(9) . . .
272(9) . . .
283(9) . . .
260(8) . . .
276(9) . . .
259(9) . . .
254(9) . . .
268(9) . . .
264(8) . . .
288(9) . . .
287(9) . . .
285(9) . . .
305(9) . . .
281(9) . . .
274(9) . . .
261(9) . . .
266(9) . . .
274(9) . . .
281(9) . . .
294(9) . . .
266(9) . . .
257(9) . . .
270(9) . . .
280(9) . . .
259(9) . . .
289(9) . . .
260(8) . . .
298(9) . . .
290(9) . . .
291(9) . . .
271(9) . . .
271(9) . . .
277(9) . . .
256(8) . . .
249(8) . . .
260(9) . . .
280(9) . . .
285(9) . . .
270(9) . . .
292(9) . . .
263(9) . . .
277(9) . . .
301(9) . . .
298(9) . . .
254(9) . . .
282(9) . . .
284(9) . . .
267(8) . . .
314(9) . . .
293(9) . . .
279(9) . . .
306(10) . . .
273(9) . . .
288(9) . . .
280(9) . . .
299(9) . . .
288(9) . . .
296(9) . . .
264(8) . . .
268(9) . . .
238(9) . . .
259(9) . . .
308(9) . . .
264(8) . . .
280(9) . . .
279(9) . . .
247(8) . . .
270(9) . . .
267(9) . . .
271(9) . . .
283(9) . . .
255(9) . . .
280(9) . . .
300(9) . . .
281(9) . . .
265(9) . . .
265(9) . . .
275(9) . . .
284(9) . . .
270(9) . . .
310(10) . . .
288(9) . . .
295(9) . . .
287(9) . . .
290(9) . . .
289(9) . . .
290(9) . . .
292(9) . . .
294(9) . . .
271(9) . . .
273(9) . . .
269(9) . . .
293(9) . . .
293(9) . . .
292(9) . . .
265(9) . . .
291(9) . . .
238(8) . . .
287(9) . . .
297(10) . . .
272(9) . . .
264(8) . . .
280(9) . . .
286(9) . . .
277(9) . . .
262(9) . . .
265(8) . . .
272(9) . . .
261(9) . . .
272(9) . . .
274(9) . . .
261(8) . . .
266(9) . . .
276(9) . . .
276(9) . . .
253(9) . . .
259(8) . . .
266(9) . . .
263(9) . . .
274(9) . . .
286(9) . . .
272(9) . . .
262(9) . . .
270(9) . . .
272(9) . . .
240(8) . . .
245(8) . . .
260(9) . . .
247(9) . . .
270(9) . . .
254(8) . . .
268(9) . . .
257(9) . . .
241(8) . . .
277(9) . . .
259(8) . . .
265(8) . . .
258(9) . . .
263(9) . . .
264(9) . . .
270(9) . . .
259(8) . . .
265(9) . . .
267(9) . . .
262(9) . . .
262(8) . . .
266(9) . . .
282(9) . . .
257(9) . . .
274(9) . . .
291(9) . . .
274(9) . . .
261(9) . . .
261(9) . . .
281(9) . . .
265(8) . . .
244(8) . . .
235(8) . . .
250(9) . . .
243(8) . . .
249(8) . . .
267(9) . . .
245(8) . . .
246(8) . . .
267(9) . . .
251(8) . . .
271(9) . . .
269(9) . . .
275(9) . . .
268(9) . . .
252(8) . . .
249(8) . . .
264(9) . . .
249(9) . . .
280(9) . . .
269(9) . . .
276(9) . . .
255(9) . . .
261(9) . . .
266(9) . . .
253(8) . . .
286(9) . . .
269(9) . . .
287(9) . . .
271(9) . . .
263(8) . . .
267(9) . . .
279(9) . . .
240(8) . . .
227(8) . . .
231(8) . . .
260(9) . . .
271(9) . . .
258(9) . . .
254(8) . . .
267(8) . . .
238(8) . . .
254(9) . . .
249(8) . . .
247(8) . . .
246(8) . . .
253(9) . . .
251(9) . . .
269(9) . . .
254(8) . . .
255(8) . . .
276(9) . . .
252(9) . . .
244(8) . . .
244(8) . . .
261(8) . . .
251(8) . . .
263(9) . . .
254(8) . . .
240(8) . . .
249(8) . . .
258(9) . . .
244(8) . . .
255(8) . . .
258(8) . . .
263(9) . . .
268(9) . . .
246(8) . . .
257(9) . . .
260(8) . . .
250(8) . . .
257(9) . . .
255(8) . . .
267(9) . . .
250(8) . . .
246(8) . . .
269(9) . . .
294(9) . . .
266(9) . . .
248(8) . . .
247(9) . . .
261(9) . . .
287(9) . . .
234(8) . . .
239(8) . . .
260(9) . . .
258(9) . . .
250(8) . . .
248(8) . . .
242(8) . . .
240(8) . . .
240(9) . . .
258(9) . . .
259(8) . . .
242(8) . . .
235(8) . . .
258(9) . . .
241(8) . . .
265(8) . . .
258(8) . . .
250(8) . . .
227(8) . . .
269(9) . . .
251(8) . . .
254(8) . . .
254(8) . . .
256(9) . . .
238(8) . . .
259(8) . . .
255(9) . . .
259(9) . . .
236(8) . . .
229(8) . . .
245(8) . . .
253(8) . . .
257(9) . . .
233(8) . . .
238(8) . . .
241(8) . . .
236(8) . . .
237(8) . . .
255(9) . . .
247(8) . . .
241(8) . . .
273(9) . . .
264(9) . . .
230(8) . . .
235(8) . . .
229(8) . . .
241(8) . . .
236(8) . . .
251(9) . . .
236(8) . . .
261(8) . . .
257(9) . . .
248(9) . . .
232(8) . . .
264(8) . . .
262(8) . . .
242(8) . . .
251(9) . . .
255(9) . . .
252(8) . . .
276(9) . . .
257(9) . . .
224(8) . . .
236(8) . . .
249(8) . . .
258(8) . . .
259(9) . . .
254(9) . . .
253(8) . . .
252(8) . . .
261(8) . . .
266(9) . . .
271(9) . . .
249(9) . . .
263(8) . . .
260(9) . . .
233(8) . . .
237(8) . . .
270(9) . . .
244(8) . . .
246(9) . . .
271(9) . . .
276(9) . . .
249(8) . . .
265(8) . . .
240(8) . . .
229(8) . . .
242(8) . . .
249(8) . . .
238(8) . . .
233(8) . . .
259(9) . . .
238(8) . . .
230(8) . . .
253(8) . . .
256(9) . . .
254(9) . . .
258(9) . . .
245(8) . . .
232(8) . . .
245(8) . . .
244(8) . . .
266(9) . . .
232(8) . . .
242(8) . . .
252(8) . . .
255(9) . . .
242(8) . . .
240(8) . . .
252(8) . . .
233(8) . . .
222(8) . . .
223(8) . . .
239(8) . . .
228(8) . . .
242(8) . . .
243(9) . . .
250(8) . . .
218(8) . . .
251(8) . . .
228(8) . . .
237(9) . . .
274(9) . . .
248(8) . . .
249(8) . . .
237(8) . . .
250(9) . . .
224(8) . . .
227(8) . . .
218(8) . . .
235(8) . . .
242(8) . . .
230(8) . . .
250(8) . . .
242(8) . . .
247(9) . . .
249(9) . . .
254(9) . . .
237(8) . . .
221(8) . . .
251(9) . . .
225(8) . . .
225(8) . . .
215(8) . . .
238(8) . . .
251(9) . . .
273(9) . . .
253(8) . . .
267(8) . . .
247(8) . . .
251(9) . . .
262(9) . . .
245(8) . . .
234(8) . . .
256(9) . . .
235(8) . . .
246(8) . . .
252(8) . . .
257(8) . . .
226(8) . . .
256(9) . . .
221(8) . . .
242(8) . . .
242(8) . . .
240(8) . . .
243(9) . . .
243(8) . . .
242(8) . . .
257(8) . . .
237(8) . . .
253(9) . . .
246(8) . . .
239(8) . . .
226(8) . . .
241(8) . . .
239(9) . . .
210(8) . . .
233(8) . . .
235(8) . . .
242(8) . . .
243(8) . . .
264(9) . . .
258(8) . . .
222(8) . . .
245(9) . . .
257(9) . . .
246(8) . . .
232(8) . . .
254(9) . . .
250(8) . . .
248(8) . . .
250(8) . . .
232(8) . . .
251(9) . . .
241(9) . . .
229(8) . . .
238(8) . . .
252(8) . . .
261(9) . . .
273(9) . . .
250(9) . . .
238(8) . . .
251(8) . . .
242(9) . . .
236(9) . . .
262(9) . . .
240(8) . . .
255(8) . . .
264(9) . . .
261(9) . . .
247(8) . . .
257(8) . . .
259(8) . . .
233(8) . . .
252(9) . . .
247(9) . . .
245(8) . . .
232(8) . . .
236(8) . . .
226(8) . . .
224(8) . . .
223(8) . . .
240(8) . . .
241(8) . . .
264(9) . . .
227(8) . . .
212(8) . . .
237(8) . . .
227(8) . . .
234(8) . . .
238(8) . . .
231(8) . . .
234(8) . . .
226(8) . . .
221(8) . . .
235(8) . . .
216(8) . . .
245(8) . . .
245(9) . . .
221(8) . . .
219(8) . . .
199(7) . . .
220(8) . . .
236(8) . . .
221(8) . . .
202(7) . . .
230(8) . . .
202(8) . . .
209(8) . . .
226(8) . . .
213(8) . . .
228(8) . . .
211(8) . . .
201(8) . . .
226(8) . . .
226(8) . . .
233(8) . . .
246(9) . . .
223(8) . . .
236(8) . . .
225(8) . . .
223(8) . . .
247(8) . . .
210(8) . . .
219(8) . . .
222(8) . . .
217(8) . . .
224(8) . . .
216(8) . . .
233(8) . . .
234(8) . . .
214(8) . . .
234(8) . . .
233(9) . . .
229(8) . . .
231(8) . . .
219(8) . . .
212(8) . . .
221(8) . . .
205(7) . . .
217(8) . . .
226(8) . . .
216(8) . . .
209(8) . . .
214(8) . . .
225(8) . . .
214(8) . . .
225(8) . . .
230(8) . . .
226(8) . . .
196(7) . . .
230(8) . . .
213(8) . . .
215(8) . . .
207(8) . . .
215(8) . . .
208(8) . . .
213(8) . . .
222(8) . . .
225(8) . . .
195(7) . . .
215(8) . . .
243(8) . . .
222(8) . . .
214(8) . . .
232(8) . . .
242(9) . . .
211(8) . . .
196(7) . . .
235(8) . . .
242(8) . . .
221(8) . . .
209(8) . . .
216(8) . . .
220(8) . . .
217(8) . . .
235(9) . . .
214(8) . . .
230(8) . . .
228(8) . . .
224(8) . . .
236(8) . . .
204(8) . . .
216(8) . . .
203(7) . . .
216(8) . . .
208(8) . . .
204(8) . . .
236(8) . . .
237(8) . . .
220(8) . . .
223(8) . . .
230(8) . . .
222(8) . . .
209(7) . . .
199(7) . . .
223(8) . . .
208(8) . . .
210(8) . . .
205(7) . . .
251(9) . . .
223(8) . . .
209(8) . . .
220(8) . . .
210(8) . . .
245(8) . . .
238(8) . . .
211(8) . . .
237(8) . . .
217(8) . . .
209(8) . . .
231(9) . . .
215(8) . . .
222(8) . . .
215(8) . . .
220(8) . . .
219(8) . . .
221(8) . . .
216(8) . . .
214(8) . . .
226(8) . . .
217(8) . . .
217(8) . . .
216(8) . . .
240(8) . . .
224(8) . . .
219(8) . . .
203(8) . . .
226(8) . . .
218(8) . . .
223(8) . . .
211(8) . . .
231(8) . . .
221(8) . . .
222(8) . . .
217(8) . . .
211(8) . . .
232(8) . . .
221(8) . . .
217(8) . . .
226(8) . . .
222(8) . . .
223(8) . . .
204(7) . . .
219(8) . . .
220(8) . . .
214(8) . . .
212(8) . . .
203(7) . . .
228(8) . . .
216(8) . . .
212(8) . . .
207(7) . . .
224(8) . . .
223(8) . . .
208(8) . . .
231(8) . . .
224(8) . . .
183(7) . . .
217(8) . . .
213(8) . . .
220(8) . . .
219(8) . . .
222(8) . . .
221(8) . . .
208(8) . . .
194(8) . . .
205(8) . . .
202(7) . . .
204(8) . . .
207(8) . . .
212(8) . . .
213(8) . . .
226(8) . . .
214(8) . . .
218(8) . . .
224(8) . . .
199(7) . . .
208(8) . . .
207(8) . . .
215(8) . . .
222(8) . . .
230(8) . . .
218(8) . . .
204(8) . . .
199(8) . . .
203(8) . . .
226(8) . . .
234(8) . . .
224(8) . . .
207(8) . . .
218(8) . . .
228(8) . . .
231(8) . . .
210(8) . . .
212(8) . . .
203(8) . . .
219(8) . . .
222(8) . . .
205(8) . . .
225(8) . . .
204(8) . . .
218(8) . . .
229(8) . . .
214(8) . . .
217(8) . . .
215(8) . . .
214(8) . . .
214(8) . . .
237(9) . . .
218(8) . . .
196(7) . . .
222(8) . . .
196(7) . . .
204(8) . . .
218(8) . . .
208(7) . . .
215(8) . . .
214(8) . . .
211(8) . . .
208(8) . . .
229(8) . . .
214(8) . . .
193(7) . . .
247(9) . . .
210(8) . . .
214(8) . . .
207(8) . . .
193(7) . . .
215(8) . . .
203(8) . . .
208(7) . . .
215(8) . . .
216(8) . . .
195(7) . . .
223(8) . . .
207(7) . . .
200(8) . . .
211(8) . . .
222(8) . . .
228(8) . . .
214(8) . . .
189(7) . . .
230(8) . . .
217(8) . . .
210(8) . . .
209(8) . . .
217(8) . . .
211(8) . . .
207(8) . . .
205(8) . . .
221(8) . . .
217(8) . . .
206(8) . . .
205(8) . . .
211(8) . . .
209(7) . . .
222(8) . . .
214(8) . . .
196(7) . . .
226(8) . . .
219(8) . . .
207(8) . . .
209(8) . . .
227(8) . . .
220(8) . . .
207(8) . . .
203(8) . . .
205(8) . . .
208(8) . . .
212(8) . . .
209(8) . . .
211(8) . . .
222(8) . . .
227(8) . . .
207(7) . . .
222(8) . . .
205(8) . . .
201(8) . . .
219(8) . . .
206(7) . . .
234(8) . . .
198(7) . . .
191(8) . . .
222(8) . . .
207(7) . . .
205(8) . . .
239(8) . . .
231(8) . . .
223(8) . . .
209(8) . . .
207(8) . . .
180(7) . . .
200(7) . . .
205(7) . . .
198(7) . . .
220(8) . . .
217(8) . . .
193(7) . . .
205(8) . . .
228(8) . . .
200(7) . . .
200(8) . . .
197(8) . . .
210(8) . . .
221(8) . . .
210(8) . . .
207(8) . . .
224(8) . . .
197(7) . . .
202(7) . . .
204(8) . . .
225(8) . . .
222(8) . . .
211(8) . . .
217(8) . . .
190(7) . . .
211(8) . . .
194(7) . . .
208(7) . . .
205(7) . . .
213(8) . . .
194(8) . . .
210(8) . . .
188(7) . . .
211(8) . . .
230(8) . . .
207(8) . . .
223(8) . . .
192(7) . . .
204(8) . . .
202(8) . . .
218(8) . . .
216(8) . . .
206(8) . . .
206(8) . . .
216(8) . . .
214(8) . . .
208(8) . . .
215(8) . . .
198(8) . . .
186(7) . . .
205(8) . . .
211(8) . . .
210(8) . . .
217(8) . . .
188(7) . . .
188(8) . . .
213(8) . . .
197(7) . . .
197(8) . . .
196(7) . . .
235(8) . . .
211(8) . . .
200(7) . . .
223(8) . . .
207(8) . . .
209(8) . . .
208(8) . . .
196(7) . . .
215(8) . . .
196(8) . . .
223(8) . . .
192(7) . . .
217(8) . . .
200(8) . . .
202(8) . . .
219(8) . . .
199(7) . . .
186(7) . . .
182(7) . . .
213(8) . . .
215(8) . . .
199(7) . . .
200(7) . . .
220(8) . . .
199(8) . . .
198(8) . . .
215(8) . . .
212(8) . . .
214(8) . . .
199(8) . . .
185(7) . . .
203(7) . . .
190(7) . . .
211(8) . . .
199(8) . . .
203(8) . . .
204(7) . . .
211(8) . . .
211(8) . . .
183(7) . . .
189(7) . . .
203(7) . . .
200(7) . . .
205(8) . . .
204(8) . . .
188(7) . . .
192(7) . . .
193(8) . . .
203(8) . . .
212(8) . . .
200(7) . . .
197(7) . . .
197(8) . . .
197(8) . . .
178(7) . . .
187(7) . . .
217(8) . . .
196(7) . . .
201(8) . . .
209(8) . . .
215(8) . . .
219(8) . . .
202(8) . . .
186(8) . . .
204(8) . . .
209(8) . . .
204(8) . . .
193(7) . . .
217(8) . . .
195(7) . . .
199(7) . . .
201(7) . . .
200(7) . . .
204(8) . . .
202(8) . . .
220(8) . . .
229(8) . . .
212(8) . . .
180(7) . . .
190(7) . . .
191(7) . . .
189(7) . . .
210(8) . . .
206(8) . . .
184(7) . . .
205(7) . . .
217(8) . . .
206(8) . . .
202(8) . . .
213(8) . . .
216(8) . . .
213(8) . . .
193(7) . . .
206(8) . . .
191(7) . . .
198(7) . . .
209(8) . . .
178(7) . . .
185(7) . . .
176(7) . . .
198(7) . . .
188(7) . . .
217(8) . . .
189(7) . . .
222(8) . . .
201(7) . . .
199(8) . . .
198(8) . . .
213(8) . . .
203(7) . . .
175(7) . . .
187(7) . . .
203(8) . . .
206(8) . . .
189(7) . . .
182(7) . . .
187(7) . . .
219(8) . . .
203(8) . . .
193(7) . . .
186(7) . . .
206(8) . . .
187(8) . . .
194(7) . . .
195(7) . . .
182(7) . . .
183(7) . . .
202(8) . . .
205(8) . . .
174(7) . . .
195(7) . . .
198(7) . . .
201(8) . . .
195(7) . . .
188(7) . . .
184(7) . . .
196(8) . . .
197(8) . . .
192(7) . . .
196(7) . . .
214(8) . . .
210(8) . . .
210(8) . . .
190(7) . . .
195(7) . . .
204(8) . . .
199(8) . . .
191(7) . . .
183(7) . . .
203(7) . . .
204(8) . . .
202(8) . . .
193(7) . . .
208(8) . . .
216(8) . . .
168(7) . . .
183(7) . . .
189(8) . . .
196(7) . . .
202(7) . . .
203(8) . . .
185(8) . . .
193(8) . . .
202(7) . . .
209(8) . . .
207(8) . . .
197(8) . . .
202(8) . . .
214(8) . . .
223(8) . . .
215(8) . . .
209(8) . . .
196(8) . . .
220(8) . . .
188(7) . . .
206(8) . . .
201(8) . . .
219(8) . . .
222(8) . . .
223(8) . . .
205(8) . . .
185(8) . . .
196(8) . . .
194(7) . . .
207(8) . . .
224(8) . . .
203(8) . . .
199(8) . . .
195(7) . . .
197(7) . . .
204(8) . . .
210(8) . . .
209(8) . . .
204(7) . . .
213(8) . . .
201(8) . . .
215(8) . . .
188(7) . . .
218(8) . . .
203(8) . . .
207(8) . . .
203(8) . . .
178(7) . . .
196(7) . . .
197(8) . . .
198(8) . . .
217(8) . . .
196(7) . . .
203(7) . . .
208(8) . . .
195(8) . . .
202(8) . . .
186(7) . . .
207(7) . . .
195(8) . . .
191(8) . . .
204(8) . . .
200(7) . . .
188(7) . . .
197(8) . . .
213(8) . . .
198(8) . . .
183(7) . . .
198(7) . . .
202(8) . . .
189(8) . . .
202(8) . . .
192(7) . . .
181(7) . . .
180(7) . . .
171(7) . . .
191(8) . . .
195(7) . . .
189(7) . . .
185(7) . . .
187(8) . . .
186(7) . . .
206(7) . . .
192(7) . . .
189(8) . . .
190(7) . . .
202(8) . . .
197(7) . . .
194(7) . . .
215(8) . . .
196(7) . . .
194(7) . . .
200(7) . . .
211(8) . . .
198(8) . . .
204(8) . . .
181(7) . . .
191(7) . . .
200(8) . . .
219(8) . . .
221(8) . . .
215(8) . . .
230(8) . . .
199(7) . . .
210(8) . . .
192(7) . . .
197(7) . . .
203(7) . . .
187(7) . . .
209(8) . . .
202(8) . . .
207(7) . . .
207(8) . . .
177(7) . . .
195(8) . . .
200(8) . . .
205(7) . . .
199(7) . . .
217(8) . . .
209(8) . . .
192(8) . . .
212(8) . . .
188(7) . . .
191(8) . . .
180(7) . . .
208(8) . . .
205(7) . . .
186(7) . . .
179(7) . . .
194(8) . . .
199(8) . . .
189(7) . . .
197(7) . . .
195(7) . . .
183(7) . . .
178(7) . . .
185(7) . . .
188(7) . . .
176(7) . . .
188(7) . . .
183(7) . . .
194(7) . . .
190(7) . . .
197(8) . . .
193(8) . . .
189(7) . . .
209(8) . . .
187(7) . . .
203(8) . . .
192(7) . . .
198(7) . . .
186(7) . . .
193(7) . . .
182(7) . . .
199(8) . . .
193(7) . . .
195(7) . . .
191(7) . . .
183(7) . . .
201(8) . . .
175(7) . . .
185(7) . . .
196(8) . . .
176(7) . . .
166(7) . . .
196(7) . . .
203(7) . . .
185(7) . . .
183(8) . . .
175(7) . . .
172(7) . . .
183(7) . . .
169(7) . . .
184(8) . . .
190(7) . . .
182(7) . . .
165(7) . . .
179(7) . . .
197(8) . . .
181(7) . . .
200(7) . . .
171(7) . . .
178(7) . . .
176(7) . . .
188(7) . . .
192(7) . . .
194(7) . . .
194(8) . . .
202(8) . . .
204(8) . . .
178(7) . . .
178(7) . . .
188(8) . . .
173(7) . . .
187(7) . . .
171(7) . . .
163(7) . . .
190(8) . . .
182(7) . . .
191(7) . . .
194(7) . . .
194(8) . . .
184(7) . . .
185(8) . . .
200(8) . . .
178(7) . . .
184(7) . . .
212(8) . . .
201(8) . . .
204(7) . . .
183(7) . . .
181(7) . . .
177(8) . . .
174(7) . . .
210(8) . . .
193(7) . . .
184(8) . . .
177(7) . . .
185(7) . . .
173(7) . . .
183(7) . . .
199(8) . . .
181(8) . . .
187(8) . . .
195(7) . . .
188(7) . . .
182(7) . . .
191(8) . . .
178(7) . . .
188(7) . . .
197(7) . . .
177(7) . . .
171(7) . . .
191(7) . . .
190(7) . . .
196(7) . . .
178(7) . . .
203(8) . . .
175(7) . . .
179(7) . . .
201(8) . . .
206(8) . . .
184(7) . . .
179(7) . . .
193(7) . . .
208(8) . . .
183(7) . . .
177(7) . . .
180(7) . . .
191(7) . . .
163(7) . . .
172(7) . . .
178(7) . . .
180(7) . . .
194(7) . . .
191(7) . . .
204(8) . . .
169(7) . . .
195(7) . . .
169(7) . . .
199(8) . . .
182(7) . . .
203(8) . . .
196(7) . . .
188(7) . . .
169(7) . . .
179(8) . . .
175(7) . . .
184(7) . . .
180(7) . . .
203(8) . . .
195(8) . . .
179(7) . . .
188(7) . . .
181(7) . . .
190(7) . . .
176(7) . . .
187(7) . . .
180(7) . . .
194(7) . . .
188(7) . . .
196(8) . . .
187(8) . . .
177(7) . . .
179(7) . . .
187(8) . . .
177(7) . . .
176(7) . . .
177(7) . . .
184(7) . . .
180(7) . . .
181(7) . . .
191(7) . . .
173(7) . . .
175(7) . . .
174(7) . . .
183(7) . . .
181(7) . . .
187(7) . . .
203(8) . . .
195(8) . . .
195(7) . . .
188(7) . . .
186(7) . . .
190(8) . . .
175(7) . . .
182(7) . . .
172(7) . . .
175(7) . . .
170(7) . . .
181(7) . . .
201(8) . . .
172(7) . . .
190(7) . . .
167(7) . . .
191(8) . . .
188(7) . . .
173(7) . . .
191(7) . . .
180(7) . . .
182(7) . . .
194(8) . . .
191(7) . . .
207(7) . . .
185(7) . . .
188(8) . . .
191(7) . . .
193(7) . . .
187(7) . . .
197(8) . . .
179(7) . . .
189(7) . . .
195(7) . . .
177(7) . . .
187(7) . . .
201(8) . . .
185(7) . . .
178(7) . . .
177(7) . . .
182(7) . . .
187(7) . . .
178(7) . . .
181(7) . . .
168(7) . . .
181(7) . . .
193(8) . . .
197(7) . . .
204(7) . . .
205(8) . . .
191(8) . . .
179(7) . . .
196(7) . . .
192(7) . . .
193(7) . . .
192(8) . . .
174(7) . . .
200(8) . . .
195(7) . . .
192(8) . . .
174(7) . . .
173(7) . . .
171(7) . . .
198(7) . . .
185(7) . . .
188(8) . . .
202(8) . . .
192(7) . . .
177(7) . . .
196(8) . . .
186(8) . . .
184(7) . . .
175(7) . . .
179(7) . . .
189(7) . . .
193(8) . . .
206(8) . . .
182(7) . . .
187(7) . . .
199(8) . . .
196(8) . . .
173(7) . . .
178(7) . . .
175(7) . . .
182(7) . . .
178(7) . . .
184(7) . . .
197(7) . . .
162(7) . . .
180(7) . . .
204(8) . . .
177(7) . . .
184(7) . . .
179(7) . . .
178(7) . . .
197(7) . . .
196(7) . . .
164(7) . . .
167(7) . . .
162(7) . . .
177(7) . . .
178(7) . . .
175(7) . . .
189(8) . . .
194(8) . . .
183(7) . . .
171(7) . . .
196(7) . . .
164(7) . . .
165(7) . . .
174(7) . . .
183(7) . . .
197(7) . . .
197(8) . . .
192(8) . . .
194(8) . . .
154(6) . . .
163(7) . . .
165(7) . . .
150(7) . . .
158(7) . . .
158(7) . . .
170(7) . . .
169(7) . . .
178(7) . . .
191(7) . . .
188(7) . . .
177(7) . . .
186(7) . . .
177(7) . . .
174(7) . . .
171(7) . . .
184(7) . . .
174(7) . . .
196(8) . . .
174(7) . . .
168(7) . . .
173(7) . . .
175(7) . . .
168(7) . . .
171(7) . . .
189(7) . . .
184(7) . . .
190(8) . . .
176(7) . . .
190(7) . . .
169(7) . . .
168(7) . . .
195(8) . . .
183(7) . . .
184(7) . . .
184(7) . . .
180(7) . . .
178(7) . . .
173(7) . . .
192(7) . . .
189(7) . . .
179(7) . . .
172(7) . . .
183(7) . . .
179(7) . . .
168(7) . . .
186(7) . . .
189(8) . . .
190(7) . . .
161(7) . . .
181(7) . . .
187(7) . . .
184(8) . . .
184(7) . . .
190(7) . . .
159(7) . . .
174(7) . . .
172(7) . . .
188(7) . . .
160(7) . . .
195(7) . . .
185(7) . . .
189(8) . . .
167(7) . . .
174(7) . . .
164(7) . . .
174(7) . . .
166(7) . . .
181(7) . . .
164(7) . . .
166(7) . . .
169(7) . . .
185(7) . . .
183(7) . . .
187(7) . . .
185(7) . . .
196(8) . . .
162(7) . . .
174(7) . . .
196(7) . . .
199(8) . . .
184(7) . . .
185(7) . . .
193(7) . . .
165(7) . . .
178(7) . . .
188(8) . . .
187(7) . . .
183(7) . . .
168(7) . . .
198(8) . . .
191(8) . . .
180(7) . . .
187(7) . . .
173(7) . . .
170(7) . . .
174(7) . . .
157(7) . . .
173(7) . . .
165(7) . . .
171(7) . . .
196(8) . . .
211(8) . . .
181(7) . . .
184(7) . . .
185(7) . . .
164(7) . . .
178(7) . . .
194(7) . . .
168(7) . . .
198(7) . . .
180(7) . . .
166(7) . . .
160(7) . . .
164(7) . . .
177(7) . . .
170(7) . . .
166(7) . . .
179(7) . . .
178(7) . . .
183(7) . . .
178(7) . . .
171(7) . . .
151(6) . . .
158(7) . . .
196(8) . . .
189(7) . . .
169(7) . . .
180(7) . . .
182(7) . . .
179(7) . . .
179(7) . . .
168(7) . . .
171(7) . . .
169(7) . . .
186(7) . . .
179(7) . . .
185(7) . . .
198(7) . . .
180(7) . . .
172(7) . . .
180(7) . . .
181(7) . . .
166(7) . . .
160(7) . . .
167(7) . . .
178(7) . . .
186(7) . . .
167(7) . . .
168(7) . . .
184(8) . . .
187(7) . . .
182(7) . . .
185(7) . . .
186(7) . . .
187(8) . . .
168(7) . . .
183(7) . . .
172(7) . . .
152(7) . . .
160(7) . . .
164(7) . . .
183(7) . . .
185(7) . . .
175(7) . . .
187(8) . . .
173(7) . . .
190(7) . . .
189(7) . . .
172(7) . . .
166(7) . . .
166(7) . . .
178(7) . . .
178(7) . . .
170(7) . . .
190(8) . . .
171(7) . . .
154(6) . . .
179(7) . . .
170(7) . . .
216(8) . . .
192(7) . . .
180(7) . . .
182(7) . . .
161(7) . . .
173(7) . . .
173(7) . . .
163(7) . . .
172(7) . . .
166(7) . . .
180(7) . . .
193(7) . . .
170(7) . . .
167(7) . . .
157(7) . . .
196(7) . . .
181(7) . . .
178(7) . . .
176(7) . . .
181(7) . . .
179(7) . . .
168(7) . . .
189(7) . . .
173(7) . . .
162(7) . . .
172(7) . . .
166(7) . . .
201(7) . . .
186(7) . . .
176(7) . . .
172(7) . . .
174(7) . . .
198(7) . . .
173(7) . . .
176(7) . . .
176(7) . . .
185(7) . . .
192(7) . . .
185(7) . . .
179(7) . . .
185(7) . . .
171(7) . . .
194(7) . . .
194(8) . . .
191(8) . . .
162(7) . . .
163(7) . . .
179(7) . . .
176(8) . . .
178(7) . . .
182(7) . . .
166(7) . . .
175(7) . . .
170(7) . . .
173(7) . . .
191(7) . . .
175(7) . . .
189(7) . . .
168(7) . . .
177(7) . . .
165(7) . . .
158(7) . . .
167(7) . . .
171(7) . . .
176(7) . . .
173(7) . . .
160(7) . . .
170(7) . . .
183(8) . . .
171(7) . . .
160(7) . . .
171(7) . . .
164(7) . . .
172(7) . . .
174(7) . . .
190(7) . . .
165(7) . . .
177(7) . . .
171(7) . . .
164(7) . . .
179(7) . . .
173(7) . . .
153(6) . . .
180(7) . . .
188(7) . . .
180(7) . . .
180(7) . . .
172(7) . . .
163(7) . . .
211(8) . . .
155(6) . . .
170(7) . . .
154(7) . . .
184(7) . . .
164(7) . . .
173(7) . . .
169(7) . . .
168(7) . . .
189(7) . . .
171(7) . . .
182(7) . . .
162(7) . . .
173(7) . . .
164(7) . . .
175(7) . . .
173(7) . . .
175(7) . . .
181(7) . . .
174(7) . . .
174(7) . . .
178(7) . . .
176(7) . . .
164(7) . . .
163(7) . . .
182(7) . . .
176(7) . . .
178(7) . . .
175(7) . . .
153(7) . . .
172(7) . . .
181(7) . . .
184(7) . . .
175(7) . . .
168(7) . . .
162(7) . . .
182(7) . . .
181(7) . . .
161(7) . . .
161(7) . . .
156(6) . . .
169(7) . . .
166(7) . . .
164(7) . . .
157(7) . . .
164(7) . . .
158(6) . . .
168(7) . . .
179(8) . . .
166(7) . . .
173(7) . . .
167(7) . . .
167(7) . . .
151(7) . . .
169(7) . . .
182(7) . . .
149(6) . . .
151(7) . . .
174(7) . . .
185(7) . . .
172(7) . . .
180(7) . . .
181(7) . . .
174(7) . . .
182(7) . . .
169(7) . . .
151(7) . . .
165(7) . . .
184(7) . . .
162(7) . . .
160(7) . . .
190(8) . . .
169(7) . . .
182(7) . . .
185(7) . . .
165(7) . . .
174(7) . . .
151(7) . . .
171(7) . . .
185(7) . . .
163(7) . . .
197(8) . . .
182(7) . . .
168(7) . . .
184(7) . . .
180(7) . . .
166(7) . . .
168(7) . . .
170(7) . . .
171(7) . . .
170(7) . . .
165(7) . . .
159(7) . . .
164(7) . . .
171(7) . . .
170(7) . . .
175(7) . . .
176(7) . . .
168(7) . . .
161(7) . . .
181(7) . . .
161(7) . . .
163(7) . . .
163(7) . . .
192(7) . . .
163(7) . . .
175(7) . . .
170(7) . . .
190(7) . . .
171(7) . . .
167(7) . . .
174(7) . . .
168(7) . . .
173(7) . . .
160(7) . . .
156(7) . . .
163(7) . . .
161(7) . . .
177(7) . . .
171(7) . . .
173(7) . . .
164(7) . . .
163(7) . . .
177(7) . . .
158(7) . . .
158(7) . . .
175(7) . . .
174(7) . . .
171(7) . . .
172(7) . . .
172(7) . . .
177(7) . . .
182(7) . . .
171(7) . . .
167(7) . . .
164(7) . . .
191(8) . . .
164(7) . . .
177(7) . . .
157(7) . . .
193(8) . . .
178(8) . . .
154(7) . . .
158(6) . . .
163(7) . . .
173(7) . . .
173(7) . . .
187(7) . . .
175(7) . . .
177(7) . . .
169(7) . . .
166(7) . . .
166(7) . . .
164(7) . . .
163(7) . . .
174(7) . . .
179(7) . . .
169(7) . . .
181(7) . . .
190(7) . . .
194(7) . . .
176(7) . . .
173(7) . . .
192(7) . . .
198(8) . . .
171(7) . . .
191(8) . . .
179(7) . . .
182(7) . . .
164(7) . . .
176(7) . . .
181(7) . . .
170(7) . . .
175(7) . . .
160(7) . . .
171(7) . . .
170(7) . . .
182(7) . . .
170(7) . . .
173(7) . . .
187(8) . . .
181(7) . . .
177(7) . . .
174(7) . . .
170(7) . . .
180(7) . . .
177(7) . . .
200(7) . . .
175(7) . . .
172(7) . . .
174(7) . . .
170(7) . . .
189(7) . . .
183(7) . . .
175(7) . . .
171(7) . . .
170(7) . . .
187(7) . . .
187(7) . . .
185(7) . . .
176(7) . . .
196(8) . . .
165(7) . . .
175(7) . . .
172(7) . . .
177(7) . . .
172(7) . . .
160(7) . . .
166(7) . . .
175(7) . . .
174(7) . . .
160(7) . . .
174(7) . . .
197(7) . . .
185(7) . . .
192(8) . . .
167(7) . . .
172(7) . . .
182(7) . . .
166(7) . . .
191(8) . . .
173(7) . . .
166(7) . . .
192(7) . . .
176(7) . . .
177(7) . . .
168(7) . . .
175(7) . . .
166(7) . . .
166(7) . . .
181(7) . . .
174(7) . . .
168(7) . . .
163(7) . . .
161(7) . . .
171(7) . . .
164(7) . . .
195(7) . . .
175(7) . . .
191(8) . . .
171(7) . . .
179(7) . . .
175(7) . . .
180(7) . . .
162(7) . . .
162(7) . . .
175(7) . . .
161(7) . . .
147(6) . . .
179(7) . . .
166(7) . . .
164(7) . . .
195(7) . . .
189(7) . . .
190(8) . . .
174(7) . . .
169(7) . . .
166(7) . . .
159(7) . . .
170(7) . . .
169(7) . . .
180(7) . . .
177(7) . . .
158(7) . . .
176(7) . . .
170(7) . . .
194(7) . . .
176(7) . . .
179(7) . . .
160(7) . . .
187(7) . . .
169(7) . . .
181(7) . . .
182(7) . . .
187(7) . . .
181(7) . . .
174(7) . . .
181(7) . . .
173(7) . . .
168(7) . . .
182(7) . . .
165(7) . . .
168(7) . . .
169(7) . . .
175(7) . . .
164(7) . . .
180(7) . . .
163(7) . . .
159(7) . . .
160(7) . . .
181(7) . . .
190(7) . . .
165(7) . . .
174(7) . . .
161(7) . . .
176(7) . . .
159(7) . . .
177(7) . . .
160(7) . . .
161(7) . . .
185(7) . . .
173(7) . . .
165(7) . . .
162(7) . . .
171(7) . . .
170(7) . . .
188(7) . . .
178(7) . . .
163(7) . . .
170(7) . . .
172(7) . . .
178(7) . . .
175(7) . . .
169(7) . . .
174(7) . . .
177(7) . . .
175(7) . . .
179(7) . . .
167(7) . . .
173(7) . . .
194(7) . . .
180(7) . . .
189(8) . . .
173(7) . . .
183(7) . . .
194(7) . . .
164(7) . . .
171(7) . . .
185(7) . . .
191(7) . . .
174(7) . . .
192(8) . . .
171(7) . . .
179(7) . . .
185(7) . . .
186(7) . . .
183(7) . . .
185(8) . . .
184(7) . . .
170(7) . . .
167(7) . . .
179(7) . . .
156(7) . . .
164(7) . . .
194(7) . . .
165(7) . . .
182(7) . . .
185(7) . . .
182(7) . . .
166(7) . . .
179(7) . . .
189(8) . . .
174(7) . . .
180(7) . . .
177(7) . . .
168(7) . . .
182(7) . . .
168(7) . . .
163(7) . . .
171(7) . . .
178(7) . . .
165(7) . . .
176(7) . . .
164(7) . . .
191(7) . . .
162(7) . . .
174(7) . . .
170(7) . . .
163(7) . . .
172(7) . . .
186(7) . . .
178(7) . . .
185(7) . . .
174(7) . . .
186(7) . . .
172(7) . . .
178(7) . . .
176(7) . . .
169(7) . . .
170(7) . . .
170(7) . . .
157(7) . . .
184(7) . . .
173(7) . . .
185(7) . . .
176(7) . . .
165(7) . . .
170(7) . . .
194(7) . . .
186(7) . . .
181(7) . . .
177(7) . . .
177(7) . . .
179(7) . . .
169(7) . . .
194(8) . . .
181(7) . . .
185(7) . . .
171(7) . . .
191(7) . . .
191(7) . . .
166(7) . . .
178(7) . . .
177(7) . . .
199(7) . . .
197(8) . . .
185(7) . . .
179(7) . . .
175(7) . . .
172(7) . . .
192(8) . . .
178(7) . . .
179(7) . . .
188(7) . . .
182(7) . . .
180(7) . . .
178(7) . . .
169(7) . . .
186(7) . . .
201(8) . . .
188(7) . . .
195(8) . . .
182(7) . . .
179(7) . . .
197(8) . . .
176(7) . . .
186(7) . . .
192(7) . . .
178(7) . . .
172(7) . . .
173(7) . . .
186(7) . . .
177(7) . . .
164(7) . . .
158(7) . . .
167(7) . . .
184(7) . . .
173(7) . . .
165(7) . . .
159(7) . . .
171(7) . . .
194(8) . . .
162(7) . . .
170(7) . . .
179(7) . . .
157(7) . . .
171(7) . . .
181(7) . . .
163(7) . . .
172(7) . . .
167(7) . . .
157(7) . . .
174(7) . . .
167(7) . . .
174(7) . . .
166(7) . . .
197(8) . . .
181(7) . . .
170(7) . . .
164(7) . . .
165(7) . . .
193(7) . . .
178(7) . . .
180(7) . . .
186(7) . . .
170(7) . . .
165(7) . . .
185(7) . . .
173(7) . . .
186(8) . . .
177(7) . . .
176(7) . . .
177(7) . . .
176(7) . . .
171(7) . . .
166(7) . . .
168(7) . . .
164(7) . . .
159(7) . . .
187(8) . . .
195(8) . . .
172(7) . . .
168(7) . . .
180(7) . . .
183(7) . . .
194(7) . . .
183(7) . . .
183(7) . . .
177(7) . . .
179(7) . . .
169(7) . . .
168(7) . . .
165(7) . . .
169(7) . . .
174(7) . . .
171(7) . . .
161(7) . . .
181(7) . . .
149(6) . . .
167(7) . . .
177(7) . . .
175(7) . . .
179(7) . . .
171(7) . . .
169(7) . . .
182(7) . . .
176(7) . . .
165(7) . . .
187(7) . . .
186(7) . . .
176(7) . . .
173(7) . . .
168(7) . . .
164(7) . . .
168(7) . . .
158(7) . . .
180(7) . . .
182(7) . . .
182(7) . . .
183(7) . . .
158(7) . . .
165(7) . . .
167(7) . . .
185(7) . . .
159(7) . . .
169(7) . . .
172(7) . . .
155(7) . . .
163(7) . . .
162(7) . . .
164(7) . . .
175(7) . . .
172(7) . . .
173(7) . . .
171(7) . . .
162(7) . . .
159(7) . . .
172(7) . . .
161(7) . . .
157(7) . . .
169(7) . . .
160(7) . . .
160(7) . . .
158(7) . . .
198(8) . . .
199(7) . . .
167(7) . . .
160(7) . . .
178(7) . . .
167(7) . . .
190(7) . . .
157(6) . . .
168(7) . . .
166(7) . . .
166(7) . . .
161(7) . . .
162(7) . . .
157(7) . . .
177(7) . . .
181(7) . . .
175(7) . . .
172(7) . . .
164(7) . . .
162(7) . . .
185(7) . . .
166(7) . . .
167(7) . . .
167(7) . . .
169(7) . . .
177(7) . . .
175(7) . . .
173(7) . . .
153(6) . . .
157(7) . . .
174(7) . . .
169(7) . . .
189(8) . . .
179(7) . . .
179(7) . . .
174(7) . . .
184(7) . . .
174(7) . . .
178(7) . . .
161(7) . . .
174(7) . . .
189(7) . . .
164(7) . . .
159(7) . . .
187(7) . . .
164(7) . . .
154(6) . . .
177(7) . . .
162(7) . . .
167(7) . . .
156(6) . . .
182(7) . . .
190(8) . . .
153(7) . . .
168(7) . . .
156(7) . . .
157(7) . . .
162(7) . . .
171(7) . . .
161(7) . . .
162(7) . . .
178(7) . . .
168(7) . . .
173(7) . . .
165(7) . . .
160(7) . . .
165(7) . . .
176(7) . . .
176(7) . . .
171(7) . . .
174(7) . . .
176(7) . . .
190(8) . . .
168(7) . . .
173(7) . . .
171(7) . . .
170(7) . . .
179(7) . . .
178(7) . . .
178(7) . . .
165(7) . . .
174(7) . . .
170(7) . . .
166(7) . . .
169(7) . . .
175(7) . . .
176(7) . . .
160(7) . . .
185(7) . . .
189(7) . . .
155(6) . . .
169(7) . . .
164(7) . . .
184(7) . . .
195(7) . . .
172(7) . . .
168(7) . . .
175(7) . . .
168(7) . . .
168(7) . . .
165(7) . . .
163(7) . . .
171(7) . . .
181(7) . . .
154(6) . . .
156(6) . . .
168(7) . . .
175(7) . . .
180(7) . . .
183(7) . . .
175(7) . . .
187(7) . . .
177(7) . . .
180(7) . . .
180(7) . . .
186(7) . . .
192(8) . . .
171(7) . . .
171(7) . . .
164(7) . . .
160(7) . . .
164(7) . . .
154(7) . . .
163(7) . . .
192(7) . . .
177(7) . . .
160(7) . . .
164(7) . . .
159(7) . . .
163(7) . . .
154(7) . . .
171(7) . . .
178(7) . . .
163(7) . . .
181(7) . . .
186(7) . . .
176(7) . . .
174(7) . . .
171(7) . . .
171(7) . . .
174(7) . . .
155(7) . . .
162(7) . . .
167(7) . . .
174(7) . . .
155(7) . . .
158(7) . . .
182(7) . . .
162(7) . . .
146(6) . . .
169(7) . . .
173(7) . . .
182(7) . . .
164(7) . . .
154(6) . . .
147(6) . . .
166(7) . . .
188(7) . . .
161(7) . . .
156(7) . . .
154(7) . . .
170(7) . . .
163(7) . . .
152(6) . . .
173(7) . . .
182(7) . . .
171(7) . . .
178(7) . . .
182(7) . . .
181(7) . . .
178(7) . . .
167(7) . . .
156(7) . . .
163(7) . . .
172(7) . . .
179(7) . . .
175(7) . . .
164(7) . . .
159(7) . . .
180(7) . . .
174(7) . . .
188(8) . . .
178(7) . . .
156(6) . . .
180(7) . . .
187(8) . . .
172(7) . . .
164(7) . . .
168(7) . . .
177(7) . . .
178(8) . . .
149(7) . . .
176(7) . . .
171(7) . . .
171(7) . . .
158(7) . . .
162(7) . . .
142(6) . . .
158(7) . . .
171(7) . . .
174(7) . . .
178(7) . . .
167(7) . . .
159(7) . . .
184(7) . . .
168(7) . . .
171(7) . . .
177(7) . . .
186(7) . . .
168(7) . . .
168(7) . . .
170(7) . . .
177(7) . . .
200(8) . . .
196(8) . . .
167(7) . . .
187(7) . . .
193(7) . . .
177(7) . . .
178(7) . . .
180(7) . . .
178(7) . . .
171(7) . . .
187(7) . . .
178(7) . . .
170(7) . . .
145(6) . . .
170(7) . . .
173(7) . . .
159(7) . . .
170(7) . . .
169(7) . . .
162(7) . . .
161(7) . . .
165(7) . . .
167(7) . . .
174(7) . . .
145(6) . . .
185(7) . . .
162(7) . . .
159(7) . . .
182(7) . . .
169(7) . . .
172(7) . . .
162(7) . . .
166(7) . . .
159(6) . . .
160(7) . . .
178(7) . . .
170(7) . . .
167(7) . . .
183(7) . . .
174(7) . . .
152(7) . . .
159(7) . . .
172(7) . . .
174(7) . . .
152(6) . . .
171(7) . . .
173(7) . . .
171(7) . . .
178(7) . . .
174(7) . . .
159(7) . . .
160(7) . . .
179(7) . . .
195(7) . . .
175(7) . . .
180(7) . . .
150(7) . . .
153(7) . . .
166(7) . . .
184(7) . . .
174(7) . . .
172(7) . . .
162(7) . . .
175(7) . . .
169(7) . . .
172(7) . . .
144(6) . . .
161(7) . . .
157(7) . . .
189(7) . . .
181(7) . . .
176(7) . . .
153(6) . . .
148(6) . . .
170(7) . . .
148(7) . . .
161(7) . . .
168(7) . . .
182(7) . . .
157(7) . . .
173(7) . . .
162(7) . . .
177(7) . . .
179(7) . . .
166(7) . . .
178(8) . . .
176(7) . . .
169(7) . . .
167(7) . . .
169(7) . . .
162(7) . . .
166(7) . . .
195(7) . . .
176(7) . . .
168(7) . . .
154(7) . . .
145(6) . . .
164(7) . . .
168(7) . . .
169(7) . . .
170(7) . . .
177(7) . . .
164(7) . . .
189(7) . . .
189(7) . . .
172(7) . . .
156(7) . . .
168(7) . . .
189(7) . . .
170(7) . . .
176(7) . . .
186(7) . . .
176(7) . . .
163(7) . . .
161(7) . . .
171(7) . . .
176(7) . . .
152(6) . . .
172(7) . . .
163(7) . . .
148(6) . . .
174(7) . . .
187(7) . . .
178(7) . . .
171(7) . . .
156(7) . . .
150(6) . . .
162(7) . . .
165(7) . . .
188(8) . . .
162(7) . . .
170(7) . . .
175(7) . . .
180(7) . . .
161(7) . . .
171(7) . . .
157(7) . . .
172(7) . . .
179(7) . . .
172(7) . . .
185(7) . . .
172(7) . . .
173(7) . . .
166(7) . . .
155(7) . . .
171(7) . . .
156(6) . . .
169(7) . . .
176(7) . . .
168(7) . . .
178(7) . . .
189(7) . . .
164(7) . . .
185(7) . . .
195(8) . . .
178(7) . . .
176(7) . . .
185(7) . . .
195(7) . . .
164(7) . . .
152(7) . . .
153(6) . . .
173(7) . . .
173(7) . . .
172(7) . . .
164(7) . . .
165(7) . . .
179(7) . . .
167(7) . . .
177(7) . . .
197(7) . . .
181(7) . . .
172(7) . . .
170(7) . . .
168(7) . . .
179(7) . . .
167(7) . . .
157(7) . . .
165(7) . . .
186(7) . . .
161(7) . . .
148(6) . . .
175(7) . . .
161(7) . . .
158(7) . . .
157(6) . . .
179(7) . . .
174(7) . . .
178(7) . . .
162(7) . . .
174(7) . . .
183(7) . . .
172(7) . . .
173(7) . . .
188(8) . . .
150(6) . . .
141(6) . . .
183(7) . . .
181(7) . . .
156(7) . . .
178(7) . . .
175(7) . . .
176(7) . . .
182(7) . . .
176(7) . . .
160(7) . . .
181(7) . . .
168(7) . . .
163(7) . . .
155(7) . . .
171(7) . . .
195(7) . . .
171(7) . . .
171(7) . . .
173(7) . . .
152(6) . . .
160(7) . . .
180(8) . . .
164(7) . . .
176(7) . . .
186(7) . . .
151(6) . . .
166(7) . . .
169(7) . . .
170(7) . . .
162(7) . . .
139(6) . . .
161(7) . . .
165(7) . . .
172(7) . . .
155(6) . . .
166(7) . . .
165(7) . . .
169(7) . . .
170(7) . . .
167(7) . . .
170(7) . . .
155(7) . . .
170(7) . . .
155(6) . . .
176(7) . . .
156(7) . . .
173(7) . . .
169(7) . . .
177(7) . . .
189(7) . . .
152(7) . . .
181(8) . . .
191(8) . . .
171(7) . . .
175(7) . . .
170(7) . . .
170(7) . . .
159(7) . . .
174(7) . . .
168(7) . . .
165(7) . . .
167(7) . . .
164(7) . . .
182(7) . . .
169(7) . . .
174(7) . . .
175(7) . . .
168(7) . . .
151(6) . . .
164(7) . . .
162(7) . . .
163(7) . . .
175(7) . . .
159(7) . . .
167(7) . . .
182(7) . . .
182(7) . . .
167(7) . . .
165(7) . . .
169(7) . . .
167(7) . . .
177(7) . . .
163(7) . . .
170(7) . . .
169(7) . . .
177(7) . . .
175(7) . . .
169(7) . . .
177(7) . . .
153(7) . . .
141(7) . . .
157(7) . . .
173(7) . . .
162(7) . . .
168(7) . . .
156(7) . . .
159(7) . . .
147(6) . . .
154(7) . . .
163(7) . . .
146(6) . . .
171(7) . . .
152(6) . . .
175(7) . . .
180(7) . . .
182(7) . . .
170(7) . . .
156(6) . . .
161(7) . . .
147(7) . . .
171(7) . . .
168(7) . . .
161(7) . . .
165(7) . . .
162(7) . . .
159(7) . . .
171(7) . . .
171(7) . . .
179(7) . . .
165(7) . . .
166(7) . . .
162(7) . . .
155(7) . . .
155(7) . . .
158(7) . . .
180(7) . . .
191(7) . . .
173(7) . . .
172(7) . . .
165(7) . . .
181(7) . . .
163(7) . . .
157(7) . . .
166(7) . . .
147(7) . . .
153(7) . . .
166(7) . . .
164(7) . . .
156(7) . . .
166(7) . . .
175(7) . . .
166(7) . . .
169(7) . . .
170(7) . . .
162(7) . . .
165(7) . . .
191(7) . . .
184(7) . . .
168(7) . . .
171(7) . . .
166(7) . . .
165(7) . . .
181(7) . . .
170(7) . . .
167(7) . . .
174(7) . . .
169(7) . . .
177(7) . . .
175(7) . . .
173(7) . . .
164(7) . . .
172(7) . . .
172(7) . . .
167(7) . . .
155(7) . . .
164(7) . . .
165(7) . . .
172(7) . . .
167(7) . . .
149(6) . . .
153(6) . . .
157(7) . . .
164(7) . . .
161(7) . . .
160(7) . . .
168(7) . . .
161(7) . . .
173(7) . . .
176(7) . . .
184(7) . . .
178(7) . . .
156(6) . . .
168(7) . . .
159(7) . . .
162(7) . . .
171(7) . . .
161(7) . . .
156(7) . . .
167(7) . . .
158(7) . . .
176(7) . . .
167(7) . . .
168(7) . . .
170(7) . . .
172(7) . . .
164(7) . . .
160(7) . . .
159(7) . . .
180(7) . . .
158(7) . . .
171(7) . . .
165(7) . . .
179(7) . . .
166(7) . . .
176(7) . . .
161(7) . . .
168(7) . . .
148(6) . . .
176(7) . . .
148(7) . . .
149(6) . . .
159(7) . . .
153(7) . . .
156(7) . . .
166(7) . . .
143(6) . . .
175(7) . . .
158(7) . . .
144(6) . . .
163(7) . . .
173(7) . . .
159(7) . . .
159(7) . . .
152(7) . . .
161(7) . . .
169(7) . . .
178(7) . . .
165(7) . . .
158(7) . . .
163(7) . . .
155(6) . . .
163(7) . . .
174(7) . . .
170(7) . . .
150(6) . . .
158(6) . . .
167(7) . . .
161(7) . . .
161(7) . . .
164(7) . . .
160(7) . . .
155(7) . . .
168(8) . . .
157(7) . . .
160(7) . . .
159(7) . . .
164(7) . . .
160(7) . . .
163(7) . . .
182(7) . . .
175(7) . . .
169(7) . . .
153(7) . . .
177(7) . . .
175(7) . . .
160(7) . . .
168(7) . . .
153(7) . . .
161(7) . . .
176(7) . . .
180(7) . . .
171(7) . . .
152(7) . . .
156(7) . . .
172(7) . . .
152(7) . . .
155(7) . . .
166(7) . . .
150(6) . . .
146(6) . . .
154(6) . . .
170(7) . . .
153(7) . . .
151(7) . . .
154(6) . . .
140(6) . . .
157(7) . . .
156(7) . . .
147(6) . . .
150(6) . . .
179(7) . . .
165(7) . . .
148(6) . . .
161(7) . . .
170(7) . . .
133(6) . . .
163(7) . . .
141(6) . . .
157(7) . . .
160(7) . . .
165(7) . . .
165(7) . . .
165(7) . . .
164(7) . . .
140(6) . . .
169(7) . . .
166(7) . . .
159(7) . . .
159(7) . . .
178(7) . . .
177(7) . . .
163(7) . . .
166(7) . . .
170(7) . . .
163(7) . . .
181(7) . . .
157(7) . . .
164(7) . . .
182(7) . . .
189(7) . . .
172(7) . . .
159(7) . . .
160(7) . . .
167(7) . . .
172(7) . . .
162(7) . . .
168(7) . . .
160(7) . . .
160(7) . . .
154(7) . . .
168(7) . . .
181(7) . . .
179(7) . . .
130(6) . . .
152(7) . . .
164(7) . . .
183(7) . . .
158(7) . . .
153(6) . . .
169(7) . . .
160(7) . . .
159(7) . . .
172(7) . . .
166(7) . . .
167(7) . . .
161(7) . . .
161(7) . . .
181(7) . . .
181(7) . . .
161(7) . . .
178(7) . . .
177(7) . . .
168(7) . . .
149(6) . . .
152(7) . . .
175(8) . . .
162(7) . . .
153(6) . . .
161(7) . . .
159(7) . . .
169(7) . . .
152(7) . . .
175(7) . . .
197(7) . . .
167(7) . . .
161(7) . . .
162(7) . . .
149(6) . . .
159(7) . . .
168(7) . . .
163(7) . . .
172(7) . . .
174(7) . . .
165(7) . . .
152(7) . . .
170(7) . . .
149(6) . . .
155(6) . . .
164(7) . . .
144(6) . . .
165(7) . . .
161(7) . . .
169(7) . . .
174(7) . . .
168(7) . . .
171(7) . . .
179(7) . . .
165(7) . . .
159(7) . . .
167(7) . . .
156(7) . . .
169(7) . . .
170(7) . . .
163(7) . . .
165(7) . . .
165(7) . . .
163(7) . . .
142(6) . . .
172(7) . . .
178(7) . . .
176(7) . . .
173(7) . . .
172(7) . . .
155(7) . . .
148(7) . . .
152(7) . . .
153(6) . . .
157(6) . . .
174(7) . . .
149(7) . . .
179(7) . . .
182(7) . . .
165(7) . . .
161(7) . . .
167(7) . . .
175(7) . . .
167(7) . . .
174(7) . . .
174(7) . . .
161(7) . . .
160(7) . . .
148(6) . . .
152(6) . . .
175(7) . . .
160(7) . . .
153(7) . . .
171(7) . . .
169(7) . . .
165(7) . . .
185(7) . . .
160(7) . . .
158(6) . . .
164(7) . . .
164(7) . . .
174(7) . . .
161(7) . . .
164(7) . . .
159(7) . . .
175(7) . . .
170(7) . . .
172(7) . . .
171(7) . . .
176(7) . . .
176(7) . . .
149(6) . . .
166(7) . . .
148(6) . . .
143(6) . . .
167(7) . . .
165(7) . . .
158(7) . . .
168(7) . . .
149(6) . . .
173(7) . . .
154(6) . . .
171(7) . . .
158(7) . . .
176(7) . . .
171(7) . . .
164(7) . . .
159(7) . . .
159(7) . . .
162(7) . . .
175(7) . . .
171(7) . . .
176(7) . . .
178(7) . . .
168(7) . . .
161(7) . . .
167(7) . . .
171(7) . . .
146(6) . . .
181(7) . . .
154(7) . . .
177(7) . . .
161(7) . . .
162(7) . . .
167(7) . . .
159(7) . . .
153(7) . . .
167(7) . . .
156(7) . . .
173(7) . . .
171(7) . . .
168(7) . . .
163(7) . . .
150(7) . . .
165(7) . . .
155(6) . . .
178(7) . . .
164(7) . . .
171(7) . . .
177(7) . . .
168(7) . . .
158(7) . . .
164(7) . . .
176(7) . . .
163(7) . . .
140(6) . . .
152(6) . . .
160(7) . . .
169(7) . . .
162(7) . . .
164(7) . . .
167(7) . . .
154(6) . . .
163(7) . . .
174(7) . . .
182(7) . . .
171(7) . . .
148(6) . . .
172(7) . . .
151(7) . . .
169(7) . . .
154(6) . . .
145(6) . . .
160(7) . . .
174(7) . . .
168(7) . . .
170(7) . . .
161(7) . . .
143(6) . . .
166(7) . . .
178(7) . . .
137(6) . . .
161(7) . . .
171(7) . . .
162(7) . . .
148(7) . . .
152(6) . . .
157(7) . . .
160(7) . . .
165(7) . . .
177(7) . . .
169(7) . . .
168(7) . . .
176(7) . . .
159(7) . . .
158(7) . . .
150(6) . . .
154(7) . . .
152(7) . . .
167(7) . . .
181(7) . . .
168(7) . . .
158(7) . . .
168(7) . . .
144(6) . . .
148(6) . . .
159(7) . . .
161(7) . . .
154(7) . . .
157(7) . . .
168(7) . . .
148(6) . . .
155(7) . . .
174(8) . . .
162(7) . . .
169(7) . . .
147(6) . . .
161(7) . . .
145(7) . . .
152(7) . . .
160(7) . . .
165(7) . . .
163(7) . . .
171(7) . . .
166(7) . . .
159(7) . . .
190(7) . . .
159(7) . . .
158(7) . . .
159(7) . . .
162(7) . . .
159(7) . . .
173(7) . . .
175(7) . . .
155(7) . . .
156(6) . . .
159(7) . . .
169(7) . . .
150(7) . . .
166(7) . . .
164(7) . . .
169(7) . . .
152(7) . . .
149(7) . . .
174(7) . . .
166(7) . . .
165(7) . . .
174(7) . . .
153(7) . . .
163(7) . . .
151(6) . . .
167(7) . . .
161(7) . . .
166(7) . . .
163(7) . . .
158(7) . . .
178(7) . . .
153(7) . . .
163(7) . . .
166(7) . . .
157(7) . . .
152(7) . . .
160(7) . . .
161(7) . . .
138(6) . . .
150(6) . . .
161(7) . . .
165(7) . . .
158(7) . . .
168(7) . . .
157(6) . . .
158(7) . . .
161(7) . . .
152(7) . . .
160(7) . . .
170(7) . . .
159(7) . . .
166(7) . . .
145(6) . . .
167(7) . . .
148(6) . . .
149(6) . . .
154(7) . . .
160(7) . . .
162(7) . . .
147(6) . . .
167(7) . . .
159(7) . . .
151(6) . . .
172(7) . . .
168(7) . . .
152(7) . . .
158(7) . . .
151(7) . . .
162(7) . . .
166(7) . . .
145(6) . . .
149(7) . . .
149(6) . . .
144(6) . . .
167(7) . . .
148(7) . . .
169(7) . . .
162(7) . . .
161(7) . . .
141(6) . . .
175(8) . . .
163(7) . . .
148(6) . . .
163(7) . . .
179(8) . . .
161(7) . . .
152(7) . . .
169(7) . . .
163(7) . . .
171(7) . . .
160(7) . . .
165(7) . . .
159(7) . . .
152(6) . . .
160(7) . . .
172(7) . . .
160(7) . . .
162(7) . . .
151(7) . . .
171(7) . . .
163(7) . . .
174(7) . . .
149(6) . . .
160(7) . . .
147(7) . . .
162(7) . . .
156(7) . . .
187(7) . . .
162(7) . . .
172(7) . . .
155(7) . . .
151(6) . . .
168(7) . . .
165(7) . . .
162(7) . . .
157(7) . . .
178(7) . . .
171(7) . . .
170(7) . . .
159(7) . . .
167(7) . . .
178(7) . . .
174(7) . . .
168(7) . . .
171(7) . . .
165(7) . . .
176(7) . . .
160(7) . . .
171(7) . . .
148(7) . . .
161(7) . . .
172(7) . . .
155(7) . . .
175(7) . . .
159(7) . . .
174(7) . . .
154(7) . . .
167(7) . . .
158(7) . . .
170(7) . . .
159(7) . . .
154(6) . . .
140(6) . . .
178(7) . . .
176(7) . . .
158(7) . . .
134(6) . . .
151(6) . . .
165(7) . . .
149(7) . . .
164(7) . . .
154(6) . . .
158(7) . . .
149(6) . . .
151(7) . . .
181(7) . . .
163(7) . . .
165(7) . . .
168(7) . . .
153(7) . . .
149(6) . . .
170(7) . . .
165(7) . . .
154(7) . . .
149(7) . . .
159(7) . . .
151(6) . . .
147(7) . . .
152(7) . . .
163(7) . . .
149(6) . . .
175(7) . . .
152(7) . . .
136(6) . . .
154(7) . . .
170(7) . . .
169(7) . . .
160(7) . . .
155(7) . . .
172(7) . . .
140(6) . . .
169(7) . . .
158(7) . . .
165(7) . . .
184(8) . . .
139(6) . . .
149(6) . . .
157(7) . . .
156(7) . . .
165(7) . . .
162(7) . . .
138(6) . . .
161(7) . . .
160(7) . . .
182(7) . . .
161(7) . . .
153(7) . . .
155(7) . . .
169(7) . . .
155(7) . . .
157(6) . . .
165(7) . . .
148(7) . . .
160(7) . . .
162(7) . . .
149(6) . . .
172(7) . . .
168(7) . . .
168(7) . . .
150(7) . . .
175(7) . . .
167(7) . . .
152(7) . . .
165(7) . . .
153(6) . . .
162(7) . . .
163(7) . . .
165(7) . . .
158(7) . . .
166(7) . . .
147(6) . . .
150(7) . . .
168(7) . . .
171(7) . . .
167(7) . . .
161(7) . . .
163(7) . . .
152(7) . . .
158(7) . . .
145(6) . . .
161(7) . . .
151(7) . . .
143(7) . . .
142(7) . . .
141(6) . . .
174(7) . . .
146(6) . . .
154(7) . . .
142(7) . . .
158(7) . . .
147(6) . . .
180(7) . . .
166(7) . . .
173(7) . . .
174(7) . . .
169(7) . . .
165(7) . . .
151(7) . . .
161(7) . . .
151(6) . . .
145(6) . . .
145(6) . . .
157(7) . . .
168(7) . . .
159(7) . . .
157(6) . . .
167(7) . . .
163(7) . . .
168(7) . . .
145(6) . . .
168(7) . . .
179(7) . . .
159(7) . . .
143(6) . . .
145(6) . . .
157(7) . . .
140(6) . . .
158(7) . . .
146(6) . . .
174(7) . . .
174(7) . . .
156(7) . . .
159(7) . . .
169(7) . . .
154(6) . . .
145(7) . . .
157(7) . . .
159(7) . . .
161(7) . . .
159(7) . . .
158(7) . . .
148(7) . . .
166(7) . . .
170(7) . . .
168(7) . . .
163(7) . . .
150(7) . . .
157(7) . . .
180(7) . . .
168(7) . . .
145(7) . . .
155(7) . . .
142(6) . . .
144(6) . . .
137(6) . . .
146(6) . . .
150(7) . . .
141(6) . . .
171(7) . . .
146(6) . . .
150(7) . . .
159(7) . . .
151(6) . . .
160(7) . . .
150(7) . . .
146(6) . . .
154(7) . . .
150(6) . . .
138(6) . . .
164(7) . . .
158(7) . . .
153(7) . . .
153(7) . . .
155(6) . . .
137(6) . . .
157(7) . . .
134(6) . . .
157(7) . . .
144(6) . . .
158(7) . . .
148(7) . . .
149(7) . . .
158(7) . . .
151(6) . . .
172(7) . . .
161(7) . . .
149(7) . . .
151(6) . . .
158(7) . . .
156(7) . . .
145(6) . . .
146(6) . . .
172(7) . . .
158(6) . . .
161(7) . . .
156(7) . . .
145(6) . . .
164(7) . . .
141(6) . . .
160(7) . . .
159(7) . . .
137(6) . . .
166(7) . . .
171(7) . . .
151(6) . . .
157(7) . . .
154(7) . . .
160(7) . . .
153(6) . . .
158(7) . . .
180(7) . . .
160(7) . . .
167(7) . . .
160(7) . . .
166(7) . . .
156(7) . . .
151(7) . . .
156(7) . . .
169(7) . . .
151(6) . . .
154(7) . . .
159(7) . . .
159(6) . . .
141(6) . . .
147(6) . . .
156(7) . . .
147(6) . . .
181(7) . . .
179(7) . . .
177(7) . . .
159(7) . . .
149(6) . . .
138(6) . . .
144(6) . . .
177(7) . . .
167(7) . . .
172(7) . . .
155(6) . . .
176(7) . . .
157(7) . . .
154(7) . . .
158(7) . . .
155(6) . . .
148(6) . . .
157(7) . . .
163(7) . . .
160(7) . . .
154(6) . . .
168(7) . . .
162(7) . . .
160(7) . . .
155(7) . . .
162(7) . . .
162(7) . . .
168(7) . . .
142(6) . . .
165(7) . . .
157(6) . . .
159(7) . . .
168(7) . . .
151(7) . . .
150(6) . . .
153(7) . . .
151(7) . . .
153(7) . . .
162(7) . . .
158(6) . . .
157(7) . . .
154(7) . . .
160(7) . . .
145(6) . . .
153(6) . . .
158(7) . . .
161(7) . . .
168(7) . . .
156(6) . . .
149(6) . . .
180(7) . . .
160(7) . . .
159(7) . . .
159(7) . . .
164(7) . . .
167(7) . . .
164(7) . . .
181(7) . . .
154(6) . . .
152(6) . . .
139(6) . . .
162(7) . . .
183(7) . . .
171(7) . . .
157(7) . . .
146(7) . . .
169(7) . . .
161(7) . . .
141(6) . . .
131(6) . . .
157(7) . . .
151(7) . . .
176(7) . . .
141(6) . . .
159(7) . . .
155(7) . . .
161(7) . . .
163(7) . . .
152(6) . . .
168(7) . . .
143(6) . . .
137(6) . . .
163(7) . . .
137(6) . . .
156(7) . . .
161(7) . . .
174(7) . . .
177(7) . . .
156(6) . . .
165(7) . . .
154(7) . . .
149(7) . . .
149(7) . . .
134(6) . . .
169(7) . . .
161(7) . . .
158(7) . . .
163(7) . . .
161(7) . . .
146(6) . . .
144(7) . . .
178(7) . . .
160(7) . . .
167(7) . . .
159(7) . . .
154(7) . . .
143(6) . . .
148(6) . . .
147(6) . . .
153(7) . . .
166(7) . . .
166(7) . . .
162(7) . . .
137(6) . . .
147(6) . . .
156(7) . . .
153(7) . . .
164(7) . . .
163(7) . . .
148(6) . . .
150(7) . . .
141(6) . . .
142(6) . . .
154(6) . . .
171(7) . . .
150(7) . . .
166(7) . . .
148(6) . . .
158(7) . . .
147(6) . . .
135(6) . . .
148(7) . . .
157(6) . . .
156(7) . . .
153(7) . . .
164(7) . . .
156(7) . . .
153(6) . . .
147(6) . . .
166(7) . . .
166(7) . . .
139(6) . . .
146(6) . . .
158(7) . . .
165(7) . . .
156(7) . . .
144(6) . . .
171(7) . . .
156(7) . . .
173(7) . . .
152(7) . . .
143(6) . . .
156(7) . . .
145(6) . . .
159(7) . . .
164(7) . . .
147(6) . . .
150(6) . . .
174(7) . . .
152(7) . . .
172(7) . . .
159(7) . . .
176(7) . . .
147(6) . . .
153(7) . . .
146(7) . . .
152(7) . . .
161(7) . . .
156(7) . . .
164(7) . . .
166(7) . . .
145(6) . . .
149(6) . . .
146(6) . . .
165(7) . . .
157(7) . . .
140(6) . . .
160(7) . . .
165(7) . . .
163(7) . . .
146(6) . . .
146(6) . . .
160(7) . . .
146(6) . . .
153(7) . . .
148(6) . . .
161(7) . . .
150(6) . . .
146(6) . . .
161(7) . . .
173(7) . . .
169(7) . . .
162(7) . . .
178(7) . . .
147(6) . . .
159(7) . . .
144(6) . . .
147(7) . . .
142(6) . . .
149(6) . . .
162(7) . . .
168(7) . . .
148(6) . . .
143(6) . . .
147(7) . . .
152(6) . . .
135(6) . . .
155(7) . . .
152(7) . . .
157(7) . . .
150(6) . . .
162(7) . . .
147(7) . . .
155(7) . . .
172(7) . . .
146(6) . . .
159(7) . . .
138(6) . . .
144(7) . . .
154(7) . . .
145(6) . . .
155(6) . . .
149(6) . . .
146(7) . . .
134(6) . . .
160(7) . . .
169(7) . . .
154(7) . . .
151(7) . . .
154(7) . . .
162(7) . . .
180(7) . . .
152(6) . . .
163(7) . . .
154(7) . . .
164(7) . . .
160(7) . . .
158(7) . . .
138(6) . . .
145(6) . . .
157(6) . . .
153(6) . . .
165(7) . . .
152(7) . . .
137(6) . . .
143(6) . . .
121(6) . . .
151(7) . . .
142(7) . . .
148(6) . . .
168(7) . . .
153(7) . . .
141(7) . . .
148(7) . . .
178(7) . . .
156(6) . . .
162(7) . . .
149(7) . . .
153(7) . . .
133(6) . . .
138(6) . . .
148(6) . . .
165(7) . . .
151(7) . . .
147(6) . . .
165(7) . . .
162(7) . . .
149(7) . . .
164(7) . . .
141(6) . . .
150(6) . . .
155(7) . . .
145(7) . . .
138(6) . . .
144(6) . . .
153(7) . . .
148(6) . . .
141(6) . . .
159(7) . . .
151(6) . . .
155(6) . . .
158(7) . . .
151(7) . . .
127(6) . . .
164(7) . . .
137(6) . . .
138(6) . . .
139(6) . . .
152(7) . . .
150(6) . . .
161(7) . . .
159(7) . . .
133(6) . . .
143(6) . . .
148(6) . . .
143(6) . . .
151(7) . . .
150(7) . . .
139(6) . . .
162(7) . . .
158(7) . . .
151(6) . . .
154(6) . . .
147(6) . . .
148(6) . . .
168(7) . . .
146(7) . . .
132(6) . . .
153(6) . . .
149(6) . . .
138(6) . . .
151(7) . . .
158(7) . . .
140(6) . . .
157(6) . . .
140(6) . . .
150(7) . . .
165(7) . . .
151(6) . . .
156(6) . . .
151(7) . . .
153(7) . . .
149(7) . . .
125(6) . . .
150(6) . . .
150(7) . . .
155(7) . . .
155(7) . . .
152(6) . . .
152(6) . . .
142(7) . . .
159(7) . . .
147(7) . . .
163(7) . . .
146(6) . . .
140(6) . . .
153(7) . . .
158(7) . . .
152(6) . . .
167(7) . . .
150(7) . . .
144(6) . . .
150(6) . . .
161(7) . . .
136(6) . . .
148(7) . . .
145(6) . . .
158(7) . . .
144(6) . . .
154(7) . . .
137(6) . . .
147(6) . . .
162(7) . . .
137(6) . . .
136(6) . . .
161(7) . . .
151(7) . . .
156(7) . . .
134(6) . . .
135(6) . . .
132(6) . . .
130(6) . . .
158(7) . . .
162(7) . . .
171(7) . . .
163(7) . . .
146(6) . . .
137(6) . . .
130(6) . . .
153(7) . . .
159(7) . . .
145(7) . . .
161(7) . . .
154(6) . . .
154(7) . . .
164(7) . . .
162(7) . . .
156(6) . . .
146(6) . . .
163(7) . . .
133(6) . . .
150(7) . . .
135(6) . . .
158(7) . . .
144(6) . . .
136(6) . . .
148(7) . . .
146(6) . . .
137(6) . . .
138(6) . . .
143(6) . . .
168(7) . . .
147(6) . . .
157(7) . . .
141(6) . . .
152(7) . . .
146(6) . . .
156(6) . . .
120(6) . . .
137(7) . . .
141(6) . . .
134(6) . . .
144(6) . . .
144(7) . . .
139(6) . . .
158(7) . . .
147(6) . . .
141(6) . . .
141(6) . . .
148(7) . . .
163(7) . . .
157(6) . . .
163(7) . . .
152(7) . . .
145(7) . . .
155(7) . . .
150(6) . . .
145(6) . . .
163(7) . . .
137(6) . . .
161(7) . . .
159(7) . . .
142(6) . . .
148(7) . . .
156(7) . . .
148(6) . . .
149(6) . . .
140(6) . . .
153(7) . . .
172(7) . . .
152(7) . . .
147(6) . . .
141(6) . . .
136(6) . . .
143(6) . . .
140(6) . . .
123(6) . . .
149(6) . . .
139(6) . . .
145(6) . . .
158(7) . . .
152(6) . . .
153(6) . . .
154(7) . . .
139(6) . . .
143(6) . . .
167(7) . . .
158(7) . . .
164(7) . . .
144(6) . . .
151(7) . . .
154(6) . . .
151(7) . . .
152(7) . . .
148(6) . . .
144(6) . . .
148(6) . . .
150(6) . . .
163(7) . . .
148(6) . . .
158(7) . . .
136(6) . . .
151(7) . . .
139(6) . . .
141(6) . . .
131(6) . . .
151(6) . . .
136(6) . . .
140(7) . . .
154(7) . . .
137(6) . . .
127(6) . . .
147(6) . . .
146(7) . . .
152(7) . . .
155(6) . . .
143(6) . . .
142(6) . . .
142(7) . . .
142(6) . . .
156(6) . . .
143(6) . . .
137(6) . . .
160(7) . . .
136(6) . . .
141(6) . . .
150(6) . . .
132(6) . . .
145(7) . . .
145(7) . . .
136(6) . . .
128(6) . . .
124(6) . . .
139(7) . . .
124(6) . . .
144(6) . . .
152(7) . . .
140(6) . . .
152(7) . . .
152(7) . . .
151(6) . . .
146(6) . . .
134(6) . . .
158(7) . . .
143(6) . . .
133(6) . . .
141(6) . . .
138(6) . . .
157(7) . . .
150(6) . . .
143(6) . . .
145(6) . . .
141(7) . . .
128(6) . . .
140(6) . . .
144(6) . . .
133(6) . . .
142(7) . . .
152(7) . . .
149(6) . . .
141(6) . . .
156(7) . . .
141(7) . . .
141(6) . . .
133(6) . . .
149(6) . . .
144(7) . . .
147(7) . . .
134(6) . . .
150(6) . . .
141(6) . . .
151(6) . . .
147(7) . . .
163(7) . . .
144(6) . . .
135(6) . . .
148(7) . . .
134(6) . . .
137(6) . . .
140(6) . . .
150(6) . . .
138(6) . . .
160(7) . . .
142(6) . . .
152(6) . . .
143(7) . . .
158(7) . . .
146(7) . . .
152(7) . . .
134(6) . . .
136(6) . . .
141(7) . . .
153(7) . . .
148(7) . . .
163(7) . . .
140(7) . . .
145(7) . . .
128(6) . . .
133(6) . . .
128(6) . . .
153(7) . . .
164(7) . . .
131(6) . . .
128(6) . . .
146(6) . . .
163(7) . . .
137(6) . . .
137(6) . . .
135(6) . . .
147(6) . . .
144(7) . . .
135(6) . . .
142(6) . . .
146(6) . . .
150(6) . . .
150(7) . . .
150(7) . . .
162(7) . . .
149(6) . . .
162(7) . . .
162(7) . . .
161(7) . . .
144(6) . . .
137(6) . . .
165(7) . . .
151(7) . . .
145(7) . . .
156(7) . . .
162(7) . . .
153(7) . . .
148(7) . . .
146(7) . . .
128(6) . . .
149(6) . . .
148(6) . . .
149(7) . . .
165(7) . . .
148(7) . . .
120(6) . . .
134(6) . . .
162(7) . . .
158(7) . . .
141(6) . . .
158(7) . . .
164(7) . . .
165(7) . . .
156(7) . . .
145(6) . . .
161(7) . . .
150(7) . . .
168(7) . . .
163(7) . . .
161(7) . . .
139(6) . . .
161(7) . . .
143(6) . . .
150(6) . . .
154(6) . . .
165(7) . . .
155(7) . . .
134(6) . . .
149(7) . . .
157(7) . . .
153(6) . . .
150(6) . . .
149(7) . . .
139(6) . . .
166(7) . . .
155(6) . . .
150(7) . . .
144(7) . . .
141(6) . . .
144(6) . . .
148(6) . . .
143(6) . . .
169(7) . . .
161(7) . . .
176(7) . . .
131(6) . . .
134(6) . . .
147(7) . . .
138(6) . . .
150(6) . . .
149(6) . . .
154(7) . . .
146(6) . . .
154(6) . . .
156(6) . . .
140(6) . . .
142(6) . . .
148(7) . . .
156(7) . . .
146(6) . . .
157(7) . . .
147(7) . . .
149(7) . . .
141(6) . . .
141(6) . . .
149(6) . . .
143(6) . . .
144(6) . . .
147(6) . . .
146(6) . . .
141(6) . . .
145(7) . . .
146(7) . . .
133(6) . . .
141(6) . . .
159(7) . . .
140(6) . . .
145(6) . . .
154(7) . . .
145(6) . . .
145(7) . . .
148(7) . . .
160(7) . . .
136(6) . . .
133(6) . . .
148(7) . . .
150(7) . . .
141(6) . . .
148(6) . . .
151(6) . . .
147(6) . . .
152(7) . . .
156(7) . . .
140(6) . . .
147(6) . . .
141(6) . . .
157(7) . . .
163(7) . . .
148(6) . . .
132(6) . . .
151(7) . . .
136(6) . . .
153(7) . . .
148(6) . . .
148(7) . . .
155(7) . . .
144(6) . . .
144(6) . . .
153(6) . . .
152(7) . . .
135(6) . . .
132(6) . . .
145(6) . . .
165(7) . . .
148(7) . . .
146(6) . . .
149(6) . . .
132(6) . . .
154(6) . . .
122(6) . . .
136(6) . . .
133(6) . . .
156(6) . . .
146(6) . . .
142(7) . . .
155(7) . . .
146(6) . . .
159(7) . . .
149(6) . . .
158(7) . . .
157(7) . . .
175(7) . . .
157(7) . . .
168(7) . . .
159(7) . . .
137(6) . . .
146(7) . . .
133(6) . . .
141(6) . . .
136(6) . . .
152(7) . . .
145(6) . . .
163(7) . . .
151(6) . . .
146(7) . . .
142(7) . . .
139(6) . . .
136(6) . . .
155(7) . . .
154(7) . . .
150(7) . . .
152(7) . . .
157(7) . . .
140(6) . . .
153(7) . . .
136(6) . . .
148(6) . . .
126(6) . . .
154(7) . . .
133(6) . . .
143(6) . . .
148(6) . . .
139(6) . . .
151(7) . . .
156(7) . . .
142(6) . . .
145(6) . . .
146(6) . . .
156(7) . . .
144(6) . . .
153(7) . . .
151(7) . . .
160(7) . . .
155(7) . . .
159(7) . . .
128(6) . . .
143(6) . . .
157(7) . . .
142(6) . . .
147(7) . . .
151(7) . . .
139(6) . . .
151(6) . . .
155(7) . . .
144(7) . . .
150(7) . . .
154(6) . . .
143(6) . . .
151(7) . . .
142(7) . . .
137(6) . . .
141(6) . . .
136(6) . . .
139(6) . . .
140(7) . . .
131(6) . . .
165(7) . . .
151(6) . . .
140(6) . . .
145(7) . . .
157(7) . . .
147(6) . . .
138(6) . . .
155(7) . . .
152(7) . . .
136(6) . . .
137(6) . . .
138(6) . . .
143(7) . . .
143(7) . . .
153(7) . . .
153(6) . . .
153(7) . . .
166(7) . . .
146(6) . . .
135(6) . . .
140(6) . . .
152(7) . . .
149(7) . . .
146(6) . . .
149(6) . . .
148(6) . . .
161(7) . . .
128(6) . . .
137(6) . . .
140(6) . . .
148(6) . . .
151(7) . . .
157(7) . . .
139(6) . . .
143(6) . . .
139(6) . . .
133(6) . . .
147(7) . . .
169(7) . . .
143(6) . . .
130(6) . . .
156(7) . . .
141(7) . . .
130(6) . . .
139(6) . . .
141(6) . . .
131(6) . . .
152(7) . . .
144(7) . . .
154(6) . . .
140(6) . . .
147(7) . . .
149(7) . . .
127(6) . . .
150(6) . . .
143(7) . . .
125(6) . . .
139(6) . . .
140(6) . . .
139(6) . . .
133(6) . . .
121(6) . . .
134(7) . . .
132(6) . . .
138(6) . . .
137(6) . . .
140(6) . . .
149(7) . . .
129(6) . . .
134(6) . . .
136(6) . . .
148(7) . . .
157(7) . . .
138(6) . . .
156(6) . . .
138(6) . . .
141(7) . . .
145(6) . . .
149(6) . . .
139(6) . . .
158(7) . . .
149(7) . . .
151(7) . . .
152(6) . . .
138(6) . . .
144(6) . . .
143(7) . . .
144(6) . . .
142(6) . . .
150(6) . . .
129(6) . . .
153(7) . . .
134(6) . . .
126(6) . . .
142(6) . . .
134(6) . . .
153(7) . . .
145(7) . . .
140(6) . . .
134(6) . . .
146(7) . . .
148(7) . . .
136(6) . . .
118(6) . . .
141(6) . . .
138(6) . . .
137(6) . . .
143(6) . . .
139(6) . . .
133(6) . . .
130(6) . . .
133(6) . . .
144(6) . . .
149(6) . . .
157(7) . . .
152(7) . . .
139(6) . . .
151(6) . . .
139(6) . . .
140(6) . . .
140(7) . . .
129(6) . . .
135(6) . . .
150(6) . . .
137(6) . . .
132(6) . . .
128(6) . . .
149(6) . . .
141(6) . . .
145(6) . . .
142(6) . . .
143(6) . . .
150(6) . . .
135(6) . . .
155(7) . . .
139(6) . . .
156(7) . . .
130(6) . . .
143(6) . . .
131(6) . . .
131(6) . . .
137(6) . . .
128(6) . . .
142(6) . . .
136(6) . . .
133(6) . . .
129(6) . . .
149(6) . . .
145(6) . . .
147(7) . . .
148(7) . . .
127(7) . . .
131(6) . . .
145(6) . . .
135(6) . . .
134(6) . . .
130(6) . . .
131(6) . . .
116(6) . . .
132(6) . . .
140(6) . . .
132(6) . . .
136(6) . . .
133(6) . . .
133(6) . . .
123(6) . . .
133(6) . . .
126(6) . . .
147(7) . . .
125(6) . . .
138(6) . . .
148(6) . . .
128(6) . . .
145(7) . . .
153(7) . . .
136(6) . . .
134(6) . . .
137(6) . . .
141(6) . . .
156(7) . . .
132(6) . . .
149(6) . . .
132(6) . . .
137(6) . . .
149(7) . . .
145(6) . . .
153(6) . . .
148(6) . . .
143(7) . . .
132(6) . . .
142(6) . . .
147(6) . . .
130(6) . . .
130(6) . . .
140(6) . . .
147(6) . . .
143(6) . . .
144(6) . . .
140(7) . . .
139(7) . . .
150(7) . . .
140(6) . . .
141(6) . . .
138(6) . . .
139(6) . . .
135(6) . . .
134(6) . . .
125(6) . . .
127(6) . . .
145(7) . . .
151(6) . . .
141(6) . . .
144(6) . . .
135(6) . . .
139(6) . . .
124(6) . . .
136(6) . . .
140(6) . . .
133(6) . . .
136(6) . . .
141(6) . . .
148(6) . . .
128(6) . . .
152(7) . . .
144(6) . . .
154(7) . . .
134(6) . . .
128(6) . . .
150(7) . . .
132(6) . . .
151(6) . . .
130(6) . . .
124(6) . . .
151(7) . . .
151(7) . . .
127(6) . . .
136(6) . . .
150(7) . . .
136(6) . . .
143(7) . . .
129(6) . . .
142(6) . . .
137(6) . . .
136(7) . . .
124(6) . . .
130(6) . . .
124(6) . . .
138(6) . . .
118(6) . . .
144(6) . . .
141(6) . . .
134(6) . . .
129(6) . . .
137(6) . . .
142(6) . . .
134(6) . . .
142(6) . . .
147(7) . . .
162(7) . . .
148(6) . . .
130(6) . . .
146(6) . . .
131(6) . . .
145(7) . . .
133(6) . . .
147(6) . . .
137(6) . . .
138(6) . . .
135(6) . . .
145(6) . . .
140(6) . . .
142(6) . . .
132(6) . . .
131(6) . . .
137(6) . . .
152(6) . . .
127(6) . . .
124(6) . . .
125(6) . . .
151(7) . . .
125(6) . . .
128(6) . . .
136(6) . . .
151(7) . . .
146(6) . . .
135(6) . . .
129(6) . . .
132(7) . . .
129(6) . . .
132(6) . . .
132(6) . . .
135(6) . . .
127(6) . . .
132(6) . . .
145(6) . . .
157(7) . . .
150(7) . . .
145(7) . . .
139(6) . . .
139(6) . . .
136(6) . . .
119(6) . . .
139(6) . . .
134(6) . . .
139(6) . . .
155(7) . . .
160(7) . . .
131(6) . . .
144(6) . . .
139(6) . . .
139(6) . . .
148(7) . . .
136(6) . . .
150(6) . . .
145(6) . . .
140(6) . . .
136(6) . . .
134(6) . . .
140(6) . . .
127(6) . . .
138(6) . . .
131(6) . . .
134(6) . . .
142(6) . . .
139(6) . . .
144(7) . . .
131(6) . . .
145(6) . . .
150(6) . . .
155(6) . . .
133(6) . . .
134(6) . . .
146(7) . . .
137(6) . . .
125(6) . . .
153(7) . . .
144(7) . . .
138(6) . . .
141(6) . . .
139(6) . . .
149(7) . . .
121(6) . . .
131(6) . . .
136(6) . . .
137(6) . . .
138(6) . . .
128(6) . . .
127(6) . . .
133(6) . . .
150(6) . . .
149(7) . . .
139(6) . . .
149(7) . . .
136(6) . . .
123(6) . . .
141(7) . . .
117(6) . . .
137(6) . . .
127(6) . . .
133(6) . . .
147(7) . . .
144(7) . . .
131(6) . . .
135(6) . . .
137(6) . . .
139(6) . . .
132(6) . . .
142(6) . . .
139(6) . . .
113(6) . . .
131(6) . . .
133(6) . . .
137(6) . . .
137(6) . . .
124(6) . . .
134(6) . . .
163(7) . . .
139(6) . . .
144(6) . . .
132(6) . . .
135(7) . . .
138(6) . . .
162(7) . . .
137(6) . . .
131(6) . . .
132(7) . . .
144(7) . . .
127(6) . . .
136(6) . . .
137(6) . . .
126(6) . . .
120(6) . . .
140(6) . . .
144(6) . . .
138(6) . . .
146(7) . . .
132(6) . . .
128(6) . . .
142(6) . . .
132(6) . . .
131(6) . . .
157(7) . . .
147(6) . . .
142(6) . . .
131(6) . . .
126(6) . . .
146(7) . . .
130(6) . . .
123(6) . . .
130(6) . . .
135(6) . . .
130(6) . . .
131(6) . . .
149(7) . . .
129(6) . . .
153(7) . . .
143(6) . . .
146(6) . . .
123(6) . . .
137(6) . . .
152(7) . . .
133(6) . . .
127(6) . . .
137(6) . . .
161(7) . . .
135(6) . . .
128(6) . . .
133(6) . . .
123(6) . . .
123(6) . . .
131(6) . . .
152(6) . . .
126(6) . . .
136(6) . . .
151(7) . . .
148(6) . . .
140(6) . . .
135(6) . . .
130(6) . . .
144(7) . . .
140(6) . . .
133(6) . . .
156(7) . . .
138(6) . . .
128(6) . . .
126(6) . . .
132(6) . . .
131(6) . . .
140(6) . . .
138(6) . . .
136(6) . . .
142(6) . . .
146(6) . . .
148(6) . . .
134(6) . . .
142(6) . . .
132(6) . . .
125(6) . . .
139(6) . . .
135(6) . . .
133(6) . . .
137(6) . . .
136(6) . . .
143(7) . . .
135(6) . . .
137(6) . . .
134(6) . . .
145(7) . . .
141(6) . . .
137(6) . . .
131(6) . . .
133(6) . . .
137(6) . . .
131(6) . . .
134(6) . . .
131(6) . . .
136(6) . . .
150(7) . . .
130(6) . . .
140(6) . . .
136(6) . . .
137(6) . . .
129(6) . . .
148(7) . . .
133(6) . . .
150(7) . . .
136(6) . . .
147(7) . . .
134(7) . . .
122(6) . . .
120(6) . . .
129(6) . . .
116(6) . . .
124(6) . . .
150(7) . . .
140(6) . . .
147(7) . . .
120(6) . . .
131(7) . . .
139(6) . . .
145(6) . . .
132(6) . . .
129(6) . . .
131(6) . . .
125(6) . . .
119(6) . . .
122(6) . . .
135(6) . . .
135(6) . . .
125(6) . . .
144(6) . . .
141(6) . . .
145(7) . . .
131(6) . . .
126(6) . . .
124(6) . . .
132(6) . . .
116(6) . . .
123(6) . . .
115(6) . . .
122(6) . . .
140(6) . . .
132(6) . . .
126(6) . . .
118(6) . . .
124(6) . . .
135(6) . . .
128(6) . . .
128(6) . . .
138(6) . . .
138(6) . . .
142(6) . . .
131(6) . . .
122(6) . . .
123(6) . . .
140(6) . . .
127(6) . . .
140(7) . . .
141(6) . . .
142(6) . . .
134(6) . . .
154(7) . . .
149(7) . . .
139(6) . . .
130(6) . . .
125(6) . . .
120(6) . . .
137(7) . . .
142(6) . . .
139(6) . . .
155(7) . . .
137(6) . . .
126(6) . . .
143(7) . . .
139(6) . . .
128(6) . . .
122(6) . . .
113(6) . . .
141(6) . . .
154(6) . . .
136(6) . . .
128(6) . . .
121(6) . . .
138(6) . . .
134(6) . . .
122(6) . . .
144(7) . . .
140(6) . . .
142(6) . . .
136(6) . . .
144(6) . . .
122(6) . . .
114(6) . . .
134(6) . . .
141(6) . . .
116(6) . . .
133(7) . . .
127(6) . . .
134(6) . . .
147(6) . . .
123(6) . . .
111(6) . . .
127(6) . . .
142(6) . . .
151(6) . . .
161(7) . . .
143(7) . . .
137(6) . . .
122(6) . . .
151(6) . . .
137(6) . . .
126(6) . . .
130(6) . . .
125(6) . . .
133(6) . . .
129(6) . . .
145(7) . . .
136(6) . . .
124(6) . . .
137(6) . . .
142(6) . . .
130(6) . . .
139(7) . . .
136(6) . . .
125(6) . . .
119(6) . . .
133(6) . . .
120(6) . . .
129(6) . . .
144(6) . . .
134(6) . . .
144(6) . . .
136(6) . . .
124(6) . . .
116(6) . . .
133(6) . . .
141(7) . . .
142(6) . . .
127(6) . . .
141(6) . . .
138(6) . . .
131(6) . . .
138(6) . . .
146(6) . . .
144(7) . . .
151(7) . . .
139(6) . . .
113(6) . . .
126(6) . . .
134(6) . . .
150(7) . . .
149(7) . . .
115(6) . . .
119(6) . . .
142(7) . . .
128(6) . . .
139(6) . . .
130(6) . . .
119(6) . . .
150(7) . . .
132(6) . . .
143(6) . . .
141(6) . . .
131(6) . . .
133(6) . . .
134(6) . . .
137(6) . . .
136(6) . . .
133(6) . . .
130(6) . . .
138(7) . . .
132(6) . . .
146(6) . . .
129(6) . . .
133(6) . . .
112(6) . . .
118(6) . . .
130(6) . . .
128(6) . . .
132(6) . . .
150(7) . . .
137(6) . . .
139(6) . . .
126(6) . . .
137(6) . . .
138(6) . . .
120(6) . . .
129(6) . . .
126(6) . . .
122(6) . . .
129(6) . . .
124(6) . . .
143(6) . . .
141(6) . . .
141(7) . . .
129(6) . . .
130(6) . . .
123(6) . . .
130(6) . . .
131(6) . . .
125(6) . . .
128(6) . . .
145(6) . . .
137(6) . . .
147(7) . . .
122(6) . . .
106(5) . . .
130(6) . . .
143(7) . . .
136(7) . . .
135(6) . . .
153(6) . . .
136(6) . . .
135(6) . . .
143(7) . . .
131(6) . . .
133(6) . . .
142(6) . . .
144(7) . . .
131(6) . . .
132(6) . . .
118(6) . . .
126(6) . . .
145(7) . . .
126(6) . . .
120(6) . . .
133(6) . . .
135(6) . . .
127(6) . . .
136(6) . . .
141(6) . . .
141(6) . . .
132(6) . . .
133(6) . . .
147(7) . . .
133(6) . . .
120(6) . . .
149(6) . . .
125(6) . . .
122(6) . . .
132(6) . . .
124(6) . . .
119(6) . . .
129(6) . . .
140(7) . . .
132(6) . . .
130(6) . . .
138(6) . . .
135(6) . . .
134(6) . . .
121(6) . . .
130(6) . . .
132(6) . . .
130(6) . . .
139(6) . . .
134(6) . . .
130(6) . . .
128(6) . . .
135(6) . . .
127(6) . . .
149(6) . . .
135(6) . . .
146(6) . . .
142(7) . . .
124(6) . . .
126(6) . . .
144(6) . . .
140(6) . . .
145(7) . . .
130(6) . . .
129(6) . . .
127(6) . . .
131(6) . . .
119(6) . . .
126(6) . . .
117(6) . . .
149(7) . . .
131(6) . . .
126(6) . . .
147(7) . . .
133(6) . . .
134(6) . . .
151(7) . . .
148(7) . . .
144(6) . . .
129(6) . . .
149(6) . . .
124(6) . . .
119(6) . . .
141(6) . . .
128(6) . . .
132(6) . . .
140(6) . . .
129(6) . . .
122(6) . . .
121(6) . . .
132(6) . . .
129(6) . . .
120(6) . . .
119(6) . . .
130(6) . . .
128(6) . . .
122(6) . . .
125(6) . . .
134(6) . . .
153(6) . . .
128(6) . . .
131(6) . . .
133(6) . . .
125(6) . . .
139(6) . . .
141(6) . . .
122(6) . . .
123(6) . . .
121(6) . . .
109(5) . . .
116(6) . . .
132(7) . . .
121(6) . . .
112(5) . . .
130(6) . . .
123(6) . . .
128(6) . . .
141(7) . . .
127(6) . . .
142(6) . . .
123(6) . . .
133(6) . . .
132(6) . . .
128(6) . . .
124(6) . . .
130(6) . . .
128(6) . . .
135(6) . . .
147(6) . . .
127(6) . . .
125(6) . . .
136(7) . . .
119(6) . . .
131(6) . . .
114(6) . . .
120(6) . . .
128(6) . . .
121(6) . . .
124(6) . . .
136(6) . . .
139(7) . . .
136(6) . . .
123(6) . . .
131(6) . . .
141(6) . . .
135(6) . . .
123(6) . . .
131(6) . . .
130(6) . . .
135(6) . . .
121(6) . . .
120(6) . . .
140(6) . . .
144(6) . . .
134(6) . . .
128(6) . . .
124(6) . . .
134(6) . . .
118(6) . . .
135(6) . . .
126(6) . . .
127(6) . . .
140(6) . . .
137(6) . . .
132(6) . . .
139(6) . . .
118(6) . . .
142(6) . . .
140(6) . . .
127(6) . . .
129(6) . . .
134(6) . . .
134(6) . . .
128(6) . . .
139(6) . . .
134(6) . . .
133(6) . . .
128(6) . . .
132(6) . . .
146(7) . . .
140(6) . . .
118(6) . . .
132(6) . . .
126(6) . . .
154(7) . . .
132(6) . . .
136(6) . . .
126(6) . . .
148(7) . . .
138(7) . . .
117(6) . . .
121(6) . . .
118(6) . . .
141(7) . . .
141(7) . . .
138(6) . . .
129(6) . . .
130(6) . . .
148(7) . . .
137(6) . . .
130(6) . . .
131(6) . . .
143(6) . . .
141(6) . . .
132(6) . . .
127(6) . . .
134(6) . . .
133(6) . . .
120(6) . . .
124(6) . . .
131(6) . . .
121(6) . . .
133(6) . . .
145(6) . . .
132(6) . . .
128(6) . . .
110(5) . . .
132(6) . . .
140(6) . . .
132(6) . . .
146(6) . . .
136(6) . . .
130(6) . . .
133(6) . . .
142(7) . . .
147(6) . . .
136(6) . . .
127(6) . . .
130(6) . . .
139(6) . . .
128(6) . . .
126(6) . . .
122(6) . . .
127(6) . . .
136(6) . . .
128(6) . . .
133(6) . . .
120(6) . . .
115(6) . . .
141(7) . . .
135(6) . . .
124(6) . . .
123(6) . . .
131(6) . . .
147(7) . . .
140(6) . . .
133(6) . . .
135(6) . . .
124(6) . . .
138(6) . . .
130(6) . . .
122(6) . . .
120(6) . . .
130(6) . . .
140(6) . . .
118(6) . . .
124(6) . . .
117(6) . . .
127(6) . . .
124(6) . . .
129(6) . . .
131(6) . . .
143(7) . . .
126(6) . . .
140(7) . . .
140(6) . . .
116(6) . . .
114(6) . . .
129(6) . . .
128(6) . . .
132(6) . . .
127(6) . . .
131(6) . . .
122(6) . . .
133(6) . . .
134(6) . . .
132(6) . . .
148(7) . . .
142(6) . . .
134(6) . . .
123(6) . . .
131(6) . . .
125(6) . . .
121(6) . . .
124(6) . . .
115(6) . . .
135(6) . . .
135(6) . . .
131(6) . . .
135(6) . . .
144(6) . . .
132(6) . . .
143(7) . . .
129(6) . . .
127(6) . . .
140(6) . . .
126(6) . . .
131(6) . . .
129(6) . . .
135(6) . . .
129(6) . . .
109(6) . . .
144(7) . . .
150(7) . . .
132(6) . . .
138(6) . . .
138(6) . . .
137(7) . . .
145(6) . . .
122(6) . . .
113(6) . . .
131(6) . . .
132(6) . . .
116(6) . . .
137(6) . . .
121(6) . . .
130(6) . . .
133(6) . . .
126(6) . . .
139(6) . . .
142(6) . . .
129(6) . . .
120(6) . . .
123(6) . . .
148(6) . . .
123(6) . . .
125(6) . . .
132(6) . . .
143(6) . . .
130(6) . . .
126(6) . . .
108(5) . . .
134(6) . . .
132(6) . . .
137(6) . . .
122(6) . . .
129(6) . . .
141(6) . . .
140(6) . . .
119(6) . . .
124(6) . . .
112(6) . . .
114(6) . . .
145(6) . . .
138(6) . . .
123(6) . . .
134(6) . . .
104(5) . . .
121(6) . . .
132(6) . . .
133(6) . . .
119(6) . . .
126(6) . . .
126(6) . . .
128(6) . . .
127(6) . . .
130(6) . . .
147(6) . . .
134(6) . . .
136(6) . . .
150(7) . . .
126(6) . . .
130(6) . . .
126(6) . . .
124(6) . . .
135(6) . . .
129(6) . . .
124(6) . . .
126(6) . . .
125(6) . . .
138(6) . . .
125(6) . . .
133(6) . . .
133(6) . . .
124(6) . . .
136(6) . . .
127(6) . . .
119(6) . . .
139(6) . . .
131(6) . . .
123(6) . . .
120(6) . . .
129(6) . . .
134(6) . . .
131(6) . . .
142(7) . . .
120(6) . . .
131(6) . . .
138(6) . . .
114(6) . . .
124(6) . . .
139(6) . . .
132(6) . . .
114(6) . . .
109(6) . . .
123(6) . . .
122(6) . . .
115(6) . . .
119(6) . . .
124(6) . . .
133(6) . . .
113(6) . . .
110(6) . . .
131(6) . . .
117(6) . . .
121(6) . . .
136(6) . . .
111(6) . . .
115(6) . . .
146(7) . . .
129(6) . . .
129(6) . . .
134(6) . . .
126(6) . . .
128(6) . . .
131(6) . . .
108(6) . . .
132(6) . . .
135(6) . . .
124(6) . . .
134(6) . . .
141(6) . . .
127(6) . . .
115(6) . . .
130(6) . . .
136(6) . . .
112(6) . . .
120(6) . . .
120(6) . . .
120(6) . . .
119(6) . . .
118(6) . . .
139(6) . . .
124(6) . . .
137(6) . . .
131(6) . . .
125(6) . . .
136(6) . . .
138(6) . . .
118(6) . . .
118(6) . . .
126(6) . . .
118(6) . . .
131(6) . . .
138(6) . . .
136(6) . . .
132(6) . . .
119(6) . . .
120(6) . . .
122(6) . . .
125(6) . . .
126(6) . . .
122(6) . . .
122(6) . . .
118(6) . . .
120(6) . . .
114(6) . . .
133(6) . . .
124(6) . . .
126(6) . . .
128(6) . . .
127(6) . . .
135(6) . . .
125(6) . . .
121(6) . . .
124(6) . . .
117(6) . . .
131(6) . . .
115(6) . . .
128(6) . . .
128(6) . . .
128(6) . . .
140(6) . . .
133(6) . . .
120(6) . . .
139(6) . . .
147(6) . . .
140(6) . . .
126(6) . . .
117(6) . . .
139(6) . . .
129(6) . . .
132(6) . . .
133(6) . . .
141(7) . . .
124(6) . . .
119(6) . . .
129(6) . . .
120(6) . . .
133(6) . . .
131(6) . . .
123(6) . . .
115(6) . . .
113(6) . . .
114(6) . . .
132(6) . . .
130(6) . . .
125(6) . . .
125(6) . . .
128(6) . . .
130(6) . . .
127(6) . . .
122(6) . . .
125(6) . . .
124(6) . . .
138(6) . . .
137(6) . . .
126(6) . . .
126(6) . . .
118(6) . . .
146(6) . . .
130(6) . . .
141(6) . . .
127(6) . . .
116(6) . . .
115(6) . . .
125(6) . . .
123(6) . . .
132(6) . . .
123(6) . . .
141(6) . . .
130(6) . . .
129(6) . . .
122(6) . . .
116(6) . . .
123(6) . . .
129(6) . . .
132(6) . . .
137(6) . . .
126(6) . . .
115(6) . . .
117(6) . . .
116(6) . . .
131(6) . . .
119(6) . . .
134(6) . . .
124(6) . . .
135(6) . . .
121(6) . . .
141(6) . . .
129(6) . . .
131(6) . . .
137(7) . . .
122(6) . . .
110(5) . . .
112(6) . . .
137(6) . . .
124(6) . . .
136(6) . . .
118(6) . . .
127(6) . . .
121(6) . . .
118(6) . . .
110(5) . . .
118(6) . . .
121(6) . . .
135(6) . . .
119(6) . . .
133(6) . . .
120(6) . . .
122(6) . . .
126(6) . . .
118(6) . . .
120(6) . . .
135(6) . . .
126(6) . . .
117(6) . . .
123(6) . . .
134(6) . . .
135(6) . . .
124(6) . . .
131(6) . . .
132(6) . . .
122(6) . . .
136(6) . . .
127(6) . . .
146(7) . . .
123(6) . . .
134(6) . . .
133(6) . . .
123(6) . . .
119(6) . . .
121(6) . . .
125(6) . . .
133(6) . . .
124(6) . . .
127(6) . . .
119(6) . . .
118(6) . . .
122(6) . . .
126(6) . . .
118(6) . . .
118(6) . . .
125(6) . . .
126(6) . . .
137(6) . . .
127(6) . . .
115(6) . . .
147(6) . . .
121(6) . . .
117(6) . . .
121(6) . . .
127(6) . . .
142(6) . . .
128(6) . . .
133(6) . . .
108(6) . . .
133(6) . . .
121(6) . . .
130(6) . . .
128(6) . . .
122(6) . . .
119(6) . . .
124(6) . . .
128(6) . . .
123(6) . . .
127(6) . . .
137(6) . . .
143(6) . . .
133(6) . . .
135(6) . . .
131(6) . . .
126(6) . . .
114(6) . . .
120(6) . . .
113(6) . . .
121(6) . . .
111(6) . . .
125(6) . . .
120(6) . . .
137(7) . . .
114(6) . . .
118(6) . . .
110(5) . . .
121(6) . . .
122(6) . . .
113(6) . . .
126(6) . . .
120(6) . . .
137(6) . . .
116(6) . . .
132(6) . . .
148(6) . . .
113(6) . . .
115(6) . . .
109(6) . . .
119(6) . . .
138(6) . . .
114(5) . . .
115(6) . . .
121(6) . . .
131(6) . . .
136(6) . . .
126(6) . . .
110(5) . . .
112(6) . . .
130(6) . . .
125(6) . . .
125(6) . . .
123(6) . . .
116(6) . . .
119(6) . . .
115(6) . . .
125(6) . . .
110(6) . . .
128(6) . . .
148(7) . . .
119(6) . . .
129(6) . . .
127(6) . . .
122(6) . . .
126(6) . . .
121(6) . . .
130(6) . . .
105(5) . . .
121(6) . . .
134(6) . . .
106(5) . . .
113(6) . . .
138(7) . . .
118(6) . . .
123(6) . . .
115(6) . . .
129(6) . . .
127(6) . . .
135(6) . . .
119(6) . . .
119(6) . . .
109(6) . . .
126(6) . . .
126(6) . . .
134(6) . . .
111(6) . . .
137(6) . . .
126(6) . . .
125(6) . . .
126(6) . . .
132(6) . . .
124(6) . . .
142(7) . . .
128(6) . . .
128(6) . . .
141(6) . . .
138(6) . . .
123(6) . . .
128(6) . . .
129(6) . . .
134(6) . . .
113(6) . . .
131(6) . . .
130(6) . . .
131(6) . . .
146(6) . . .
130(6) . . .
122(6) . . .
116(6) . . .
131(6) . . .
143(6) . . .
141(6) . . .
127(6) . . .
126(6) . . .
113(6) . . .
133(6) . . .
134(6) . . .
130(6) . . .
130(6) . . .
128(6) . . .
131(6) . . .
111(6) . . .
125(6) . . .
121(6) . . .
120(6) . . .
129(6) . . .
120(6) . . .
122(6) . . .
122(6) . . .
124(6) . . .
122(6) . . .
132(6) . . .
127(6) . . .
148(6) . . .
143(6) . . .
130(6) . . .
146(7) . . .
122(6) . . .
134(6) . . .
145(6) . . .
124(6) . . .
140(7) . . .
130(6) . . .
124(6) . . .
134(6) . . .
133(6) . . .
123(6) . . .
127(6) . . .
120(6) . . .
122(6) . . .
124(6) . . .
140(7) . . .
120(6) . . .
129(6) . . .
137(6) . . .
126(6) . . .
129(6) . . .
125(6) . . .
138(6) . . .
126(6) . . .
117(6) . . .
126(6) . . .
132(6) . . .
120(6) . . .
125(6) . . .
119(6) . . .
125(6) . . .
131(6) . . .
131(6) . . .
134(6) . . .
125(6) . . .
130(6) . . .
139(6) . . .
131(6) . . .
132(6) . . .
130(6) . . .
123(6) . . .
126(6) . . .
136(6) . . .
129(6) . . .
136(6) . . .
128(6) . . .
134(6) . . .
135(6) . . .
125(6) . . .
127(6) . . .
132(6) . . .
119(6) . . .
125(6) . . .
142(7) . . .
121(6) . . .
135(6) . . .
135(6) . . .
129(6) . . .
127(6) . . .
122(6) . . .
129(6) . . .
128(6) . . .
135(6) . . .
122(6) . . .
147(7) . . .
134(6) . . .
124(6) . . .
140(6) . . .
120(6) . . .
130(6) . . .
126(6) . . .
105(5) . . .
125(6) . . .
130(6) . . .
134(6) . . .
133(6) . . .
131(6) . . .
135(6) . . .
135(6) . . .
135(6) . . .
136(6) . . .
141(6) . . .
136(6) . . .
124(6) . . .
122(6) . . .
133(6) . . .
119(6) . . .
135(6) . . .
143(7) . . .
128(6) . . .
122(6) . . .
111(5) . . .
115(6) . . .
128(6) . . .
148(7) . . .
125(6) . . .
113(6) . . .
122(6) . . .
131(6) . . .
125(6) . . .
125(6) . . .
117(6) . . .
127(6) . . .
133(7) . . .
121(6) . . .
116(6) . . .
156(6) . . .
125(6) . . .
128(6) . . .
128(6) . . .
113(6) . . .
106(5) . . .
131(6) . . .
130(6) . . .
120(6) . . .
125(6) . . .
109(5) . . .
123(6) . . .
121(6) . . .
135(6) . . .
131(6) . . .
121(6) . . .
123(6) . . .
121(6) . . .
127(6) . . .
128(6) . . .
120(6) . . .
116(6) . . .
105(6) . . .
130(6) . . .
142(6) . . .
130(6) . . .
135(6) . . .
127(6) . . .
117(6) . . .
119(6) . . .
127(6) . . .
132(6) . . .
145(7) . . .
137(6) . . .
135(6) . . .
127(6) . . .
137(6) . . .
128(6) . . .
125(6) . . .
131(6) . . .
121(6) . . .
117(6) . . .
127(6) . . .
121(6) . . .
124(6) . . .
130(6) . . .
148(7) . . .
132(6) . . .
121(6) . . .
130(6) . . .
124(6) . . .
125(6) . . .
117(6) . . .
130(6) . . .
148(6) . . .
123(6) . . .
144(7) . . .
135(6) . . .
136(6) . . .
126(6) . . .
118(6) . . .
137(7) . . .
132(6) . . .
133(6) . . .
135(6) . . .
131(6) . . .
126(6) . . .
127(6) . . .
137(6) . . .
136(6) . . .
126(6) . . .
142(6) . . .
149(6) . . .
119(6) . . .
113(6) . . .
122(6) . . .
136(6) . . .
129(6) . . .
122(6) . . .
118(6) . . .
137(6) . . .
140(6) . . .
149(7) . . .
119(6) . . .
144(6) . . .
121(6) . . .
130(6) . . .
159(7) . . .
126(6) . . .
145(7) . . .
127(6) . . .
141(6) . . .
127(6) . . .
134(6) . . .
132(6) . . .
137(6) . . .
133(6) . . .
133(6) . . .
114(5) . . .
135(6) . . .
124(6) . . .
135(6) . . .
136(6) . . .
138(6) . . .
133(6) . . .
132(7) . . .
117(6) . . .
132(6) . . .
142(6) . . .
134(6) . . .
142(7) . . .
134(6) . . .
129(6) . . .
144(6) . . .
153(7) . . .
122(6) . . .
139(6) . . .
127(6) . . .
147(6) . . .
115(6) . . .
115(6) . . .
125(6) . . .
125(6) . . .
125(6) . . .
106(5) . . .
137(6) . . .
133(6) . . .
119(6) . . .
134(6) . . .
140(6) . . .
124(6) . . .
133(6) . . .
136(6) . . .
127(6) . . .
125(6) . . .
132(6) . . .
126(6) . . .
136(6) . . .
122(6) . . .
120(6) . . .
133(6) . . .
131(6) . . .
124(6) . . .
132(7) . . .
125(6) . . .
129(6) . . .
131(6) . . .
117(6) . . .
122(6) . . .
125(6) . . .
127(6) . . .
127(6) . . .
120(6) . . .
135(6) . . .
124(6) . . .
110(6) . . .
134(6) . . .
130(6) . . .
122(6) . . .
124(6) . . .
128(6) . . .
122(6) . . .
128(6) . . .
128(6) . . .
124(6) . . .
116(6) . . .
120(6) . . .
113(6) . . .
131(6) . . .
118(6) . . .
126(6) . . .
131(6) . . .
126(6) . . .
135(6) . . .
123(6) . . .
119(6) . . .
114(6) . . .
139(6) . . .
134(6) . . .
134(6) . . .
141(6) . . .
125(6) . . .
131(6) . . .
133(6) . . .
149(7) . . .
121(6) . . .
121(6) . . .
123(6) . . .
120(6) . . .
117(6) . . .
117(6) . . .
118(6) . . .
130(6) . . .
119(6) . . .
131(6) . . .
131(6) . . .
136(6) . . .
114(6) . . .
123(6) . . .
118(6) . . .
140(6) . . .
119(6) . . .
128(6) . . .
122(6) . . .
126(6) . . .
124(6) . . .
128(6) . . .
130(6) . . .
132(6) . . .
131(6) . . .
121(6) . . .
124(6) . . .
128(6) . . .
121(6) . . .
120(6) . . .
123(6) . . .
122(6) . . .
124(6) . . .
105(6) . . .
119(6) . . .
128(6) . . .
123(6) . . .
116(6) . . .
138(6) . . .
119(6) . . .
120(6) . . .
120(6) . . .
151(7) . . .
143(7) . . .
134(6) . . .
131(6) . . .
130(6) . . .
125(6) . . .
111(6) . . .
123(6) . . .
132(6) . . .
142(6) . . .
136(6) . . .
122(6) . . .
116(6) . . .
106(5) . . .
127(6) . . .
145(7) . . .
115(6) . . .
118(6) . . .
132(6) . . .
133(6) . . .
134(7) . . .
116(6) . . .
121(6) . . .
126(6) . . .
140(7) . . .
109(6) . . .
112(6) . . .
111(5) . . .
117(6) . . .
120(6) . . .
120(6) . . .
128(6) . . .
115(6) . . .
121(6) . . .
133(6) . . .
135(6) . . .
134(6) . . .
132(6) . . .
130(6) . . .
126(6) . . .
130(6) . . .
131(6) . . .
110(5) . . .
122(6) . . .
124(6) . . .
131(6) . . .
121(6) . . .
133(6) . . .
120(6) . . .
141(7) . . .
138(6) . . .
130(6) . . .
130(6) . . .
136(6) . . .
120(6) . . .
117(6) . . .
135(6) . . .
129(6) . . .
126(6) . . .
134(6) . . .
116(6) . . .
121(6) . . .
132(6) . . .
132(6) . . .
123(6) . . .
123(6) . . .
117(6) . . .
119(6) . . .
126(6) . . .
129(6) . . .
138(6) . . .
139(6) . . .
122(6) . . .
123(6) . . .
125(6) . . .
113(6) . . .
152(6) . . .
144(6) . . .
118(6) . . .
140(7) . . .
129(6) . . .
126(6) . . .
126(6) . . .
135(6) . . .
118(6) . . .
128(6) . . .
132(6) . . .
124(6) . . .
135(6) . . .
128(6) . . .
124(6) . . .
128(6) . . .
123(6) . . .
130(6) . . .
109(6) . . .
111(6) . . .
132(6) . . .
135(6) . . .
124(6) . . .
127(6) . . .
127(6) . . .
133(6) . . .
124(6) . . .
119(6) . . .
112(5) . . .
123(6) . . .
128(6) . . .
132(6) . . .
120(6) . . .
120(6) . . .
123(6) . . .
120(6) . . .
134(6) . . .
95(5) . . .
112(6) . . .
135(6) . . .
139(6) . . .
125(6) . . .
117(6) . . .
130(6) . . .
122(6) . . .
125(6) . . .
135(6) . . .
133(6) . . .
130(6) . . .
137(6) . . .
112(6) . . .
142(6) . . .
122(6) . . .
125(6) . . .
128(6) . . .
120(6) . . .
125(6) . . .
125(6) . . .
118(6) . . .
129(6) . . .
111(5) . . .
117(6) . . .
97(5) . . .
119(6) . . .
136(6) . . .
129(6) . . .
140(7) . . .
120(6) . . .
127(6) . . .
133(6) . . .
136(6) . . .
132(6) . . .
119(6) . . .
126(6) . . .
125(6) . . .
141(6) . . .
125(6) . . .
135(6) . . .
123(6) . . .
134(6) . . .
132(6) . . .
135(6) . . .
134(6) . . .
127(6) . . .
147(6) . . .
126(6) . . .
133(6) . . .
129(6) . . .
140(6) . . .
125(6) . . .
120(6) . . .
123(6) . . .
120(6) . . .
122(6) . . .
133(6) . . .
114(6) . . .
133(6) . . .
143(7) . . .
127(6) . . .
130(6) . . .
119(6) . . .
131(6) . . .
110(6) . . .
124(6) . . .
113(6) . . .
132(6) . . .
141(7) . . .
104(5) . . .
123(6) . . .
125(6) . . .
136(6) . . .
111(6) . . .
123(6) . . .
124(6) . . .
124(6) . . .
107(5) . . .
127(6) . . .
122(6) . . .
127(6) . . .
136(6) . . .
125(6) . . .
124(6) . . .
132(6) . . .
127(6) . . .
126(6) . . .
122(6) . . .
132(6) . . .
131(6) . . .
124(6) . . .
111(6) . . .
126(6) . . .
142(6) . . .
142(6) . . .
117(6) . . .
129(6) . . .
133(6) . . .
131(6) . . .
129(6) . . .
114(6) . . .
122(6) . . .
124(6) . . .
145(6) . . .
119(6) . . .
104(5) . . .
113(6) . . .
138(6) . . .
120(6) . . .
109(5) . . .
123(6) . . .
124(6) . . .
123(6) . . .
116(6) . . .
113(6) . . .
118(6) . . .
124(6) . . .
119(6) . . .
119(6) . . .
120(6) . . .
122(6) . . .
116(6) . . .
132(6) . . .
110(6) . . .
125(6) . . .
127(6) . . .
122(6) . . .
122(6) . . .
126(6) . . .
118(6) . . .
119(6) . . .
111(6) . . .
109(5) . . .
117(6) . . .
113(6) . . .
138(6) . . .
133(6) . . .
114(6) . . .
107(6) . . .
108(6) . . .
116(6) . . .
114(6) . . .
109(6) . . .
119(6) . . .
113(6) . . .
121(6) . . .
120(6) . . .
116(6) . . .
122(6) . . .
106(6) . . .
103(5) . . .
117(6) . . .
115(6) . . .
105(5) . . .
115(6) . . .
116(6) . . .
138(6) . . .
110(6) . . .
117(6) . . .
114(6) . . .
103(5) . . .
95(5) . . .
111(6) . . .
126(6) . . .
132(6) . . .
108(5) . . .
123(6) . . .
131(6) . . .
131(6) . . .
123(6) . . .
136(6) . . .
141(6) . . .
118(6) . . .
125(6) . . .
111(6) . . .
110(5) . . .
109(6) . . .
106(5) . . .
111(6) . . .
118(6) . . .
123(6) . . .
126(6) . . .
122(6) . . .
117(6) . . .
120(6) . . .
130(6) . . .
123(6) . . .
123(6) . . .
105(6) . . .
122(6) . . .
119(6) . . .
126(6) . . .
114(6) . . .
126(6) . . .
120(6) . . .
121(6) . . .
108(6) . . .
113(6) . . .
107(5) . . .
118(6) . . .
123(6) . . .
124(6) . . .
110(6) . . .
115(6) . . .
118(6) . . .
125(6) . . .
116(6) . . .
130(6) . . .
123(6) . . .
114(6) . . .
126(6) . . .
104(5) . . .
125(6) . . .
114(6) . . .
117(6) . . .
115(6) . . .
104(5) . . .
123(6) . . .
124(6) . . .
130(6) . . .
133(6) . . .
123(6) . . .
118(6) . . .
137(6) . . .
124(6) . . .
104(5) . . .
131(6) . . .
126(6) . . .
121(6) . . .
107(5) . . .
126(6) . . .
119(6) . . .
131(6) . . .
131(6) . . .
117(6) . . .
117(6) . . .
130(6) . . .
120(6) . . .
110(6) . . .
129(6) . . .
104(5) . . .
103(5) . . .
124(6) . . .
113(6) . . .
122(6) . . .
124(6) . . .
114(6) . . .
117(6) . . .
122(6) . . .
120(6) . . .
108(6) . . .
116(6) . . .
116(6) . . .
142(6) . . .
119(6) . . .
127(6) . . .
124(6) . . .
124(6) . . .
115(6) . . .
119(6) . . .
113(6) . . .
121(6) . . .
108(6) . . .
114(6) . . .
122(6) . . .
121(6) . . .
93(5) . . .
106(6) . . .
121(6) . . .
126(6) . . .
113(6) . . .
132(6) . . .
111(6) . . .
106(5) . . .
131(6) . . .
116(6) . . .
117(6) . . .
120(6) . . .
123(6) . . .
115(6) . . .
116(6) . . .
122(6) . . .
112(6) . . .
129(6) . . .
136(6) . . .
131(6) . . .
121(6) . . .
124(6) . . .
127(6) . . .
120(6) . . .
129(6) . . .
122(6) . . .
131(6) . . .
119(6) . . .
130(6) . . .
130(6) . . .
124(6) . . .
116(6) . . .
99(5) . . .
133(6) . . .
125(6) . . .
121(6) . . .
125(6) . . .
131(6) . . .
138(6) . . .
126(6) . . .
122(6) . . .
131(6) . . .
134(6) . . .
120(6) . . .
111(6) . . .
131(6) . . .
122(6) . . .
115(6) . . .
102(5) . . .
116(6) . . .
126(6) . . .
123(6) . . .
129(6) . . .
119(6) . . .
125(6) . . .
130(6) . . .
115(6) . . .
131(6) . . .
123(6) . . .
118(6) . . .
118(6) . . .
129(6) . . .
108(5) . . .
109(6) . . .
112(6) . . .
127(6) . . .
120(6) . . .
118(6) . . .
120(6) . . .
127(6) . . .
123(6) . . .
118(6) . . .
117(6) . . .
130(6) . . .
126(6) . . .
119(6) . . .
118(6) . . .
117(6) . . .
123(6) . . .
123(6) . . .
116(6) . . .
135(6) . . .
120(6) . . .
132(6) . . .
135(6) . . .
126(6) . . .
123(6) . . .
117(6) . . .
122(6) . . .
113(6) . . .
110(5) . . .
120(6) . . .
125(6) . . .
119(6) . . .
124(6) . . .
119(6) . . .
122(6) . . .
117(6) . . .
121(6) . . .
127(6) . . .
121(6) . . .
101(5) . . .
126(6) . . .
124(6) . . .
104(5) . . .
133(6) . . .
133(6) . . .
122(6) . . .
120(6) . . .
109(5) . . .
134(6) . . .
123(6) . . .
115(6) . . .
123(6) . . .
130(6) . . .
115(6) . . .
133(6) . . .
114(6) . . .
133(6) . . .
119(6) . . .
111(5) . . .
120(6) . . .
136(6) . . .
108(6) . . .
113(6) . . .
120(6) . . .
125(6) . . .
125(6) . . .
124(6) . . .
114(6) . . .
111(5) . . .
118(6) . . .
118(6) . . .
117(6) . . .
125(6) . . .
120(6) . . .
119(6) . . .
128(6) . . .
117(6) . . .
100(5) . . .
110(5) . . .
116(6) . . .
123(6) . . .
115(6) . . .
133(6) . . .
124(6) . . .
142(7) . . .
124(6) . . .
124(6) . . .
120(6) . . .
120(6) . . .
119(6) . . .
121(6) . . .
136(6) . . .
126(6) . . .
109(5) . . .
119(6) . . .
126(6) . . .
123(6) . . .
116(6) . . .
125(6) . . .
139(6) . . .
122(6) . . .
124(6) . . .
119(6) . . .
119(6) . . .
108(5) . . .
112(6) . . .
108(6) . . .
106(5) . . .
120(6) . . .
116(6) . . .
125(6) . . .
129(6) . . .
108(5) . . .
118(6) . . .
128(6) . . .
135(6) . . .
133(6) . . .
118(6) . . .
125(6) . . .
131(6) . . .
121(6) . . .
129(6) . . .
132(6) . . .
110(6) . . .
118(6) . . .
123(6) . . .
118(6) . . .
110(5) . . .
122(6) . . .
120(6) . . .
107(5) . . .
123(6) . . .
138(6) . . .
116(6) . . .
118(6) . . .
123(6) . . .
135(6) . . .
128(6) . . .
126(6) . . .
122(6) . . .
142(6) . . .
120(6) . . .
129(6) . . .
126(6) . . .
121(6) . . .
112(6) . . .
131(6) . . .
116(6) . . .
128(6) . . .
120(6) . . .
128(6) . . .
112(5) . . .
112(5) . . .
134(6) . . .
122(6) . . .
118(6) . . .
123(6) . . .
103(5) . . .
129(6) . . .
117(6) . . .
106(5) . . .
121(6) . . .
103(5) . . .
125(6) . . .
120(6) . . .
125(6) . . .
130(6) . . .
124(6) . . .
126(6) . . .
122(6) . . .
116(6) . . .
122(6) . . .
130(6) . . .
137(7) . . .
111(6) . . .
121(6) . . .
130(6) . . .
116(6) . . .
130(6) . . .
123(6) . . .
121(6) . . .
114(6) . . .
115(6) . . .
115(6) . . .
114(6) . . .
110(5) . . .
126(6) . . .
122(6) . . .
105(6) . . .
122(6) . . .
123(6) . . .
112(5) . . .
123(6) . . .
132(6) . . .
123(6) . . .
100(5) . . .
132(6) . . .
109(5) . . .
126(6) . . .
129(6) . . .
123(6) . . .
118(6) . . .
123(6) . . .
112(6) . . .
118(6) . . .
119(6) . . .
126(6) . . .
114(6) . . .
112(6) . . .
125(6) . . .
130(6) . . .
123(6) . . .
107(6) . . .
113(6) . . .
130(6) . . .
134(6) . . .
128(6) . . .
127(6) . . .
110(6) . . .
128(6) . . .
131(6) . . .
120(6) . . .
109(5) . . .
127(6) . . .
123(6) . . .
118(6) . . .
115(6) . . .
110(6) . . .
111(5) . . .
114(6) . . .
121(6) . . .
109(6) . . .
130(6) . . .
136(6) . . .
124(6) . . .
124(6) . . .
106(5) . . .
123(6) . . .
125(6) . . .
116(6) . . .
118(6) . . .
126(6) . . .
114(6) . . .
134(6) . . .
127(6) . . .
110(6) . . .
112(6) . . .
117(6) . . .
128(6) . . .
127(6) . . .
122(6) . . .
114(6) . . .
107(6) . . .
121(6) . . .
111(6) . . .
119(6) . . .
121(6) . . .
125(6) . . .
118(6) . . .
121(6) . . .
121(6) . . .
117(6) . . .
122(6) . . .
124(6) . . .
108(5) . . .
112(6) . . .
129(6) . . .
120(6) . . .
122(6) . . .
136(6) . . .
125(6) . . .
116(6) . . .
124(6) . . .
112(6) . . .
114(6) . . .
121(6) . . .
124(6) . . .
112(6) . . .
109(5) . . .
126(6) . . .
130(6) . . .
129(6) . . .
135(6) . . .
131(6) . . .
122(6) . . .
128(6) . . .
119(6) . . .
119(6) . . .
111(5) . . .
118(6) . . .
116(6) . . .
120(6) . . .
121(6) . . .
125(6) . . .
106(5) . . .
139(6) . . .
122(6) . . .
123(6) . . .
124(6) . . .
133(6) . . .
127(6) . . .
119(6) . . .
117(6) . . .
131(6) . . .
127(6) . . .
126(6) . . .
126(6) . . .
116(6) . . .
116(6) . . .
117(6) . . .
113(6) . . .
118(6) . . .
126(6) . . .
120(6) . . .
121(6) . . .
127(6) . . .
118(6) . . .
122(6) . . .
123(6) . . .
127(6) . . .
117(6) . . .
133(6) . . .
127(6) . . .
125(6) . . .
94(5) . . .
107(5) . . .
129(6) . . .
122(6) . . .
117(6) . . .
120(6) . . .
111(5) . . .
113(5) . . .
128(6) . . .
137(6) . . .
105(5) . . .
118(6) . . .
126(6) . . .
115(6) . . .
137(6) . . .
115(6) . . .
124(6) . . .
107(5) . . .
116(6) . . .
138(6) . . .
133(6) . . .
122(6) . . .
119(6) . . .
121(6) . . .
103(5) . . .
102(5) . . .
113(6) . . .
108(5) . . .
118(6) . . .
122(6) . . .
118(6) . . .
120(6) . . .
121(6) . . .
118(6) . . .
132(6) . . .
108(6) . . .
109(6) . . .
118(6) . . .
115(6) . . .
125(6) . . .
132(6) . . .
124(6) . . .
112(6) . . .
129(6) . . .
118(6) . . .
118(6) . . .
128(6) . . .
109(6) . . .
112(5) . . .
117(6) . . .
124(6) . . .
113(6) . . .
122(6) . . .
113(6) . . .
122(6) . . .
125(6) . . .
109(6) . . .
125(6) . . .
137(6) . . .
111(5) . . .
129(6) . . .
121(6) . . .
116(6) . . .
130(6) . . .
136(6) . . .
125(6) . . .
128(6) . . .
112(6) . . .
127(6) . . .
128(6) . . .
121(6) . . .
129(6) . . .
133(6) . . .
125(6) . . .
126(6) . . .
115(6) . . .
131(6) . . .
114(6) . . .
121(6) . . .
109(6) . . .
116(6) . . .
124(6) . . .
139(6) . . .
125(6) . . .
113(6) . . .
113(6) . . .
103(5) . . .
120(6) . . .
127(6) . . .
108(5) . . .
127(6) . . .
116(6) . . .
112(5) . . .
120(6) . . .
118(6) . . .
112(6) . . .
116(6) . . .
120(6) . . .
117(6) . . .
127(6) . . .
119(6) . . .
118(6) . . .
109(5) . . .
117(6) . . .
120(6) . . .
121(6) . . .
125(6) . . .
112(5) . . .
119(6) . . .
125(6) . . .
120(6) . . .
116(6) . . .
114(5) . . .
112(6) . . .
118(6) . . .
107(5) . . .
120(6) . . .
131(6) . . .
118(6) . . .
107(6) . . .
126(6) . . .
111(6) . . .
113(6) . . .
110(5) . . .
119(6) . . .
107(5) . . .
110(5) . . .
123(6) . . .
134(6) . . .
127(6) . . .
108(6) . . .
124(6) . . .
125(6) . . .
119(6) . . .
121(6) . . .
118(6) . . .
133(6) . . .
138(6) . . .
127(6) . . .
122(6) . . .
142(7) . . .
128(6) . . .
122(6) . . .
119(6) . . .
130(6) . . .
112(6) . . .
130(6) . . .
120(6) . . .
132(6) . . .
118(6) . . .
114(6) . . .
121(6) . . .
129(6) . . .
119(6) . . .
115(6) . . .
122(6) . . .
116(6) . . .
126(6) . . .
115(6) . . .
122(6) . . .
131(6) . . .
117(6) . . .
116(6) . . .
112(6) . . .
118(6) . . .
123(6) . . .
122(6) . . .
109(6) . . .
115(6) . . .
107(6) . . .
117(6) . . .
119(6) . . .
121(6) . . .
124(6) . . .
120(6) . . .
122(6) . . .
128(6) . . .
133(6) . . .
123(6) . . .
124(6) . . .
136(6) . . .
121(6) . . .
125(6) . . .
140(7) . . .
116(6) . . .
123(6) . . .
125(6) . . .
123(6) . . .
129(6) . . .
133(6) . . .
129(6) . . .
135(6) . . .
122(6) . . .
119(6) . . .
125(6) . . .
132(6) . . .
133(6) . . .
111(6) . . .
115(6) . . .
125(6) . . .
121(6) . . .
127(6) . . .
116(6) . . .
126(6) . . .
115(6) . . .
112(5) . . .
123(6) . . .
120(6) . . .
133(6) . . .
128(6) . . .
130(6) . . .
120(6) . . .
121(6) . . .
127(6) . . .
133(6) . . .
136(6) . . .
136(6) . . .
123(6) . . .
121(6) . . .
117(6) . . .
134(6) . . .
136(6) . . .
112(6) . . .
127(6) . . .
120(6) . . .
115(6) . . .
124(6) . . .
112(6) . . .
121(6) . . .
127(6) . . .
132(6) . . .
106(5) . . .
129(7) . . .
123(6) . . .
119(6) . . .
119(6) . . .
126(6) . . .
120(6) . . .
109(5) . . .
127(6) . . .
125(6) . . .
129(6) . . .
120(6) . . .
122(6) . . .
114(6) . . .
120(6) . . .
138(7) . . .
148(7) . . .
117(6) . . .
127(6) . . .
121(6) . . .
128(6) . . .
128(6) . . .
119(6) . . .
126(6) . . .
122(6) . . .
124(6) . . .
134(6) . . .
124(6) . . .
127(6) . . .
116(6) . . .
128(6) . . .
131(6) . . .
138(6) . . .
115(6) . . .
115(6) . . .
129(6) . . .
117(6) . . .
112(6) . . .
134(6) . . .
148(7) . . .
134(6) . . .
128(6) . . .
121(6) . . .
113(5) . . .
129(6) . . .
110(6) . . .
127(6) . . .
119(6) . . .
124(6) . . .
117(6) . . .
136(7) . . .
128(6) . . .
128(6) . . .
128(6) . . .
134(6) . . .
118(6) . . .
125(6) . . .
115(6) . . .
144(6) . . .
124(6) . . .
122(6) . . .
128(6) . . .
121(6) . . .
134(6) . . .
132(6) . . .
126(6) . . .
120(6) . . .
126(6) . . .
129(6) . . .
121(6) . . .
137(6) . . .
119(6) . . .
122(6) . . .
128(6) . . .
142(6) . . .
131(6) . . .
127(6) . . .
123(6) . . .
119(6) . . .
127(6) . . .
135(6) . . .
118(6) . . .
117(6) . . .
118(6) . . .
121(6) . . .
116(6) . . .
116(6) . . .
133(6) . . .
114(6) . . .
121(6) . . .
128(6) . . .
124(6) . . .
113(5) . . .
138(6) . . .
132(6) . . .
126(6) . . .
110(5) . . .
139(6) . . .
124(6) . . .
130(6) . . .
113(6) . . .
122(6) . . .
123(6) . . .
123(6) . . .
120(6) . . .
136(6) . . .
120(6) . . .
125(6) . . .
118(6) . . .
116(6) . . .
106(6) . . .
123(6) . . .
129(6) . . .
120(6) . . .
129(6) . . .
133(6) . . .
127(6) . . .
127(6) . . .
130(6) . . .
116(6) . . .
132(6) . . .
130(6) . . .
128(6) . . .
115(6) . . .
123(6) . . .
130(6) . . .
121(6) . . .
112(6) . . .
116(6) . . .
120(6) . . .
114(6) . . .
136(6) . . .
118(6) . . .
119(6) . . .
110(5) . . .
113(6) . . .
121(6) . . .
118(6) . . .
114(6) . . .
131(6) . . .
136(6) . . .
127(6) . . .
125(6) . . .
124(6) . . .
122(6) . . .
123(6) . . .
128(6) . . .
120(6) . . .
134(7) . . .
136(6) . . .
122(6) . . .
135(6) . . .
116(6) . . .
126(6) . . .
108(5) . . .
123(6) . . .
128(6) . . .
125(6) . . .
113(6) . . .
111(5) . . .
125(6) . . .
126(6) . . .
113(6) . . .
130(6) . . .
123(6) . . .
129(6) . . .
141(6) . . .
128(6) . . .
113(6) . . .
114(6) . . .
117(6) . . .
115(6) . . .
126(6) . . .
116(6) . . .
128(6) . . .
133(6) . . .
125(6) . . .
129(6) . . .
109(6) . . .
128(6) . . .
137(6) . . .
113(6) . . .
125(6) . . .
121(6) . . .
128(6) . . .
117(6) . . .
132(6) . . .
127(6) . . .
129(6) . . .
111(5) . . .
121(6) . . .
133(6) . . .
123(6) . . .
123(6) . . .
127(6) . . .
130(6) . . .
132(6) . . .
128(6) . . .
114(6) . . .
126(6) . . .
115(6) . . .
126(6) . . .
129(6) . . .
125(6) . . .
127(6) . . .
146(6) . . .
128(6) . . .
119(6) . . .
127(6) . . .
125(6) . . .
116(6) . . .
133(6) . . .
113(6) . . .
120(6) . . .
134(6) . . .
133(6) . . .
121(6) . . .
125(6) . . .
125(6) . . .
121(6) . . .
121(6) . . .
133(6) . . .
115(6) . . .
116(6) . . .
119(6) . . .
131(6) . . .
127(6) . . .
122(6) . . .
123(6) . . .
121(6) . . .
130(6) . . .
131(6) . . .
125(6) . . .
105(5) . . .
116(6) . . .
135(6) . . .
129(6) . . .
130(6) . . .
119(6) . . .
124(6) . . .
124(6) . . .
119(6) . . .
110(6) . . .
115(6) . . .
113(6) . . .
123(6) . . .
113(6) . . .
112(6) . . .
112(6) . . .
136(6) . . .
128(6) . . .
135(7) . . .
125(6) . . .
110(5) . . .
111(5) . . .
130(6) . . .
109(6) . . .
121(6) . . .
109(5) . . .
119(6) . . .
106(6) . . .
106(6) . . .
109(6) . . .
112(6) . . .
110(6) . . .
117(6) . . .
124(6) . . .
134(6) . . .
119(6) . . .
129(6) . . .
124(6) . . .
115(6) . . .
124(6) . . .
135(6) . . .
130(6) . . .
128(6) . . .
140(7) . . .
125(6) . . .
125(6) . . .
121(6) . . .
127(6) . . .
143(6) . . .
131(6) . . .
125(6) . . .
122(6) . . .
130(6) . . .
125(6) . . .
126(6) . . .
118(6) . . .
131(6) . . .
122(6) . . .
127(6) . . .
120(6) . . .
132(6) . . .
136(6) . . .
135(7) . . .
116(6) . . .
131(6) . . .
106(5) . . .
110(6) . . .
116(6) . . .
127(6) . . .
131(6) . . .
120(6) . . .
125(6) . . .
132(6) . . .
130(6) . . .
127(6) . . .
132(6) . . .
121(6) . . .
114(6) . . .
114(6) . . .
123(6) . . .
127(6) . . .
124(6) . . .
132(6) . . .
126(6) . . .
125(6) . . .
132(6) . . .
130(6) . . .
128(6) . . .
140(6) . . .
104(5) . . .
116(6) . . .
124(6) . . .
119(6) . . .
129(6) . . .
117(6) . . .
116(6) . . .
117(6) . . .
138(6) . . .
127(6) . . .
117(6) . . .
113(6) . . .
119(6) . . .
123(6) . . .
104(5) . . .
130(6) . . .
123(6) . . .
112(6) . . .
109(6) . . .
120(6) . . .
124(6) . . .
112(6) . . .
122(6) . . .
127(6) . . .
129(6) . . .
127(6) . . .
123(6) . . .
122(6) . . .
133(6) . . .
131(6) . . .
135(6) . . .
127(6) . . .
128(6) . . .
132(6) . . .
134(6) . . .
126(6) . . .
125(6) . . .
135(6) . . .
130(6) . . .
122(6) . . .
123(6) . . .
121(6) . . .
123(6) . . .
97(5) . . .
134(6) . . .
122(6) . . .
120(6) . . .
120(6) . . .
128(6) . . .
132(6) . . .
113(6) . . .
125(6) . . .
112(6) . . .
119(6) . . .
138(6) . . .
122(6) . . .
128(6) . . .
114(6) . . .
112(6) . . .
117(6) . . .
125(6) . . .
118(6) . . .
127(6) . . .
102(5) . . .
125(6) . . .
118(6) . . .
125(6) . . .
116(6) . . .
134(6) . . .
120(6) . . .
132(6) . . .
131(6) . . .
126(6) . . .
122(6) . . .
114(6) . . .
122(6) . . .
126(6) . . .
128(6) . . .
113(6) . . .
116(6) . . .
119(6) . . .
127(6) . . .
108(5) . . .
116(6) . . .
117(6) . . .
120(6) . . .
109(6) . . .
123(6) . . .
119(6) . . .
133(6) . . .
121(6) . . .
122(6) . . .
127(6) . . .
129(6) . . .
126(6) . . .
126(6) . . .
114(6) . . .
120(6) . . .
134(6) . . .
130(6) . . .
121(6) . . .
122(6) . . .
134(6) . . .
127(6) . . .
140(6) . . .
120(6) . . .
120(6) . . .
118(6) . . .
132(6) . . .
108(6) . . .
115(6) . . .
131(6) . . .
128(6) . . .
111(6) . . .
111(5) . . .
118(6) . . .
139(6) . . .
130(6) . . .
113(5) . . .
133(7) . . .
143(7) . . .
143(7) . . .
120(6) . . .
132(6) . . .
130(6) . . .
131(6) . . .
130(6) . . .
121(6) . . .
129(6) . . .
123(6) . . .
123(6) . . .
113(6) . . .
110(6) . . .
136(6) . . .
117(6) . . .
120(6) . . .
113(6) . . .
121(6) . . .
140(6) . . .
121(6) . . .
130(6) . . .
128(6) . . .
132(6) . . .
126(6) . . .
125(6) . . .
124(6) . . .
124(6) . . .
126(6) . . .
118(6) . . .
133(6) . . .
142(7) . . .
113(6) . . .
119(6) . . .
127(6) . . .
117(6) . . .
122(6) . . .
110(6) . . .
119(6) . . .
127(6) . . .
129(6) . . .
123(6) . . .
140(6) . . .
131(6) . . .
127(6) . . .
123(6) . . .
136(6) . . .
122(6) . . .
121(6) . . .
104(5) . . .
136(7) . . .
132(6) . . .
112(5) . . .
124(6) . . .
127(6) . . .
116(6) . . .
111(5) . . .
111(5) . . .
117(6) . . .
131(6) . . .
128(6) . . .
124(6) . . .
131(6) . . .
123(6) . . .
123(6) . . .
122(6) . . .
133(6) . . .
119(6) . . .
127(6) . . .
121(6) . . .
120(6) . . .
116(6) . . .
128(6) . . .
119(6) . . .
129(6) . . .
118(6) . . .
117(6) . . .
107(5) . . .
128(6) . . .
118(6) . . .
128(6) . . .
137(6) . . .
119(6) . . .
119(6) . . .
125(6) . . .
114(6) . . .
121(6) . . .
125(6) . . .
133(6) . . .
127(6) . . .
124(6) . . .
110(5) . . .
121(6) . . .
123(6) . . .
119(6) . . .
125(6) . . .
131(6) . . .
116(6) . . .
122(6) . . .
116(6) . . .
113(6) . . .
127(6) . . .
126(6) . . .
115(6) . . .
113(6) . . .
117(6) . . .
122(6) . . .
139(6) . . .
124(6) . . .
112(6) . . .
114(6) . . .
122(6) . . .
133(6) . . .
117(6) . . .
132(6) . . .
120(6) . . .
117(6) . . .
122(6) . . .
125(6) . . .
126(6) . . .
132(6) . . .
123(6) . . .
122(6) . . .
121(6) . . .
117(6) . . .
111(6) . . .
121(6) . . .
120(6) . . .
117(6) . . .
123(6) . . .
117(6) . . .
147(6) . . .
107(5) . . .
113(6) . . .
107(6) . . .
116(6) . . .
116(6) . . .
129(6) . . .
125(6) . . .
117(6) . . .
125(6) . . .
108(5) . . .
128(6) . . .
115(6) . . .
103(5) . . .
118(6) . . .
112(5) . . .
124(6) . . .
117(6) . . .
131(6) . . .
121(6) . . .
110(5) . . .
110(5) . . .
123(6) . . .
127(6) . . .
105(5) . . .
131(6) . . .
120(6) . . .
117(6) . . .
124(6) . . .
124(6) . . .
124(6) . . .
110(6) . . .
133(6) . . .
117(6) . . .
107(5) . . .
121(6) . . .
117(6) . . .
113(6) . . .
120(6) . . .
120(6) . . .
123(6) . . .
118(6) . . .
100(5) . . .
113(6) . . .
128(6) . . .
132(6) . . .
120(6) . . .
131(6) . . .
120(6) . . .
119(6) . . .
122(6) . . .
118(6) . . .
126(6) . . .
127(6) . . .
121(6) . . .
131(6) . . .
132(6) . . .
134(6) . . .
121(6) . . .
130(6) . . .
115(6) . . .
103(5) . . .
105(5) . . .
133(6) . . .
120(6) . . .
136(6) . . .
139(7) . . .
114(6) . . .
128(6) . . .
119(6) . . .
119(6) . . .
123(6) . . .
106(5) . . .
128(6) . . .
112(6) . . .
127(6) . . .
124(6) . . .
114(6) . . .
121(6) . . .
123(6) . . .
116(6) . . .
134(6) . . .
128(6) . . .
113(5) . . .
125(6) . . .
123(6) . . .
107(6) . . .
119(6) . . .
121(6) . . .
116(6) . . .
131(6) . . .
127(6) . . .
121(6) . . .
131(6) . . .
133(6) . . .
125(6) . . .
125(6) . . .
130(6) . . .
123(6) . . .
118(6) . . .
104(5) . . .
128(6) . . .
118(6) . . .
134(6) . . .
106(6) . . .
111(6) . . .
123(6) . . .
118(6) . . .
124(6) . . .
105(6) . . .
120(6) . . .
118(6) . . .
124(6) . . .
129(6) . . .
105(5) . . .
114(6) . . .
124(6) . . .
132(6) . . .
128(6) . . .
120(6) . . .
118(6) . . .
121(6) . . .
114(6) . . .
123(6) . . .
117(6) . . .
119(6) . . .
126(6) . . .
114(6) . . .
116(6) . . .
135(6) . . .
131(6) . . .
131(6) . . .
121(6) . . .
115(6) . . .
123(6) . . .
128(6) . . .
127(6) . . .
122(6) . . .
124(6) . . .
120(6) . . .
123(6) . . .
121(6) . . .
116(6) . . .
118(6) . . .
119(6) . . .
126(6) . . .
125(6) . . .
132(6) . . .
129(6) . . .
125(6) . . .
124(6) . . .
119(6) . . .
129(6) . . .
122(6) . . .
104(6) . . .
129(6) . . .
117(6) . . .
115(6) . . .
116(6) . . .
123(6) . . .
114(6) . . .
114(6) . . .
103(5) . . .
122(6) . . .
117(6) . . .
116(6) . . .
128(6) . . .
125(6) . . .
120(6) . . .
110(6) . . .
110(6) . . .
122(6) . . .
131(6) . . .
134(6) . . .
128(6) . . .
129(6) . . .
123(6) . . .
125(6) . . .
125(6) . . .
109(6) . . .
111(6) . . .
120(6) . . .
123(6) . . .
119(6) . . .
120(6) . . .
113(6) . . .
101(5) . . .
125(6) . . .
131(6) . . .
141(7) . . .
115(6) . . .
112(6) . . .
122(6) . . .
115(6) . . .
119(6) . . .
122(6) . . .
109(5) . . .
133(6) . . .
123(6) . . .
134(6) . . .
127(6) . . .
119(6) . . .
121(6) . . .
134(6) . . .
122(6) . . .
121(6) . . .
120(6) . . .
115(6) . . .
112(6) . . .
122(6) . . .
133(6) . . .
111(5) . . .
115(6) . . .
124(6) . . .
107(6) . . .
138(6) . . .
124(6) . . .
122(6) . . .
137(7) . . .
120(6) . . .
116(6) . . .
113(5) . . .
114(6) . . .
118(6) . . .
127(6) . . .
128(6) . . .
130(6) . . .
126(6) . . .
125(6) . . .
124(6) . . .
124(6) . . .
121(6) . . .
123(6) . . .
116(6) . . .
125(6) . . .
135(6) . . .
122(6) . . .
111(6) . . .
106(6) . . .
124(6) . . .
126(6) . . .
120(6) . . .
126(6) . . .
127(6) . . .
104(6) . . .
133(6) . . .
128(6) . . .
127(6) . . .
117(6) . . .
132(6) . . .
100(5) . . .
131(6) . . .
128(6) . . .
112(6) . . .
122(6) . . .
119(6) . . .
122(6) . . .
125(6) . . .
127(6) . . .
123(6) . . .
120(6) . . .
119(6) . . .
125(6) . . .
116(6) . . .
114(6) . . .
135(6) . . .
113(6) . . .
96(5) . . .
125(6) . . .
116(6) . . .
142(6) . . .
109(6) . . .
117(6) . . .
106(6) . . .
110(6) . . .
116(6) . . .
108(6) . . .
130(6) . . .
111(6) . . .
125(6) . . .
119(6) . . .
124(6) . . .
130(7) . . .
123(6) . . .
142(6) . . .
124(6) . . .
129(6) . . .
124(6) . . .
117(6) . . .
108(5) . . .
101(5) . . .
118(6) . . .
114(6) . . .
127(6) . . .
105(5) . . .
124(6) . . .
116(6) . . .
119(6) . . .
134(6) . . .
123(6) . . .
125(6) . . .
120(6) . . .
121(6) . . .
129(6) . . .
117(6) . . .
133(6) . . .
109(6) . . .
121(6) . . .
123(6) . . .
124(6) . . .
130(6) . . .
117(6) . . .
108(6) . . .
102(5) . . .
117(6) . . .
110(6) . . .
121(6) . . .
123(6) . . .
115(6) . . .
107(5) . . .
116(6) . . .
123(6) . . .
133(6) . . .
113(6) . . .
120(6) . . .
123(6) . . .
119(6) . . .
135(6) . . .
116(6) . . .
101(5) . . .
129(6) . . .
129(6) . . .
130(6) . . .
123(6) . . .
113(6) . . .
119(6) . . .
117(6) . . .
124(6) . . .
105(5) . . .
117(6) . . .
132(6) . . .
117(6) . . .
123(6) . . .
124(6) . . .
120(6) . . .
115(6) . . .
132(6) . . .
120(6) . . .
128(6) . . .
119(6) . . .
114(6) . . .
128(6) . . .
126(6) . . .
125(6) . . .
126(6) . . .
120(6) . . .
127(6) . . .
129(6) . . .
117(6) . . .
116(6) . . .
117(6) . . .
117(6) . . .
122(6) . . .
122(6) . . .
120(6) . . .
114(6) . . .
119(6) . . .
117(6) . . .
107(5) . . .
128(6) . . .
122(6) . . .
113(6) . . .
112(6) . . .
104(5) . . .
108(5) . . .
115(6) . . .
102(6) . . .
102(5) . . .
119(6) . . .
119(6) . . .
118(6) . . .
113(6) . . .
114(6) . . .
109(6) . . .
114(6) . . .
131(6) . . .
124(6) . . .
125(6) . . .
112(5) . . .
119(6) . . .
109(6) . . .
121(6) . . .
115(6) . . .
118(6) . . .
116(6) . . .
114(6) . . .
123(6) . . .
107(5) . . .
116(6) . . .
121(6) . . .
117(6) . . .
146(6) . . .
132(6) . . .
116(6) . . .
116(6) . . .
105(5) . . .
115(6) . . .
127(6) . . .
112(6) . . .
121(6) . . .
130(6) . . .
135(6) . . .
125(6) . . .
123(6) . . .
125(6) . . .
125(6) . . .
121(6) . . .
117(6) . . .
130(6) . . .
120(6) . . .
111(5) . . .
121(6) . . .
134(6) . . .
118(6) . . .
124(6) . . .
114(6) . . .
105(5) . . .
128(6) . . .
120(6) . . .
123(6) . . .
116(6) . . .
106(5) . . .
115(6) . . .
129(6) . . .
110(6) . . .
115(6) . . .
123(6) . . .
137(6) . . .
123(6) . . .
110(6) . . .
120(6) . . .
126(6) . . .
123(6) . . .
115(6) . . .
109(6) . . .
116(6) . . .
129(6) . . .
112(6) . . .
111(6) . . .
120(6) . . .
112(6) . . .
119(6) . . .
101(5) . . .
125(6) . . .
115(6) . . .
112(6) . . .
115(6) . . .
112(6) . . .
109(6) . . .
107(6) . . .
123(6) . . .
121(6) . . .
127(6) . . .
114(6) . . .
121(6) . . .
126(6) . . .
106(5) . . .
119(6) . . .
115(6) . . .
107(5) . . .
117(6) . . .
121(6) . . .
107(5) . . .
123(6) . . .
105(5) . . .
129(6) . . .
124(6) . . .
134(6) . . .
139(7) . . .
144(7) . . .
110(5) . . .
105(5) . . .
112(6) . . .
127(6) . . .
135(6) . . .
134(6) . . .
130(6) . . .
120(6) . . .
114(6) . . .
123(6) . . .
132(6) . . .
120(6) . . .
118(6) . . .
109(6) . . .
128(6) . . .
106(5) . . .
121(6) . . .
118(6) . . .
129(6) . . .
125(6) . . .
122(6) . . .
112(6) . . .
119(6) . . .
119(6) . . .
121(6) . . .
134(6) . . .
116(6) . . .
108(5) . . .
111(6) . . .
120(6) . . .
105(5) . . .
124(6) . . .
129(6) . . .
138(6) . . .
115(6) . . .
118(6) . . .
115(6) . . .
130(6) . . .
129(6) . . .
117(6) . . .
121(6) . . .
115(6) . . .
122(6) . . .
131(6) . . .
122(6) . . .
113(6) . . .
119(6) . . .
133(6) . . .
120(6) . . .
115(6) . . .
114(5) . . .
124(6) . . .
122(6) . . .
110(6) . . .
128(6) . . .
124(6) . . .
105(5) . . .
115(6) . . .
125(6) . . .
109(5) . . .
120(6) . . .
131(6) . . .
114(6) . . .
124(6) . . .
135(6) . . .
125(6) . . .
127(6) . . .
122(6) . . .
117(6) . . .
113(6) . . .
125(6) . . .
126(6) . . .
125(6) . . .
110(6) . . .
123(6) . . .
111(6) . . .
115(6) . . .
125(6) . . .
108(6) . . .
123(6) . . .
112(6) . . .
128(7) . . .
116(6) . . .
114(6) . . .
129(6) . . .
112(6) . . .
103(6) . . .
112(6) . . .
114(6) . . .
115(6) . . .
108(6) . . .
112(6) . . .
131(6) . . .
111(6) . . .
107(5) . . .
113(6) . . .
114(6) . . .
107(6) . . .
107(5) . . .
120(6) . . .
112(6) . . .
119(6) . . .
116(6) . . .
109(5) . . .
114(6) . . .
129(6) . . .
125(6) . . .
126(6) . . .
124(6) . . .
135(6) . . .
133(6) . . .
120(6) . . .
110(6) . . .
127(6) . . .
116(6) . . .
110(5) . . .
111(6) . . .
119(6) . . .
118(6) . . .
122(6) . . .
116(6) . . .
117(6) . . .
116(6) . . .
108(5) . . .
129(6) . . .
116(6) . . .
110(6) . . .
112(6) . . .
119(6) . . .
124(6) . . .
121(6) . . .
112(6) . . .
105(5) . . .
124(6) . . .
108(6) . . .
118(6) . . .
108(6) . . .
117(6) . . .
122(6) . . .
122(6) . . .
120(6) . . .
127(6) . . .
123(6) . . .
121(6) . . .
104(6) . . .
124(6) . . .
116(6) . . .
119(6) . . .
113(5) . . .
121(6) . . .
124(6) . . .
120(6) . . .
113(6) . . .
133(6) . . .
124(6) . . .
113(6) . . .
121(6) . . .
113(6) . . .
114(6) . . .
115(6) . . .
101(6) . . .
125(6) . . .
127(6) . . .
110(5) . . .
118(6) . . .
116(6) . . .
124(6) . . .
126(6) . . .
119(6) . . .
122(6) . . .
120(6) . . .
113(6) . . .
141(6) . . .
129(6) . . .
112(6) . . .
116(6) . . .
110(6) . . .
104(5) . . .
118(6) . . .
125(6) . . .
129(6) . . .
122(6) . . .
108(5) . . .
105(5) . . .
120(6) . . .
133(6) . . .
104(5) . . .
122(6) . . .
117(6) . . .
115(6) . . .
113(6) . . .
110(6) . . .
113(5) . . .
115(6) . . .
115(6) . . .
113(6) . . .
114(6) . . .
106(5) . . .
116(6) . . .
119(6) . . .
101(5) . . .
123(6) . . .
133(6) . . .
133(6) . . .
111(6) . . .
116(6) . . .
120(6) . . .
107(5) . . .
116(6) . . .
116(6) . . .
117(6) . . .
103(5) . . .
116(6) . . .
118(6) . . .
112(6) . . .
125(6) . . .
122(6) . . .
139(6) . . .
135(6) . . .
128(6) . . .
120(6) . . .
130(6) . . .
132(6) . . .
107(6) . . .
107(6) . . .
115(6) . . .
111(5) . . .
113(6) . . .
107(6) . . .
109(6) . . .
123(6) . . .
125(6) . . .
131(6) . . .
128(6) . . .
119(6) . . .
116(6) . . .
117(6) . . .
114(6) . . .
120(6) . . .
108(6) . . .
106(5) . . .
139(6) . . .
135(6) . . .
116(6) . . .
122(6) . . .
124(6) . . .
119(6) . . .
121(6) . . .
126(6) . . .
140(6) . . .
121(6) . . .
114(6) . . .
106(5) . . .
123(6) . . .
132(6) . . .
128(6) . . .
112(6) . . .
115(6) . . .
115(6) . . .
110(6) . . .
124(6) . . .
125(6) . . .
105(6) . . .
100(5) . . .
112(6) . . .
117(6) . . .
114(6) . . .
129(6) . . .
120(6) . . .
128(6) . . .
125(6) . . .
109(5) . . .
99(5) . . .
110(6) . . .
114(6) . . .
108(5) . . .
115(6) . . .
129(6) . . .
110(6) . . .
115(6) . . .
115(6) . . .
112(6) . . .
106(6) . . .
103(6) . . .
109(5) . . .
123(6) . . .
118(6) . . .
116(6) . . .
112(6) . . .
118(6) . . .
110(5) . . .
119(6) . . .
114(6) . . .
107(5) . . .
113(6) . . .
111(6) . . .
117(6) . . .
122(6) . . .
125(6) . . .
119(6) . . .
111(5) . . .
123(6) . . .
113(6) . . .
124(6) . . .
131(6) . . .
129(6) . . .
118(6) . . .
115(6) . . .
130(6) . . .
127(6) . . .
121(6) . . .
117(6) . . .
119(6) . . .
125(6) . . .
126(6) . . .
114(6) . . .
113(6) . . .
117(6) . . .
116(6) . . .
112(6) . . .
120(6) . . .
121(6) . . .
101(5) . . .
121(6) . . .
115(6) . . .
132(6) . . .
117(6) . . .
119(6) . . .
113(6) . . .
131(6) . . .
107(5) . . .
107(6) . . .
112(6) . . .
118(6) . . .
113(5) . . .
117(6) . . .
120(6) . . .
139(6) . . .
116(6) . . .
122(6) . . .
132(6) . . .
108(5) . . .
121(6) . . .
108(6) . . .
108(5) . . .
126(6) . . .
105(6) . . .
102(6) . . .
109(5) . . .
124(6) . . .
124(6) . . .
120(6) . . .
123(6) . . .
121(6) . . .
111(6) . . .
109(6) . . .
112(6) . . .
120(6) . . .
114(5) . . .
119(6) . . .
107(5) . . .
115(6) . . .
114(6) . . .
122(6) . . .
116(6) . . .
115(6) . . .
116(6) . . .
122(6) . . .
110(5) . . .
103(5) . . .
110(5) . . .
125(6) . . .
122(6) . . .
126(6) . . .
139(6) . . .
119(6) . . .
118(6) . . .
127(6) . . .
112(5) . . .
122(6) . . .
124(6) . . .
116(6) . . .
125(6) . . .
115(6) . . .
123(6) . . .
107(5) . . .
108(6) . . .
113(5) . . .
132(6) . . .
119(6) . . .
125(6) . . .
117(6) . . .
114(6) . . .
115(6) . . .
132(6) . . .
118(6) . . .
105(5) . . .
119(6) . . .
124(6) . . .
131(6) . . .
115(6) . . .
115(6) . . .
124(6) . . .
127(6) . . .
117(6) . . .
118(6) . . .
123(6) . . .
107(5) . . .
121(6) . . .
120(6) . . .
110(6) . . .
113(6) . . .
115(6) . . .
113(6) . . .
112(6) . . .
121(6) . . .
123(6) . . .
114(5) . . .
131(6) . . .
112(6) . . .
110(6) . . .
120(6) . . .
121(6) . . .
116(6) . . .
122(6) . . .
123(6) . . .
121(6) . . .
130(6) . . .
122(6) . . .
123(6) . . .
120(6) . . .
120(6) . . .
111(6) . . .
115(6) . . .
120(6) . . .
112(6) . . .
112(6) . . .
115(6) . . .
111(6) . . .
130(6) . . .
122(6) . . .
121(6) . . .
121(6) . . .
120(6) . . .
110(6) . . .
110(6) . . .
114(6) . . .
112(6) . . .
103(5) . . .
103(6) . . .
105(5) . . .
128(6) . . .
137(6) . . .
111(6) . . .
124(6) . . .
115(6) . . .
123(6) . . .
107(5) . . .
119(6) . . .
111(6) . . .
123(6) . . .
118(6) . . .
107(5) . . .
102(5) . . .
122(6) . . .
112(6) . . .
127(6) . . .
117(6) . . .
120(6) . . .
116(6) . . .
119(6) . . .
124(6) . . .
115(6) . . .
108(6) . . .
119(6) . . .
101(6) . . .
109(5) . . .
112(6) . . .
113(6) . . .
119(6) . . .
103(5) . . .
104(5) . . .
113(6) . . .
118(6) . . .
113(6) . . .
117(6) . . .
105(5) . . .
95(6) . . .
101(5) . . .
117(6) . . .
117(6) . . .
120(6) . . .
129(6) . . .
107(6) . . .
115(6) . . .
129(6) . . .
122(6) . . .
109(6) . . .
101(6) . . .
121(6) . . .
103(5) . . .
119(6) . . .
119(6) . . .
121(6) . . .
119(6) . . .
121(6) . . .
108(5) . . .
106(5) . . .
106(5) . . .
107(5) . . .
126(6) . . .
102(5) . . .
107(6) . . .
116(6) . . .
114(6) . . .
110(5) . . .
117(6) . . .
123(6) . . .
124(6) . . .
124(6) . . .
111(6) . . .
116(6) . . .
112(6) . . .
107(6) . . .
110(6) . . .
117(6) . . .
109(5) . . .
112(6) . . .
98(5) . . .
113(6) . . .
106(5) . . .
111(6) . . .
122(6) . . .
102(5) . . .
111(6) . . .
113(5) . . .
111(6) . . .
110(6) . . .
122(6) . . .
114(6) . . .
117(6) . . .
108(5) . . .
117(6) . . .
112(6) . . .
114(6) . . .
114(6) . . .
119(6) . . .
122(6) . . .
98(5) . . .
116(6) . . .
101(5) . . .
120(6) . . .
112(6) . . .
130(6) . . .
113(6) . . .
110(5) . . .
119(6) . . .
118(6) . . .
110(6) . . .
116(6) . . .
126(6) . . .
110(6) . . .
106(6) . . .
99(5) . . .
120(6) . . .
118(6) . . .
107(5) . . .
117(6) . . .
125(6) . . .
121(6) . . .
111(6) . . .
96(5) . . .
100(5) . . .
118(6) . . .
115(6) . . .
108(6) . . .
112(6) . . .
113(6) . . .
107(6) . . .
122(6) . . .
108(6) . . .
119(6) . . .
116(6) . . .
113(6) . . .
109(5) . . .
113(6) . . .
110(6) . . .
106(6) . . .
107(5) . . .
105(5) . . .
105(5) . . .
108(6) . . .
110(6) . . .
111(5) . . .
104(5) . . .
128(6) . . .
112(6) . . .
102(5) . . .
111(5) . . .
110(5) . . .
114(6) . . .
118(6) . . .
111(6) . . .
130(6) . . .
102(5) . . .
114(6) . . .
117(6) . . .
114(6) . . .
105(5) . . .
111(5) . . .
114(6) . . .
100(5) . . .
110(6) . . .
115(6) . . .
118(6) . . .
95(5) . . .
112(6) . . .
116(6) . . .
113(6) . . .
123(6) . . .
115(6) . . .
107(6) . . .
119(6) . . .
117(6) . . .
125(6) . . .
131(6) . . .
109(5) . . .
109(6) . . .
121(6) . . .
119(6) . . .
133(6) . . .
115(6) . . .
98(5) . . .
112(6) . . .
115(6) . . .
110(6) . . .
117(6) . . .
121(6) . . .
105(5) . . .
105(6) . . .
99(5) . . .
123(6) . . .
97(5) . . .
108(5) . . .
110(6) . . .
111(6) . . .
114(6) . . .
100(5) . . .
119(6) . . .
120(6) . . .
106(6) . . .
114(6) . . .
113(5) . . .
123(6) . . .
106(5) . . .
109(6) . . .
102(5) . . .
109(5) . . .
119(6) . . .
121(6) . . .
113(6) . . .
111(6) . . .
111(5) . . .
103(5) . . .
122(6) . . .
107(6) . . .
125(6) . . .
124(6) . . .
112(6) . . .
107(6) . . .
118(6) . . .
113(6) . . .
104(5) . . .
130(6) . . .
106(6) . . .
121(6) . . .
125(6) . . .
116(6) . . .
107(5) . . .
119(6) . . .
111(6) . . .
125(6) . . .
128(6) . . .
108(6) . . .
109(6) . . .
111(6) . . .
111(6) . . .
116(6) . . .
111(6) . . .
107(6) . . .
113(6) . . .
100(5) . . .
95(5) . . .
121(6) . . .
113(6) . . .
113(6) . . .
110(5) . . .
106(5) . . .
114(6) . . .
103(5) . . .
121(6) . . .
110(5) . . .
115(6) . . .
101(5) . . .
114(6) . . .
110(6) . . .
110(5) . . .
117(6) . . .
110(6) . . .
109(6) . . .
129(6) . . .
102(5) . . .
111(5) . . .
106(5) . . .
102(5) . . .
111(6) . . .
104(5) . . .
126(6) . . .
112(6) . . .
107(6) . . .
95(5) . . .
124(6) . . .
115(6) . . .
118(6) . . .
120(6) . . .
107(5) . . .
124(6) . . .
110(6) . . .
109(5) . . .
115(6) . . .
114(6) . . .
115(6) . . .
117(6) . . .
123(6) . . .
123(6) . . .
104(5) . . .
102(5) . . .
112(6) . . .
107(6) . . .
103(5) . . .
117(6) . . .
101(5) . . .
109(6) . . .
126(6) . . .
114(6) . . .
106(5) . . .
103(5) . . .
113(6) . . .
119(6) . . .
115(6) . . .
120(6) . . .
111(5) . . .
113(6) . . .
123(6) . . .
110(6) . . .
120(6) . . .
118(6) . . .
102(5) . . .
112(6) . . .
102(5) . . .
107(5) . . .
97(5) . . .
125(6) . . .
98(5) . . .
104(6) . . .
117(6) . . .
123(6) . . .
120(6) . . .
118(6) . . .
118(6) . . .
113(6) . . .
116(6) . . .
99(5) . . .
120(6) . . .
110(6) . . .
138(6) . . .
107(6) . . .
100(5) . . .
115(6) . . .
101(5) . . .
110(5) . . .
98(5) . . .
122(6) . . .
104(5) . . .
97(5) . . .
99(5) . . .
109(6) . . .
106(6) . . .
107(6) . . .
122(6) . . .
109(5) . . .
108(6) . . .
117(6) . . .
104(5) . . .
100(5) . . .
104(5) . . .
118(6) . . .
94(5) . . .
104(6) . . .
107(5) . . .
104(5) . . .
109(6) . . .
103(6) . . .
104(5) . . .
116(6) . . .
110(5) . . .
119(6) . . .
112(6) . . .
127(6) . . .
114(6) . . .
114(6) . . .
109(6) . . .
120(6) . . .
116(6) . . .
118(6) . . .
111(5) . . .
99(5) . . .
92(5) . . .
108(6) . . .
106(5) . . .
119(6) . . .
115(6) . . .
117(6) . . .
110(6) . . .
100(5) . . .
102(5) . . .
112(6) . . .
107(6) . . .
103(6) . . .
105(5) . . .
110(6) . . .
104(5) . . .
101(5) . . .
115(6) . . .
104(5) . . .
121(6) . . .
105(5) . . .
105(5) . . .
115(6) . . .
100(5) . . .
98(5) . . .
106(6) . . .
115(6) . . .
110(5) . . .
114(6) . . .
111(6) . . .
104(6) . . .
99(5) . . .
111(6) . . .
115(6) . . .
104(5) . . .
124(6) . . .
116(6) . . .
117(6) . . .
110(5) . . .
116(6) . . .
123(6) . . .
115(6) . . .
102(5) . . .
114(6) . . .
99(5) . . .
111(6) . . .
119(6) . . .
109(5) . . .
113(6) . . .
115(6) . . .
118(6) . . .
121(6) . . .
111(5) . . .
100(5) . . .
98(5) . . .
100(6) . . .
125(6) . . .
125(6) . . .
113(6) . . .
110(6) . . .
123(6) . . .
97(5) . . .
110(5) . . .
107(6) . . .
127(6) . . .
109(6) . . .
121(6) . . .
115(6) . . .
113(6) . . .
115(6) . . .
124(6) . . .
100(5) . . .
110(5) . . .
105(6) . . .
112(6) . . .
124(6) . . .
126(6) . . .
112(5) . . .
111(6) . . .
100(5) . . .
115(6) . . .
121(6) . . .
108(5) . . .
98(5) . . .
109(6) . . .
110(6) . . .
101(5) . . .
113(6) . . .
110(6) . . .
94(5) . . .
114(6) . . .
116(6) . . .
105(5) . . .
108(6) . . .
107(6) . . .
98(5) . . .
114(6) . . .
107(5) . . .
112(6) . . .
111(6) . . .
115(6) . . .
104(5) . . .
127(6) . . .
112(6) . . .
102(6) . . .
107(6) . . .
101(5) . . .
104(5) . . .
111(6) . . .
104(6) . . .
110(6) . . .
118(6) . . .
112(6) . . .
107(6) . . .
117(6) . . .
105(5) . . .
110(5) . . .
130(6) . . .
116(6) . . .
112(6) . . .
118(6) . . .
112(6) . . .
127(6) . . .
114(6) . . .
116(6) . . .
116(6) . . .
100(5) . . .
108(6) . . .
109(6) . . .
92(5) . . .
128(6) . . .
110(6) . . .
103(5) . . .
96(5) . . .
108(6) . . .
115(6) . . .
112(6) . . .
114(6) . . .
95(5) . . .
105(5) . . .
107(5) . . .
102(5) . . .
101(5) . . .
110(6) . . .
117(6) . . .
106(5) . . .
107(5) . . .
99(5) . . .
110(6) . . .
107(6) . . .
123(6) . . .
101(5) . . .
127(7) . . .
117(6) . . .
118(6) . . .
99(5) . . .
121(6) . . .
110(6) . . .
110(6) . . .
117(6) . . .
106(5) . . .
109(6) . . .
102(5) . . .
112(6) . . .
111(6) . . .
102(5) . . .
114(6) . . .
105(6) . . .
109(6) . . .
128(6) . . .
110(5) . . .
96(5) . . .
102(6) . . .
102(5) . . .
103(5) . . .
119(6) . . .
118(6) . . .
102(5) . . .
111(6) . . .
100(5) . . .
102(5) . . .
115(6) . . .
110(6) . . .
104(5) . . .
104(5) . . .
110(5) . . .
102(5) . . .
105(6) . . .
107(6) . . .
90(5) . . .
108(5) . . .
111(6) . . .
116(6) . . .
120(6) . . .
99(5) . . .
96(5) . . .
108(5) . . .
115(6) . . .
100(5) . . .
106(5) . . .
114(6) . . .
109(6) . . .
107(6) . . .
114(6) . . .
114(6) . . .
101(5) . . .
105(6) . . .
110(6) . . .
125(6) . . .
107(5) . . .
100(5) . . .
109(6) . . .
94(5) . . .
96(5) . . .
108(5) . . .
110(6) . . .
118(6) . . .
101(5) . . .
112(6) . . .
116(6) . . .
118(6) . . .
116(6) . . .
114(6) . . .
94(5) . . .
107(5) . . .
99(5) . . .
114(6) . . .
112(6) . . .
119(6) . . .
117(6) . . .
123(6) . . .
125(6) . . .
95(5) . . .
113(6) . . .
120(6) . . .
111(6) . . .
100(5) . . .
107(6) . . .
110(6) . . .
103(5) . . .
107(6) . . .
112(6) . . .
108(6) . . .
107(5) . . .
108(5) . . .
87(5) . . .
112(6) . . .
106(5) . . .
108(5) . . .
106(5) . . .
110(6) . . .
98(5) . . .
100(5) . . .
114(6) . . .
111(6) . . .
105(5) . . .
110(6) . . .
119(6) . . .
101(5) . . .
104(5) . . .
101(5) . . .
115(6) . . .
108(6) . . .
111(5) . . .
107(5) . . .
99(5) . . .
96(5) . . .
123(6) . . .
109(5) . . .
119(6) . . .
103(5) . . .
110(6) . . .
107(5) . . .
118(6) . . .
115(6) . . .
104(5) . . .
105(5) . . .
121(6) . . .
121(6) . . .
114(6) . . .
122(6) . . .
105(5) . . .
121(6) . . .
123(6) . . .
98(5) . . .
114(6) . . .
97(5) . . .
96(5) . . .
116(6) . . .
104(6) . . .
108(6) . . .
112(6) . . .
95(5) . . .
114(6) . . .
107(5) . . .
104(6) . . .
109(6) . . .
97(5) . . .
114(6) . . .
112(6) . . .
124(6) . . .
119(6) . . .
92(5) . . .
101(5) . . .
133(6) . . .
122(6) . . .
109(5) . . .
110(5) . . .
108(5) . . .
103(5) . . .
114(6) . . .
114(6) . . .
100(5) . . .
94(5) . . .
114(6) . . .
112(6) . . .
108(6) . . .
111(5) . . .
106(6) . . .
119(6) . . .
104(5) . . .
111(6) . . .
115(6) . . .
112(6) . . .
99(5) . . .
112(6) . . .
108(5) . . .
109(5) . . .
108(6) . . .
119(6) . . .
105(5) . . .
110(6) . . .
108(5) . . .
128(6) . . .
113(6) . . .
111(6) . . .
96(5) . . .
121(6) . . .
97(5) . . .
103(6) . . .
106(6) . . .
112(5) . . .
101(5) . . .
110(6) . . .
106(6) . . .
102(5) . . .
104(5) . . .
102(5) . . .
113(6) . . .
109(6) . . .
106(6) . . .
99(5) . . .
112(6) . . .
100(5) . . .
133(6) . . .
113(6) . . .
115(6) . . .
108(6) . . .
90(5) . . .
112(6) . . .
106(5) . . .
112(5) . . .
98(5) . . .
127(6) . . .
103(5) . . .
96(5) . . .
103(5) . . .
107(5) . . .
108(6) . . .
94(5) . . .
111(6) . . .
122(6) . . .
96(5) . . .
116(6) . . .
106(5) . . .
112(5) . . .
126(6) . . .
109(6) . . .
106(6) . . .
102(5) . . .
100(5) . . .
115(6) . . .
105(6) . . .
106(6) . . .
110(6) . . .
114(6) . . .
108(5) . . .
116(6) . . .
112(6) . . .
110(6) . . .
113(5) . . .
111(6) . . .
101(5) . . .
108(6) . . .
111(6) . . .
109(5) . . .
119(6) . . .
97(5) . . .
117(6) . . .
109(6) . . .
103(5) . . .
98(5) . . .
116(6) . . .
110(6) . . .
109(5) . . .
115(6) . . .
111(6) . . .
110(5) . . .
100(6) . . .
115(6) . . .
113(6) . . .
100(5) . . .
107(6) . . .
106(6) . . .
104(5) . . .
112(5) . . .
112(6) . . .
119(6) . . .
99(5) . . .
108(6) . . .
111(5) . . .
110(6) . . .
95(5) . . .
113(6) . . .
110(6) . . .
107(5) . . .
115(6) . . .
116(6) . . .
103(5) . . .
115(6) . . .
106(5) . . .
102(6) . . .
108(6) . . .
96(5) . . .
99(5) . . .
94(5) . . .
110(6) . . .
109(6) . . .
107(6) . . .
107(5) . . .
108(5) . . .
100(5) . . .
100(6) . . .
92(5) . . .
98(5) . . .
111(6) . . .
110(6) . . .
103(6) . . .
98(5) . . .
92(5) . . .
99(5) . . .
110(6) . . .
110(6) . . .
109(6) . . .
109(5) . . .
103(5) . . .
112(6) . . .
112(6) . . .
101(6) . . .
99(5) . . .
99(5) . . .
103(6) . . .
89(5) . . .
100(5) . . .
125(6) . . .
101(5) . . .
101(5) . . .
112(6) . . .
112(6) . . .
98(5) . . .
116(6) . . .
122(6) . . .
95(5) . . .
100(5) . . .
106(5) . . .
101(5) . . .
98(6) . . .
102(5) . . .
111(6) . . .
98(5) . . .
117(6) . . .
110(6) . . .
111(6) . . .
118(6) . . .
103(5) . . .
95(5) . . .
107(6) . . .
109(6) . . .
122(6) . . .
115(6) . . .
111(6) . . .
116(6) . . .
101(5) . . .
109(5) . . .
107(5) . . .
115(6) . . .
105(6) . . .
116(6) . . .
98(5) . . .
112(6) . . .
102(5) . . .
97(5) . . .
94(5) . . .
111(5) . . .
103(5) . . .
98(6) . . .
94(5) . . .
113(6) . . .
93(5) . . .
100(5) . . .
109(5) . . .
111(6) . . .
102(5) . . .
100(5) . . .
104(6) . . .
96(5) . . .
112(6) . . .
119(6) . . .
103(5) . . .
110(5) . . .
128(6) . . .
102(6) . . .
92(5) . . .
105(5) . . .
105(6) . . .
97(5) . . .
96(5) . . .
107(5) . . .
101(5) . . .
101(5) . . .
96(6) . . .
100(5) . . .
106(5) . . .
107(5) . . .
111(6) . . .
112(6) . . .
112(6) . . .
110(5) . . .
112(5) . . .
111(6) . . .
102(5) . . .
100(5) . . .
90(5) . . .
89(5) . . .
112(6) . . .
119(6) . . .
105(5) . . .
106(5) . . .
118(6) . . .
104(5) . . .
120(6) . . .
93(5) . . .
95(5) . . .
103(5) . . .
99(5) . . .
106(6) . . .
108(6) . . .
105(5) . . .
114(6) . . .
97(5) . . .
105(6) . . .
92(5) . . .
102(5) . . .
117(6) . . .
97(5) . . .
115(6) . . .
98(5) . . .
104(5) . . .
115(6) . . .
113(6) . . .
93(5) . . .
109(6) . . .
96(5) . . .
106(5) . . .
107(6) . . .
99(5) . . .
98(5) . . .
101(5) . . .
107(5) . . .
107(6) . . .
103(5) . . .
115(6) . . .
107(5) . . .
109(6) . . .
117(6) . . .
93(5) . . .
107(5) . . .
108(5) . . .
89(5) . . .
103(6) . . .
102(5) . . .
116(6) . . .
93(5) . . .
99(5) . . .
97(6) . . .
105(6) . . .
103(5) . . .
92(5) . . .
107(6) . . .
111(6) . . .
97(5) . . .
98(5) . . .
80(5) . . .
86(5) . . .
96(5) . . .
117(6) . . .
105(5) . . .
105(5) . . .
115(6) . . .
104(5) . . .
93(5) . . .
91(5) . . .
112(6) . . .
107(6) . . .
108(6) . . .
104(5) . . .
107(5) . . .
115(6) . . .
111(6) . . .
100(5) . . .
105(6) . . .
118(6) . . .
106(6) . . .
111(6) . . .
109(6) . . .
111(6) . . .
111(5) . . .
105(5) . . .
100(5) . . .
107(6) . . .
107(5) . . .
111(5) . . .
100(5) . . .
102(6) . . .
106(6) . . .
125(6) . . .
120(6) . . .
111(6) . . .
96(5) . . .
106(6) . . .
95(5) . . .
107(5) . . .
107(6) . . .
101(6) . . .
122(6) . . .
89(5) . . .
117(6) . . .
111(6) . . .
108(6) . . .
113(6) . . .
105(5) . . .
102(5) . . .
96(5) . . .
113(6) . . .
100(5) . . .
105(5) . . .
102(5) . . .
99(5) . . .
125(6) . . .
103(5) . . .
89(5) . . .
109(6) . . .
102(5) . . .
109(6) . . .
99(5) . . .
110(5) . . .
107(6) . . .
101(5) . . .
114(6) . . .
122(6) . . .
112(5) . . .
112(6) . . .
109(6) . . .
108(6) . . .
109(5) . . .
105(5) . . .
104(5) . . .
120(6) . . .
108(5) . . .
103(5) . . .
101(5) . . .
105(5) . . .
107(6) . . .
106(6) . . .
106(5) . . .
113(6) . . .
102(5) . . .
104(6) . . .
112(6) . . .
110(6) . . .
125(6) . . .
121(6) . . .
103(6) . . .
100(5) . . .
94(5) . . .
100(5) . . .
109(6) . . .
101(6) . . .
91(5) . . .
113(5) . . .
107(5) . . .
106(6) . . .
106(6) . . .
98(5) . . .
116(6) . . .
120(6) . . .
104(5) . . .
111(6) . . .
108(6) . . .
105(5) . . .
103(5) . . .
90(5) . . .
100(5) . . .
102(6) . . .
112(5) . . .
114(6) . . .
111(6) . . .
115(6) . . .
116(6) . . .
94(5) . . .
94(5) . . .
126(6) . . .
110(6) . . .
106(5) . . .
109(5) . . .
113(6) . . .
110(6) . . .
111(6) . . .
109(6) . . .
93(5) . . .
98(5) . . .
100(6) . . .
107(6) . . .
110(5) . . .
102(5) . . .
95(5) . . .
112(6) . . .
100(6) . . .
98(5) . . .
103(5) . . .
101(5) . . .
108(6) . . .
112(6) . . .
112(6) . . .
115(6) . . .
116(6) . . .
106(6) . . .
110(6) . . .
120(6) . . .
106(5) . . .
112(6) . . .
84(5) . . .
95(5) . . .
101(5) . . .
102(5) . . .
105(5) . . .
112(6) . . .
110(6) . . .
97(5) . . .
96(5) . . .
101(5) . . .
99(5) . . .
103(6) . . .
95(5) . . .
105(5) . . .
98(5) . . .
105(6) . . .
107(6) . . .
105(5) . . .
97(5) . . .
103(6) . . .
120(6) . . .
88(5) . . .
110(5) . . .
118(6) . . .
108(6) . . .
113(6) . . .
99(5) . . .
97(5) . . .
91(5) . . .
108(6) . . .
98(5) . . .
110(6) . . .
101(5) . . .
103(5) . . .
99(6) . . .
100(6) . . .
95(5) . . .
88(5) . . .
94(5) . . .
114(6) . . .
104(6) . . .
103(5) . . .
96(5) . . .
103(5) . . .
103(6) . . .
97(5) . . .
109(5) . . .
113(6) . . .
102(5) . . .
100(6) . . .
112(6) . . .
118(6) . . .
107(5) . . .
92(5) . . .
107(6) . . .
107(6) . . .
105(5) . . .
110(5) . . .
107(6) . . .
104(6) . . .
101(5) . . .
117(6) . . .
109(5) . . .
102(5) . . .
107(6) . . .
97(5) . . .
99(5) . . .
111(6) . . .
116(6) . . .
119(6) . . .
98(5) . . .
94(5) . . .
88(5) . . .
105(6) . . .
108(6) . . .
99(5) . . .
104(5) . . .
96(5) . . .
100(5) . . .
94(5) . . .
93(5) . . .
114(6) . . .
102(5) . . .
107(6) . . .
97(5) . . .
90(5) . . .
97(5) . . .
103(6) . . .
101(6) . . .
95(5) . . .
102(5) . . .
104(5) . . .
107(6) . . .
98(6) . . .
87(5) . . .
98(5) . . .
84(5) . . .
99(5) . . .
99(5) . . .
100(5) . . .
103(5) . . .
96(5) . . .
100(5) . . .
93(5) . . .
100(6) . . .
85(5) . . .
113(6) . . .
87(5) . . .
94(5) . . .
108(6) . . .
82(5) . . .
95(5) . . .
105(6) . . .
109(6) . . .
111(6) . . .
96(5) . . .
106(5) . . .
122(6) . . .
117(6) . . .
95(5) . . .
101(5) . . .
92(5) . . .
95(5) . . .
106(6) . . .
106(5) . . .
97(5) . . .
98(5) . . .
98(5) . . .
93(5) . . .
98(5) . . .
99(5) . . .
95(5) . . .
108(6) . . .
100(5) . . .
129(6) . . .
110(5) . . .
120(6) . . .
108(6) . . .
103(6) . . .
102(5) . . .
95(5) . . .
100(5) . . .
102(6) . . .
99(5) . . .
102(5) . . .
91(5) . . .
96(5) . . .
98(5) . . .
95(5) . . .
113(5) . . .
97(5) . . .
93(5) . . .
100(5) . . .
115(6) . . .
98(5) . . .
95(5) . . .
102(6) . . .
111(6) . . .
99(5) . . .
99(5) . . .
95(5) . . .
99(5) . . .
113(6) . . .
106(6) . . .
99(5) . . .
101(5) . . .
100(5) . . .
97(5) . . .
95(5) . . .
85(5) . . .
95(5) . . .
120(6) . . .
98(5) . . .
111(5) . . .
108(5) . . .
94(5) . . .
99(5) . . .
102(5) . . .
95(5) . . .
99(5) . . .
96(5) . . .
98(5) . . .
103(5) . . .
107(5) . . .
111(5) . . .
109(6) . . .
109(6) . . .
96(5) . . .
103(5) . . .
115(6) . . .
100(5) . . .
109(6) . . .
100(5) . . .
100(5) . . .
91(5) . . .
116(6) . . .
99(5) . . .
92(5) . . .
108(5) . . .
103(5) . . .
92(5) . . .
96(5) . . .
85(5) . . .
98(5) . . .
96(5) . . .
100(5) . . .
114(6) . . .
110(6) . . .
104(5) . . .
107(5) . . .
111(6) . . .
104(6) . . .
95(5) . . .
98(5) . . .
95(5) . . .
87(5) . . .
102(5) . . .
97(5) . . .
121(6) . . .
105(5) . . .
101(5) . . .
110(6) . . .
109(6) . . .
93(5) . . .
116(6) . . .
96(5) . . .
103(5) . . .
104(5) . . .
99(5) . . .
110(6) . . .
99(5) . . .
102(5) . . .
101(5) . . .
108(6) . . .
97(5) . . .
92(5) . . .
110(6) . . .
94(5) . . .
102(5) . . .
91(5) . . .
97(5) . . .
92(5) . . .
101(5) . . .
102(5) . . .
98(5) . . .
93(5) . . .
94(5) . . .
95(5) . . .
110(5) . . .
115(6) . . .
101(5) . . .
103(6) . . .
117(6) . . .
107(5) . . .
104(5) . . .
99(6) . . .
103(6) . . .
90(5) . . .
77(5) . . .
89(5) . . .
103(6) . . .
95(5) . . .
107(5) . . .
104(6) . . .
100(5) . . .
112(6) . . .
92(5) . . .
104(5) . . .
102(5) . . .
88(5) . . .
100(5) . . .
92(5) . . .
93(5) . . .
98(5) . . .
104(6) . . .
103(6) . . .
105(5) . . .
100(5) . . .
113(6) . . .
91(5) . . .
102(5) . . .
98(5) . . .
80(5) . . .
92(5) . . .
99(5) . . .
111(6) . . .
92(5) . . .
96(5) . . .
81(5) . . .
114(6) . . .
94(5) . . .
113(6) . . .
94(5) . . .
94(5) . . .
101(6) . . .
113(6) . . .
115(6) . . .
112(5) . . .
110(6) . . .
105(6) . . .
112(6) . . .
103(5) . . .
92(5) . . .
97(5) . . .
105(6) . . .
102(5) . . .
87(5) . . .
78(5) . . .
93(5) . . .
100(5) . . .
96(5) . . .
95(5) . . .
107(6) . . .
101(6) . . .
104(6) . . .
100(5) . . .
102(5) . . .
102(5) . . .
90(5) . . .
91(5) . . .
106(5) . . .
89(5) . . .
106(6) . . .
102(5) . . .
112(6) . . .
110(6) . . .
122(6) . . .
104(6) . . .
91(5) . . .
104(5) . . .
113(6) . . .
90(5) . . .
103(5) . . .
102(5) . . .
99(5) . . .
95(5) . . .
100(5) . . .
109(6) . . .
109(6) . . .
105(5) . . .
102(5) . . .
101(5) . . .
94(5) . . .
100(6) . . .
83(5) . . .
114(6) . . .
96(5) . . .
95(5) . . .
100(6) . . .
96(5) . . .
104(5) . . .
98(5) . . .
109(6) . . .
112(6) . . .
105(5) . . .
95(5) . . .
113(6) . . .
94(5) . . .
111(6) . . .
98(5) . . .
96(5) . . .
92(5) . . .
104(6) . . .
102(5) . . .
100(5) . . .
94(5) . . .
91(5) . . .
93(5) . . .
102(6) . . .
97(5) . . .
99(5) . . .
106(6) . . .
99(5) . . .
92(5) . . .
109(6) . . .
93(5) . . .
98(5) . . .
101(5) . . .
102(5) . . .
106(5) . . .
101(5) . . .
102(5) . . .
97(5) . . .
88(5) . . .
97(5) . . .
100(5) . . .
106(6) . . .
105(6) . . .
95(5) . . .
90(5) . . .
106(5) . . .
89(5) . . .
94(6) . . .
98(5) . . .
92(5) . . .
93(5) . . .
103(5) . . .
101(6) . . .
110(6) . . .
101(5) . . .
101(5) . . .
93(5) . . .
101(6) . . .
92(5) . . .
96(5) . . .
95(5) . . .
99(5) . . .
92(5) . . .
88(5) . . .
105(5) . . .
101(5) . . .
89(5) . . .
99(5) . . .
108(5) . . .
94(5) . . .
93(5) . . .
91(5) . . .
104(6) . . .
110(6) . . .
110(5) . . .
100(5) . . .
93(5) . . .
100(5) . . .
96(5) . . .
99(5) . . .
93(5) . . .
107(6) . . .
90(5) . . .
98(5) . . .
96(5) . . .
109(6) . . .
98(5) . . .
102(5) . . .
94(5) . . .
95(5) . . .
86(5) . . .
93(5) . . .
100(5) . . .
86(5) . . .
88(5) . . .
103(6) . . .
96(5) . . .
102(5) . . .
99(5) . . .
104(5) . . .
87(5) . . .
90(5) . . .
95(5) . . .
112(6) . . .
125(6) . . .
103(5) . . .
111(6) . . .
100(5) . . .
103(5) . . .
110(5) . . .
116(6) . . .
96(5) . . .
99(5) . . .
101(5) . . .
101(5) . . .
104(5) . . .
100(5) . . .
103(5) . . .
92(5) . . .
88(5) . . .
106(6) . . .
99(5) . . .
95(5) . . .
96(5) . . .
99(5) . . .
99(5) . . .
86(5) . . .
87(5) . . .
106(5) . . .
112(6) . . .
116(6) . . .
99(5) . . .
95(5) . . .
99(5) . . .
99(5) . . .
95(5) . . .
96(5) . . .
97(5) . . .
100(5) . . .
90(5) . . .
98(6) . . .
108(6) . . .
103(5) . . .
89(5) . . .
101(6) . . .
91(5) . . .
99(5) . . .
91(5) . . .
99(5) . . .
113(6) . . .
97(5) . . .
98(5) . . .
106(5) . . .
95(5) . . .
93(5) . . .
97(5) . . .
108(6) . . .
101(5) . . .
112(6) . . .
94(5) . . .
94(5) . . .
90(5) . . .
98(5) . . .
95(5) . . .
113(6) . . .
103(5) . . .
98(5) . . .
88(5) . . .
108(6) . . .
86(5) . . .
97(5) . . .
113(6) . . .
95(5) . . .
98(5) . . .
98(5) . . .
106(6) . . .
109(6) . . .
113(5) . . .
107(6) . . .
92(5) . . .
80(5) . . .
86(5) . . .
105(5) . . .
102(5) . . .
96(5) . . .
90(5) . . .
95(5) . . .
103(5) . . .
99(5) . . .
99(5) . . .
97(5) . . .
98(5) . . .
103(5) . . .
109(6) . . .
94(5) . . .
104(6) . . .
106(5) . . .
88(5) . . .
99(5) . . .
100(6) . . .
102(5) . . .
98(5) . . .
87(5) . . .
80(5) . . .
92(5) . . .
91(5) . . .
93(5) . . .
100(5) . . .
103(5) . . .
109(6) . . .
105(6) . . .
81(5) . . .
97(5) . . .
103(6) . . .
100(5) . . .
101(6) . . .
102(5) . . .
97(5) . . .
102(5) . . .
110(6) . . .
86(5) . . .
91(5) . . .
91(5) . . .
84(5) . . .
100(5) . . .
100(5) . . .
107(5) . . .
90(5) . . .
86(5) . . .
98(5) . . .
99(5) . . .
105(5) . . .
93(5) . . .
103(6) . . .
92(5) . . .
101(5) . . .
103(5) . . .
109(6) . . .
108(6) . . .
92(5) . . .
93(5) . . .
95(5) . . .
97(6) . . .
105(6) . . .
96(5) . . .
95(5) . . .
101(5) . . .
102(5) . . .
99(6) . . .
93(5) . . .
103(5) . . .
110(5) . . .
102(5) . . .
88(5) . . .
98(6) . . .
83(5) . . .
90(5) . . .
92(5) . . .
110(6) . . .
103(5) . . .
93(5) . . .
89(5) . . .
95(5) . . .
105(6) . . .
104(5) . . .
99(5) . . .
105(5) . . .
102(5) . . .
95(5) . . .
107(6) . . .
100(5) . . .
99(5) . . .
99(5) . . .
100(5) . . .
86(5) . . .
91(5) . . .
88(5) . . .
94(5) . . .
96(6) . . .
90(5) . . .
101(5) . . .
90(5) . . .
84(5) . . .
96(5) . . .
97(5) . . .
94(5) . . .
92(5) . . .
99(6) . . .
91(5) . . .
100(5) . . .
98(5) . . .
93(5) . . .
98(6) . . .
86(5) . . .
100(5) . . .
96(5) . . .
93(5) . . .
98(6) . . .
101(6) . . .
89(5) . . .
89(5) . . .
93(5) . . .
100(6) . . .
106(5) . . .
99(5) . . .
88(5) . . .
95(5) . . .
113(6) . . .
92(5) . . .
90(5) . . .
99(5) . . .
105(5) . . .
97(6) . . .
97(5) . . .
98(5) . . .
86(5) . . .
84(5) . . .
107(6) . . .
106(6) . . .
110(5) . . .
103(5) . . .
98(5) . . .
98(5) . . .
104(5) . . .
99(5) . . .
104(5) . . .
97(5) . . .
94(5) . . .
91(5) . . .
94(5) . . .
88(5) . . .
99(5) . . .
106(5) . . .
91(5) . . .
94(5) . . .
92(5) . . .
85(5) . . .
84(5) . . .
97(5) . . .
101(5) . . .
99(5) . . .
90(5) . . .
98(5) . . .
97(5) . . .
108(5) . . .
89(5) . . .
102(6) . . .
97(5) . . .
99(5) . . .
91(5) . . .
89(5) . . .
96(6) . . .
93(5) . . .
89(5) . . .
102(5) . . .
93(5) . . .
95(6) . . .
104(5) . . .
96(5) . . .
101(5) . . .
79(5) . . .
107(6) . . .
96(5) . . .
98(5) . . .
94(5) . . .
93(5) . . .
93(5) . . .
102(5) . . .
103(5) . . .
104(5) . . .
96(5) . . .
107(6) . . .
98(5) . . .
93(5) . . .
89(5) . . .
91(5) . . .
99(5) . . .
92(5) . . .
98(5) . . .
97(6) . . .
80(5) . . .
103(5) . . .
102(5) . . .
94(5) . . .
84(5) . . .
91(5) . . .
87(5) . . .
84(5) . . .
81(5) . . .
97(5) . . .
85(5) . . .
100(6) . . .
95(5) . . .
93(5) . . .
105(5) . . .
92(5) . . .
89(5) . . .
93(5) . . .
86(5) . . .
76(5) . . .
95(5) . . .
102(5) . . .
91(5) . . .
89(5) . . .
102(5) . . .
96(5) . . .
97(5) . . .
96(5) . . .
92(5) . . .
101(5) . . .
98(5) . . .
96(5) . . .
106(5) . . .
93(5) . . .
89(5) . . .
95(5) . . .
108(6) . . .
93(5) . . .
91(5) . . .
106(5) . . .
96(5) . . .
97(5) . . .
95(5) . . .
110(6) . . .
97(5) . . .
95(5) . . .
103(6) . . .
99(5) . . .
95(5) . . .
107(6) . . .
93(5) . . .
97(5) . . .
104(5) . . .
91(5) . . .
90(5) . . .
101(5) . . .
100(5) . . .
86(5) . . .
98(5) . . .
93(5) . . .
98(5) . . .
101(5) . . .
93(5) . . .
95(5) . . .
102(6) . . .
95(5) . . .
105(5) . . .
101(5) . . .
100(5) . . .
98(6) . . .
76(5) . . .
84(5) . . .
102(5) . . .
96(5) . . .
89(5) . . .
94(5) . . .
101(5) . . .
82(5) . . .
90(5) . . .
93(5) . . .
106(6) . . .
95(5) . . .
102(5) . . .
97(5) . . .
87(5) . . .
93(5) . . .
89(5) . . .
106(6) . . .
93(5) . . .
90(5) . . .
100(5) . . .
96(5) . . .
82(5) . . .
102(6) . . .
89(5) . . .
85(5) . . .
98(5) . . .
105(5) . . .
95(5) . . .
92(5) . . .
107(5) . . .
102(5) . . .
101(5) . . .
118(6) . . .
101(5) . . .
99(5) . . .
92(5) . . .
86(5) . . .
103(6) . . .
87(5) . . .
98(5) . . .
99(5) . . .
91(5) . . .
84(5) . . .
98(5) . . .
104(5) . . .
115(6) . . .
106(6) . . .
91(5) . . .
87(5) . . .
91(5) . . .
105(5) . . .
111(6) . . .
100(5) . . .
104(5) . . .
104(5) . . .
109(5) . . .
100(5) . . .
95(5) . . .
83(5) . . .
83(5) . . .
85(5) . . .
91(5) . . .
86(5) . . .
105(6) . . .
100(5) . . .
102(5) . . .
105(6) . . .
113(6) . . .
93(5) . . .
101(5) . . .
89(5) . . .
102(5) . . .
99(5) . . .
98(5) . . .
90(5) . . .
86(5) . . .
91(5) . . .
98(5) . . .
100(5) . . .
104(5) . . .
96(5) . . .
114(6) . . .
101(5) . . .
101(5) . . .
95(5) . . .
91(5) . . .
95(5) . . .
87(5) . . .
97(5) . . .
96(5) . . .
90(5) . . .
92(5) . . .
107(6) . . .
113(6) . . .
94(5) . . .
119(6) . . .
102(6) . . .
96(5) . . .
86(5) . . .
92(5) . . .
96(5) . . .
94(5) . . .
83(5) . . .
98(5) . . .
95(5) . . .
89(5) . . .
87(5) . . .
98(5) . . .
89(5) . . .
94(5) . . .
111(6) . . .
97(6) . . .
94(5) . . .
93(5) . . .
78(5) . . .
88(5) . . .
97(5) . . .
101(6) . . .
102(5) . . .
97(5) . . .
91(5) . . .
102(6) . . .
93(5) . . .
84(5) . . .
94(5) . . .
85(5) . . .
79(5) . . .
88(5) . . .
86(5) . . .
104(6) . . .
93(5) . . .
83(5) . . .
79(5) . . .
91(5) . . .
90(5) . . .
112(6) . . .
94(5) . . .
93(5) . . .
103(5) . . .
91(5) . . .
101(5) . . .
100(5) . . .
85(5) . . .
93(5) . . .
86(5) . . .
93(5) . . .
86(5) . . .
105(5) . . .
102(5) . . .
96(5) . . .
85(5) . . .
97(5) . . .
102(5) . . .
99(5) . . .
102(5) . . .
110(6) . . .
86(5) . . .
85(5) . . .
111(5) . . .
97(5) . . .
98(5) . . .
103(6) . . .
91(5) . . .
88(5) . . .
92(5) . . .
89(5) . . .
97(5) . . .
87(5) . . .
103(5) . . .
91(5) . . .
93(5) . . .
93(5) . . .
87(5) . . .
100(5) . . .
93(5) . . .
85(5) . . .
90(5) . . .
91(5) . . .
100(6) . . .
89(5) . . .
95(5) . . .
90(5) . . .
89(5) . . .
92(5) . . .
91(5) . . .
103(5) . . .
97(5) . . .
74(4) . . .
97(5) . . .
84(5) . . .
95(5) . . .
86(5) . . .
97(5) . . .
76(5) . . .
98(6) . . .
90(5) . . .
93(5) . . .
87(5) . . .
96(5) . . .
102(5) . . .
99(5) . . .
90(5) . . .
98(5) . . .
95(5) . . .
97(5) . . .
103(5) . . .
100(5) . . .
96(5) . . .
99(5) . . .
97(5) . . .
96(5) . . .
106(5) . . .
93(5) . . .
103(6) . . .
93(5) . . .
104(6) . . .
86(5) . . .
91(5) . . .
94(5) . . .
86(5) . . .
96(5) . . .
97(5) . . .
101(5) . . .
93(5) . . .
90(5) . . .
83(5) . . .
98(5) . . .
83(5) . . .
94(5) . . .
99(6) . . .
80(5) . . .
92(5) . . .
97(6) . . .
95(5) . . .
101(6) . . .
104(5) . . .
94(5) . . .
89(5) . . .
95(5) . . .
88(5) . . .
86(5) . . .
84(5) . . .
85(5) . . .
85(5) . . .
89(5) . . .
99(5) . . .
90(5) . . .
85(5) . . .
93(5) . . .
92(5) . . .
99(5) . . .
95(5) . . .
95(5) . . .
90(5) . . .
79(5) . . .
87(5) . . .
83(5) . . .
78(5) . . .
87(5) . . .
85(5) . . .
86(5) . . .
108(6) . . .
103(6) . . .
94(5) . . .
92(5) . . .
95(5) . . .
104(6) . . .
98(5) . . .
96(5) . . .
97(5) . . .
96(5) . . .
93(5) . . .
110(6) . . .
107(6) . . .
92(5) . . .
99(5) . . .
95(5) . . .
93(5) . . .
89(5) . . .
96(5) . . .
117(6) . . .
91(5) . . .
92(5) . . .
97(5) . . .
83(5) . . .
97(5) . . .
94(5) . . .
105(6) . . .
86(5) . . .
92(5) . . .
86(5) . . .
105(6) . . .
92(5) . . .
79(5) . . .
108(5) . . .
103(5) . . .
98(5) . . .
97(5) . . .
100(5) . . .
81(5) . . .
97(5) . . .
110(6) . . .
91(5) . . .
102(6) . . .
92(5) . . .
89(5) . . .
85(5) . . .
86(5) . . .
89(5) . . .
90(5) . . .
93(5) . . .
98(5) . . .
98(5) . . .
90(5) . . .
91(5) . . .
93(5) . . .
88(5) . . .
103(6) . . .
93(5) . . .
92(5) . . .
87(5) . . .
102(5) . . .
94(5) . . .
89(5) . . .
102(5) . . .
84(5) . . .
84(5) . . .
94(5) . . .
96(5) . . .
108(5) . . .
93(5) . . .
100(6) . . .
89(5) . . .
84(5) . . .
92(5) . . .
99(5) . . .
90(5) . . .
99(6) . . .
86(5) . . .
98(5) . . .
95(5) . . .
75(5) . . .
89(5) . . .
91(5) . . .
81(5) . . .
103(5) . . .
91(5) . . .
99(6) . . .
82(5) . . .
88(5) . . .
92(5) . . .
79(5) . . .
98(5) . . .
100(5) . . .
81(5) . . .
93(5) . . .
97(6) . . .
84(5) . . .
86(5) . . .
86(5) . . .
94(5) . . .
80(5) . . .
96(5) . . .
98(5) . . .
94(5) . . .
82(5) . . .
82(5) . . .
90(5) . . .
87(5) . . .
93(5) . . .
82(5) . . .
91(5) . . .
73(4) . . .
99(5) . . .
87(5) . . .
94(5) . . .
90(5) . . .
90(5) . . .
86(5) . . .
96(5) . . .
104(6) . . .
104(6) . . .
99(5) . . .
95(5) . . .
96(5) . . .
101(6) . . .
106(6) . . .
91(5) . . .
82(5) . . .
98(5) . . .
90(5) . . .
93(5) . . .
91(5) . . .
109(5) . . .
96(5) . . .
85(5) . . .
105(6) . . .
100(5) . . .
89(5) . . .
103(5) . . .
95(6) . . .
93(5) . . .
118(6) . . .
98(5) . . .
84(5) . . .
92(5) . . .
96(5) . . .
101(5) . . .
93(5) . . .
87(5) . . .
92(5) . . .
96(5) . . .
85(5) . . .
95(5) . . .
94(5) . . .
97(5) . . .
94(5) . . .
91(5) . . .
88(5) . . .
92(5) . . .
85(5) . . .
88(5) . . .
103(5) . . .
84(5) . . .
97(5) . . .
90(5) . . .
78(5) . . .
88(5) . . .
91(5) . . .
92(5) . . .
86(5) . . .
82(5) . . .
88(5) . . .
96(5) . . .
91(5) . . .
88(5) . . .
97(5) . . .
94(5) . . .
94(5) . . .
96(5) . . .
113(6) . . .
92(5) . . .
80(5) . . .
84(5) . . .
103(6) . . .
98(5) . . .
106(5) . . .
92(5) . . .
82(5) . . .
76(5) . . .
99(5) . . .
87(5) . . .
92(5) . . .
94(5) . . .
93(5) . . .
81(5) . . .
87(5) . . .
97(5) . . .
90(5) . . .
95(5) . . .
94(5) . . .
84(5) . . .
82(5) . . .
103(5) . . .
90(5) . . .
100(6) . . .
98(5) . . .
109(5) . . .
94(5) . . .
93(5) . . .
100(6) . . .
86(5) . . .
101(5) . . .
100(5) . . .
95(5) . . .
94(5) . . .
99(5) . . .
84(5) . . .
83(5) . . .
86(5) . . .
94(5) . . .
90(5) . . .
83(5) . . .
91(5) . . .
87(5) . . .
98(5) . . .
93(5) . . .
94(6) . . .
93(5) . . .
102(6) . . .
99(5) . . .
88(5) . . .
82(5) . . .
76(5) . . .
78(5) . . .
104(5) . . .
103(5) . . .
79(5) . . .
85(5) . . .
95(5) . . .
85(5) . . .
90(5) . . .
90(5) . . .
95(6) . . .
86(5) . . .
82(5) . . .
94(5) . . .
99(5) . . .
95(6) . . .
97(5) . . .
87(5) . . .
87(5) . . .
88(5) . . .
104(6) . . .
98(5) . . .
91(5) . . .
88(5) . . .
85(5) . . .
98(6) . . .
90(5) . . .
85(5) . . .
87(5) . . .
100(6) . . .
83(5) . . .
105(6) . . .
90(5) . . .
93(5) . . .
92(5) . . .
82(5) . . .
79(5) . . .
90(5) . . .
88(5) . . .
97(5) . . .
96(5) . . .
101(5) . . .
90(5) . . .
89(5) . . .
85(5) . . .
99(5) . . .
87(5) . . .
100(5) . . .
94(5) . . .
86(5) . . .
91(5) . . .
79(5) . . .
90(5) . . .
84(5) . . .
83(5) . . .
88(5) . . .
84(5) . . .
89(5) . . .
82(5) . . .
88(5) . . .
85(5) . . .
80(5) . . .
92(5) . . .
84(5) . . .
86(5) . . .
97(5) . . .
94(5) . . .
91(5) . . .
108(6) . . .
84(5) . . .
86(5) . . .
78(5) . . .
85(5) . . .
94(5) . . .
93(5) . . .
104(6) . . .
84(5) . . .
87(5) . . .
92(5) . . .
86(5) . . .
97(5) . . .
88(5) . . .
92(5) . . .
100(5) . . .
86(5) . . .
80(5) . . .
89(5) . . .
88(5) . . .
95(5) . . .
80(5) . . .
92(5) . . .
99(5) . . .
83(5) . . .
97(5) . . .
107(6) . . .
89(5) . . .
87(5) . . .
95(5) . . .
98(5) . . .
96(5) . . .
95(5) . . .
114(6) . . .
83(5) . . .
87(5) . . .
93(5) . . .
87(5) . . .
87(5) . . .
87(5) . . .
98(5) . . .
96(5) . . .
101(5) . . .
91(5) . . .
81(5) . . .
73(5) . . .
93(5) . . .
94(5) . . .
81(5) . . .
89(5) . . .
87(5) . . .
94(5) . . .
89(5) . . .
93(5) . . .
96(5) . . .
84(5) . . .
94(5) . . .
99(5) . . .
92(5) . . .
98(5) . . .
100(5) . . .
103(5) . . .
96(5) . . .
94(5) . . .
85(5) . . .
97(5) . . .
97(5) . . .
70(4) . . .
92(5) . . .
86(5) . . .
88(5) . . .
96(5) . . .
100(5) . . .
76(5) . . .
85(5) . . .
82(5) . . .
90(5) . . .
92(5) . . .
93(5) . . .
84(5) . . .
84(5) . . .
85(5) . . .
85(5) . . .
88(5) . . .
98(6) . . .
87(5) . . .
90(5) . . .
97(5) . . .
77(5) . . .
87(5) . . .
77(5) . . .
98(5) . . .
98(5) . . .
104(6) . . .
86(5) . . .
87(5) . . .
90(5) . . .
94(5) . . .
87(5) . . .
98(5) . . .
94(5) . . .
95(5) . . .
90(5) . . .
93(5) . . .
74(4) . . .
85(5) . . .
96(5) . . .
93(5) . . .
103(6) . . .
88(5) . . .
93(5) . . .
89(5) . . .
87(5) . . .
79(5) . . .
91(5) . . .
102(5) . . .
92(5) . . .
91(5) . . .
102(5) . . .
113(6) . . .
99(5) . . .
104(5) . . .
91(5) . . .
91(5) . . .
89(5) . . .
91(5) . . .
86(5) . . .
92(5) . . .
98(6) . . .
95(6) . . .
77(5) . . .
93(5) . . .
96(5) . . .
102(5) . . .
93(5) . . .
90(5) . . .
89(5) . . .
93(5) . . .
91(5) . . .
86(5) . . .
92(5) . . .
103(5) . . .
87(5) . . .
92(5) . . .
82(5) . . .
79(5) . . .
95(5) . . .
99(5) . . .
90(5) . . .
86(5) . . .
82(5) . . .
101(5) . . .
88(5) . . .
98(5) . . .
103(5) . . .
86(5) . . .
75(5) . . .
94(5) . . .
98(6) . . .
94(5) . . .
91(5) . . .
99(5) . . .
82(5) . . .
87(5) . . .
92(5) . . .
101(5) . . .
83(5) . . .
84(5) . . .
91(5) . . .
91(5) . . .
92(5) . . .
81(5) . . .
90(5) . . .
96(5) . . .
79(5) . . .
91(5) . . .
90(5) . . .
94(5) . . .
93(5) . . .
95(5) . . .
77(5) . . .
75(5) . . .
71(5) . . .
84(5) . . .
93(5) . . .
88(5) . . .
80(5) . . .
90(5) . . .
89(5) . . .
91(5) . . .
79(5) . . .
78(5) . . .
100(6) . . .
94(5) . . .
96(5) . . .
91(5) . . .
95(5) . . .
94(6) . . .
90(5) . . .
96(5) . . .
98(5) . . .
89(5) . . .
80(5) . . .
98(6) . . .
93(5) . . .
88(5) . . .
98(5) . . .
89(5) . . .
77(5) . . .
74(4) . . .
93(5) . . .
91(5) . . .
92(5) . . .
94(5) . . .
82(5) . . .
83(5) . . .
90(5) . . .
87(5) . . .
98(5) . . .
87(5) . . .
97(5) . . .
93(5) . . .
101(6) . . .
80(5) . . .
82(5) . . .
89(5) . . .
82(5) . . .
114(6) . . .
105(5) . . .
94(5) . . .
90(5) . . .
85(5) . . .
84(5) . . .
88(5) . . .
90(5) . . .
82(5) . . .
87(5) . . .
80(5) . . .
81(5) . . .
100(5) . . .
96(5) . . .
84(5) . . .
82(5) . . .
80(5) . . .
86(5) . . .
93(5) . . .
82(5) . . .
83(5) . . .
87(5) . . .
82(5) . . .
88(5) . . .
96(6) . . .
91(5) . . .
92(5) . . .
88(5) . . .
86(5) . . .
89(5) . . .
95(5) . . .
85(5) . . .
88(5) . . .
90(5) . . .
97(5) . . .
91(5) . . .
86(5) . . .
95(5) . . .
103(5) . . .
98(5) . . .
103(6) . . .
92(5) . . .
87(5) . . .
79(5) . . .
100(6) . . .
87(5) . . .
89(5) . . .
102(5) . . .
83(5) . . .
86(5) . . .
99(5) . . .
107(5) . . .
72(5) . . .
79(5) . . .
85(5) . . .
87(5) . . .
78(5) . . .
89(5) . . .
92(5) . . .
87(5) . . .
74(5) . . .
85(5) . . .
85(5) . . .
88(5) . . .
85(5) . . .
88(5) . . .
91(5) . . .
75(5) . . .
73(5) . . .
80(5) . . .
85(5) . . .
82(5) . . .
86(5) . . .
82(5) . . .
83(5) . . .
80(5) . . .
80(5) . . .
89(5) . . .
86(5) . . .
85(5) . . .
83(5) . . .
73(4) . . .
80(5) . . .
82(5) . . .
73(5) . . .
86(5) . . .
84(5) . . .
85(5) . . .
87(5) . . .
95(5) . . .
81(5) . . .
84(5) . . .
91(5) . . .
97(5) . . .
82(5) . . .
72(4) . . .
90(5) . . .
90(5) . . .
87(5) . . .
70(4) . . .
82(5) . . .
86(5) . . .
75(5) . . .
82(5) . . .
82(5) . . .
85(5) . . .
93(5) . . .
90(5) . . .
85(5) . . .
93(5) . . .
102(5) . . .
101(5) . . .
79(5) . . .
82(5) . . .
93(5) . . .
85(5) . . .
86(5) . . .
91(5) . . .
87(5) . . .
88(5) . . .
93(5) . . .
84(5) . . .
76(5) . . .
75(5) . . .
81(5) . . .
85(5) . . .
70(4) . . .
78(5) . . .
83(5) . . .
91(5) . . .
81(5) . . .
76(5) . . .
86(5) . . .
96(5) . . .
94(5) . . .
93(5) . . .
79(5) . . .
87(5) . . .
70(5) . . .
84(5) . . .
94(5) . . .
91(5) . . .
80(5) . . .
89(5) . . .
77(5) . . .
86(5) . . .
78(5) . . .
82(5) . . .
77(5) . . .
89(5) . . .
92(5) . . .
96(6) . . .
77(5) . . .
85(5) . . .
97(5) . . .
84(5) . . .
93(5) . . .
80(5) . . .
76(5) . . .
85(5) . . .
83(5) . . .
97(6) . . .
95(5) . . .
74(4) . . .
75(5) . . .
81(5) . . .
94(5) . . .
85(5) . . .
87(5) . . .
79(5) . . .
96(6) . . .
79(5) . . .
82(5) . . .
85(5) . . .
96(5) . . .
93(5) . . .
89(5) . . .
96(5) . . .
89(5) . . .
89(5) . . .
90(5) . . .
79(5) . . .
80(5) . . .
92(5) . . .
91(5) . . .
77(5) . . .
98(6) . . .
88(5) . . .
87(5) . . .
86(5) . . .
92(5) . . .
86(5) . . .
75(5) . . .
94(5) . . .
90(5) . . .
80(5) . . .
89(5) . . .
90(5) . . .
82(5) . . .
87(5) . . .
81(5) . . .
89(5) . . .
80(5) . . .
81(5) . . .
75(5) . . .
81(5) . . .
80(5) . . .
81(5) . . .
85(5) . . .
82(5) . . .
80(5) . . .
80(5) . . .
92(5) . . .
86(5) . . .
66(4) . . .
77(5) . . .
92(5) . . .
81(5) . . .
79(5) . . .
77(5) . . .
97(6) . . .
89(5) . . .
82(5) . . .
89(5) . . .
70(4) . . .
78(5) . . .
80(5) . . .
81(5) . . .
80(5) . . .
94(5) . . .
93(5) . . .
81(5) . . .
78(5) . . .
80(5) . . .
80(5) . . .
82(5) . . .
73(4) . . .
78(5) . . .
80(5) . . .
84(5) . . .
87(5) . . .
89(5) . . .
92(5) . . .
86(5) . . .
88(5) . . .
97(5) . . .
85(5) . . .
84(5) . . .
71(4) . . .
73(5) . . .
70(4) . . .
88(5) . . .
89(5) . . .
89(5) . . .
90(5) . . .
91(5) . . .
86(5) . . .
79(5) . . .
87(5) . . .
89(5) . . .
91(5) . . .
89(5) . . .
94(5) . . .
81(5) . . .
84(5) . . .
84(5) . . .
82(5) . . .
85(5) . . .
81(5) . . .
86(5) . . .
84(5) . . .
87(5) . . .
77(5) . . .
77(5) . . .
75(5) . . .
80(5) . . .
83(5) . . .
69(4) . . .
78(5) . . .
78(5) . . .
79(5) . . .
80(5) . . .
94(5) . . .
82(5) . . .
88(5) . . .
83(5) . . .
82(5) . . .
81(5) . . .
83(5) . . .
93(5) . . .
89(5) . . .
82(5) . . .
82(5) . . .
85(5) . . .
82(5) . . .
77(5) . . .
79(5) . . .
89(5) . . .
68(5) . . .
78(5) . . .
88(5) . . .
77(5) . . .
82(5) . . .
88(5) . . .
78(5) . . .
66(4) . . .
88(5) . . .
76(5) . . .
83(5) . . .
85(5) . . .
79(5) . . .
77(5) . . .
85(5) . . .
93(5) . . .
90(5) . . .
82(5) . . .
91(5) . . .
89(5) . . .
78(5) . . .
87(5) . . .
78(5) . . .
90(5) . . .
89(5) . . .
85(5) . . .
90(5) . . .
80(5) . . .
82(5) . . .
85(5) . . .
74(5) . . .
86(5) . . .
81(5) . . .
78(5) . . .
88(5) . . .
84(5) . . .
96(5) . . .
89(5) . . .
85(5) . . .
86(5) . . .
79(5) . . .
85(5) . . .
86(5) . . .
80(5) . . .
93(5) . . .
68(4) . . .
77(5) . . .
98(5) . . .
80(5) . . .
73(4) . . .
87(5) . . .
84(5) . . .
76(5) . . .
81(5) . . .
81(5) . . .
87(5) . . .
82(5) . . .
74(4) . . .
81(5) . . .
86(5) . . .
78(5) . . .
81(5) . . .
87(5) . . .
84(5) . . .
76(5) . . .
85(5) . . .
77(5) . . .
88(5) . . .
73(5) . . .
73(5) . . .
80(5) . . .
91(5) . . .
91(5) . . .
81(5) . . .
82(5) . . .
89(5) . . .
91(5) . . .
89(5) . . .
86(5) . . .
81(5) . . .
98(5) . . .
81(5) . . .
75(5) . . .
78(5) . . .
76(5) . . .
86(5) . . .
90(5) . . .
87(5) . . .
81(5) . . .
75(5) . . .
77(5) . . .
81(5) . . .
78(5) . . .
87(5) . . .
83(5) . . .
85(5) . . .
90(5) . . .
79(5) . . .
85(5) . . .
79(5) . . .
86(5) . . .
98(5) . . .
100(5) . . .
74(4) . . .
92(5) . . .
86(5) . . .
82(5) . . .
79(5) . . .
74(5) . . .
82(5) . . .
75(5) . . .
99(5) . . .
87(5) . . .
84(5) . . .
82(5) . . .
85(5) . . .
93(5) . . .
90(5) . . .
77(5) . . .
88(5) . . .
85(5) . . .
74(5) . . .
75(5) . . .
83(5) . . .
84(5) . . .
80(5) . . .
88(5) . . .
76(5) . . .
100(6) . . .
80(5) . . .
92(5) . . .
86(5) . . .
93(5) . . .
94(5) . . .
80(5) . . .
87(5) . . .
65(4) . . .
87(5) . . .
76(5) . . .
67(4) . . .
88(5) . . .
84(5) . . .
82(5) . . .
72(4) . . .
90(5) . . .
84(5) . . .
86(5) . . .
93(5) . . .
85(5) . . .
96(5) . . .
94(5) . . .
71(4) . . .
81(5) . . .
82(5) . . .
83(5) . . .
90(5) . . .
95(5) . . .
89(5) . . .
72(5) . . .
92(5) . . .
81(5) . . .
81(5) . . .
91(5) . . .
77(5) . . .
76(5) . . .
83(5) . . .
101(6) . . .
80(5) . . .
87(5) . . .
82(5) . . .
79(5) . . .
85(5) . . .
88(5) . . .
81(5) . . .
82(5) . . .
79(5) . . .
74(5) . . .
81(5) . . .
78(5) . . .
80(5) . . .
75(5) . . .
82(5) . . .
73(5) . . .
79(5) . . .
84(5) . . .
92(5) . . .
81(5) . . .
80(5) . . .
80(5) . . .
86(5) . . .
85(5) . . .
81(5) . . .
79(5) . . .
85(5) . . .
84(5) . . .
86(5) . . .
86(5) . . .
71(4) . . .
100(5) . . .
73(5) . . .
89(5) . . .
80(5) . . .
78(5) . . .
83(5) . . .
86(5) . . .
76(5) . . .
82(5) . . .
86(5) . . .
84(5) . . .
79(5) . . .
76(5) . . .
81(5) . . .
82(5) . . .
74(5) . . .
84(5) . . .
68(4) . . .
84(5) . . .
75(5) . . .
82(5) . . .
69(4) . . .
91(5) . . .
86(5) . . .
94(5) . . .
94(5) . . .
81(5) . . .
77(4) . . .
83(5) . . .
86(5) . . .
82(5) . . .
81(5) . . .
95(5) . . .
79(5) . . .
75(5) . . .
83(5) . . .
77(5) . . .
76(5) . . .
83(5) . . .
84(5) . . .
89(5) . . .
93(5) . . .
87(5) . . .
83(5) . . .
74(5) . . .
79(5) . . .
75(5) . . .
86(5) . . .
73(5) . . .
80(5) . . .
84(5) . . .
70(4) . . .
79(5) . . .
86(5) . . .
81(5) . . .
79(5) . . .
83(5) . . .
77(5) . . .
85(5) . . .
89(5) . . .
80(5) . . .
80(5) . . .
70(5) . . .
92(5) . . .
84(5) . . .
93(5) . . .
92(5) . . .
85(5) . . .
82(5) . . .
82(5) . . .
84(5) . . .
81(5) . . .
77(5) . . .
76(5) . . .
72(4) . . .
73(4) . . .
86(5) . . .
88(5) . . .
84(5) . . .
80(5) . . .
76(4) . . .
86(5) . . .
77(5) . . .
73(5) . . .
73(4) . . .
78(5) . . .
78(5) . . .
68(5) . . .
80(5) . . .
85(5) . . .
79(5) . . .
92(5) . . .
95(5) . . .
81(5) . . .
84(5) . . .
87(5) . . .
89(5) . . .
86(5) . . .
73(4) . . .
91(5) . . .
88(5) . . .
79(5) . . .
92(5) . . .
76(5) . . .
84(5) . . .
83(5) . . .
77(5) . . .
81(5) . . .
73(4) . . .
85(5) . . .
77(5) . . .
83(5) . . .
90(5) . . .
76(4) . . .
86(5) . . .
82(5) . . .
87(5) . . .
80(5) . . .
89(5) . . .
89(5) . . .
85(5) . . .
86(5) . . .
78(5) . . .
78(5) . . .
88(5) . . .
79(5) . . .
84(5) . . .
87(5) . . .
89(5) . . .
87(5) . . .
96(5) . . .
64(4) . . .
64(4) . . .
86(5) . . .
86(5) . . .
82(5) . . .
81(5) . . .
71(4) . . .
68(4) . . .
79(5) . . .
88(5) . . .
75(5) . . .
74(5) . . .
73(4) . . .
77(5) . . .
84(5) . . .
87(5) . . .
97(5) . . .
92(5) . . .
77(5) . . .
72(5) . . .
72(4) . . .
79(5) . . .
76(5) . . .
81(5) . . .
78(5) . . .
90(5) . . .
76(5) . . .
64(4) . . .
76(5) . . .
81(5) . . .
73(5) . . .
79(5) . . .
94(5) . . .
91(5) . . .
92(5) . . .
91(5) . . .
94(5) . . .
73(4) . . .
81(5) . . .
75(5) . . .
79(5) . . .
86(5) . . .
79(5) . . .
77(5) . . .
75(5) . . .
75(5) . . .
69(4) . . .
87(5) . . .
73(5) . . .
76(5) . . .
81(5) . . .
76(5) . . .
79(5) . . .
83(5) . . .
70(5) . . .
78(5) . . .
77(5) . . .
84(5) . . .
86(5) . . .
87(5) . . .
84(5) . . .
71(4) . . .
80(5) . . .
85(5) . . .
83(5) . . .
78(5) . . .
78(5) . . .
73(5) . . .
77(5) . . .
90(5) . . .
90(5) . . .
88(5) . . .
74(5) . . .
85(5) . . .
81(5) . . .
80(5) . . .
78(5) . . .
87(5) . . .
73(4) . . .
74(5) . . .
70(4) . . .
79(5) . . .
80(5) . . .
73(5) . . .
86(5) . . .
73(4) . . .
86(5) . . .
80(5) . . .
78(5) . . .
78(5) . . .
74(5) . . .
79(5) . . .
79(5) . . .
80(5) . . .
86(5) . . .
84(5) . . .
76(5) . . .
78(5) . . .
87(5) . . .
83(5) . . .
71(4) . . .
69(4) . . .
92(5) . . .
84(5) . . .
83(5) . . .
89(5) . . .
87(5) . . .
83(5) . . .
93(5) . . .
68(4) . . .
78(5) . . .
84(5) . . .
85(5) . . .
72(5) . . .
89(5) . . .
83(5) . . .
83(5) . . .
89(5) . . .
79(5) . . .
81(5) . . .
74(4) . . .
62(4) . . .
58(4) . . .
73(5) . . .
72(4) . . .
77(4) . . .
87(5) . . .
76(5) . . .
89(5) . . .
87(5) . . .
87(5) . . .
84(5) . . .
75(5) . . .
85(5) . . .
100(5) . . .
80(5) . . .
93(5) . . .
81(5) . . .
72(4) . . .
85(5) . . .
80(5) . . .
81(5) . . .
74(5) . . .
76(5) . . .
76(5) . . .
64(4) . . .
78(5) . . .
77(5) . . .
82(5) . . .
88(5) . . .
72(4) . . .
69(4) . . .
72(5) . . .
73(5) . . .
86(5) . . .
83(5) . . .
77(5) . . .
76(5) . . .
70(4) . . .
76(5) . . .
77(5) . . .
69(4) . . .
64(4) . . .
72(5) . . .
71(4) . . .
81(5) . . .
75(5) . . .
84(5) . . .
86(5) . . .
84(5) . . .
75(5) . . .
69(4) . . .
73(5) . . .
78(5) . . .
77(5) . . .
76(5) . . .
77(5) . . .
70(5) . . .
85(5) . . .
85(5) . . .
81(5) . . .
80(5) . . .
77(5) . . .
82(5) . . .
88(5) . . .
81(5) . . .
78(5) . . .
68(4) . . .
88(5) . . .
90(5) . . .
68(4) . . .
80(5) . . .
71(4) . . .
75(5) . . .
66(4) . . .
70(4) . . .
71(5) . . .
75(5) . . .
81(5) . . .
83(5) . . .
66(4) . . .
79(5) . . .
85(5) . . .
87(5) . . .
84(5) . . .
79(5) . . .
80(5) . . .
77(5) . . .
71(4) . . .
61(4) . . .
78(5) . . .
70(5) . . .
78(5) . . .
76(5) . . .
76(5) . . .
82(5) . . .
82(5) . . .
75(5) . . .
87(5) . . .
70(4) . . .
69(4) . . .
84(5) . . .
91(5) . . .
85(5) . . .
75(5) . . .
74(5) . . .
80(5) . . .
87(5) . . .
82(5) . . .
84(5) . . .
80(5) . . .
75(5) . . .
80(5) . . .
78(5) . . .
87(5) . . .
80(5) . . .
85(5) . . .
75(5) . . .
73(4) . . .
74(5) . . .
74(5) . . .
82(5) . . .
79(5) . . .
76(4) . . .
87(5) . . .
85(5) . . .
83(5) . . .
75(5) . . .
69(4) . . .
76(5) . . .
72(5) . . .
83(5) . . .
77(5) . . .
74(4) . . .
67(4) . . .
71(5) . . .
85(5) . . .
77(4) . . .
79(5) . . .
81(5) . . .
83(5) . . .
80(5) . . .
81(5) . . .
93(5) . . .
90(5) . . .
88(5) . . .
96(5) . . .
84(5) . . .
85(5) . . .
79(5) . . .
81(5) . . .
74(5) . . .
69(4) . . .
84(5) . . .
84(5) . . .
73(5) . . .
83(5) . . .
93(5) . . .
73(5) . . .
81(5) . . .
93(5) . . .
86(5) . . .
78(5) . . .
81(5) . . .
79(5) . . .
72(4) . . .
86(5) . . .
85(5) . . .
70(4) . . .
83(5) . . .
88(5) . . .
75(5) . . .
81(5) . . .
79(5) . . .
73(5) . . .
67(4) . . .
76(5) . . .
80(5) . . .
80(5) . . .
79(5) . . .
78(5) . . .
82(5) . . .
82(5) . . .
86(5) . . .
84(5) . . .
78(5) . . .
79(5) . . .
74(4) . . .
82(5) . . .
89(5) . . .
64(4) . . .
83(5) . . .
82(5) . . .
66(4) . . .
82(5) . . .
90(5) . . .
84(5) . . .
82(5) . . .
88(5) . . .
97(5) . . .
92(5) . . .
76(5) . . .
89(5) . . .
78(5) . . .
83(5) . . .
84(5) . . .
74(4) . . .
74(5) . . .
66(4) . . .
66(5) . . .
79(5) . . .
79(5) . . .
71(4) . . .
78(5) . . .
68(4) . . .
79(5) . . .
64(4) . . .
76(5) . . .
78(5) . . .
77(5) . . .
78(5) . . .
76(5) . . .
79(5) . . .
75(5) . . .
76(5) . . .
65(4) . . .
76(4) . . .
66(4) . . .
64(4) . . .
60(4) . . .
71(4) . . .
72(4) . . .
75(5) . . .
81(5) . . .
83(5) . . .
83(5) . . .
81(5) . . .
67(4) . . .
84(5) . . .
86(5) . . .
86(5) . . .
79(5) . . .
77(5) . . .
79(5) . . .
64(4) . . .
71(4) . . .
69(4) . . .
81(5) . . .
93(5) . . .
77(5) . . .
73(4) . . .
76(5) . . .
98(5) . . .
77(5) . . .
86(5) . . .
68(4) . . .
84(5) . . .
74(5) . . .
72(5) . . .
77(5) . . .
89(5) . . .
65(4) . . .
78(5) . . .
77(5) . . .
78(5) . . .
69(4) . . .
78(5) . . .
67(4) . . .
70(5) . . .
74(5) . . .
91(5) . . .
81(5) . . .
63(4) . . .
75(5) . . .
82(5) . . .
68(4) . . .
70(5) . . .
73(5) . . .
63(4) . . .
70(4) . . .
79(5) . . .
85(5) . . .
73(5) . . .
81(5) . . .
66(4) . . .
80(5) . . .
80(5) . . .
88(5) . . .
84(5) . . .
84(5) . . .
84(5) . . .
80(5) . . .
95(6) . . .
80(5) . . .
74(4) . . .
86(5) . . .
83(5) . . .
80(5) . . .
87(5) . . .
85(5) . . .
72(5) . . .
70(5) . . .
63(4) . . .
72(4) . . .
67(4) . . .
70(4) . . .
76(5) . . .
75(5) . . .
85(5) . . .
77(5) . . .
71(5) . . .
67(4) . . .
75(5) . . .
81(5) . . .
74(5) . . .
83(5) . . .
82(5) . . .
77(5) . . .
71(4) . . .
79(5) . . .
81(5) . . .
80(5) . . .
77(5) . . .
73(4) . . .
69(4) . . .
79(5) . . .
74(4) . . .
78(5) . . .
80(5) . . .
82(5) . . .
76(5) . . .
76(5) . . .
94(5) . . .
88(5) . . .
77(5) . . .
74(5) . . .
85(5) . . .
81(5) . . .
81(5) . . .
67(4) . . .
69(4) . . .
92(5) . . .
77(5) . . .
76(5) . . .
82(5) . . .
79(5) . . .
79(5) . . .
85(5) . . .
63(4) . . .
79(5) . . .
78(5) . . .
74(5) . . .
76(5) . . .
84(5) . . .
74(5) . . .
76(5) . . .
74(5) . . .
72(5) . . .
86(5) . . .
79(5) . . .
69(5) . . .
78(5) . . .
71(4) . . .
83(5) . . .
76(5) . . .
78(5) . . .
74(5) . . .
72(4) . . .
81(5) . . .
77(5) . . .
84(5) . . .
85(5) . . .
79(5) . . .
68(4) . . .
68(4) . . .
76(5) . . .
69(5) . . .
82(5) . . .
83(5) . . .
92(5) . . .
78(5) . . .
79(5) . . .
82(5) . . .
81(5) . . .
82(5) . . .
79(5) . . .
73(5) . . .
72(4) . . .
75(5) . . .
75(5) . . .
71(5) . . .
80(5) . . .
75(5) . . .
69(4) . . .
83(5) . . .
66(4) . . .
62(4) . . .
60(4) . . .
69(5) . . .
74(5) . . .
72(5) . . .
81(5) . . .
77(5) . . .
70(4) . . .
77(5) . . .
71(5) . . .
69(4) . . .
81(5) . . .
83(5) . . .
76(5) . . .
79(5) . . .
90(5) . . .
81(5) . . .
75(5) . . .
79(5) . . .
80(5) . . .
76(5) . . .
81(5) . . .
83(5) . . .
85(5) . . .
66(4) . . .
71(4) . . .
74(4) . . .
65(4) . . .
68(5) . . .
74(5) . . .
68(4) . . .
71(4) . . .
70(4) . . .
80(5) . . .
72(4) . . .
69(4) . . .
78(5) . . .
79(5) . . .
68(4) . . .
87(5) . . .
73(4) . . .
71(4) . . .
86(5) . . .
82(5) . . .
75(5) . . .
69(4) . . .
81(5) . . .
71(4) . . .
75(5) . . .
77(5) . . .
74(4) . . .
84(5) . . .
74(5) . . .
71(5) . . .
76(5) . . .
65(4) . . .
66(4) . . .
71(5) . . .
73(5) . . .
74(4) . . .
83(5) . . .
71(5) . . .
74(5) . . .
69(4) . . .
84(5) . . .
78(5) . . .
78(5) . . .
87(5) . . .
80(5) . . .
78(5) . . .
79(5) . . .
74(5) . . .
78(5) . . .
72(5) . . .
81(5) . . .
73(4) . . .
69(4) . . .
86(5) . . .
71(4) . . .
80(5) . . .
73(4) . . .
86(5) . . .
79(5) . . .
79(5) . . .
67(4) . . .
67(4) . . .
82(5) . . .
75(5) . . .
73(5) . . .
78(5) . . .
70(4) . . .
75(5) . . .
82(5) . . .
73(5) . . .
71(4) . . .
87(5) . . .
80(5) . . .
80(5) . . .
71(5) . . .
79(5) . . .
77(5) . . .
90(5) . . .
89(5) . . .
70(5) . . .
79(5) . . .
82(5) . . .
85(5) . . .
88(5) . . .
65(4) . . .
75(4) . . .
72(4) . . .
78(5) . . .
71(4) . . .
84(5) . . .
86(5) . . .
83(5) . . .
71(4) . . .
74(5) . . .
63(4) . . .
76(5) . . .
69(4) . . .
74(5) . . .
71(4) . . .
83(5) . . .
77(5) . . .
83(5) . . .
81(5) . . .
93(5) . . .
83(5) . . .
68(4) . . .
85(5) . . .
71(5) . . .
81(5) . . .
80(5) . . .
70(4) . . .
80(5) . . .
77(5) . . .
80(5) . . .
70(4) . . .
78(5) . . .
62(4) . . .
71(5) . . .
68(5) . . .
73(4) . . .
61(4) . . .
67(4) . . .
65(5) . . .
73(5) . . .
79(5) . . .
74(4) . . .
79(5) . . .
71(5) . . .
77(5) . . .
61(4) . . .
76(5) . . .
69(4) . . .
79(5) . . .
85(5) . . .
81(5) . . .
76(5) . . .
79(5) . . .
81(5) . . .
76(5) . . .
78(5) . . .
76(5) . . .
77(5) . . .
79(5) . . .
75(5) . . .
67(4) . . .
97(5) . . .
61(4) . . .
67(4) . . .
78(5) . . .
79(5) . . .
83(5) . . .
93(5) . . .
71(4) . . .
70(4) . . .
73(4) . . .
65(4) . . .
77(5) . . .
73(4) . . .
69(4) . . .
76(5) . . .
72(4) . . .
75(5) . . .
64(4) . . .
74(5) . . .
63(4) . . .
71(4) . . .
70(5) . . .
74(5) . . .
76(5) . . .
79(5) . . .
79(5) . . .
85(5) . . .
81(5) . . .
75(5) . . .
88(5) . . .
64(4) . . .
67(5) . . .
79(5) . . .
83(5) . . .
82(5) . . .
78(5) . . .
72(5) . . .
79(5) . . .
75(5) . . .
68(4) . . .
73(5) . . .
63(4) . . .
78(5) . . .
67(4) . . .
75(5) . . .
76(5) . . .
72(5) . . .
76(5) . . .
75(5) . . .
73(5) . . .
64(4) . . .
74(5) . . .
77(5) . . .
67(4) . . .
91(5) . . .
86(5) . . .
71(5) . . .
70(4) . . .
67(4) . . .
63(4) . . .
74(5) . . .
77(5) . . .
74(4) . . .
66(4) . . .
65(4) . . .
70(5) . . .
63(4) . . .
71(5) . . .
80(5) . . .
77(5) . . .
75(5) . . .
83(5) . . .
83(5) . . .
87(5) . . .
75(4) . . .
75(5) . . .
78(5) . . .
73(4) . . .
75(5) . . .
68(5) . . .
81(5) . . .
81(5) . . .
69(4) . . .
82(5) . . .
82(5) . . .
67(4) . . .
71(5) . . .
75(4) . . .
80(5) . . .
75(5) . . .
93(5) . . .
76(5) . . .
75(4) . . .
77(5) . . .
73(5) . . .
85(5) . . .
73(4) . . .
79(5) . . .
76(5) . . .
76(5) . . .
75(5) . . .
82(5) . . .
64(4) . . .
78(5) . . .
91(5) . . .
80(5) . . .
75(4) . . .
77(5) . . .
80(5) . . .
74(5) . . .
83(5) . . .
80(5) . . .
72(4) . . .
73(4) . . .
83(5) . . .
87(5) . . .
72(4) . . .
86(5) . . .
80(5) . . .
69(5) . . .
75(5) . . .
84(5) . . .
87(5) . . .
87(5) . . .
83(5) . . .
72(5) . . .
75(5) . . .
85(5) . . .
76(5) . . .
90(5) . . .
85(5) . . .
87(5) . . .
79(5) . . .
72(5) . . .
71(5) . . .
73(5) . . .
87(5) . . .
71(4) . . .
82(5) . . .
74(5) . . .
68(4) . . .
65(4) . . .
77(5) . . .
75(5) . . .
88(5) . . .
77(5) . . .
72(4) . . .
74(5) . . .
71(5) . . .
80(5) . . .
81(5) . . .
67(4) . . .
72(5) . . .
84(5) . . .
64(4) . . .
69(4) . . .
73(4) . . .
79(5) . . .
69(5) . . .
80(5) . . .
82(5) . . .
88(5) . . .
68(4) . . .
71(5) . . .
88(5) . . .
84(5) . . .
79(5) . . .
65(4) . . .
82(5) . . .
77(5) . . .
64(4) . . .
89(5) . . .
84(5) . . .
59(4) . . .
74(5) . . .
67(4) . . .
68(5) . . .
87(5) . . .
82(5) . . .
71(5) . . .
72(4) . . .
73(5) . . .
88(5) . . .
87(5) . . .
79(5) . . .
86(5) . . .
75(4) . . .
80(5) . . .
70(4) . . .
59(4) . . .
64(4) . . .
79(5) . . .
83(5) . . .
73(5) . . .
72(4) . . .
79(5) . . .
68(4) . . .
72(5) . . .
72(5) . . .
65(4) . . .
70(4) . . .
66(4) . . .
70(5) . . .
69(5) . . .
78(5) . . .
74(4) . . .
67(4) . . .
65(4) . . .
71(5) . . .
80(5) . . .
79(5) . . .
71(5) . . .
62(4) . . .
66(4) . . .
75(5) . . .
73(4) . . .
88(5) . . .
80(5) . . .
69(4) . . .
80(5) . . .
78(5) . . .
66(4) . . .
80(5) . . .
72(5) . . .
69(4) . . .
74(4) . . .
72(5) . . .
75(5) . . .
83(5) . . .
75(5) . . .
75(5) . . .
61(4) . . .
69(5) . . .
81(5) . . .
78(5) . . .
77(5) . . .
71(5) . . .
66(4) . . .
87(5) . . .
77(5) . . .
72(4) . . .
69(5) . . .
75(5) . . .
71(4) . . .
73(4) . . .
69(4) . . .
81(5) . . .
66(4) . . .
75(4) . . .
74(4) . . .
81(5) . . .
62(4) . . .
79(5) . . .
71(4) . . .
79(5) . . .
76(5) . . .
71(5) . . .
64(4) . . .
68(4) . . .
90(5) . . .
81(5) . . .
65(4) . . .
90(5) . . .
83(5) . . .
73(4) . . .
87(5) . . .
72(5) . . .
78(5) . . .
86(5) . . .
76(5) . . .
74(5) . . .
74(5) . . .
71(4) . . .
84(5) . . .
66(4) . . .
73(5) . . .
71(5) . . .
87(5) . . .
62(4) . . .
62(4) . . .
61(4) . . .
69(5) . . .
78(5) . . .
84(5) . . .
74(5) . . .
71(5) . . .
73(4) . . .
69(4) . . .
74(5) . . .
74(4) . . .
78(5) . . .
67(4) . . .
82(5) . . .
66(4) . . .
71(5) . . .
74(5) . . .
73(5) . . .
74(5) . . .
71(4) . . .
74(5) . . .
72(5) . . .
79(5) . . .
74(5) . . .
66(4) . . .
77(5) . . .
67(5) . . .
73(5) . . .
59(4) . . .
69(4) . . .
75(5) . . .
77(5) . . .
70(5) . . .
72(5) . . .
64(4) . . .
80(5) . . .
86(5) . . .
72(5) . . .
70(4) . . .
77(5) . . .
78(5) . . .
80(5) . . .
68(4) . . .
83(5) . . .
79(5) . . .
77(5) . . .
74(5) . . .
75(5) . . .
78(5) . . .
76(5) . . .
82(5) . . .
72(5) . . .
73(5) . . .
86(5) . . .
82(5) . . .
83(5) . . .
81(5) . . .
68(4) . . .
66(4) . . .
64(4) . . .
62(4) . . .
68(4) . . .
78(5) . . .
79(5) . . .
68(4) . . .
73(5) . . .
66(4) . . .
70(4) . . .
75(4) . . .
60(4) . . .
74(5) . . .
65(4) . . .
63(4) . . .
72(4) . . .
70(5) . . .
70(5) . . .
74(5) . . .
75(5) . . .
75(4) . . .
61(4) . . .
74(5) . . .
73(5) . . .
83(5) . . .
77(5) . . .
74(5) . . .
63(4) . . .
63(4) . . .
83(5) . . .
71(4) . . .
70(4) . . .
77(5) . . .
71(5) . . .
75(4) . . .
74(4) . . .
66(4) . . .
72(4) . . .
89(5) . . .
78(5) . . .
75(5) . . .
77(5) . . .
85(5) . . .
79(5) . . .
66(4) . . .
67(4) . . .
75(5) . . .
72(5) . . .
67(4) . . .
76(5) . . .
70(4) . . .
78(5) . . .
76(5) . . .
75(5) . . .
67(4) . . .
61(4) . . .
74(5) . . .
74(5) . . .
72(5) . . .
62(4) . . .
65(4) . . .
65(4) . . .
60(4) . . .
83(5) . . .
78(5) . . .
68(5) . . .
66(4) . . .
56(4) . . .
74(5) . . .
71(4) . . .
66(4) . . .
83(5) . . .
84(5) . . .
82(5) . . .
76(5) . . .
58(4) . . .
74(5) . . .
82(5) . . .
66(4) . . .
72(4) . . .
70(4) . . .
83(5) . . .
79(5) . . .
75(5) . . .
61(4) . . .
78(5) . . .
73(5) . . .
81(5) . . .
80(5) . . .
74(4) . . .
77(5) . . .
69(5) . . .
74(5) . . .
70(4) . . .
76(5) . . .
66(5) . . .
66(5) . . .
70(5) . . .
72(4) . . .
80(5) . . .
76(5) . . .
60(4) . . .
70(5) . . .
72(4) . . .
74(5) . . .
66(5) . . .
74(5) . . .
64(4) . . .
65(4) . . .
66(4) . . .
76(5) . . .
71(4) . . .
73(4) . . .
64(4) . . .
63(4) . . .
77(5) . . .
70(5) . . .
66(4) . . .
65(4) . . .
63(4) . . .
68(4) . . .
63(4) . . .
66(4) . . .
73(4) . . .
73(5) . . .
68(5) . . .
70(4) . . .
76(5) . . .
78(5) . . .
70(4) . . .
77(5) . . .
68(4) . . .
69(4) . . .
59(4) . . .
78(5) . . .
83(5) . . .
85(5) . . .
88(5) . . .
75(4) . . .
68(4) . . .
71(4) . . .
84(5) . . .
81(5) . . .
83(5) . . .
64(4) . . .
69(5) . . .
72(5) . . .
71(4) . . .
70(4) . . .
86(5) . . .
80(5) . . .
70(5) . . .
56(4) . . .
60(4) . . .
74(5) . . .
68(5) . . .
69(5) . . .
72(5) . . .
64(4) . . .
76(5) . . .
59(4) . . .
66(5) . . .
66(4) . . .
75(5) . . .
78(5) . . .
75(5) . . .
70(4) . . .
71(4) . . .
54(4) . . .
62(4) . . .
68(4) . . .
81(5) . . .
61(4) . . .
73(5) . . .
80(5) . . .
85(5) . . .
77(5) . . .
64(4) . . .
73(4) . . .
76(5) . . .
79(5) . . .
82(5) . . .
76(5) . . .
69(4) . . .
60(4) . . .
71(5) . . .
71(4) . . .
76(5) . . .
91(5) . . .
69(4) . . .
61(4) . . .
63(4) . . .
74(4) . . .
77(5) . . .
79(5) . . .
64(4) . . .
75(5) . . .
69(4) . . .
74(5) . . .
75(5) . . .
73(4) . . .
67(4) . . .
61(4) . . .
67(4) . . .
69(4) . . .
63(4) . . .
79(5) . . .
63(4) . . .
68(4) . . .
54(4) . . .
76(5) . . .
68(4) . . .
66(4) . . .
67(4) . . .
65(4) . . .
72(4) . . .
74(4) . . .
87(5) . . .
65(4) . . .
84(5) . . .
75(5) . . .
65(4) . . .
70(5) . . .
73(5) . . .
71(4) . . .
69(4) . . .
81(5) . . .
76(5) . . .
66(5) . . .
64(4) . . .
67(4) . . .
73(4) . . .
79(5) . . .
71(5) . . .
68(5) . . .
66(4) . . .
58(4) . . .
73(5) . . .
60(4) . . .
71(5) . . .
77(5) . . .
79(5) . . .
78(5) . . .
76(5) . . .
58(4) . . .
73(4) . . .
72(4) . . .
68(5) . . .
68(5) . . .
61(4) . . .
69(4) . . .
73(4) . . .
59(4) . . .
63(4) . . .
62(4) . . .
63(4) . . .
65(4) . . .
71(5) . . .
63(4) . . .
71(5) . . .
67(4) . . .
63(4) . . .
63(4) . . .
69(4) . . .
58(4) . . .
68(4) . . .
59(4) . . .
68(5) . . .
65(4) . . .
62(4) . . .
60(4) . . .
74(5) . . .
72(5) . . .
72(5) . . .
86(5) . . .
76(5) . . .
70(4) . . .
81(5) . . .
77(5) . . .
77(5) . . .
66(4) . . .
69(4) . . .
60(4) . . .
62(4) . . .
66(4) . . .
78(5) . . .
77(5) . . .
78(5) . . .
85(5) . . .
70(4) . . .
73(4) . . .
65(4) . . .
66(5) . . .
80(5) . . .
64(4) . . .
70(5) . . .
76(5) . . .
59(4) . . .
72(5) . . .
80(5) . . .
72(4) . . .
63(4) . . .
65(4) . . .
72(5) . . .
75(5) . . .
76(5) . . .
59(4) . . .
82(5) . . .
73(5) . . .
89(5) . . .
76(5) . . .
74(5) . . .
75(5) . . .
60(4) . . .
78(5) . . .
70(5) . . .
77(5) . . .
68(4) . . .
82(5) . . .
68(4) . . .
84(5) . . .
65(4) . . .
79(5) . . .
67(4) . . .
75(5) . . .
66(4) . . .
77(5) . . .
65(4) . . .
62(4) . . .
71(4) . . .
82(5) . . .
68(5) . . .
62(4) . . .
76(4) . . .
70(4) . . .
74(5) . . .
68(5) . . .
67(4) . . .
66(4) . . .
62(4) . . .
71(5) . . .
62(4) . . .
74(5) . . .
73(4) . . .
74(5) . . .
75(5) . . .
68(4) . . .
65(4) . . .
68(4) . . .
78(5) . . .
74(5) . . .
68(5) . . .
65(4) . . .
72(4) . . .
68(4) . . .
74(5) . . .
72(5) . . .
64(4) . . .
70(4) . . .
81(5) . . .
69(4) . . .
71(5) . . .
71(4) . . .
68(4) . . .
71(5) . . .
69(5) . . .
85(5) . . .
72(5) . . .
66(4) . . .
73(5) . . .
71(4) . . .
77(5) . . .
71(4) . . .
86(5) . . .
81(5) . . .
76(5) . . .
59(4) . . .
63(4) . . .
66(4) . . .
70(5) . . .
69(5) . . .
67(4) . . .
62(4) . . .
68(4) . . .
78(5) . . .
76(5) . . .
70(4) . . .
65(4) . . .
61(4) . . .
58(4) . . .
62(4) . . .
71(5) . . .
60(4) . . .
70(4) . . .
64(4) . . .
67(5) . . .
57(4) . . .
62(4) . . .
68(4) . . .
72(4) . . .
71(5) . . .
73(5) . . .
64(4) . . .
70(4) . . .
69(5) . . .
70(5) . . .
88(5) . . .
75(4) . . .
69(4) . . .
65(4) . . .
80(5) . . .
68(5) . . .
70(4) . . .
82(5) . . .
74(5) . . .
74(5) . . .
67(4) . . .
68(4) . . .
64(4) . . .
68(5) . . .
59(4) . . .
66(4) . . .
63(4) . . .
82(5) . . .
83(5) . . .
58(4) . . .
65(4) . . .
76(4) . . .
60(4) . . .
57(4) . . .
69(4) . . .
64(4) . . .
65(4) . . .
61(4) . . .
79(5) . . .
75(5) . . .
79(5) . . .
69(4) . . .
70(5) . . .
63(4) . . .
80(5) . . .
69(4) . . .
74(4) . . .
81(5) . . .
69(5) . . .
68(5) . . .
63(4) . . .
68(4) . . .
64(4) . . .
74(5) . . .
59(4) . . .
67(4) . . .
72(4) . . .
68(4) . . .
82(5) . . .
62(4) . . .
78(5) . . .
80(5) . . .
68(5) . . .
71(5) . . .
69(5) . . .
65(4) . . .
64(4) . . .
66(4) . . .
64(4) . . .
67(4) . . .
73(4) . . .
61(4) . . .
83(5) . . .
74(5) . . .
72(4) . . .
82(5) . . .
77(5) . . .
67(4) . . .
73(5) . . .
74(5) . . .
67(4) . . .
72(5) . . .
66(4) . . .
63(4) . . .
70(4) . . .
70(4) . . .
62(4) . . .
74(5) . . .
67(4) . . .
68(4) . . .
63(4) . . .
60(4) . . .
68(5) . . .
74(5) . . .
68(4) . . .
73(4) . . .
79(5) . . .
68(5) . . .
66(4) . . .
74(5) . . .
66(4) . . .
71(5) . . .
58(4) . . .
60(4) . . .
62(4) . . .
63(4) . . .
67(4) . . .
78(5) . . .
50(4) . . .
78(5) . . .
74(5) . . .
71(5) . . .
61(4) . . .
63(4) . . .
67(4) . . .
64(4) . . .
68(4) . . .
66(4) . . .
79(5) . . .
72(4) . . .
67(4) . . .
65(4) . . .
74(5) . . .
63(4) . . .
71(4) . . .
71(5) . . .
61(4) . . .
71(5) . . .
63(4) . . .
75(4) . . .
82(5) . . .
66(4) . . .
70(4) . . .
69(4) . . .
66(4) . . .
72(5) . . .
60(4) . . .
66(4) . . .
73(4) . . .
77(5) . . .
70(4) . . .
61(4) . . .
69(4) . . .
68(4) . . .
65(4) . . .
68(4) . . .
73(5) . . .
72(5) . . .
77(5) . . .
67(4) . . .
70(5) . . .
55(4) . . .
78(5) . . .
77(5) . . .
60(4) . . .
63(4) . . .
65(4) . . .
59(4) . . .
78(5) . . .
76(5) . . .
73(5) . . .
73(5) . . .
70(4) . . .
67(4) . . .
58(4) . . .
76(5) . . .
66(4) . . .
61(4) . . .
68(4) . . .
71(5) . . .
68(5) . . .
67(4) . . .
68(4) . . .
66(4) . . .
78(5) . . .
72(5) . . .
66(4) . . .
71(4) . . .
73(4) . . .
73(5) . . .
58(4) . . .
72(5) . . .
66(4) . . .
73(4) . . .
66(4) . . .
74(5) . . .
65(4) . . .
75(5) . . .
67(4) . . .
66(4) . . .
63(4) . . .
73(5) . . .
65(4) . . .
64(4) . . .
72(5) . . .
65(5) . . .
76(5) . . .
81(5) . . .
81(5) . . .
71(4) . . .
71(5) . . .
71(5) . . .
74(4) . . .
72(5) . . .
63(4) . . .
76(5) . . .
65(4) . . .
64(4) . . .
59(4) . . .
67(5) . . .
68(5) . . .
73(5) . . .
58(4) . . .
57(4) . . .
77(5) . . .
65(4) . . .
70(5) . . .
68(4) . . .
65(4) . . .
55(4) . . .
74(5) . . .
68(4) . . .
65(4) . . .
65(4) . . .
73(5) . . .
74(5) . . .
76(5) . . .
80(5) . . .
73(5) . . .
69(5) . . .
70(4) . . .
76(5) . . .
60(4) . . .
67(4) . . .
76(5) . . .
68(4) . . .
56(4) . . .
68(4) . . .
62(4) . . .
70(5) . . .
76(5) . . .
67(4) . . .
68(4) . . .
75(5) . . .
76(5) . . .
73(5) . . .
68(4) . . .
75(5) . . .
88(5) . . .
74(5) . . .
62(4) . . .
62(4) . . .
52(4) . . .
70(4) . . .
73(5) . . .
69(4) . . .
67(4) . . .
71(4) . . .
65(4) . . .
65(4) . . .
57(4) . . .
73(4) . . .
60(4) . . .
63(4) . . .
59(4) . . .
71(4) . . .
79(5) . . .
59(4) . . .
61(4) . . .
74(5) . . .
60(4) . . .
62(4) . . .
72(5) . . .
81(5) . . .
68(5) . . .
62(4) . . .
57(4) . . .
64(4) . . .
75(5) . . .
73(5) . . .
75(5) . . .
73(5) . . .
66(4) . . .
61(4) . . .
68(4) . . .
59(4) . . .
70(4) . . .
67(4) . . .
75(5) . . .
69(4) . . .
74(4) . . .
65(4) . . .
71(5) . . .
65(5) . . .
61(4) . . .
58(4) . . .
66(4) . . .
77(5) . . .
79(5) . . .
70(5) . . .
73(4) . . .
75(5) . . .
65(4) . . .
73(5) . . .
65(4) . . .
70(4) . . .
59(4) . . .
71(5) . . .
64(4) . . .
73(5) . . .
59(4) . . .
69(4) . . .
71(5) . . .
69(4) . . .
62(4) . . .
67(4) . . .
68(4) . . .
63(4) . . .
68(4) . . .
80(5) . . .
77(5) . . .
55(4) . . .
72(5) . . .
67(4) . . .
67(4) . . .
70(4) . . .
74(5) . . .
72(5) . . .
61(4) . . .
76(4) . . .
63(4) . . .
76(5) . . .
68(5) . . .
74(5) . . .
62(4) . . .
68(4) . . .
60(4) . . .
55(4) . . .
72(5) . . .
66(4) . . .
71(4) . . .
78(5) . . .
71(5) . . .
64(4) . . .
75(5) . . .
64(4) . . .
69(4) . . .
74(5) . . .
68(4) . . .
84(5) . . .
67(4) . . .
56(4) . . .
66(5) . . .
66(4) . . .
59(4) . . .
82(5) . . .
63(4) . . .
65(4) . . .
59(4) . . .
66(4) . . .
70(4) . . .
79(5) . . .
63(4) . . .
76(5) . . .
65(4) . . .
63(4) . . .
65(4) . . .
59(4) . . .
69(4) . . .
63(4) . . .
76(5) . . .
65(4) . . .
74(5) . . .
64(4) . . .
77(5) . . .
68(4) . . .
71(5) . . .
67(4) . . .
68(4) . . .
57(4) . . .
65(4) . . .
65(4) . . .
88(5) . . .
74(4) . . .
68(4) . . .
63(4) . . .
70(5) . . .
59(4) . . .
60(4) . . .
46(4) . . .
61(4) . . .
73(5) . . .
60(4) . . .
61(4) . . .
84(5) . . .
64(4) . . .
72(5) . . .
69(5) . . .
67(4) . . .
79(5) . . .
74(5) . . .
73(5) . . .
75(5) . . .
70(4) . . .
63(4) . . .
65(4) . . .
66(5) . . .
58(4) . . .
74(4) . . .
67(4) . . .
51(4) . . .
61(4) . . .
58(4) . . .
73(4) . . .
70(4) . . .
58(4) . . .
61(4) . . .
66(4) . . .
66(4) . . .
74(5) . . .
72(5) . . .
65(4) . . .
66(4) . . .
64(4) . . .
69(4) . . .
65(4) . . .
62(4) . . .
64(4) . . .
70(4) . . .
69(5) . . .
74(5) . . .
66(4) . . .
68(4) . . .
72(4) . . .
76(5) . . .
59(4) . . .
54(4) . . .
65(4) . . .
60(4) . . .
72(5) . . .
62(4) . . .
56(4) . . .
52(4) . . .
65(4) . . .
69(5) . . .
67(5) . . .
66(4) . . .
76(5) . . .
70(4) . . .
77(5) . . .
61(4) . . .
56(4) . . .
70(4) . . .
77(5) . . .
74(4) . . .
78(5) . . .
66(4) . . .
72(4) . . .
69(5) . . .
51(4) . . .
76(5) . . .
71(5) . . .
68(4) . . .
65(4) . . .
64(4) . . .
71(5) . . .
67(4) . . .
65(4) . . .
69(5) . . .
57(4) . . .
75(5) . . .
65(4) . . .
69(4) . . .
68(4) . . .
71(5) . . .
73(4) . . .
64(4) . . .
69(4) . . .
72(4) . . .
70(5) . . .
77(5) . . .
84(5) . . .
67(4) . . .
75(5) . . .
71(5) . . .
75(5) . . .
62(4) . . .
72(4) . . .
69(5) . . .
70(5) . . .
68(4) . . .
60(4) . . .
65(4) . . .
62(4) . . .
50(4) . . .
68(5) . . .
67(4) . . .
62(4) . . .
60(4) . . .
65(4) . . .
68(4) . . .
71(4) . . .
67(4) . . .
70(4) . . .
65(4) . . .
58(4) . . .
76(5) . . .
69(4) . . .
71(5) . . .
52(4) . . .
58(4) . . .
57(4) . . .
61(4) . . .
66(4) . . .
63(4) . . .
69(5) . . .
57(4) . . .
79(5) . . .
62(4) . . .
62(4) . . .
61(4) . . .
62(4) . . .
63(4) . . .
72(5) . . .
68(5) . . .
63(4) . . .
71(4) . . .
52(4) . . .
65(4) . . .
64(4) . . .
78(5) . . .
74(5) . . .
61(4) . . .
54(4) . . .
64(5) . . .
73(5) . . .
70(4) . . .
73(5) . . .
64(5) . . .
67(4) . . .
67(4) . . .
60(4) . . .
56(4) . . .
61(4) . . .
57(4) . . .
67(4) . . .
67(4) . . .
69(4) . . .
78(5) . . .
80(5) . . .
67(4) . . .
82(5) . . .
77(5) . . .
65(4) . . .
63(4) . . .
59(4) . . .
67(4) . . .
80(5) . . .
79(5) . . .
60(4) . . .
67(4) . . .
68(4) . . .
56(4) . . .
72(5) . . .
74(5) . . .
67(4) . . .
62(4) . . .
72(5) . . .
65(4) . . .
51(4) . . .
64(4) . . .
69(4) . . .
75(5) . . .
61(4) . . .
61(4) . . .
70(4) . . .
77(5) . . .
53(4) . . .
68(4) . . .
76(5) . . .
71(4) . . .
64(4) . . .
67(4) . . .
69(5) . . .
68(4) . . .
63(4) . . .
57(4) . . .
66(5) . . .
66(4) . . .
64(4) . . .
73(4) . . .
63(4) . . .
80(5) . . .
62(4) . . .
74(4) . . .
69(4) . . .
62(4) . . .
66(4) . . .
75(5) . . .
68(4) . . .
59(4) . . .
59(4) . . .
52(4) . . .
63(4) . . .
64(4) . . .
70(4) . . .
58(4) . . .
60(4) . . .
64(4) . . .
63(4) . . .
56(4) . . .
72(5) . . .
74(5) . . .
69(4) . . .
67(4) . . .
68(4) . . .
59(4) . . .
71(5) . . .
69(4) . . .
65(4) . . .
52(4) . . .
64(4) . . .
72(5) . . .
55(4) . . .
58(4) . . .
64(4) . . .
66(5) . . .
60(4) . . .
63(4) . . .
57(4) . . .
71(5) . . .
52(4) . . .
63(4) . . .
69(4) . . .
71(4) . . .
74(5) . . .
59(4) . . .
67(4) . . .
58(4) . . .
60(4) . . .
63(4) . . .
61(4) . . .
69(5) . . .
60(4) . . .
63(4) . . .
54(4) . . .
63(4) . . .
65(4) . . .
62(4) . . .
63(4) . . .
67(4) . . .
69(5) . . .
68(4) . . .
63(4) . . .
77(5) . . .
65(4) . . .
61(4) . . .
71(4) . . .
56(4) . . .
55(4) . . .
74(5) . . .
63(4) . . .
72(5) . . .
75(5) . . .
61(4) . . .
61(4) . . .
63(4) . . .
77(5) . . .
69(4) . . .
59(4) . . .
64(4) . . .
72(5) . . .
72(5) . . .
58(4) . . .
74(5) . . .
65(4) . . .
59(4) . . .
59(4) . . .
69(4) . . .
60(4) . . .
62(4) . . .
66(4) . . .
78(5) . . .
68(4) . . .
57(4) . . .
64(4) . . .
67(5) . . .
59(4) . . .
70(4) . . .
62(4) . . .
67(5) . . .
56(4) . . .
62(4) . . .
65(4) . . .
63(4) . . .
55(4) . . .
67(5) . . .
62(4) . . .
64(4) . . .
60(4) . . .
77(5) . . .
71(5) . . .
74(4) . . .
68(4) . . .
71(4) . . .
67(5) . . .
63(4) . . .
60(4) . . .
61(4) . . .
61(4) . . .
61(4) . . .
62(4) . . .
70(4) . . .
69(4) . . .
66(5) . . .
63(4) . . .
64(4) . . .
56(4) . . .
68(4) . . .
66(5) . . .
60(4) . . .
62(4) . . .
62(4) . . .
62(4) . . .
66(4) . . .
73(4) . . .
74(4) . . .
60(4) . . .
57(4) . . .
71(5) . . .
70(4) . . .
69(4) . . .
69(4) . . .
65(5) . . .
75(5) . . .
72(5) . . .
67(4) . . .
66(4) . . .
60(4) . . .
64(4) . . .
72(4) . . .
60(4) . . .
69(4) . . .
57(4) . . .
71(5) . . .
64(4) . . .
57(4) . . .
48(4) . . .
65(4) . . .
64(4) . . .
62(4) . . .
58(4) . . .
67(4) . . .
54(4) . . .
60(4) . . .
67(4) . . .
63(4) . . .
62(4) . . .
66(4) . . .
70(5) . . .
66(4) . . .
67(4) . . .
66(4) . . .
66(4) . . .
65(5) . . .
64(5) . . .
56(4) . . .
69(4) . . .
68(4) . . .
70(5) . . .
71(4) . . .
72(4) . . .
72(4) . . .
55(4) . . .
72(5) . . .
61(4) . . .
61(4) . . .
59(4) . . .
66(5) . . .
57(4) . . .
67(4) . . .
66(4) . . .
59(4) . . .
60(4) . . .
56(4) . . .
65(4) . . .
56(4) . . .
68(4) . . .
65(4) . . .
49(4) . . .
59(4) . . .
60(4) . . .
77(5) . . .
67(4) . . .
61(4) . . .
69(4) . . .
60(4) . . .
71(5) . . .
57(4) . . .
64(4) . . .
68(4) . . .
67(4) . . .
65(4) . . .
65(4) . . .
54(4) . . .
61(4) . . .
71(4) . . .
73(4) . . .
69(5) . . .
68(4) . . .
52(4) . . .
56(4) . . .
68(4) . . .
75(5) . . .
72(5) . . .
63(4) . . .
67(4) . . .
55(4) . . .
61(4) . . .
64(4) . . .
58(4) . . .
72(5) . . .
74(5) . . .
73(4) . . .
63(4) . . .
62(4) . . .
64(4) . . .
73(5) . . .
74(5) . . .
56(4) . . .
63(4) . . .
61(4) . . .
73(5) . . .
63(4) . . .
69(4) . . .
57(4) . . .
78(5) . . .
62(4) . . .
68(5) . . .
64(4) . . .
70(4) . . .
62(4) . . .
67(5) . . .
62(4) . . .
71(4) . . .
56(4) . . .
64(4) . . .
76(5) . . .
71(5) . . .
74(4) . . .
65(4) . . .
71(4) . . .
74(5) . . .
72(4) . . .
72(4) . . .
66(4) . . .
66(4) . . .
77(5) . . .
74(5) . . .
65(4) . . .
68(4) . . .
64(4) . . .
63(4) . . .
75(5) . . .
67(4) . . .
74(5) . . .
69(4) . . .
66(4) . . .
67(5) . . .
65(4) . . .
60(4) . . .
71(5) . . .
65(4) . . .
76(5) . . .
65(4) . . .
55(4) . . .
64(4) . . .
69(5) . . .
64(4) . . .
58(4) . . .
55(4) . . .
62(4) . . .
55(4) . . .
58(4) . . .
55(4) . . .
66(4) . . .
75(5) . . .
75(5) . . .
66(4) . . .
61(4) . . .
70(4) . . .
63(4) . . .
57(4) . . .
73(5) . . .
69(4) . . .
61(4) . . .
54(4) . . .
82(5) . . .
59(4) . . .
66(4) . . .
70(5) . . .
50(4) . . .
66(4) . . .
69(4) . . .
66(4) . . .
66(4) . . .
52(4) . . .
63(4) . . .
61(4) . . .
63(4) . . .
59(4) . . .
65(4) . . .
53(4) . . .
71(4) . . .
60(4) . . .
67(4) . . .
55(4) . . .
59(4) . . .
66(4) . . .
73(5) . . .
67(4) . . .
70(5) . . .
74(5) . . .
74(4) . . .
56(4) . . .
48(4) . . .
51(4) . . .
59(4) . . .
67(4) . . .
71(5) . . .
72(5) . . .
64(4) . . .
64(4) . . .
63(4) . . .
60(4) . . .
72(5) . . .
64(4) . . .
64(4) . . .
68(4) . . .
76(5) . . .
60(4) . . .
69(5) . . .
61(4) . . .
68(4) . . .
55(4) . . .
74(5) . . .
62(4) . . .
70(4) . . .
60(4) . . .
56(4) . . .
68(5) . . .
62(4) . . .
74(4) . . .
66(4) . . .
62(4) . . .
84(5) . . .
66(4) . . .
62(4) . . .
63(4) . . .
64(4) . . .
72(5) . . .
74(5) . . .
66(4) . . .
61(4) . . .
62(4) . . .
56(4) . . .
56(4) . . .
63(4) . . .
66(4) . . .
70(5) . . .
66(4) . . .
59(4) . . .
61(4) . . .
52(4) . . .
65(4) . . .
64(4) . . .
50(4) . . .
65(4) . . .
81(5) . . .
60(4) . . .
51(4) . . .
56(4) . . .
66(4) . . .
61(4) . . .
72(5) . . .
66(4) . . .
64(4) . . .
59(4) . . .
63(4) . . .
65(4) . . .
63(4) . . .
60(4) . . .
75(5) . . .
68(4) . . .
57(4) . . .
56(4) . . .
59(4) . . .
59(4) . . .
65(4) . . .
72(5) . . .
64(4) . . .
63(4) . . .
62(4) . . .
71(5) . . .
73(5) . . .
64(4) . . .
72(4) . . .
63(4) . . .
57(4) . . .
79(5) . . .
73(5) . . .
69(4) . . .
64(4) . . .
61(4) . . .
70(5) . . .
59(4) . . .
65(4) . . .
58(4) . . .
63(4) . . .
52(4) . . .
54(4) . . .
59(4) . . .
59(4) . . .
74(5) . . .
63(4) . . .
72(5) . . .
57(4) . . .
55(4) . . .
64(5) . . .
59(4) . . .
62(4) . . .
65(4) . . .
69(4) . . .
65(5) . . .
66(4) . . .
61(4) . . .
59(4) . . .
60(4) . . .
63(4) . . .
52(4) . . .
54(4) . . .
59(4) . . .
58(4) . . .
54(4) . . .
67(4) . . .
65(4) . . .
61(4) . . .
69(5) . . .
65(4) . . .
63(4) . . .
63(4) . . .
66(4) . . .
66(4) . . .
61(4) . . .
65(4) . . .
56(4) . . .
59(4) . . .
63(4) . . .
71(5) . . .
61(4) . . .
59(4) . . .
73(5) . . .
58(4) . . .
69(5) . . .
59(4) . . .
65(4) . . .
65(4) . . .
61(4) . . .
67(4) . . .
54(4) . . .
61(4) . . .
61(4) . . .
66(4) . . .
58(4) . . .
61(4) . . .
65(4) . . .
69(5) . . .
72(5) . . .
59(4) . . .
63(4) . . .
62(4) . . .
62(4) . . .
65(5) . . .
65(4) . . .
66(4) . . .
65(4) . . .
71(5) . . .
66(5) . . .
59(4) . . .
68(4) . . .
63(4) . . .
67(5) . . .
63(4) . . .
67(4) . . .
60(4) . . .
71(4) . . .
62(4) . . .
62(5) . . .
64(4) . . .
70(4) . . .
56(4) . . .
53(4) . . .
67(5) . . .
58(4) . . .
63(4) . . .
61(4) . . .
65(5) . . .
63(4) . . .
58(4) . . .
64(4) . . .
63(4) . . .
64(4) . . .
62(4) . . .
65(4) . . .
74(4) . . .
60(4) . . .
54(4) . . .
71(4) . . .
76(5) . . .
58(4) . . .
58(4) . . .
71(5) . . .
64(4) . . .
74(5) . . .
63(4) . . .
68(4) . . .
75(5) . . .
65(4) . . .
59(4) . . .
73(4) . . .
65(4) . . .
59(4) . . .
64(4) . . .
70(4) . . .
61(4) . . .
65(4) . . .
78(5) . . .
55(4) . . .
65(4) . . .
53(4) . . .
59(4) . . .
63(5) . . .
60(4) . . .
69(4) . . .
65(4) . . .
60(4) . . .
65(5) . . .
60(4) . . .
66(4) . . .
62(4) . . .
58(4) . . .
55(4) . . .
57(4) . . .
62(4) . . .
74(4) . . .
68(4) . . .
71(5) . . .
58(4) . . .
60(4) . . .
60(4) . . .
74(5) . . .
58(4) . . .
66(4) . . .
57(4) . . .
64(4) . . .
82(5) . . .
60(4) . . .
56(4) . . .
57(4) . . .
55(4) . . .
66(4) . . .
58(4) . . .
60(4) . . .
64(4) . . .
62(4) . . .
71(5) . . .
64(4) . . .
65(4) . . .
61(4) . . .
59(4) . . .
68(4) . . .
58(4) . . .
62(4) . . .
58(4) . . .
67(4) . . .
86(5) . . .
69(4) . . .
63(4) . . .
64(4) . . .
57(4) . . .
51(4) . . .
53(4) . . .
61(4) . . .
70(4) . . .
66(4) . . .
61(4) . . .
67(5) . . .
64(4) . . .
69(4) . . .
62(4) . . .
72(5) . . .
69(4) . . .
63(4) . . .
67(4) . . .
58(4) . . .
61(4) . . .
56(4) . . .
54(4) . . .
64(4) . . .
59(4) . . .
77(5) . . .
60(4) . . .
74(5) . . .
52(4) . . .
57(4) . . .
53(4) . . .
57(4) . . .
54(4) . . .
66(4) . . .
65(4) . . .
52(4) . . .
54(4) . . .
59(4) . . .
61(4) . . .
55(4) . . .
61(4) . . .
75(5) . . .
65(4) . . .
64(4) . . .
71(5) . . .
61(4) . . .
58(4) . . .
59(4) . . .
68(4) . . .
70(5) . . .
69(5) . . .
66(4) . . .
68(4) . . .
70(4) . . .
64(4) . . .
67(4) . . .
57(4) . . .
50(4) . . .
62(4) . . .
67(4) . . .
69(5) . . .
49(4) . . .
58(4) . . .
65(4) . . .
72(5) . . .
58(4) . . .
57(4) . . .
64(4) . . .
58(4) . . .
68(5) . . .
61(4) . . .
56(4) . . .
69(4) . . .
71(5) . . .
54(4) . . .
64(4) . . .
52(4) . . .
75(5) . . .
64(4) . . .
64(4) . . .
64(4) . . .
57(4) . . .
63(4) . . .
72(5) . . .
73(5) . . .
62(4) . . .
56(4) . . .
66(5) . . .
70(4) . . .
63(4) . . .
67(4) . . .
65(4) . . .
64(4) . . .
58(4) . . .
57(4) . . .
64(4) . . .
61(4) . . .
47(4) . . .
61(4) . . .
65(4) . . .
63(4) . . .
64(4) . . .
60(4) . . .
72(5) . . .
60(4) . . .
59(4) . . .
65(4) . . .
66(4) . . .
71(5) . . .
60(4) . . .
71(4) . . .
61(4) . . .
69(4) . . .
56(4) . . .
56(4) . . .
65(4) . . .
58(4) . . .
53(4) . . .
59(4) . . .
58(4) . . .
55(4) . . .
56(4) . . .
58(4) . . .
72(5) . . .
56(4) . . .
56(4) . . .
51(4) . . .
60(4) . . .
58(4) . . .
62(4) . . .
63(4) . . .
79(5) . . .
60(4) . . .
63(4) . . .
54(4) . . .
59(4) . . .
65(4) . . .
54(4) . . .
54(4) . . .
63(4) . . .
64(4) . . .
58(4) . . .
59(4) . . .
71(5) . . .
72(5) . . .
66(4) . . .
65(4) . . .
62(4) . . .
62(4) . . .
55(4) . . .
59(4) . . .
62(4) . . .
62(4) . . .
58(4) . . .
59(4) . . .
56(4) . . .
56(4) . . .
70(5) . . .
81(5) . . .
63(4) . . .
62(4) . . .
66(5) . . .
68(4) . . .
67(4) . . .
69(4) . . .
65(4) . . .
56(4) . . .
57(4) . . .
59(4) . . .
59(4) . . .
66(4) . . .
71(5) . . .
61(4) . . .
69(4) . . .
71(4) . . .
64(4) . . .
66(4) . . .
64(4) . . .
57(4) . . .
51(4) . . .
63(4) . . .
52(4) . . .
63(5) . . .
55(4) . . .
63(4) . . .
53(4) . . .
55(4) . . .
74(5) . . .
63(4) . . .
55(4) . . .
61(4) . . .
63(4) . . .
61(4) . . .
56(4) . . .
48(4) . . .
57(4) . . .
68(5) . . .
68(5) . . .
58(4) . . .
59(4) . . .
60(4) . . .
63(4) . . .
69(5) . . .
63(4) . . .
56(4) . . .
63(4) . . .
54(4) . . .
69(5) . . .
55(4) . . .
59(4) . . .
50(4) . . .
65(5) . . .
61(4) . . .
53(4) . . .
62(4) . . .
69(5) . . .
54(4) . . .
63(4) . . .
54(4) . . .
67(4) . . .
62(4) . . .
58(4) . . .
63(4) . . .
59(4) . . .
70(4) . . .
72(5) . . .
68(5) . . .
70(5) . . .
68(4) . . .
66(4) . . .
60(4) . . .
71(5) . . .
57(4) . . .
66(4) . . .
59(4) . . .
68(4) . . .
64(4) . . .
65(5) . . .
60(4) . . .
64(4) . . .
64(4) . . .
69(5) . . .
61(4) . . .
62(4) . . .
62(4) . . .
63(4) . . .
66(4) . . .
61(4) . . .
74(5) . . .
65(4) . . .
59(4) . . .
61(4) . . .
56(4) . . .
55(4) . . .
60(4) . . .
57(4) . . .
57(4) . . .
63(4) . . .
56(4) . . .
56(4) . . .
49(4) . . .
60(4) . . .
57(4) . . .
55(4) . . .
54(4) . . .
52(4) . . .
70(5) . . .
64(4) . . .
49(4) . . .
68(4) . . .
59(4) . . .
62(4) . . .
60(4) . . .
55(4) . . .
60(4) . . .
69(4) . . .
74(5) . . .
61(4) . . .
61(4) . . .
66(5) . . .
60(4) . . .
63(4) . . .
64(4) . . .
69(4) . . .
64(4) . . .
64(5) . . .
58(4) . . .
59(4) . . .
66(4) . . .
62(4) . . .
60(4) . . .
58(4) . . .
62(4) . . .
49(4) . . .
55(4) . . .
57(4) . . .
52(4) . . .
60(4) . . .
48(4) . . .
63(4) . . .
68(5) . . .
65(4) . . .
65(4) . . .
54(4) . . .
61(5) . . .
57(4) . . .
51(4) . . .
73(4) . . .
64(4) . . .
48(4) . . .
64(4) . . .
60(4) . . .
61(4) . . .
62(4) . . .
73(5) . . .
66(4) . . .
69(4) . . .
65(4) . . .
62(4) . . .
63(4) . . .
65(4) . . .
61(4) . . .
61(4) . . .
66(4) . . .
63(4) . . .
60(4) . . .
62(4) . . .
61(4) . . .
68(5) . . .
57(4) . . .
67(4) . . .
55(4) . . .
57(4) . . .
55(4) . . .
56(4) . . .
61(4) . . .
65(4) . . .
55(4) . . .
62(4) . . .
57(4) . . .
63(4) . . .
70(4) . . .
62(4) . . .
76(5) . . .
71(5) . . .
70(4) . . .
69(4) . . .
50(4) . . .
63(4) . . .
60(4) . . .
58(4) . . .
60(4) . . .
62(4) . . .
53(4) . . .
54(4) . . .
64(4) . . .
62(4) . . .
56(4) . . .
60(4) . . .
66(4) . . .
72(4) . . .
68(4) . . .
56(4) . . .
46(4) . . .
49(4) . . .
57(4) . . .
65(4) . . .
58(4) . . .
67(5) . . .
60(4) . . .
65(4) . . .
67(4) . . .
50(4) . . .
59(4) . . .
59(5) . . .
49(4) . . .
61(4) . . .
69(4) . . .
64(4) . . .
68(5) . . .
59(4) . . .
53(4) . . .
67(5) . . .
58(4) . . .
64(4) . . .
66(4) . . .
59(4) . . .
56(4) . . .
48(4) . . .
58(4) . . .
57(4) . . .
64(4) . . .
72(5) . . .
57(4) . . .
54(4) . . .
73(4) . . .
60(4) . . .
63(4) . . .
66(4) . . .
72(4) . . .
53(4) . . .
66(5) . . .
57(4) . . .
68(4) . . .
60(4) . . .
56(4) . . .
66(4) . . .
55(4) . . .
63(4) . . .
74(4) . . .
65(4) . . .
53(4) . . .
59(4) . . .
60(4) . . .
70(4) . . .
62(4) . . .
54(4) . . .
64(5) . . .
66(4) . . .
63(4) . . .
57(4) . . .
57(4) . . .
56(4) . . .
74(5) . . .
59(4) . . .
66(4) . . .
53(4) . . .
58(4) . . .
64(4) . . .
67(4) . . .
70(4) . . .
59(4) . . .
64(4) . . .
73(5) . . .
65(4) . . .
73(5) . . .
60(4) . . .
49(4) . . .
60(4) . . .
66(4) . . .
53(4) . . .
54(4) . . .
56(4) . . .
68(4) . . .
61(4) . . .
66(4) . . .
74(5) . . .
52(4) . . .
59(4) . . .
55(4) . . .
59(4) . . .
51(4) . . .
59(4) . . .
57(4) . . .
60(4) . . .
63(4) . . .
53(4) . . .
60(4) . . .
66(4) . . .
69(4) . . .
57(4) . . .
65(5) . . .
62(4) . . .
63(4) . . .
67(4) . . .
59(4) . . .
60(4) . . .
62(4) . . .
56(4) . . .
67(4) . . .
65(4) . . .
73(5) . . .
59(4) . . .
58(4) . . .
55(4) . . .
62(4) . . .
56(4) . . .
58(4) . . .
56(4) . . .
64(4) . . .
50(4) . . .
56(4) . . .
63(4) . . .
55(4) . . .
61(4) . . .
65(4) . . .
67(4) . . .
64(4) . . .
61(4) . . .
63(4) . . .
68(4) . . .
57(4) . . .
59(4) . . .
57(4) . . .
54(4) . . .
63(4) . . .
59(4) . . .
65(4) . . .
56(4) . . .
59(4) . . .
58(4) . . .
57(4) . . .
44(4) . . .
52(4) . . .
73(5) . . .
57(4) . . .
66(4) . . .
70(4) . . .
68(4) . . .
73(4) . . .
63(4) . . .
61(4) . . .
77(5) . . .
51(4) . . .
76(5) . . .
67(4) . . .
65(4) . . .
62(4) . . .
52(4) . . .
62(4) . . .
60(4) . . .
61(4) . . .
56(4) . . .
65(4) . . .
72(5) . . .
67(4) . . .
57(4) . . .
61(4) . . .
71(4) . . .
70(4) . . .
58(4) . . .
54(4) . . .
58(4) . . .
59(4) . . .
50(4) . . .
59(4) . . .
62(4) . . .
69(4) . . .
72(5) . . .
54(4) . . .
55(4) . . .
70(4) . . .
53(4) . . .
50(4) . . .
43.1(35) . . .
58(4) . . .
63(4) . . .
63(4) . . .
63(4) . . .
62(4) . . .
70(5) . . .
72(4) . . .
47(4) . . .
50(4) . . .
52(4) . . .
66(5) . . .
65(4) . . .
59(4) . . .
54(4) . . .
47(4) . . .
68(5) . . .
68(4) . . .
65(4) . . .
61(4) . . .
63(4) . . .
62(4) . . .
62(4) . . .
64(4) . . .
57(4) . . .
59(4) . . .
62(4) . . .
49(4) . . .
60(4) . . .
67(4) . . .
63(4) . . .
65(4) . . .
68(4) . . .
60(4) . . .
59(4) . . .
54(4) . . .
50(4) . . .
55(4) . . .
63(4) . . .
64(4) . . .
57(4) . . .
54(4) . . .
67(4) . . .
70(4) . . .
57(4) . . .
58(4) . . .
62(4) . . .
59(4) . . .
60(4) . . .
59(4) . . .
59(4) . . .
54(4) . . .
55(4) . . .
57(4) . . .
52(4) . . .
55(4) . . .
59(4) . . .
53(4) . . .
56(4) . . .
53(4) . . .
60(4) . . .
70(5) . . .
49(4) . . .
54(4) . . .
62(4) . . .
60(4) . . .
64(4) . . .
67(4) . . .
58(4) . . .
73(5) . . .
64(4) . . .
54(4) . . .
55(4) . . .
59(4) . . .
64(5) . . .
65(4) . . .
41.8(34) . . .
62(4) . . .
67(5) . . .
67(4) . . .
66(4) . . .
64(4) . . .
56(4) . . .
49(4) . . .
57(4) . . .
58(4) . . .
60(4) . . .
58(4) . . .
69(5) . . .
59(4) . . .
57(4) . . .
65(4) . . .
63(4) . . .
62(4) . . .
65(4) . . .
65(4) . . .
57(4) . . .
56(4) . . .
67(4) . . .
63(4) . . .
69(5) . . .
60(4) . . .
66(4) . . .
56(4) . . .
67(5) . . .
59(4) . . .
66(4) . . .
60(4) . . .
52(4) . . .
64(4) . . .
54(4) . . .
55(4) . . .
50(4) . . .
61(4) . . .
56(4) . . .
55(4) . . .
50(4) . . .
47(4) . . .
65(5) . . .
68(4) . . .
63(4) . . .
62(4) . . .
59(4) . . .
55(4) . . .
59(4) . . .
55(4) . . .
58(4) . . .
56(4) . . .
67(4) . . .
61(4) . . .
57(4) . . .
56(4) . . .
54(4) . . .
62(5) . . .
58(4) . . .
65(4) . . .
62(4) . . .
58(4) . . .
51(4) . . .
60(4) . . .
68(4) . . .
75(5) . . .
57(4) . . .
64(4) . . .
70(5) . . .
68(4) . . .
67(5) . . .
51(4) . . .
60(4) . . .
62(4) . . .
67(4) . . .
59(4) . . .
55(4) . . .
66(4) . . .
66(4) . . .
64(4) . . .
62(4) . . .
56(4) . . .
56(4) . . .
55(4) . . .
65(4) . . .
64(4) . . .
60(4) . . .
56(4) . . .
58(4) . . .
60(4) . . .
63(4) . . .
70(5) . . .
56(4) . . .
62(4) . . .
57(4) . . .
58(4) . . .
53(4) . . .
71(5) . . .
57(4) . . .
66(4) . . .
58(4) . . .
66(5) . . .
51(4) . . .
71(4) . . .
57(4) . . .
54(4) . . .
51(4) . . .
52(4) . . .
67(4) . . .
55(4) . . .
69(5) . . .
54(4) . . .
63(4) . . .
69(4) . . .
44.1(35) . . .
61(4) . . .
52(4) . . .
54(4) . . .
62(4) . . .
56(4) . . .
63(4) . . .
56(4) . . .
51(4) . . .
68(4) . . .
58(4) . . .
65(4) . . .
56(4) . . .
50(4) . . .
61(4) . . .
61(4) . . .
73(5) . . .
53(4) . . .
61(4) . . .
64(4) . . .
62(4) . . .
54(4) . . .
85(5) . . .
60(4) . . .
71(4) . . .
61(4) . . .
55(4) . . .
63(4) . . .
64(4) . . .
63(4) . . .
55(4) . . .
60(4) . . .
63(4) . . .
69(4) . . .
61(4) . . .
60(4) . . .
56(4) . . .
78(5) . . .
55(4) . . .
60(4) . . .
55(4) . . .
64(5) . . .
49(4) . . .
49(4) . . .
67(4) . . .
53(4) . . .
53(4) . . .
65(4) . . .
67(4) . . .
55(4) . . .
46(4) . . .
61(4) . . .
68(4) . . .
52(4) . . .
58(4) . . .
56(4) . . .
61(4) . . .
60(4) . . .
56(4) . . .
57(4) . . .
63(4) . . .
51(4) . . .
59(4) . . .
66(4) . . .
62(4) . . .
58(4) . . .
65(4) . . .
53(4) . . .
63(4) . . .
60(4) . . .
64(4) . . .
62(4) . . .
60(4) . . .
62(4) . . .
59(4) . . .
55(4) . . .
55(4) . . .
71(5) . . .
61(4) . . .
59(4) . . .
58(4) . . .
71(5) . . .
52(4) . . .
57(4) . . .
61(4) . . .
67(5) . . .
58(4) . . .
57(4) . . .
63(4) . . .
63(4) . . .
71(5) . . .
63(4) . . .
53(4) . . .
76(5) . . .
59(4) . . .
62(4) . . .
62(4) . . .
43.6(35) . . .
57(4) . . .
56(4) . . .
45(4) . . .
59(4) . . .
57(4) . . .
64(4) . . .
55(4) . . .
66(5) . . .
61(4) . . .
65(4) . . .
53(4) . . .
65(5) . . .
51(4) . . .
49(4) . . .
55(4) . . .
58(4) . . .
62(4) . . .
57(4) . . .
61(4) . . .
56(4) . . .
60(4) . . .
52(4) . . .
52(4) . . .
64(4) . . .
58(4) . . .
68(5) . . .
59(4) . . .
67(4) . . .
65(4) . . .
57(4) . . .
63(4) . . .
49(4) . . .
64(4) . . .
57(4) . . .
57(4) . . .
54(4) . . .
55(4) . . .
58(4) . . .
61(4) . . .
61(4) . . .
55(4) . . .
58(4) . . .
62(4) . . .
61(4) . . .
45.1(35) . . .
58(4) . . .
66(4) . . .
58(4) . . .
54(4) . . .
55(4) . . .
55(4) . . .
62(4) . . .
59(4) . . .
55(4) . . .
57(4) . . .
56(4) . . .
68(5) . . .
58(4) . . .
73(4) . . .
63(4) . . .
72(5) . . .
55(4) . . .
53(4) . . .
55(4) . . .
65(4) . . .
55(4) . . .
64(4) . . .
57(4) . . .
64(4) . . .
58(4) . . .
56(4) . . .
58(4) . . .
47(4) . . .
57(4) . . .
57(4) . . .
55(4) . . .
55(4) . . .
57(4) . . .
58(4) . . .
52(4) . . .
46(4) . . .
51(4) . . .
69(4) . . .
64(4) . . .
61(4) . . .
62(5) . . .
61(4) . . .
63(4) . . .
61(4) . . .
59(4) . . .
54(4) . . .
49(4) . . .
59(4) . . .
64(4) . . .
67(4) . . .
68(4) . . .
67(4) . . .
58(4) . . .
56(4) . . .
58(4) . . .
61(4) . . .
57(4) . . .
60(4) . . .
61(4) . . .
56(4) . . .
58(4) . . .
51(4) . . .
59(4) . . .
58(4) . . .
54(4) . . .
56(4) . . .
61(4) . . .
56(4) . . .
53(4) . . .
56(4) . . .
58(4) . . .
53(4) . . .
63(4) . . .
59(4) . . .
58(4) . . .
64(4) . . .
58(4) . . .
51(4) . . .
68(4) . . .
67(4) . . .
54(4) . . .
64(4) . . .
67(4) . . .
61(4) . . .
54(4) . . .
57(4) . . .
63(4) . . .
57(4) . . .
55(4) . . .
61(5) . . .
53(4) . . .
62(4) . . .
67(4) . . .
54(4) . . .
54(4) . . .
55(4) . . .
62(4) . . .
63(4) . . .
58(4) . . .
54(4) . . .
53(4) . . .
49(4) . . .
58(4) . . .
54(4) . . .
58(4) . . .
63(4) . . .
59(4) . . .
55(4) . . .
52(4) . . .
55(4) . . .
60(4) . . .
45.7(35) . . .
51(4) . . .
60(4) . . .
60(4) . . .
56(4) . . .
58(4) . . .
58(4) . . .
63(4) . . .
64(4) . . .
51(4) . . .
55(4) . . .
62(4) . . .
58(4) . . .
59(4) . . .
58(4) . . .
57(4) . . .
64(5) . . .
60(4) . . .
61(4) . . .
61(4) . . .
60(4) . . .
52(4) . . .
67(5) . . .
63(4) . . .
49(4) . . .
74(5) . . .
70(4) . . .
61(4) . . .
55(4) . . .
59(4) . . .
61(4) . . .
62(4) . . .
64(4) . . .
64(4) . . .
58(4) . . .
66(4) . . .
58(4) . . .
60(4) . . .
64(4) . . .
61(4) . . .
53(4) . . .
56(4) . . .
67(5) . . .
48(4) . . .
44.2(35) . . .
59(4) . . .
52(4) . . .
60(4) . . .
51(4) . . .
58(4) . . .
61(4) . . .
60(4) . . .
56(4) . . .
59(4) . . .
56(4) . . .
57(4) . . .
58(4) . . .
57(4) . . .
48(4) . . .
60(4) . . .
61(4) . . .
67(4) . . .
60(4) . . .
56(4) . . .
59(4) . . .
58(4) . . .
57(4) . . .
60(4) . . .
54(4) . . .
61(4) . . .
61(4) . . .
67(5) . . .
56(4) . . .
54(4) . . .
59(4) . . .
55(4) . . .
62(4) . . .
59(4) . . .
55(4) . . .
67(4) . . .
52(4) . . .
56(4) . . .
49(4) . . .
60(4) . . .
49(4) . . .
56(4) . . .
62(4) . . .
67(4) . . .
47(4) . . .
61(4) . . .
54(4) . . .
55(4) . . .
62(4) . . .
57(4) . . .
52(4) . . .
46(4) . . .
61(4) . . .
70(5) . . .
55(4) . . .
69(4) . . .
55(4) . . .
63(4) . . .
63(4) . . .
55(4) . . .
62(4) . . .
58(4) . . .
71(5) . . .
60(4) . . .
60(4) . . .
55(4) . . .
50(4) . . .
54(4) . . .
56(4) . . .
54(4) . . .
52(4) . . .
50(4) . . .
58(4) . . .
59(4) . . .
51(4) . . .
64(4) . . .
59(4) . . .
58(4) . . .
56(4) . . .
61(4) . . .
56(4) . . .
65(5) . . .
66(4) . . .
62(4) . . .
51(4) . . .
47(4) . . .
60(4) . . .
67(4) . . .
54(4) . . .
57(4) . . .
63(4) . . .
72(5) . . .
68(5) . . .
62(4) . . .
61(4) . . .
56(4) . . .
47(4) . . .
47(4) . . .
47(4) . . .
59(4) . . .
47(4) . . .
51(4) . . .
61(4) . . .
55(4) . . .
56(4) . . .
56(4) . . .
42.3(35) . . .
57(4) . . .
52(4) . . .
60(4) . . .
67(5) . . .
60(4) . . .
56(4) . . .
57(4) . . .
52(4) . . .
48(4) . . .
54(4) . . .
50(4) . . .
53(4) . . .
44(4) . . .
53(4) . . .
58(4) . . .
64(4) . . .
62(4) . . .
48(4) . . .
58(4) . . .
55(4) . . .
66(4) . . .
73(4) . . .
69(5) . . .
61(4) . . .
58(4) . . .
61(4) . . .
58(4) . . .
51(4) . . .
47(4) . . .
49(4) . . .
53(4) . . .
59(4) . . .
65(5) . . .
64(5) . . .
63(4) . . .
49(4) . . .
60(4) . . .
66(4) . . .
52(4) . . .
55(4) . . .
56(4) . . .
61(4) . . .
52(4) . . .
63(4) . . .
60(4) . . .
57(4) . . .
56(4) . . .
59(4) . . .
60(4) . . .
61(4) . . .
49(4) . . .
56(4) . . .
53(4) . . .
59(4) . . .
54(4) . . .
54(4) . . .
60(4) . . .
63(4) . . .
49(4) . . .
58(4) . . .
60(4) . . .
48(4) . . .
52(4) . . .
66(4) . . .
56(4) . . .
57(4) . . .
59(4) . . .
62(5) . . .
47(4) . . .
56(4) . . .
57(4) . . .
43.0(34) . . .
59(4) . . .
63(4) . . .
60(4) . . .
59(4) . . .
57(4) . . .
62(4) . . .
54(4) . . .
59(4) . . .
54(4) . . .
51(4) . . .
56(4) . . .
55(4) . . .
69(5) . . .
55(4) . . .
60(4) . . .
50(4) . . .
47(4) . . .
52(4) . . .
48(4) . . .
57(4) . . .
50(4) . . .
53(4) . . .
50(4) . . .
61(4) . . .
65(5) . . .
52(4) . . .
50(4) . . .
58(4) . . .
50(4) . . .
52(4) . . .
62(4) . . .
58(4) . . .
59(4) . . .
53(4) . . .
59(4) . . .
55(4) . . .
57(4) . . .
48(4) . . .
59(4) . . .
59(4) . . .
61(4) . . .
61(4) . . .
61(4) . . .
56(4) . . .
58(4) . . .
59(4) . . .
65(4) . . .
57(4) . . .
54(4) . . .
56(4) . . .
49(4) . . .
60(4) . . .
55(4) . . .
55(4) . . .
61(4) . . .
52(4) . . .
58(4) . . .
54(4) . . .
50(4) . . .
52(4) . . .
45(4) . . .
57(4) . . .
63(4) . . .
57(4) . . .
57(4) . . .
63(4) . . .
53(4) . . .
56(4) . . .
61(4) . . .
52(4) . . .
60(4) . . .
56(4) . . .
51(4) . . .
62(5) . . .
61(4) . . .
49(4) . . .
71(4) . . .
53(4) . . .
51(4) . . .
63(4) . . .
66(4) . . .
55(4) . . .
63(4) . . .
53(4) . . .
52(4) . . .
59(4) . . .
59(4) . . .
59(4) . . .
49(4) . . .
51(4) . . .
57(4) . . .
64(4) . . .
62(4) . . .
57(4) . . .
58(4) . . .
57(4) . . .
57(4) . . .
60(4) . . .
59(4) . . .
61(4) . . .
60(4) . . .
61(4) . . .
58(4) . . .
55(4) . . .
54(4) . . .
56(4) . . .
60(4) . . .
51(4) . . .
54(4) . . .
60(4) . . .
55(4) . . .
65(4) . . .
59(4) . . .
47(4) . . .
55(4) . . .
51(4) . . .
64(4) . . .
70(5) . . .
64(5) . . .
59(4) . . .
58(4) . . .
59(4) . . .
54(4) . . .
64(4) . . .
55(4) . . .
51(4) . . .
48(4) . . .
56(4) . . .
55(4) . . .
64(4) . . .
52(4) . . .
54(4) . . .
57(4) . . .
69(5) . . .
47(4) . . .
57(4) . . .
55(4) . . .
62(4) . . .
62(4) . . .
57(4) . . .
58(4) . . .
43.5(34) . . .
56(4) . . .
45.0(35) . . .
54(4) . . .
68(4) . . .
63(4) . . .
57(4) . . .
57(4) . . .
68(4) . . .
48(4) . . .
57(4) . . .
55(4) . . .
59(4) . . .
57(4) . . .
59(4) . . .
69(4) . . .
59(4) . . .
66(5) . . .
52(4) . . .
50(4) . . .
61(4) . . .
55(4) . . .
52(4) . . .
49(4) . . .
66(4) . . .
50(4) . . .
43(4) . . .
45(4) . . .
55(4) . . .
65(4) . . .
60(4) . . .
71(5) . . .
61(4) . . .
57(4) . . .
57(4) . . .
61(4) . . .
51(4) . . .
65(4) . . .
62(4) . . .
54(4) . . .
47(4) . . .
49(4) . . .
67(4) . . .
64(4) . . .
67(4) . . .
60(4) . . .
71(5) . . .
59(4) . . .
56(4) . . .
55(4) . . .
57(4) . . .
63(4) . . .
69(4) . . .
70(4) . . .
55(4) . . .
61(4) . . .
67(4) . . .
58(4) . . .
68(4) . . .
65(4) . . .
56(4) . . .
64(4) . . .
65(4) . . .
61(4) . . .
55(4) . . .
67(5) . . .
62(4) . . .
54(4) . . .
61(4) . . .
56(4) . . .
48(4) . . .
54(4) . . .
63(4) . . .
59(4) . . .
60(4) . . .
46(4) . . .
67(4) . . .
65(4) . . .
59(4) . . .
63(4) . . .
56(4) . . .
54(4) . . .
63(4) . . .
58(4) . . .
61(4) . . .
54(4) . . .
54(4) . . .
48(4) . . .
53(4) . . .
56(4) . . .
57(4) . . .
50(4) . . .
71(4) . . .
50(4) . . .
67(5) . . .
61(4) . . .
56(4) . . .
55(4) . . .
62(4) . . .
57(4) . . .
66(4) . . .
53(4) . . .
57(4) . . .
60(4) . . .
57(4) . . .
59(4) . . .
57(4) . . .
49(4) . . .
57(4) . . .
52(4) . . .
63(4) . . .
55(4) . . .
63(4) . . .
57(4) . . .
59(4) . . .
56(4) . . .
60(4) . . .
66(4) . . .
65(4) . . .
56(4) . . .
60(4) . . .
50(4) . . .
53(4) . . .
55(4) . . .
56(4) . . .
46(4) . . .
56(4) . . .
65(4) . . .
52(4) . . .
64(4) . . .
68(4) . . .
61(4) . . .
52(4) . . .
65(4) . . .
53(4) . . .
45(4) . . .
67(4) . . .
54(4) . . .
48(4) . . .
58(4) . . .
60(4) . . .
60(4) . . .
62(4) . . .
56(4) . . .
55(4) . . .
61(4) . . .
63(4) . . .
50(4) . . .
56(4) . . .
57(4) . . .
59(4) . . .
55(4) . . .
62(4) . . .
51(4) . . .
56(4) . . .
61(4) . . .
52(4) . . .
60(4) . . .
62(4) . . .
53(4) . . .
64(4) . . .
59(4) . . .
49(4) . . .
58(4) . . .
56(4) . . .
61(4) . . .
62(4) . . .
60(4) . . .
65(4) . . .
59(4) . . .
57(4) . . .
71(4) . . .
56(4) . . .
60(4) . . .
53(4) . . .
62(4) . . .
53(4) . . .
55(4) . . .
57(4) . . .
59(4) . . .
52(4) . . .
72(5) . . .
63(4) . . .
63(4) . . .
66(4) . . .
56(4) . . .
63(4) . . .
54(4) . . .
46(4) . . .
47(4) . . .
49(4) . . .
64(4) . . .
62(4) . . .
58(4) . . .
57(4) . . .
46(4) . . .
62(4) . . .
61(4) . . .
50(4) . . .
48(4) . . .
53(4) . . .
60(4) . . .
52(4) . . .
55(4) . . .
66(4) . . .
58(4) . . .
62(4) . . .
65(4) . . .
55(4) . . .
61(4) . . .
53(4) . . .
69(4) . . .
63(4) . . .
63(4) . . .
49(4) . . .
55(4) . . .
51(4) . . .
65(4) . . .
57(4) . . .
60(4) . . .
68(4) . . .
48(4) . . .
56(4) . . .
58(4) . . .
74(4) . . .
53(4) . . .
64(4) . . .
47(4) . . .
59(4) . . .
62(4) . . .
57(4) . . .
50(4) . . .
50(4) . . .
51(4) . . .
56(4) . . .
59(4) . . .
49(4) . . .
64(5) . . .
55(4) . . .
63(4) . . .
47(4) . . .
65(5) . . .
57(4) . . .
62(4) . . .
55(4) . . .
63(4) . . .
62(4) . . .
48(4) . . .
59(4) . . .
63(4) . . .
61(4) . . .
54(4) . . .
56(4) . . .
54(4) . . .
56(4) . . .
56(4) . . .
51(4) . . .
60(4) . . .
65(4) . . .
60(4) . . .
61(4) . . .
62(4) . . .
59(4) . . .
59(4) . . .
61(4) . . .
38.5(32) . . .
57(4) . . .
71(5) . . .
52(4) . . .
49(4) . . .
54(4) . . .
52(4) . . .
52(4) . . .
53(4) . . .
55(4) . . .
54(4) . . .
47(4) . . .
56(4) . . .
61(4) . . .
54(4) . . .
52(4) . . .
64(4) . . .
66(4) . . .
61(4) . . .
57(4) . . .
56(4) . . .
49(4) . . .
50(4) . . .
59(4) . . .
64(4) . . .
56(4) . . .
49(4) . . .
53(4) . . .
53(4) . . .
58(4) . . .
52(4) . . .
57(4) . . .
64(4) . . .
57(4) . . .
62(4) . . .
57(4) . . .
49(4) . . .
64(4) . . .
66(4) . . .
73(5) . . .
54(4) . . .
51(4) . . .
51(4) . . .
59(4) . . .
53(4) . . .
53(4) . . .
48(4) . . .
60(4) . . .
50(4) . . .
55(4) . . .
54(4) . . .
50(4) . . .
55(4) . . .
59(4) . . .
63(4) . . .
50(4) . . .
57(4) . . .
67(4) . . .
56(4) . . .
44.9(35) . . .
61(4) . . .
56(4) . . .
56(4) . . .
59(4) . . .
56(4) . . .
55(4) . . .
56(4) . . .
56(4) . . .
58(4) . . .
71(5) . . .
52(4) . . .
54(4) . . .
52(4) . . .
57(4) . . .
53(4) . . .
64(4) . . .
64(4) . . .
58(4) . . .
46(4) . . .
40.8(35) . . .
46(4) . . .
53(4) . . .
59(4) . . .
71(4) . . .
58(4) . . .
59(4) . . .
54(4) . . .
55(4) . . .
48(4) . . .
60(4) . . .
54(4) . . .
56(4) . . .
56(4) . . .
53(4) . . .
52(4) . . .
57(4) . . .
49(4) . . .
53(4) . . .
52(4) . . .
46(4) . . .
61(4) . . .
58(4) . . .
47(4) . . .
45.1(35) . . .
62(4) . . .
53(4) . . .
50(4) . . .
49(4) . . .
62(4) . . .
59(4) . . .
51(4) . . .
52(4) . . .
69(5) . . .
64(5) . . .
54(4) . . .
55(4) . . .
51(4) . . .
55(4) . . .
51(4) . . .
56(4) . . .
56(4) . . .
59(4) . . .
48(4) . . .
55(4) . . .
63(4) . . .
62(4) . . .
67(4) . . .
49(4) . . .
57(4) . . .
54(4) . . .
55(4) . . .
52(4) . . .
53(4) . . .
50(4) . . .
61(4) . . .
64(4) . . .
52(4) . . .
52(4) . . .
66(5) . . .
48(4) . . .
59(4) . . .
55(4) . . .
59(4) . . .
54(4) . . .
61(4) . . .
64(4) . . .
65(4) . . .
54(4) . . .
53(4) . . .
55(4) . . .
55(4) . . .
47(4) . . .
57(4) . . .
66(5) . . .
52(4) . . .
52(4) . . .
64(4) . . .
56(4) . . .
55(4) . . .
56(4) . . .
61(4) . . .
53(4) . . .
54(4) . . .
52(4) . . .
56(4) . . .
60(4) . . .
55(4) . . .
55(4) . . .
56(4) . . .
53(4) . . .
52(4) . . .
54(4) . . .
60(4) . . .
60(4) . . .
57(4) . . .
61(4) . . .
50(4) . . .
60(4) . . .
59(4) . . .
65(4) . . .
56(4) . . .
46(4) . . .
67(4) . . .
66(4) . . .
56(4) . . .
54(4) . . .
68(5) . . .
53(4) . . .
57(4) . . .
60(4) . . .
57(4) . . .
56(4) . . .
76(5) . . .
61(4) . . .
59(4) . . .
58(4) . . .
53(4) . . .
54(4) . . .
47(4) . . .
49(4) . . .
49(4) . . .
52(4) . . .
60(4) . . .
57(4) . . .
61(4) . . .
55(4) . . .
64(4) . . .
65(4) . . .
66(4) . . .
58(4) . . .
73(5) . . .
58(4) . . .
47(4) . . .
52(4) . . .
64(4) . . .
72(5) . . .
67(4) . . .
57(4) . . .
55(4) . . .
54(4) . . .
60(4) . . .
58(4) . . .
62(4) . . .
53(4) . . .
54(4) . . .
64(4) . . .
63(4) . . .
58(4) . . .
57(4) . . .
51(4) . . .
53(4) . . .
65(4) . . .
59(4) . . .
61(4) . . .
60(4) . . .
53(4) . . .
54(4) . . .
58(4) . . .
64(4) . . .
67(4) . . .
63(4) . . .
47(4) . . .
55(4) . . .
51(4) . . .
54(4) . . .
52(4) . . .
51(4) . . .
51(4) . . .
47(4) . . .
52(4) . . .
59(4) . . .
59(4) . . .
58(4) . . .
51(4) . . .
53(4) . . .
56(4) . . .
58(4) . . .
62(4) . . .
63(4) . . .
52(4) . . .
68(4) . . .
60(4) . . .
50(4) . . .
48(4) . . .
53(4) . . .
52(4) . . .
46(4) . . .
62(4) . . .
49(4) . . .
56(4) . . .
46(4) . . .
46(4) . . .
48(4) . . .
64(4) . . .
52(4) . . .
57(4) . . .
55(4) . . .
60(4) . . .
46(4) . . .
51(4) . . .
58(4) . . .
61(4) . . .
60(4) . . .
58(4) . . .
52(4) . . .
60(4) . . .
61(4) . . .
41.6(34) . . .
53(4) . . .
55(4) . . .
60(4) . . .
52(4) . . .
48(4) . . .
47(4) . . .
57(4) . . .
63(4) . . .
57(4) . . .
60(4) . . .
57(4) . . .
60(4) . . .
61(4) . . .
47(4) . . .
57(4) . . .
61(4) . . .
64(4) . . .
52(4) . . .
59(4) . . .
55(4) . . .
53(4) . . .
63(4) . . .
61(4) . . .
48(4) . . .
53(4) . . .
49(4) . . .
55(4) . . .
61(4) . . .
58(4) . . .
56(4) . . .
52(4) . . .
57(4) . . .
58(4) . . .
58(4) . . .
60(4) . . .
73(5) . . .
52(4) . . .
56(4) . . .
44(4) . . .
63(4) . . .
63(4) . . .
58(4) . . .
49(4) . . .
59(4) . . .
51(4) . . .
56(4) . . .
50(4) . . .
50(4) . . .
49(4) . . .
59(4) . . .
64(4) . . .
60(4) . . .
61(4) . . .
62(4) . . .
63(4) . . .
60(4) . . .
54(4) . . .
52(4) . . .
52(4) . . .
54(4) . . .
53(4) . . .
60(4) . . .
56(4) . . .
47(4) . . .
57(4) . . .
51(4) . . .
61(4) . . .
50(4) . . .
50(4) . . .
53(4) . . .
48(4) . . .
59(4) . . .
64(4) . . .
53(4) . . .
56(4) . . .
45(4) . . .
53(4) . . .
62(4) . . .
59(4) . . .
60(4) . . .
63(4) . . .
56(4) . . .
55(4) . . .
57(4) . . .
52(4) . . .
63(4) . . .
58(4) . . .
47(4) . . .
66(5) . . .
56(4) . . .
46(4) . . .
54(4) . . .
61(4) . . .
55(4) . . .
65(4) . . .
57(4) . . .
58(4) . . .
57(4) . . .
56(4) . . .
63(4) . . .
65(4) . . .
49(4) . . .
52(4) . . .
70(5) . . .
56(4) . . .
62(4) . . .
58(4) . . .
49(4) . . .
49(4) . . .
52(4) . . .
51(4) . . .
61(4) . . .
51(4) . . .
51(4) . . .
52(4) . . .
53(4) . . .
54(4) . . .
60(4) . . .
53(4) . . .
57(4) . . .
45(4) . . .
51(4) . . .
63(4) . . .
51(4) . . .
68(4) . . .
58(4) . . .
40.9(33) . . .
52(4) . . .
60(4) . . .
52(4) . . .
61(4) . . .
50(4) . . .
64(4) . . .
62(4) . . .
52(4) . . .
53(4) . . .
52(4) . . .
57(4) . . .
54(4) . . .
61(4) . . .
67(4) . . .
45.5(35) . . .
43.4(34) . . .
56(4) . . .
53(4) . . .
59(4) . . .
61(4) . . .
52(4) . . .
53(4) . . .
51(4) . . .
49(4) . . .
51(4) . . .
61(4) . . .
52(4) . . .
62(4) . . .
57(4) . . .
66(5) . . .
54(4) . . .
65(4) . . .
56(4) . . .
56(4) . . .
67(4) . . .
55(4) . . .
57(4) . . .
64(4) . . .
62(4) . . .
49(4) . . .
56(4) . . .
51(4) . . .
61(4) . . .
63(4) . . .
61(4) . . .
54(4) . . .
58(4) . . .
52(4) . . .
60(4) . . .
46(4) . . .
43.4(35) . . .
63(4) . . .
58(4) . . .
59(4) . . .
47(4) . . .
58(4) . . .
67(4) . . .
50(4) . . .
50(4) . . .
53(4) . . .
47(4) . . .
50(4) . . .
54(4) . . .
51(4) . . .
64(4) . . .
58(4) . . .
62(4) . . .
50(4) . . .
52(4) . . .
51(4) . . .
54(4) . . .
58(4) . . .
44(4) . . .
77(5) . . .
67(4) . . .
49(4) . . .
52(4) . . .
64(4) . . .
67(5) . . .
54(4) . . .
49(4) . . .
57(4) . . .
55(4) . . .
50(4) . . .
49(4) . . .
56(4) . . .
51(4) . . .
49(4) . . .
50(4) . . .
48(4) . . .
43.5(34) . . .
54(4) . . .
47(4) . . .
58(4) . . .
67(5) . . .
55(4) . . .
60(4) . . .
50(4) . . .
58(4) . . .
54(4) . . .
51(4) . . .
47(4) . . .
47(4) . . .
57(4) . . .
62(4) . . .
51(4) . . .
53(4) . . .
47(4) . . .
49(4) . . .
55(4) . . .
58(4) . . .
52(4) . . .
64(4) . . .
51(4) . . .
57(4) . . .
45(4) . . .
55(4) . . .
47(4) . . .
43.0(34) . . .
53(4) . . .
51(4) . . .
63(4) . . .
48(4) . . .
48(4) . . .
47(4) . . .
52(4) . . .
57(4) . . .
50(4) . . .
52(4) . . .
53(4) . . .
47(4) . . .
56(4) . . .
59(4) . . .
51(4) . . .
61(4) . . .
72(4) . . .
50(4) . . .
53(4) . . .
49(4) . . .
57(4) . . .
59(4) . . .
57(4) . . .
60(4) . . .
52(4) . . .
56(4) . . .
60(4) . . .
51(4) . . .
61(4) . . .
57(4) . . .
59(4) . . .
55(4) . . .
60(4) . . .
59(4) . . .
63(4) . . .
56(4) . . .
53(4) . . .
56(4) . . .
53(4) . . .
58(4) . . .
47(4) . . .
52(4) . . .
48(4) . . .
58(4) . . .
60(4) . . .
65(4) . . .
60(4) . . .
61(4) . . .
56(4) . . .
59(4) . . .
51(4) . . .
52(4) . . .
52(4) . . .
52(4) . . .
57(4) . . .
58(4) . . .
59(4) . . .
51(4) . . .
59(5) . . .
55(4) . . .
56(4) . . .
54(4) . . .
52(4) . . .
47(4) . . .
55(4) . . .
54(4) . . .
53(4) . . .
49(4) . . .
53(4) . . .
50(4) . . .
53(4) . . .
48(4) . . .
56(4) . . .
53(4) . . .
46(4) . . .
55(4) . . .
63(4) . . .
58(4) . . .
56(4) . . .
50(4) . . .
56(4) . . .
59(4) . . .
48(4) . . .
54(4) . . .
56(4) . . .
56(4) . . .
49(4) . . .
59(4) . . .
64(4) . . .
55(4) . . .
56(4) . . .
62(4) . . .
58(4) . . .
55(4) . . .
57(4) . . .
57(4) . . .
49(4) . . .
56(4) . . .
57(4) . . .
41.3(34) . . .
62(4) . . .
62(4) . . .
51(4) . . .
58(4) . . .
53(4) . . .
59(4) . . .
59(4) . . .
64(4) . . .
51(4) . . .
52(4) . . .
52(4) . . .
53(4) . . .
53(4) . . .
52(4) . . .
52(4) . . .
53(4) . . .
48(4) . . .
59(4) . . .
54(4) . . .
54(4) . . .
52(4) . . .
61(4) . . .
52(4) . . .
59(4) . . .
50(4) . . .
55(4) . . .
56(4) . . .
60(4) . . .
51(4) . . .
47(4) . . .
54(4) . . .
54(4) . . .
52(4) . . .
53(4) . . .
45.9(35) . . .
52(4) . . .
52(4) . . .
54(4) . . .
60(4) . . .
57(4) . . .
50(4) . . .
49(4) . . .
48(4) . . .
56(4) . . .
68(4) . . .
50(4) . . .
54(4) . . .
53(4) . . .
46(4) . . .
55(4) . . .
51(4) . . .
61(4) . . .
58(4) . . .
55(4) . . .
63(4) . . .
51(4) . . .
51(4) . . .
57(4) . . .
47(4) . . .
60(4) . . .
48(4) . . .
55(4) . . .
51(4) . . .
55(4) . . .
44.3(34) . . .
54(4) . . .
58(4) . . .
61(4) . . .
60(4) . . .
55(4) . . .
50(4) . . .
57(4) . . .
43.7(33) . . .
57(4) . . .
58(4) . . .
57(4) . . .
56(4) . . .
58(4) . . .
52(4) . . .
46(4) . . .
50(4) . . .
55(4) . . .
60(4) . . .
57(4) . . .
53(4) . . .
56(4) . . .
48(4) . . .
54(4) . . .
53(4) . . .
46(4) . . .
52(4) . . .
49(4) . . .
55(4) . . .
63(4) . . .
55(4) . . .
49(4) . . .
42.6(35) . . .
54(4) . . .
50(4) . . .
46(4) . . .
51(4) . . .
52(4) . . .
55(4) . . .
49(4) . . .
63(4) . . .
64(5) . . .
49(4) . . .
47(4) . . .
57(4) . . .
53(4) . . .
54(4) . . .
58(4) . . .
53(4) . . .
47(4) . . .
50(4) . . .
57(4) . . .
56(4) . . .
54(4) . . .
54(4) . . .
56(4) . . .
45(4) . . .
49(4) . . .
50(4) . . .
60(4) . . .
60(4) . . .
55(4) . . .
60(4) . . .
47(4) . . .
55(4) . . .
54(4) . . .
51(4) . . .
52(4) . . .
53(4) . . .
63(4) . . .
61(4) . . .
56(4) . . .
61(4) . . .
65(4) . . .
56(4) . . .
56(4) . . .
55(4) . . .
54(4) . . .
55(4) . . .
49(4) . . .
45(4) . . .
56(4) . . .
66(4) . . .
58(4) . . .
52(4) . . .
49(4) . . .
62(4) . . .
54(4) . . .
54(4) . . .
51(4) . . .
52(4) . . .
45(4) . . .
56(4) . . .
56(4) . . .
63(4) . . .
52(4) . . .
52(4) . . .
47(4) . . .
53(4) . . .
48(4) . . .
52(4) . . .
49(4) . . .
48(4) . . .
45(4) . . .
56(4) . . .
50(4) . . .
56(4) . . .
50(4) . . .
54(4) . . .
63(4) . . .
48(4) . . .
59(4) . . .
55(4) . . .
60(4) . . .
63(4) . . .
55(4) . . .
57(4) . . .
53(4) . . .
47(4) . . .
48(4) . . .
68(5) . . .
50(4) . . .
49(4) . . .
50(4) . . .
45(4) . . .
44(4) . . .
54(4) . . .
53(4) . . .
46(4) . . .
47(4) . . .
58(4) . . .
55(4) . . .
50(4) . . .
56(4) . . .
73(5) . . .
61(4) . . .
57(4) . . .
59(4) . . .
51(4) . . .
53(4) . . .
57(4) . . .
52(4) . . .
62(4) . . .
57(4) . . .
58(4) . . .
50(4) . . .
54(4) . . .
55(4) . . .
60(4) . . .
54(4) . . .
51(4) . . .
44(4) . . .
53(4) . . .
48(4) . . .
60(4) . . .
48(4) . . .
61(4) . . .
64(4) . . .
58(4) . . .
55(4) . . .
58(4) . . .
49(4) . . .
43.7(35) . . .
61(4) . . .
54(4) . . .
54(4) . . .
63(4) . . .
60(4) . . .
51(4) . . .
55(4) . . .
54(4) . . .
47(4) . . .
53(4) . . .
51(4) . . .
55(4) . . .
48(4) . . .
63(4) . . .
59(4) . . .
57(4) . . .
58(4) . . .
58(4) . . .
58(4) . . .
48(4) . . .
51(4) . . .
56(4) . . .
53(4) . . .
48(4) . . .
59(4) . . .
56(4) . . .
58(4) . . .
61(4) . . .
54(4) . . .
54(4) . . .
47(4) . . .
55(4) . . .
55(4) . . .
51(4) . . .
56(4) . . .
52(4) . . .
52(4) . . .
56(4) . . .
59(4) . . .
70(5) . . .
54(4) . . .
47(4) . . .
55(4) . . .
48(4) . . .
45(4) . . .
50(4) . . .
48(4) . . .
53(4) . . .
51(4) . . .
52(4) . . .
47(4) . . .
54(4) . . .
55(4) . . .
60(4) . . .
49(4) . . .
54(4) . . .
56(4) . . .
52(4) . . .
53(4) . . .
60(4) . . .
48(4) . . .
53(4) . . .
58(4) . . .
62(4) . . .
50(4) . . .
61(4) . . .
63(4) . . .
55(4) . . .
51(4) . . .
42.8(34) . . .
54(4) . . .
60(4) . . .
52(4) . . .
55(4) . . .
55(4) . . .
54(4) . . .
54(4) . . .
49(4) . . .
65(4) . . .
58(4) . . .
49(4) . . .
54(4) . . .
36.9(32) . . .
50(4) . . .
51(4) . . .
54(4) . . .
58(4) . . .
51(4) . . .
53(4) . . .
48(4) . . .
46(4) . . .
50(4) . . .
55(4) . . .
60(4) . . .
55(4) . . .
66(4) . . .
60(4) . . .
59(4) . . .
56(4) . . .
41.2(34) . . .
47(4) . . .
49(4) . . .
48(4) . . .
46(4) . . .
52(4) . . .
49(4) . . .
52(4) . . .
51(4) . . .
50(4) . . .
52(4) . . .
49(4) . . .
62(4) . . .
57(4) . . .
47(4) . . .
65(4) . . .
57(4) . . .
53(4) . . .
44.6(34) . . .
50(4) . . .
54(4) . . .
71(5) . . .
57(4) . . .
57(4) . . .
56(4) . . .
55(4) . . .
62(4) . . .
44.4(35) . . .
50(4) . . .
54(4) . . .
53(4) . . .
53(4) . . .
50(4) . . .
48(4) . . .
59(4) . . .
63(4) . . .
57(4) . . .
43.3(35) . . .
53(4) . . .
56(4) . . .
56(4) . . .
56(4) . . .
51(4) . . .
62(4) . . .
49(4) . . .
64(4) . . .
57(4) . . .
52(4) . . .
52(4) . . .
55(4) . . .
51(4) . . .
54(4) . . .
60(4) . . .
60(4) . . .
50(4) . . .
56(4) . . .
47(4) . . .
51(4) . . .
50(4) . . .
54(4) . . .
44(4) . . .
47(4) . . .
52(4) . . .
61(5) . . .
51(4) . . .
60(4) . . .
58(4) . . .
49(4) . . .
54(4) . . .
57(4) . . .
52(4) . . .
50(4) . . .
51(4) . . .
61(4) . . .
52(4) . . .
57(4) . . .
49(4) . . .
50(4) . . .
51(4) . . .
60(4) . . .
54(4) . . .
53(4) . . .
61(4) . . .
47(4) . . .
48(4) . . .
49(4) . . .
47(4) . . .
54(4) . . .
43(4) . . .
55(4) . . .
51(4) . . .
48(4) . . .
51(4) . . .
49(4) . . .
46(4) . . .
55(4) . . .
53(4) . . .
51(4) . . .
44(4) . . .
49(4) . . .
64(4) . . .
53(4) . . .
48(4) . . .
54(4) . . .
66(4) . . .
47(4) . . .
43.8(35) . . .
47(4) . . .
58(4) . . .
50(4) . . .
53(4) . . .
60(4) . . .
53(4) . . .
57(4) . . .
57(4) . . .
51(4) . . .
49(4) . . .
53(4) . . .
51(4) . . .
53(4) . . .
56(4) . . .
42.4(34) . . .
56(4) . . .
53(4) . . .
51(4) . . .
53(4) . . .
43.6(34) . . .
57(4) . . .
62(5) . . .
58(4) . . .
53(4) . . .
53(4) . . .
50(4) . . .
58(4) . . .
60(4) . . .
48(4) . . .
48(4) . . .
57(4) . . .
53(4) . . .
50(4) . . .
45.5(35) . . .
43(4) . . .
48(4) . . .
49(4) . . .
47(4) . . .
44.9(35) . . .
54(4) . . .
55(4) . . .
58(4) . . .
59(4) . . .
54(4) . . .
54(4) . . .
61(4) . . .
50(4) . . .
54(4) . . .
47(4) . . .
49(4) . . .
56(4) . . .
51(4) . . .
56(4) . . .
45(4) . . .
58(4) . . .
54(4) . . .
57(4) . . .
56(4) . . .
50(4) . . .
49(4) . . .
48(4) . . .
59(4) . . .
46(4) . . .
55(4) . . .
47(4) . . .
51(4) . . .
60(4) . . .
44.6(34) . . .
53(4) . . .
40.7(32) . . .
46(4) . . .
54(4) . . .
48(4) . . .
59(4) . . .
49(4) . . .
61(4) . . .
51(4) . . .
56(4) . . .
60(4) . . .
58(4) . . .
55(4) . . .
55(4) . . .
53(4) . . .
57(4) . . .
49(4) . . .
56(4) . . .
53(4) . . .
54(4) . . .
54(4) . . .
59(4) . . .
53(4) . . .
49(4) . . .
52(4) . . .
51(4) . . .
62(4) . . .
49(4) . . .
55(4) . . .
57(4) . . .
69(5) . . .
59(4) . . .
52(4) . . .
50(4) . . .
56(4) . . .
59(4) . . .
50(4) . . .
51(4) . . .
45.2(35) . . .
49(4) . . .
44.9(34) . . .
43(4) . . .
50(4) . . .
51(4) . . .
52(4) . . .
51(4) . . .
52(4) . . .
61(4) . . .
48(4) . . .
48(4) . . .
61(4) . . .
58(4) . . .
54(4) . . .
49(4) . . .
61(4) . . .
57(4) . . .
48(4) . . .
52(4) . . .
55(4) . . .
45(4) . . .
35.2(32) . . .
44(4) . . .
51(4) . . .
52(4) . . .
46(4) . . .
62(4) . . .
57(4) . . .
67(5) . . .
47(4) . . .
61(4) . . .
53(4) . . .
44.1(35) . . .
48(4) . . .
49(4) . . .
49(4) . . .
49(4) . . .
59(4) . . .
51(4) . . .
55(4) . . .
44.5(35) . . .
62(5) . . .
52(4) . . .
49(4) . . .
55(4) . . .
53(4) . . .
56(4) . . .
48(4) . . .
50(4) . . .
49(4) . . .
58(4) . . .
47(4) . . .
59(4) . . .
54(4) . . .
48(4) . . .
53(4) . . .
57(4) . . .
60(4) . . .
48(4) . . .
56(4) . . .
54(4) . . .
55(4) . . .
58(4) . . .
53(4) . . .
58(4) . . .
64(4) . . .
55(4) . . .
55(4) . . .
59(4) . . .
53(4) . . .
56(4) . . .
53(4) . . .
43.3(35) . . .
54(4) . . .
55(4) . . .
50(4) . . .
58(4) . . .
54(4) . . .
45(4) . . .
61(4) . . .
47(4) . . .
45(4) . . .
53(4) . . .
39.4(33) . . .
50(4) . . .
45(4) . . .
60(4) . . .
49(4) . . .
42.6(34) . . .
49(4) . . .
56(4) . . .
51(4) . . .
58(4) . . .
63(4) . . .
54(4) . . .
46(4) . . .
47(4) . . .
46.8(35) . . .
51(4) . . .
60(4) . . .
47(4) . . .
44(4) . . .
61(4) . . .
49(4) . . .
50(4) . . .
52(4) . . .
58(4) . . .
63(4) . . .
50(4) . . .
54(4) . . .
45(4) . . .
50(4) . . .
47(4) . . .
50(4) . . .
51(4) . . .
56(4) . . .
51(4) . . .
60(4) . . .
51(4) . . .
55(4) . . .
53(4) . . .
47(4) . . .
41.1(34) . . .
53(4) . . .
63(4) . . .
54(4) . . .
51(4) . . .
49(4) . . .
46(4) . . .
55(4) . . .
55(4) . . .
53(4) . . .
60(4) . . .
49(4) . . .
54(4) . . .
56(4) . . .
49(4) . . .
45.0(34) . . .
52(4) . . .
50(4) . . .
49(4) . . .
60(4) . . .
52(4) . . .
47(4) . . .
54(4) . . .
63(4) . . .
52(4) . . .
54(4) . . .
44(4) . . .
40.1(34) . . .
53(4) . . .
54(4) . . .
50(4) . . .
40.3(33) . . .
56(4) . . .
57(4) . . .
53(4) . . .
54(4) . . .
54(4) . . .
54(4) . . .
49(4) . . .
51(4) . . .
60(4) . . .
46(4) . . .
54(4) . . .
51(4) . . .
43.0(34) . . .
51(4) . . .
59(4) . . .
56(4) . . .
59(4) . . .
52(4) . . .
44(4) . . .
49(4) . . .
53(4) . . .
45.0(35) . . .
50(4) . . .
62(4) . . .
56(4) . . .
57(4) . . .
48(4) . . .
47(4) . . .
56(4) . . .
48(4) . . .
48(4) . . .
49(4) . . .
50(4) . . .
58(4) . . .
47(4) . . .
50(4) . . .
38.5(32) . . .
55(4) . . .
44(4) . . .
48(4) . . .
52(4) . . .
57(4) . . .
56(4) . . .
49(4) . . .
44(4) . . .
44(4) . . .
55(4) . . .
47.1(35) . . .
44.1(35) . . .
47(4) . . .
54(4) . . .
47(4) . . .
48(4) . . .
51(4) . . .
41.9(33) . . .
42.3(34) . . .
49(4) . . .
50(4) . . .
52(4) . . .
56(4) . . .
39.8(34) . . .
49(4) . . .
51(4) . . .
53(4) . . .
51(4) . . .
52(4) . . .
48(4) . . .
46(4) . . .
44(4) . . .
48(4) . . .
53(4) . . .
59(4) . . .
55(4) . . .
51(4) . . .
56(4) . . .
52(4) . . .
59(4) . . .
41.7(34) . . .
53(4) . . .
41.2(33) . . .
40.9(34) . . .
47(4) . . .
55(4) . . .
53(4) . . .
42.1(34) . . .
51(4) . . .
49(4) . . .
53(4) . . .
52(4) . . .
66(4) . . .
42.6(34) . . .
47(4) . . .
54(4) . . .
47(4) . . .
52(4) . . .
52(4) . . .
57(4) . . .
54(4) . . .
57(4) . . .
49(4) . . .
49(4) . . .
47(4) . . .
55(4) . . .
61(4) . . .
51(4) . . .
51(4) . . .
43.5(34) . . .
53(4) . . .
40.8(33) . . .
48(4) . . .
45.4(35) . . .
55(4) . . .
55(4) . . .
41.6(34) . . .
54(4) . . .
54(4) . . .
44(4) . . .
55(4) . . .
45(4) . . .
46(4) . . .
63(4) . . .
49(4) . . .
54(4) . . .
55(4) . . .
51(4) . . .
53(4) . . .
58(4) . . .
47(4) . . .
58(4) . . .
44.2(35) . . .
52(4) . . .
46(4) . . .
49(4) . . .
52(4) . . .
63(4) . . .
55(4) . . .
55(4) . . .
54(4) . . .
43.3(34) . . .
50(4) . . .
45.4(35) . . .
49(4) . . .
49(4) . . .
49(4) . . .
48(4) . . .
54(4) . . .
58(4) . . .
53(4) . . .
52(4) . . .
51(4) . . .
48(4) . . .
43(4) . . .
42(4) . . .
53(4) . . .
52(4) . . .
57(4) . . .
58(4) . . .
58(4) . . .
49(4) . . .
49(4) . . .
45(4) . . .
55(4) . . .
57(4) . . .
52(4) . . .
56(4) . . .
50(4) . . .
44(4) . . .
48(4) . . .
51(4) . . .
53(4) . . .
55(4) . . .
50(4) . . .
54(4) . . .
48(4) . . .
46(4) . . .
53(4) . . .
60(4) . . .
51(4) . . .
54(4) . . .
60(4) . . .
51(4) . . .
50(4) . . .
50(4) . . .
59(4) . . .
47(4) . . .
50(4) . . .
49(4) . . .
51(4) . . .
52(4) . . .
50(4) . . .
50(4) . . .
55(4) . . .
52(4) . . .
52(4) . . .
51(4) . . .
46(4) . . .
53(4) . . .
46(4) . . .
47(4) . . .
55(4) . . .
49(4) . . .
46(4) . . .
58(4) . . .
50(4) . . .
54(4) . . .
57(4) . . .
60(4) . . .
61(4) . . .
42.7(35) . . .
60(4) . . .
52(4) . . .
51(4) . . .
45(4) . . .
52(4) . . .
54(4) . . .
53(4) . . .
54(4) . . .
43.6(35) . . .
47(4) . . .
53(4) . . .
43.5(35) . . .
42.5(35) . . .
52(4) . . .
39.2(33) . . .
48(4) . . .
53(4) . . .
52(4) . . .
58(4) . . .
47(4) . . .
43(4) . . .
52(4) . . .
50(4) . . .
49(4) . . .
42.2(33) . . .
49(4) . . .
57(4) . . .
50(4) . . .
49(4) . . .
44.7(35) . . .
55(4) . . .
54(4) . . .
63(4) . . .
49(4) . . .
55(4) . . .
48(4) . . .
48(4) . . .
45(4) . . .
45.2(35) . . .
48(4) . . .
43.9(34) . . .
62(4) . . .
50(4) . . .
48(4) . . .
46(4) . . .
54(4) . . .
58(4) . . .
41.9(34) . . .
50(4) . . .
46(4) . . .
56(4) . . .
53(4) . . .
58(4) . . .
48(4) . . .
50(4) . . .
56(4) . . .
41.8(35) . . .
46(4) . . .
51(4) . . .
53(4) . . .
43.2(35) . . .
50(4) . . .
42.8(34) . . .
38.9(33) . . .
45(4) . . .
48(4) . . .
61(4) . . .
60(4) . . .
59(4) . . .
45(4) . . .
60(4) . . .
55(4) . . .
53(4) . . .
48(4) . . .
51(4) . . .
46(4) . . .
53(4) . . .
53(4) . . .
58(4) . . .
56(4) . . .
57(4) . . .
46(4) . . .
51(4) . . .
48(4) . . .
59(4) . . .
63(4) . . .
54(4) . . .
48(4) . . .
42(4) . . .
58(4) . . .
58(4) . . .
57(4) . . .
49(4) . . .
43.2(35) . . .
42.8(35) . . .
56(4) . . .
49(4) . . .
43.0(35) . . .
51(4) . . .
52(4) . . .
54(4) . . .
54(4) . . .
50(4) . . .
46(4) . . .
60(4) . . .
52(4) . . .
46(4) . . .
45.2(35) . . .
52(4) . . .
46(4) . . .
47(4) . . .
52(4) . . .
46(4) . . .
53(4) . . .
55(4) . . .
61(4) . . .
54(4) . . .
57(4) . . .
45(4) . . .
50(4) . . .
48(4) . . .
48(4) . . .
40.6(33) . . .
50(4) . . .
52(4) . . .
50(4) . . .
43.0(34) . . .
52(4) . . .
47(4) . . .
59(4) . . .
57(4) . . .
50(4) . . .
56(4) . . .
47(4) . . .
44(4) . . .
46(4) . . .
46(4) . . .
43.3(35) . . .
46(4) . . .
46(4) . . .
49(4) . . .
45(4) . . .
54(4) . . .
50(4) . . .
61(4) . . .
48(4) . . .
63(4) . . .
45(4) . . .
48(4) . . .
51(4) . . .
45(4) . . .
40.6(33) . . .
56(4) . . .
56(4) . . .
50(4) . . .
45.1(35) . . .
49(4) . . .
52(4) . . .
50(4) . . .
46(4) . . .
53(4) . . .
44.6(35) . . .
50(4) . . .
44(4) . . .
37.8(33) . . .
51(4) . . .
52(4) . . .
55(4) . . .
44(4) . . .
51(4) . . .
49(4) . . .
48(4) . . .
45(4) . . .
45(4) . . .
50(4) . . .
52(4) . . .
54(4) . . .
42(4) . . .
49(4) . . .
45.1(35) . . .
52(4) . . .
62(4) . . .
50(4) . . .
52(4) . . .
55(4) . . .
53(4) . . .
43.4(34) . . .
51(4) . . .
58(4) . . .
48(4) . . .
55(4) . . .
43(4) . . .
51(4) . . .
47(4) . . .
46(4) . . .
41.5(35) . . .
45(4) . . .
49(4) . . .
46(4) . . .
55(4) . . .
45.3(35) . . .
50(4) . . .
65(5) . . .
58(4) . . .
54(4) . . .
51(4) . . .
47(4) . . .
52(4) . . .
60(4) . . .
53(4) . . .
40.3(33) . . .
49(4) . . .
47(4) . . .
42.7(34) . . .
54(4) . . .
48(4) . . .
48(4) . . .
57(4) . . .
57(4) . . .
46(4) . . .
60(4) . . .
51(4) . . .
54(4) . . .
46(4) . . .
45(4) . . .
53(4) . . .
48(4) . . .
54(4) . . .
49(4) . . .
49(4) . . .
52(4) . . .
48(4) . . .
44(4) . . .
58(4) . . .
51(4) . . .
46.2(35) . . .
47(4) . . .
47(4) . . .
43(4) . . .
52(4) . . .
50(4) . . .
51(4) . . .
56(4) . . .
49(4) . . .
57(4) . . .
58(4) . . .
58(4) . . .
53(4) . . .
44(4) . . .
41.0(34) . . .
48(4) . . .
55(4) . . .
54(4) . . .
49(4) . . .
56(4) . . .
55(4) . . .
58(4) . . .
58(4) . . .
57(4) . . .
51(4) . . .
50(4) . . .
58(4) . . .
48(4) . . .
55(4) . . .
57(4) . . .
41.2(34) . . .
46(4) . . .
45(4) . . .
50(4) . . .
53(4) . . .
50(4) . . .
40.7(35) . . .
45(4) . . .
52(4) . . .
53(4) . . .
54(4) . . .
46(4) . . .
53(4) . . .
49(4) . . .
52(4) . . .
48(4) . . .
51(4) . . .
56(4) . . .
48(4) . . .
46.0(35) . . .
46(4) . . .
59(4) . . .
58(4) . . .
49(4) . . .
50(4) . . .
50(4) . . .
46(4) . . .
56(4) . . .
58(4) . . .
58(4) . . .
49(4) . . .
43.9(35) . . .
57(4) . . .
48(4) . . .
48(4) . . .
53(4) . . .
48(4) . . .
50(4) . . .
51(4) . . .
59(4) . . .
51(4) . . .
48(4) . . .
41.6(35) . . .
48(4) . . .
38.5(33) . . .
51(4) . . .
49(4) . . .
49(4) . . .
58(4) . . .
49(4) . . .
54(4) . . .
54(4) . . .
55(4) . . .
47(4) . . .
48(4) . . .
47(4) . . .
46(4) . . .
45(4) . . .
58(4) . . .
51(4) . . .
49(4) . . .
61(4) . . .
52(4) . . .
43.8(34) . . .
49(4) . . .
48(4) . . .
52(4) . . .
50(4) . . .
50(4) . . .
44.2(35) . . .
57(4) . . .
49(4) . . .
46(4) . . .
55(4) . . .
50(4) . . .
55(4) . . .
45(4) . . .
46(4) . . .
41.9(33) . . .
43(4) . . .
41(4) . . .
53(4) . . .
48(4) . . .
39.3(33) . . .
49(4) . . .
55(4) . . .
50(4) . . .
42.7(34) . . .
37.8(32) . . .
46(4) . . .
60(4) . . .
48(4) . . .
51(4) . . .
48(4) . . .
52(4) . . .
54(4) . . .
54(4) . . .
53(4) . . .
46(4) . . .
53(4) . . .
50(4) . . .
41.7(34) . . .
49(4) . . .
51(4) . . .
53(4) . . .
48(4) . . .
51(4) . . .
53(4) . . .
50(4) . . .
50(4) . . .
51(4) . . .
51(4) . . .
50(4) . . .
42(4) . . .
36.4(32) . . .
45(4) . . .
48(4) . . .
51(4) . . .
56(4) . . .
60(4) . . .
49(4) . . .
57(4) . . .
37.3(32) . . .
55(4) . . .
41.8(34) . . .
44(4) . . .
63(4) . . .
59(4) . . .
53(4) . . .
44(4) . . .
48(4) . . .
53(4) . . .
49(4) . . .
53(4) . . .
34.8(31) . . .
45(4) . . .
56(4) . . .
48(4) . . .
45(4) . . .
42.1(34) . . .
53(4) . . .
52(4) . . .
52(4) . . .
50(4) . . .
43(4) . . .
48(4) . . .
54(4) . . .
38.9(33) . . .
48(4) . . .
47(4) . . .
48(4) . . .
46(4) . . .
59(4) . . .
50(4) . . .
49(4) . . .
53(4) . . .
45.0(35) . . .
57(4) . . .
47(4) . . .
40.5(33) . . .
43.9(35) . . .
48(4) . . .
54(4) . . .
52(4) . . .
45(4) . . .
36.3(31) . . .
41.4(34) . . .
33.1(31) . . .
46(4) . . .
47(4) . . .
52(4) . . .
54(4) . . .
48(4) . . .
44(4) . . .
50(4) . . .
49(4) . . .
45(4) . . .
46(4) . . .
50(4) . . .
52(4) . . .
51(4) . . .
41.5(35) . . .
52(4) . . .
55(4) . . .
50(4) . . .
47(4) . . .
42.0(34) . . .
34.1(31) . . .
35.3(33) . . .
45(4) . . .
52(4) . . .
48(4) . . .
48(4) . . .
39.0(34) . . .
39.9(33) . . .
50(4) . . .
47(4) . . .
62(4) . . .
54(4) . . .
39.9(33) . . .
44(4) . . .
46(4) . . .
51(4) . . .
47(4) . . .
43.3(34) . . .
47(4) . . .
51(4) . . .
52(4) . . .
59(4) . . .
53(4) . . .
49(4) . . .
46(4) . . .
52(4) . . .
43(4) . . .
48(4) . . .
40.2(33) . . .
43(4) . . .
45(4) . . .
41(4) . . .
51(4) . . .
44.2(35) . . .
48(4) . . .
48(4) . . .
56(4) . . .
60(4) . . .
63(4) . . .
51(4) . . .
50(4) . . .
49(4) . . .
52(4) . . .
48(4) . . .
48(4) . . .
48(4) . . .
44.4(34) . . .
54(4) . . .
47(4) . . .
44(4) . . .
47(4) . . .
54(4) . . .
44.5(35) . . .
47(4) . . .
47(4) . . .
48(4) . . .
55(4) . . .
43.7(34) . . .
46(4) . . .
50(4) . . .
45(4) . . .
37.3(32) . . .
43.8(34) . . .
46(4) . . .
52(4) . . .
57(4) . . .
49(4) . . .
49(4) . . .
51(4) . . .
56(4) . . .
42.7(34) . . .
56(4) . . .
53(4) . . .
53(4) . . .
52(4) . . .
52(4) . . .
48(4) . . .
40.9(33) . . .
45(4) . . .
49(4) . . .
46(4) . . .
42.6(34) . . .
58(4) . . .
46(4) . . .
60(4) . . .
62(4) . . .
48(4) . . .
47(4) . . .
51(4) . . .
46(4) . . .
53(4) . . .
61(4) . . .
45(4) . . .
44.1(34) . . .
45(4) . . .
45(4) . . .
52(4) . . .
50(4) . . .
54(4) . . .
55(4) . . .
47(4) . . .
52(4) . . .
38.3(33) . . .
52(4) . . .
42.2(35) . . .
42.6(34) . . .
55(4) . . .
46(4) . . .
49(4) . . .
50(4) . . .
55(4) . . .
47(4) . . .
51(4) . . .
58(4) . . .
57(4) . . .
59(4) . . .
60(4) . . .
63(4) . . .
63(5) . . .
53(4) . . .
56(4) . . .
56(4) . . .
51(4) . . .
42.1(34) . . .
42(4) . . .
41.6(35) . . .
51(4) . . .
46(4) . . .
40.2(34) . . .
50(4) . . .
57(4) . . .
57(4) . . .
49(4) . . .
42(4) . . .
47(4) . . .
52(4) . . .
40.5(34) . . .
44(4) . . .
51(4) . . .
53(4) . . .
43.0(34) . . .
46(4) . . .
40.7(34) . . .
40.4(33) . . .
59(4) . . .
50(4) . . .
48(4) . . .
45(4) . . .
44(4) . . .
46(4) . . .
43.2(35) . . .
57(4) . . .
48(4) . . .
50(4) . . .
42.4(34) . . .
33.0(30) . . .
47(4) . . .
51(4) . . .
49(4) . . .
44.7(35) . . .
46(4) . . .
48(4) . . .
67(5) . . .
55(4) . . .
53(4) . . .
49(4) . . .
48(4) . . .
48(4) . . .
49(4) . . .
57(4) . . .
48(4) . . .
57(4) . . .
47(4) . . .
46(4) . . .
55(4) . . .
51(4) . . .
51(4) . . .
49(4) . . .
53(4) . . .
47(4) . . .
46.2(35) . . .
51(4) . . .
46(4) . . .
54(4) . . .
43.1(34) . . .
55(4) . . .
52(4) . . .
54(4) . . .
51(4) . . .
57(4) . . .
50(4) . . .
47(4) . . .
55(4) . . .
62(4) . . .
49(4) . . .
58(4) . . .
50(4) . . .
45(4) . . .
54(4) . . .
50(4) . . .
46(4) . . .
50(4) . . .
48(4) . . .
53(4) . . .
54(4) . . .
45.1(34) . . .
47(4) . . .
39.1(32) . . .
59(4) . . .
57(4) . . .
50(4) . . .
53(4) . . .
43(4) . . .
49(4) . . .
40.3(33) . . .
35.7(32) . . .
50(4) . . .
56(4) . . .
51(4) . . .
43.7(34) . . .
50(4) . . .
47(4) . . .
41.5(33) . . .
48(4) . . .
41.3(34) . . .
51(4) . . .
41.7(35) . . .
43(4) . . .
34.7(30) . . .
46(4) . . .
55(4) . . .
57(4) . . .
58(4) . . .
57(4) . . .
47(4) . . .
46(4) . . .
36.4(33) . . .
40(4) . . .
39.0(32) . . .
42.8(35) . . .
46(4) . . .
53(4) . . .
52(4) . . .
43.2(34) . . .
51(4) . . .
51(4) . . .
55(4) . . .
49(4) . . .
43.8(34) . . .
44(4) . . .
46(4) . . .
57(4) . . .
53(4) . . .
45.2(35) . . .
42.6(34) . . .
50(4) . . .
53(4) . . .
46(4) . . .
57(4) . . .
50(4) . . .
57(4) . . .
53(4) . . .
51(4) . . .
48(4) . . .
54(4) . . .
52(4) . . .
46(4) . . .
44.3(35) . . .
40.5(33) . . .
40.6(34) . . .
49(4) . . .
44(4) . . .
50(4) . . .
54(4) . . .
47(4) . . .
44(4) . . .
39.0(32) . . .
51(4) . . .
43.5(34) . . .
45(4) . . .
38.5(34) . . .
45(4) . . .
40.0(33) . . .
46(4) . . .
56(4) . . .
48(4) . . .
52(4) . . .
56(4) . . .
50(4) . . .
54(4) . . .
59(4) . . .
59(4) . . .
46(4) . . .
40.5(34) . . .
50(4) . . .
46(4) . . .
48(4) . . .
62(4) . . .
49(4) . . .
37.2(32) . . .
48(4) . . .
53(4) . . .
45.1(35) . . .
47(4) . . .
38.5(34) . . .
40(4) . . .
43(4) . . .
40.7(33) . . .
47(4) . . .
46(4) . . .
43(4) . . .
47(4) . . .
51(4) . . .
45(4) . . .
45(4) . . .
44(4) . . .
50(4) . . .
47(4) . . .
47(4) . . .
48(4) . . .
60(4) . . .
58(4) . . .
44(4) . . .
55(4) . . .
51(4) . . .
46(4) . . .
48(4) . . .
41.9(34) . . .
51(4) . . .
49(4) . . .
39.7(33) . . .
47(4) . . .
44(4) . . .
37(4) . . .
40(4) . . .
45.3(35) . . .
42.7(34) . . .
49(4) . . .
49(4) . . .
42(4) . . .
37.3(34) . . .
43.3(34) . . .
37.9(32) . . .
44.6(35) . . .
46(4) . . .
50(4) . . .
42.3(34) . . .
44.5(34) . . .
48(4) . . .
52(4) . . .
38.6(32) . . .
40.2(33) . . .
55(4) . . .
45(4) . . .
51(4) . . .
49(4) . . .
48(4) . . .
55(4) . . .
47(4) . . .
50(4) . . .
48(4) . . .
58(4) . . .
47(4) . . .
40.0(34) . . .
39.8(35) . . .
44(4) . . .
45.4(35) . . .
45(4) . . .
53(4) . . .
47(4) . . .
47(4) . . .
54(4) . . .
54(4) . . .
50(4) . . .
45(4) . . .
54(4) . . .
48(4) . . .
47(4) . . .
47(4) . . .
43(4) . . .
46(4) . . .
45(4) . . .
54(4) . . .
44(4) . . .
45.0(35) . . .
39.6(33) . . .
50(4) . . .
53(4) . . .
57(4) . . .
48(4) . . .
48(4) . . .
45(4) . . .
49(4) . . .
51(4) . . .
49(4) . . .
50(4) . . .
38.0(32) . . .
49(4) . . .
52(4) . . .
45(4) . . .
43.4(35) . . .
49(4) . . .
37.8(33) . . .
47(4) . . .
46(4) . . .
53(4) . . .
52(4) . . .
56(4) . . .
54(4) . . .
45(4) . . .
56(4) . . .
49(4) . . .
40.4(35) . . .
51(4) . . .
51(4) . . .
53(4) . . .
57(4) . . .
55(4) . . .
55(4) . . .
44(4) . . .
37.7(32) . . .
45(4) . . .
44(4) . . .
55(4) . . .
52(4) . . .
63(4) . . .
54(4) . . .
53(4) . . .
37.8(34) . . .
41.5(33) . . .
46(4) . . .
49(4) . . .
53(4) . . .
46(4) . . .
44(4) . . .
45.6(34) . . .
44(4) . . .
49(4) . . .
45.0(35) . . .
49(4) . . .
54(4) . . .
44.8(35) . . .
39.0(33) . . .
46(4) . . .
59(4) . . .
47(4) . . .
49(4) . . .
56(4) . . .
45(4) . . .
47(4) . . .
48(4) . . .
46(4) . . .
39.4(34) . . .
42(4) . . .
55(4) . . .
58(4) . . .
56(4) . . .
52(4) . . .
60(4) . . .
46(4) . . .
45(4) . . .
45(4) . . .
55(4) . . .
52(4) . . .
35.0(31) . . .
50(4) . . .
44(4) . . .
53(4) . . .
52(4) . . .
52(4) . . .
37.6(33) . . .
43(4) . . .
51(4) . . .
55(4) . . .
54(4) . . .
52(4) . . .
51(4) . . .
48(4) . . .
47(4) . . .
41.1(33) . . .
36.1(32) . . .
44(4) . . .
49(4) . . .
43.8(34) . . .
43.8(35) . . .
38.8(33) . . .
47(4) . . .
50(4) . . .
47(4) . . .
34.9(33) . . .
37.7(33) . . .
50(4) . . .
45(4) . . .
45.0(35) . . .
39.0(32) . . .
49(4) . . .
42.9(35) . . .
48(4) . . .
44.5(35) . . .
41.8(34) . . .
46(4) . . .
46(4) . . .
56(4) . . .
53(4) . . .
59(4) . . .
53(4) . . .
49(4) . . .
47(4) . . .
53(4) . . .
53(4) . . .
50(4) . . .
50(4) . . .
59(4) . . .
52(4) . . .
59(4) . . .
54(4) . . .
42.8(34) . . .
48(4) . . .
62(4) . . .
46(4) . . .
34.7(32) . . .
42(4) . . .
49(4) . . .
51(4) . . .
50(4) . . .
51(4) . . .
46.5(35) . . .
51(4) . . .
43.1(35) . . .
47(4) . . .
56(4) . . .
51(4) . . .
54(4) . . .
46(4) . . .
50(4) . . .
47(4) . . .
43(4) . . .
55(4) . . .
39.8(33) . . .
41.9(34) . . .
54(4) . . .
44(4) . . .
50(4) . . .
46(4) . . .
51(4) . . .
49(4) . . .
39.6(33) . . .
56(4) . . .
50(4) . . .
54(4) . . .
40.8(35) . . .
42(4) . . .
47(4) . . .
50(4) . . .
58(4) . . .
48(4) . . .
53(4) . . .
51(4) . . .
51(4) . . .
51(4) . . .
39.8(33) . . .
50(4) . . .
50(4) . . .
48(4) . . .
45(4) . . .
50(4) . . .
51(4) . . .
43.8(35) . . .
47(4) . . .
44(4) . . .
52(4) . . .
38.9(33) . . .
44.4(34) . . .
54(4) . . .
46(4) . . .
54(4) . . .
44.8(35) . . .
46(4) . . .
41.7(34) . . .
47(4) . . .
56(4) . . .
48(4) . . .
40.6(33) . . .
45(4) . . .
46(4) . . .
44.6(34) . . .
55(4) . . .
51(4) . . .
47(4) . . .
54(4) . . .
50(4) . . .
52(4) . . .
47(4) . . .
52(4) . . .
54(4) . . .
43.6(35) . . .
47(4) . . .
41.1(35) . . .
44(4) . . .
49(4) . . .
49(4) . . .
47(4) . . .
44.0(34) . . .
48(4) . . .
47(4) . . .
50(4) . . .
58(4) . . .
53(4) . . .
47(4) . . .
48(4) . . .
53(4) . . .
44.7(35) . . .
51(4) . . .
33.7(32) . . .
36.6(32) . . .
54(4) . . .
54(4) . . .
51(4) . . .
38.3(33) . . .
49(4) . . .
47(4) . . .
47(4) . . .
48(4) . . .
46(4) . . .
50(4) . . .
56(4) . . .
32.5(30) . . .
46(4) . . .
41.0(33) . . .
44.2(35) . . .
41.0(33) . . .
44.4(34) . . .
44(4) . . .
41.3(35) . . .
40(4) . . .
50(4) . . .
60(4) . . .
61(4) . . .
43(4) . . .
36.0(34) . . .
42.4(34) . . .
35.2(31) . . .
50(4) . . .
53(4) . . .
57(4) . . .
43.9(34) . . .
53(4) . . .
56(4) . . .
45(4) . . .
42(4) . . .
44.9(35) . . .
50(4) . . .
48(4) . . .
44(4) . . .
52(4) . . .
41.5(34) . . .
43.4(34) . . .
46(4) . . .
57(4) . . .
45.8(35) . . .
50(4) . . .
55(4) . . .
38.3(32) . . .
44(4) . . .
47(4) . . .
50(4) . . .
45(4) . . .
47(4) . . .
41.6(35) . . .
43.2(35) . . .
47(4) . . .
52(4) . . .
45(4) . . .
48(4) . . .
46(4) . . .
48(4) . . .
45(4) . . .
43(4) . . .
47(4) . . .
46(4) . . .
45(4) . . .
38.5(34) . . .
45(4) . . .
48(4) . . .
56(4) . . .
58(4) . . .
50(4) . . .
49(4) . . .
35.3(32) . . .
46(4) . . .
43(4) . . .
44(4) . . .
53(4) . . .
44.2(34) . . .
50(4) . . .
47(4) . . .
45(4) . . .
55(4) . . .
49(4) . . .
57(4) . . .
42.6(34) . . .
51(4) . . .
55(4) . . .
55(4) . . .
61(4) . . .
48(4) . . .
52(4) . . .
42(4) . . .
50(4) . . .
43.6(35) . . .
46(4) . . .
36.8(31) . . .
42.4(35) . . .
38.5(33) . . .
49(4) . . .
50(4) . . .
46(4) . . .
38.0(33) . . .
51(4) . . .
54(4) . . .
41.7(35) . . .
43(4) . . .
49(4) . . .
43.6(34) . . .
43.0(34) . . .
49(4) . . .
54(4) . . .
44.8(35) . . .
48(4) . . .
46.2(35) . . .
39.7(33) . . .
48(4) . . .
52(4) . . .
50(4) . . .
50(4) . . .
47(4) . . .
47(4) . . .
51(4) . . .
61(4) . . .
51(4) . . .
47(4) . . .
45(4) . . .
40.2(33) . . .
53(4) . . .
42(4) . . .
46(4) . . .
45(4) . . .
54(4) . . .
41.2(33) . . .
49(4) . . .
37.5(34) . . .
39.8(35) . . .
48(4) . . .
46.0(35) . . .
56(4) . . .
56(4) . . .
46(4) . . .
50(4) . . .
52(4) . . .
49(4) . . .
48(4) . . .
44(4) . . .
54(4) . . .
43.4(35) . . .
41.0(33) . . .
57(4) . . .
42.8(33) . . .
57(4) . . .
40.9(33) . . .
50(4) . . .
50(4) . . .
45(4) . . .
43.6(34) . . .
50(4) . . .
53(4) . . .
48(4) . . .
52(4) . . .
40.6(33) . . .
45.1(35) . . .
48(4) . . .
52(4) . . .
54(4) . . .
44.9(35) . . .
50(4) . . .
49(4) . . .
49(4) . . .
49(4) . . .
47(4) . . .
50(4) . . .
52(4) . . .
51(4) . . .
56(4) . . .
49(4) . . .
44.5(35) . . .
51(4) . . .
44(4) . . .
45(4) . . .
37.3(32) . . .
41.5(34) . . .
49(4) . . .
46(4) . . .
42(4) . . .
47(4) . . .
52(4) . . .
45(4) . . .
46.0(35) . . .
51(4) . . .
48(4) . . .
48(4) . . .
37.4(32) . . .
46(4) . . .
41.9(35) . . .
43.5(35) . . .
48(4) . . .
52(4) . . .
53(4) . . .
50(4) . . .
51(4) . . .
47(4) . . .
54(4) . . .
55(4) . . .
52(4) . . .
47(4) . . .
44(4) . . .
45(4) . . .
52(4) . . .
54(4) . . .
54(4) . . .
44(4) . . .
48(4) . . .
43.2(34) . . .
42.7(35) . . .
41.6(33) . . .
50(4) . . .
54(4) . . .
54(4) . . .
50(4) . . .
38.3(33) . . .
54(4) . . .
56(4) . . .
49(4) . . .
47(4) . . .
41.3(34) . . .
45(4) . . .
42(4) . . .
46(4) . . .
45(4) . . .
51(4) . . .
54(4) . . .
45(4) . . .
45(4) . . .
54(4) . . .
49(4) . . .
53(4) . . .
46(4) . . .
49(4) . . .
51(4) . . .
50(4) . . .
50(4) . . .
49(4) . . .
46(4) . . .
44.2(35) . . .
43(4) . . .
49(4) . . .
54(4) . . .
47(4) . . .
55(4) . . .
50(4) . . .
43(4) . . .
46(4) . . .
43.7(35) . . .
51(4) . . .
49(4) . . .
47(4) . . .
49(4) . . .
49(4) . . .
49(4) . . .
46(4) . . .
48(4) . . .
63(4) . . .
54(4) . . .
44.5(34) . . .
45(4) . . .
48(4) . . .
49(4) . . .
55(4) . . .
53(4) . . .
46(4) . . .
42.5(32) . . .
43.5(35) . . .
47(4) . . .
47(4) . . .
41.6(34) . . .
43(4) . . .
47(4) . . .
55(4) . . .
42.0(34) . . .
45(4) . . .
45(4) . . .
47(4) . . .
42.8(34) . . .
42.3(34) . . .
50(4) . . .
44(4) . . .
35.9(33) . . .
45(4) . . .
49(4) . . .
51(4) . . .
45(4) . . .
47(4) . . .
45(4) . . .
51(4) . . .
48(4) . . .
46(4) . . .
51(4) . . .
49(4) . . .
43(4) . . .
47(4) . . .
48(4) . . .
41.5(34) . . .
44.1(35) . . .
38.0(34) . . .
50(4) . . .
46(4) . . .
45(4) . . .
54(4) . . .
49(4) . . .
50(4) . . .
50(4) . . .
35.0(31) . . .
53(4) . . .
40(4) . . .
45(4) . . .
46(4) . . .
39.7(33) . . .
52(4) . . .
53(4) . . .
43(4) . . .
53(4) . . .
50(4) . . .
49(4) . . .
54(4) . . .
49(4) . . .
42.1(34) . . .
46(4) . . .
50(4) . . .
50(4) . . .
42.5(34) . . .
44(4) . . .
45(4) . . .
51(4) . . .
56(4) . . .
59(4) . . .
50(4) . . .
44.2(34) . . .
44(4) . . .
44(4) . . .
48(4) . . .
57(4) . . .
49(4) . . .
50(4) . . .
41.3(33) . . .
42.7(35) . . .
42.0(35) . . .
42.1(34) . . .
41(4) . . .
54(4) . . .
42.3(33) . . .
51(4) . . .
55(4) . . .
52(4) . . .
44(4) . . .
47(4) . . .
48(4) . . .
46(4) . . .
49(4) . . .
49(4) . . .
45(4) . . .
51(4) . . .
41.7(34) . . .
53(4) . . .
41(4) . . .
45(4) . . .
53(4) . . .
47(4) . . .
49(4) . . .
49(4) . . .
49(4) . . .
48(4) . . .
44.1(34) . . .
48(4) . . .
43(4) . . .
49(4) . . .
60(4) . . .
38.7(32) . . .
46(4) . . .
42(4) . . .
44(4) . . .
45.4(35) . . .
55(4) . . .
39.5(33) . . .
39.3(33) . . .
54(4) . . .
47(4) . . .
56(4) . . .
58(4) . . .
57(4) . . .
41.5(34) . . .
41.0(34) . . .
47(4) . . .
43(4) . . .
40.1(33) . . .
53(4) . . .
52(4) . . .
48(4) . . .
54(4) . . .
49(4) . . .
43.6(35) . . .
47(4) . . .
39.9(33) . . .
46(4) . . .
53(4) . . .
47(4) . . .
46(4) . . .
41(4) . . .
42(4) . . .
46(4) . . .
50(4) . . .
42.2(34) . . .
47(4) . . .
48(4) . . .
48(4) . . .
49(4) . . .
52(4) . . .
44.6(35) . . .
43(4) . . .
52(4) . . .
49(4) . . .
47(4) . . .
41(4) . . .
43(4) . . .
46(4) . . .
47(4) . . .
47(4) . . .
45(4) . . .
39.6(34) . . .
45(4) . . .
37.9(32) . . .
48(4) . . .
40.7(33) . . .
53(4) . . .
38.7(33) . . .
47(4) . . .
47(4) . . .
51(4) . . .
40(4) . . .
50(4) . . .
42.1(34) . . .
54(4) . . .
60(4) . . .
56(4) . . .
42.7(34) . . .
45.5(34) . . .
42(4) . . .
50(4) . . .
38.4(34) . . .
45(4) . . .
47(4) . . .
41.9(34) . . .
33.2(31) . . .
41.3(34) . . .
48(4) . . .
41.3(34) . . .
47(4) . . .
42.3(35) . . .
49(4) . . .
45(4) . . .
52(4) . . .
44.7(35) . . .
54(4) . . .
44(4) . . .
43.9(34) . . .
55(4) . . .
40.8(35) . . .
50(4) . . .
47(4) . . .
55(4) . . .
49(4) . . .
47(4) . . .
49(4) . . .
45(4) . . .
41.9(34) . . .
51(4) . . .
55(4) . . .
51(4) . . .
41.6(34) . . .
45.2(35) . . .
53(4) . . .
51(4) . . .
49(4) . . .
46(4) . . .
46(4) . . .
46(4) . . .
48(4) . . .
40.9(35) . . .
43(4) . . .
47(4) . . .
50(4) . . .
49(4) . . .
48(4) . . .
44(4) . . .
39.0(32) . . .
43.1(34) . . .
48(4) . . .
47(4) . . .
47(4) . . .
48(4) . . .
46(4) . . .
43(4) . . .
41.3(34) . . .
47(4) . . .
43.3(34) . . .
48(4) . . .
47(4) . . .
41.7(35) . . .
46(4) . . .
39.0(32) . . .
46(4) . . .
52(4) . . .
41.3(35) . . .
42.5(34) . . .
50(4) . . .
48(4) . . .
49(4) . . .
48(4) . . .
42.7(34) . . .
44.8(35) . . .
42.6(35) . . .
41(4) . . .
42.5(35) . . .
48(4) . . .
56(4) . . .
47(4) . . .
47(4) . . .
50(4) . . .
51(4) . . .
49(4) . . .
40.0(33) . . .
42.2(34) . . .
42.5(35) . . .
50(4) . . .
51(4) . . .
51(4) . . .
48(4) . . .
51(4) . . .
45(4) . . .
43.0(35) . . .
47(4) . . .
40.1(33) . . .
45(4) . . .
43.6(34) . . .
52(4) . . .
61(4) . . .
45(4) . . .
44(4) . . .
40.0(33) . . .
41(4) . . .
43(4) . . .
43(4) . . .
54(4) . . .
42.1(34) . . .
47(4) . . .
43.0(35) . . .
53(4) . . .
42.2(34) . . .
42.0(34) . . .
48(4) . . .
39.6(33) . . .
44.2(35) . . .
45(4) . . .
48(4) . . .
48(4) . . .
56(4) . . .
46(4) . . .
57(4) . . .
52(4) . . .
43(4) . . .
50(4) . . .
38.5(32) . . .
50(4) . . .
43.8(35) . . .
51(4) . . .
52(4) . . .
53(4) . . .
54(4) . . .
41.5(33) . . .
39.7(34) . . .
46(4) . . .
50(4) . . .
42.8(34) . . .
39.2(35) . . .
45(4) . . .
43(4) . . .
44.4(35) . . .
40.0(33) . . .
46(4) . . .
33.8(32) . . .
39.0(34) . . .
51(4) . . .
47(4) . . .
48(4) . . .
47(4) . . .
54(4) . . .
41.5(34) . . .
39.6(33) . . .
43.1(35) . . .
44(4) . . .
49(4) . . .
47(4) . . .
46(4) . . .
44(4) . . .
43(4) . . .
47(4) . . .
44(4) . . .
44.9(35) . . .
55(4) . . .
49(4) . . .
49(4) . . .
47(4) . . .
40.5(33) . . .
41.7(34) . . .
37.7(33) . . .
46(4) . . .
47(4) . . .
40.0(34) . . .
55(4) . . .
36.8(34) . . .
45(4) . . .
35.6(31) . . .
39.7(33) . . .
42.7(34) . . .
51(4) . . .
51(4) . . .
54(4) . . .
47(4) . . .
42.0(34) . . .
47(4) . . .
46(4) . . .
44.1(35) . . .
47(4) . . .
50(4) . . .
49(4) . . .
55(4) . . .
52(4) . . .
43.4(34) . . .
47(4) . . .
44(4) . . .
48(4) . . .
44(4) . . .
49(4) . . .
39.7(34) . . .
41.0(35) . . .
41.2(34) . . .
50(4) . . .
47(4) . . .
41.4(35) . . .
42.2(33) . . .
45(4) . . .
35.8(32) . . .
40.2(34) . . .
47(4) . . .
48(4) . . .
48(4) . . .
40.3(33) . . .
48(4) . . .
32.9(30) . . .
44(4) . . .
52(4) . . .
45(4) . . .
48(4) . . .
60(4) . . .
51(4) . . .
45.0(35) . . .
39.7(33) . . .
43(4) . . .
50(4) . . .
39.6(33) . . .
46(4) . . .
39.1(32) . . .
45(4) . . .
40.7(33) . . .
44.7(34) . . .
58(4) . . .
51(4) . . .
48(4) . . .
43.0(35) . . .
42.5(34) . . .
38.8(32) . . .
37.6(32) . . .
35.2(33) . . .
33.5(32) . . .
47(4) . . .
37.7(32) . . .
41.2(34) . . .
48(4) . . .
47(4) . . .
50(4) . . .
56(4) . . .
45(4) . . .
52(4) . . .
47(4) . . .
41.8(34) . . .
56(4) . . .
52(4) . . .
40.5(34) . . .
52(4) . . .
43.4(34) . . .
49(4) . . .
52(4) . . .
45(4) . . .
47(4) . . .
46(4) . . .
51(4) . . .
39.8(34) . . .
52(4) . . .
42(4) . . .
42.7(34) . . .
43.4(34) . . .
43(4) . . .
43(4) . . .
52(4) . . .
55(4) . . .
51(4) . . .
47(4) . . .
49(4) . . .
39.8(33) . . .
50(4) . . .
49(4) . . .
49(4) . . .
54(4) . . .
54(4) . . .
50(4) . . .
52(4) . . .
49(4) . . .
40(4) . . .
39.7(33) . . .
43.3(34) . . .
49(4) . . .
40.5(33) . . .
51(4) . . .
39.5(33) . . .
54(4) . . .
47(4) . . .
42(4) . . .
43(4) . . .
46(4) . . .
47(4) . . .
52(4) . . .
52(4) . . .
47(4) . . .
50(4) . . .
43.0(35) . . .
45(4) . . .
44(4) . . .
37.0(33) . . .
52(4) . . .
50(4) . . .
46(4) . . .
41.6(35) . . .
57(4) . . .
46(4) . . .
52(4) . . .
33.3(31) . . .
42(4) . . .
43(4) . . .
46(4) . . .
49(4) . . .
48(4) . . .
51(4) . . .
45(4) . . .
41.8(33) . . .
45(4) . . .
56(4) . . .
44(4) . . .
40.7(34) . . .
50(4) . . .
45.3(35) . . .
50(4) . . .
57(4) . . .
47.1(35) . . .
47(4) . . .
45.6(35) . . .
50(4) . . .
45(4) . . .
46(4) . . .
47(4) . . .
52(4) . . .
47(4) . . .
48(4) . . .
50(4) . . .
49(4) . . .
52(4) . . .
50(4) . . .
46(4) . . .
44(4) . . .
37.4(31) . . .
43(4) . . .
45(4) . . .
55(4) . . .
57(4) . . .
40.7(33) . . .
50(4) . . .
46(4) . . .
45(4) . . .
42(4) . . .
42.4(34) . . .
49(4) . . .
49(4) . . .
46(4) . . .
48(4) . . .
39.3(33) . . .
51(4) . . .
42.4(35) . . .
58(4) . . .
58(4) . . .
52(4) . . .
44(4) . . .
41.4(35) . . .
55(4) . . .
43.5(35) . . .
56(4) . . .
51(4) . . .
48(4) . . .
51(4) . . .
50(4) . . .
46(4) . . .
41(4) . . .
42(4) . . .
36.6(32) . . .
47(4) . . .
44.4(34) . . .
47(4) . . .
52(4) . . .
44(4) . . .
42.3(33) . . .
54(4) . . .
46(4) . . .
40.0(35) . . .
46(4) . . .
40.7(33) . . .
45(4) . . .
41.6(35) . . .
43.6(35) . . .
53(4) . . .
40.1(33) . . .
46(4) . . .
49(4) . . .
55(4) . . .
41(4) . . .
45.1(35) . . .
47(4) . . .
46(4) . . .
46(4) . . .
39.3(33) . . .
48(4) . . .
49(4) . . .
50(4) . . .
52(4) . . .
51(4) . . .
47(4) . . .
56(4) . . .
49(4) . . .
50(4) . . .
40.2(34) . . .
57(4) . . .
55(4) . . .
41.3(34) . . .
47(4) . . .
44.2(35) . . .
46(4) . . .
33.9(29) . . .
47(4) . . .
49(4) . . .
48(4) . . .
58(4) . . .
41.8(34) . . .
45(4) . . .
45(4) . . .
44(4) . . .
47(4) . . .
46(4) . . .
42(4) . . .
49(4) . . .
39.9(33) . . .
49(4) . . .
56(4) . . .
40.8(35) . . .
51(4) . . .
43.6(35) . . .
46(4) . . .
49(4) . . .
50(4) . . .
42(4) . . .
52(4) . . .
54(4) . . .
47(4) . . .
40.8(33) . . .
39.4(32) . . .
54(4) . . .
37.5(33) . . .
42(4) . . .
50(4) . . .
48(4) . . .
46(4) . . .
58(4) . . .
35.1(31) . . .
43(4) . . .
45(4) . . .
54(4) . . .
47(4) . . .
50(4) . . .
47(4) . . .
35.3(31) . . .
52(4) . . .
42.0(34) . . .
40.0(34) . . .
44(4) . . .
41.9(34) . . .
39.6(32) . . .
48(4) . . .
39.2(33) . . .
46(4) . . .
48(4) . . .
45(4) . . .
57(4) . . .
49(4) . . .
46(4) . . .
47(4) . . .
52(4) . . .
47(4) . . .
39.4(34) . . .
44(4) . . .
46.2(35) . . .
41.9(34) . . .
44(4) . . .
46(4) . . .
52(4) . . .
44.4(35) . . .
44(4) . . .
40.4(33) . . .
45(4) . . .
44(4) . . .
43.8(35) . . .
40.3(33) . . .
42.5(33) . . .
49(4) . . .
60(4) . . .
47(4) . . .
48(4) . . .
48(4) . . .
35.7(32) . . .
43(4) . . .
58(4) . . .
42.3(34) . . .
41(4) . . .
40(4) . . .
45(4) . . .
48(4) . . .
63(4) . . .
45(4) . . .
47(4) . . .
52(4) . . .
40.5(33) . . .
47(4) . . .
47(4) . . .
42.6(34) . . .
44(4) . . .
31.8(29) . . .
41(4) . . .
43(4) . . .
46(4) . . .
50(4) . . .
50(4) . . .
40.7(33) . . .
43.0(34) . . .
47(4) . . .
44.4(35) . . .
47(4) . . .
48(4) . . .
39(4) . . .
45(4) . . .
52(4) . . .
42.8(34) . . .
55(4) . . .
36.9(34) . . .
50(4) . . .
51(4) . . .
48(4) . . .
45.6(35) . . .
46(4) . . .
42.3(35) . . .
40.8(33) . . .
43.8(35) . . .
51(4) . . .
46(4) . . .
45(4) . . .
52(4) . . .
36.7(32) . . .
47(4) . . .
47(4) . . .
41.4(34) . . .
39.4(33) . . .
53(4) . . .
52(4) . . .
52(4) . . .
42.6(34) . . .
42.5(34) . . .
40.0(35) . . .
32.3(31) . . .
41(4) . . .
46(4) . . .
56(4) . . .
50(4) . . .
48(4) . . .
44(4) . . .
48(4) . . .
60(4) . . .
47(4) . . .
41(4) . . .
44(4) . . .
56(4) . . .
49(4) . . .
42.7(34) . . .
46(4) . . .
53(4) . . .
49(4) . . .
39.4(33) . . .
47(4) . . .
49(4) . . .
45(4) . . .
49(4) . . .
41.9(33) . . .
47(4) . . .
56(4) . . .
45.3(35) . . .
53(4) . . .
50(4) . . .
53(4) . . .
38.7(35) . . .
43(4) . . .
40.2(33) . . .
52(4) . . .
46(4) . . .
49(4) . . .
50(4) . . .
47(4) . . .
55(4) . . .
47(4) . . .
42(4) . . .
48(4) . . .
52(4) . . .
44.3(34) . . .
41.1(34) . . .
37.7(33) . . .
45(4) . . .
50(4) . . .
43(4) . . .
45(4) . . .
45(4) . . .
48(4) . . .
43.9(34) . . .
44(4) . . .
47(4) . . .
50(4) . . .
40.5(34) . . .
44.1(35) . . .
47(4) . . .
43(4) . . .
53(4) . . .
54(4) . . .
50(4) . . .
61(4) . . .
41(4) . . .
45(4) . . .
43.0(34) . . .
54(4) . . .
48(4) . . .
44(4) . . .
45(4) . . .
42.8(34) . . .
42(4) . . .
45(4) . . .
56(4) . . .
44(4) . . .
37.7(33) . . .
48(4) . . .
40.0(35) . . .
42.1(35) . . .
50(4) . . .
49(4) . . .
53(4) . . .
43(4) . . .
38.3(34) . . .
42.0(34) . . .
49(4) . . .
38.0(32) . . .
42.3(35) . . .
41.0(35) . . .
43.8(35) . . .
47(4) . . .
51(4) . . .
56(4) . . .
53(4) . . .
42.5(34) . . .
48(4) . . .
50(4) . . .
43(4) . . .
45(4) . . .
46(4) . . .
50(4) . . .
60(4) . . .
49(4) . . .
52(4) . . .
46(4) . . .
48(4) . . .
43(4) . . .
40.1(33) . . .
43.2(35) . . .
41.7(34) . . .
52(4) . . .
45(4) . . .
48(4) . . .
45(4) . . .
46(4) . . .
46(4) . . .
45(4) . . .
45(4) . . .
53(4) . . .
52(4) . . .
44.0(35) . . .
50(4) . . .
47(4) . . .
48(4) . . .
43.3(34) . . .
48(4) . . .
57(4) . . .
52(4) . . .
48(4) . . .
43.1(34) . . .
42.2(34) . . .
48(4) . . .
42.7(34) . . .
41.0(34) . . .
52(4) . . .
43.3(34) . . .
44(4) . . .
53(4) . . .
51(4) . . .
45(4) . . .
42.8(34) . . .
53(4) . . .
49(4) . . .
43(4) . . .
49(4) . . .
43.7(34) . . .
40.2(35) . . .
46(4) . . .
47(4) . . .
53(4) . . .
44.7(35) . . .
50(4) . . .
44.0(35) . . .
50(4) . . .
38.2(32) . . .
46(4) . . .
53(4) . . .
48(4) . . .
43.5(34) . . .
49(4) . . .
53(4) . . .
51(4) . . .
44(4) . . .
48(4) . . .
38.7(32) . . .
43(4) . . .
42(4) . . .
34.9(33) . . .
41.8(34) . . .
47(4) . . .
38.9(33) . . .
46(4) . . .
45(4) . . .
46(4) . . .
50(4) . . .
42(4) . . .
44(4) . . .
41.1(34) . . .
59(4) . . .
57(4) . . .
42(4) . . .
44(4) . . .
45(4) . . .
50(4) . . .
41.0(33) . . .
43(4) . . .
44(4) . . .
41.4(34) . . .
39.8(33) . . .
40.5(34) . . .
45(4) . . .
43(4) . . .
45(4) . . .
38.3(32) . . .
47(4) . . .
43(4) . . .
43(4) . . .
52(4) . . .
44.0(34) . . .
46(4) . . .
41(4) . . .
45(4) . . .
49(4) . . .
53(4) . . .
52(4) . . .
47(4) . . .
49(4) . . .
52(4) . . .
46(4) . . .
42.7(35) . . .
51(4) . . .
42(4) . . .
49(4) . . .
49(4) . . .
49(4) . . .
42(4) . . .
48(4) . . .
52(4) . . .
38.1(32) . . .
39.0(32) . . .
44(4) . . .
34.3(31) . . .
45(4) . . .
51(4) . . .
52(4) . . .
45(4) . . .
43.8(35) . . .
50(4) . . .
42.2(33) . . .
37.0(32) . . .
49(4) . . .
41(4) . . .
46(4) . . .
41.6(34) . . .
51(4) . . .
42(4) . . .
47(4) . . .
49(4) . . .
43(4) . . .
48(4) . . .
42(4) . . .
41.0(34) . . .
55(4) . . .
39.8(33) . . .
49(4) . . .
46(4) . . .
37.5(33) . . .
38.3(32) . . .
42.5(34) . . .
54(4) . . .
47(4) . . .
36.4(31) . . .
43.1(34) . . .
40.4(34) . . .
46(4) . . .
45(4) . . .
37.1(31) . . .
46(4) . . .
51(4) . . .
51(4) . . .
43(4) . . .
46(4) . . .
41.8(34) . . .
53(4) . . .
55(4) . . .
47(4) . . .
34.4(31) . . .
35.3(31) . . .
49(4) . . .
46(4) . . .
50(4) . . .
51(4) . . .
47(4) . . .
41(4) . . .
53(4) . . .
48(4) . . .
50(4) . . .
45(4) . . .
45(4) . . .
56(4) . . .
33.1(30) . . .
44.8(35) . . .
42.6(34) . . .
43.0(35) . . .
43(4) . . .
40.3(35) . . .
47(4) . . .
45.0(35) . . .
38.7(32) . . .
45(4) . . .
45(4) . . .
42.6(34) . . .
50(4) . . .
50(4) . . .
45(4) . . .
44(4) . . .
39.3(33) . . .
44.6(35) . . .
44.6(35) . . .
45(4) . . .
46(4) . . .
50(4) . . .
48(4) . . .
45(4) . . .
41.0(34) . . .
41.2(34) . . .
40.6(33) . . .
44(4) . . .
44(4) . . .
49(4) . . .
42.6(35) . . .
52(4) . . .
39.6(33) . . .
50(4) . . .
50(4) . . .
39.8(33) . . .
39.0(32) . . .
37.6(32) . . .
44(4) . . .
40.3(33) . . .
47(4) . . .
41.4(33) . . .
50(4) . . .
41(4) . . .
63(4) . . .
48(4) . . .
45.0(35) . . .
54(4) . . .
40.6(35) . . .
46(4) . . .
42.2(34) . . .
51(4) . . .
53(4) . . .
56(4) . . .
56(4) . . .
42.9(34) . . .
48(4) . . .
43(4) . . .
44(4) . . .
46(4) . . .
38.3(33) . . .
42.2(35) . . .
36.9(33) . . .
45(4) . . .
38.4(33) . . .
49(4) . . .
53(4) . . .
56(4) . . .
54(4) . . .
38.2(32) . . .
47(4) . . .
44.0(35) . . .
48(4) . . .
44(4) . . .
38.4(34) . . .
48(4) . . .
47(4) . . .
39(4) . . .
44(4) . . .
45(4) . . .
46(4) . . .
44(4) . . .
46(4) . . .
54(4) . . .
49(4) . . .
42.6(35) . . .
42.4(35) . . .
49(4) . . .
45(4) . . .
45.3(35) . . .
40.7(33) . . .
45(4) . . .
49(4) . . .
38.8(32) . . .
47(4) . . .
40.8(33) . . .
44(4) . . .
53(4) . . .
56(4) . . .
40.9(33) . . .
43.8(34) . . .
48(4) . . .
48(4) . . .
42(4) . . .
47(4) . . .
52(4) . . .
45(4) . . .
54(4) . . .
44.9(35) . . .
45.4(35) . . .
52(4) . . .
45(4) . . .
52(4) . . .
50(4) . . .
46.0(35) . . .
47(4) . . .
39.8(34) . . .
36.8(31) . . .
54(4) . . .
43.7(34) . . .
44(4) . . .
48(4) . . .
46(4) . . .
40.2(34) . . .
48(4) . . .
55(4) . . .
39.0(34) . . .
42.1(34) . . .
45.2(35) . . .
47(4) . . .
49(4) . . .
46(4) . . .
40.5(34) . . .
38.3(33) . . .
46(4) . . .
44.7(35) . . .
51(4) . . .
50(4) . . .
45(4) . . .
45.0(35) . . .
53(4) . . .
42(4) . . .
39.7(34) . . .
54(4) . . .
59(4) . . .
54(4) . . .
51(4) . . .
56(4) . . .
43.4(34) . . .
46(4) . . .
49(4) . . .
47(4) . . .
45(4) . . .
61(4) . . .
53(4) . . .
46(4) . . .
48(4) . . .
47(4) . . .
35.6(31) . . .
46(4) . . .
53(4) . . .
46(4) . . .
52(4) . . .
41.1(34) . . .
38.0(33) . . .
48(4) . . .
41.0(34) . . .
41.9(35) . . .
46.0(35) . . .
46(4) . . .
40(4) . . .
47(4) . . .
41.0(33) . . .
43.6(35) . . .
38.8(33) . . .
42(4) . . .
44(4) . . .
39.3(34) . . .
41.9(33) . . .
51(4) . . .
45.2(35) . . .
52(4) . . .
57(4) . . .
48(4) . . .
52(4) . . .
51(4) . . .
52(4) . . .
48(4) . . .
48(4) . . .
41.2(35) . . .
43(4) . . .
40.4(34) . . .
43.4(34) . . .
56(4) . . .
46(4) . . .
49(4) . . .
44.2(34) . . .
48(4) . . .
43.7(34) . . .
49(4) . . .
42(4) . . .
37.3(33) . . .
40.2(33) . . .
41.7(33) . . .
42(4) . . .
44(4) . . .
46(4) . . .
44.8(35) . . .
48(4) . . .
48(4) . . .
50(4) . . .
47(4) . . .
39.5(33) . . .
51(4) . . .
53(4) . . .
46(4) . . .
34.3(32) . . .
41.2(34) . . .
39.1(32) . . .
46(4) . . .
49(4) . . .
51(4) . . .
53(4) . . .
41.0(35) . . .
53(4) . . .
63(4) . . .
45(4) . . .
52(4) . . .
41.1(33) . . .
42(4) . . .
51(4) . . .
44.4(35) . . .
39.9(33) . . .
45(4) . . .
44(4) . . .
43(4) . . .
43.2(34) . . .
43.1(34) . . .
35.5(32) . . .
46(4) . . .
45(4) . . .
48(4) . . .
46(4) . . .
45(4) . . .
46(4) . . .
47(4) . . .
46(4) . . .
40.1(33) . . .
40.6(35) . . .
43(4) . . .
42.9(34) . . .
49(4) . . .
59(4) . . .
45(4) . . .
50(4) . . .
41.2(35) . . .
45.7(35) . . .
44(4) . . .
49(4) . . .
47(4) . . .
40.0(34) . . .
38.5(32) . . .
42.3(34) . . .
48(4) . . .
48(4) . . .
51(4) . . .
45(4) . . .
49(4) . . .
53(4) . . .
45.9(35) . . .
49(4) . . .
51(4) . . .
45.2(35) . . .
54(4) . . .
47(4) . . .
43(4) . . .
41.3(33) . . .
50(4) . . .
51(4) . . .
55(4) . . .
45.3(35) . . .
49(4) . . .
46(4) . . .
36.0(33) . . .
48(4) . . .
37.3(31) . . .
48(4) . . .
52(4) . . .
45(4) . . .
44.8(35) . . .
36.3(32) . . .
52(4) . . .
52(4) . . .
43(4) . . .
51(4) . . .
39.5(33) . . .
45(4) . . .
43(4) . . .
50(4) . . .
37.7(31) . . .
43.0(34) . . .
46.0(35) . . .
40.1(34) . . .
42(4) . . .
39.6(33) . . .
40.4(33) . . .
38.9(33) . . .
41.8(34) . . .
44(4) . . .
50(4) . . .
46(4) . . .
40.5(33) . . .
43.9(35) . . .
49(4) . . .
42.9(34) . . .
46(4) . . .
37.9(32) . . .
48(4) . . .
46(4) . . .
38.9(32) . . .
52(4) . . .
48(4) . . .
50(4) . . .
45.2(34) . . .
50(4) . . .
44.2(34) . . .
49(4) . . .
43(4) . . .
56(4) . . .
45(4) . . .
51(4) . . .
49(4) . . .
43(4) . . .
47(4) . . .
55(4) . . .
36.3(32) . . .
51(4) . . .
46(4) . . .
48(4) . . .
48(4) . . .
38.9(32) . . .
45(4) . . .
43(4) . . .
47(4) . . .
53(4) . . .
43.6(34) . . .
49(4) . . .
46(4) . . .
39.2(33) . . .
52(4) . . .
40.6(35) . . .
45(4) . . .
45(4) . . .
42.4(34) . . .
49(4) . . .
48(4) . . .
45(4) . . .
34.0(31) . . .
40.0(34) . . .
43.8(34) . . .
43(4) . . .
46(4) . . .
46(4) . . .
44(4) . . .
42.9(34) . . .
52(4) . . .
44(4) . . .
47(4) . . .
52(4) . . .
51(4) . . .
48(4) . . .
36.6(31) . . .
45(4) . . .
49(4) . . .
39.6(33) . . .
37.2(33) . . .
42(4) . . .
44(4) . . .
41.8(34) . . .
53(4) . . .
52(4) . . .
53(4) . . .
43(4) . . .
46(4) . . .
48(4) . . .
53(4) . . .
51(4) . . .
44(4) . . .
46(4) . . .
44.3(35) . . .
44(4) . . .
37.3(31) . . .
54(4) . . .
43.9(34) . . .
45(4) . . .
57(4) . . .
55(4) . . .
36.9(31) . . .
42.2(34) . . .
44.1(34) . . .
45(4) . . .
55(4) . . .
43(4) . . .
41.5(33) . . .
44.3(35) . . .
49(4) . . .
51(4) . . .
42.8(35) . . .
36.0(31) . . .
43.8(34) . . .
41.2(33) . . .
47(4) . . .
47(4) . . .
50(4) . . .
46(4) . . .
46(4) . . .
45(4) . . .
51(4) . . .
48(4) . . .
43(4) . . .
44(4) . . .
48(4) . . .
47(4) . . .
46(4) . . .
37.8(31) . . .
51(4) . . .
44(4) . . .
45(4) . . .
47(4) . . .
43(4) . . .
48(4) . . .
34.4(30) . . .
38.5(34) . . .
51(4) . . .
50(4) . . .
41(4) . . .
40.6(34) . . .
46.2(35) . . .
45(4) . . .
42.0(34) . . .
42(4) . . .
42.3(34) . . .
54(4) . . .
43.2(34) . . .
49(4) . . .
47(4) . . .
55(4) . . .
42.5(34) . . .
36.5(32) . . .
51(4) . . .
55(4) . . .
48(4) . . .
50(4) . . .
46(4) . . .
45(4) . . .
44(4) . . .
47(4) . . .
44.0(35) . . .
48(4) . . .
50(4) . . .
49(4) . . .
42(4) . . .
56(4) . . .
47(4) . . .
41.7(35) . . .
46(4) . . .
44(4) . . .
44.0(34) . . .
43(4) . . .
52(4) . . .
46(4) . . .
50(4) . . .
48(4) . . .
52(4) . . .
45(4) . . .
46(4) . . .
47(4) . . .
48(4) . . .
50(4) . . .
48(4) . . .
50(4) . . .
53(4) . . .
45(4) . . .
39.6(34) . . .
45(4) . . .
47(4) . . .
51(4) . . .
47(4) . . .
40.3(34) . . .
48(4) . . .
49(4) . . .
42.8(34) . . .
40.0(33) . . .
40.3(34) . . .
40.2(34) . . .
49(4) . . .
40.9(33) . . .
42.8(34) . . .
55(4) . . .
39.0(34) . . .
43(4) . . .
40.2(33) . . .
48(4) . . .
50(4) . . .
47(4) . . .
47(4) . . .
48(4) . . .
45(4) . . .
39.6(33) . . .
44(4) . . .
46(4) . . .
43.0(34) . . .
45(4) . . .
47(4) . . .
37.1(32) . . .
51(4) . . .
40.4(33) . . .
46(4) . . .
52(4) . . .
45(4) . . .
52(4) . . .
40.6(33) . . .
45(4) . . .
58(4) . . .
52(4) . . .
46(4) . . .
44.1(35) . . .
50(4) . . .
45(4) . . .
40.1(34) . . .
41.5(33) . . .
39.6(33) . . .
49(4) . . .
51(4) . . .
50(4) . . .
43.4(34) . . .
52(4) . . .
45(4) . . .
40(4) . . .
45(4) . . .
46(4) . . .
57(4) . . .
58(4) . . .
44(4) . . .
52(4) . . .
39.6(33) . . .
40.5(34) . . .
47(4) . . .
53(4) . . .
46(4) . . .
34.3(31) . . .
43(4) . . .
40.5(34) . . .
44(4) . . .
56(4) . . .
46(4) . . .
58(4) . . .
45(4) . . .
44(4) . . .
47(4) . . .
45(4) . . .
46(4) . . .
51(4) . . .
36.6(31) . . .
46(4) . . .
53(4) . . .
42.7(34) . . .
44(4) . . .
36.7(32) . . .
41.3(35) . . .
40.1(33) . . .
45(4) . . .
44(4) . . .
51(4) . . .
39.9(32) . . .
41.3(33) . . .
44(4) . . .
38.6(33) . . .
50(4) . . .
44.2(35) . . .
47(4) . . .
47(4) . . .
40.2(34) . . .
46(4) . . .
42.7(34) . . .
43.0(34) . . .
44(4) . . .
40.8(35) . . .
44(4) . . .
42.4(34) . . .
44.7(35) . . .
50(4) . . .
46(4) . . .
44(4) . . .
42.0(34) . . .
39.6(34) . . .
37.1(34) . . .
45(4) . . .
43.6(34) . . .
50(4) . . .
52(4) . . .
49(4) . . .
45(4) . . .
47(4) . . .
43.7(34) . . .
54(4) . . .
46(4) . . .
47(4) . . .
47(4) . . .
44.8(35) . . .
51(4) . . .
44(4) . . .
41.6(35) . . .
44(4) . . .
48(4) . . .
55(4) . . .
49(4) . . .
52(4) . . .
41.8(35) . . .
47(4) . . .
39.3(32) . . .
50(4) . . .
51(4) . . .
45(4) . . .
41.3(33) . . .
47(4) . . .
49(4) . . .
45(4) . . .
48(4) . . .
43.5(34) . . .
37.3(33) . . .
39(4) . . .
44(4) . . .
49(4) . . .
42.5(34) . . .
42(4) . . .
52(4) . . .
49(4) . . .
45(4) . . .
42.3(34) . . .
40.9(35) . . .
43(4) . . .
43(4) . . .
40.1(33) . . .
46(4) . . .
49(4) . . .
47(4) . . .
45(4) . . .
51(4) . . .
51(4) . . .
39.6(32) . . .
44(4) . . .
38.5(33) . . .
46(4) . . .
53(4) . . .
49(4) . . .
47(4) . . .
42.5(35) . . .
50(4) . . .
45(4) . . .
42.4(34) . . .
60(4) . . .
45(4) . . .
46(4) . . .
47(4) . . .
53(4) . . .
40(4) . . .
41(4) . . .
40.1(33) . . .
42.5(34) . . .
49(4) . . .
48(4) . . .
40.2(34) . . .
46(4) . . .
51(4) . . .
43(4) . . .
30.9(28) . . .
42.0(34) . . .
39.6(33) . . .
44(4) . . .
39.9(34) . . .
50(4) . . .
49(4) . . .
43.7(35) . . .
49(4) . . .
46(4) . . .
51(4) . . .
44.5(34) . . .
37.2(33) . . .
38.7(34) . . .
48(4) . . .
46(4) . . .
43(4) . . .
49(4) . . .
39.7(33) . . .
55(4) . . .
45.1(35) . . .
43.6(35) . . .
41.6(33) . . .
47(4) . . .
44(4) . . .
47(4) . . .
47(4) . . .
49(4) . . .
51(4) . . .
45(4) . . .
50(4) . . .
35.4(31) . . .
53(4) . . .
50(4) . . .
48(4) . . .
51(4) . . .
45(4) . . .
51(4) . . .
50(4) . . .
41.1(34) . . .
46(4) . . .
55(4) . . .
37.9(32) . . .
53(4) . . .
47(4) . . .
51(4) . . .
41.9(34) . . .
33.8(30) . . .
41.1(34) . . .
48(4) . . .
46(4) . . .
45(4) . . .
46(4) . . .
46(4) . . .
51(4) . . .
46(4) . . .
51(4) . . .
49(4) . . .
46(4) . . .
44.8(35) . . .
50(4) . . .
44.5(35) . . .
40.0(34) . . .
38.3(34) . . .
38.7(33) . . .
48(4) . . .
57(4) . . .
53(4) . . .
48(4) . . .
46(4) . . .
45(4) . . .
45(4) . . .
32.8(29) . . .
45(4) . . .
52(4) . . .
34.7(31) . . .
50(4) . . .
44(4) . . .
38.1(34) . . .
43.1(35) . . .
43.0(34) . . .
48(4) . . .
43.5(34) . . .
49(4) . . .
42.2(35) . . .
51(4) . . .
48(4) . . .
44.8(35) . . .
40.7(34) . . .
45(4) . . .
56(4) . . .
43.9(35) . . .
42.2(35) . . .
42(4) . . .
47(4) . . .
48(4) . . .
42.3(35) . . .
39.2(34) . . .
47(4) . . .
51(4) . . .
47(4) . . .
43(4) . . .
45(4) . . .
56(4) . . .
42.9(35) . . .
48(4) . . .
49(4) . . .
48(4) . . .
43(4) . . .
35.2(33) . . .
38.7(32) . . .
42(4) . . .
46(4) . . .
39.5(33) . . .
49(4) . . .
47(4) . . .
47(4) . . .
48(4) . . .
51(4) . . .
37.6(32) . . .
39.8(35) . . .
37.1(31) . . .
45(4) . . .
46(4) . . .
48(4) . . .
54(4) . . .
41.3(33) . . .
46(4) . . .
46(4) . . .
43.1(34) . . .
51(4) . . .
38.9(33) . . .
49(4) . . .
47(4) . . .
35.0(31) . . .
36.8(35) . . .
41(4) . . .
41(4) . . .
37.4(33) . . .
37.5(32) . . .
47(4) . . .
46(4) . . .
41.8(35) . . .
42.3(34) . . .
59(4) . . .
56(4) . . .
54(4) . . .
43.1(35) . . .
44.6(35) . . .
49(4) . . .
50(4) . . .
45(4) . . .
47(4) . . .
45(4) . . .
41.5(34) . . .
43(4) . . .
40.4(35) . . .
38.9(35) . . .
43.5(35) . . .
49(4) . . .
46(4) . . .
42.5(35) . . .
50(4) . . .
50(4) . . .
41.7(34) . . .
37.2(33) . . .
38.7(34) . . .
53(4) . . .
46(4) . . .
49(4) . . .
49(4) . . .
53(4) . . .
38.5(34) . . .
56(4) . . .
49(4) . . .
44.5(34) . . .
51(4) . . .
56(4) . . .
48(4) . . .
46(4) . . .
43(4) . . .
43(4) . . .
46(4) . . .
38.4(33) . . .
40.9(34) . . .
52(4) . . .
46(4) . . .
42.8(35) . . .
48(4) . . .
43.2(34) . . .
49(4) . . .
49(4) . . .
56(4) . . .
39.1(32) . . .
43(4) . . .
40.2(34) . . .
48(4) . . .
42.8(34) . . .
44.3(35) . . .
46(4) . . .
47(4) . . .
45(4) . . .
42.9(34) . . .
49(4) . . .
50(4) . . .
44(4) . . .
39.2(31) . . .
51(4) . . .
41.8(33) . . .
40.3(35) . . .
44(4) . . .
32.5(30) . . .
42.6(34) . . .
41.2(34) . . .
50(4) . . .
52(4) . . .
50(4) . . .
44.6(35) . . .
39.5(33) . . .
48(4) . . .
47(4) . . .
46(4) . . .
36.9(32) . . .
43(4) . . .
50(4) . . .
53(4) . . .
43(4) . . .
43.2(34) . . .
43.8(35) . . .
50(4) . . .
40.2(35) . . .
55(4) . . .
44(4) . . .
35.0(30) . . .
44(4) . . .
41(4) . . .
39.8(33) . . .
42.6(35) . . .
49(4) . . .
46(4) . . .
36.9(32) . . .
44(4) . . .
38.8(33) . . .
43(4) . . .
50(4) . . .
51(4) . . .
54(4) . . .
48(4) . . .
50(4) . . .
38.7(33) . . .
42(4) . . .
47(4) . . .
42.8(34) . . .
54(4) . . .
48(4) . . .
46(4) . . .
47(4) . . .
48(4) . . .
42(4) . . .
41.6(35) . . .
47(4) . . .
39.2(33) . . .
48(4) . . .
41.5(35) . . .
45(4) . . .
48(4) . . .
46(4) . . .
48(4) . . .
43(4) . . .
41.8(35) . . .
49(4) . . .
50(4) . . .
44.9(35) . . .
51(4) . . .
38.7(34) . . .
47(4) . . .
45.5(35) . . .
43.9(34) . . .
59(4) . . .
42.2(34) . . .
42(4) . . .
36.2(31) . . .
41.2(34) . . .
40.8(34) . . .
42(4) . . .
34.7(30) . . .
46(4) . . .
37.0(33) . . .
44(4) . . .
51(4) . . .
57(4) . . .
53(4) . . .
49(4) . . .
43(4) . . .
36.5(32) . . .
48(4) . . .
50(4) . . .
42(4) . . .
52(4) . . .
43(4) . . .
55(4) . . .
52(4) . . .
50(4) . . .
58(4) . . .
40.9(34) . . .
46.3(35) . . .
46(4) . . .
48(4) . . .
59(5) . . .
45(4) . . .
47(4) . . .
42.0(33) . . .
41.8(35) . . .
38(4) . . .
34.2(32) . . .
43(4) . . .
43.6(35) . . .
45(4) . . .
48(4) . . .
44(4) . . .
38.6(32) . . .
37.1(32) . . .
36.7(32) . . .
34.1(34) . . .
37.8(35) . . .
43.2(34) . . .
38.2(32) . . .
49(4) . . .
46(4) . . .
42(4) . . .
36.4(31) . . .
43.8(35) . . .
44.6(34) . . .
43(4) . . .
49(4) . . .
51(4) . . .
55(4) . . .
41.7(34) . . .
41(4) . . .
43(4) . . .
43.7(34) . . .
57(4) . . .
49(4) . . .
51(4) . . .
43.3(35) . . .
48(4) . . .
43.2(35) . . .
53(4) . . .
44(4) . . .
47(4) . . .
46.3(35) . . .
48(4) . . .
48(4) . . .
41(4) . . .
41.8(34) . . .
42.5(34) . . .
43.1(35) . . .
49(4) . . .
39.5(33) . . .
46.2(35) . . .
46(4) . . .
40.9(34) . . .
46(4) . . .
58(4) . . .
51(4) . . .
42.1(34) . . .
33.6(32) . . .
43(4) . . .
40.3(32) . . .
53(4) . . .
47(4) . . .
50(4) . . .
46(4) . . .
54(4) . . .
42.0(34) . . .
37.8(32) . . .
41.2(34) . . .
48(4) . . .
50(4) . . .
38.0(32) . . .
38.8(33) . . .
33.0(29) . . .
47(4) . . .
44.1(35) . . .
51(4) . . .
54(4) . . .
60(4) . . .
48(4) . . .
49(4) . . .
53(4) . . .
45(4) . . .
42.1(34) . . .
42(4) . . .
49(4) . . .
47(4) . . .
51(4) . . .
48(4) . . .
43(4) . . .
41(4) . . .
47(4) . . .
46(4) . . .
45(4) . . .
48(4) . . .
52(4) . . .
47(4) . . .
44(4) . . .
45(4) . . .
53(4) . . .
50(4) . . .
55(4) . . .
39.5(35) . . .
39.5(35) . . .
43(4) . . .
43(4) . . .
47(4) . . .
50(4) . . .
40.4(35) . . .
44(4) . . .
41.0(33) . . .
42.4(34) . . .
44.1(35) . . .
43.5(35) . . .
59(4) . . .
45.5(35) . . .
46(4) . . .
48(4) . . .
39(4) . . .
38.3(35) . . .
46(4) . . .
50(4) . . .
53(4) . . .
47(4) . . .
50(4) . . .
46(4) . . .
52(4) . . .
48(4) . . .
54(4) . . .
49(4) . . .
47.1(35) . . .
55(4) . . .
49(4) . . .
47.2(35) . . .
55(4) . . .
42.6(34) . . .
48(4) . . .
51(4) . . .
40.2(34) . . .
39.8(33) . . .
49(4) . . .
44(4) . . .
48(4) . . .
45(4) . . .
39.0(35) . . .
36.9(31) . . .
46(4) . . .
38(4) . . .
42.7(34) . . .
47(4) . . .
40.4(33) . . .
45(4) . . .
47(4) . . .
38.6(34) . . .
38.6(33) . . .
43.1(34) . . .
40.1(32) . . .
47(4) . . .
48(4) . . .
45(4) . . .
42.7(34) . . .
44(4) . . .
54(4) . . .
51(4) . . .
50(4) . . .
39.9(33) . . .
36.9(31) . . .
47(4) . . .
49(4) . . .
54(4) . . .
52(4) . . .
45(4) . . .
42(4) . . .
45(4) . . .
41.8(34) . . .
47(4) . . .
46(4) . . .
46(4) . . .
38.0(32) . . .
49(4) . . .
50(4) . . .
49(4) . . .
42.0(35) . . .
33.8(32) . . .
56(4) . . .
46(4) . . .
39.8(34) . . .
39.5(32) . . .
45(4) . . .
49(4) . . .
46(4) . . .
48(4) . . .
46(4) . . .
57(4) . . .
50(4) . . .
41.8(34) . . .
42(4) . . .
46(4) . . .
47(4) . . .
51(4) . . .
49(4) . . .
44(4) . . .
44.0(35) . . .
44.5(35) . . .
42.5(34) . . .
46(4) . . .
42(4) . . .
50(4) . . .
40.3(32) . . .
55(4) . . .
42.1(34) . . .
43.5(35) . . .
50(4) . . .
48(4) . . .
56(4) . . .
50(4) . . .
37.2(33) . . .
50(4) . . .
39.1(32) . . .
37.6(32) . . .
44(4) . . .
45(4) . . .
45(4) . . .
49(4) . . .
56(4) . . .
30.2(29) . . .
37.7(34) . . .
54(4) . . .
43(4) . . .
47(4) . . .
52(4) . . .
40.4(35) . . .
42.4(35) . . .
40.2(33) . . .
42.0(34) . . .
49(4) . . .
40.9(34) . . .
42.1(35) . . .
44.4(35) . . .
54(4) . . .
51(4) . . .
42.9(35) . . .
41.8(34) . . .
39.6(33) . . .
47(4) . . .
44(4) . . .
45(4) . . .
34.4(31) . . .
44(4) . . .
56(4) . . .
47(4) . . .
40.8(34) . . .
42.0(34) . . .
50(4) . . .
49(4) . . .
47(4) . . .
53(4) . . .
52(4) . . .
49(4) . . .
46(4) . . .
44(4) . . .
47(4) . . .
54(4) . . .
51(4) . . .
45(4) . . .
34.0(32) . . .
43.6(35) . . .
47(4) . . .
40.9(34) . . .
45(4) . . .
47(4) . . .
36.4(32) . . .
51(4) . . .
43.3(34) . . .
38.6(33) . . .
46(4) . . .
45(4) . . .
40.7(34) . . .
53(4) . . .
49(4) . . .
49(4) . . .
46(4) . . .
53(4) . . .
42.7(35) . . .
38.5(32) . . .
50(4) . . .
40.4(34) . . .
39.8(33) . . .
46(4) . . .
49(4) . . .
38.7(33) . . .
49(4) . . .
47(4) . . .
50(4) . . .
63(4) . . .
50(4) . . .
37.4(33) . . .
43.2(34) . . .
60(4) . . .
44(4) . . .
37.1(32) . . .
46(4) . . .
42.5(34) . . .
48(4) . . .
49(4) . . .
49(4) . . .
39.6(33) . . .
48(4) . . .
44(4) . . .
60(4) . . .
50(4) . . .
50(4) . . .
49(4) . . .
42(4) . . .
43(4) . . .
54(4) . . .
45.5(35) . . .
47(4) . . .
34.6(30) . . .
46(4) . . .
38.4(33) . . .
38.2(33) . . .
50(4) . . .
33.6(31) . . .
48(4) . . .
37.3(32) . . .
48(4) . . .
51(4) . . .
44(4) . . .
46(4) . . .
45(4) . . .
41.6(34) . . .
41.7(34) . . .
36.4(34) . . .
46(4) . . .
47(4) . . .
42.8(34) . . .
48(4) . . .
43.4(35) . . .
41.5(34) . . .
40.9(34) . . .
50(4) . . .
42.6(35) . . .
41.7(33) . . .
36.2(32) . . .
46(4) . . .
54(4) . . .
42.5(34) . . .
44.4(34) . . .
47(4) . . .
37.9(32) . . .
48(4) . . .
40.2(33) . . .
52(4) . . .
48(4) . . .
50(4) . . .
49(4) . . .
51(4) . . .
46(4) . . .
47(4) . . .
38.1(33) . . .
35.8(31) . . .
40(4) . . .
40.8(35) . . .
49(4) . . .
44(4) . . .
40.8(33) . . .
43(4) . . .
47(4) . . .
45(4) . . .
39.2(34) . . .
52(4) . . .
52(4) . . .
40(4) . . .
35.9(31) . . .
44.2(35) . . .
54(4) . . .
54(4) . . .
44(4) . . .
51(4) . . .
43.9(35) . . .
48(4) . . .
47(4) . . .
46(4) . . .
42(4) . . .
47(4) . . .
41.5(34) . . .
44(4) . . .
60(5) . . .
48(4) . . .
54(4) . . .
47(4) . . .
47(4) . . .
38(4) . . .
34.8(31) . . .
47(4) . . .
53(4) . . .
49(4) . . .
40.5(34) . . .
40.8(34) . . .
42.5(34) . . .
44(4) . . .
50(4) . . .
43(4) . . .
39.6(34) . . .
37.9(32) . . .
40.2(34) . . .
46(4) . . .
49(4) . . .
40.0(33) . . .
45.2(35) . . .
38.8(32) . . .
44(4) . . .
58(4) . . .
42.2(34) . . .
47(4) . . .
42(4) . . .
50(4) . . .
46(4) . . .
36.0(32) . . .
48(4) . . .
43(4) . . .
53(4) . . .
43.4(35) . . .
44.8(35) . . .
52(4) . . .
52(4) . . .
35.0(32) . . .
46(4) . . .
44.1(34) . . .
47(4) . . .
50(4) . . .
51(4) . . .
47(4) . . .
47(4) . . .
33.5(31) . . .
41.8(34) . . .
40.4(33) . . .
46(4) . . .
44.1(35) . . .
49(4) . . .
42(4) . . .
37(4) . . .
39.2(33) . . .
43.5(34) . . .
40.2(35) . . .
54(4) . . .
48(4) . . .
40.5(35) . . .
43.6(35) . . .
42.4(34) . . .
37.6(33) . . .
40.4(34) . . .
54(4) . . .
54(4) . . .
49(4) . . .
42(4) . . .
44(4) . . .
48(4) . . .
41(4) . . .
47(4) . . .
53(4) . . .
46.3(34) . . .
43.4(34) . . .
49(4) . . .
42.2(34) . . .
48(4) . . .
48(4) . . .
46(4) . . .
34.9(30) . . .
38.7(33) . . .
47(4) . . .
39(4) . . .
35.0(31) . . .
46(4) . . .
48(4) . . .
36.9(33) . . .
41(4) . . .
38.7(33) . . .
37.1(32) . . .
52(4) . . .
47(4) . . .
47(4) . . .
34.8(31) . . .
41.7(35) . . .
43(4) . . .
53(4) . . .
40.2(34) . . .
45(4) . . .
51(4) . . .
50(4) . . .
43(4) . . .
44(4) . . .
37.8(32) . . .
49(4) . . .
49(4) . . .
48(4) . . .
39.7(34) . . .
39.2(33) . . .
49(4) . . .
51(4) . . .
44(4) . . .
36.5(32) . . .
39.9(33) . . .
40.9(34) . . .
36.8(33) . . .
47(4) . . .
57(4) . . .
51(4) . . .
50(4) . . .
42.3(35) . . .
47(4) . . .
40.9(33) . . .
49(4) . . .
48(4) . . .
50(4) . . .
53(4) . . .
49(4) . . .
49(4) . . .
37.0(32) . . .
28.2(29) . . .
42.6(35) . . .
40.8(33) . . .
39.2(32) . . .
55(4) . . .
50(4) . . .
43(4) . . .
45.3(35) . . .
45(4) . . .
48(4) . . .
41(4) . . .
51(4) . . .
48(4) . . .
42.5(35) . . .
54(4) . . .
45(4) . . .
44.0(35) . . .
46(4) . . .
50(4) . . .
50(4) . . .
53(4) . . .
42.6(34) . . .
46(4) . . .
44.0(34) . . .
50(4) . . .
44(4) . . .
58(4) . . .
55(4) . . .
40.1(35) . . .
48(4) . . .
47(4) . . .
47(4) . . .
40.3(33) . . .
49(4) . . .
48(4) . . .
46(4) . . .
49(4) . . .
44.4(34) . . .
38.8(33) . . .
39.5(33) . . .
50(4) . . .
45(4) . . .
44.0(34) . . .
46(4) . . .
38.2(34) . . .
48(4) . . .
51(4) . . .
53(4) . . .
44.6(35) . . .
40(4) . . .
48(4) . . .
46(4) . . .
32.0(29) . . .
37.2(33) . . .
43(4) . . .
48(4) . . .
44(4) . . .
46(4) . . .
48(4) . . .
49(4) . . .
38.4(33) . . .
49(4) . . .
41.8(34) . . .
49(4) . . .
45(4) . . .
50(4) . . .
45(4) . . .
52(4) . . .
39.3(34) . . .
44(4) . . .
50(4) . . .
37.0(31) . . .
43(4) . . .
44(4) . . .
38.5(33) . . .
46(4) . . .
41.2(34) . . .
36.5(32) . . .
48(4) . . .
49(4) . . .
42(4) . . .
42.7(35) . . .
52(4) . . .
43.4(35) . . .
50(4) . . .
55(4) . . .
43.8(35) . . .
45(4) . . .
47(4) . . .
41.3(33) . . .
47(4) . . .
54(4) . . .
48(4) . . .
50(4) . . .
50(4) . . .
37.9(32) . . .
49(4) . . .
42.9(34) . . .
37.5(34) . . .
47(4) . . .
50(4) . . .
49(4) . . .
46(4) . . .
47(4) . . .
48(4) . . .
47(4) . . .
42.0(34) . . .
47(4) . . .
43(4) . . .
39.1(33) . . .
47(4) . . .
52(4) . . .
48(4) . . .
52(4) . . .
48(4) . . .
44.0(35) . . .
46(4) . . .
49(4) . . .
43(4) . . .
40(4) . . .
45(4) . . .
61(4) . . .
56(4) . . .
50(4) . . .
50(4) . . .
40.4(33) . . .
49(4) . . .
47(4) . . .
46(4) . . .
44.1(34) . . .
44.3(35) . . .
55(4) . . .
47(4) . . .
42.3(35) . . .
38.6(32) . . .
47(4) . . .
41.1(35) . . .
45(4) . . .
42(4) . . .
41.8(34) . . .
40.4(33) . . .
39.9(35) . . .
48(4) . . .
50(4) . . .
46(4) . . .
52(4) . . .
46(4) . . .
46(4) . . .
41.7(35) . . .
49(4) . . .
43.3(34) . . .
47(4) . . .
48(4) . . .
36.3(33) . . .
40.2(33) . . .
40.1(33) . . .
45(4) . . .
39.7(34) . . .
45.7(35) . . .
49(4) . . .
38.6(32) . . .
44(4) . . .
44(4) . . .
45(4) . . .
42.0(34) . . .
44(4) . . .
38.4(33) . . .
43(4) . . .
48(4) . . .
42.6(34) . . .
51(4) . . .
52(4) . . .
51(4) . . .
37.6(32) . . .
42.9(35) . . .
48(4) . . .
46(4) . . .
43(4) . . .
47(4) . . .
47(4) . . .
55(4) . . .
50(4) . . .
43(4) . . .
51(4) . . .
44.7(34) . . .
41.1(35) . . .
52(4) . . .
42(4) . . .
41.0(34) . . .
52(4) . . .
40.1(33) . . .
40.9(34) . . .
47(4) . . .
50(4) . . .
41.3(34) . . .
45(4) . . .
41(4) . . .
41.2(34) . . .
58(4) . . .
45.0(35) . . .
46(4) . . .
34.3(31) . . .
40.5(33) . . .
56(4) . . .
52(4) . . .
48(4) . . .
42(4) . . .
36.4(31) . . .
41.9(33) . . .
44.0(35) . . .
49(4) . . .
42.0(34) . . .
46(4) . . .
47(4) . . .
44(4) . . .
41(4) . . .
45(4) . . .
42(4) . . .
39.0(33) . . .
39.8(35) . . .
41(4) . . .
44(4) . . .
35.1(32) . . .
43.7(34) . . .
45(4) . . .
48(4) . . .
54(4) . . .
41.6(33) . . .
44.9(35) . . .
45(4) . . .
49(4) . . .
44(4) . . .
50(4) . . .
46(4) . . .
51(4) . . .
57(4) . . .
49(4) . . .
52(4) . . .
52(4) . . .
43.5(35) . . .
44(4) . . .
32.2(30) . . .
49(4) . . .
42.7(35) . . .
41.9(34) . . .
59(5) . . .
42.9(34) . . .
45.5(35) . . .
40.5(34) . . .
38.9(33) . . .
40(4) . . .
47(4) . . .
39.2(33) . . .
46(4) . . .
48(4) . . .
41.6(35) . . .
47(4) . . .
40.2(34) . . .
44(4) . . .
39.0(32) . . .
43(4) . . .
45(4) . . .
54(4) . . .
49(4) . . .
49(4) . . .
51(4) . . .
41(4) . . .
45(4) . . .
47(4) . . .
44(4) . . .
50(4) . . .
58(4) . . .
52(4) . . .
50(4) . . .
47(4) . . .
40.3(34) . . .
38.0(33) . . .
53(4) . . .
44.3(35) . . .
45(4) . . .
43(4) . . .
40.5(33) . . .
41.3(33) . . .
44.9(35) . . .
41.8(35) . . .
50(4) . . .
36.8(33) . . .
45.5(35) . . .
47(4) . . .
46(4) . . .
53(4) . . .
42.3(33) . . .
32.7(30) . . .
44(4) . . .
54(4) . . .
43(4) . . .
56(4) . . .
53(4) . . .
43(4) . . .
48(4) . . .
54(4) . . .
50(4) . . .
41.9(33) . . .
43(4) . . .
43(4) . . .
44(4) . . .
46(4) . . .
35.4(32) . . .
45(4) . . .
47(4) . . .
43(4) . . .
45.4(35) . . .
51(4) . . .
36.1(33) . . .
48(4) . . .
54(4) . . .
43.3(35) . . .
42.5(34) . . .
40.4(33) . . .
49(4) . . .
57(4) . . .
44.8(35) . . .
47(4) . . .
47(4) . . .
46(4) . . .
52(4) . . .
50(4) . . .
41.8(34) . . .
47(4) . . .
43.0(35) . . .
50(4) . . .
49(4) . . .
36.2(33) . . .
51(4) . . .
51(4) . . .
48(4) . . .
40.9(34) . . .
40(4) . . .
47(4) . . .
33.4(33) . . .
40.2(34) . . .
40.5(34) . . .
43(4) . . .
33.2(32) . . .
50(4) . . .
47(4) . . .
46.6(35) . . .
42(4) . . .
45(4) . . .
46(4) . . .
42.7(34) . . .
40.7(34) . . .
47(4) . . .
51(4) . . .
50(4) . . .
48(4) . . .
39.3(33) . . .
42.4(34) . . .
44(4) . . .
52(4) . . .
42.0(34) . . .
47(4) . . .
43(4) . . .
44(4) . . .
42.2(34) . . .
50(4) . . .
53(4) . . .
43.4(34) . . .
49(4) . . .
39.0(34) . . .
36.0(32) . . .
46(4) . . .
42.0(34) . . .
45(4) . . .
47(4) . . .
48(4) . . .
56(4) . . .
54(4) . . .
57(4) . . .
47(4) . . .
49(4) . . .
55(4) . . .
52(4) . . .
40.5(34) . . .
47(4) . . .
43.1(34) . . .
46(4) . . .
48(4) . . .
44(4) . . .
47(4) . . .
48(4) . . .
46(4) . . .
49(4) . . .
55(4) . . .
50(4) . . .
49(4) . . .
42.2(35) . . .
36.1(34) . . .
46(4) . . .
47(4) . . .
41.4(34) . . .
38.6(34) . . .
43(4) . . .
41.5(33) . . .
49(4) . . .
51(4) . . .
46(4) . . .
42(4) . . .
48(4) . . .
37.8(32) . . .
45(4) . . .
43.3(34) . . .
50(4) . . .
51(4) . . .
48(4) . . .
42.6(34) . . .
48(4) . . .
46(4) . . .
51(4) . . .
53(4) . . .
44(4) . . .
45(4) . . .
39.8(35) . . .
38.0(33) . . .
37.4(32) . . .
47(4) . . .
41(4) . . .
46(4) . . .
49(4) . . .
51(4) . . .
51(4) . . .
57(4) . . .
40.8(34) . . .
41.8(35) . . .
42.7(34) . . .
46(4) . . .
36.4(33) . . .
39.0(34) . . .
45.1(35) . . .
48(4) . . .
37.2(34) . . .
42(4) . . .
41.3(34) . . .
58(4) . . .
41.9(33) . . .
46(4) . . .
44(4) . . .
46(4) . . .
50(4) . . .
47(4) . . .
43.2(34) . . .
44(4) . . .
36.9(32) . . .
39.7(32) . . .
47(4) . . .
47(4) . . .
43(4) . . .
44(4) . . .
50(4) . . .
39.8(33) . . .
36.2(34) . . .
39(4) . . .
42.4(35) . . .
40.0(33) . . .
43.3(35) . . .
37.9(33) . . .
47(4) . . .
48(4) . . .
45(4) . . .
46(4) . . .
49(4) . . .
39.8(35) . . .
41(4) . . .
48(4) . . .
49(4) . . .
52(4) . . .
48(4) . . .
42.8(34) . . .
43.3(35) . . .
52(4) . . .
42(4) . . .
53(4) . . .
40.6(33) . . .
44.0(35) . . .
46(4) . . .
40.4(34) . . .
53(4) . . .
53(4) . . .
52(4) . . .
48(4) . . .
44(4) . . .
45(4) . . .
39.8(34) . . .
36.3(31) . . .
39.3(34) . . .
37.7(34) . . .
49(4) . . .
47(4) . . .
44(4) . . .
45(4) . . .
42(4) . . .
46(4) . . .
37.7(31) . . .
41.3(35) . . .
36.4(35) . . .
46(4) . . .
40.3(33) . . .
47(4) . . .
38.4(32) . . .
33.2(29) . . .
54(4) . . .
52(4) . . .
40.4(34) . . .
37.9(32) . . .
57(4) . . .
44(4) . . .
44(4) . . .
49(4) . . .
51(4) . . .
46(4) . . .
44(4) . . .
48(4) . . .
49(4) . . .
46(4) . . .
34.8(32) . . .
36.7(33) . . .
42.3(34) . . .
39.7(33) . . .
44(4) . . .
48(4) . . .
41(4) . . .
46(4) . . .
49(4) . . .
42.7(34) . . .
42(4) . . .
34.3(31) . . .
40.6(33) . . .
39.8(33) . . .
48(4) . . .
45(4) . . .
47(4) . . .
43.0(35) . . .
44.0(34) . . .
51(4) . . .
48(4) . . .
52(4) . . .
52(4) . . .
55(4) . . .
36.4(32) . . .
42(4) . . .
41.6(35) . . .
40.3(33) . . .
46(4) . . .
45(4) . . .
46(4) . . .
43(4) . . .
46(4) . . .
36.0(31) . . .
51(4) . . .
42.5(35) . . .
34.3(30) . . .
52(4) . . .
42.6(34) . . .
40.2(34) . . .
41.2(35) . . .
46(4) . . .
44.4(35) . . .
40.7(33) . . .
40.5(35) . . .
45(4) . . .
54(4) . . .
52(4) . . .
47(4) . . .
45(4) . . .
48(4) . . .
41.8(33) . . .
41.5(34) . . .
50(4) . . .
57(4) . . .
50(4) . . .
51(4) . . .
48(4) . . .
48(4) . . .
45(4) . . .
46(4) . . .
41.8(34) . . .
39.6(33) . . .
44.5(34) . . .
46(4) . . .
41.7(35) . . .
44(4) . . .
45(4) . . .
48(4) . . .
49(4) . . .
50(4) . . .
49(4) . . .
43.0(34) . . .
37.8(32) . . .
50(4) . . .
50(4) . . .
48(4) . . .
45.7(35) . . .
45(4) . . .
35.7(32) . . .
36.9(32) . . .
42.9(34) . . .
37.9(32) . . .
47(4) . . .
50(4) . . .
51(4) . . .
46(4) . . .
46(4) . . .
47(4) . . .
49(4) . . .
43.1(34) . . .
43.6(34) . . .
44.9(34) . . .
50(4) . . .
55(4) . . .
50(4) . . .
44(4) . . .
40.6(35) . . .
42(4) . . .
50(4) . . .
49(4) . . .
50(4) . . .
53(4) . . .
49(4) . . .
51(4) . . .
48(4) . . .
38.0(32) . . .
50(4) . . .
35.1(31) . . .
38.1(34) . . .
43(4) . . .
46(4) . . .
41(4) . . .
42.1(34) . . .
49(4) . . .
40.6(33) . . .
47(4) . . .
39(4) . . .
50(4) . . .
46(4) . . .
48(4) . . .
55(4) . . .
36.6(33) . . .
47(4) . . .
42.4(35) . . .
40.9(33) . . .
51(4) . . .
38.4(32) . . .
38.7(35) . . .
49(4) . . .
46(4) . . .
53(4) . . .
52(4) . . .
48(4) . . .
52(4) . . .
36.1(31) . . .
41.9(34) . . .
55(4) . . .
50(4) . . .
45(4) . . .
44.4(35) . . .
39.8(33) . . .
40.1(33) . . .
46(4) . . .
49(4) . . .
36.5(31) . . .
42.0(34) . . .
43.2(35) . . .
59(4) . . .
47(4) . . .
46(4) . . .
49(4) . . .
47(4) . . .
48(4) . . .
47(4) . . .
45.0(35) . . .
38.5(33) . . .
47(4) . . .
58(4) . . .
49(4) . . .
50(4) . . .
47(4) . . .
44(4) . . .
40.6(33) . . .
46(4) . . .
57(4) . . .
55(4) . . .
50(4) . . .
41.8(34) . . .
44(4) . . .
48(4) . . .
41(4) . . .
45(4) . . .
41.3(33) . . .
42.2(35) . . .
40.3(33) . . .
38.3(35) . . .
45(4) . . .
44.6(35) . . .
56(4) . . .
42.7(34) . . .
46(4) . . .
50(4) . . .
35.7(31) . . .
54(4) . . .
43.0(34) . . .
48(4) . . .
38.4(33) . . .
48(4) . . .
48(4) . . .
43.0(34) . . .
44.6(35) . . .
37.3(32) . . .
42.7(34) . . .
48(4) . . .
39.3(33) . . .
43(4) . . .
43(4) . . .
48(4) . . .
41.1(34) . . .
45(4) . . .
44.0(34) . . .
51(4) . . .
39.3(34) . . .
41.0(33) . . .
40.1(34) . . .
43(4) . . .
41(4) . . .
36.3(32) . . .
43.7(34) . . .
36.7(32) . . .
43(4) . . .
53(4) . . .
39.8(33) . . .
43.7(35) . . .
49(4) . . .
43(4) . . .
50(4) . . .
50(4) . . .
53(4) . . .
54(4) . . .
46(4) . . .
38.4(35) . . .
39.6(34) . . .
42.6(34) . . .
35.0(31) . . .
51(4) . . .
44(4) . . .
50(4) . . .
43.3(34) . . .
44(4) . . .
42(4) . . .
40.6(34) . . .
42.9(34) . . .
45(4) . . .
47(4) . . .
40.1(33) . . .
49(4) . . .
43.2(34) . . .
50(4) . . .
41.2(34) . . .
42(4) . . .
48(4) . . .
55(4) . . .
41.2(33) . . .
39.0(32) . . .
42(4) . . .
36.2(34) . . .
43.2(34) . . .
39.2(32) . . .
43.8(35) . . .
57(4) . . .
42(4) . . .
41.5(34) . . .
45(4) . . .
42(4) . . .
45(4) . . .
51(4) . . .
59(4) . . .
56(4) . . .
48(4) . . .
46(4) . . .
41.4(35) . . .
46(4) . . .
47(4) . . .
45(4) . . .
48(4) . . .
51(4) . . .
39.0(32) . . .
45(4) . . .
49(4) . . .
48(4) . . .
51(4) . . .
45(4) . . .
49(4) . . .
40(4) . . .
45(4) . . .
50(4) . . .
52(4) . . .
35.3(31) . . .
35.3(34) . . .
46(4) . . .
54(4) . . .
50(4) . . .
44(4) . . .
47(4) . . .
44(4) . . .
59(4) . . .
46(4) . . .
53(4) . . .
45(4) . . .
47(4) . . .
44.1(34) . . .
47(4) . . .
45(4) . . .
39.0(34) . . .
51(4) . . .
52(4) . . .
41.0(33) . . .
38.1(33) . . .
37.3(33) . . .
48(4) . . .
37.7(33) . . .
48(4) . . .
42.1(35) . . .
45(4) . . .
41.4(34) . . .
46(4) . . .
43.0(34) . . .
54(4) . . .
44(4) . . .
46(4) . . .
38.2(33) . . .
46(4) . . .
48(4) . . .
52(4) . . .
51(4) . . .
46(4) . . .
48(4) . . .
45(4) . . .
44(4) . . .
48(4) . . .
49(4) . . .
45(4) . . .
43(4) . . .
41(4) . . .
46(4) . . .
44.2(35) . . .
47(4) . . .
48(4) . . .
45(4) . . .
66(4) . . .
40.7(34) . . .
50(4) . . .
32.3(32) . . .
39(4) . . .
50(4) . . .
52(4) . . .
49(4) . . .
47(4) . . .
38.4(32) . . .
44.0(34) . . .
54(4) . . .
39.3(34) . . .
40(4) . . .
43.3(35) . . .
51(4) . . .
45(4) . . .
40.3(35) . . .
46(4) . . .
44.4(35) . . .
48(4) . . .
52(4) . . .
49(4) . . .
50(4) . . .
55(4) . . .
47(4) . . .
48(4) . . .
48(4) . . .
47(4) . . .
42.6(35) . . .
40.4(33) . . .
56(4) . . .
48(4) . . .
42.7(34) . . .
44.6(35) . . .
39.4(32) . . .
52(4) . . .
36.9(33) . . .
46(4) . . .
42.4(34) . . .
44.6(34) . . .
51(4) . . .
45(4) . . .
44(4) . . .
41.9(35) . . .
43.5(34) . . .
57(4) . . .
54(4) . . .
46(4) . . .
43.5(35) . . .
42.0(34) . . .
41.0(35) . . .
50(4) . . .
47(4) . . .
51(4) . . .
47(4) . . .
40.0(34) . . .
44(4) . . .
43.8(35) . . .
49(4) . . .
41.5(34) . . .
38.7(33) . . .
51(4) . . .
40.3(34) . . .
48(4) . . .
41.1(34) . . .
47(4) . . .
47(4) . . .
53(4) . . .
41.0(33) . . .
44.5(35) . . .
41.8(34) . . .
50(4) . . .
39.8(34) . . .
40.9(34) . . .
51(4) . . .
50(4) . . .
52(4) . . .
51(4) . . .
55(4) . . .
50(4) . . .
56(4) . . .
51(4) . . .
42.3(34) . . .
48(4) . . .
46(4) . . .
47(4) . . .
46(4) . . .
43.5(35) . . .
47(4) . . .
44(4) . . .
41(4) . . .
44(4) . . .
39.6(34) . . .
45.1(35) . . .
41.0(34) . . .
45(4) . . .
49(4) . . .
46(4) . . .
44.9(35) . . .
43.4(34) . . .
41.1(34) . . .
42.5(35) . . .
49(4) . . .
45.0(35) . . .
43.5(35) . . .
47(4) . . .
37.9(33) . . .
49(4) . . .
55(4) . . .
47(4) . . .
53(4) . . .
36.9(33) . . .
50(4) . . .
37.2(32) . . .
48(4) . . .
50(4) . . .
43(4) . . .
43.4(34) . . .
39.9(33) . . .
48(4) . . .
47(4) . . .
38.2(33) . . .
56(4) . . .
47(4) . . .
44(4) . . .
39.7(34) . . .
46(4) . . .
43.5(35) . . .
45(4) . . .
44(4) . . .
38.3(33) . . .
34.8(31) . . .
50(4) . . .
46(4) . . .
44.1(35) . . .
40.5(34) . . .
49(4) . . .
50(4) . . .
39.5(35) . . .
43.5(35) . . .
53(4) . . .
49(4) . . .
42.3(34) . . .
39(4) . . .
55(4) . . .
54(4) . . .
42.2(33) . . .
47(4) . . .
44.3(35) . . .
50(4) . . .
53(4) . . .
42.5(34) . . .
42.1(34) . . .
40.9(34) . . .
45(4) . . .
47(4) . . .
50(4) . . .
43.4(34) . . .
54(4) . . .
37.5(32) . . .
42.3(35) . . .
51(4) . . .
46(4) . . .
39.7(34) . . .
40(4) . . .
41.5(35) . . .
47(4) . . .
48(4) . . .
44(4) . . .
47(4) . . .
48(4) . . .
50(4) . . .
44(4) . . .
42(4) . . .
48(4) . . .
50(4) . . .
41.0(33) . . .
46(4) . . .
47(4) . . .
51(4) . . .
43.1(34) . . .
44.1(35) . . .
43(4) . . .
53(4) . . .
43.0(34) . . .
38.9(33) . . .
44.4(35) . . .
42.7(35) . . .
45(4) . . .
39.9(34) . . .
42.8(35) . . .
49(4) . . .
40.1(34) . . .
45(4) . . .
48(4) . . .
47(4) . . .
47(4) . . .
48(4) . . .
48(4) . . .
49(4) . . .
48(4) . . .
49(4) . . .
46(4) . . .
42(4) . . .
43(4) . . .
38.4(32) . . .
42.5(34) . . .
36.7(32) . . .
48(4) . . .
46(4) . . .
55(4) . . .
56(4) . . .
42.5(34) . . .
47(4) . . .
47(4) . . .
39.8(33) . . .
37.1(33) . . .
39.6(34) . . .
39.4(34) . . .
39.5(34) . . .
40.2(33) . . .
39.7(33) . . .
47(4) . . .
47(4) . . .
40.2(34) . . .
43.7(35) . . .
47(4) . . .
45(4) . . .
45(4) . . .
40.9(34) . . .
41.6(34) . . .
44(4) . . .
39.8(34) . . .
48(4) . . .
48(4) . . .
39.9(33) . . .
42(4) . . .
49(4) . . .
54(4) . . .
48(4) . . .
39.9(33) . . .
41.7(34) . . .
46(4) . . .
49(4) . . .
46(4) . . .
42.3(34) . . .
45(4) . . .
46(4) . . .
49(4) . . .
45.0(35) . . .
49(4) . . .
48(4) . . .
44(4) . . .
35.9(33) . . .
38.3(33) . . .
48(4) . . .
42(4) . . .
45(4) . . .
48(4) . . .
39.8(33) . . .
43.8(35) . . .
50(4) . . .
39.7(35) . . .
47(4) . . .
49(4) . . .
43.0(34) . . .
46(4) . . .
40(4) . . .
50(4) . . .
42.2(34) . . .
41.3(34) . . .
51(4) . . .
44(4) . . .
49(4) . . .
39.4(33) . . .
55(4) . . .
50(4) . . .
44(4) . . .
44(4) . . .
35.3(31) . . .
36.1(32) . . .
43(4) . . .
48(4) . . .
43.3(34) . . .
49(4) . . .
42.3(35) . . .
45(4) . . .
47(4) . . .
50(4) . . .
46(4) . . .
43(4) . . .
40(4) . . .
41(4) . . .
42.3(35) . . .
38.7(32) . . .
40.0(34) . . .
44(4) . . .
35.5(32) . . .
41.2(33) . . .
52(4) . . .
41.7(34) . . .
43(4) . . .
43.7(35) . . .
42.9(34) . . .
44.7(34) . . .
55(4) . . .
46(4) . . .
47(4) . . .
46(4) . . .
38.5(32) . . .
37.9(34) . . .
39(4) . . .
44(4) . . .
35.5(31) . . .
49(4) . . .
40.5(35) . . .
48(4) . . .
44(4) . . .
43.1(34) . . .
42.3(35) . . .
44(4) . . .
42.6(35) . . .
42.2(34) . . .
47(4) . . .
47(4) . . .
43(4) . . .
46(4) . . .
44.2(34) . . .
35.1(31) . . .
41.1(34) . . .
44(4) . . .
43.4(35) . . .
54(4) . . .
43.9(34) . . .
48(4) . . .
45(4) . . .
46(4) . . .
36.4(31) . . .
43.7(35) . . .
49(4) . . .
52(4) . . .
46(4) . . .
40.2(33) . . .
42.4(34) . . .
52(4) . . .
50(4) . . .
43(4) . . .
37.7(32) . . .
39.6(32) . . .
41.3(34) . . .
43(4) . . .
44(4) . . .
46(4) . . .
51(4) . . .
50(4) . . .
46(4) . . .
49(4) . . .
53(4) . . .
38.8(34) . . .
40.9(33) . . .
43(4) . . .
40.8(34) . . .
38.5(32) . . .
35.2(32) . . .
48(4) . . .
46(4) . . .
47(4) . . .
33.7(30) . . .
44(4) . . .
36.1(32) . . .
48(4) . . .
52(4) . . .
39.6(34) . . .
38.8(33) . . .
48(4) . . .
47(4) . . .
46(4) . . .
46(4) . . .
47(4) . . .
40(4) . . .
51(4) . . .
52(4) . . .
51(4) . . .
42.1(34) . . .
45(4) . . .
42.4(35) . . .
37.4(32) . . .
37.9(32) . . .
49(4) . . .
47(4) . . .
39.7(34) . . .
50(4) . . .
45.1(34) . . .
44(4) . . .
43(4) . . .
49(4) . . .
43.0(34) . . .
44.7(35) . . .
43(4) . . .
41(4) . . .
42(4) . . .
38.2(32) . . .
41.7(34) . . .
43.9(35) . . .
41(4) . . .
33.7(32) . . .
42.5(34) . . .
50(4) . . .
37.4(33) . . .
50(4) . . .
49(4) . . .
35.3(31) . . .
40.6(33) . . .
47(4) . . .
48(4) . . .
37.9(33) . . .
46(4) . . .
51(4) . . .
42(4) . . .
42(4) . . .
48(4) . . .
52(4) . . .
41.9(34) . . .
43(4) . . .
45(4) . . .
49(4) . . .
46(4) . . .
50(4) . . .
51(4) . . .
56(4) . . .
44(4) . . .
41.9(34) . . .
48(4) . . .
42.2(34) . . .
33.2(32) . . .
45(4) . . .
44.0(35) . . .
50(4) . . .
39.6(33) . . .
48(4) . . .
37.0(33) . . .
39.6(32) . . .
43(4) . . .
43(4) . . .
40.3(34) . . .
42.3(35) . . .
36.6(31) . . .
42.6(34) . . .
44(4) . . .
44(4) . . .
42.8(34) . . .
40.5(33) . . .
51(4) . . .
45(4) . . .
48(4) . . .
54(4) . . .
46(4) . . .
39.4(33) . . .
44(4) . . .
50(4) . . .
44.3(34) . . .
41.7(33) . . .
39.4(34) . . .
49(4) . . .
57(4) . . .
45.1(35) . . .
42.7(35) . . .
50(4) . . .
41.5(34) . . .
41.3(35) . . .
37.3(32) . . .
38.8(33) . . .
40.7(34) . . .
34.5(33) . . .
37.3(33) . . .
48(4) . . .
50(4) . . .
44(4) . . .
39.2(34) . . .
48(4) . . .
39.5(33) . . .
45(4) . . .
50(4) . . .
49(4) . . .
39.7(33) . . .
52(4) . . .
43(4) . . .
43.1(33) . . .
52(4) . . .
53(4) . . .
49(4) . . .
38.4(33) . . .
55(4) . . .
44(4) . . .
45.7(35) . . .
53(4) . . .
42.8(34) . . .
42(4) . . .
39.4(35) . . .
42.7(34) . . .
42.0(34) . . .
51(4) . . .
35.8(32) . . .
43(4) . . .
43.1(35) . . .
50(4) . . .
38.1(33) . . .
49(4) . . .
43(4) . . .
48(4) . . .
52(4) . . .
44(4) . . .
39(4) . . .
34.9(31) . . .
47(4) . . .
51(4) . . .
51(4) . . .
41.0(33) . . .
40.3(33) . . .
50(4) . . .
35.6(33) . . .
38.2(33) . . .
50(4) . . .
48(4) . . .
48(4) . . .
48(4) . . .
43.2(34) . . .
44(4) . . .
40.1(34) . . .
45(4) . . .
46(4) . . .
40.2(32) . . .
38.9(33) . . .
42.2(35) . . .
37.1(32) . . .
46(4) . . .
44(4) . . .
41.6(34) . . .
50(4) . . .
45.9(35) . . .
41(4) . . .
50(4) . . .
45(4) . . .
41.9(34) . . .
39.0(32) . . .
50(4) . . .
38.0(33) . . .
41.5(34) . . .
43.6(35) . . .
41.7(34) . . .
46(4) . . .
49(4) . . .
44(4) . . .
47(4) . . .
48(4) . . .
37.8(35) . . .
49(4) . . .
46(4) . . .
45(4) . . .
44(4) . . .
46(4) . . .
45(4) . . .
47(4) . . .
37.2(32) . . .
51(4) . . .
51(4) . . .
55(4) . . .
39.5(32) . . .
50(4) . . .
47(4) . . .
46(4) . . .
45(4) . . .
43(4) . . .
41.6(34) . . .
42.2(34) . . .
42.2(35) . . .
47(4) . . .
48(4) . . .
43.0(34) . . .
41.0(35) . . .
37.6(35) . . .
57(4) . . .
50(4) . . .
47(4) . . .
43(4) . . .
52(4) . . .
51(4) . . .
39.2(33) . . .
40.4(33) . . .
35.6(31) . . .
48(4) . . .
50(4) . . .
50(4) . . .
46(4) . . .
45(4) . . .
43(4) . . .
44.1(34) . . .
49(4) . . .
39.0(33) . . .
38.3(33) . . .
45(4) . . .
42(4) . . .
43.5(35) . . .
42.0(35) . . .
48(4) . . .
48(4) . . .
37.2(33) . . .
43.8(35) . . .
45(4) . . .
46(4) . . .
43(4) . . .
44(4) . . .
44.2(35) . . .
44.2(35) . . .
48(4) . . .
43(4) . . .
40.3(35) . . .
44(4) . . .
39.3(33) . . .
44(4) . . .
41.0(34) . . .
37.3(31) . . .
49(4) . . .
41.5(34) . . .
50(4) . . .
52(4) . . .
48(4) . . .
44.3(34) . . .
42.1(34) . . .
43(4) . . .
44(4) . . .
39.3(33) . . .
40.9(33) . . .
52(4) . . .
36.0(34) . . .
43(4) . . .
46(4) . . .
52(4) . . .
42.7(35) . . .
47(4) . . .
44(4) . . .
44(4) . . .
42.8(34) . . .
47(4) . . .
55(4) . . .
41.9(35) . . .
35.8(31) . . .
50(4) . . .
34.9(31) . . .
49(4) . . .
44.5(35) . . .
46(4) . . .
43.5(34) . . .
57(4) . . .
48(4) . . .
49(4) . . .
44(4) . . .
41.9(34) . . .
48(4) . . .
36.5(32) . . .
40.7(34) . . .
42.4(34) . . .
43(4) . . .
46(4) . . .
39.0(33) . . .
45(4) . . .
44(4) . . .
40.6(33) . . .
51(4) . . .
39.1(33) . . .
51(4) . . .
43.1(35) . . .
50(4) . . .
38.0(31) . . .
49(4) . . .
54(4) . . .
53(4) . . .
34.9(31) . . .
54(4) . . .
52(4) . . .
42(4) . . .
48(4) . . .
45(4) . . .
50(4) . . .
45(4) . . .
44.5(35) . . .
49(4) . . .
37.0(33) . . .
37.7(34) . . .
49(4) . . .
39.4(34) . . .
40.5(33) . . .
47(4) . . .
53(4) . . .
47(4) . . .
40.7(33) . . .
46(4) . . .
50(4) . . .
52(4) . . .
46(4) . . .
50(4) . . .
56(4) . . .
48(4) . . .
46(4) . . .
40.8(34) . . .
49(4) . . .
44.0(35) . . .
40.4(34) . . .
43(4) . . .
52(4) . . .
51(4) . . .
55(4) . . .
61(4) . . .
53(4) . . .
45(4) . . .
35.6(31) . . .
47(4) . . .
48(4) . . .
37.4(34) . . .
41(4) . . .
36.8(32) . . .
48(4) . . .
50(4) . . .
45(4) . . .
42(4) . . .
44.3(34) . . .
46(4) . . .
44(4) . . .
46(4) . . .
42.5(34) . . .
50(4) . . .
49(4) . . .
48(4) . . .
42(4) . . .
42.0(34) . . .
46(4) . . .
51(4) . . .
48(4) . . .
38.0(34) . . .
34.6(31) . . .
33.3(30) . . .
38.5(34) . . .
47(4) . . .
58(4) . . .
41.1(34) . . .
47(4) . . .
46(4) . . .
50(4) . . .
46(4) . . .
37.0(32) . . .
49(4) . . .
39.6(33) . . .
40(4) . . .
40.7(34) . . .
43.2(34) . . .
42.4(34) . . .
48(4) . . .
43(4) . . .
57(4) . . .
50(4) . . .
39.5(33) . . .
47(4) . . .
38.0(31) . . .
42.5(34) . . .
41.9(34) . . .
45(4) . . .
50(4) . . .
46(4) . . .
46(4) . . .
52(4) . . .
45.0(35) . . .
50(4) . . .
51(4) . . .
51(4) . . .
51(4) . . .
37.1(33) . . .
39(4) . . .
44(4) . . .
47(4) . . .
52(4) . . .
43(4) . . .
38.5(33) . . .
43.8(34) . . .
40.1(35) . . .
38.1(32) . . .
45(4) . . .
36.8(33) . . .
48(4) . . .
46(4) . . .
43.4(35) . . .
55(4) . . .
43(4) . . .
36.2(32) . . .
51(4) . . .
43.7(34) . . .
37.3(33) . . .
35.5(33) . . .
40(4) . . .
45.2(35) . . .
35.1(31) . . .
45(4) . . .
46(4) . . .
39.2(33) . . .
44.6(35) . . .
43.8(34) . . .
50(4) . . .
41(4) . . .
40.0(33) . . .
51(4) . . .
42.1(34) . . .
43.2(35) . . .
43(4) . . .
42(4) . . .
34.0(31) . . .
43.3(35) . . .
43(4) . . .
46(4) . . .
38.9(34) . . .
43.3(34) . . .
49(4) . . .
42(4) . . .
37.8(34) . . .
41.0(35) . . .
37.8(33) . . .
50(4) . . .
47(4) . . .
50(4) . . .
43(4) . . .
43.4(34) . . .
41.9(34) . . .
46(4) . . .
35.1(33) . . .
52(4) . . .
43.1(34) . . .
36.9(32) . . .
39.8(35) . . .
53(4) . . .
50(4) . . .
46(4) . . .
52(4) . . .
43(4) . . .
37.9(32) . . .
41.9(35) . . .
41.2(34) . . .
43(4) . . .
49(4) . . .
50(4) . . .
41.9(33) . . .
41.3(33) . . .
39.9(33) . . .
45(4) . . .
51(4) . . .
50(4) . . .
43.8(34) . . .
44.8(35) . . .
49(4) . . .
47(4) . . .
40.8(33) . . .
40.0(33) . . .
40.0(33) . . .
45(4) . . .
41.2(34) . . .
40.3(33) . . .
43.0(35) . . .
45(4) . . .
49(4) . . .
47(4) . . .
40.9(33) . . .
46(4) . . .
41.2(34) . . .
50(4) . . .
44(4) . . .
45(4) . . .
42.3(34) . . .
47(4) . . .
43(4) . . .
46(4) . . .
37.8(32) . . .
44(4) . . .
42(4) . . .
48(4) . . .
48(4) . . .
49(4) . . .
39.6(34) . . .
43(4) . . .
36.6(31) . . .
38.8(33) . . .
40.2(33) . . .
39.1(33) . . .
43(4) . . .
46(4) . . .
41.6(33) . . .
40.8(33) . . .
42(4) . . .
40.0(35) . . .
48(4) . . .
42.8(34) . . .
49(4) . . .
44(4) . . .
44(4) . . .
43(4) . . .
38.8(32) . . .
50(4) . . .
46(4) . . .
41(4) . . .
47(4) . . .
52(4) . . .
47(4) . . .
37.8(33) . . .
48(4) . . .
43.7(34) . . .
39.9(33) . . .
47(4) . . .
43.5(35) . . .
35.4(31) . . .
50(4) . . .
43.2(34) . . .
48(4) . . .
38(4) . . .
42(4) . . .
39.5(33) . . .
31.2(29) . . .
41.8(34) . . .
45(4) . . .
45(4) . . .
40(4) . . .
41.6(34) . . .
35.8(31) . . .
51(4) . . .
51(4) . . .
42.7(35) . . .
41.4(33) . . .
38.1(33) . . .
44(4) . . .
45(4) . . .
40.2(34) . . .
45.4(35) . . .
48(4) . . .
42(4) . . .
49(4) . . .
41.1(34) . . .
34.3(31) . . .
46(4) . . .
45(4) . . .
42(4) . . .
42(4) . . .
47(4) . . .
44(4) . . .
50(4) . . .
44.4(35) . . .
39.4(33) . . .
38.2(32) . . .
48(4) . . .
39.4(35) . . .
43.9(34) . . .
49(4) . . .
38.2(32) . . .
38.2(34) . . .
44(4) . . .
42(4) . . .
36.2(31) . . .
42.6(34) . . .
58(4) . . .
36.9(33) . . .
37(4) . . .
38.4(32) . . .
39.6(33) . . .
50(4) . . .
46(4) . . .
42.5(34) . . .
44.4(35) . . .
48(4) . . .
38.1(34) . . .
45(4) . . .
47(4) . . .
37.6(32) . . .
39.3(33) . . .
49(4) . . .
46(4) . . .
33.6(32) . . .
38.3(32) . . .
46(4) . . .
36.9(34) . . .
42(4) . . .
46(4) . . .
39.3(33) . . .
40.9(35) . . .
38.2(33) . . .
39.7(35) . . .
34.4(32) . . .
44.4(35) . . .
44(4) . . .
43(4) . . .
45(4) . . .
37.7(32) . . .
41.5(34) . . .
44.9(35) . . .
54(4) . . .
37.8(34) . . .
41(4) . . .
35.0(31) . . .
36.2(32) . . .
36.2(34) . . .
37.5(33) . . .
41.2(34) . . .
41.5(34) . . .
50(4) . . .
52(4) . . .
37.2(34) . . .
43.8(35) . . .
45.7(35) . . .
38.1(31) . . .
50(4) . . .
46(4) . . .
50(4) . . .
43.9(35) . . .
47(4) . . .
43.9(35) . . .
62(4) . . .
49(4) . . .
45.3(35) . . .
38.4(33) . . .
38.8(33) . . .
50(4) . . .
39.5(32) . . .
47(4) . . .
49(4) . . .
44(4) . . .
47(4) . . .
42.8(35) . . .
51(4) . . .
40.2(34) . . .
41(4) . . .
46(4) . . .
40.3(33) . . .
49(4) . . .
51(4) . . .
46(4) . . .
51(4) . . .
44.2(35) . . .
45(4) . . .
40.6(34) . . .
42.8(35) . . .
51(4) . . .
46(4) . . .
48(4) . . .
46(4) . . .
53(4) . . .
42.4(34) . . .
43.8(35) . . .
35.7(32) . . .
44(4) . . .
45(4) . . .
52(4) . . .
40.7(33) . . .
42.8(35) . . .
48(4) . . .
56(4) . . .
48(4) . . .
45.2(35) . . .
54(4) . . .
43(4) . . .
40.6(34) . . .
43.8(35) . . .
40.0(32) . . .
45(4) . . .
49(4) . . .
47(4) . . .
43.8(34) . . .
37.5(33) . . .
42(4) . . .
46(4) . . .
49(4) . . .
40.8(33) . . .
45(4) . . .
45(4) . . .
45(4) . . .
49(4) . . .
43.7(34) . . .
39.4(32) . . .
36.3(34) . . .
32.8(32) . . .
37.8(33) . . .
33.7(32) . . .
47(4) . . .
59(4) . . .
48(4) . . .
45(4) . . .
46(4) . . .
42.0(34) . . .
37.7(34) . . .
42(4) . . .
45(4) . . .
45(4) . . .
45(4) . . .
42(4) . . .
37.7(34) . . .
42.2(35) . . .
40.5(34) . . .
46(4) . . .
44(4) . . .
37.4(32) . . .
40.1(33) . . .
42.1(34) . . .
37.3(32) . . .
56(4) . . .
40.9(33) . . .
45.1(35) . . .
43.1(34) . . .
53(4) . . .
45(4) . . .
48(4) . . .
51(4) . . .
48(4) . . .
50(4) . . .
39.3(35) . . .
47(4) . . .
48(4) . . .
47(4) . . .
40.3(35) . . .
34.7(33) . . .
35.0(33) . . .
44.0(35) . . .
46(4) . . .
51(4) . . .
42.1(34) . . .
45(4) . . .
40.0(33) . . .
57(4) . . .
51(4) . . .
45(4) . . .
52(4) . . .
46(4) . . .
41(4) . . .
38(4) . . .
44(4) . . .
47(4) . . .
51(4) . . .
51(4) . . .
45(4) . . .
37(4) . . .
40.9(33) . . .
42.1(33) . . .
49(4) . . .
48(4) . . .
46(4) . . .
52(4) . . .
42.0(34) . . .
52(4) . . .
47(4) . . .
48(4) . . .
38.9(32) . . .
38.4(32) . . .
39.8(33) . . .
49(4) . . .
44.2(35) . . .
49(4) . . .
36.2(31) . . .
42(4) . . .
44(4) . . .
43.0(34) . . .
41.0(33) . . .
43(4) . . .
47(4) . . .
53(4) . . .
52(4) . . .
45(4) . . .
46(4) . . .
39.0(35) . . .
45(4) . . .
55(4) . . .
40.4(33) . . .
42.0(34) . . .
42(4) . . .
46(4) . . .
38.5(33) . . .
40.8(34) . . .
44.0(35) . . .
45(4) . . .
48(4) . . .
41.2(35) . . .
43.9(35) . . .
32.5(31) . . .
39.4(34) . . .
38.6(33) . . .
45(4) . . .
47(4) . . .
40.7(34) . . .
44(4) . . .
40(4) . . .
53(4) . . .
37.9(32) . . .
44(4) . . .
37.0(33) . . .
44(4) . . .
47(4) . . .
43.1(34) . . .
47(4) . . .
48(4) . . .
37.6(32) . . .
33.2(29) . . .
35.4(32) . . .
47(4) . . .
48(4) . . .
50(4) . . .
44(4) . . .
38.5(32) . . .
38.0(33) . . .
39(4) . . .
36.7(31) . . .
36.0(31) . . .
43.7(34) . . .
50(4) . . .
40(4) . . .
50(4) . . .
47(4) . . .
43.1(35) . . .
39.2(34) . . .
42(4) . . .
43.5(34) . . .
55(4) . . .
51(4) . . .
39.0(32) . . .
50(4) . . .
51(4) . . .
44.3(35) . . .
44(4) . . .
32.5(30) . . .
44(4) . . .
41.3(34) . . .
38.4(32) . . .
33.0(31) . . .
40.0(34) . . .
44(4) . . .
47(4) . . .
47(4) . . .
41.2(34) . . .
34.3(32) . . .
48(4) . . .
47(4) . . .
43.5(34) . . .
45(4) . . .
42.8(34) . . .
40.0(34) . . .
38.6(34) . . .
47(4) . . .
47(4) . . .
43(4) . . .
44(4) . . .
33.9(30) . . .
30.4(29) . . .
48(4) . . .
40(4) . . .
50(4) . . .
58(4) . . .
42.3(34) . . .
48(4) . . .
43(4) . . .
38.5(32) . . .
40.6(33) . . .
42.8(34) . . .
43.9(34) . . .
45(4) . . .
43(4) . . .
47(4) . . .
43(4) . . .
45(4) . . .
46(4) . . .
34.8(31) . . .
45.7(35) . . .
47(4) . . .
43(4) . . .
41.0(34) . . .
48(4) . . .
39.8(33) . . .
36.1(31) . . .
40.9(34) . . .
43(4) . . .
40(4) . . .
43.2(34) . . .
52(4) . . .
40.4(34) . . .
36.3(32) . . .
43.4(35) . . .
43.9(34) . . .
44(4) . . .
44(4) . . .
41.2(34) . . .
41.1(35) . . .
41.1(34) . . .
48(4) . . .
44(4) . . .
38.3(33) . . .
49(4) . . .
57(4) . . .
44(4) . . .
42.7(35) . . .
39.7(34) . . .
39.7(33) . . .
53(4) . . .
54(4) . . .
50(4) . . .
41.5(34) . . .
39.1(33) . . .
49(4) . . .
42.5(35) . . .
37.3(33) . . .
38.9(32) . . .
48(4) . . .
53(4) . . .
50(4) . . .
40(4) . . .
38.8(33) . . .
45(4) . . .
42.3(34) . . .
51(4) . . .
47(4) . . .
42(4) . . .
48(4) . . .
43.8(35) . . .
38.5(34) . . .
44(4) . . .
50(4) . . .
41.0(33) . . .
40.9(34) . . .
42(4) . . .
44(4) . . .
52(4) . . .
42.7(34) . . .
43.3(34) . . .
52(4) . . .
43(4) . . .
50(4) . . .
48(4) . . .
49(4) . . .
40.4(35) . . .
43(4) . . .
47(4) . . .
51(4) . . .
43(4) . . .
39(4) . . .
41(4) . . .
44.2(35) . . .
50(4) . . .
39(4) . . .
37.8(34) . . .
36.4(32) . . .
39.0(33) . . .
37.1(32) . . .
51(4) . . .
40.3(33) . . .
35.1(30) . . .
44.3(34) . . .
44(4) . . .
35.6(30) . . .
41(4) . . .
39.9(35) . . .
47(4) . . .
39.8(33) . . .
39.0(33) . . .
49(4) . . .
45(4) . . .
43.0(35) . . .
44(4) . . .
39.4(34) . . .
40(4) . . .
36.9(33) . . .
43(4) . . .
44.7(35) . . .
49(4) . . .
39.0(35) . . .
36.2(32) . . .
38.6(33) . . .
42.3(35) . . .
46(4) . . .
49(4) . . .
39.1(33) . . .
46(4) . . .
44(4) . . .
38.7(35) . . .
37.8(35) . . .
39.4(34) . . .
52(4) . . .
36.4(32) . . .
37.1(31) . . .
48(4) . . .
39.0(34) . . .
40.7(33) . . .
46(4) . . .
40.6(34) . . .
40.3(34) . . .
44(4) . . .
46(4) . . .
48(4) . . .
42(4) . . .
40.4(34) . . .
46(4) . . .
40.7(33) . . .
48(4) . . .
41(4) . . .
40.2(35) . . .
54(4) . . .
51(4) . . .
43.3(35) . . .
49(4) . . .
45(4) . . .
43.2(34) . . .
46(4) . . .
40.7(35) . . .
36.7(33) . . .
50(4) . . .
32.2(29) . . .
33.2(33) . . .
40.9(34) . . .
45(4) . . .
50(4) . . .
46(4) . . .
41(4) . . .
38.5(35) . . .
37.3(34) . . .
51(4) . . .
44.6(35) . . .
42.2(34) . . .
43(4) . . .
35.5(32) . . .
36.4(32) . . .
49(4) . . .
47(4) . . .
46(4) . . .
36.8(34) . . .
41.9(35) . . .
50(4) . . .
40.3(33) . . .
40.2(33) . . .
36.4(33) . . .
39.0(34) . . .
38.1(32) . . .
40.5(33) . . .
50(4) . . .
41(4) . . .
55(4) . . .
44.1(34) . . .
46(4) . . .
43(4) . . .
41.7(33) . . .
41.9(33) . . .
47(4) . . .
36.4(32) . . .
41(4) . . .
48(4) . . .
51(4) . . .
42.0(33) . . .
46(4) . . .
47(4) . . .
42(4) . . .
45(4) . . .
51(4) . . .
46(4) . . .
39(4) . . .
48(4) . . .
40.2(33) . . .
51(4) . . .
48(4) . . .
43(4) . . .
32.1(30) . . .
38.0(32) . . .
46(4) . . .
47(4) . . .
50(4) . . .
46(4) . . .
47(4) . . .
35.6(31) . . .
45(4) . . .
42(4) . . .
38.1(33) . . .
39.5(33) . . .
41.2(33) . . .
44(4) . . .
45(4) . . .
37.3(32) . . .
37.3(32) . . .
43.1(34) . . .
49(4) . . .
40.9(34) . . .
44.7(35) . . .
35.6(31) . . .
44.2(35) . . .
43(4) . . .
40.5(34) . . .
37.1(32) . . .
40.5(34) . . .
41.5(34) . . .
38.1(35) . . .
34.8(32) . . .
45(4) . . .
42.1(34) . . .
44.0(34) . . .
50(4) . . .
38.0(32) . . .
40.5(33) . . .
40.2(33) . . .
46(4) . . .
36(4) . . .
35.0(32) . . .
40.7(33) . . .
43.3(34) . . .
41.7(34) . . .
41(4) . . .
41.8(34) . . .
55(4) . . .
32.6(30) . . .
36.6(32) . . .
46(4) . . .
39.6(33) . . .
40.2(33) . . .
33.9(32) . . .
45(4) . . .
42.8(35) . . .
50(4) . . .
45(4) . . .
41.4(34) . . .
45(4) . . .
36.4(32) . . .
43(4) . . .
37.5(32) . . .
43.3(34) . . .
40.9(34) . . .
37.9(35) . . .
44(4) . . .
33.8(30) . . .
46(4) . . .
45(4) . . .
40.1(35) . . .
38.2(34) . . .
43.2(34) . . .
36.2(31) . . .
40.2(34) . . .
43(4) . . .
42(4) . . .
37.4(32) . . .
48(4) . . .
46(4) . . .
44(4) . . .
45(4) . . .
50(4) . . .
50(4) . . .
42.2(35) . . .
46(4) . . .
42.5(34) . . .
36.4(31) . . .
36.2(33) . . .
37.4(33) . . .
52(4) . . .
49(4) . . .
46(4) . . .
50(4) . . .
40.6(35) . . .
55(4) . . .
40.8(33) . . .
43.1(35) . . .
32.9(31) . . .
38.8(35) . . .
39.6(34) . . .
47(4) . . .
37.9(32) . . .
41(4) . . .
46(4) . . .
49(4) . . .
40.9(34) . . .
33.8(30) . . .
41.7(35) . . .
39.0(34) . . .
44(4) . . .
45(4) . . .
42.8(34) . . .
44(4) . . .
38.5(33) . . .
40.4(34) . . .
50(4) . . .
39(4) . . .
37.1(34) . . .
44(4) . . .
47(4) . . .
37.9(32) . . .
43.0(34) . . .
45(4) . . .
35.2(31) . . .
41.4(34) . . .
42.2(34) . . .
50(4) . . .
46(4) . . .
33.7(30) . . .
41.2(34) . . .
42.2(34) . . .
50(4) . . .
35.7(32) . . .
37.2(33) . . .
39.7(33) . . .
53(4) . . .
43.5(35) . . .
48(4) . . .
48(4) . . .
43.1(34) . . .
42.7(34) . . .
38.1(33) . . .
38.2(34) . . .
44(4) . . .
33.7(31) . . .
49(4) . . .
45(4) . . .
40.2(35) . . .
55(4) . . .
45.1(35) . . .
52(4) . . .
51(4) . . .
43(4) . . .
37.8(32) . . .
41.3(33) . . .
40.4(33) . . .
43.2(35) . . .
37.7(34) . . .
33.9(31) . . .
36.5(32) . . .
46(4) . . .
36.0(32) . . .
43(4) . . .
36.7(32) . . .
45(4) . . .
45(4) . . .
36.6(33) . . .
40(4) . . .
45(4) . . .
44.7(35) . . .
41.1(34) . . .
46(4) . . .
42(4) . . .
48(4) . . .
41.5(33) . . .
40.7(34) . . .
44(4) . . .
47(4) . . .
47(4) . . .
41.5(34) . . .
46(4) . . .
31.5(31) . . .
36.9(33) . . .
38.8(34) . . .
43.5(34) . . .
44.9(35) . . .
47(4) . . .
42(4) . . .
40.8(33) . . .
42.1(34) . . .
31.4(30) . . .
31.5(32) . . .
40.4(34) . . .
42.1(34) . . .
51(4) . . .
36.2(31) . . .
39(4) . . .
30.9(30) . . .
36.8(31) . . .
40.2(33) . . .
49(4) . . .
40(4) . . .
43(4) . . .
33.8(30) . . .
46(4) . . .
37.3(33) . . .
36.7(33) . . .
35.4(30) . . .
43.9(34) . . .
51(4) . . .
41(4) . . .
37.4(33) . . .
42.7(35) . . .
41.6(33) . . .
45(4) . . .
42(4) . . .
28.6(28) . . .
42.5(35) . . .
51(4) . . .
45(4) . . .
42(4) . . .
47(4) . . .
34.5(31) . . .
40.0(34) . . .
42.2(34) . . .
40.0(34) . . .
47(4) . . .
35.0(30) . . .
41.7(33) . . .
39.8(34) . . .
44(4) . . .
44.0(35) . . .
43.6(35) . . .
36.9(32) . . .
45(4) . . .
34.4(33) . . .
48(4) . . .
34.4(30) . . .
39.5(32) . . .
40.5(35) . . .
37.1(33) . . .
48(4) . . .
49(4) . . .
39.7(33) . . .
38(4) . . .
37.5(34) . . .
41(4) . . .
51(4) . . .
40.7(34) . . .
42(4) . . .
39.5(35) . . .
49(4) . . .
38.5(32) . . .
40.0(34) . . .
44.5(35) . . .
42(4) . . .
49(4) . . .
39.8(33) . . .
39.8(33) . . .
40.6(34) . . .
46(4) . . .
44(4) . . .
44.5(35) . . .
43.5(34) . . .
43.3(34) . . .
38.2(33) . . .
39.8(35) . . .
44.9(35) . . .
38.1(33) . . .
41(4) . . .
43(4) . . .
44.1(35) . . .
40.0(34) . . .
46(4) . . .
44(4) . . .
52(4) . . .
43.5(35) . . .
40.0(33) . . .
48(4) . . .
45(4) . . .
48(4) . . .
45(4) . . .
40.7(33) . . .
36.7(32) . . .
43(4) . . .
40(4) . . .
41(4) . . .
38.0(32) . . .
42.1(34) . . .
46(4) . . .
38.3(33) . . .
40.7(33) . . .
38.1(33) . . .
43(4) . . .
42(4) . . .
34.1(30) . . .
40.9(33) . . .
35.1(31) . . .
33.5(31) . . .
42(4) . . .
45(4) . . .
33.7(31) . . .
36.9(31) . . .
42.0(34) . . .
51(4) . . .
39.3(35) . . .
49(4) . . .
41.8(33) . . .
38.7(34) . . .
34.0(33) . . .
40(4) . . .
29.5(28) . . .
47(4) . . .
38.2(33) . . .
44(4) . . .
34.7(33) . . .
35.2(31) . . .
39.9(35) . . .
37.1(32) . . .
34.8(31) . . .
30.7(30) . . .
40.2(33) . . .
46(4) . . .
44(4) . . .
55(4) . . .
37.6(32) . . .
41.8(34) . . .
47(4) . . .
50(4) . . .
41.8(33) . . .
49(4) . . .
41.8(34) . . .
44(4) . . .
35.0(31) . . .
48(4) . . .
51(4) . . .
42.3(34) . . .
40.2(35) . . .
44(4) . . .
40.5(34) . . .
44.3(35) . . .
48(4) . . .
39.5(34) . . .
41(4) . . .
41.2(35) . . .
41.1(33) . . .
45(4) . . .
46(4) . . .
45(4) . . .
39.8(34) . . .
41.8(34) . . .
40.4(33) . . .
40.0(34) . . .
38.5(33) . . .
51(4) . . .
44.0(35) . . .
40.6(33) . . .
46(4) . . .
42.9(35) . . .
47(4) . . .
43.3(35) . . .
45.1(35) . . .
51(4) . . .
53(4) . . .
48(4) . . .
43.7(34) . . .
51(4) . . .
55(4) . . .
40.5(34) . . .
47(4) . . .
41.3(33) . . .
41.9(34) . . .
34.7(31) . . .
37.3(33) . . .
39.3(32) . . .
40.3(33) . . .
45(4) . . .
47(4) . . .
40.7(35) . . .
34.9(32) . . .
34.4(31) . . .
40.6(35) . . .
40.6(34) . . .
50(4) . . .
44.0(35) . . .
43.0(34) . . .
46(4) . . .
44(4) . . .
42.9(35) . . .
37.3(31) . . .
40.0(33) . . .
35.6(32) . . .
49(4) . . .
47(4) . . .
47(4) . . .
46.3(35) . . .
35.7(32) . . .
44(4) . . .
34.5(31) . . .
42.1(34) . . .
48(4) . . .
44.8(35) . . .
46(4) . . .
35.1(31) . . .
42.2(33) . . .
40.3(34) . . .
51(4) . . .
49(4) . . .
40.2(34) . . .
42.6(34) . . .
42.0(34) . . .
50(4) . . .
37.4(32) . . .
39.6(34) . . .
38.8(32) . . .
41.0(34) . . .
43(4) . . .
49(4) . . .
44(4) . . .
46(4) . . .
41.4(34) . . .
40.1(34) . . .
37.5(32) . . .
42(4) . . .
42.0(34) . . .
42(4) . . .
46(4) . . .
51(4) . . .
36.0(31) . . .
48(4) . . .
52(4) . . .
36.3(33) . . .
35.5(32) . . .
41.6(34) . . .
54(4) . . .
38.4(32) . . .
41.6(35) . . .
42.6(34) . . .
47(4) . . .
46(4) . . .
36.4(34) . . .
31.9(32) . . .
34.0(31) . . .
47(4) . . .
40.8(33) . . .
42.0(34) . . .
43(4) . . .
40.8(34) . . .
41.0(34) . . .
46(4) . . .
43(4) . . .
39(4) . . .
38(4) . . .
39.4(33) . . .
40.7(34) . . .
40.9(34) . . .
34.2(30) . . .
44(4) . . .
52(4) . . .
35.9(30) . . .
45(4) . . .
45(4) . . .
44(4) . . .
44.2(35) . . .
50(4) . . .
52(4) . . .
54(4) . . .
39.5(33) . . .
44.9(35) . . .
37.9(32) . . .
42(4) . . .
42(4) . . .
41.4(33) . . .
42.3(34) . . .
31.6(29) . . .
44(4) . . .
42.1(34) . . .
30.5(29) . . .
32.4(30) . . .
40.1(34) . . .
43(4) . . .
44(4) . . .
36.4(33) . . .
42.9(34) . . .
43(4) . . .
38.1(33) . . .
47(4) . . .
53(4) . . .
42.0(33) . . .
40.1(34) . . .
50(4) . . .
41.3(35) . . .
47(4) . . .
38.4(32) . . .
37.9(33) . . .
47(4) . . .
42.0(35) . . .
42.0(34) . . .
41.2(33) . . .
41.5(34) . . .
40.0(35) . . .
50(4) . . .
50(4) . . .
39.8(33) . . .
47(4) . . .
41(4) . . .
43(4) . . .
49(4) . . .
41(4) . . .
47(4) . . .
39.0(35) . . .
46(4) . . .
47(4) . . .
38.4(32) . . .
35.6(32) . . .
33.9(31) . . .
42.0(35) . . .
46(4) . . .
47(4) . . .
40.2(35) . . .
35.2(33) . . .
45(4) . . .
43.0(34) . . .
34.5(31) . . .
45(4) . . .
32.6(29) . . .
34.7(30) . . .
33.8(30) . . .
43.2(35) . . .
44(4) . . .
32.1(29) . . .
41(4) . . .
37.7(32) . . .
46(4) . . .
40(4) . . .
43(4) . . .
47(4) . . .
40.6(33) . . .
35.6(34) . . .
41.7(34) . . .
40.7(34) . . .
48(4) . . .
46(4) . . .
34.7(31) . . .
47(4) . . .
48(4) . . .
48(4) . . .
39.4(33) . . .
55(4) . . .
46(4) . . .
52(4) . . .
47(4) . . .
43.1(34) . . .
47(4) . . .
34.9(31) . . .
45(4) . . .
51(4) . . .
41.4(33) . . .
43(4) . . .
39.8(34) . . .
39.4(33) . . .
38.7(32) . . .
33.6(30) . . .
37.2(32) . . .
45(4) . . .
52(4) . . .
34.3(30) . . .
34.5(33) . . .
49(4) . . .
32.7(31) . . .
43.2(35) . . .
47(4) . . .
46(4) . . .
39.6(34) . . .
49(4) . . .
52(4) . . .
39.7(33) . . .
40.0(34) . . .
42.2(35) . . .
42.0(34) . . .
35.6(31) . . .
49(4) . . .
42.7(35) . . .
47(4) . . .
38.3(32) . . .
39.8(33) . . .
50(4) . . .
37.3(32) . . .
41(4) . . .
40.8(32) . . .
43.1(35) . . .
41.0(34) . . .
39.4(35) . . .
45(4) . . .
48(4) . . .
33.3(30) . . .
46(4) . . .
36.7(33) . . .
44(4) . . .
48(4) . . .
40.8(33) . . .
38.5(32) . . .
38.6(34) . . .
43(4) . . .
39.3(34) . . .
45(4) . . .
36.0(32) . . .
37.5(32) . . .
30.7(29) . . .
37.2(33) . . .
39.0(32) . . .
44(4) . . .
42.8(35) . . .
38.3(33) . . .
36.4(33) . . .
42.2(34) . . .
36.1(31) . . .
42(4) . . .
46(4) . . .
34.8(31) . . .
32.0(29) . . .
35.3(31) . . .
41(4) . . .
36.3(31) . . .
41.7(34) . . .
42.1(34) . . .
45(4) . . .
45(4) . . .
42.1(35) . . .
34.6(30) . . .
45(4) . . .
32.3(30) . . .
35.0(31) . . .
38.3(34) . . .
37.3(35) . . .
43.8(34) . . .
45(4) . . .
40.6(34) . . .
33.8(30) . . .
41.6(33) . . .
45(4) . . .
41.2(34) . . .
33.2(30) . . .
38.8(34) . . .
39.1(32) . . .
36.3(31) . . .
38.3(33) . . .
45(4) . . .
42.5(34) . . .
43.9(34) . . .
39.8(33) . . .
40.4(34) . . .
34.9(32) . . .
41.4(35) . . .
32.8(30) . . .
44.4(35) . . .
42.1(34) . . .
43.9(35) . . .
47(4) . . .
52(4) . . .
38.3(33) . . .
37.0(33) . . .
45(4) . . .
50(4) . . .
41.5(33) . . .
41.0(33) . . .
43.3(35) . . .
39.7(34) . . .
44(4) . . .
31.4(29) . . .
32.4(29) . . .
39(4) . . .
37.0(32) . . .
36.0(32) . . .
33.9(31) . . .
43(4) . . .
35.8(32) . . .
48(4) . . .
47(4) . . .
39.2(33) . . .
40.7(35) . . .
46(4) . . .
35.8(32) . . .
47(4) . . .
48(4) . . .
44.5(35) . . .
40.0(34) . . .
50(4) . . .
47(4) . . .
36.8(32) . . .
47(4) . . .
51(4) . . .
42.1(34) . . .
44(4) . . .
45(4) . . .
34.3(31) . . .
43(4) . . .
34.3(30) . . .
46(4) . . .
39.1(32) . . .
55(4) . . .
44(4) . . .
38.1(35) . . .
35.2(32) . . .
44.1(34) . . .
47(4) . . .
41.5(33) . . .
47(4) . . .
40.3(33) . . .
42.5(34) . . .
40.2(33) . . .
44(4) . . .
44(4) . . .
42.6(35) . . .
48(4) . . .
38.0(34) . . .
34.3(33) . . .
46(4) . . .
49(4) . . .
37.7(32) . . .
48(4) . . .
41.0(34) . . .
42.7(35) . . .
33.8(30) . . .
45(4) . . .
40.8(34) . . .
43(4) . . .
37.3(32) . . .
41.3(34) . . .
48(4) . . .
41(4) . . .
46(4) . . .
43(4) . . .
39.9(33) . . .
45(4) . . .
55(4) . . .
43.3(34) . . .
50(4) . . .
53(4) . . .
42.0(34) . . .
44(4) . . .
31.4(30) . . .
31.6(30) . . .
43.3(34) . . .
41.9(35) . . .
37.9(32) . . .
48(4) . . .
43.0(34) . . .
44.9(35) . . .
38.0(34) . . .
48(4) . . .
40.2(33) . . .
37.7(32) . . .
44(4) . . .
41.2(34) . . .
47(4) . . .
48(4) . . .
48(4) . . .
46(4) . . .
35.1(34) . . .
38.4(35) . . .
42(4) . . .
39.2(33) . . .
49(4) . . .
38.9(34) . . .
31.5(30) . . .
45(4) . . .
48(4) . . .
37.3(32) . . .
37.4(32) . . .
41.2(34) . . .
36.3(32) . . .
38.6(32) . . .
38.8(33) . . .
41.1(35) . . .
45(4) . . .
46(4) . . .
41.2(33) . . .
45.0(35) . . .
54(4) . . .
37.8(35) . . .
46(4) . . .
40.8(33) . . .
41(4) . . .
37.7(33) . . .
39.5(33) . . .
38.8(33) . . .
37.7(32) . . .
42(4) . . .
37.3(34) . . .
39.8(35) . . .
46(4) . . .
42.5(34) . . .
48(4) . . .
35.4(33) . . .
40.6(34) . . .
33.2(30) . . .
46.6(35) . . .
46(4) . . .
46(4) . . .
33.9(31) . . .
32.0(29) . . .
42.3(34) . . .
33.0(31) . . .
41(4) . . .
36.8(33) . . .
39.3(33) . . .
44.8(34) . . .
36.6(32) . . .
42(4) . . .
42(4) . . .
46(4) . . .
45(4) . . .
29.0(29) . . .
41(4) . . .
41.8(35) . . .
38.4(33) . . .
50(4) . . .
38.0(34) . . .
45(4) . . .
41(4) . . .
35.0(31) . . .
40.2(34) . . .
33.7(33) . . .
40(4) . . .
39.8(33) . . .
31.8(29) . . .
37.7(33) . . .
38.8(33) . . .
41.7(34) . . .
34.4(31) . . .
36.5(32) . . .
38.8(33) . . .
39(4) . . .
39.8(33) . . .
48(4) . . .
34.3(31) . . .
42.3(34) . . .
42(4) . . .
40.3(34) . . .
40.5(33) . . .
33.9(30) . . .
33.0(30) . . .
49(4) . . .
42(4) . . .
38.6(33) . . .
45(4) . . .
38.1(33) . . .
37.5(34) . . .
50(4) . . .
44.6(34) . . .
40.5(33) . . .
38.8(32) . . .
40.5(34) . . .
40.2(33) . . .
38.2(33) . . .
45.0(35) . . .
45(4) . . .
30.6(29) . . .
38.6(33) . . .
39.6(33) . . .
32.9(29) . . .
41(4) . . .
44(4) . . .
40.3(34) . . .
44(4) . . .
42.1(33) . . .
33.6(30) . . .
40(4) . . .
33.8(33) . . .
34.5(31) . . .
39(4) . . .
43(4) . . .
40.5(34) . . .
40.7(33) . . .
37.9(32) . . .
39.2(33) . . .
41.0(34) . . .
39.5(32) . . .
43.1(35) . . .
37.8(33) . . .
33.4(33) . . .
39.3(35) . . .
46(4) . . .
40.6(33) . . .
39.0(33) . . .
39.2(34) . . .
40.2(35) . . .
38.9(32) . . .
41.7(34) . . .
36.4(30) . . .
40.1(33) . . .
45(4) . . .
42(4) . . .
40.5(33) . . .
42.7(34) . . .
40.8(34) . . .
45(4) . . .
48(4) . . .
50(4) . . .
45.1(35) . . .
41.6(34) . . .
36.0(33) . . .
43(4) . . .
46.5(35) . . .
44.9(35) . . .
31.5(29) . . .
45(4) . . .
41(4) . . .
40.0(33) . . .
44(4) . . .
39(4) . . .
36.7(34) . . .
34.0(33) . . .
38.9(32) . . .
48(4) . . .
33.2(29) . . .
41.5(34) . . .
46(4) . . .
41.3(34) . . .
46(4) . . .
48(4) . . .
34.3(29) . . .
37.8(32) . . .
45.2(35) . . .
37.3(32) . . .
49(4) . . .
45(4) . . .
50(4) . . .
50(4) . . .
37.1(33) . . .
39.0(35) . . .
40.2(33) . . .
37.8(33) . . .
44.9(35) . . .
41.5(34) . . .
31.7(30) . . .
37.9(33) . . .
35.5(32) . . .
42.2(33) . . .
43.0(34) . . .
39.3(34) . . .
42(4) . . .
32.6(31) . . .
43.2(34) . . .
47(4) . . .
40.1(35) . . .
43(4) . . .
40.4(34) . . .
41.5(33) . . .
34.8(31) . . .
38.2(34) . . .
45(4) . . .
43.7(35) . . .
43.7(34) . . .
40.1(34) . . .
32.8(34) . . .
35.1(32) . . .
37.3(32) . . .
41.5(33) . . .
43(4) . . .
43(4) . . .
33.8(32) . . .
40.2(33) . . .
36.8(33) . . .
44(4) . . .
37.8(33) . . .
29.8(30) . . .
40.4(33) . . .
43.8(35) . . .
48(4) . . .
36.4(33) . . .
47(4) . . .
50(4) . . .
45(4) . . .
38.5(33) . . .
41(4) . . .
44(4) . . .
49(4) . . .
40.5(33) . . .
43(4) . . .
46(4) . . .
45(4) . . .
34.5(31) . . .
44(4) . . .
34.1(31) . . .
36.9(31) . . .
38.4(33) . . .
36.9(31) . . .
37.0(32) . . .
48(4) . . .
32.8(29) . . .
42(4) . . .
45.0(35) . . .
46(4) . . .
33.1(33) . . .
37.3(33) . . .
38.0(32) . . .
41.9(34) . . .
42.2(34) . . .
47(4) . . .
34.7(32) . . .
39.0(32) . . .
46(4) . . .
40.6(35) . . .
43(4) . . .
44.5(35) . . .
40.6(33) . . .
37.6(32) . . .
37.9(33) . . .
37.6(32) . . .
40.3(34) . . .
41.8(34) . . .
30.5(29) . . .
41(4) . . .
36.2(34) . . .
41(4) . . .
38.8(32) . . .
37.8(32) . . .
42.2(34) . . .
40.1(33) . . .
48(4) . . .
38.8(33) . . .
37.9(33) . . .
41(4) . . .
35.9(33) . . .
37.4(33) . . .
41.8(34) . . .
34.3(33) . . .
39.7(34) . . .
49(4) . . .
39.7(33) . . .
48(4) . . .
53(4) . . .
38.2(33) . . .
35.8(33) . . .
33.0(31) . . .
42.9(34) . . .
35.5(31) . . .
43.6(34) . . .
41(4) . . .
47(4) . . .
35.7(31) . . .
35.8(34) . . .
36.8(34) . . .
55(4) . . .
40.8(33) . . .
40.5(33) . . .
34.5(31) . . .
43(4) . . .
38.4(33) . . .
38.6(33) . . .
53(4) . . .
47(4) . . .
56(4) . . .
41(4) . . .
31.2(29) . . .
40.1(34) . . .
37.0(32) . . .
44(4) . . .
30.3(29) . . .
38.8(32) . . .
36.3(31) . . .
46(4) . . .
40.0(35) . . .
41.0(35) . . .
34.2(30) . . .
38.8(33) . . .
37.8(33) . . .
41(4) . . .
42(4) . . .
41.5(34) . . .
35.6(32) . . .
41(4) . . .
45(4) . . .
43(4) . . .
38.9(33) . . .
47(4) . . .
42(4) . . .
38(4) . . .
39.3(34) . . .
47(4) . . .
42(4) . . .
36.6(34) . . .
45(4) . . .
42.7(34) . . .
43.6(34) . . .
32.3(30) . . .
36.9(35) . . .
40(4) . . .
29.9(29) . . .
40.3(33) . . .
38.5(33) . . .
37.8(33) . . .
30.4(29) . . .
38.7(33) . . .
41.6(34) . . .
35.3(34) . . .
35.9(33) . . .
49(4) . . .
38.5(32) . . .
45(4) . . .
41(4) . . .
43(4) . . .
42(4) . . .
41.5(34) . . .
34.0(30) . . .
29.7(29) . . .
38.3(34) . . .
50(4) . . .
43.4(35) . . .
35.0(30) . . .
39.2(33) . . .
37.7(34) . . .
43(4) . . .
53(4) . . .
38.4(32) . . .
38.9(34) . . .
33.3(29) . . .
46(4) . . .
37.1(31) . . .
37.5(32) . . .
49(4) . . .
40.3(35) . . .
36.6(33) . . .
36.5(31) . . .
46(4) . . .
45(4) . . .
46(4) . . .
46(4) . . .
50(4) . . .
35.1(31) . . .
32.6(31) . . .
30.1(31) . . .
37.0(32) . . .
44.1(35) . . .
47(4) . . .
46(4) . . .
32.4(31) . . .
31.3(30) . . .
41.2(33) . . .
33.0(30) . . .
32.7(30) . . .
41(4) . . .
42.8(35) . . .
38.6(33) . . .
47(4) . . .
34.6(31) . . .
36.7(31) . . .
36.5(31) . . .
35.6(31) . . .
30.1(30) . . .
30.3(31) . . .
31.8(30) . . .
38.6(33) . . .
37.1(32) . . .
39.4(35) . . .
38.8(34) . . .
38.3(32) . . .
48(4) . . .
45.5(35) . . .
39.7(34) . . .
37.1(33) . . .
40.1(34) . . .
46(4) . . .
44(4) . . .
42(4) . . .
38.2(35) . . .
39.9(34) . . .
48(4) . . .
40.3(34) . . .
46(4) . . .
38.9(34) . . .
40.6(33) . . .
37.7(32) . . .
34.6(32) . . .
37.0(34) . . .
50(4) . . .
48(4) . . .
39.8(33) . . .
36.5(32) . . .
40.4(35) . . .
41.1(34) . . .
36.7(31) . . .
35.1(31) . . .
35.2(35) . . .
41(4) . . .
40(4) . . .
36.3(32) . . .
56(4) . . .
37.2(32) . . .
38.6(34) . . .
45(4) . . .
40.4(34) . . .
37.4(31) . . .
39.4(34) . . .
31.1(30) . . .
38.7(32) . . .
39.7(33) . . .
45(4) . . .
38.5(33) . . .
52(4) . . .
44(4) . . .
30.0(28) . . .
39.3(33) . . .
33.2(30) . . .
45(4) . . .
36.1(32) . . .
43.6(35) . . .
36.0(31) . . .
39.4(33) . . .
35.9(32) . . .
41.7(35) . . .
40.2(33) . . .
59(4) . . .
53(4) . . .
43(4) . . .
38.2(32) . . .
40.2(33) . . .
39.2(32) . . .
36.6(32) . . .
37.4(34) . . .
33.4(32) . . .
43.5(35) . . .
43.3(34) . . .
38.8(34) . . .
37.6(33) . . .
40.2(33) . . .
37.8(31) . . .
41(4) . . .
40.4(33) . . .
32.6(30) . . .
36.0(33) . . .
33.7(31) . . .
34.0(30) . . .
44(4) . . .
34.8(33) . . .
36.7(33) . . .
38.2(32) . . .
40.2(34) . . .
30.9(30) . . .
31.8(32) . . .
32.3(31) . . .
37.5(32) . . .
44(4) . . .
44(4) . . .
47(4) . . .
40.6(33) . . .
38.4(32) . . .
37.6(34) . . .
35.9(33) . . .
33.6(30) . . .
44(4) . . .
40.8(34) . . .
37.8(33) . . .
42(4) . . .
40(4) . . .
40.2(33) . . .
29.6(29) . . .
37(4) . . .
34.5(33) . . .
44(4) . . .
42.8(34) . . .
30.0(30) . . .
38.6(34) . . .
36.6(32) . . .
32.8(30) . . .
31.5(30) . . .
31.1(29) . . .
32.2(31) . . .
39(4) . . .
46(4) . . .
40.6(33) . . .
49(4) . . .
42(4) . . .
32.5(31) . . .
37.1(32) . . .
38.8(32) . . .
41.9(35) . . .
36.1(35) . . .
39.1(34) . . .
39.9(32) . . .
47(4) . . .
43(4) . . .
32.9(31) . . .
43(4) . . .
44(4) . . .
32.5(29) . . .
39.3(35) . . .
35.0(31) . . .
46(4) . . .
39.6(34) . . .
36.2(31) . . .
36.9(33) . . .
43(4) . . .
42.0(33) . . .
37.5(33) . . .
44.3(34) . . .
35.9(32) . . .
34.8(33) . . .
38.7(34) . . .
40.5(33) . . .
44.0(35) . . .
41.7(33) . . .
45(4) . . .
37.2(32) . . .
31.9(29) . . .
44(4) . . .
32.3(30) . . .
43(4) . . .
41.9(34) . . .
43.7(34) . . .
45.2(34) . . .
41(4) . . .
28.1(29) . . .
41.8(35) . . .
40.5(33) . . .
39.5(35) . . .
44(4) . . .
34.5(33) . . .
41(4) . . .
27.9(28) . . .
38.9(33) . . .
38.4(32) . . .
40(4) . . .
44(4) . . .
34.8(31) . . .
37.9(35) . . .
42.9(35) . . .
40.2(35) . . .
34.6(31) . . .
38.0(31) . . .
44(4) . . .
44(4) . . .
36.3(31) . . .
40.5(34) . . .
28.0(28) . . .
35.2(32) . . .
40(4) . . .
52(4) . . .
34.9(31) . . .
37.7(33) . . .
51(4) . . .
50(4) . . .
40.0(34) . . .
38.0(33) . . .
44.9(35) . . .
42.3(34) . . .
41.8(35) . . .
42.5(35) . . .
36.5(31) . . .
36.9(31) . . .
37.8(33) . . .
36.3(33) . . .
38.6(33) . . .
41.1(33) . . .
36.4(33) . . .
37.3(33) . . .
41(4) . . .
36.5(32) . . .
42.2(34) . . .
33.8(30) . . .
41.4(34) . . .
34.1(33) . . .
33.7(31) . . .
44.2(34) . . .
45(4) . . .
39.4(33) . . .
44(4) . . .
48(4) . . .
38.9(32) . . .
44(4) . . .
40.5(34) . . .
44(4) . . .
40.7(34) . . .
41.2(34) . . .
42(4) . . .
34.6(31) . . .
41(4) . . .
42(4) . . .
43.3(35) . . .
42.0(34) . . .
31.6(29) . . .
34.7(31) . . .
37.3(32) . . .
40.6(33) . . .
47(4) . . .
43.1(34) . . .
49(4) . . .
38.7(33) . . .
41.1(33) . . .
38.3(34) . . .
34.9(32) . . .
38.5(34) . . .
33.3(31) . . .
35.0(32) . . .
30.5(30) . . .
33.0(31) . . .
37.6(33) . . .
48(4) . . .
33.8(30) . . .
37.5(32) . . .
36.1(34) . . .
29.5(30) . . .
43(4) . . .
33.9(30) . . .
47(4) . . .
41(4) . . .
38.4(33) . . .
41.5(34) . . .
34.9(31) . . .
42.4(35) . . .
37.4(35) . . .
44(4) . . .
32.6(30) . . .
43(4) . . .
41.3(34) . . .
38.0(34) . . .
39(4) . . .
34.8(31) . . .
38.3(32) . . .
34.2(31) . . .
40(4) . . .
31.5(30) . . .
39.1(33) . . .
34.9(31) . . .
31.5(32) . . .
36.5(34) . . .
32.6(30) . . .
44.9(34) . . .
44.9(35) . . .
34.6(31) . . .
36.5(33) . . .
42.0(35) . . .
43.0(34) . . .
34.0(30) . . .
36.7(34) . . .
35.8(33) . . .
42.3(35) . . .
32.2(29) . . .
38.5(34) . . .
43(4) . . .
30.6(29) . . .
40.2(33) . . .
31.5(30) . . .
33.5(31) . . .
35.2(35) . . .
45(4) . . .
44.5(35) . . .
46(4) . . .
39.8(34) . . .
45(4) . . .
44(4) . . .
33.4(30) . . .
37.4(32) . . .
39.8(34) . . .
41(4) . . .
37.3(32) . . .
44.3(35) . . .
35.6(31) . . .
35.7(34) . . .
41(4) . . .
43.6(35) . . .
48(4) . . .
43.2(34) . . .
37.4(33) . . .
32.3(30) . . .
35.4(32) . . .
36.7(31) . . .
38.0(32) . . .
40.4(34) . . .
47(4) . . .
38.3(33) . . .
35.3(31) . . .
47(4) . . .
46(4) . . .
43(4) . . .
37.5(32) . . .
41.3(33) . . .
34.5(31) . . .
35.2(33) . . .
39.3(34) . . .
35.8(32) . . .
32.4(30) . . .
43(4) . . .
34.7(33) . . .
44(4) . . .
36.3(33) . . .
34.0(31) . . .
35.4(31) . . .
37.9(34) . . .
40.3(35) . . .
42.2(35) . . .
45(4) . . .
32.2(30) . . .
39.7(34) . . .
38(4) . . .
46(4) . . .
37.5(32) . . .
40.9(34) . . .
43(4) . . .
37.1(32) . . .
43.3(35) . . .
36.3(31) . . .
37.0(32) . . .
41.3(34) . . .
39.7(34) . . .
30.7(28) . . .
40.1(33) . . .
34.4(30) . . .
42(4) . . .
38.3(34) . . .
48(4) . . .
43.6(35) . . .
36.3(35) . . .
37.5(32) . . .
42(4) . . .
44.0(34) . . .
43.2(34) . . .
46(4) . . .
45(4) . . .
39.4(34) . . .
37.4(33) . . .
35.6(31) . . .
43(4) . . .
45(4) . . .
43.8(35) . . .
42.3(34) . . .
39.2(33) . . .
32.2(31) . . .
37.9(34) . . .
42(4) . . .
40.4(33) . . .
34.8(33) . . .
33.3(32) . . .
32.3(31) . . .
25.3(27) . . .
42.5(34) . . .
26.9(30) . . .
40(4) . . .
41.8(35) . . .
33.8(30) . . .
47(4) . . .
35.7(32) . . .
34.7(33) . . .
46(4) . . .
39.9(34) . . .
48(4) . . .
34.1(32) . . .
39(4) . . .
36.8(33) . . .
46(4) . . .
32.6(30) . . .
36.8(32) . . .
41.2(35) . . .
41.1(33) . . .
40.8(34) . . .
49(4) . . .
34.6(30) . . .
38.5(34) . . .
49(4) . . .
38.5(32) . . .
36.6(33) . . .
32.7(30) . . .
33.9(30) . . .
39.9(34) . . .
49(4) . . .
41.8(34) . . .
39.4(35) . . .
40(4) . . .
48(4) . . .
38.5(33) . . .
43.0(35) . . .
47(4) . . .
40.0(35) . . .
48(4) . . .
48(4) . . .
42(4) . . .
34.1(32) . . .
36.5(32) . . .
33.8(30) . . .
46(4) . . .
33.9(31) . . .
43(4) . . .
37.5(33) . . .
36.3(31) . . .
36.4(31) . . .
27.0(28) . . .
35.8(32) . . .
41.9(34) . . .
40.4(34) . . .
32.8(30) . . .
39.8(33) . . .
40.2(34) . . .
32.2(30) . . .
38.5(33) . . .
46(4) . . .
42.8(34) . . .
36.5(33) . . .
39.1(33) . . .
46(4) . . .
41.5(34) . . .
32.0(30) . . .
32.4(33) . . .
34.1(33) . . .
43.4(34) . . .
50(4) . . .
40.2(33) . . .
41(4) . . .
41.6(35) . . .
36.3(31) . . .
47(4) . . .
35.0(31) . . .
38(4) . . .
43(4) . . .
40.2(33) . . .
35.7(31) . . .
38.0(32) . . .
36.8(33) . . .
40.6(34) . . .
41.1(35) . . .
42.5(34) . . .
39.0(34) . . .
38.4(34) . . .
41(4) . . .
42.0(33) . . .
38.1(34) . . .
36.3(33) . . .
40(4) . . .
34.6(31) . . .
33.3(30) . . .
42.5(35) . . .
43(4) . . .
46(4) . . .
37.7(33) . . .
36.0(32) . . .
39.6(33) . . .
35.6(32) . . .
28.3(27) . . .
39.2(33) . . .
46(4) . . .
36.5(33) . . .
39.7(35) . . .
38.3(32) . . .
41.5(33) . . .
41.2(34) . . .
41.1(35) . . .
37.2(34) . . .
46(4) . . .
34.1(30) . . .
46(4) . . .
44(4) . . .
37.9(34) . . .
29.2(29) . . .
35.5(31) . . .
31.8(29) . . .
36.0(32) . . .
28.0(29) . . .
38.3(34) . . .
47(4) . . .
44(4) . . .
45.1(35) . . .
41(4) . . .
35.8(32) . . .
39.8(33) . . .
36.3(31) . . .
38.9(33) . . .
34.3(32) . . .
38.9(33) . . .
47(4) . . .
43.4(34) . . .
45(4) . . .
39.7(34) . . .
41(4) . . .
43.4(34) . . .
33.0(29) . . .
46(4) . . .
40.0(33) . . .
41.2(34) . . .
39.9(33) . . .
37.1(33) . . .
33.3(30) . . .
37.6(35) . . .
37.4(34) . . .
37.8(33) . . .
39.8(34) . . .
37.3(33) . . .
37.4(34) . . .
41(4) . . .
43.2(34) . . .
39.2(34) . . .
40(4) . . .
39.5(33) . . .
39.3(32) . . .
36.8(32) . . .
37.1(33) . . .
33.5(32) . . .
34.6(32) . . .
40.1(33) . . .
40.7(34) . . .
38.9(33) . . .
39.8(35) . . .
37.5(32) . . .
36.4(31) . . .
37.3(31) . . .
40.0(34) . . .
36.4(33) . . .
37.9(33) . . .
41.2(35) . . .
37.3(31) . . .
38.5(33) . . .
42.0(34) . . .
42.4(34) . . .
29.5(28) . . .
38.4(32) . . .
31.5(29) . . .
33.3(33) . . .
29.4(31) . . .
38.0(33) . . .
48(4) . . .
39.6(33) . . .
37.5(32) . . .
39.9(35) . . .
46(4) . . .
39.6(34) . . .
46(4) . . .
37.2(32) . . .
41.9(33) . . .
33.9(31) . . .
39.8(34) . . .
35.3(32) . . .
45(4) . . .
35.5(32) . . .
45.4(35) . . .
32.6(32) . . .
30.8(30) . . .
37.0(34) . . .
33.1(34) . . .
38.8(32) . . .
43.2(35) . . .
29.9(29) . . .
40(4) . . .
46(4) . . .
42.6(34) . . .
32.5(30) . . .
46(4) . . .
36.2(32) . . .
44(4) . . .
49(4) . . .
41.6(33) . . .
33.9(30) . . .
38.6(35) . . .
48(4) . . .
47(4) . . .
39.5(33) . . .
44(4) . . .
38.9(33) . . .
39.3(33) . . .
35.9(33) . . .
27.1(28) . . .
33.3(32) . . .
42.1(34) . . .
37.8(32) . . .
41.1(34) . . .
36.9(34) . . .
32.7(31) . . .
37(4) . . .
36.0(32) . . .
38.6(32) . . .
42(4) . . .
35.8(31) . . .
40.4(35) . . .
29.2(28) . . .
42(4) . . .
42(4) . . .
34.5(32) . . .
40.1(34) . . .
36.0(31) . . .
37.1(31) . . .
38.4(34) . . .
37.6(33) . . .
46(4) . . .
43.2(34) . . .
46(4) . . .
47(4) . . .
48(4) . . .
46(4) . . .
40.4(34) . . .
34.6(31) . . .
32.1(32) . . .
35.4(33) . . .
33.8(31) . . .
27.7(27) . . .
38.4(35) . . .
43(4) . . .
47(4) . . .
40.0(34) . . .
49(4) . . .
45(4) . . .
48(4) . . .
41(4) . . .
38.3(33) . . .
38.4(32) . . .
37.0(32) . . .
46(4) . . .
43.7(35) . . .
46(4) . . .
34.8(31) . . .
40.6(35) . . .
38.4(35) . . .
42.9(35) . . .
41.6(33) . . .
37.2(32) . . .
38.8(33) . . .
38.1(35) . . .
40.1(34) . . .
38.3(32) . . .
36.0(31) . . .
38.5(33) . . .
37(4) . . .
39.4(34) . . .
44.5(34) . . .
38.4(33) . . .
39.3(33) . . .
41.0(34) . . .
51(4) . . .
30.1(29) . . .
33.2(31) . . .
42(4) . . .
33.6(31) . . .
43(4) . . .
40.9(33) . . .
43(4) . . .
36.3(32) . . .
36.1(32) . . .
26.3(27) . . .
47(4) . . .
34.3(31) . . .
38.8(33) . . .
32.6(30) . . .
39.4(35) . . .
42.1(34) . . .
35.3(32) . . .
32.5(31) . . .
32.9(31) . . .
36.3(33) . . .
41.1(33) . . .
40(4) . . .
35.8(33) . . .
34.3(32) . . .
32.1(30) . . .
47(4) . . .
42.7(34) . . .
41(4) . . .
40.7(34) . . .
39.4(33) . . .
37.2(31) . . .
41(4) . . .
35.5(34) . . .
31.7(32) . . .
30.6(30) . . .
35.9(31) . . .
34.7(31) . . .
38.8(35) . . .
36(4) . . .
40.3(33) . . .
27.5(28) . . .
44.1(35) . . .
38.3(32) . . .
38.8(34) . . .
42.1(34) . . .
36.0(31) . . .
42.1(34) . . .
39.1(33) . . .
25.8(26) . . .
33.3(31) . . .
45(4) . . .
41(4) . . .
34.2(31) . . .
41(4) . . .
38.2(32) . . .
32.3(30) . . .
41(4) . . .
34.1(31) . . .
43(4) . . .
36.3(31) . . .
30.6(30) . . .
42(4) . . .
40.4(34) . . .
44(4) . . .
28.4(28) . . .
43(4) . . .
33.1(32) . . .
33.5(30) . . .
43(4) . . .
29.2(28) . . .
34.8(32) . . .
35.0(31) . . .
37.2(32) . . .
33.6(31) . . .
35.1(30) . . .
39.1(33) . . .
41(4) . . .
36.1(33) . . .
43(4) . . .
41.7(33) . . .
31.0(31) . . .
28.3(30) . . .
33.8(32) . . .
34.5(31) . . .
40.3(33) . . .
41(4) . . .
42(4) . . .
33.6(31) . . .
40.5(34) . . .
42.5(33) . . .
35.4(31) . . .
40(4) . . .
37.2(32) . . .
38.5(33) . . .
44(4) . . .
34.8(32) . . .
38(4) . . .
45(4) . . .
36.6(31) . . .
34.7(31) . . .
37.8(34) . . .
34.5(33) . . .
37.0(34) . . .
37.7(32) . . .
43(4) . . .
34.9(31) . . .
41.6(35) . . .
32.3(31) . . .
41.8(34) . . .
43.0(35) . . .
43(4) . . .
39.2(34) . . .
42.7(35) . . .
41.0(34) . . .
29.2(32) . . .
43(4) . . .
53(4) . . .
39.1(32) . . .
43.8(35) . . .
41.0(35) . . .
45(4) . . .
45(4) . . .
44(4) . . .
38.3(32) . . .
43(4) . . .
41(4) . . .
44(4) . . .
36.7(33) . . .
36.7(32) . . .
36.1(32) . . .
34.3(32) . . .
32.2(30) . . .
30.0(29) . . .
37.9(34) . . .
37.6(35) . . .
32.3(34) . . .
43(4) . . .
42.7(34) . . .
43(4) . . .
35.8(33) . . .
30.5(31) . . .
43(4) . . .
31.6(30) . . .
42.0(34) . . .
50(4) . . .
36.9(34) . . .
37.2(33) . . .
47(4) . . .
52(4) . . .
30.7(29) . . .
37.0(33) . . .
41(4) . . .
44(4) . . .
36.5(32) . . .
37(4) . . .
36.4(32) . . .
38.2(32) . . .
30.4(29) . . .
49(4) . . .
40.0(33) . . .
37.9(34) . . .
41(4) . . .
33.7(30) . . .
35.5(32) . . .
38.9(34) . . .
37.5(33) . . .
40.7(33) . . .
41.2(33) . . .
43.5(35) . . .
50(4) . . .
47(4) . . .
39.0(33) . . .
41.9(34) . . .
42(4) . . .
48(4) . . .
42.2(35) . . .
45(4) . . .
43.6(35) . . .
38.5(34) . . .
31.1(30) . . .
35.7(31) . . .
36.5(31) . . .
40.6(33) . . .
39.0(34) . . .
39(4) . . .
34.9(31) . . .
40.8(34) . . .
31.0(29) . . .
37.6(32) . . .
40.0(35) . . .
43(4) . . .
41.9(33) . . .
37.3(33) . . .
34.8(31) . . .
35.3(31) . . .
50(4) . . .
44.3(35) . . .
43(4) . . .
39.6(33) . . .
39.2(34) . . .
42(4) . . .
37.7(32) . . .
33.0(31) . . .
38.3(34) . . .
41.3(35) . . .
39.4(35) . . .
35.8(31) . . .
43.7(35) . . .
42(4) . . .
34.3(32) . . .
33.5(31) . . .
37.6(32) . . .
38.5(33) . . .
40(4) . . .
38.1(35) . . .
37.1(32) . . .
44.8(34) . . .
34.3(33) . . .
33.6(33) . . .
42.7(35) . . .
37.0(32) . . .
37.1(32) . . .
34.8(32) . . .
32.1(30) . . .
34.0(30) . . .
38.4(33) . . .
47(4) . . .
42.6(34) . . .
43(4) . . .
41.5(34) . . .
35.2(31) . . .
36.7(32) . . .
42(4) . . .
40(4) . . .
32.4(30) . . .
40.8(33) . . .
39.8(32) . . .
33.5(30) . . .
38(4) . . .
34.2(31) . . .
40.4(33) . . .
45(4) . . .
38.6(34) . . .
38.9(34) . . .
42(4) . . .
37.0(32) . . .
33.6(30) . . .
30.8(28) . . .
42(4) . . .
37.3(33) . . .
37.8(33) . . .
38.8(32) . . .
43(4) . . .
34.9(32) . . .
44(4) . . .
41.6(34) . . .
41(4) . . .
34.4(32) . . .
28.9(30) . . .
36.9(32) . . .
37.8(32) . . .
36.0(33) . . .
45(4) . . .
46(4) . . .
45(4) . . .
36.7(32) . . .
48(4) . . .
35.1(33) . . .
31.8(30) . . .
39.3(33) . . .
35.6(31) . . .
36.4(33) . . .
41(4) . . .
37(4) . . .
34.0(30) . . .
31.4(29) . . .
39.2(33) . . .
35.8(34) . . .
35.4(33) . . .
42.6(34) . . .
41.7(33) . . .
36.3(33) . . .
34.0(31) . . .
38.2(33) . . .
38.3(32) . . .
42.3(35) . . .
33.0(31) . . .
35.5(33) . . .
40.6(34) . . .
34.4(31) . . .
38.4(32) . . .
35.7(32) . . .
31.0(33) . . .
40.3(34) . . .
53(4) . . .
36.6(32) . . .
38.2(33) . . .
36.3(33) . . .
34.9(31) . . .
37.0(31) . . .
42(4) . . .
44(4) . . .
40.6(35) . . .
36.0(31) . . .
41.7(33) . . .
35.1(31) . . .
33.9(32) . . .
33.9(33) . . .
38.9(33) . . .
36.0(32) . . .
33.5(30) . . .
36.2(31) . . .
41(4) . . .
35.5(31) . . .
42.4(34) . . .
31.4(30) . . .
41(4) . . .
35.6(34) . . .
37.4(33) . . .
43.5(34) . . .
42.8(34) . . .
35.6(31) . . .
40.0(33) . . .
31.7(29) . . .
37.0(31) . . .
27.1(30) . . .
35.8(33) . . .
38.1(33) . . .
41.4(33) . . .
34.2(30) . . .
34.3(32) . . .
32.4(33) . . .
35.5(32) . . .
42.5(34) . . .
36.9(32) . . .
41.3(35) . . .
48(4) . . .
33.1(31) . . .
37.6(31) . . .
35.1(31) . . .
32.2(30) . . .
32.6(32) . . .
42(4) . . .
37.9(32) . . .
43.3(34) . . .
42(4) . . .
32.3(30) . . .
33.4(32) . . .
33.8(31) . . .
46(4) . . .
36.6(32) . . .
46(4) . . .
41.0(34) . . .
37.7(32) . . .
35.9(31) . . .
42.1(34) . . .
48(4) . . .
30.6(29) . . .
31.4(29) . . .
40.4(34) . . .
38.3(32) . . .
44(4) . . .
39.4(33) . . .
39.1(32) . . .
37.9(34) . . .
41.6(35) . . .
37.2(34) . . .
37.0(32) . . .
39.0(33) . . .
48(4) . . .
40.0(34) . . .
32.5(30) . . .
33.3(31) . . .
37.2(32) . . .
44(4) . . .
40(4) . . .
40(4) . . .
39.1(34) . . .
32.9(30) . . .
33.7(32) . . .
35(4) . . .
39.6(32) . . .
46(4) . . .
40.1(34) . . .
29.4(29) . . .
31.4(32) . . .
31.7(29) . . .
36.2(31) . . .
36.4(31) . . .
44(4) . . .
43(4) . . .
40.7(34) . . .
33.6(31) . . .
32.0(29) . . .
44(4) . . .
42(4) . . .
35.4(31) . . .
29.3(28) . . .
31.9(30) . . .
36.2(32) . . .
33.3(30) . . .
34.1(30) . . .
41.0(33) . . .
45(4) . . .
40.0(34) . . .
36.2(33) . . .
42(4) . . .
41.5(33) . . .
33.1(31) . . .
37.5(34) . . .
37.1(33) . . .
36.1(32) . . .
35.0(31) . . .
35.1(31) . . .
41(4) . . .
42.8(35) . . .
39.1(32) . . .
33.7(31) . . .
30.5(29) . . .
35.7(34) . . .
30.6(31) . . .
39.2(33) . . .
36.4(32) . . .
30.6(32) . . .
45(4) . . .
37.7(34) . . .
46(4) . . .
43.4(34) . . .
40.4(34) . . .
36.8(34) . . .
37.6(34) . . .
47(4) . . .
37.5(33) . . .
36(4) . . .
39(4) . . .
37.0(32) . . .
37.5(33) . . .
33.7(30) . . .
29.3(30) . . .
32.2(30) . . .
47(4) . . .
46(4) . . .
37.7(32) . . .
39.6(35) . . .
47(4) . . .
45(4) . . .
36.4(32) . . .
37.4(32) . . .
37.2(33) . . .
38.4(33) . . .
43(4) . . .
37.4(32) . . .
46(4) . . .
35.6(32) . . .
39(4) . . .
42(4) . . .
47(4) . . .
34.5(31) . . .
30.9(32) . . .
43(4) . . .
35.8(31) . . .
40.7(34) . . .
35.3(30) . . .
38.2(33) . . .
39(4) . . .
42(4) . . .
42.4(34) . . .
42.4(35) . . .
37.1(34) . . .
37.2(32) . . .
34.5(32) . . .
36.8(31) . . .
31.0(31) . . .
32.4(32) . . .
28.7(28) . . .
30.5(30) . . .
33.2(29) . . .
41.3(35) . . .
44(4) . . .
36.5(32) . . .
40.4(34) . . .
40.7(33) . . .
46(4) . . .
39.5(33) . . .
40.6(34) . . .
35.6(32) . . .
43.7(34) . . .
37.5(31) . . .
36.3(32) . . .
43(4) . . .
48(4) . . .
33.3(30) . . .
39.8(33) . . .
34.8(33) . . .
37.7(32) . . .
36.0(31) . . .
34.2(31) . . .
29.4(30) . . .
44(4) . . .
35.8(32) . . .
35.6(31) . . .
38.5(34) . . .
35.0(32) . . .
35.9(34) . . .
37.5(33) . . .
34.0(31) . . .
34.1(32) . . .
42(4) . . .
45(4) . . .
44(4) . . .
35.6(31) . . .
34.4(30) . . .
35.5(32) . . .
39.2(34) . . .
33.1(32) . . .
30.8(29) . . .
41(4) . . .
37.9(34) . . .
38.5(34) . . .
37.8(33) . . .
39.7(33) . . .
30.3(30) . . .
32.7(29) . . .
31.0(28) . . .
38.4(34) . . .
42.8(35) . . .
31.6(30) . . .
43(4) . . .
34.5(31) . . .
40.4(33) . . .
35.9(31) . . .
35.2(32) . . .
33.7(35) . . .
36.8(33) . . .
32.5(30) . . .
31.9(30) . . .
27.3(28) . . .
36(4) . . .
26.8(28) . . .
34.9(30) . . .
35.7(33) . . .
41.3(35) . . .
38(4) . . .
37.4(34) . . .
33.4(30) . . .
39.0(35) . . .
50(4) . . .
40.1(33) . . .
37.5(34) . . .
42.7(34) . . .
35.4(31) . . .
41.2(34) . . .
37.3(32) . . .
42(4) . . .
34.7(31) . . .
34.5(31) . . .
39.6(33) . . .
38.0(33) . . .
44(4) . . .
37.7(31) . . .
30.8(29) . . .
35.4(32) . . .
38.3(33) . . .
35.8(31) . . .
31.2(29) . . .
41(4) . . .
32.9(31) . . .
33.2(30) . . .
36.9(31) . . .
37.3(32) . . .
36.2(33) . . .
34.8(35) . . .
32.2(30) . . .
38.0(32) . . .
38.7(32) . . .
33.1(31) . . .
32.0(30) . . .
39.8(34) . . .
42.0(34) . . .
40.4(34) . . .
34.8(31) . . .
35.4(34) . . .
36.8(33) . . .
32.2(29) . . .
36.1(31) . . .
32.3(30) . . .
28.9(30) . . .
46(4) . . .
41.0(33) . . .
31.9(30) . . .
39.7(35) . . .
43(4) . . .
36.5(32) . . .
37.8(32) . . .
39.6(33) . . .
41.3(34) . . .
32.4(30) . . .
40.7(34) . . .
35.1(31) . . .
27.9(28) . . .
36(4) . . .
37.3(34) . . .
44(4) . . .
35.4(31) . . .
27.5(28) . . .
29.7(30) . . .
36(4) . . .
33.9(32) . . .
40.4(33) . . .
35.7(33) . . .
32.7(30) . . .
36.2(30) . . .
41.0(33) . . .
35.4(31) . . .
35.8(32) . . .
36.9(33) . . .
39.6(35) . . .
36.5(32) . . .
35.2(31) . . .
33.4(33) . . .
41(4) . . .
42(4) . . .
36.5(32) . . .
44.9(35) . . .
38.2(34) . . .
31.6(30) . . .
36.6(33) . . .
33.3(30) . . .
35.5(31) . . .
40.8(35) . . .
35.8(33) . . .
37.6(33) . . .
37.8(32) . . .
37.2(32) . . .
37.8(31) . . .
42(4) . . .
32.4(30) . . .
36.0(31) . . .
46(4) . . .
41(4) . . .
35.5(33) . . .
35.6(32) . . .
38.7(32) . . .
39.1(33) . . .
37.1(34) . . .
40(4) . . .
36.7(33) . . .
33.9(30) . . .
39.6(33) . . .
33.6(33) . . .
38.0(35) . . .
31.5(31) . . .
32.3(30) . . .
35.5(31) . . .
35.8(32) . . .
44(4) . . .
43.2(35) . . .
29.8(28) . . .
33.0(30) . . .
43(4) . . .
38.8(34) . . .
30.5(28) . . .
31.1(29) . . .
37.0(32) . . .
33.8(31) . . .
30.5(29) . . .
35.3(31) . . .
36.6(31) . . .
33.1(33) . . .
30.3(31) . . .
30.0(29) . . .
28.4(28) . . .
34.0(31) . . .
37.4(33) . . .
42(4) . . .
44(4) . . .
33.9(31) . . .
45(4) . . .
36.6(31) . . .
42(4) . . .
35.3(32) . . .
35.4(31) . . .
38.7(33) . . .
37.1(32) . . .
43(4) . . .
33.8(30) . . .
35.7(31) . . .
34.0(30) . . .
29.2(29) . . .
34.0(34) . . .
31.0(31) . . .
33.7(30) . . .
45.2(35) . . .
35.2(30) . . .
32.5(32) . . .
29.3(29) . . .
32.8(30) . . .
38.7(33) . . .
38.5(33) . . .
34.7(30) . . .
39.3(33) . . .
35.4(31) . . .
46(4) . . .
34.1(31) . . .
34.7(31) . . .
29.8(31) . . .
36.7(31) . . .
33.8(32) . . .
30.1(31) . . .
36.6(35) . . .
38.7(32) . . .
39.0(33) . . .
31.3(29) . . .
41(4) . . .
38.1(33) . . .
40.7(34) . . .
38.6(33) . . .
36.1(34) . . .
49(4) . . .
35.3(33) . . .
41.3(34) . . .
30.9(30) . . .
37.7(34) . . .
35.5(34) . . .
27.9(28) . . .
33.7(31) . . .
37.8(31) . . .
41(4) . . .
25.5(26) . . .
35.2(31) . . .
36.0(31) . . .
36.5(31) . . .
41(4) . . .
43(4) . . .
37.3(31) . . .
34.1(30) . . .
34.9(33) . . .
32.6(31) . . .
33.7(32) . . .
36.7(33) . . .
36.1(31) . . .
42.4(34) . . .
42(4) . . .
32.2(29) . . .
33.1(30) . . .
28.3(28) . . .
33.8(31) . . .
34.0(32) . . .
34.3(33) . . .
40(4) . . .
37.5(32) . . .
33.1(31) . . .
32.3(32) . . .
40(4) . . .
32.0(30) . . .
43.5(35) . . .
38.8(33) . . .
39(4) . . .
32.0(31) . . .
33.5(32) . . .
41.3(34) . . .
45(4) . . .
34.1(32) . . .
37.3(34) . . .
37.4(32) . . .
34.6(31) . . .
32.5(31) . . .
29.3(28) . . .
34.4(32) . . .
29.5(29) . . .
28.2(28) . . .
36.8(33) . . .
32.6(30) . . .
27.3(29) . . .
32.3(31) . . .
30.7(29) . . .
44(4) . . .
37.1(34) . . .
44(4) . . .
39.8(33) . . .
39.1(33) . . .
38.6(35) . . .
37.0(34) . . .
32.9(30) . . .
36.2(31) . . .
33.8(30) . . .
38.4(33) . . .
39.1(34) . . .
34.9(31) . . .
48(4) . . .
28.4(27) . . .
52(4) . . .
36.8(32) . . .
44(4) . . .
44.5(35) . . .
33.0(30) . . .
34.5(31) . . .
41(4) . . .
34.2(32) . . .
41.6(34) . . .
44.0(35) . . .
36.1(31) . . .
39.6(35) . . .
33.7(30) . . .
40.2(33) . . .
37.0(32) . . .
42(4) . . .
34.3(31) . . .
35.9(32) . . .
40.3(33) . . .
45(4) . . .
38.2(34) . . .
30.5(30) . . .
40.4(35) . . .
26.9(27) . . .
33.0(31) . . .
43(4) . . .
34.3(32) . . .
38.9(33) . . .
39.0(33) . . .
36.5(32) . . .
35.8(33) . . .
29.8(29) . . .
24.4(27) . . .
31.9(29) . . .
34.2(31) . . .
32.6(32) . . .
38.1(35) . . .
43.2(35) . . .
45(4) . . .
37.3(34) . . .
33.8(33) . . .
31.4(32) . . .
32.7(29) . . .
38.3(33) . . .
31.8(29) . . .
32.6(31) . . .
33.8(32) . . .
42.1(34) . . .
31.7(29) . . .
36.9(34) . . .
35.6(33) . . .
33.3(31) . . .
36.4(32) . . .
35.6(31) . . .
36.8(32) . . .
33.0(32) . . .
39(4) . . .
37.2(32) . . .
37.1(32) . . .
40.6(34) . . .
27.6(29) . . .
41.0(34) . . .
30.9(29) . . .
35.0(31) . . .
39.8(35) . . .
40(4) . . .
27.9(28) . . .
41.0(33) . . .
36.3(32) . . .
35.8(33) . . .
30.0(30) . . .
38.3(34) . . .
38.2(33) . . .
28.3(30) . . .
31.7(30) . . .
31.5(30) . . .
32.1(32) . . .
33.5(30) . . .
38.7(33) . . .
36.8(34) . . .
37.0(33) . . .
33.0(31) . . .
32.8(30) . . .
44(4) . . .
35.9(34) . . .
29.5(32) . . .
33.9(31) . . .
32.0(29) . . .
31.7(30) . . .
34.5(34) . . .
43(4) . . .
37.7(33) . . .
40.6(34) . . .
29.9(31) . . .
34.4(34) . . .
34.7(33) . . .
36.7(32) . . .
35.2(31) . . .
39(4) . . .
34.1(31) . . .
37.6(32) . . .
53(4) . . .
36.4(31) . . .
34.8(32) . . .
33.7(33) . . .
27.8(30) . . .
30.1(29) . . .
39.6(33) . . .
32.0(32) . . .
29.9(29) . . .
33.7(31) . . .
36.8(32) . . .
42.0(35) . . .
29.7(29) . . .
34.2(31) . . .
44(4) . . .
38.4(33) . . .
33.0(32) . . .
27.7(27) . . .
43(4) . . .
39.7(35) . . .
36.7(32) . . .
34.9(32) . . .
30.5(30) . . .
36.3(31) . . .
39.7(32) . . .
37.3(32) . . .
35.6(31) . . .
37.0(34) . . .
25.5(27) . . .
42.4(34) . . .
39.7(33) . . .
36.1(33) . . .
39.6(35) . . .
30.0(29) . . .
36.7(32) . . .
39.3(33) . . .
35.6(33) . . .
37.0(32) . . .
37.2(32) . . .
34.6(30) . . .
41.2(33) . . .
45(4) . . .
39(4) . . .
31.9(32) . . .
34.4(30) . . .
33.3(29) . . .
38.1(32) . . .
44(4) . . .
36.5(32) . . .
37.2(32) . . .
28.0(29) . . .
33.1(32) . . .
40.3(35) . . .
33.2(31) . . .
31.4(29) . . .
35.9(33) . . .
41(4) . . .
39.3(34) . . .
35.5(31) . . .
37.1(32) . . .
38.8(32) . . .
33.2(29) . . .
37.9(34) . . .
37.2(34) . . .
36.1(32) . . .
41.3(34) . . .
32.5(32) . . .
33.5(32) . . .
35.3(32) . . .
41.3(33) . . .
35.7(32) . . .
36.5(34) . . .
42.2(35) . . .
37.5(32) . . .
38.8(32) . . .
34.1(33) . . .
29.9(30) . . .
36.1(33) . . .
36.8(31) . . .
30.3(29) . . .
33.8(31) . . .
34.2(31) . . .
35.6(33) . . .
38.9(32) . . .
30.7(29) . . .
40.2(34) . . .
35.1(35) . . .
32.8(31) . . .
42.0(33) . . .
41.7(34) . . .
34.6(31) . . .
42(4) . . .
40(4) . . .
34.4(30) . . .
39.3(33) . . .
38.0(33) . . .
36.2(34) . . .
36.5(34) . . .
33.5(30) . . .
34.5(31) . . .
33.9(31) . . .
35.5(32) . . .
32.3(29) . . .
47(4) . . .
41.1(34) . . .
37.4(32) . . .
32.9(33) . . .
32.8(31) . . .
37.7(32) . . .
40.4(34) . . .
38.7(35) . . .
30.2(30) . . .
38(4) . . .
33.4(30) . . .
37.8(32) . . .
31.6(30) . . .
29.3(29) . . .
30.6(28) . . .
34.0(30) . . .
29.3(29) . . .
40.1(35) . . .
37.8(33) . . .
38.3(34) . . .
44.4(34) . . .
45(4) . . .
30.6(30) . . .
37.4(34) . . .
33.5(30) . . .
34.2(31) . . .
36(4) . . .
28.5(30) . . .
35.5(34) . . .
24.6(26) . . .
36.9(32) . . .
32.6(30) . . .
31.6(30) . . .
36.7(34) . . .
36.2(32) . . .
40.2(33) . . .
29.2(30) . . .
32.3(32) . . .
36.7(33) . . .
36.8(31) . . .
42.0(34) . . .
35.0(30) . . .
39.0(34) . . .
40.0(35) . . .
34.9(31) . . .
28.1(28) . . .
32.4(32) . . .
43(4) . . .
24.8(26) . . .
32.7(30) . . .
35.4(31) . . .
36.1(31) . . .
27.5(28) . . .
27.3(28) . . .
38.1(32) . . .
36.5(33) . . .
30.3(29) . . .
42(4) . . .
37.0(32) . . .
42.6(34) . . .
34.7(31) . . .
27.2(28) . . .
31.4(30) . . .
35.7(32) . . .
30.7(29) . . .
35.7(32) . . .
34.8(32) . . .
33.5(32) . . .
29.0(29) . . .
31.1(29) . . .
36.2(33) . . .
40(4) . . .
35.8(33) . . .
41.2(35) . . .
34.6(30) . . .
35.3(32) . . .
35.9(32) . . .
35.3(33) . . .
36.2(31) . . .
34.8(31) . . .
37.8(35) . . .
41(4) . . .
36.0(34) . . .
47(4) . . .
37.4(32) . . .
40.7(34) . . .
37.9(35) . . .
36.1(32) . . .
36.4(31) . . .
32.3(30) . . .
29.2(31) . . .
38.1(34) . . .
38.2(32) . . .
35.0(32) . . .
32.4(29) . . .
36.8(34) . . .
30.9(30) . . .
38.0(33) . . .
40.0(33) . . .
33.5(30) . . .
37.8(33) . . .
34.1(31) . . .
41.0(34) . . .
36.7(32) . . .
34.9(31) . . .
34.2(31) . . .
33.5(33) . . .
27.7(28) . . .
31.4(29) . . .
36.9(32) . . .
33.2(34) . . .
36.1(32) . . .
40.2(34) . . .
33.0(30) . . .
39.3(34) . . .
31.4(29) . . .
31.5(30) . . .
36.0(32) . . .
41.0(33) . . .
37.0(32) . . .
32.6(31) . . .
33.6(32) . . .
27.8(28) . . .
33.7(30) . . .
38.7(34) . . .
35.3(31) . . .
40(4) . . .
28.1(31) . . .
32.3(29) . . .
40.4(34) . . .
36.1(32) . . .
39.5(34) . . .
38.1(35) . . .
31.7(30) . . .
33.0(31) . . .
39(4) . . .
34.3(32) . . .
32.0(29) . . .
41.6(33) . . .
38.1(32) . . .
36.1(32) . . .
40.5(34) . . .
33.6(30) . . .
37.6(32) . . .
38.5(33) . . .
29.2(29) . . .
31.1(29) . . .
28.6(28) . . .
33.5(30) . . .
35.5(32) . . .
41(4) . . .
33.1(30) . . .
39.1(33) . . .
30.4(29) . . .
38.6(33) . . .
37.8(34) . . .
32.4(30) . . .
29.9(28) . . .
28.8(27) . . .
36.6(33) . . .
33.1(33) . . .
41(4) . . .
43.3(34) . . .
29.3(30) . . .
29.8(29) . . .
29.8(29) . . .
34.7(31) . . .
41.1(33) . . .
36.5(32) . . .
45(4) . . .
31.4(30) . . .
36.3(32) . . .
24.2(26) . . .
32.6(30) . . .
40.4(35) . . .
39.8(33) . . .
35.1(32) . . .
25.9(27) . . .
44(4) . . .
29.3(28) . . .
34.5(33) . . .
32.1(30) . . .
33.0(30) . . .
45(4) . . .
40(4) . . .
40(4) . . .
43.2(34) . . .
34.3(30) . . .
35.4(31) . . .
33.5(32) . . .
30.6(30) . . .
31.4(29) . . .
35.6(31) . . .
30.1(28) . . .
33.5(32) . . .
33.2(30) . . .
32.4(29) . . .
43.3(34) . . .
30.2(30) . . .
39(4) . . .
46(4) . . .
32.7(29) . . .
39.1(33) . . .
31.8(30) . . .
37.1(33) . . .
34.4(30) . . .
34.5(30) . . .
35.5(31) . . .
40.7(34) . . .
33.7(32) . . .
33.7(31) . . .
31.6(29) . . .
36.4(31) . . .
36.0(31) . . .
38.2(34) . . .
33.4(32) . . .
39.4(33) . . .
39.7(33) . . .
37.5(34) . . .
47(4) . . .
33.1(31) . . .
32.0(29) . . .
32.6(31) . . .
40(4) . . .
33.4(31) . . .
35.8(31) . . .
37.3(32) . . .
37.9(33) . . .
28.7(30) . . .
38.4(33) . . .
52(4) . . .
34.1(30) . . .
39.5(35) . . .
34.2(33) . . .
38.6(35) . . .
37.0(32) . . .
41.5(34) . . .
33.2(31) . . .
32.7(32) . . .
32.9(30) . . .
39.3(32) . . .
30.8(29) . . .
38.4(34) . . .
34.3(32) . . .
32.7(31) . . .
36.4(31) . . .
40.6(33) . . .
31.2(29) . . .
34.2(33) . . .
41(4) . . .
30.3(30) . . .
33.2(30) . . .
36(4) . . .
47(4) . . .
49(4) . . .
36.6(31) . . .
31.8(29) . . .
36.8(33) . . .
34.1(33) . . .
32.8(29) . . .
35.5(31) . . .
34.7(31) . . .
43(4) . . .
40.5(34) . . .
37.1(32) . . .
35.6(31) . . .
36.4(32) . . .
34.1(32) . . .
37.4(32) . . .
32.4(31) . . .
31.4(29) . . .
27.7(28) . . .
28.4(30) . . .
40(4) . . .
27.5(27) . . .
26.2(27) . . .
39(4) . . .
32.4(30) . . .
33.8(30) . . .
27.8(27) . . .
35.6(32) . . .
45(4) . . .
38(4) . . .
36.6(33) . . .
33.3(30) . . .
33.9(30) . . .
34.8(31) . . .
37(4) . . .
35.6(35) . . .
35.2(31) . . .
38.2(32) . . .
37.3(33) . . .
37.1(35) . . .
35.4(32) . . .
31.4(30) . . .
38.4(32) . . .
41.3(34) . . .
38.2(33) . . .
42.5(34) . . .
33.3(30) . . .
41.6(33) . . .
35.8(31) . . .
26.7(28) . . .
40(4) . . .
41.5(33) . . .
47(4) . . .
37.7(32) . . .
31.6(30) . . .
28.5(28) . . .
30.7(28) . . .
35.7(34) . . .
30.5(29) . . .
42(4) . . .
32.9(30) . . .
28.3(28) . . .
35.4(31) . . .
39(4) . . .
38.9(34) . . .
37.4(32) . . .
29.9(28) . . .
40.8(33) . . .
36.6(33) . . .
37.2(35) . . .
30.5(29) . . .
32.5(30) . . .
28.3(31) . . .
30.9(31) . . .
42(4) . . .
34.9(31) . . .
29.7(29) . . .
39.7(34) . . .
35.6(32) . . .
30.2(29) . . .
32.3(31) . . .
30.2(28) . . .
40(4) . . .
24.9(28) . . .
25.0(28) . . .
31.1(31) . . .
35.4(31) . . .
46(4) . . .
37.7(34) . . .
37(4) . . .
31.4(31) . . .
35.2(32) . . .
34.3(33) . . .
31.6(33) . . .
32.0(32) . . .
32.4(30) . . .
37.2(32) . . .
35.8(34) . . .
39(4) . . .
34.9(31) . . .
35.6(31) . . .
36.0(31) . . .
41(4) . . .
29.7(30) . . .
45(4) . . .
41.9(34) . . .
43(4) . . .
30.9(29) . . .
41(4) . . .
45(4) . . .
41.4(33) . . .
29.4(29) . . .
26.9(27) . . .
29.1(31) . . .
32.7(31) . . .
35.0(31) . . .
29.8(29) . . .
36.5(35) . . .
28.7(30) . . .
36.7(33) . . .
38.2(32) . . .
38.7(34) . . .
30.2(29) . . .
37.9(34) . . .
33.3(30) . . .
46(4) . . .
36.4(33) . . .
32.8(32) . . .
35.8(33) . . .
35.0(31) . . .
41.2(34) . . .
33.9(31) . . .
43(4) . . .
32.0(30) . . .
43.4(35) . . .
32.4(30) . . .
33.1(31) . . .
35.8(35) . . .
31.0(30) . . .
34.0(30) . . .
32.9(30) . . .
30.2(29) . . .
30.6(31) . . .
30.1(30) . . .
31.7(30) . . .
40.0(33) . . .
40.5(35) . . .
43(4) . . .
36.2(33) . . .
36.3(32) . . .
37.3(31) . . .
32.7(31) . . .
34.8(33) . . .
37.2(33) . . .
45(4) . . .
31.5(30) . . .
37.8(32) . . .
42(4) . . .
31.3(30) . . .
26.2(27) . . .
34.6(32) . . .
31.6(32) . . .
31.7(30) . . .
35.3(32) . . .
26.2(27) . . .
34.9(33) . . .
31.8(30) . . .
30.9(30) . . .
31.3(29) . . .
29.1(28) . . .
27.0(28) . . .
35.9(34) . . .
28.4(28) . . .
43(4) . . .
45(4) . . .
35.6(31) . . .
34.8(34) . . .
33.6(33) . . .
32.5(31) . . .
33.6(30) . . .
35.2(32) . . .
33.9(33) . . .
32.2(31) . . .
33.4(30) . . .
32.2(30) . . .
39.3(33) . . .
39(4) . . .
32.0(30) . . .
39.6(34) . . .
27.7(28) . . .
33.5(31) . . .
35(4) . . .
24.6(26) . . .
35.3(31) . . .
40.6(34) . . .
30.5(30) . . .
28.9(30) . . .
35.2(32) . . .
30.6(29) . . .
37.1(32) . . .
40.5(34) . . .
31.9(32) . . .
26.5(28) . . .
37.4(31) . . .
39.6(33) . . .
34.8(32) . . .
29.4(28) . . .
25.4(26) . . .
28.5(28) . . .
36.4(32) . . .
30.3(28) . . .
34.7(32) . . .
40.5(35) . . .
37.5(32) . . .
34.9(31) . . .
38.4(33) . . .
34.5(32) . . .
40.3(34) . . .
33.8(30) . . .
41(4) . . .
33.3(34) . . .
30.1(31) . . .
34.2(32) . . .
33.7(31) . . .
32.9(31) . . .
31.3(29) . . .
36.6(32) . . .
43(4) . . .
35.9(31) . . .
31.0(31) . . .
34.0(33) . . .
33.8(32) . . .
37.4(31) . . .
39.2(33) . . .
34.6(34) . . .
36.2(32) . . .
38.0(33) . . .
39.4(33) . . .
39.0(32) . . .
31.8(28) . . .
33.0(31) . . .
26.1(27) . . .
29.1(28) . . .
27.5(27) . . .
41.0(34) . . .
37.6(32) . . .
24.8(25) . . .
43.3(34) . . .
39.8(33) . . .
35.1(33) . . .
31.5(33) . . .
27.2(28) . . .
30.1(29) . . .
37.1(32) . . .
38(4) . . .
42.7(35) . . .
42.5(34) . . .
39.2(32) . . .
32.4(30) . . .
36.1(33) . . .
34.5(32) . . .
31.1(31) . . .
40.4(33) . . .
39.0(33) . . .
42(4) . . .
31.1(30) . . .
31.8(29) . . .
38.5(33) . . .
38.7(32) . . .
36.3(33) . . .
36.7(33) . . .
37.6(33) . . .
25.2(27) . . .
36.0(32) . . .
33.5(31) . . .
37.0(34) . . .
34.3(31) . . .
28.0(27) . . .
29.3(29) . . .
36.4(32) . . .
32.8(30) . . .
33.3(30) . . .
36.2(31) . . .
36.0(33) . . .
38.8(35) . . .
36.7(34) . . .
30.3(29) . . .
29.9(29) . . .
24.7(25) . . .
34.1(33) . . .
33.8(32) . . .
29.0(29) . . .
40.2(33) . . .
33.4(32) . . .
27.5(29) . . .
29.5(31) . . .
33.9(30) . . .
34.4(31) . . .
41.9(34) . . .
40(4) . . .
44(4) . . .
37.7(32) . . .
33.9(32) . . .
35.6(33) . . .
36.7(34) . . .
46(4) . . .
33.0(31) . . .
33.4(30) . . .
30.8(29) . . .
32.8(31) . . .
32.5(33) . . .
37.7(33) . . .
38.1(33) . . .
33.7(30) . . .
36.8(31) . . .
32.5(30) . . .
35.0(31) . . .
38.1(33) . . .
34.5(32) . . .
31.5(31) . . .
39.5(34) . . .
30.9(29) . . .
33.0(32) . . .
26.7(28) . . .
34.2(32) . . .
34.7(31) . . .
35.4(32) . . .
38.2(33) . . .
37.4(34) . . .
29.5(30) . . .
30.3(28) . . .
34.8(31) . . .
38.5(34) . . .
33.8(31) . . .
29.8(29) . . .
34.2(30) . . .
37.8(32) . . .
28.0(28) . . .
30.3(31) . . .
36.5(32) . . .
36.2(33) . . .
29.4(28) . . .
35.8(35) . . .
37.0(35) . . .
37.2(32) . . .
36.7(32) . . .
32.0(30) . . .
29.0(31) . . .
30.1(33) . . .
34.1(31) . . .
36.8(31) . . .
27.6(27) . . .
37.8(33) . . .
38(4) . . .
32.2(30) . . .
36.5(32) . . .
41(4) . . .
30.7(30) . . .
40(4) . . .
32.1(30) . . .
30.3(29) . . .
33.0(30) . . .
39.2(33) . . .
37.9(33) . . .
30.4(32) . . .
28.9(28) . . .
33.7(33) . . .
29.7(30) . . .
24.5(27) . . .
38.4(34) . . .
29.9(29) . . .
36.2(31) . . .
29.8(29) . . .
33.2(32) . . .
38.1(33) . . .
32.9(29) . . .
39.5(34) . . .
35.7(33) . . .
41(4) . . .
35.2(32) . . .
34.5(30) . . .
32.5(31) . . .
46(4) . . .
35.2(31) . . .
33.6(31) . . .
31.1(29) . . .
35.0(33) . . .
38(4) . . .
31.2(30) . . .
30.8(29) . . .
38.5(32) . . .
37.0(32) . . .
32.5(31) . . .
38.9(34) . . .
41.9(34) . . .
24.6(25) . . .
32.0(30) . . .
38.2(35) . . .
35.9(32) . . .
24.3(26) . . .
31.2(29) . . .
32.9(32) . . .
31.6(30) . . .
28.7(28) . . .
34.3(31) . . .
35.1(31) . . .
29.8(29) . . .
28.5(29) . . .
37.6(33) . . .
33.8(30) . . .
37.2(33) . . .
41.6(34) . . .
37.9(32) . . .
28.2(28) . . .
30.4(29) . . .
31.3(31) . . .
31.8(31) . . .
36.1(35) . . .
35(4) . . .
31.7(29) . . .
30.2(29) . . .
35.2(31) . . .
33.6(31) . . .
30.2(30) . . .
37.1(32) . . .
32.5(30) . . .
30.3(30) . . .
29.3(30) . . .
31.3(30) . . .
26.4(27) . . .
37.7(35) . . .
29.3(29) . . .
38.7(35) . . .
33.8(30) . . .
29.0(28) . . .
30.0(29) . . .
35.0(33) . . .
37.3(34) . . .
34.7(30) . . .
35.8(31) . . .
35.3(33) . . .
35.9(33) . . .
27.5(28) . . .
33.6(30) . . .
38.4(32) . . .
31.2(31) . . .
34.7(35) . . .
35.5(32) . . .
42.5(34) . . .
36.0(32) . . .
44(4) . . .
40(4) . . .
35.8(32) . . .
31.6(29) . . .
32.5(31) . . .
34.3(30) . . .
37.3(34) . . .
24.2(26) . . .
29.2(28) . . .
37.3(32) . . .
35.2(31) . . .
38.8(34) . . .
31.9(29) . . .
30.8(29) . . .
32.8(30) . . .
35.5(33) . . .
27.7(27) . . .
31.7(31) . . .
41.9(33) . . .
33.2(30) . . .
36.1(32) . . .
35.5(31) . . .
36.4(33) . . .
29.2(29) . . .
32.1(29) . . .
36.4(34) . . .
29.2(28) . . .
31.3(29) . . .
35.2(31) . . .
34.3(33) . . .
42(4) . . .
26.0(29) . . .
32.1(31) . . .
40.2(33) . . .
29.1(28) . . .
37(4) . . .
35.5(32) . . .
35.6(33) . . .
35.5(31) . . .
34.1(31) . . .
31.2(30) . . .
35.3(32) . . .
31.7(30) . . .
21.5(24) . . .
33.2(33) . . .
32.9(32) . . .
33.3(30) . . .
35.2(31) . . .
29.3(28) . . .
30.3(30) . . .
42(4) . . .
29.7(31) . . .
31.8(30) . . .
35.5(31) . . .
32.3(29) . . .
34.9(31) . . .
44(4) . . .
34.5(30) . . .
42.8(35) . . .
41(4) . . .
40(4) . . .
34.3(31) . . .
38.8(32) . . .
33.7(30) . . .
31.9(30) . . .
37.6(33) . . .
34.9(31) . . .
36.9(32) . . .
38.2(33) . . .
29.1(28) . . .
32.3(32) . . .
27.5(29) . . .
35.2(31) . . .
40.8(34) . . .
30.1(28) . . .
36.8(34) . . .
32.8(30) . . .
33.6(30) . . .
42.0(34) . . .
43(4) . . .
26.5(28) . . .
30.5(30) . . .
32.1(30) . . .
31.1(31) . . .
24.0(27) . . .
39(4) . . .
32.0(29) . . .
30.6(29) . . .
28.2(28) . . .
32.6(31) . . .
43(4) . . .
37.1(32) . . .
30.6(29) . . .
37.1(32) . . .
45(4) . . .
36.6(32) . . .
36.2(32) . . .
26.7(27) . . .
34.4(32) . . .
37.0(33) . . .
33.0(32) . . .
33.4(30) . . .
36.0(31) . . .
33.8(30) . . .
41(4) . . .
31.3(29) . . .
35.6(31) . . .
34.9(32) . . .
32.6(32) . . .
41(4) . . .
38.3(33) . . .
40.1(34) . . .
47(4) . . .
32.2(31) . . .
30.7(30) . . .
36.0(31) . . .
39.9(33) . . .
41(4) . . .
34.8(33) . . .
33.7(31) . . .
41.0(33) . . .
34.8(31) . . .
33.9(32) . . .
32.9(32) . . .
31.0(30) . . .
35.2(32) . . .
32.5(30) . . .
34.2(33) . . .
29.3(28) . . .
34.5(30) . . .
36.2(31) . . .
32.3(31) . . .
33.6(31) . . .
31.6(31) . . .
39.1(35) . . .
35.6(31) . . .
33.5(31) . . .
34.3(32) . . .
33.5(30) . . .
37.5(32) . . .
35.4(31) . . .
32.7(30) . . .
40.8(34) . . .
37.9(34) . . .
29.0(28) . . .
37.0(32) . . .
34.2(30) . . .
39.2(34) . . .
35.4(33) . . .
36.3(32) . . .
29.5(28) . . .
34.0(31) . . .
34.2(31) . . .
33.7(32) . . .
32.5(30) . . .
34.5(31) . . .
33.0(30) . . .
33.6(33) . . .
31.1(32) . . .
39(4) . . .
31.3(30) . . .
34.9(31) . . .
36.6(32) . . .
30.4(29) . . .
28.5(28) . . .
34.2(31) . . .
35.3(33) . . .
36.6(33) . . .
35.0(35) . . .
32.2(32) . . .
32.8(29) . . .
33.3(30) . . .
46(4) . . .
29.1(28) . . .
26.5(27) . . .
30.8(29) . . .
40(4) . . .
31.7(33) . . .
43(4) . . .
33.4(30) . . .
24.7(26) . . .
22.2(26) . . .
32.6(32) . . .
39.6(34) . . .
38.0(34) . . .
28.2(27) . . .
36.6(33) . . .
38(4) . . .
30.8(31) . . .
21.2(24) . . .
30.8(29) . . .
35.2(33) . . .
35.3(34) . . .
40.7(34) . . .
40.6(34) . . .
29.5(29) . . .
32.7(31) . . .
31.4(31) . . .
33.6(31) . . .
33.3(29) . . .
34.6(32) . . .
31.3(30) . . .
32.6(34) . . .
29.6(29) . . .
32.7(30) . . .
26.6(27) . . .
31.4(32) . . .
21.1(24) . . .
28.5(28) . . .
35.4(31) . . .
28.6(28) . . .
43(4) . . .
35.0(33) . . .
31.6(29) . . .
41.9(33) . . .
37.8(32) . . .
35.3(33) . . .
28.8(30) . . .
28.8(29) . . .
30.2(28) . . .
27.7(28) . . .
27.2(28) . . .
26.6(28) . . .
23.4(27) . . .
30.0(29) . . .
31.1(29) . . .
30.2(29) . . .
37.5(34) . . .
30.5(29) . . .
38.1(32) . . .
31.9(30) . . .
36.7(32) . . .
38.9(34) . . .
30.8(30) . . .
27.3(27) . . .
36.5(32) . . .
39.0(34) . . .
32.8(30) . . .
28.7(28) . . .
31.9(30) . . .
32.9(30) . . .
30.9(32) . . .
28.3(28) . . .
37.6(33) . . .
30.3(29) . . .
31.8(29) . . .
31.7(29) . . .
37.5(33) . . .
24.2(25) . . .
33.4(30) . . .
29.2(29) . . .
34.0(33) . . .
34.7(31) . . .
36.0(31) . . .
33.3(30) . . .
30.6(31) . . .
29.2(31) . . .
24.0(25) . . .
42.0(34) . . .
39.8(35) . . .
36.8(33) . . .
39(4) . . .
30.8(30) . . .
31.2(29) . . .
35.7(33) . . .
35.1(32) . . .
27.5(29) . . .
31.7(30) . . .
36.0(31) . . .
33.0(30) . . .
33.1(32) . . .
34.6(31) . . .
35.0(31) . . .
33.8(30) . . .
34.6(31) . . .
34.7(30) . . .
33.9(30) . . .
35.4(31) . . .
36.1(31) . . .
31.4(29) . . .
36.4(32) . . .
31.4(30) . . .
24.1(26) . . .
34.7(30) . . .
26.1(27) . . .
36.1(34) . . .
33.2(30) . . .
31.4(29) . . .
31.0(29) . . .
34.2(33) . . .
42(4) . . .
38.9(33) . . .
33.8(31) . . .
27.8(27) . . .
30.9(31) . . .
32.6(33) . . .
29.3(28) . . .
34.3(31) . . .
30.8(29) . . .
26.6(27) . . .
29.8(32) . . .
30.7(30) . . .
37.3(32) . . .
37.4(33) . . .
34.5(31) . . .
29.4(29) . . .
27.4(28) . . .
28.2(28) . . .
30.3(28) . . .
36.2(32) . . .
29.4(29) . . .
32.0(31) . . .
35.4(31) . . .
33.9(30) . . .
33.9(30) . . .
32.7(30) . . .
34.8(32) . . .
35.2(30) . . .
34.0(30) . . .
35.9(33) . . .
38.0(33) . . .
30.7(30) . . .
38.5(32) . . .
41.1(34) . . .
29.8(29) . . .
31.3(31) . . .
27.4(27) . . .
27.1(27) . . .
38.0(33) . . .
34.6(31) . . .
39.4(35) . . .
31.1(29) . . .
40.0(34) . . .
32.7(32) . . .
33.0(31) . . .
32.0(30) . . .
34.3(30) . . .
41.0(33) . . .
38(4) . . .
35.9(33) . . .
36.1(31) . . .
34.6(31) . . .
37.0(33) . . .
30.9(30) . . .
38(4) . . .
29.7(28) . . .
31.4(30) . . .
39.8(34) . . .
32.1(31) . . .
31.0(31) . . .
23.1(24) . . .
39.4(32) . . .
31.2(29) . . .
32.7(31) . . .
32.6(32) . . .
32.8(31) . . .
33.9(31) . . .
34.3(31) . . .
32.3(31) . . .
33.5(31) . . .
39(4) . . .
27.4(29) . . .
34.9(31) . . .
31.3(30) . . .
31.9(31) . . .
30.9(29) . . .
30.1(29) . . .
31.7(32) . . .
30.3(30) . . .
29.8(28) . . .
34.1(31) . . .
30.1(29) . . .
35.7(31) . . .
34.4(32) . . .
33.3(32) . . .
31.0(29) . . .
38.4(32) . . .
35.9(32) . . .
32.9(34) . . .
31.0(30) . . .
36.4(31) . . .
34.0(30) . . .
33.7(31) . . .
34.1(33) . . .
34.3(33) . . .
33.0(30) . . .
41.9(34) . . .
36.6(33) . . .
30.7(31) . . .
34.2(31) . . .
33.8(32) . . .
34.8(31) . . .
34.0(31) . . .
42(4) . . .
31.0(29) . . .
33.2(30) . . .
36.1(31) . . .
32.8(31) . . .
33.3(33) . . .
40(4) . . .
34.1(30) . . .
34.0(31) . . .
31.1(32) . . .
34.2(32) . . .
33.7(33) . . .
37.4(32) . . .
37.8(32) . . .
44(4) . . .
39(4) . . .
35.6(32) . . .
37.2(34) . . .
33.5(30) . . .
30.5(31) . . .
35.2(34) . . .
24.9(27) . . .
30.2(29) . . .
30.8(31) . . .
39.4(33) . . .
36.7(33) . . .
32.7(30) . . .
32.5(29) . . .
33.5(33) . . .
37.5(34) . . .
30.0(29) . . .
38.5(33) . . .
41.8(34) . . .
38.8(33) . . .
31.8(30) . . .
33.3(32) . . .
38.7(34) . . .
37.2(32) . . .
26.8(27) . . .
30.7(31) . . .
34.1(33) . . .
30.3(28) . . .
29.4(28) . . .
26.2(28) . . .
31.6(32) . . .
27.4(28) . . .
35.5(31) . . .
32.0(29) . . .
33.0(30) . . .
38(4) . . .
39.7(34) . . .
33.5(30) . . .
30.2(30) . . .
27.2(27) . . .
32.0(31) . . .
37.3(33) . . .
39.3(32) . . .
32.3(31) . . .
40.2(33) . . .
35.6(34) . . .
26.7(27) . . .
31.4(30) . . .
34.3(31) . . .
30.2(30) . . .
36.8(34) . . .
34.2(32) . . .
31.4(29) . . .
35.8(31) . . .
34.0(31) . . .
34.5(32) . . .
29.2(29) . . .
32.8(30) . . .
38.3(32) . . .
32.0(32) . . .
31.3(31) . . .
33.5(32) . . .
34.6(30) . . .
30.0(28) . . .
35.2(31) . . .
23.7(24) . . .
41(4) . . .
33.1(30) . . .
29.2(28) . . .
31.1(32) . . .
32.5(31) . . .
41(4) . . .
28.5(28) . . .
29.6(30) . . .
33.1(31) . . .
36.3(33) . . .
35.9(32) . . .
38.5(32) . . .
37.3(32) . . .
38.9(34) . . .
36.0(33) . . .
29.1(28) . . .
32.4(29) . . .
31.4(31) . . .
41(4) . . .
26.1(27) . . .
34.9(32) . . .
25.9(27) . . .
31.3(30) . . .
35.2(32) . . .
33.5(31) . . .
32.2(30) . . .
38.5(33) . . .
33.2(32) . . .
27.9(30) . . .
33.1(32) . . .
30.4(29) . . .
29.0(28) . . .
33.8(32) . . .
31.4(32) . . .
32.0(31) . . .
34.7(31) . . .
42.3(34) . . .
37.8(32) . . .
37.4(34) . . .
39.1(34) . . .
25.4(27) . . .
33.1(30) . . .
34.0(33) . . .
31.2(32) . . .
38(4) . . .
36.5(32) . . .
29.1(29) . . .
37.7(33) . . .
36.5(34) . . .
26.7(28) . . .
32.0(30) . . .
34.8(33) . . .
33.7(32) . . .
28.1(29) . . .
26.0(28) . . .
30.2(28) . . .
39(4) . . .
31.6(30) . . .
35.2(32) . . .
27.1(28) . . .
34.1(30) . . .
32.6(31) . . .
28.0(28) . . .
37.9(34) . . .
28.0(28) . . .
28.6(28) . . .
36.2(34) . . .
37.9(34) . . .
35.1(32) . . .
39.0(33) . . .
34.5(31) . . .
36.0(33) . . .
39.3(33) . . .
35.7(31) . . .
24.8(27) . . .
33.5(31) . . .
24.0(27) . . .
27.6(31) . . .
28.0(29) . . .
28.0(28) . . .
35.3(31) . . .
29.8(29) . . .
36.3(33) . . .
33.1(31) . . .
28.8(28) . . .
26.9(27) . . .
30.8(29) . . .
31.4(30) . . .
34.7(31) . . .
36.3(31) . . .
30.3(28) . . .
31.5(29) . . .
34.8(33) . . .
33.7(35) . . .
32.6(30) . . .
31.0(31) . . .
34.2(33) . . .
34.5(31) . . .
37.9(32) . . .
31.2(29) . . .
32.1(32) . . .
29.7(30) . . .
38.3(34) . . .
30.6(29) . . .
36.1(31) . . .
30.8(30) . . .
28.7(31) . . .
29.8(31) . . .
39.4(33) . . .
36.0(31) . . .
31.1(30) . . .
30.5(31) . . .
31.7(30) . . .
39.3(33) . . .
32.0(30) . . .
37.3(32) . . .
35.4(32) . . .
33.5(32) . . .
29.0(28) . . .
29.8(28) . . .
30.1(29) . . .
29.1(31) . . .
33.9(35) . . .
33.2(30) . . .
24.5(26) . . .
26.7(28) . . .
30.7(31) . . .
34.0(31) . . .
31.5(29) . . .
27.5(27) . . .
23.3(26) . . .
28.9(30) . . .
38.4(34) . . .
26.7(27) . . .
30.3(30) . . .
36.6(32) . . .
32.6(30) . . .
27.7(28) . . .
34.5(31) . . .
30.0(29) . . .
26.6(28) . . .
32.5(31) . . .
33.2(31) . . .
24.0(26) . . .
35.0(32) . . .
32.0(31) . . .
28.3(29) . . .
25.3(28) . . .
34.9(32) . . .
34.0(32) . . .
33.2(31) . . .
29.6(28) . . .
36.3(31) . . .
28.0(27) . . .
36.8(33) . . .
40(4) . . .
34.6(32) . . .
28.1(28) . . .
36.9(32) . . .
27.6(30) . . .
29.2(32) . . .
30.5(30) . . .
34.6(31) . . .
32.0(30) . . .
31.6(31) . . .
35.7(33) . . .
30.9(30) . . .
29.4(28) . . .
36.5(31) . . .
32.8(30) . . .
41(4) . . .
35.3(31) . . .
32.1(29) . . .
32.1(30) . . .
32.4(30) . . .
36.4(32) . . .
35.8(32) . . .
36.5(32) . . .
27.4(27) . . .
26.1(28) . . .
34.1(33) . . .
35.8(31) . . .
39.1(32) . . .
30.1(29) . . .
28.9(29) . . .
28.9(30) . . .
26.4(26) . . .
31.9(30) . . .
29.2(30) . . .
39(4) . . .
30.2(31) . . .
44(4) . . .
34.1(30) . . .
22.3(25) . . .
29.1(29) . . .
30.0(31) . . .
36.1(32) . . .
33.3(30) . . .
35.8(32) . . .
37.8(33) . . .
37.4(35) . . .
32.9(32) . . .
36.3(32) . . .
38.4(32) . . .
33.1(31) . . .
28.9(29) . . .
33.5(31) . . .
31.3(29) . . .
33.5(32) . . .
30.6(31) . . .
28.4(27) . . .
34.5(31) . . .
40.5(33) . . .
43.2(35) . . .
40.2(33) . . .
29.4(28) . . .
29.3(29) . . .
39.3(33) . . .
34.5(31) . . .
43(4) . . .
37.0(32) . . .
35.3(32) . . .
36.6(33) . . .
30.6(29) . . .
28.7(30) . . .
30.8(31) . . .
27.2(27) . . .
35.0(31) . . .
36.0(33) . . .
42(4) . . .
32.8(32) . . .
31.1(30) . . .
29.3(28) . . .
35.1(32) . . .
36.7(34) . . .
36.8(33) . . .
37.9(32) . . .
30.8(30) . . .
32.2(34) . . .
36.3(35) . . .
37.3(35) . . .
41.0(33) . . .
31.6(30) . . .
30.4(29) . . .
28.3(28) . . .
28.0(29) . . .
30.2(29) . . .
40.8(33) . . .
36.3(32) . . .
29.6(30) . . .
35.6(33) . . .
32.5(30) . . .
32.7(30) . . .
31.6(30) . . .
34.7(31) . . .
38.5(34) . . .
28.9(28) . . .
32.5(30) . . .
38(4) . . .
35.3(33) . . .
31.0(29) . . .
38.1(32) . . .
32.2(29) . . .
41(4) . . .
30.7(29) . . .
33.8(31) . . .
35.5(32) . . .
28.9(29) . . .
33.2(32) . . .
32.0(30) . . .
33.6(31) . . .
29.6(29) . . .
30.3(29) . . .
35.2(34) . . .
33.7(32) . . .
29.2(30) . . .
32.9(30) . . .
29.6(28) . . .
31.9(31) . . .
25.6(27) . . .
37.0(33) . . .
39.4(32) . . .
28.6(28) . . .
39(4) . . .
37.8(32) . . .
35.0(31) . . .
38.9(33) . . .
34.7(33) . . .
33.8(33) . . .
25.3(26) . . .
33.5(30) . . .
32.6(29) . . .
30.5(29) . . .
34.9(33) . . .
35.5(33) . . .
35.9(31) . . .
28.8(31) . . .
26.0(28) . . .
33.7(33) . . .
31.7(31) . . .
39.1(33) . . .
34.5(32) . . .
36.8(33) . . .
28.0(28) . . .
30.8(31) . . .
28.3(28) . . .
29.0(29) . . .
31.2(30) . . .
41.5(35) . . .
28.0(28) . . .
24.3(26) . . .
28.0(29) . . .
29.5(29) . . .
29.9(29) . . .
32.9(30) . . .
32.4(29) . . .
32.3(33) . . .
27.5(29) . . .
30.6(32) . . .
32.3(29) . . .
33.7(31) . . .
30.9(30) . . .
30.2(29) . . .
39(4) . . .
29.8(28) . . .
33.9(31) . . .
25.4(27) . . .
37.0(35) . . .
36.0(32) . . .
37.0(32) . . .
32.7(30) . . .
26.1(27) . . .
33.1(34) . . .
29.3(29) . . .
29.6(28) . . .
39.3(32) . . .
37.8(33) . . .
37.7(35) . . .
33.4(31) . . .
35.6(31) . . .
31.9(30) . . .
33.0(32) . . .
29.0(27) . . .
37.0(33) . . .
27.0(27) . . .
39.2(35) . . .
28.8(29) . . .
27.3(28) . . .
40.0(34) . . .
40.6(33) . . .
33.0(32) . . .
36.4(33) . . .
35.8(31) . . .
31.9(29) . . .
34.7(31) . . .
30.5(29) . . .
34.0(32) . . .
35.0(32) . . .
26.3(28) . . .
36.1(32) . . .
39.6(33) . . .
35.1(31) . . .
41.2(33) . . .
35.1(31) . . .
32.9(30) . . .
32.9(32) . . .
32.4(32) . . .
28.5(28) . . .
25.2(27) . . .
32.0(29) . . .
36.8(33) . . .
35(4) . . .
30.4(31) . . .
40.4(33) . . .
38.4(32) . . .
31.6(30) . . .
30.3(31) . . .
32.3(30) . . .
39.4(33) . . .
35.0(31) . . .
29.3(30) . . .
35.3(35) . . .
34.6(32) . . .
39.0(33) . . .
32.1(30) . . .
34.6(30) . . .
34.6(32) . . .
32.5(31) . . .
29.9(28) . . .
29.4(29) . . .
33.5(32) . . .
29.9(30) . . .
26.6(28) . . .
30.7(29) . . .
35.7(33) . . .
33.5(31) . . .
35.9(34) . . .
38(4) . . .
33.3(30) . . .
22.8(25) . . .
28.5(27) . . .
34.4(30) . . .
33.3(30) . . .
41.1(33) . . .
29.7(29) . . .
33.2(32) . . .
36.3(31) . . .
31.0(31) . . .
34.9(31) . . .
33.1(31) . . .
30.3(31) . . .
32.9(31) . . .
26.9(27) . . .
29.9(29) . . .
32.8(32) . . .
23.2(25) . . .
34.9(35) . . .
29.6(29) . . .
39.5(33) . . .
29.4(29) . . .
38.6(34) . . .
42.2(34) . . .
35.8(31) . . .
34.7(30) . . .
33.5(30) . . .
31.7(32) . . .
29.2(28) . . .
33.9(31) . . .
38.2(33) . . .
35.4(34) . . .
34(4) . . .
36.8(33) . . .
28.9(28) . . .
28.5(28) . . .
35.6(34) . . .
29.9(32) . . .
27.6(30) . . .
29.6(28) . . .
35.3(33) . . .
30.0(30) . . .
40(4) . . .
25.9(28) . . .
26.1(27) . . .
24.9(27) . . .
31.5(30) . . .
33.2(32) . . .
38.3(34) . . .
37.5(33) . . .
37.7(33) . . .
33.5(31) . . .
34.1(32) . . .
31.5(30) . . .
26.8(27) . . .
26.2(27) . . .
36.2(32) . . .
29.5(29) . . .
33.8(31) . . .
32.1(30) . . .
36.1(33) . . .
34.7(33) . . .
27.1(28) . . .
30.5(29) . . .
29.2(29) . . .
40(4) . . .
27.1(28) . . .
32.0(30) . . .
33.9(31) . . .
32.3(31) . . .
35.4(32) . . .
40(4) . . .
28.8(27) . . .
34.8(30) . . .
30.9(29) . . .
34.4(31) . . .
31.5(29) . . .
39.0(34) . . .
35.8(32) . . .
39.5(33) . . .
34.1(31) . . .
31.1(31) . . .
32.7(30) . . .
32.4(32) . . .
33.8(30) . . .
26.1(26) . . .
33.2(33) . . .
33.0(30) . . .
30.8(29) . . .
28.3(28) . . .
25.0(28) . . .
29.0(31) . . .
28.4(28) . . .
30.0(29) . . .
33.1(32) . . .
47(4) . . .
32.8(30) . . .
27.0(27) . . .
37.2(32) . . .
33.8(31) . . .
28.9(30) . . .
29.2(29) . . .
36.0(31) . . .
37.0(32) . . .
47(4) . . .
32.9(30) . . .
26.1(27) . . .
26.8(28) . . .
38.8(32) . . .
30.6(29) . . .
34.2(32) . . .
30.7(30) . . .
31.7(29) . . .
35.2(31) . . .
30.0(30) . . .
37.4(34) . . .
26.8(28) . . .
37.5(35) . . .
28.4(27) . . .
35.5(33) . . .
26.7(28) . . .
36.4(33) . . .
26.9(27) . . .
36.1(31) . . .
30.5(30) . . .
38(4) . . .
30.5(31) . . .
31.1(29) . . .
36.0(31) . . .
38(4) . . .
43(4) . . .
38.2(33) . . .
29.6(29) . . .
31.1(29) . . .
26.3(28) . . .
41(4) . . .
37.4(34) . . .
27.2(28) . . .
29.9(29) . . .
26.3(27) . . .
28.9(30) . . .
31.4(31) . . .
29.6(28) . . .
35.8(33) . . .
30.3(30) . . .
32.5(33) . . .
35.0(34) . . .
35.6(31) . . .
41.7(34) . . .
32.1(30) . . .
32.3(31) . . .
35.1(33) . . .
39.0(33) . . .
37.4(32) . . .
28.3(30) . . .
33.5(34) . . .
29.6(32) . . .
32.9(30) . . .
33.4(33) . . .
31.3(30) . . .
36.7(33) . . .
34.7(31) . . .
26.4(28) . . .
43(4) . . .
28.8(29) . . .
33.5(32) . . .
40(4) . . .
37.6(31) . . .
28.9(28) . . .
30.1(30) . . .
27.5(28) . . .
37.3(32) . . .
36.9(32) . . .
33.9(32) . . .
30.3(32) . . .
28.0(28) . . .
33.7(30) . . .
29.4(28) . . .
40(4) . . .
32.0(32) . . .
34.5(32) . . .
34.8(31) . . .
38.3(33) . . .
27.9(27) . . .
32.3(33) . . .
34.3(34) . . .
31.4(30) . . .
28.8(28) . . .
34.3(32) . . .
28.6(31) . . .
36.1(33) . . .
36.7(32) . . .
42.2(34) . . .
42.3(35) . . .
37.7(34) . . .
38.9(35) . . .
35.5(31) . . .
31.2(30) . . .
30.7(30) . . .
25.2(26) . . .
35.9(32) . . .
28.2(28) . . .
28.0(28) . . .
34.3(34) . . .
28.1(29) . . .
27.6(28) . . .
27.7(28) . . .
29.9(29) . . .
27.7(29) . . .
33.0(32) . . .
31.5(29) . . .
28.5(28) . . .
29.8(29) . . .
29.4(28) . . .
28.8(28) . . .
29.9(29) . . .
28.5(28) . . .
32.8(31) . . .
35.5(33) . . .
32.0(31) . . .
27.8(27) . . .
39.6(33) . . .
41(4) . . .
34.3(32) . . .
41.6(35) . . .
33.8(30) . . .
29.6(29) . . .
29.2(28) . . .
27.5(30) . . .
33.8(34) . . .
34.6(30) . . .
32.3(30) . . .
31.2(30) . . .
32.6(32) . . .
29.6(31) . . .
26.7(27) . . .
31.9(30) . . .
31.7(30) . . .
31.8(32) . . .
33.9(32) . . .
31.2(30) . . .
33.5(30) . . .
26.6(28) . . .
21.8(26) . . .
32.8(32) . . .
29.4(28) . . .
32.4(30) . . .
24.0(25) . . .
28.7(29) . . .
36.6(32) . . .
35.1(31) . . .
38.8(33) . . .
33.2(31) . . .
31.7(29) . . .
34.5(33) . . .
33.0(30) . . .
27.4(28) . . .
34.3(31) . . .
24.3(27) . . .
30.5(29) . . .
39.4(33) . . .
34.8(33) . . .
27.5(29) . . .
31.2(31) . . .
28.2(29) . . .
29.6(28) . . .
30.1(30) . . .
28.6(29) . . .
27.1(27) . . .
28.0(28) . . .
36.2(32) . . .
31.6(29) . . .
32.2(32) . . .
31.2(30) . . .
35.1(31) . . .
37.7(32) . . .
36.0(32) . . .
38.8(33) . . .
37.3(32) . . .
29.0(28) . . .
34.3(30) . . .
32.3(30) . . .
38(4) . . .
28.0(29) . . .
31.7(29) . . .
26.2(27) . . .
38.0(34) . . .
33.5(30) . . .
31.7(30) . . .
33.3(31) . . .
33.2(30) . . .
33.2(29) . . .
28.7(29) . . .
25.8(27) . . .
36.7(32) . . .
36.6(31) . . .
33.9(31) . . .
30.4(29) . . .
34.3(33) . . .
30.0(29) . . .
36.2(34) . . .
30.3(30) . . .
40.0(35) . . .
29.3(29) . . .
41.8(35) . . .
40.8(35) . . .
33.3(31) . . .
26.5(29) . . .
29.9(29) . . .
26.8(27) . . .
30.8(29) . . .
26.9(27) . . .
32.8(30) . . .
35.4(31) . . .
36.9(32) . . .
37.0(32) . . .
32.0(30) . . .
41.5(34) . . .
41.9(34) . . .
38.2(32) . . .
31.2(31) . . .
26.3(28) . . .
33.7(32) . . .
31.8(31) . . .
34.9(31) . . .
29.3(29) . . .
32.7(32) . . .
27.5(28) . . .
35.0(31) . . .
33.4(30) . . .
34.1(32) . . .
32.3(32) . . .
27.2(27) . . .
24.8(26) . . .
30.5(29) . . .
30.7(30) . . .
29.3(28) . . .
35.7(31) . . .
34.8(31) . . .
25.3(26) . . .
29.6(29) . . .
33.4(32) . . .
33.9(31) . . .
26.5(27) . . .
33.8(31) . . .
26.4(26) . . .
33.6(32) . . .
30.4(30) . . .
29.4(29) . . .
34.6(31) . . .
23.8(25) . . .
38.6(35) . . .
31.2(29) . . .
29.7(29) . . .
34.0(30) . . .
28.9(29) . . .
24.4(26) . . .
35.2(32) . . .
37.6(32) . . .
34.3(30) . . .
33.1(31) . . .
34.8(32) . . .
35.9(31) . . .
37.5(32) . . .
37.4(33) . . .
27.9(28) . . .
32.3(31) . . .
29.3(28) . . .
33.6(30) . . .
30.5(29) . . .
33.6(30) . . .
34.7(32) . . .
28.2(29) . . .
34.6(32) . . .
27.9(29) . . .
24.5(29) . . .
34.5(33) . . .
29.2(28) . . .
26.9(27) . . .
22.7(27) . . .
29.9(29) . . .
30.0(28) . . .
34.7(31) . . .
30.8(30) . . .
34.8(33) . . .
33.2(32) . . .
32.2(30) . . .
32.9(30) . . .
45(4) . . .
23.6(26) . . .
27.6(31) . . .
28.2(28) . . .
31.3(29) . . .
25.3(26) . . .
33.2(30) . . .
36.4(34) . . .
25.8(27) . . .
35.8(31) . . .
31.5(29) . . .
28.0(28) . . .
35.4(34) . . .
35.8(33) . . .
41.4(33) . . .
35.8(31) . . .
29.5(29) . . .
33.5(32) . . .
28.6(29) . . .
37.2(32) . . .
35.5(31) . . .
36.4(33) . . .
31.6(32) . . .
25.4(27) . . .
29.0(29) . . .
33.7(30) . . .
29.8(29) . . .
30.5(30) . . .
35.8(31) . . .
29.2(29) . . .
34.2(31) . . .
35.6(30) . . .
35.2(31) . . .
30.8(29) . . .
30.0(29) . . .
33.7(32) . . .
35(4) . . .
32.5(33) . . .
35.6(32) . . .
28.0(27) . . .
31.3(31) . . .
38.9(35) . . .
37.0(32) . . .
32.7(29) . . .
30.3(28) . . .
27.9(31) . . .
38(4) . . .
33.5(30) . . .
31.9(29) . . .
24.4(26) . . .
32.8(31) . . .
29.4(32) . . .
33.6(31) . . .
35.3(31) . . .
33.9(30) . . .
39.1(34) . . .
31.4(32) . . .
25.5(27) . . .
29.7(29) . . .
31.3(29) . . .
36.4(34) . . .
29.0(31) . . .
39.4(35) . . .
31.2(29) . . .
33.3(32) . . .
31.9(30) . . .
28.0(28) . . .
23.8(25) . . .
36.1(31) . . .
39.0(33) . . .
31.9(31) . . .
25.1(27) . . .
38.5(34) . . .
32.4(30) . . .
30.2(30) . . .
30.0(32) . . .
34.2(32) . . .
35.0(32) . . .
40.6(33) . . .
34.3(32) . . .
37(4) . . .
32.8(33) . . .
34.4(32) . . .
33.2(30) . . .
33.2(32) . . .
29.3(30) . . .
35.1(31) . . .
30.3(29) . . .
36.2(31) . . .
28.9(28) . . .
39(4) . . .
29.0(28) . . .
37.2(32) . . .
29.8(28) . . .
30.2(31) . . .
28.4(30) . . .
24.3(26) . . .
31.2(29) . . .
33.4(30) . . .
32.0(29) . . .
39(4) . . .
35.8(33) . . .
32.5(29) . . .
35.0(32) . . .
32.8(29) . . .
37.3(35) . . .
25.1(26) . . .
23.4(25) . . .
41.9(34) . . .
41.0(34) . . .
29.7(28) . . .
32.3(31) . . .
30.6(29) . . .
23.2(25) . . .
26.1(28) . . .
27.5(30) . . .
36.5(32) . . .
35.1(31) . . .
33.8(32) . . .
35.7(34) . . .
28.5(30) . . .
30.1(30) . . .
34.7(31) . . .
33.7(32) . . .
36.4(33) . . .
29.5(29) . . .
20.4(23) . . .
24.7(26) . . .
24.8(27) . . .
33.3(33) . . .
29.8(30) . . .
27.8(28) . . .
35.2(31) . . .
38.6(35) . . .
41(4) . . .
25.8(26) . . .
41.6(34) . . .
32.1(29) . . .
33.5(32) . . .
38(4) . . .
35.9(34) . . .
19.8(23) . . .
30.5(28) . . .
30.5(31) . . .
30.3(32) . . .
31.7(31) . . .
29.9(28) . . .
27.1(27) . . .
34.4(32) . . .
29.7(29) . . .
33.3(32) . . .
28.8(28) . . .
30.0(29) . . .
35.2(31) . . .
33.8(33) . . .
28.2(29) . . .
37.0(32) . . .
29.9(28) . . .
41(4) . . .
32.9(32) . . .
33.1(32) . . .
26.4(27) . . .
32.9(31) . . .
37.0(33) . . .
25.8(27) . . .
25.5(26) . . .
27.5(27) . . .
34.1(31) . . .
27.6(29) . . .
26.3(28) . . .
31.9(32) . . .
26.3(27) . . .
42.0(34) . . .
34.7(31) . . .
32.0(29) . . .
31.1(29) . . .
27.6(27) . . .
31.2(33) . . .
33.3(32) . . .
28.0(29) . . .
30.3(29) . . .
30.3(30) . . .
30.3(31) . . .
28.1(29) . . .
26.4(27) . . .
35.4(32) . . .
31.0(29) . . .
37.5(32) . . .
32.0(30) . . .
28.3(28) . . .
39.6(33) . . .
31.1(30) . . .
29.2(31) . . .
28.1(30) . . .
29.5(30) . . .
33.6(31) . . .
29.7(28) . . .
21.8(24) . . .
37(4) . . .
31.5(30) . . .
32.2(30) . . .
28.7(30) . . .
36.1(33) . . .
31.9(33) . . .
32.9(31) . . .
27.6(27) . . .
31.0(29) . . .
32.3(33) . . .
25.6(29) . . .
32.6(31) . . .
36.1(32) . . .
25.8(28) . . .
25.4(27) . . .
27.1(27) . . .
36.8(32) . . .
41.6(34) . . .
39.5(33) . . .
28.3(28) . . .
35.3(33) . . .
25.5(27) . . .
27.1(27) . . .
38.3(33) . . .
31.6(30) . . .
31.5(31) . . .
36.1(32) . . .
37.2(32) . . .
30.3(29) . . .
29.0(31) . . .
35.7(34) . . .
30.8(30) . . .
29.7(29) . . .
35.4(33) . . .
31.5(31) . . .
28.4(31) . . .
21.0(25) . . .
28.6(28) . . .
41.3(33) . . .
32.4(30) . . .
22.5(24) . . .
31.5(29) . . .
32.3(30) . . .
32.7(31) . . .
29.6(30) . . .
36.9(32) . . .
30.0(28) . . .
31.3(29) . . .
37.3(33) . . .
25.0(27) . . .
29.6(29) . . .
32.8(29) . . .
41.8(34) . . .
37.5(33) . . .
40(4) . . .
33.0(32) . . .
33.3(30) . . .
32.4(30) . . .
33.5(31) . . .
27.1(26) . . .
30.2(29) . . .
41(4) . . .
29.3(28) . . .
27.3(28) . . .
30.4(30) . . .
32.6(31) . . .
29.2(28) . . .
23.0(25) . . .
37.8(35) . . .
30.2(29) . . .
36.2(32) . . .
35.1(31) . . .
35.0(31) . . .
27.8(27) . . .
34.1(32) . . .
30.4(30) . . .
29.1(28) . . .
31.7(30) . . .
35.2(33) . . .
36.1(34) . . .
33.3(30) . . .
31.5(29) . . .
42(4) . . .
34.8(33) . . .
31.3(29) . . .
30.8(28) . . .
32.3(30) . . .
31.3(30) . . .
33.1(32) . . .
32.6(31) . . .
30.8(31) . . .
29.8(28) . . .
40(4) . . .
29.8(28) . . .
38.8(34) . . .
26.0(28) . . .
32.0(29) . . .
37.3(32) . . .
33.4(33) . . .
30.1(31) . . .
33.2(30) . . .
32.6(29) . . .
27.8(28) . . .
37(4) . . .
29.7(29) . . .
33.2(30) . . .
32.5(30) . . .
30.3(29) . . .
28.4(29) . . .
34.3(34) . . .
29.1(29) . . .
48(4) . . .
41(4) . . .
35.5(34) . . .
33.3(32) . . .
32.7(31) . . .
29.9(33) . . .
35.9(34) . . .
33.9(30) . . .
32.2(30) . . .
32.6(29) . . .
30.7(30) . . .
29.8(30) . . .
30.3(31) . . .
26.8(28) . . .
28.7(28) . . .
31.9(30) . . .
27.2(30) . . .
31.3(32) . . .
24.1(26) . . .
31.0(29) . . .
27.6(27) . . .
29.2(30) . . .
43(4) . . .
32.4(30) . . .
29.8(29) . . .
28.3(29) . . .
26.5(28) . . .
27.8(28) . . .
32.8(33) . . .
28.8(28) . . .
23.4(26) . . .
33.7(33) . . .
28.3(28) . . .
36.9(32) . . .
28.4(28) . . .
33.1(33) . . .
31.3(32) . . .
30.4(29) . . .
29.3(28) . . .
36.5(32) . . .
30.7(30) . . .
27.1(28) . . .
32.9(30) . . .
28.9(28) . . .
29.6(28) . . .
31.5(30) . . .
25.9(27) . . .
33.3(31) . . .
28.3(28) . . .
25.2(27) . . .
44(4) . . .
33.3(31) . . .
27.5(27) . . .
31.6(30) . . .
31.8(31) . . .
24.6(28) . . .
30.0(32) . . .
35.1(32) . . .
35.9(31) . . .
29.1(28) . . .
30.9(30) . . .
29.3(29) . . .
30.0(29) . . .
26.5(27) . . .
30.2(29) . . .
41.0(35) . . .
36.7(34) . . .
33.1(30) . . .
30.5(29) . . .
24.0(26) . . .
23.0(27) . . .
24.8(26) . . .
31.8(31) . . .
28.1(28) . . .
26.6(28) . . .
36.5(33) . . .
29.5(30) . . .
32.2(30) . . .
29.2(28) . . .
24.2(26) . . .
26.2(28) . . .
30.6(30) . . .
27.2(28) . . .
28.3(28) . . .
28.1(30) . . .
34.4(34) . . .
33.2(31) . . .
36.3(32) . . .
35.1(31) . . .
32.8(33) . . .
33.6(32) . . .
37.8(34) . . .
28.9(29) . . .
27.8(28) . . .
32.6(30) . . .
32.1(31) . . .
27.0(28) . . .
32.2(29) . . .
32.1(31) . . .
36.5(35) . . .
29.0(29) . . .
35.1(31) . . .
32.3(30) . . .
31.4(30) . . .
34.4(33) . . .
28.9(29) . . .
32.5(30) . . .
37.5(32) . . .
41.4(35) . . .
32.4(30) . . .
37.5(34) . . .
28.1(28) . . .
39.5(32) . . .
33.3(30) . . .
32.0(30) . . .
36.1(34) . . .
31.6(30) . . .
29.6(28) . . .
34.7(32) . . .
31.5(30) . . .
30.2(28) . . .
38.8(33) . . .
40.4(33) . . .
31.0(30) . . .
30.1(30) . . .
32.8(31) . . .
25.7(26) . . .
26.8(27) . . .
21.3(24) . . .
37.0(34) . . .
32.2(30) . . .
25.7(26) . . .
33.3(31) . . .
32.1(30) . . .
33.4(34) . . .
24.7(26) . . .
35.0(31) . . .
24.8(26) . . .
27.6(29) . . .
27.6(29) . . .
30.9(29) . . .
37.2(32) . . .
36.6(31) . . .
37.3(34) . . .
26.5(30) . . .
35.5(33) . . .
40.3(33) . . .
42.5(35) . . .
33.1(31) . . .
30.6(29) . . .
30.4(30) . . .
29.3(28) . . .
24.3(25) . . .
39(4) . . .
25.6(27) . . .
26.2(29) . . .
33.9(30) . . .
27.2(28) . . .
34.3(31) . . .
31.3(31) . . .
32.2(31) . . .
37.2(31) . . .
30.4(30) . . .
31.5(30) . . .
35.4(33) . . .
27.0(28) . . .
26.5(27) . . .
30.9(30) . . .
22.8(25) . . .
37.3(34) . . .
38.3(34) . . .
28.8(28) . . .
30.5(32) . . .
30.9(31) . . .
33.0(31) . . .
31.0(30) . . .
28.2(28) . . .
31.8(31) . . .
36.0(35) . . .
34.1(31) . . .
25.9(27) . . .
33.5(30) . . .
32.4(31) . . .
34.3(33) . . .
30.4(29) . . .
30.3(28) . . .
39.0(32) . . .
29.8(28) . . .
27.7(27) . . .
30.7(29) . . .
29.6(28) . . .
28.0(28) . . .
32.5(32) . . .
31.9(32) . . .
34.4(31) . . .
42.5(34) . . .
32.5(30) . . .
31.5(31) . . .
29.9(31) . . .
41(4) . . .
25.9(26) . . .
38.0(33) . . .
27.6(28) . . .
29.5(30) . . .
34.3(31) . . .
33.6(30) . . .
33.5(31) . . .
25.3(29) . . .
25.5(29) . . .
36.7(34) . . .
35.3(32) . . .
28.1(27) . . .
29.6(31) . . .
28.9(30) . . .
31.3(30) . . .
28.0(28) . . .
25.0(26) . . .
24.1(25) . . .
31.1(28) . . .
28.1(28) . . .
37.5(32) . . .
35.8(32) . . .
30.3(30) . . .
29.6(30) . . .
29.3(29) . . .
31.8(29) . . .
46(4) . . .
32.9(32) . . .
25.0(26) . . .
31.0(29) . . .
28.3(28) . . .
34.4(31) . . .
34.7(30) . . .
31.7(30) . . .
31.1(29) . . .
27.0(27) . . .
33.2(30) . . .
36.2(33) . . .
31.0(29) . . .
37.8(32) . . .
42.1(33) . . .
29.2(30) . . .
25.8(28) . . .
25.9(28) . . .
37.3(32) . . .
31.4(29) . . .
24.5(26) . . .
28.6(31) . . .
36.5(32) . . .
39.5(34) . . .
30.5(29) . . .
28.4(31) . . .
23.9(27) . . .
27.6(28) . . .
30.9(29) . . .
29.6(28) . . .
39.0(33) . . .
26.8(26) . . .
32.6(33) . . .
29.7(29) . . .
33.7(31) . . .
29.6(29) . . .
35.2(33) . . .
31.6(30) . . .
33.8(31) . . .
29.6(28) . . .
27.7(27) . . .
37.1(34) . . .
34.9(32) . . .
33.5(30) . . .
31.8(30) . . .
35.2(35) . . .
28.2(28) . . .
33.7(33) . . .
29.7(28) . . .
39.1(34) . . .
27.5(27) . . .
33.3(32) . . .
33.6(31) . . .
28.4(28) . . .
29.8(31) . . .
28.9(30) . . .
38.1(32) . . .
31.9(30) . . .
29.6(28) . . .
30.8(35) . . .
31.8(31) . . .
41.8(34) . . .
33.0(30) . . .
33.6(31) . . .
39.3(34) . . .
27.3(29) . . .
34.8(34) . . .
34.1(30) . . .
31.8(29) . . .
27.8(28) . . .
35.1(33) . . .
35.2(31) . . .
30.1(29) . . .
32.8(30) . . .
44(4) . . .
43(4) . . .
32.7(30) . . .
32.2(30) . . .
39.2(34) . . .
33.7(31) . . .
34.0(33) . . .
27.6(27) . . .
27.1(28) . . .
40.1(34) . . .
37.7(32) . . .
37.8(32) . . .
38.0(33) . . .
33.6(30) . . .
29.8(29) . . .
31.6(31) . . .
26.1(28) . . .
31.2(32) . . .
33.3(31) . . .
31.8(30) . . .
30.7(28) . . .
31.6(30) . . .
37.5(33) . . .
29.2(29) . . .
29.9(28) . . .
35.5(32) . . .
31.8(29) . . .
45(4) . . .
33.2(30) . . .
30.2(29) . . .
32.2(30) . . .
35.9(32) . . .
29.6(28) . . .
32.5(29) . . .
22.0(25) . . .
29.3(31) . . .
35.5(32) . . .
33.7(32) . . .
33.5(30) . . .
40(4) . . .
27.6(29) . . .
35.7(32) . . .
32.9(30) . . .
35.2(31) . . .
33.8(31) . . .
29.8(30) . . .
31.4(30) . . .
34.5(31) . . .
31.5(29) . . .
32.7(32) . . .
20.4(25) . . .
30.2(30) . . .
30.2(29) . . .
26.9(28) . . .
27.9(29) . . .
35.4(33) . . .
35.7(31) . . .
39.3(33) . . .
30.9(28) . . .
33.2(30) . . .
41(4) . . .
34.7(32) . . .
22.6(25) . . .
34.4(32) . . .
38.9(35) . . .
32.5(30) . . .
39.3(33) . . .
27.5(27) . . .
29.6(29) . . .
28.9(30) . . .
32.8(32) . . .
34.2(30) . . .
28.1(28) . . .
33.0(31) . . .
30.9(31) . . .
34.6(32) . . .
41.1(33) . . .
32.7(30) . . .
34.7(33) . . .
28.4(29) . . .
35.5(33) . . .
27.6(28) . . .
24.3(26) . . .
21.7(26) . . .
34.1(35) . . .
28.7(30) . . .
39.4(33) . . .
35.7(31) . . .
30.8(29) . . .
28.4(29) . . .
38.0(33) . . .
26.6(28) . . .
22.5(25) . . .
29.9(29) . . .
33.2(34) . . .
38.7(33) . . .
25.4(27) . . .
39.7(33) . . .
27.8(27) . . .
30.7(29) . . .
31.4(30) . . .
32.1(30) . . .
30.3(29) . . .
24.2(28) . . .
28.4(29) . . .
36.4(34) . . .
30.3(29) . . .
31.5(29) . . .
31.2(29) . . .
29.4(28) . . .
28.9(29) . . .
33.4(31) . . .
31.3(31) . . .
27.8(27) . . .
28.1(29) . . .
30.9(30) . . .
30.3(29) . . .
25.4(26) . . .
34.5(33) . . .
30.1(29) . . .
38.0(33) . . .
31.2(30) . . .
34.3(32) . . .
31.5(30) . . .
38.3(32) . . .
32.6(31) . . .
27.1(27) . . .
27.3(29) . . .
36.2(33) . . .
21.0(24) . . .
36.1(35) . . .
33.1(31) . . .
36.3(32) . . .
36.1(31) . . .
40.3(35) . . .
38.3(33) . . .
36.5(31) . . .
27.5(28) . . .
30.6(31) . . .
45(4) . . .
32.3(29) . . .
29.5(29) . . .
30.2(29) . . .
35.3(33) . . .
38.7(33) . . .
31.0(29) . . .
30.9(29) . . .
28.1(30) . . .
32.1(32) . . .
35.0(31) . . .
33.8(31) . . .
30.2(30) . . .
37.1(33) . . .
37.6(33) . . .
25.6(26) . . .
24.2(25) . . .
35.9(32) . . .
34.6(32) . . .
31.9(31) . . .
31.5(30) . . .
35.9(31) . . .
34.3(31) . . .
30.7(29) . . .
27.4(27) . . .
28.0(28) . . .
25.9(27) . . .
31.5(29) . . .
34.3(32) . . .
31.0(31) . . .
43(4) . . .
38.3(33) . . .
23.1(25) . . .
26.0(28) . . .
40(4) . . .
35.4(31) . . .
32.4(30) . . .
29.5(31) . . .
25.4(29) . . .
26.2(27) . . .
30.6(29) . . .
28.8(28) . . .
36.8(35) . . .
26.1(28) . . .
33.4(32) . . .
35.9(31) . . .
34.0(31) . . .
30.9(29) . . .
35.5(35) . . .
24.6(28) . . .
24.9(26) . . .
28.2(27) . . .
35.3(33) . . .
33.1(32) . . .
23.2(24) . . .
35.5(31) . . .
32.8(30) . . .
26.4(27) . . .
26.3(30) . . .
31.6(31) . . .
27.3(28) . . .
33.3(30) . . .
37.6(33) . . .
33.7(33) . . .
30.4(30) . . .
28.7(28) . . .
28.8(28) . . .
31.7(32) . . .
30.7(32) . . .
32.0(32) . . .
32.8(30) . . .
34.0(32) . . .
31.2(30) . . .
30.5(31) . . .
28.6(29) . . .
31.7(30) . . .
33.0(30) . . .
30.3(29) . . .
33.7(31) . . .
27.9(31) . . .
30.7(29) . . .
33.6(31) . . .
29.3(30) . . .
30.5(30) . . .
30.2(30) . . .
27.2(27) . . .
28.6(28) . . .
30.2(28) . . .
31.2(28) . . .
34.9(31) . . .
35.8(31) . . .
36.4(32) . . .
24.7(26) . . .
23.5(26) . . .
24.4(26) . . .
30.6(30) . . .
35.3(31) . . .
30.3(30) . . .
27.7(28) . . .
30.1(29) . . .
33.7(30) . . .
39(4) . . .
33.2(31) . . .
34.8(30) . . .
34.7(32) . . .
33.1(30) . . .
34.9(33) . . .
31.1(32) . . .
27.5(27) . . .
32.0(30) . . .
41.9(35) . . .
32.9(31) . . .
34.3(31) . . .
34.6(32) . . .
30.5(29) . . .
34.8(30) . . .
38.5(34) . . .
37.2(34) . . .
37.6(33) . . .
36.0(31) . . .
30.1(29) . . .
30.9(29) . . .
34.2(35) . . .
31.1(31) . . .
37.8(32) . . .
35.4(31) . . .
38.8(34) . . .
26.8(29) . . .
24.6(28) . . .
29.0(28) . . .
30.2(30) . . .
24.6(28) . . .
29.7(31) . . .
29.3(28) . . .
31.9(30) . . .
31.7(30) . . .
33.4(32) . . .
31.8(30) . . .
28.0(27) . . .
25.8(27) . . .
35.8(33) . . .
25.5(27) . . .
29.7(29) . . .
27.2(27) . . .
23.9(26) . . .
27.5(30) . . .
35.2(34) . . .
31.2(31) . . .
27.3(28) . . .
32.7(30) . . .
22.4(25) . . .
32.0(34) . . .
31.0(31) . . .
32.5(29) . . .
34.0(30) . . .
32.2(30) . . .
37(4) . . .
26.1(27) . . .
27.5(27) . . .
33.3(30) . . .
27.3(26) . . .
37.7(34) . . .
37.4(34) . . .
36.8(32) . . .
32.3(30) . . .
36.1(32) . . .
33.6(32) . . .
28.9(30) . . .
29.9(29) . . .
29.8(28) . . .
32.6(30) . . .
29.8(28) . . .
30.1(31) . . .
25.5(27) . . .
35.7(32) . . .
31.9(31) . . .
40(4) . . .
32.0(33) . . .
35.2(31) . . .
28.0(28) . . .
30.0(29) . . .
28.4(28) . . .
30.3(31) . . .
22.5(25) . . .
32.3(31) . . .
33.8(33) . . .
25.3(27) . . .
33.5(30) . . .
33.7(31) . . .
30.7(30) . . .
26.6(27) . . .
35.3(34) . . .
33.1(32) . . .
29.0(28) . . .
25.8(26) . . .
27.1(30) . . .
24.9(25) . . .
30.8(29) . . .
36.6(32) . . .
25.4(28) . . .
35.8(34) . . .
36.6(33) . . .
33.5(32) . . .
34.6(30) . . .
32.5(30) . . .
41(4) . . .
26.3(27) . . .
29.1(28) . . .
30.7(29) . . .
31.7(29) . . .
42(4) . . .
34.8(31) . . .
27.3(27) . . .
26.4(27) . . .
31.6(30) . . .
26.1(27) . . .
33.5(30) . . .
25.7(26) . . .
30.8(31) . . .
36.2(33) . . .
32.8(33) . . .
31.5(31) . . .
25.8(27) . . .
29.7(29) . . .
35.9(32) . . .
29.8(29) . . .
29.1(29) . . .
32.4(30) . . .
29.9(29) . . .
27.7(27) . . .
37.1(33) . . .
26.0(27) . . .
35.1(31) . . .
24.2(27) . . .
30.0(32) . . .
31.5(30) . . .
27.6(27) . . .
27.2(27) . . .
41(4) . . .
30.1(31) . . .
31.1(31) . . .
23.6(25) . . .
31.4(30) . . .
40(4) . . .
28.0(28) . . .
34.0(33) . . .
29.6(29) . . .
27.2(27) . . .
28.6(29) . . .
22.3(27) . . .
23.2(25) . . .
29.4(29) . . .
32.6(30) . . .
26.7(28) . . .
35.2(34) . . .
33.0(31) . . .
33.5(31) . . .
35.2(31) . . .
30.4(30) . . .
28.1(30) . . .
29.2(29) . . .
38.5(33) . . .
36.0(32) . . .
28.8(28) . . .
27.1(28) . . .
29.6(28) . . .
32.1(30) . . .
32.1(30) . . .
31.6(31) . . .
37.1(35) . . .
26.3(28) . . .
19.0(23) . . .
27.6(27) . . .
33.0(31) . . .
33.4(31) . . .
33.0(30) . . .
28.5(28) . . .
26.0(30) . . .
30.6(30) . . .
34.0(32) . . .
36.3(34) . . .
26.1(26) . . .
24.4(27) . . .
27.8(27) . . .
35.0(31) . . .
37.8(33) . . .
34.1(31) . . .
32.4(32) . . .
33.3(32) . . .
34.3(31) . . .
27.9(27) . . .
29.4(28) . . .
31.2(30) . . .
29.2(28) . . .
37.7(33) . . .
37.2(33) . . .
27.4(27) . . .
25.8(27) . . .
26.7(29) . . .
27.9(28) . . .
35.2(31) . . .
30.7(29) . . .
30.0(29) . . .
28.5(30) . . .
33.9(32) . . .
28.6(28) . . .
30.7(29) . . .
30.8(32) . . .
31.3(31) . . .
27.5(29) . . .
29.8(29) . . .
28.5(27) . . .
21.9(24) . . .
30.6(31) . . .
26.8(27) . . .
27.6(28) . . .
35.7(31) . . .
30.2(29) . . .
39(4) . . .
31.8(32) . . .
29.0(28) . . .
23.1(26) . . .
32.5(31) . . .
31.0(30) . . .
35.7(33) . . .
34.1(31) . . .
36.5(32) . . .
33.8(32) . . .
34.1(32) . . .
26.2(26) . . .
39.8(33) . . .
41.5(35) . . .
31.6(28) . . .
32.6(30) . . .
28.3(27) . . .
26.3(27) . . .
31.2(30) . . .
25.2(28) . . .
23.8(27) . . .
25.1(27) . . .
36.9(32) . . .
27.4(27) . . .
33.4(32) . . .
32.0(31) . . .
27.3(29) . . .
27.8(28) . . .
25.2(27) . . .
27.9(29) . . .
31.8(31) . . .
43.3(35) . . .
32.0(29) . . .
26.7(28) . . .
26.8(30) . . .
26.0(27) . . .
30.9(29) . . .
28.1(28) . . .
29.7(30) . . .
27.0(28) . . .
36.3(34) . . .
32.3(29) . . .
33.2(31) . . .
34.2(32) . . .
24.5(27) . . .
29.5(32) . . .
30.1(29) . . .
23.3(25) . . .
31.2(32) . . .
35.8(35) . . .
28.2(29) . . .
21.4(24) . . .
25.0(26) . . .
36(4) . . .
32.3(31) . . .
27.1(29) . . .
30.2(29) . . .
44(4) . . .
28.4(28) . . .
30.8(30) . . .
30.1(30) . . .
31.7(30) . . .
35.0(33) . . .
27.4(31) . . .
29.5(31) . . .
37.8(33) . . .
38.7(32) . . .
28.6(28) . . .
28.0(29) . . .
32.0(31) . . .
30.4(29) . . .
33.2(30) . . .
30.7(31) . . .
24.2(28) . . .
33.9(33) . . .
30.7(29) . . .
33.1(30) . . .
27.7(27) . . .
37.5(34) . . .
27.2(28) . . .
29.6(29) . . .
31.8(30) . . .
33.3(30) . . .
30.5(34) . . .
27.6(28) . . .
26.3(26) . . .
29.6(29) . . .
31.3(31) . . .
40(4) . . .
36.0(31) . . .
43.6(35) . . .
29.6(28) . . .
39(4) . . .
27.1(29) . . .
33.4(31) . . .
34.7(31) . . .
31.9(30) . . .
31.5(30) . . .
30.5(30) . . .
39.4(34) . . .
23.9(26) . . .
26.3(29) . . .
28.9(28) . . .
36(4) . . .
30.0(30) . . .
33.5(30) . . .
28.3(28) . . .
28.2(29) . . .
26.8(28) . . .
25.0(26) . . .
24.8(26) . . .
31.5(30) . . .
31.8(31) . . .
23.1(25) . . .
25.8(28) . . .
24.6(26) . . .
33.5(30) . . .
34.3(33) . . .
30.4(30) . . .
28.5(29) . . .
29.6(28) . . .
32.2(30) . . .
37.0(34) . . .
19.8(22) . . .
32.9(30) . . .
24.5(26) . . .
32.8(30) . . .
26.4(27) . . .
37.0(33) . . .
29.4(30) . . .
30.2(29) . . .
28.2(29) . . .
29.9(31) . . .
33.7(32) . . .
26.3(27) . . .
22.0(26) . . .
32.8(31) . . .
24.4(27) . . .
31.6(30) . . .
35.0(31) . . .
35.4(31) . . .
33.5(31) . . .
35.7(33) . . .
26.3(28) . . .
25.6(27) . . .
23.6(25) . . .
29.5(31) . . .
29.6(28) . . .
34.2(31) . . .
31.8(29) . . .
33.9(31) . . .
39.4(34) . . .
38(4) . . .
24.6(26) . . .
34.2(30) . . .
33.5(30) . . .
30.8(30) . . .
26.8(26) . . .
36.6(34) . . .
26.7(27) . . .
26.0(27) . . .
39(4) . . .
32.2(32) . . .
35.2(31) . . .
34.1(30) . . .
24.0(26) . . .
28.2(29) . . .
34.3(33) . . .
31.2(29) . . .
28.8(28) . . .
28.3(31) . . .
33.2(33) . . .
29.6(30) . . .
34.0(31) . . .
39.9(33) . . .
39.2(35) . . .
34.3(31) . . .
48(4) . . .
29.1(28) . . .
40.5(33) . . .
27.7(27) . . .
40(4) . . .
41.1(35) . . .
32.5(30) . . .
37.1(32) . . .
28.8(29) . . .
28.0(29) . . .
31.1(32) . . .
28.2(28) . . .
29.7(28) . . .
33.1(30) . . .
30.3(31) . . .
30.1(29) . . .
37.1(31) . . .
37.5(32) . . .
33.8(32) . . .
23.9(31) . . .
27.4(28) . . .
27.3(27) . . .
28.6(29) . . .
35.6(32) . . .
25.9(27) . . .
24.0(27) . . .
29.7(28) . . .
25.3(27) . . .
32.8(31) . . .
31.1(31) . . .
32.2(31) . . .
30.8(29) . . .
24.8(27) . . .
31.0(31) . . .
28.5(29) . . .
34.0(33) . . .
26.9(27) . . .
32.3(29) . . .
32.8(31) . . .
28.9(30) . . .
39.1(35) . . .
28.0(28) . . .
28.1(30) . . .
29.0(30) . . .
27.7(30) . . .
27.0(27) . . .
26.0(27) . . .
26.3(27) . . .
31.2(31) . . .
30.0(29) . . .
22.9(26) . . .
30.1(29) . . .
29.5(29) . . .
27.3(29) . . .
24.5(26) . . .
30.2(30) . . .
24.5(26) . . .
29.7(30) . . .
30.7(29) . . .
32.9(29) . . .
28.6(28) . . .
35.7(31) . . .
28.8(29) . . .
32.4(33) . . .
30.8(32) . . .
33.5(31) . . .
33.3(32) . . .
27.1(28) . . .
32.5(34) . . .
36.7(34) . . .
32.0(30) . . .
30.6(28) . . .
22.0(23) . . .
24.1(26) . . .
38.7(34) . . .
34.5(32) . . .
29.5(29) . . .
37.8(33) . . .
30.9(29) . . .
29.5(29) . . .
35.7(31) . . .
29.6(29) . . .
28.0(30) . . .
35.4(33) . . .
31.7(29) . . .
30.6(29) . . .
32.9(31) . . .
27.9(29) . . .
31.9(30) . . .
30.1(29) . . .
31.8(30) . . .
26.9(28) . . .
31.4(31) . . .
25.0(26) . . .
34.7(32) . . .
26.8(27) . . .
33.2(34) . . .
22.4(24) . . .
28.9(29) . . .
30.9(29) . . .
32.8(30) . . .
33.8(34) . . .
31.5(32) . . .
28.3(28) . . .
33.0(30) . . .
31.7(29) . . .
32.4(31) . . .
35.2(34) . . .
25.2(26) . . .
30.5(29) . . .
32.8(30) . . .
37.5(33) . . .
36.3(33) . . .
29.3(28) . . .
35.0(31) . . .
30.1(30) . . .
36.8(33) . . .
28.6(29) . . .
22.3(25) . . .
28.3(28) . . .
29.0(28) . . .
26.7(26) . . .
26.7(27) . . .
33.6(34) . . .
29.1(28) . . .
31.8(31) . . .
26.6(28) . . .
25.2(27) . . .
32.4(31) . . .
28.5(28) . . .
28.2(29) . . .
35.5(31) . . .
28.5(28) . . .
35.0(32) . . .
32.2(30) . . .
26.6(27) . . .
30.0(30) . . .
33.7(32) . . .
28.2(28) . . .
20.2(24) . . .
38.4(35) . . .
34.5(33) . . .
29.9(30) . . .
30.4(30) . . .
30.7(29) . . .
35.1(32) . . .
31.2(31) . . .
30.6(31) . . .
31.1(28) . . .
39.5(33) . . .
32.4(31) . . .
27.6(28) . . .
26.1(27) . . .
25.1(26) . . .
24.3(27) . . .
31.5(29) . . .
34.9(33) . . .
37.3(34) . . .
34.6(31) . . .
30.4(30) . . .
35.7(33) . . .
28.9(32) . . .
30.1(30) . . .
24.6(27) . . .
34.8(31) . . .
31.5(29) . . .
32.4(31) . . .
37.9(34) . . .
31.5(30) . . .
24.8(26) . . .
31.0(31) . . .
35.9(33) . . .
38.9(33) . . .
29.1(29) . . .
34.7(31) . . .
39.8(35) . . .
31.7(32) . . .
36(4) . . .
34.9(31) . . .
27.8(29) . . .
21.6(24) . . .
39(4) . . .
31.5(30) . . .
33.8(31) . . .
37.0(31) . . .
29.8(28) . . .
35.8(33) . . .
29.4(28) . . .
31.5(29) . . .
36.1(31) . . .
30.9(30) . . .
32.2(31) . . .
29.1(31) . . .
28.0(28) . . .
30.6(30) . . .
33.1(32) . . .
31.9(29) . . .
38.6(32) . . .
33.6(30) . . .
28.8(31) . . .
27.0(28) . . .
34.6(32) . . .
34.2(33) . . .
27.3(28) . . .
29.6(29) . . .
30.6(30) . . .
30.3(29) . . .
29.1(30) . . .
29.3(29) . . .
28.5(28) . . .
31.1(32) . . .
32.4(32) . . .
25.2(26) . . .
31.0(29) . . .
26.4(26) . . .
30.5(32) . . .
32.4(32) . . .
25.6(27) . . .
25.4(26) . . .
32.3(30) . . .
34.5(34) . . .
31.8(30) . . .
29.2(28) . . .
33.0(31) . . .
37.0(33) . . .
29.9(27) . . .
33.8(31) . . .
32.2(29) . . .
30.4(31) . . .
30.5(32) . . .
29.7(29) . . .
30.3(31) . . .
27.0(27) . . .
34.7(33) . . .
27.5(29) . . .
32.1(33) . . .
27.2(29) . . .
37.8(32) . . .
30.1(29) . . .
30.4(31) . . .
24.2(27) . . .
28.2(28) . . .
26.3(27) . . .
30.2(30) . . .
27.0(28) . . .
26.5(27) . . .
40.1(34) . . .
35.2(31) . . .
30.4(29) . . .
33.1(31) . . .
34.8(31) . . .
38.3(32) . . .
46(4) . . .
35.5(31) . . .
26.1(28) . . .
36(4) . . .
33.4(31) . . .
29.4(28) . . .
20.5(25) . . .
26.5(30) . . .
33.0(30) . . .
29.1(28) . . .
34.0(30) . . .
26.6(27) . . .
32.1(30) . . .
34.5(31) . . .
28.3(28) . . .
32.2(30) . . .
23.0(25) . . .
26.1(29) . . .
27.3(30) . . .
29.9(28) . . .
35.5(31) . . .
33.9(31) . . .
28.6(28) . . .
30.8(29) . . .
31.1(30) . . .
32.2(31) . . .
22.5(24) . . .
35.3(33) . . .
29.3(28) . . .
34.9(31) . . .
34.7(32) . . .
34.4(31) . . .
33.0(32) . . .
28.5(28) . . .
32.9(30) . . .
34.5(31) . . .
32.0(31) . . .
34.4(33) . . .
31.1(30) . . .
35.0(30) . . .
26.0(27) . . .
36.4(34) . . .
33.4(32) . . .
30.0(29) . . .
32.3(30) . . .
28.6(29) . . .
32.8(33) . . .
29.3(28) . . .
33.9(30) . . .
27.1(27) . . .
25.9(26) . . .
27.0(27) . . .
33.5(32) . . .
39.2(33) . . .
30.4(28) . . .
35.9(31) . . .
35.2(32) . . .
34.2(31) . . .
28.7(29) . . .
28.7(28) . . .
27.6(28) . . .
37(4) . . .
29.6(29) . . .
30.1(29) . . .
32.9(30) . . .
32.8(31) . . .
31.5(31) . . .
26.8(29) . . .
31.0(29) . . .
32.9(30) . . .
29.7(28) . . .
35.6(33) . . .
27.0(28) . . .
26.5(27) . . .
23.7(26) . . .
28.1(29) . . .
30.8(30) . . .
30.0(30) . . .
31.0(29) . . .
29.2(29) . . .
26.0(27) . . .
35.0(35) . . .
27.2(28) . . .
30.6(29) . . .
25.2(27) . . .
36.9(35) . . .
35.8(32) . . .
30.4(28) . . .
25.3(26) . . .
27.2(27) . . .
31.9(33) . . .
23.8(27) . . .
30.6(29) . . .
26.6(27) . . .
28.0(28) . . .
43(4) . . .
33.7(31) . . .
33.2(31) . . .
36.0(31) . . .
33.6(32) . . .
28.5(29) . . .
29.0(28) . . .
27.5(27) . . .
28.6(28) . . .
25.9(28) . . .
35.1(33) . . .
26.4(26) . . .
33.7(31) . . .
35.0(31) . . .
33.5(31) . . .
27.8(29) . . .
26.8(28) . . .
22.7(25) . . .
21.0(25) . . .
30.0(29) . . .
30.5(31) . . .
25.9(28) . . .
30.3(28) . . .
27.5(28) . . .
32.8(32) . . .
27.2(30) . . .
31.7(30) . . .
30.9(29) . . .
30.7(29) . . .
30.2(29) . . .
29.1(28) . . .
37.2(33) . . .
32.3(30) . . .
32.0(30) . . .
30.7(28) . . .
37.6(34) . . .
22.9(28) . . .
27.8(28) . . .
28.6(28) . . .
30.7(29) . . .
35.7(33) . . .
35.5(31) . . .
28.6(28) . . .
30.2(30) . . .
23.9(28) . . .
24.4(26) . . .
34.3(31) . . .
35.9(31) . . .
31.3(29) . . .
28.2(28) . . .
29.6(30) . . .
32.3(31) . . .
33.0(30) . . .
30.5(29) . . .
33.5(33) . . .
33.3(34) . . .
22.2(25) . . .
24.2(26) . . .
26.5(27) . . .
31.8(32) . . .
28.1(29) . . .
33.8(30) . . .
40.0(34) . . .
31.8(32) . . .
27.6(30) . . .
25.5(27) . . .
31.9(31) . . .
44(4) . . .
35.7(33) . . .
24.5(28) . . .
29.4(32) . . .
33.2(30) . . .
30.3(29) . . .
32.2(31) . . .
29.3(29) . . .
35.9(31) . . .
35.2(31) . . .
31.3(30) . . .
32.2(30) . . .
39(4) . . .
28.2(29) . . .
22.5(25) . . .
34.0(33) . . .
40(4) . . .
39(4) . . .
28.0(29) . . .
32.2(30) . . .
35.9(32) . . .
32.0(30) . . .
28.7(29) . . .
23.6(28) . . .
30.8(29) . . .
30.9(30) . . .
31.1(30) . . .
35.7(31) . . .
34.4(32) . . .
35.8(32) . . .
20.6(23) . . .
27.5(28) . . .
23.4(25) . . .
30.0(29) . . .
34.3(31) . . .
36.2(32) . . .
29.0(29) . . .
26.2(27) . . .
27.4(27) . . .
28.6(28) . . .
30.7(31) . . .
29.7(30) . . .
35.1(32) . . .
26.8(27) . . .
33.5(31) . . .
40.3(34) . . .
33.9(32) . . .
27.3(27) . . .
29.8(29) . . .
30.4(29) . . .
33.2(32) . . .
34.2(32) . . .
35.1(32) . . .
31.0(29) . . .
32.6(30) . . .
30.3(28) . . .
28.1(29) . . .
30.0(29) . . .
28.2(28) . . .
27.4(28) . . .
27.0(28) . . .
29.0(30) . . .
28.1(28) . . .
34.0(32) . . .
29.3(28) . . .
21.6(23) . . .
31.2(31) . . .
35.7(31) . . .
30.8(29) . . .
25.7(28) . . .
36.9(33) . . .
32.1(30) . . .
25.5(27) . . .
27.9(28) . . .
35.6(32) . . .
38.2(33) . . .
31.2(31) . . .
27.9(28) . . .
36.0(32) . . .
28.0(27) . . .
26.4(30) . . .
28.7(31) . . .
27.4(28) . . .
27.8(28) . . .
36(4) . . .
38(4) . . .
35.5(33) . . .
26.9(27) . . .
32.5(30) . . .
29.3(30) . . .
26.6(28) . . .
29.8(28) . . .
33.2(31) . . .
27.5(27) . . .
22.2(27) . . .
27.8(31) . . .
28.9(28) . . .
32.7(30) . . .
25.3(26) . . .
28.1(29) . . .
34.2(33) . . .
26.7(28) . . .
28.7(29) . . .
30.0(28) . . .
26.0(26) . . .
27.6(29) . . .
26.1(27) . . .
34.7(31) . . .
30.3(28) . . .
28.9(29) . . .
26.8(31) . . .
24.0(26) . . .
30.8(30) . . .
25.8(28) . . .
29.3(29) . . .
35.8(32) . . .
31.2(29) . . .
45(4) . . .
32.0(29) . . .
26.7(28) . . .
31.1(33) . . .
25.4(27) . . .
27.1(27) . . .
39.2(33) . . .
34.2(30) . . .
27.7(27) . . .
32.0(29) . . .
31.5(30) . . .
32.9(30) . . .
31.0(30) . . .
29.4(29) . . .
34.0(32) . . .
25.2(27) . . .
26.9(27) . . .
32.0(32) . . .
27.6(28) . . .
41.6(35) . . .
27.7(28) . . .
32.7(30) . . .
31.5(30) . . .
40.9(34) . . .
33.8(30) . . .
34.1(30) . . .
32.3(31) . . .
33.1(32) . . .
34.2(31) . . .
27.8(28) . . .
32.5(30) . . .
27.9(31) . . .
34(4) . . .
36.5(33) . . .
31.7(29) . . .
33.0(30) . . .
31.1(29) . . .
23.1(26) . . .
28.0(29) . . .
30.5(29) . . .
35.3(31) . . .
21.5(27) . . .
25.1(27) . . .
30.5(29) . . .
32.6(31) . . .
25.3(26) . . .
33.8(31) . . .
29.2(30) . . .
31.3(31) . . .
32.3(30) . . .
30.9(29) . . .
29.7(30) . . .
32.1(30) . . .
33.1(30) . . .
27.2(28) . . .
31.8(31) . . .
27.7(29) . . .
31.3(33) . . .
30.4(30) . . .
27.6(28) . . .
29.0(28) . . .
32.4(31) . . .
34.8(33) . . .
40.5(34) . . .
35.4(32) . . .
32.8(30) . . .
36.4(33) . . .
33.9(32) . . .
26.7(27) . . .
32.3(30) . . .
32.3(31) . . .
34.0(32) . . .
29.6(29) . . .
32.0(30) . . .
27.9(27) . . .
28.7(27) . . .
42(4) . . .
29.3(30) . . .
35.0(31) . . .
27.7(29) . . .
25.9(27) . . .
27.6(27) . . .
32.6(31) . . .
38.0(32) . . .
33.7(30) . . .
28.4(29) . . .
28.4(28) . . .
33.5(30) . . .
32.4(30) . . .
39.4(32) . . .
32.5(30) . . .
30.9(30) . . .
36.0(33) . . .
39.2(33) . . .
32.6(31) . . .
32.5(31) . . .
27.8(29) . . .
37.0(33) . . .
32.2(29) . . .
26.8(28) . . .
21.5(26) . . .
26.9(29) . . .
36.1(34) . . .
29.4(28) . . .
42(4) . . .
35.3(30) . . .
31.0(31) . . .
28.2(30) . . .
37.0(31) . . .
27.2(28) . . .
24.4(27) . . .
32.7(31) . . .
36.5(32) . . .
28.2(28) . . .
26.5(26) . . .
33.0(30) . . .
35.3(32) . . .
25.6(27) . . .
32.0(30) . . .
25.1(27) . . .
30.5(32) . . .
33.5(32) . . .
36.9(32) . . .
32.3(30) . . .
27.2(28) . . .
32.2(32) . . .
27.8(28) . . .
27.0(29) . . .
34.3(31) . . .
38.3(33) . . .
29.9(33) . . .
30.1(30) . . .
26.8(28) . . .
30.2(29) . . .
33.1(29) . . .
40(4) . . .
30.5(30) . . .
22.3(24) . . .
28.3(28) . . .
28.9(29) . . .
26.0(27) . . .
30.8(29) . . .
30.6(28) . . .
33.8(31) . . .
36.5(33) . . .
25.9(28) . . .
22.1(25) . . .
21.6(24) . . .
30.8(30) . . .
36.9(31) . . .
35.2(32) . . .
26.0(29) . . .
34.4(31) . . .
33.3(33) . . .
35.0(33) . . .
41(4) . . .
29.2(29) . . .
28.5(28) . . .
28.6(28) . . .
29.0(29) . . .
36.1(33) . . .
31.2(29) . . .
26.3(27) . . .
28.4(27) . . .
24.8(25) . . .
26.3(28) . . .
26.7(27) . . .
39.5(33) . . .
29.8(28) . . .
28.4(29) . . .
22.9(26) . . .
26.7(30) . . .
28.5(28) . . .
31.8(32) . . .
30.3(31) . . .
33.8(32) . . .
31.0(31) . . .
30.7(29) . . .
28.7(29) . . .
25.5(28) . . .
27.8(29) . . .
27.1(28) . . .
21.5(24) . . .
24.1(26) . . .
29.0(29) . . .
30.3(30) . . .
23.1(25) . . .
20.7(23) . . .
26.8(28) . . .
30.6(32) . . .
33(4) . . .
31.5(31) . . .
30.8(29) . . .
29.5(29) . . .
28.8(30) . . .
31.1(30) . . .
28.2(27) . . .
31.4(30) . . .
33.3(32) . . .
34.0(33) . . .
33.3(32) . . .
36.6(32) . . .
28.1(29) . . .
31.7(31) . . .
30.3(29) . . .
33.6(30) . . .
33.5(30) . . .
30.1(29) . . .
31.1(29) . . .
34.4(32) . . .
25.7(27) . . .
30.6(29) . . .
31.1(30) . . .
27.4(29) . . .
22.2(25) . . .
29.5(30) . . .
29.0(28) . . .
25.0(26) . . .
30.2(29) . . .
35.2(31) . . .
25.8(27) . . .
22.4(25) . . .
29.8(29) . . .
33.6(33) . . .
37.3(33) . . .
29.7(28) . . .
27.0(28) . . .
35.3(33) . . .
25.2(28) . . .
26.2(27) . . .
37.0(33) . . .
30.7(29) . . .
28.0(29) . . .
30.6(31) . . .
31.1(29) . . .
31.5(29) . . .
24.4(26) . . .
37.3(33) . . .
35.4(33) . . .
36.5(33) . . .
33.3(30) . . .
33.6(31) . . .
38.6(34) . . .
29.5(30) . . .
33.2(32) . . .
31.1(30) . . .
35.9(32) . . .
30.0(30) . . .
31.0(31) . . .
38.1(34) . . .
32.9(30) . . .
27.1(27) . . .
20.1(25) . . .
22.9(27) . . .
32.1(33) . . .
29.9(28) . . .
28.3(28) . . .
28.5(29) . . .
28.9(29) . . .
35.3(32) . . .
31.3(30) . . .
33.1(30) . . .
34.6(32) . . .
35.4(32) . . .
29.7(28) . . .
28.2(28) . . .
24.1(26) . . .
26.3(28) . . .
28.5(29) . . .
38.4(33) . . .
24.1(26) . . .
37.1(34) . . .
30.5(29) . . .
35.4(31) . . .
32.2(30) . . .
31.8(29) . . .
30.7(29) . . .
31.7(31) . . .
30.6(30) . . .
24.6(26) . . .
24.2(26) . . .
23.2(25) . . .
37.2(34) . . .
31.1(30) . . .
23.0(25) . . .
29.9(28) . . .
31.2(30) . . .
27.4(30) . . .
22.5(25) . . .
27.1(28) . . .
33.5(30) . . .
40(4) . . .
35.7(33) . . .
35.4(32) . . .
33.2(30) . . .
23.9(26) . . .
22.3(24) . . .
40(4) . . .
31.7(30) . . .
33.9(31) . . .
27.1(27) . . .
32.2(31) . . .
32.3(30) . . .
29.6(28) . . .
27.3(27) . . .
30.6(29) . . .
29.6(30) . . .
26.9(29) . . .
24.8(27) . . .
30.8(29) . . .
29.0(28) . . .
29.2(28) . . .
34.3(32) . . .
26.1(27) . . .
21.1(24) . . .
29.6(29) . . .
32.3(30) . . .
33.0(31) . . .
33.7(33) . . .
28.0(28) . . .
29.7(31) . . .
29.4(31) . . .
24.4(26) . . .
35.4(31) . . .
33.4(29) . . .
36.7(32) . . .
30.7(30) . . .
26.3(28) . . .
32.3(30) . . .
33.2(30) . . .
34.5(31) . . .
34.1(33) . . .
23.8(26) . . .
22.1(25) . . .
31.8(29) . . .
38.3(32) . . .
41(4) . . .
33.8(32) . . .
26.9(27) . . .
31.2(30) . . .
36.7(34) . . .
30.9(33) . . .
37.6(34) . . .
33.1(30) . . .
33.7(32) . . .
33.2(33) . . .
24.9(29) . . .
30.1(31) . . .
27.1(27) . . .
30.3(29) . . .
38.5(35) . . .
23.6(25) . . .
40.4(35) . . .
35.9(32) . . .
27.1(28) . . .
29.6(31) . . .
35.3(34) . . .
32.9(31) . . .
29.4(29) . . .
24.7(26) . . .
36.5(34) . . .
25.6(27) . . .
31.5(30) . . .
29.9(29) . . .
26.6(29) . . .
31.2(31) . . .
33.7(30) . . .
36.7(32) . . .
32.9(30) . . .
36.7(32) . . .
33.0(31) . . .
31.3(29) . . .
38.4(34) . . .
31.9(29) . . .
34.8(31) . . .
27.5(28) . . .
38.3(34) . . .
37.9(32) . . .
35.1(31) . . .
32.6(31) . . .
37(4) . . .
37(4) . . .
24.2(26) . . .
32.8(31) . . .
27.1(29) . . .
22.6(25) . . .
29.0(28) . . .
32.9(29) . . .
39.6(33) . . .
31.8(30) . . .
32.8(33) . . .
29.6(30) . . .
27.7(28) . . .
27.9(27) . . .
27.0(27) . . .
29.8(31) . . .
28.2(28) . . .
33.4(30) . . .
37.4(32) . . .
29.1(29) . . .
32.8(31) . . .
26.7(27) . . .
27.3(27) . . .
34.8(32) . . .
28.1(28) . . .
32.2(30) . . .
32.0(31) . . .
28.6(28) . . .
40.0(35) . . .
34.1(32) . . .
28.9(30) . . .
24.6(27) . . .
26.4(27) . . .
24.0(25) . . .
33.2(30) . . .
28.6(27) . . .
29.5(29) . . .
30.4(29) . . .
27.4(29) . . .
28.1(29) . . .
26.1(27) . . .
23.2(26) . . .
32.6(30) . . .
32.3(31) . . .
28.8(29) . . .
37.0(35) . . .
38.2(32) . . .
38.4(32) . . .
31.2(32) . . .
33.4(34) . . .
29.4(30) . . .
27.9(29) . . .
29.2(28) . . .
32.5(31) . . .
34.2(31) . . .
39.2(35) . . .
33.1(30) . . .
31.8(29) . . .
25.7(26) . . .
39(4) . . .
37.6(33) . . .
32.0(30) . . .
27.3(27) . . .
32.4(33) . . .
24.9(28) . . .
34.7(31) . . .
28.8(28) . . .
22.6(26) . . .
21.2(25) . . .
24.3(27) . . .
20.5(24) . . .
24.8(26) . . .
25.2(26) . . .
30.2(30) . . .
23.6(26) . . .
37.3(32) . . .
28.7(28) . . .
34.2(35) . . .
26.7(30) . . .
24.4(29) . . .
29.4(30) . . .
30.1(28) . . .
31.3(31) . . .
44(4) . . .
25.9(26) . . .
35.5(31) . . .
30.1(29) . . .
28.8(30) . . .
23.6(26) . . .
37.7(34) . . .
30.4(28) . . .
27.0(27) . . .
23.0(26) . . .
34.4(35) . . .
28.0(29) . . .
25.9(27) . . .
33.7(30) . . .
29.4(29) . . .
23.8(25) . . .
29.0(28) . . .
31.5(29) . . .
32.8(30) . . .
29.8(29) . . .
26.0(27) . . .
38.5(33) . . .
29.7(28) . . .
35.6(31) . . .
22.1(26) . . .
35.1(33) . . .
34.7(31) . . .
32.0(30) . . .
38.8(33) . . .
24.0(27) . . .
38(4) . . .
34.3(32) . . .
37.3(32) . . .
26.1(27) . . .
24.4(26) . . .
33.9(33) . . .
34.2(31) . . .
33.5(31) . . .
32.4(31) . . .
25.5(26) . . .
30.1(29) . . .
27.0(27) . . .
24.4(26) . . .
30.4(30) . . .
33.5(32) . . .
32.8(33) . . .
30.7(30) . . .
33.1(30) . . .
27.9(29) . . .
28.1(28) . . .
26.8(28) . . .
30.2(30) . . .
29.3(28) . . .
26.9(27) . . .
26.2(28) . . .
28.8(28) . . .
33.0(30) . . .
30.6(29) . . .
28.9(28) . . .
27.4(29) . . .
27.9(29) . . .
35.9(31) . . .
28.4(28) . . .
29.6(30) . . .
32.7(34) . . .
27.3(27) . . .
29.4(29) . . .
30.4(29) . . .
29.5(29) . . .
34.4(32) . . .
25.3(28) . . .
24.7(26) . . .
28.6(28) . . .
30.9(30) . . .
30.3(30) . . .
32.7(31) . . .
28.9(28) . . .
28.2(29) . . .
28.0(29) . . .
30.7(30) . . .
30.0(30) . . .
27.9(28) . . .
28.2(29) . . .
30.4(31) . . .
27.7(28) . . .
25.8(28) . . .
25.8(26) . . .
32.4(31) . . .
28.3(29) . . .
23.1(27) . . .
28.4(28) . . .
24.1(25) . . .
40.3(33) . . .
32.3(30) . . .
28.9(30) . . .
29.8(29) . . .
28.2(28) . . .
28.9(29) . . .
29.6(28) . . .
34.7(32) . . .
33.3(30) . . .
23.6(26) . . .
32.4(31) . . .
34.1(32) . . .
42(4) . . .
27.8(28) . . .
32.2(29) . . .
31.0(30) . . .
32.6(31) . . .
31.9(30) . . .
33.1(30) . . .
28.8(28) . . .
33.9(33) . . .
30.7(31) . . .
26.9(27) . . .
23.5(25) . . .
23.9(26) . . .
30.1(30) . . .
28.7(29) . . .
34.7(31) . . .
35.4(32) . . .
33.1(30) . . .
24.9(25) . . .
32.2(30) . . .
35.4(32) . . .
34.8(31) . . .
32.6(29) . . .
31.8(30) . . .
30.2(30) . . .
33.7(30) . . .
31.5(29) . . .
30.0(29) . . .
38(4) . . .
27.6(30) . . .
29.6(32) . . .
27.5(28) . . .
28.0(28) . . .
29.1(30) . . .
35.9(32) . . .
34.8(33) . . .
30.9(29) . . .
27.4(27) . . .
31.9(31) . . .
39(4) . . .
29.7(30) . . .
30.4(29) . . .
32.0(30) . . .
37(4) . . .
26.0(29) . . .
27.6(29) . . .
36.5(32) . . .
33.9(32) . . .
35.7(33) . . .
28.8(29) . . .
27.6(29) . . .
22.9(25) . . .
24.6(28) . . .
30.5(32) . . .
21.4(26) . . .
28.9(29) . . .
24.4(26) . . .
25.5(29) . . .
42(4) . . .
33.6(31) . . .
28.4(28) . . .
32.5(29) . . .
34.3(31) . . .
31.9(33) . . .
27.6(28) . . .
29.9(28) . . .
29.1(29) . . .
29.7(28) . . .
30.1(31) . . .
24.8(27) . . .
29.0(29) . . .
27.3(29) . . .
27.6(29) . . .
38.1(34) . . .
28.7(27) . . .
36.5(32) . . .
30.9(28) . . .
33.9(32) . . .
31.8(32) . . .
26.9(29) . . .
32.6(30) . . .
29.7(28) . . .
33.1(30) . . .
31.4(29) . . .
39.9(34) . . .
30.0(28) . . .
31.6(30) . . .
28.2(27) . . .
27.3(27) . . .
38.5(34) . . .
28.9(29) . . .
29.9(30) . . .
37(4) . . .
34.3(34) . . .
25.4(27) . . .
33.6(30) . . .
26.0(28) . . .
31.6(30) . . .
23.6(27) . . .
26.5(28) . . .
27.6(28) . . .
29.8(31) . . .
30.1(30) . . .
29.2(30) . . .
29.5(29) . . .
33.1(30) . . .
31.3(32) . . .
27.2(28) . . .
26.3(26) . . .
36.7(33) . . .
30.4(29) . . .
31.1(30) . . .
36.8(34) . . .
25.4(26) . . .
22.6(26) . . .
38.0(32) . . .
35.7(32) . . .
30.3(30) . . .
21.0(24) . . .
29.0(28) . . .
32.8(30) . . .
24.9(27) . . .
22.8(26) . . .
29.2(29) . . .
32.2(29) . . .
28.7(28) . . .
31.2(30) . . .
26.4(30) . . .
24.7(29) . . .
27.0(28) . . .
29.9(29) . . .
30.9(30) . . .
40(4) . . .
27.4(28) . . .
28.6(28) . . .
35.1(30) . . .
33.2(30) . . .
33.3(31) . . .
27.7(27) . . .
27.0(27) . . .
26.0(27) . . .
28.3(27) . . .
29.6(31) . . .
30.8(29) . . .
29.4(28) . . .
34.7(31) . . .
33.5(31) . . .
35.5(34) . . .
27.4(28) . . .
35.5(31) . . .
36.5(31) . . .
34.3(33) . . .
35.2(33) . . .
31.8(29) . . .
26.5(28) . . .
33.7(31) . . .
34.3(33) . . .
19.6(23) . . .
25.8(27) . . .
28.0(28) . . .
27.5(27) . . .
23.4(26) . . .
25.3(27) . . .
32.5(30) . . .
34.6(31) . . .
27.1(28) . . .
32.2(30) . . .
35.5(32) . . .
31.2(29) . . .
28.2(29) . . .
26.4(26) . . .
23.3(25) . . .
24.4(26) . . .
28.7(28) . . .
29.6(29) . . .
28.1(27) . . .
27.7(29) . . .
19.2(23) . . .
26.5(26) . . .
34.7(32) . . .
31.6(30) . . .
26.1(27) . . .
26.2(27) . . .
27.5(27) . . .
29.5(29) . . .
32.1(32) . . .
28.8(30) . . .
22.6(27) . . .
31.6(29) . . .
34.3(31) . . .
24.0(25) . . .
26.6(28) . . .
35.4(32) . . .
20.5(24) . . .
19.5(24) . . .
20.4(23) . . .
27.7(29) . . .
20.7(25) . . .
32.2(30) . . .
40(4) . . .
29.2(32) . . .
33.1(31) . . .
35.2(31) . . .
29.9(29) . . .
26.1(28) . . .
34.9(34) . . .
26.6(27) . . .
26.4(27) . . .
31.6(29) . . .
33.2(32) . . .
32.8(32) . . .
28.6(29) . . .
29.7(30) . . .
36.3(32) . . .
25.5(28) . . .
34.7(34) . . .
29.1(30) . . .
23.1(26) . . .
37.5(32) . . .
23.2(25) . . .
30.7(32) . . .
31.3(30) . . .
20.9(24) . . .
32.7(30) . . .
27.3(27) . . .
27.4(29) . . .
28.0(28) . . .
32.8(31) . . .
28.1(28) . . .
30.9(30) . . .
29.1(30) . . .
33.3(33) . . .
30.9(30) . . .
26.8(27) . . .
30.8(31) . . .
26.7(30) . . .
26.2(28) . . .
33.3(30) . . .
24.0(25) . . .
28.1(29) . . .
30.6(31) . . .
27.4(28) . . .
20.9(24) . . .
23.1(25) . . .
22.5(25) . . .
32.3(32) . . .
37.0(35) . . .
24.3(26) . . .
32.8(32) . . .
32.8(31) . . .
34.4(32) . . .
30.2(29) . . .
29.1(28) . . .
34.2(30) . . .
42.9(35) . . .
35.3(31) . . .
34.1(31) . . .
28.1(27) . . .
35.8(32) . . .
32.7(31) . . .
32.7(31) . . .
28.4(28) . . .
24.7(26) . . .
36.8(33) . . .
31.0(31) . . .
30.9(30) . . .
28.5(28) . . .
30.9(29) . . .
35.7(32) . . .
27.2(27) . . .
34.7(33) . . .
36.7(32) . . .
28.1(28) . . .
25.9(27) . . .
31.0(31) . . .
28.6(28) . . .
28.5(28) . . .
33.8(30) . . .
34.0(32) . . .
23.1(26) . . .
22.5(25) . . .
26.9(27) . . .
30.3(28) . . .
30.8(31) . . .
27.5(27) . . .
32.9(30) . . .
32.7(30) . . .
28.5(28) . . .
30.5(31) . . .
24.9(28) . . .
28.9(30) . . .
30.0(28) . . .
28.6(28) . . .
20.5(24) . . .
30.7(32) . . .
26.1(27) . . .
28.9(28) . . .
26.2(27) . . .
30.6(31) . . .
26.3(26) . . .
31.9(30) . . .
36.2(32) . . .
33.2(30) . . .
27.7(28) . . .
28.2(29) . . .
29.6(31) . . .
36.2(31) . . .
36.5(34) . . .
29.2(31) . . .
35.0(33) . . .
31.1(30) . . .
28.2(28) . . .
28.8(30) . . .
26.0(27) . . .
24.4(26) . . .
32.2(30) . . .
31.6(29) . . .
32.3(30) . . .
31.9(30) . . .
24.0(26) . . .
30.0(29) . . .
40.6(33) . . .
23.8(25) . . .
23.5(29) . . .
28.6(29) . . .
32.9(30) . . .
31.5(29) . . .
34.5(32) . . .
27.1(28) . . .
34.6(32) . . .
26.2(27) . . .
23.9(26) . . .
26.9(27) . . .
28.2(29) . . .
22.7(25) . . .
28.2(28) . . .
33.3(30) . . .
37.0(32) . . .
33.8(31) . . .
38.2(34) . . .
34.4(31) . . .
31.0(29) . . .
26.8(29) . . .
27.3(29) . . .
30.3(30) . . .
30.0(28) . . .
30.1(29) . . .
29.8(29) . . .
34.8(35) . . .
32.9(31) . . .
30.0(28) . . .
28.6(29) . . .
33.3(31) . . .
27.8(27) . . .
33.5(30) . . .
29.5(28) . . .
27.1(27) . . .
35.1(32) . . .
31.1(30) . . .
26.2(26) . . .
24.8(25) . . .
28.2(31) . . .
30.9(31) . . .
29.4(29) . . .
21.7(24) . . .
29.2(29) . . .
31.7(30) . . .
29.9(31) . . .
29.4(29) . . .
32.3(30) . . .
32.2(30) . . .
27.9(29) . . .
22.1(28) . . .
28.0(30) . . .
26.3(27) . . .
27.8(27) . . .
29.4(31) . . .
25.3(27) . . .
29.1(30) . . .
27.3(28) . . .
32.8(30) . . .
31.4(32) . . .
24.9(27) . . .
32.0(31) . . .
30.3(29) . . .
25.7(26) . . .
31.3(31) . . .
33.0(32) . . .
28.7(29) . . .
21.5(25) . . .
32.8(30) . . .
30.1(30) . . .
28.9(31) . . .
33.5(31) . . .
28.7(28) . . .
31.3(30) . . .
27.1(28) . . .
30.1(30) . . .
24.8(27) . . .
32.5(30) . . .
27.4(29) . . .
33.6(31) . . .
28.9(29) . . .
29.0(28) . . .
36.0(32) . . .
33.3(31) . . .
28.2(29) . . .
28.0(29) . . .
26.4(27) . . .
29.2(29) . . .
28.2(28) . . .
29.1(31) . . .
33.2(31) . . .
29.1(28) . . .
29.1(28) . . .
24.9(26) . . .
27.0(29) . . .
28.2(29) . . .
25.2(26) . . .
25.0(26) . . .
22.1(25) . . .
31.8(32) . . .
32.3(31) . . .
29.8(29) . . .
23.8(25) . . .
32.8(31) . . .
31.4(32) . . .
31.4(31) . . .
36.4(31) . . .
36.8(32) . . .
34.9(32) . . .
27.0(29) . . .
29.3(29) . . .
25.6(27) . . .
27.2(28) . . .
29.2(31) . . .
26.1(30) . . .
29.3(33) . . .
28.2(28) . . .
25.4(26) . . .
21.5(24) . . .
26.3(29) . . .
25.2(27) . . .
27.3(27) . . .
29.7(30) . . .
34.6(31) . . .
28.9(29) . . .
31.6(31) . . .
30.2(29) . . .
32.5(30) . . .
31.1(30) . . .
26.9(27) . . .
30.7(29) . . .
27.2(27) . . .
31.9(30) . . .
25.1(27) . . .
23.1(26) . . .
24.5(26) . . .
29.8(29) . . .
28.0(29) . . .
29.1(29) . . .
20.3(24) . . .
25.5(27) . . .
38.8(32) . . .
25.1(29) . . .
29.5(30) . . .
24.5(25) . . .
33.3(31) . . .
25.4(27) . . .
25.0(26) . . .
30.6(30) . . .
37.8(33) . . .
28.9(29) . . .
27.3(27) . . .
28.6(28) . . .
36.4(35) . . .
28.5(29) . . .
28.4(28) . . .
27.0(27) . . .
34.3(31) . . .
31.1(31) . . .
29.1(29) . . .
31.3(29) . . .
34.2(31) . . .
23.1(25) . . .
27.0(30) . . .
23.4(26) . . .
31.7(29) . . .
31.5(29) . . .
36.6(34) . . .
25.8(29) . . .
33.0(32) . . .
33.8(30) . . .
29.0(28) . . .
26.5(28) . . .
26.2(26) . . .
29.4(30) . . .
31.8(30) . . .
29.2(27) . . .
34.8(33) . . .
26.2(27) . . .
22.8(28) . . .
30.3(28) . . .
31.3(34) . . .
24.7(27) . . .
27.2(29) . . .
25.4(27) . . .
30.8(29) . . .
34.3(31) . . .
28.5(27) . . .
32.4(31) . . .
26.7(29) . . .
29.0(28) . . .
23.7(27) . . .
26.0(30) . . .
25.0(26) . . .
28.7(28) . . .
27.6(27) . . .
31.0(30) . . .
25.4(30) . . .
33.8(33) . . .
32.7(30) . . .
28.7(28) . . .
31.5(31) . . .
27.8(29) . . .
28.7(29) . . .
28.5(28) . . .
29.9(29) . . .
25.0(26) . . .
27.0(30) . . .
29.3(32) . . .
28.6(29) . . .
25.1(26) . . .
24.1(27) . . .
23.2(26) . . .
29.7(29) . . .
27.9(27) . . .
32.5(30) . . .
25.2(26) . . .
31.5(31) . . .
25.7(27) . . .
24.8(26) . . .
30.3(28) . . .
36.9(32) . . .
26.7(27) . . .
33.5(30) . . .
30.5(29) . . .
30.0(29) . . .
27.8(29) . . .
27.8(29) . . .
29.0(30) . . .
21.6(24) . . .
24.7(27) . . .
30.1(29) . . .
24.6(26) . . .
35.4(32) . . .
37.1(32) . . .
37.1(33) . . .
31.6(29) . . .
31.7(30) . . .
27.8(30) . . .
26.9(27) . . .
30.2(28) . . .
36.0(33) . . .
37.6(33) . . .
33.0(30) . . .
31.9(31) . . .
34.5(31) . . .
33.5(31) . . .
33.9(31) . . .
29.5(28) . . .
29.8(29) . . .
39.3(33) . . .
31.2(30) . . .
32.9(31) . . .
26.4(27) . . .
26.2(26) . . .
29.5(30) . . .
31.0(31) . . .
30.1(29) . . .
33.7(31) . . .
24.2(25) . . .
27.1(28) . . .
33.7(33) . . .
30.1(30) . . .
28.0(28) . . .
31.6(30) . . .
27.4(29) . . .
28.5(30) . . .
27.6(28) . . .
24.9(27) . . .
33.7(31) . . .
28.3(29) . . .
31.1(30) . . .
26.0(28) . . .
34.2(31) . . .
32.2(31) . . .
25.6(26) . . .
29.5(29) . . .
30.0(29) . . .
28.4(28) . . .
32.3(30) . . .
33.0(32) . . .
32.0(31) . . .
32.7(29) . . .
31.0(29) . . .
28.0(28) . . .
30.4(29) . . .
28.4(28) . . .
26.9(28) . . .
29.7(29) . . .
27.9(29) . . .
28.4(29) . . .
33.9(32) . . .
28.0(27) . . .
33.4(30) . . .
30.3(29) . . .
26.8(30) . . .
25.6(28) . . .
28.2(28) . . .
36.6(32) . . .
26.5(28) . . .
25.3(28) . . .
27.9(29) . . .
25.4(26) . . .
31.5(29) . . .
27.5(27) . . .
24.6(26) . . .
27.4(29) . . .
19.2(24) . . .
28.5(28) . . .
19.8(24) . . .
23.5(29) . . .
19.6(23) . . .
29.0(29) . . .
30.7(28) . . .
27.5(27) . . .
28.8(30) . . .
31.3(31) . . .
34.0(30) . . .
32.8(30) . . .
32.3(31) . . .
26.1(28) . . .
21.9(25) . . .
30.6(30) . . .
30.0(29) . . .
29.2(30) . . .
28.7(29) . . .
31.8(31) . . .
24.1(26) . . .
22.9(25) . . .
28.1(28) . . .
28.1(28) . . .
26.8(27) . . .
30.8(29) . . .
29.0(30) . . .
35.2(34) . . .
29.5(30) . . .
24.2(27) . . .
25.0(26) . . .
29.6(30) . . .
32.1(32) . . .
24.8(27) . . .
29.2(29) . . .
36.0(31) . . .
27.5(28) . . .
27.4(29) . . .
25.6(29) . . .
28.4(28) . . .
29.9(28) . . .
33.2(33) . . .
32.6(32) . . .
29.1(28) . . .
33.2(30) . . .
32.6(30) . . .
33.7(33) . . .
24.5(28) . . .
30.1(30) . . .
28.0(27) . . .
33.4(30) . . .
29.2(29) . . .
26.2(29) . . .
24.5(26) . . .
33.7(31) . . .
22.1(24) . . .
34.1(31) . . .
25.2(26) . . .
24.5(27) . . .
29.6(29) . . .
20.2(23) . . .
27.8(28) . . .
26.1(27) . . .
25.9(27) . . .
28.5(28) . . .
25.0(26) . . .
27.7(28) . . .
27.5(30) . . .
23.1(27) . . .
21.8(25) . . .
30.3(29) . . .
23.9(24) . . .
32.9(33) . . .
21.9(25) . . .
29.4(28) . . .
25.7(27) . . .
29.7(31) . . .
31.4(30) . . .
32.5(30) . . .
26.8(26) . . .
31.7(31) . . .
27.1(29) . . .
29.6(30) . . .
29.6(29) . . .
27.6(29) . . .
33.8(31) . . .
29.3(29) . . .
29.5(30) . . .
31.0(29) . . .
36.2(32) . . .
27.8(29) . . .
33.7(33) . . .
26.4(26) . . .
29.6(28) . . .
22.1(25) . . .
24.0(26) . . .
26.6(27) . . .
31.2(31) . . .
28.6(27) . . .
24.7(27) . . .
21.5(26) . . .
26.1(30) . . .
31.0(30) . . .
31.1(29) . . .
25.8(27) . . .
39.1(35) . . .
28.5(29) . . .
29.1(31) . . .
32.4(29) . . .
28.6(28) . . .
29.4(29) . . .
31.5(30) . . .
32.4(31) . . .
30.2(29) . . .
32.5(32) . . .
29.4(29) . . .
26.3(28) . . .
29.4(30) . . .
31.0(29) . . .
30.9(30) . . .
26.8(28) . . .
30.9(30) . . .
26.7(27) . . .
29.4(29) . . .
26.5(28) . . .
23.5(26) . . .
30.3(29) . . .
27.5(28) . . .
31.3(29) . . .
31.3(30) . . .
32.5(32) . . .
33.4(30) . . .
27.5(28) . . .
29.8(28) . . .
33.4(30) . . .
27.6(27) . . .
24.3(25) . . .
31.5(29) . . .
30.6(29) . . .
29.6(32) . . .
23.6(28) . . .
22.5(25) . . .
36.2(32) . . .
35.9(32) . . .
30.4(30) . . .
26.1(30) . . .
25.4(28) . . .
30.1(29) . . .
28.9(28) . . .
35.7(32) . . .
24.5(28) . . .
27.0(29) . . .
31.3(29) . . .
32.0(30) . . .
27.7(29) . . .
23.4(27) . . .
35.2(32) . . .
37.3(32) . . .
31.9(29) . . .
33.5(31) . . .
32.1(30) . . .
30.9(29) . . .
32.0(29) . . .
35.8(33) . . .
28.0(29) . . .
30.4(30) . . .
29.8(28) . . .
30.8(28) . . .
30.2(29) . . .
21.4(23) . . .
32.9(31) . . .
28.9(28) . . .
28.5(28) . . .
31.6(30) . . .
25.2(27) . . .
26.3(27) . . .
31.2(29) . . .
29.8(28) . . .
28.7(28) . . .
40(4) . . .
25.2(27) . . .
24.4(28) . . .
25.1(26) . . .
28.0(29) . . .
27.5(30) . . .
26.5(29) . . .
21.1(25) . . .
28.9(28) . . .
31.6(31) . . .
23.1(27) . . .
28.0(28) . . .
31.1(29) . . .
26.6(27) . . .
26.7(27) . . .
29.1(30) . . .
27.4(28) . . .
29.5(28) . . .
27.5(29) . . .
27.2(30) . . .
27.4(28) . . .
32.9(30) . . .
24.5(26) . . .
29.3(28) . . .
27.6(27) . . .
35.2(34) . . .
23.9(25) . . .
29.8(28) . . .
30.6(31) . . .
31.0(30) . . .
30.8(30) . . .
26.6(29) . . .
37.3(31) . . .
36.8(33) . . .
29.3(28) . . .
26.2(26) . . .
33.5(32) . . .
29.6(28) . . .
26.4(27) . . .
31.7(29) . . .
25.5(27) . . .
25.7(27) . . .
27.2(27) . . .
29.5(29) . . .
28.1(30) . . .
36.7(35) . . .
33.4(31) . . .
22.9(25) . . .
25.3(27) . . .
24.6(29) . . .
22.1(24) . . .
33.3(31) . . .
34.8(30) . . .
31.7(29) . . .
30.9(29) . . .
33.6(30) . . .
31.1(29) . . .
38.9(33) . . .
33.6(33) . . .
33.8(35) . . .
30.5(30) . . .
14.9(20) . . .
21.4(24) . . .
27.9(28) . . .
27.6(31) . . .
29.1(29) . . .
32.1(29) . . .
25.7(27) . . .
29.8(32) . . .
22.1(27) . . .
28.2(30) . . .
32.1(29) . . .
34.5(31) . . .
28.3(27) . . .
31.8(30) . . .
29.3(28) . . .
32.8(30) . . .
41.5(34) . . .
28.0(28) . . .
29.4(30) . . .
32.4(31) . . .
26.2(28) . . .
26.5(27) . . .
32.1(30) . . .
32.4(32) . . .
23.6(28) . . .
27.1(27) . . .
20.4(25) . . .
26.7(29) . . .
31.8(30) . . .
31.1(30) . . .
30.6(30) . . .
30.9(30) . . .
24.4(25) . . .
30.7(30) . . .
31.1(30) . . .
21.6(25) . . .
28.4(29) . . .
34.4(34) . . .
28.0(28) . . .
35.8(33) . . .
28.4(28) . . .
28.9(29) . . .
26.4(26) . . .
28.1(28) . . .
25.8(26) . . .
21.4(26) . . .
27.0(28) . . .
31.0(30) . . .
36.2(33) . . .
28.4(28) . . .
22.0(25) . . .
32.4(31) . . .
26.5(28) . . .
27.2(28) . . .
29.7(28) . . .
29.2(28) . . .
30.2(30) . . .
29.2(31) . . .
29.9(30) . . .
33.8(30) . . .
23.3(26) . . .
21.9(25) . . .
31.3(32) . . .
33.0(31) . . .
35.8(30) . . .
26.3(28) . . .
30.9(30) . . .
30.5(30) . . .
28.8(28) . . .
29.0(28) . . .
27.8(28) . . .
29.1(30) . . .
27.4(29) . . .
26.0(27) . . .
33.7(31) . . .
24.2(27) . . .
31.8(32) . . .
28.1(30) . . .
44(4) . . .
29.6(28) . . .
27.5(27) . . .
26.8(29) . . .
26.2(28) . . .
30.2(29) . . .
34.7(30) . . .
26.4(27) . . .
22.8(25) . . .
31.7(32) . . .
25.6(28) . . .
24.3(26) . . .
29.3(28) . . .
29.1(27) . . .
34.3(32) . . .
18.8(22) . . .
27.6(28) . . .
23.0(25) . . .
27.3(28) . . .
42(4) . . .
31.7(30) . . .
30.1(28) . . .
30.6(30) . . .
27.5(29) . . .
37.1(33) . . .
28.1(28) . . .
23.0(25) . . .
29.6(29) . . .
28.4(30) . . .
33.2(30) . . .
30.0(29) . . .
28.6(28) . . .
41.7(35) . . .
37.3(34) . . .
33.0(30) . . .
24.8(26) . . .
33.2(30) . . .
24.8(27) . . .
30.0(33) . . .
30.2(33) . . .
25.5(27) . . .
30.0(29) . . .
28.4(28) . . .
26.2(28) . . .
24.3(26) . . .
29.1(28) . . .
27.8(28) . . .
24.6(26) . . .
36.3(34) . . .
29.0(28) . . .
30.2(29) . . .
28.7(29) . . .
30.8(31) . . .
28.2(28) . . .
29.5(29) . . .
30.2(28) . . .
24.2(26) . . .
31.6(30) . . .
32.0(31) . . .
34.9(31) . . .
28.7(28) . . .
27.0(27) . . .
33.0(32) . . .
36.9(32) . . .
38.3(33) . . .
27.7(27) . . .
36.7(35) . . .
27.9(29) . . .
26.4(28) . . .
30.3(29) . . .
32.2(30) . . .
29.3(29) . . .
34.2(33) . . .
34.9(33) . . .
30.8(30) . . .
25.2(26) . . .
36.2(33) . . .
37.3(35) . . .
30.8(29) . . .
29.7(29) . . .
36.6(31) . . .
29.7(29) . . .
33.0(32) . . .
28.1(27) . . .
28.5(28) . . .
27.1(28) . . .
33.7(31) . . .
27.1(28) . . .
23.2(25) . . .
24.7(26) . . .
27.1(28) . . .
34.4(34) . . .
32.6(31) . . .
23.4(27) . . .
30.7(30) . . .
32.4(30) . . .
28.4(29) . . .
28.9(28) . . .
30.9(30) . . .
29.5(28) . . .
22.4(25) . . .
31.8(31) . . .
30.0(30) . . .
34.4(31) . . .
30.0(29) . . .
26.8(27) . . .
29.1(30) . . .
28.8(29) . . .
29.8(30) . . .
28.7(28) . . .
36.3(34) . . .
32.3(32) . . .
32.0(32) . . .
25.9(27) . . .
23.7(25) . . .
27.1(27) . . .
27.4(29) . . .
28.6(29) . . .
26.5(27) . . .
37.3(32) . . .
26.6(27) . . .
30.7(32) . . .
29.5(31) . . .
29.2(28) . . .
30.0(28) . . .
25.8(28) . . .
18.4(25) . . .
31.0(31) . . .
36.8(32) . . .
32.4(30) . . .
28.0(28) . . .
25.6(28) . . .
31.6(33) . . .
34.1(30) . . .
32.2(31) . . .
31.8(30) . . .
38(4) . . .
30.4(30) . . .
32.8(30) . . .
25.5(27) . . .
30.8(29) . . .
27.5(27) . . .
32.0(30) . . .
24.6(26) . . .
25.4(27) . . .
26.4(27) . . .
32.8(33) . . .
33.0(33) . . .
32.0(29) . . .
29.8(29) . . .
27.2(28) . . .
33.9(33) . . .
29.9(31) . . .
27.9(27) . . .
30.5(28) . . .
29.7(29) . . .
36.3(33) . . .
31.5(30) . . .
31.9(29) . . .
31.0(30) . . .
20.8(25) . . .
25.0(27) . . .
19.2(22) . . .
26.7(27) . . .
34.8(33) . . .
27.1(27) . . .
28.3(27) . . .
25.9(27) . . .
35.9(31) . . .
27.0(29) . . .
28.9(29) . . .
29.5(28) . . .
31.6(31) . . .
31.2(29) . . .
31.4(29) . . .
37.9(35) . . .
29.0(28) . . .
39.2(34) . . .
33.8(30) . . .
31.8(31) . . .
30.7(30) . . .
25.7(27) . . .
25.0(26) . . .
39.0(33) . . .
33.7(32) . . .
28.5(29) . . .
20.7(25) . . .
22.6(24) . . .
22.5(27) . . .
32.3(31) . . .
34.3(32) . . .
34.4(32) . . .
27.4(27) . . .
29.8(30) . . .
23.1(24) . . .
30.5(31) . . .
22.5(25) . . .
25.4(27) . . .
27.0(27) . . .
26.1(28) . . .
28.4(29) . . .
31.6(31) . . .
33.5(30) . . .
33.1(30) . . .
30.7(28) . . .
30.1(30) . . .
18.7(23) . . .
36.3(32) . . .
23.7(26) . . .
32.6(31) . . .
27.6(27) . . .
30.7(29) . . .
30.0(29) . . .
28.7(29) . . .
28.2(30) . . .
25.2(26) . . .
33.3(31) . . .
30.3(29) . . .
32.6(31) . . .
28.8(29) . . .
23.5(28) . . .
27.7(29) . . .
28.4(29) . . .
26.2(28) . . .
29.4(30) . . .
28.8(29) . . .
27.7(27) . . .
32.7(30) . . .
27.2(29) . . .
23.4(27) . . .
35.7(33) . . .
30.4(29) . . .
35.4(32) . . .
30.5(32) . . .
30.4(32) . . .
27.6(28) . . .
27.9(28) . . .
26.6(28) . . .
30.8(31) . . .
30.6(31) . . .
27.2(28) . . .
32.9(30) . . .
26.2(26) . . .
31.9(29) . . .
39.4(34) . . .
35.1(32) . . .
37.6(32) . . .
34.0(31) . . .
31.8(29) . . .
23.7(24) . . .
34.8(32) . . .
34.7(31) . . .
28.5(29) . . .
30.3(31) . . .
33.8(32) . . .
31.4(29) . . .
27.9(28) . . .
26.7(28) . . .
30.5(30) . . .
23.1(25) . . .
37.1(32) . . .
26.0(27) . . .
30.4(31) . . .
30.0(29) . . .
28.4(28) . . .
31.7(29) . . .
36.0(32) . . .
27.3(28) . . .
31.4(31) . . .
23.0(25) . . .
23.0(26) . . .
32.7(30) . . .
36.0(33) . . .
23.3(25) . . .
27.1(27) . . .
23.8(25) . . .
27.6(28) . . .
24.0(27) . . .
27.8(28) . . .
37.4(33) . . .
26.5(26) . . .
24.4(25) . . .
28.6(29) . . .
26.6(28) . . .
24.3(26) . . .
24.2(25) . . .
28.6(28) . . .
37.7(35) . . .
27.2(29) . . .
31.6(29) . . .
25.9(28) . . .
23.2(25) . . .
20.8(25) . . .
25.2(30) . . .
31.3(31) . . .
31.3(29) . . .
32.2(33) . . .
28.6(30) . . .
32.5(33) . . .
36.9(33) . . .
30.0(29) . . .
23.9(27) . . .
29.4(31) . . .
21.5(23) . . .
37.8(32) . . .
31.7(29) . . .
30.4(29) . . .
34.1(32) . . .
28.4(27) . . .
23.1(25) . . .
31.3(29) . . .
32.8(31) . . .
27.2(30) . . .
29.7(30) . . .
30.2(28) . . .
31.2(29) . . .
28.5(30) . . .
24.4(28) . . .
29.5(33) . . .
35.4(32) . . .
31.0(30) . . .
26.4(28) . . .
34.5(33) . . .
27.3(29) . . .
29.9(29) . . .
33.6(30) . . .
33.3(30) . . .
36.0(33) . . .
28.8(30) . . .
32.3(30) . . .
25.6(26) . . .
31.5(30) . . .
29.5(29) . . .
28.2(28) . . .
27.3(27) . . .
24.9(27) . . .
22.4(26) . . .
31.6(34) . . .
21.0(24) . . .
25.5(26) . . .
34.6(31) . . .
28.8(28) . . .
25.0(28) . . .
30.2(30) . . .
21.1(25) . . .
31.7(29) . . .
31.4(31) . . .
23.8(26) . . .
32.3(32) . . .
32.8(30) . . .
39.1(35) . . .
29.7(28) . . .
37.5(35) . . .
24.9(26) . . .
29.0(28) . . .
25.1(27) . . .
33.0(31) . . .
27.4(28) . . .
30.9(31) . . .
31.7(29) . . .
24.7(26) . . .
35.0(33) . . .
32.0(31) . . .
24.4(26) . . .
29.4(28) . . .
20.4(24) . . .
26.5(29) . . .
31.5(32) . . .
20.8(24) . . .
25.7(27) . . .
25.9(27) . . .
24.8(26) . . .
29.6(30) . . .
32.2(30) . . .
29.5(29) . . .
26.3(30) . . .
28.4(31) . . .
32.8(30) . . .
35.7(31) . . .
37.2(32) . . .
26.9(27) . . .
34.4(33) . . .
30.7(29) . . .
40.5(33) . . .
32.1(31) . . .
22.2(27) . . .
23.1(27) . . .
34.9(33) . . .
30.8(29) . . .
28.5(28) . . .
27.0(27) . . .
31.6(31) . . .
24.9(28) . . .
24.5(27) . . .
24.5(25) . . .
25.5(28) . . .
23.4(28) . . .
29.1(32) . . .
25.4(26) . . .
30.4(29) . . .
33.1(31) . . .
33.9(31) . . .
35.7(31) . . .
25.2(27) . . .
21.2(25) . . .
32.6(33) . . .
33.5(32) . . .
28.9(28) . . .
27.3(27) . . .
29.4(30) . . .
24.9(26) . . .
23.1(26) . . .
30.0(31) . . .
25.5(27) . . .
32.1(30) . . .
25.2(26) . . .
31.1(29) . . .
28.6(29) . . .
28.1(28) . . .
33.2(31) . . .
30.5(31) . . .
26.0(29) . . .
25.8(26) . . .
23.4(27) . . .
21.0(25) . . .
34.3(34) . . .
26.8(27) . . .
30.9(29) . . .
26.8(27) . . .
33.3(32) . . .
31.4(31) . . .
29.5(29) . . .
25.6(26) . . .
23.9(26) . . .
28.0(28) . . .
31.0(30) . . .
33.2(31) . . .
21.2(24) . . .
35.6(32) . . .
26.5(27) . . .
26.7(28) . . .
30.1(31) . . .
29.3(28) . . .
23.7(25) . . .
26.9(28) . . .
34.9(34) . . .
27.0(27) . . .
27.6(28) . . .
23.8(25) . . .
35.1(33) . . .
31.4(30) . . .
30.3(30) . . .
29.6(28) . . .
33.2(33) . . .
33.7(31) . . .
29.8(30) . . .
32.7(31) . . .
25.9(27) . . .
27.8(30) . . .
30.8(29) . . .
29.9(30) . . .
24.3(27) . . .
27.8(27) . . .
25.2(28) . . .
27.0(27) . . .
39(4) . . .
26.5(28) . . .
32.9(31) . . .
27.0(30) . . .
25.2(27) . . .
30.0(31) . . .
30.5(30) . . .
28.7(29) . . .
24.7(27) . . .
24.8(28) . . .
26.6(27) . . .
28.7(28) . . .
26.4(26) . . .
40.1(34) . . .
30.6(31) . . .
25.3(28) . . .
26.4(27) . . .
27.9(27) . . .
24.3(27) . . .
29.4(32) . . .
28.3(29) . . .
30.2(28) . . .
29.4(28) . . .
34.2(31) . . .
33.2(31) . . .
27.0(28) . . .
26.6(27) . . .
24.6(26) . . .
34.5(32) . . .
29.1(30) . . .
25.0(27) . . .
23.5(25) . . .
27.3(27) . . .
30.7(30) . . .
26.8(30) . . .
21.1(25) . . .
29.6(29) . . .
30.1(31) . . .
27.4(31) . . .
24.1(27) . . .
30.2(30) . . .
32.8(29) . . .
35.8(31) . . .
28.9(29) . . .
28.4(29) . . .
28.5(28) . . .
27.1(27) . . .
28.4(28) . . .
36.8(32) . . .
33.2(30) . . .
32.5(30) . . .
31.9(30) . . .
26.9(27) . . .
32.8(31) . . .
37.4(33) . . .
35.0(31) . . .
35.0(31) . . .
29.3(30) . . .
26.1(29) . . .
28.0(29) . . .
34.6(32) . . .
34.1(31) . . .
26.5(27) . . .
34.5(32) . . .
27.7(28) . . .
24.5(26) . . .
24.7(26) . . .
28.0(30) . . .
28.7(30) . . .
26.3(27) . . .
30.5(30) . . .
29.9(29) . . .
29.6(30) . . .
21.3(26) . . .
22.2(25) . . .
24.4(26) . . .
32.3(31) . . .
27.3(29) . . .
31.2(33) . . .
23.2(25) . . .
26.2(27) . . .
31.3(30) . . .
28.2(28) . . .
25.2(29) . . .
28.2(29) . . .
26.9(28) . . .
37.1(32) . . .
32.4(30) . . .
35.5(31) . . .
33.6(30) . . .
26.3(27) . . .
18.3(23) . . .
26.7(29) . . .
27.6(30) . . .
28.9(29) . . .
28.5(28) . . .
30.5(30) . . .
29.7(30) . . .
33.1(31) . . .
32.5(30) . . .
29.0(28) . . .
28.8(29) . . .
29.6(30) . . .
27.4(29) . . .
25.5(26) . . .
24.3(26) . . .
28.6(29) . . .
27.4(28) . . .
30.3(29) . . .
30.1(29) . . .
23.2(25) . . .
27.3(29) . . .
24.5(28) . . .
31.8(31) . . .
25.9(26) . . .
21.6(24) . . .
25.4(27) . . .
40(4) . . .
33.7(30) . . .
32.7(30) . . .
35.3(32) . . .
26.4(29) . . .
27.9(29) . . .
35.2(31) . . .
36.3(31) . . .
21.9(25) . . .
33.5(35) . . .
27.0(29) . . .
31.9(32) . . .
38.4(32) . . .
26.5(29) . . .
29.2(28) . . .
26.4(28) . . .
27.9(30) . . .
39.3(33) . . .
25.8(26) . . .
30.5(28) . . .
33.9(33) . . .
34.5(34) . . .
20.2(24) . . .
24.6(26) . . .
28.1(28) . . .
29.9(29) . . .
28.9(29) . . .
31.8(29) . . .
32.1(31) . . .
31.5(33) . . .
29.6(28) . . .
25.5(27) . . .
26.7(27) . . .
34.2(33) . . .
30.3(31) . . .
25.3(27) . . .
30.2(30) . . .
30.0(28) . . .
28.3(28) . . .
29.9(32) . . .
28.0(29) . . .
32.3(31) . . .
30.7(29) . . .
28.4(31) . . .
25.8(28) . . .
22.0(25) . . .
33.3(31) . . .
30.1(28) . . .
23.5(26) . . .
30.9(31) . . .
30.9(29) . . .
31.2(29) . . .
23.5(26) . . .
32.4(31) . . .
30.6(32) . . .
32.9(32) . . .
20.4(24) . . .
30.9(29) . . .
22.7(25) . . .
28.4(29) . . .
33.7(31) . . .
19.3(24) . . .
26.9(27) . . .
33.2(31) . . .
32.9(32) . . .
28.6(29) . . .
26.4(27) . . .
28.1(28) . . .
28.4(28) . . .
32.6(31) . . .
37.4(32) . . .
34.3(30) . . .
29.9(28) . . .
27.8(29) . . .
30.2(30) . . .
33.9(30) . . .
26.9(27) . . .
23.4(26) . . .
38(4) . . .
23.8(28) . . .
21.1(25) . . .
29.5(28) . . .
25.5(28) . . .
22.6(26) . . .
26.8(28) . . .
25.0(26) . . .
27.5(28) . . .
38.4(34) . . .
31.8(31) . . .
28.2(29) . . .
30.8(30) . . .
24.6(26) . . .
35.1(34) . . .
27.9(28) . . .
23.4(25) . . .
30.1(31) . . .
26.5(27) . . .
28.1(28) . . .
29.9(30) . . .
30.6(31) . . .
30.4(30) . . .
24.8(26) . . .
26.3(28) . . .
28.2(31) . . .
30.8(31) . . .
23.8(26) . . .
19.8(24) . . .
27.7(30) . . .
26.8(28) . . .
28.9(31) . . .
30.4(29) . . .
30.2(28) . . .
32.7(31) . . .
33.8(32) . . .
31.4(31) . . .
20.0(24) . . .
26.2(27) . . .
32.9(32) . . .
29.6(29) . . .
29.6(30) . . .
27.3(27) . . .
26.8(28) . . .
26.7(29) . . .
25.9(28) . . .
32.6(31) . . .
31.4(29) . . .
36.0(31) . . .
32.7(35) . . .
25.1(28) . . .
32.9(32) . . .
29.2(29) . . .
34.3(31) . . .
21.5(23) . . .
32.2(31) . . .
32.9(31) . . .
31.4(30) . . .
28.9(28) . . .
37.4(33) . . .
23.7(25) . . .
33.4(31) . . .
30.1(29) . . .
32.7(30) . . .
29.0(31) . . .
31.9(32) . . .
27.2(28) . . .
32.5(29) . . .
32.2(31) . . .
30.9(29) . . .
35.1(33) . . .
31.6(29) . . .
21.0(24) . . .
25.2(28) . . .
27.8(31) . . .
31.4(31) . . .
30.5(29) . . .
25.6(26) . . .
25.9(28) . . .
30.9(33) . . .
25.0(28) . . .
25.3(26) . . .
23.7(25) . . .
22.6(25) . . .
33.1(33) . . .
28.0(28) . . .
28.0(28) . . .
21.1(24) . . .
29.5(30) . . .
36.4(34) . . .
31.9(33) . . .
31.0(29) . . .
27.5(27) . . .
25.5(25) . . .
33.9(31) . . .
28.1(28) . . .
27.1(27) . . .
29.1(28) . . .
32.8(32) . . .
31.2(30) . . .
30.4(29) . . .
25.4(26) . . .
27.1(28) . . .
21.4(24) . . .
25.5(27) . . .
25.2(27) . . .
28.5(28) . . .
22.7(25) . . .
33.5(34) . . .
33.2(32) . . .
29.0(28) . . .
31.3(29) . . .
30.1(28) . . .
29.6(29) . . .
31.7(30) . . .
33.0(29) . . .
35.0(30) . . .
28.5(29) . . .
30.4(32) . . .
33.8(32) . . .
30.5(29) . . .
29.7(29) . . .
26.9(29) . . .
28.1(30) . . .
32.4(30) . . .
30.1(29) . . .
25.5(27) . . .
29.7(30) . . .
24.5(27) . . .
28.5(32) . . .
30.3(29) . . .
24.3(26) . . .
28.5(29) . . .
28.0(30) . . .
30.7(30) . . .
30.7(29) . . .
26.0(26) . . .
26.5(27) . . .
22.1(25) . . .
27.7(28) . . .
30.0(29) . . .
33.6(30) . . .
29.3(28) . . .
36.6(34) . . .
29.1(29) . . .
30.5(29) . . .
25.4(27) . . .
28.5(30) . . .
28.0(30) . . .
28.9(30) . . .
21.2(24) . . .
20.3(25) . . .
26.6(28) . . .
29.8(30) . . .
34.7(32) . . .
32.6(30) . . .
36.3(33) . . .
33.5(32) . . .
37(4) . . .
28.5(28) . . .
36.2(31) . . .
29.8(29) . . .
28.3(29) . . .
25.3(26) . . .
29.0(28) . . .
27.8(28) . . .
30.5(29) . . .
22.3(25) . . .
25.7(27) . . .
40.6(34) . . .
27.2(28) . . .
26.3(27) . . .
22.9(26) . . .
34.1(33) . . .
25.7(26) . . .
22.2(24) . . .
34.4(34) . . .
34.8(34) . . .
34.8(31) . . .
31.9(29) . . .
31.1(29) . . .
26.0(27) . . .
33.8(33) . . .
27.3(28) . . .
31.8(29) . . .
31.3(30) . . .
32.0(31) . . .
18.6(24) . . .
25.7(26) . . .
30.3(29) . . .
23.2(26) . . .
39.1(33) . . .
32.1(30) . . .
32.0(32) . . .
29.1(28) . . .
30.9(29) . . .
28.3(29) . . .
33.1(31) . . .
33.0(32) . . .
22.2(25) . . .
26.9(28) . . .
28.9(31) . . .
25.1(26) . . .
30.5(31) . . .
31.5(29) . . .
34.2(33) . . .
30.8(30) . . .
31.0(29) . . .
25.3(27) . . .
32.6(29) . . .
26.6(29) . . .
23.9(26) . . .
31.1(30) . . .
28.6(30) . . .
29.8(30) . . .
30.7(31) . . .
35(4) . . .
29.6(30) . . .
22.7(25) . . .
22.1(25) . . .
37(4) . . .
21.5(27) . . .
29.2(31) . . .
27.7(29) . . .
31.3(30) . . .
42.0(34) . . .
31.0(31) . . .
28.7(29) . . .
30.2(28) . . .
30.5(29) . . .
23.4(24) . . .
27.1(28) . . .
33.1(30) . . .
25.1(26) . . .
29.7(31) . . .
28.8(29) . . .
26.0(26) . . .
27.1(29) . . .
21.5(24) . . .
30.5(30) . . .
30.7(30) . . .
24.7(27) . . .
26.6(28) . . .
27.2(27) . . .
25.0(26) . . .
32.6(31) . . .
27.9(29) . . .
33.8(33) . . .
31.4(29) . . .
28.5(30) . . .
32.2(31) . . .
34.8(31) . . .
23.5(25) . . .
31.5(29) . . .
32.8(30) . . .
28.3(30) . . .
24.3(28) . . .
31.0(30) . . .
29.5(28) . . .
32.8(30) . . .
29.0(29) . . .
26.5(26) . . .
33.6(30) . . .
32.4(30) . . .
32.9(32) . . .
29.2(30) . . .
24.1(26) . . .
22.6(24) . . .
26.5(27) . . .
24.6(26) . . .
21.2(25) . . .
38.8(34) . . .
31.1(29) . . .
22.9(25) . . .
28.4(30) . . .
27.6(30) . . .
25.5(27) . . .
23.5(25) . . .
30.8(30) . . .
31.9(30) . . .
31.3(32) . . .
24.3(26) . . .
30.5(28) . . .
33.5(32) . . .
28.9(28) . . .
31.1(30) . . .
33.5(31) . . .
24.6(26) . . .
27.9(28) . . .
29.7(31) . . .
30.6(30) . . .
32.3(32) . . .
31.6(29) . . .
23.0(25) . . .
37.5(34) . . .
32.6(29) . . .
31.0(30) . . .
28.3(28) . . .
26.3(27) . . .
27.1(29) . . .
22.2(25) . . .
28.4(29) . . .
23.8(25) . . .
30.4(31) . . .
21.4(27) . . .
28.6(32) . . .
30.9(29) . . .
29.9(28) . . .
31.0(30) . . .
28.9(30) . . .
26.6(27) . . .
33.2(30) . . .
30.9(29) . . .
31.0(30) . . .
33.2(33) . . .
26.3(26) . . .
29.1(28) . . .
26.0(26) . . .
34.5(31) . . .
28.7(29) . . .
24.1(26) . . .
35.9(31) . . .
32.4(30) . . .
23.5(27) . . .
25.3(31) . . .
32.2(32) . . .
33.8(31) . . .
35.0(31) . . .
30.4(32) . . .
30.1(31) . . .
30.6(30) . . .
30.5(29) . . .
27.5(28) . . .
26.5(28) . . .
22.5(26) . . .
26.6(29) . . .
29.8(28) . . .
28.8(29) . . .
25.7(27) . . .
36.3(35) . . .
35.6(34) . . .
31.5(29) . . .
25.9(28) . . .
28.3(29) . . .
27.9(30) . . .
25.6(27) . . .
29.4(28) . . .
32.1(30) . . .
30.5(29) . . .
29.5(30) . . .
25.3(27) . . .
34.4(30) . . .
27.0(27) . . .
25.0(27) . . .
28.8(29) . . .
33.6(30) . . .
24.3(26) . . .
36.8(33) . . .
29.7(31) . . .
29.3(30) . . .
33.2(30) . . .
30.4(29) . . .
24.0(26) . . .
25.5(28) . . .
37.7(34) . . .
29.0(28) . . .
24.5(26) . . .
24.9(26) . . .
32.8(33) . . .
23.7(25) . . .
23.0(26) . . .
26.8(26) . . .
29.9(29) . . .
25.6(27) . . .
27.0(27) . . .
28.4(28) . . .
31.6(30) . . .
35.2(32) . . .
32.3(31) . . .
32.5(31) . . .
31.2(29) . . .
28.0(27) . . .
28.7(28) . . .
27.8(29) . . .
24.6(26) . . .
30.8(29) . . .
26.7(28) . . .
21.4(24) . . .
32.0(32) . . .
29.5(29) . . .
33.9(30) . . .
29.1(29) . . .
26.3(27) . . .
25.0(27) . . .
31.3(33) . . .
26.1(27) . . .
31.2(31) . . .
27.6(30) . . .
33.1(32) . . .
27.9(28) . . .
32.1(29) . . .
35.0(32) . . .
33.5(33) . . .
24.4(25) . . .
28.5(28) . . .
27.9(27) . . .
27.4(27) . . .
31.4(30) . . .
22.3(25) . . .
24.9(26) . . .
32.2(30) . . .
32.3(30) . . .
29.2(30) . . .
29.1(30) . . .
25.1(26) . . .
30.1(29) . . .
29.4(29) . . .
34.3(34) . . .
30.3(30) . . .
30.1(28) . . .
28.7(28) . . .
31.8(30) . . .
26.5(27) . . .
28.5(28) . . .
24.2(26) . . .
24.2(25) . . .
27.1(27) . . .
35.7(34) . . .
27.8(27) . . .
37.9(32) . . .
32.9(31) . . .
29.3(29) . . .
22.9(26) . . .
34.1(34) . . .
33.0(30) . . .
24.8(26) . . .
22.8(25) . . .
26.5(27) . . .
27.5(29) . . .
27.4(27) . . .
30.6(29) . . .
20.0(25) . . .
24.9(29) . . .
33.3(32) . . .
31.2(29) . . .
22.2(24) . . .
25.4(28) . . .
25.5(27) . . .
31.8(30) . . .
24.4(26) . . .
29.5(28) . . .
33.7(33) . . .
28.8(30) . . .
31.1(29) . . .
33.8(30) . . .
27.4(27) . . .
37.0(34) . . .
28.3(29) . . .
26.5(27) . . .
26.4(27) . . .
19.7(23) . . .
32.4(32) . . .
26.3(26) . . .
33.3(30) . . .
28.7(28) . . .
32.2(30) . . .
30.3(31) . . .
41(4) . . .
32.5(30) . . .
30.1(28) . . .
30.4(30) . . .
26.4(29) . . .
33.0(33) . . .
26.3(27) . . .
28.7(28) . . .
30.6(29) . . .
29.6(31) . . .
30.4(30) . . .
37.8(32) . . .
31.6(29) . . .
29.3(29) . . .
24.1(27) . . .
32.6(32) . . .
28.3(28) . . .
29.4(29) . . .
35.1(34) . . .
24.8(29) . . .
27.4(28) . . .
30.7(29) . . .
27.5(29) . . .
29.3(30) . . .
32.3(32) . . .
28.0(29) . . .
29.4(28) . . .
21.6(24) . . .
37.6(34) . . .
34.6(30) . . .
29.1(30) . . .
35.7(32) . . .
35.3(31) . . .
29.8(29) . . .
23.5(25) . . .
27.3(28) . . .
23.4(25) . . .
28.5(29) . . .
33.3(34) . . .
35.7(34) . . .
24.6(26) . . .
28.3(29) . . .
34.2(33) . . .
30.4(32) . . .
28.3(29) . . .
37.2(32) . . .
27.0(27) . . .
30.4(29) . . .
25.6(29) . . .
24.7(28) . . .
24.0(26) . . .
29.7(29) . . .
31.6(31) . . .
26.8(29) . . .
30.0(30) . . .
29.8(28) . . .
30.1(29) . . .
30.5(28) . . .
28.1(29) . . .
26.5(27) . . .
28.5(28) . . .
36.1(31) . . .
27.6(27) . . .
25.0(28) . . .
31.9(30) . . .
32.5(29) . . .
31.9(29) . . .
34.7(32) . . .
27.8(28) . . .
27.5(28) . . .
20.5(24) . . .
25.0(26) . . .
29.2(28) . . .
26.1(27) . . .
26.4(29) . . .
26.6(27) . . .
28.4(28) . . .
27.9(28) . . .
39.2(35) . . .
32.3(30) . . .
25.2(27) . . .
26.9(27) . . .
38.5(34) . . .
31.3(29) . . .
33.4(30) . . .
33.7(30) . . .
28.2(28) . . .
27.8(29) . . .
29.3(31) . . .
26.1(30) . . .
24.0(25) . . .
27.5(28) . . .
26.4(28) . . .
30.1(29) . . .
27.6(27) . . .
33.5(31) . . .
30.4(28) . . .
29.5(30) . . .
22.2(25) . . .
28.6(29) . . .
28.1(29) . . .
31.6(29) . . .
31.7(31) . . .
26.0(27) . . .
31.3(30) . . .
24.4(26) . . .
31.4(30) . . .
31.6(32) . . .
29.6(30) . . .
24.0(25) . . .
27.9(27) . . .
32.3(31) . . .
25.3(27) . . .
33.0(33) . . .
28.4(28) . . .
30.7(29) . . .
29.2(29) . . .
26.7(29) . . .
19.3(24) . . .
29.2(28) . . .
25.1(26) . . .
28.8(29) . . .
33.5(33) . . .
33.0(30) . . .
27.8(27) . . .
31.7(30) . . .
24.3(26) . . .
17.7(23) . . .
29.6(31) . . .
33.3(30) . . .
33.4(31) . . .
30.5(30) . . .
26.0(27) . . .
26.2(26) . . .
30.5(29) . . .
27.1(28) . . .
29.3(30) . . .
27.5(29) . . .
24.1(26) . . .
35.5(31) . . .
34.1(32) . . .
24.7(26) . . .
22.2(25) . . .
29.1(30) . . .
27.4(28) . . .
19.2(23) . . .
28.0(29) . . .
36.0(34) . . .
31.4(32) . . .
28.0(27) . . .
27.8(29) . . .
31.7(32) . . .
28.6(28) . . .
25.7(27) . . .
26.6(27) . . .
35.1(32) . . .
23.8(28) . . .
22.3(25) . . .
33.5(32) . . .
25.3(25) . . .
32.9(31) . . .
30.3(31) . . .
32.2(30) . . .
34.5(31) . . .
25.4(27) . . .
29.6(30) . . .
34.6(34) . . .
29.9(28) . . .
26.5(26) . . .
33.2(31) . . .
26.0(27) . . .
27.5(31) . . .
32.4(31) . . .
28.7(28) . . .
26.2(27) . . .
26.6(27) . . .
31.6(30) . . .
29.3(28) . . .
30.4(29) . . .
27.7(28) . . .
28.6(30) . . .
23.0(26) . . .
25.5(27) . . .
23.6(25) . . .
30.4(29) . . .
26.0(29) . . .
27.7(30) . . .
19.2(23) . . .
31.6(29) . . .
33.2(31) . . .
36.1(34) . . .
23.7(28) . . .
29.3(29) . . .
30.1(29) . . .
26.3(27) . . .
25.3(28) . . .
33.2(32) . . .
28.0(28) . . .
30.0(29) . . .
22.1(26) . . .
27.3(28) . . .
34.5(32) . . .
32.8(30) . . .
29.4(28) . . .
29.0(29) . . .
23.0(26) . . .
35.0(32) . . .
24.8(26) . . .
30.0(29) . . .
23.2(25) . . .
28.3(31) . . .
26.2(27) . . .
23.9(26) . . .
28.2(28) . . .
28.0(29) . . .
26.7(28) . . .
25.1(27) . . .
24.6(26) . . .
25.9(26) . . .
20.6(23) . . .
28.3(29) . . .
23.9(26) . . .
30.2(29) . . .
29.4(28) . . .
22.8(25) . . .
37(4) . . .
29.6(31) . . .
29.3(28) . . .
33.4(31) . . .
29.2(29) . . .
30.9(31) . . .
24.2(27) . . .
27.2(28) . . .
26.1(26) . . .
27.6(29) . . .
24.4(27) . . .
26.5(27) . . .
35.2(32) . . .
30.6(30) . . .
29.4(30) . . .
35.7(32) . . .
32.6(29) . . .
30.8(31) . . .
33.1(32) . . .
32.1(30) . . .
27.0(27) . . .
27.1(29) . . .
27.0(27) . . .
25.1(27) . . .
31.5(32) . . .
33.6(32) . . .
28.8(29) . . .
31.9(30) . . .
24.5(27) . . .
30.7(30) . . .
25.3(27) . . .
30.8(29) . . .
27.1(27) . . .
22.4(28) . . .
30.4(34) . . .
31.9(31) . . .
29.4(30) . . .
29.9(28) . . .
25.1(26) . . .
32.2(32) . . .
30.0(30) . . .
30.0(29) . . .
32.0(30) . . .
25.5(27) . . .
32.3(33) . . .
29.6(29) . . .
35.6(31) . . .
27.4(27) . . .
26.5(27) . . .
34.0(31) . . .
23.5(28) . . .
28.0(29) . . .
31.8(30) . . .
28.0(29) . . .
28.1(28) . . .
29.9(30) . . .
29.3(28) . . .
29.0(28) . . .
26.3(27) . . .
32.5(33) . . .
27.3(28) . . .
28.3(28) . . .
28.1(28) . . .
24.1(27) . . .
26.5(29) . . .
27.7(27) . . .
24.3(26) . . .
19.8(23) . . .
32.4(31) . . .
22.9(26) . . .
25.6(27) . . .
26.3(28) . . .
31.9(30) . . .
30.5(32) . . .
34(4) . . .
31.0(30) . . .
27.1(27) . . .
22.3(28) . . .
25.8(26) . . .
34.8(32) . . .
29.7(29) . . .
27.2(27) . . .
26.9(27) . . .
29.6(30) . . .
24.2(26) . . .
31.0(28) . . .
36.3(32) . . .
31.3(30) . . .
30.4(31) . . .
26.2(30) . . .
24.7(26) . . .
23.3(25) . . .
31.6(29) . . .
28.9(27) . . .
40.1(34) . . .
25.5(27) . . .
28.2(29) . . .
27.5(28) . . .
28.0(31) . . .
25.5(29) . . .
31.9(31) . . .
25.2(26) . . .
34.5(32) . . .
28.4(28) . . .
29.2(29) . . .
28.2(28) . . .
29.7(29) . . .
28.7(28) . . .
30.8(30) . . .
31.5(31) . . .
24.5(26) . . .
26.9(27) . . .
33.9(32) . . .
27.9(27) . . .
26.1(26) . . .
33.9(30) . . .
31.0(29) . . .
28.4(30) . . .
24.0(26) . . .
30.1(30) . . .
23.7(25) . . .
27.0(28) . . .
32.5(33) . . .
27.1(27) . . .
26.1(27) . . .
35.5(31) . . .
31.3(30) . . .
26.8(28) . . .
25.8(28) . . .
24.4(27) . . .
29.3(28) . . .
26.5(27) . . .
24.5(27) . . .
32.8(31) . . .
33.3(30) . . .
35.8(32) . . .
25.1(26) . . .
21.1(25) . . .
21.1(25) . . .
28.2(28) . . .
27.7(27) . . .
26.5(27) . . .
28.6(31) . . .
27.0(28) . . .
28.1(28) . . .
29.9(28) . . .
35.6(33) . . .
29.6(31) . . .
24.7(28) . . .
26.9(28) . . .
28.6(27) . . .
25.1(28) . . .
28.3(31) . . .
30.4(30) . . .
35.0(30) . . .
28.5(28) . . .
27.8(28) . . .
28.7(30) . . .
27.5(29) . . .
25.6(27) . . .
32.5(30) . . .
27.8(28) . . .
21.4(25) . . .
28.5(28) . . .
26.2(27) . . .
29.8(29) . . .
31.6(33) . . .
23.8(27) . . .
23.3(26) . . .
31.1(29) . . .
26.5(27) . . .
29.6(30) . . .
28.2(27) . . .
35.3(31) . . .
26.8(27) . . .
38(4) . . .
28.0(29) . . .
32.8(33) . . .
33.2(31) . . .
29.9(28) . . .
39(4) . . .
30.2(31) . . .
26.1(30) . . .
24.6(27) . . .
25.4(26) . . .
23.0(25) . . .
30.7(30) . . .
30.1(28) . . .
36.2(31) . . .
25.8(27) . . .
32.5(30) . . .
24.0(26) . . .
27.9(30) . . .
29.1(28) . . .
32.8(31) . . .
29.6(30) . . .
25.6(30) . . .
25.5(28) . . .
25.0(26) . . .
25.6(26) . . .
32.5(30) . . .
31.0(31) . . .
26.6(30) . . .
25.3(27) . . .
20.8(25) . . .
25.6(27) . . .
25.1(27) . . .
34.0(32) . . .
32.3(30) . . .
37(4) . . .
23.3(26) . . .
19.7(23) . . .
32.8(32) . . .
26.2(27) . . .
26.8(27) . . .
31.4(31) . . .
28.5(29) . . .
33.4(30) . . .
34.3(31) . . .
35.3(33) . . .
35.2(34) . . .
26.9(28) . . .
36.2(32) . . .
26.8(27) . . .
37.3(32) . . .
30.4(30) . . .
34.9(32) . . .
35.3(31) . . .
33.0(30) . . .
30.3(30) . . .
29.6(31) . . .
28.6(30) . . .
27.5(27) . . .
38.1(33) . . .
30.2(30) . . .
25.3(26) . . .
31.9(30) . . .
37.8(32) . . .
31.5(29) . . .
22.7(26) . . .
37(4) . . .
32.8(31) . . .
30.1(28) . . .
34.9(31) . . .
26.6(28) . . .
21.2(23) . . .
26.1(27) . . .
27.2(27) . . .
30.9(31) . . .
30.0(29) . . .
29.2(30) . . .
35.0(33) . . .
30.8(29) . . .
34.9(30) . . .
38.3(32) . . .
29.8(31) . . .
23.2(25) . . .
37.9(32) . . .
32.9(31) . . .
29.0(28) . . .
27.3(28) . . .
27.1(28) . . .
30.6(29) . . .
18.7(22) . . .
24.5(27) . . .
23.8(26) . . .
25.2(27) . . .
21.8(24) . . .
28.7(29) . . .
25.4(26) . . .
30.1(30) . . .
28.3(29) . . .
24.5(26) . . .
28.5(30) . . .
32.1(34) . . .
28.8(33) . . .
31.8(30) . . .
32.0(30) . . .
25.4(29) . . .
24.9(29) . . .
28.3(29) . . .
25.6(27) . . .
19.9(23) . . .
32.5(30) . . .
30.4(30) . . .
37(4) . . .
28.4(28) . . .
35.0(31) . . .
19.7(24) . . .
32.4(33) . . .
32.9(31) . . .
31.8(29) . . .
29.0(28) . . .
25.3(26) . . .
31.2(31) . . .
34(4) . . .
30.6(29) . . .
32.6(32) . . .
34.9(33) . . .
32.7(32) . . .
27.2(28) . . .
36.0(31) . . .
26.7(27) . . .
25.5(30) . . .
31.5(32) . . .
20.3(23) . . .
36.7(32) . . .
30.3(30) . . .
28.4(29) . . .
29.7(31) . . .
23.6(26) . . .
27.2(27) . . .
34.2(31) . . .
29.9(30) . . .
30.2(29) . . .
30.4(28) . . .
34.7(31) . . .
27.4(29) . . .
21.7(25) . . .
38(4) . . .
31.8(30) . . .
21.4(25) . . .
23.8(27) . . .
22.8(26) . . .
29.8(30) . . .
27.1(28) . . .
31.0(30) . . .
28.2(29) . . .
28.4(32) . . .
25.6(28) . . .
21.8(25) . . .
25.9(27) . . .
23.5(26) . . .
25.8(29) . . .
25.7(28) . . .
22.8(25) . . .
21.8(24) . . .
23.9(26) . . .
31.0(32) . . .
26.5(28) . . .
33.5(31) . . .
23.1(25) . . .
26.9(28) . . .
29.2(32) . . .
22.7(25) . . .
25.9(28) . . .
32.2(31) . . .
25.4(28) . . .
30.0(31) . . .
28.9(28) . . .
21.3(24) . . .
25.8(26) . . .
29.5(29) . . .
33.4(32) . . .
32.5(32) . . .
27.2(27) . . .
25.3(26) . . .
24.8(26) . . .
31.2(29) . . .
30.6(30) . . .
32.5(29) . . .
35.2(34) . . .
30.3(32) . . .
28.6(30) . . .
32.7(31) . . .
31.5(30) . . .
23.1(26) . . .
25.0(27) . . .
22.5(26) . . .
25.0(26) . . .
31.8(31) . . .
22.8(26) . . .
25.5(26) . . .
31.6(29) . . .
39.6(33) . . .
37.7(32) . . .
18.7(23) . . .
24.0(26) . . .
30.4(29) . . .
31.1(29) . . .
29.7(29) . . .
30.7(30) . . .
32.6(34) . . .
33.9(33) . . .
33.3(31) . . .
38.4(32) . . .
23.2(26) . . .
32.3(32) . . .
32.2(32) . . .
24.5(26) . . .
29.2(31) . . .
31.3(28) . . .
34.6(32) . . .
31.3(30) . . .
29.7(28) . . .
21.3(24) . . .
30.7(30) . . .
27.8(30) . . .
28.2(30) . . .
23.0(25) . . .
24.9(30) . . .
18.8(24) . . .
22.7(27) . . .
26.0(28) . . .
19.9(25) . . .
29.4(30) . . .
26.0(29) . . .
24.1(28) . . .
26.0(28) . . .
24.0(25) . . .
29.2(29) . . .
34.4(31) . . .
33.3(32) . . .
31.1(31) . . .
32.5(30) . . .
23.6(26) . . .
38.5(35) . . .
34.5(32) . . .
30.7(30) . . .
28.6(28) . . .
30.6(30) . . .
30.3(31) . . .
28.9(29) . . .
26.9(27) . . .
27.6(27) . . .
27.7(28) . . .
30.2(30) . . .
28.1(28) . . .
34.2(31) . . .
34.2(31) . . .
32.9(32) . . .
28.5(32) . . .
22.8(24) . . .
34.2(31) . . .
27.6(27) . . .
30.3(29) . . .
36.3(34) . . .
31.0(34) . . .
25.3(26) . . .
21.9(24) . . .
31.6(30) . . .
26.5(27) . . .
32.8(30) . . .
27.6(27) . . .
29.5(29) . . .
38.3(34) . . .
31.6(31) . . .
25.8(29) . . .
30.0(28) . . .
28.8(29) . . .
27.5(29) . . .
29.8(32) . . .
24.1(27) . . .
28.2(28) . . .
25.4(29) . . .
29.5(30) . . .
25.6(28) . . .
31.5(30) . . .
30.4(29) . . .
22.2(25) . . .
26.5(28) . . .
18.9(23) . . .
27.6(29) . . .
31.6(29) . . .
27.3(29) . . .
33.7(33) . . .
26.3(27) . . .
32.4(31) . . .
28.9(29) . . .
29.3(30) . . .
31.1(32) . . .
33.4(31) . . .
30.9(29) . . .
29.6(28) . . .
31.5(31) . . .
24.9(26) . . .
32.8(32) . . .
33.5(30) . . .
31.9(31) . . .
27.6(29) . . .
22.4(27) . . .
23.1(26) . . .
29.8(29) . . .
21.7(24) . . .
29.6(31) . . .
20.0(25) . . .
31.6(33) . . .
35.2(31) . . .
25.8(27) . . .
33.7(32) . . .
26.7(28) . . .
35.0(31) . . .
28.4(28) . . .
26.5(28) . . .
24.2(28) . . .
34(4) . . .
20.2(23) . . .
35.5(30) . . .
26.3(27) . . .
28.2(28) . . .
27.6(27) . . .
30.0(29) . . .
30.6(29) . . .
33.2(31) . . .
27.0(27) . . .
22.4(24) . . .
36(4) . . .
38.1(32) . . .
26.6(27) . . .
32.0(31) . . .
27.5(29) . . .
25.5(26) . . .
34.8(31) . . .
24.5(25) . . .
26.2(30) . . .
31.2(33) . . .
30.2(31) . . .
23.4(25) . . .
27.0(27) . . .
27.1(29) . . .
26.0(28) . . .
25.3(29) . . .
29.4(28) . . .
25.5(27) . . .
34.4(32) . . .
26.9(28) . . .
25.0(27) . . .
21.4(24) . . .
31.7(29) . . .
30.0(31) . . .
33.8(34) . . .
27.6(27) . . .
34.5(31) . . .
32.2(30) . . .
31.1(32) . . .
27.9(30) . . .
22.3(25) . . .
27.5(28) . . .
33.5(32) . . .
30.9(32) . . .
27.9(29) . . .
30.0(28) . . .
26.9(27) . . .
23.1(26) . . .
21.9(26) . . .
30.6(30) . . .
27.5(27) . . .
27.7(28) . . .
31.9(32) . . .
35.5(34) . . .
30.7(29) . . .
28.9(28) . . .
22.5(24) . . .
28.9(29) . . .
34.0(33) . . .
25.7(27) . . .
30.6(29) . . .
24.3(26) . . .
35(4) . . .
29.5(31) . . .
24.2(28) . . .
25.2(26) . . .
20.9(25) . . .
30.6(30) . . .
31.2(30) . . .
28.6(28) . . .
32.4(30) . . .
29.7(28) . . .
36.3(34) . . .
30.1(30) . . .
33.1(30) . . .
26.6(27) . . .
30.0(29) . . .
30.0(30) . . .
29.8(30) . . .
26.1(26) . . .
22.6(26) . . .
30.5(30) . . .
34.9(34) . . .
35.0(34) . . .
23.6(25) . . .
22.6(26) . . .
31.9(31) . . .
27.4(30) . . .
27.5(28) . . .
37.6(32) . . .
31.2(29) . . .
26.4(27) . . .
25.6(29) . . .
32.6(31) . . .
28.8(28) . . .
27.2(27) . . .
30.6(30) . . .
29.5(32) . . .
29.5(31) . . .
32.3(30) . . .
31.5(29) . . .
36.0(32) . . .
24.1(26) . . .
28.2(28) . . .
20.9(24) . . .
22.0(25) . . .
29.0(30) . . .
32.2(33) . . .
26.2(26) . . .
33.8(31) . . .
33.1(30) . . .
28.2(28) . . .
23.4(26) . . .
26.7(28) . . .
25.8(26) . . .
31.4(31) . . .
28.9(30) . . .
29.4(31) . . .
26.9(29) . . .
25.3(26) . . .
24.5(26) . . .
28.5(30) . . .
26.1(27) . . .
32.4(29) . . .
29.4(29) . . .
22.0(27) . . .
36.8(34) . . .
31.1(29) . . .
31.3(31) . . .
32.0(30) . . .
32.8(32) . . .
25.0(30) . . .
26.4(28) . . .
22.5(24) . . .
30.3(28) . . .
27.6(27) . . .
25.9(27) . . .
30.1(30) . . .
33.6(30) . . .
27.5(27) . . .
23.0(25) . . .
25.1(29) . . .
26.1(27) . . .
31.7(30) . . .
30.6(29) . . .
27.9(27) . . .
30.9(33) . . .
31.3(32) . . .
32.9(30) . . .
22.5(25) . . .
24.3(26) . . .
31.1(30) . . .
30.1(31) . . .
26.2(27) . . .
23.5(26) . . .
23.9(28) . . .
24.3(28) . . .
27.6(28) . . .
26.4(27) . . .
21.7(24) . . .
34.8(32) . . .
33.8(32) . . .
33.2(30) . . .
35.3(31) . . .
35.1(31) . . .
30.2(29) . . .
26.8(27) . . .
28.3(28) . . .
23.8(25) . . .
19.5(23) . . .
30.2(30) . . .
33.3(32) . . .
24.7(26) . . .
32.7(30) . . .
31.4(31) . . .
27.5(29) . . .
25.5(26) . . .
26.3(27) . . .
32.2(30) . . .
35.5(31) . . .
27.3(28) . . .
23.5(26) . . .
28.0(27) . . .
25.8(27) . . .
25.1(28) . . .
29.4(29) . . .
27.0(27) . . .
22.7(25) . . .
22.6(25) . . .
24.5(25) . . .
33.8(31) . . .
25.5(28) . . .
26.9(30) . . .
18.1(22) . . .
32.7(32) . . .
27.5(30) . . .
32.0(31) . . .
34.1(32) . . .
27.0(27) . . .
24.3(28) . . .
24.8(26) . . .
26.4(28) . . .
42.6(34) . . .
32.5(29) . . .
32.3(32) . . .
22.6(26) . . .
31.4(31) . . .
30.3(30) . . .
22.9(24) . . .
20.1(23) . . .
26.2(29) . . .
27.7(29) . . .
30.3(29) . . .
31.9(29) . . .
30.3(31) . . .
18.3(25) . . .
24.5(27) . . .
36.7(31) . . .
24.0(27) . . .
34.1(34) . . .
29.8(32) . . .
30.5(30) . . .
33.3(30) . . .
33.2(30) . . .
24.7(26) . . .
28.7(31) . . .
26.3(27) . . .
37.6(32) . . .
25.1(27) . . .
33.2(31) . . .
32.6(30) . . .
25.3(26) . . .
31.2(30) . . .
39.9(35) . . .
26.9(29) . . .
25.5(27) . . .
29.8(28) . . .
28.3(28) . . .
28.5(28) . . .
32.0(31) . . .
34.1(31) . . .
24.4(26) . . .
30.3(28) . . .
22.0(25) . . .
25.8(30) . . .
28.2(29) . . .
31.3(29) . . .
27.8(29) . . .
36.3(34) . . .
28.3(30) . . .
22.0(25) . . .
32.1(29) . . .
33.2(31) . . .
28.3(29) . . .
28.5(30) . . .
25.6(27) . . .
26.9(27) . . .
29.2(29) . . .
28.4(29) . . .
29.8(32) . . .
31.4(30) . . .
30.6(29) . . .
28.2(28) . . .
23.4(25) . . .
27.1(29) . . .
25.6(26) . . .
34.1(31) . . .
29.0(30) . . .
27.6(29) . . .
26.8(29) . . .
25.5(28) . . .
32.2(30) . . .
27.1(29) . . .
28.4(30) . . .
24.5(26) . . .
28.4(28) . . .
26.1(27) . . .
24.4(28) . . .
28.4(28) . . .
33.1(32) . . .
29.6(31) . . .
30.0(29) . . .
27.1(27) . . .
29.4(30) . . .
25.1(25) . . .
29.0(29) . . .
28.0(28) . . .
30.9(32) . . .
27.6(28) . . .
24.3(27) . . .
37.1(33) . . .
28.4(27) . . .
32.9(33) . . .
19.9(26) . . .
23.5(28) . . .
24.2(26) . . .
30.1(29) . . .
26.3(28) . . .
23.5(27) . . .
25.5(27) . . .
26.4(27) . . .
29.4(28) . . .
32.2(32) . . .
35.6(31) . . .
29.8(28) . . .
26.0(27) . . .
27.3(27) . . .
32.3(32) . . .
28.1(30) . . .
29.2(31) . . .
24.8(26) . . .
25.5(26) . . .
34.0(33) . . .
25.6(30) . . .
21.6(26) . . .
25.7(26) . . .
30.8(30) . . .
26.3(28) . . .
34.7(33) . . .
30.0(29) . . .
31.8(30) . . .
33.8(31) . . .
32.5(29) . . .
25.7(28) . . .
23.7(26) . . .
25.2(26) . . .
31.2(31) . . .
30.0(31) . . .
23.2(25) . . .
31.5(30) . . .
34.5(31) . . .
37.4(34) . . .
27.9(30) . . .
30.9(31) . . .
28.1(28) . . .
29.8(28) . . .
25.5(32) . . .
22.1(25) . . .
26.3(29) . . .
20.6(23) . . .
25.9(27) . . .
26.6(27) . . .
30.9(31) . . .
28.3(28) . . .
24.9(26) . . .
27.6(27) . . .
35.4(30) . . .
31.9(30) . . .
31.6(29) . . .
32.7(30) . . .
26.4(27) . . .
24.3(26) . . .
26.8(28) . . .
33.5(31) . . .
26.2(27) . . .
23.6(25) . . .
29.9(29) . . .
26.0(28) . . .
28.2(32) . . .
31.4(30) . . .
26.6(28) . . .
31.4(32) . . .
27.5(30) . . .
28.9(30) . . .
29.1(28) . . .
27.9(28) . . .
33.6(35) . . .
26.2(27) . . .
29.1(29) . . .
27.6(28) . . .
24.7(29) . . .
31.5(31) . . .
33.7(31) . . .
29.6(28) . . .
27.7(27) . . .
38(4) . . .
31.0(29) . . .
33.3(30) . . .
28.9(28) . . .
30.0(29) . . .
24.1(27) . . .
26.8(28) . . .
27.9(28) . . .
20.8(23) . . .
35.1(31) . . .
27.4(27) . . .
33.8(35) . . .
26.6(28) . . .
28.0(27) . . .
23.3(25) . . .
22.4(26) . . .
30.8(32) . . .
29.0(30) . . .
27.6(27) . . .
31.8(31) . . .
26.5(29) . . .
30.5(31) . . .
22.4(25) . . .
30.6(29) . . .
27.5(27) . . .
27.0(27) . . .
36(4) . . .
22.7(25) . . .
25.9(26) . . .
32.1(31) . . .
31.4(30) . . .
24.9(28) . . .
31.9(32) . . .
28.5(28) . . .
22.5(25) . . .
26.5(28) . . .
27.3(32) . . .
26.7(28) . . .
27.0(27) . . .
28.2(28) . . .
31.5(31) . . .
31.5(31) . . .
28.9(29) . . .
23.6(25) . . .
33.0(30) . . .
34.5(32) . . .
29.2(28) . . .
28.3(29) . . .
32.5(30) . . .
28.8(30) . . .
22.3(24) . . .
31.2(31) . . .
27.5(30) . . .
23.6(25) . . .
27.7(28) . . .
26.5(28) . . .
25.9(29) . . .
25.3(26) . . .
25.0(26) . . .
30.1(29) . . .
22.3(24) . . .
28.0(30) . . .
30.1(29) . . .
36.5(32) . . .
34.5(31) . . .
22.9(26) . . .
29.9(29) . . .
26.6(27) . . .
27.3(27) . . .
29.7(29) . . .
30.8(30) . . .
27.1(28) . . .
35.3(31) . . .
26.9(28) . . .
29.1(31) . . .
28.1(31) . . .
32.4(32) . . .
27.3(29) . . .
23.8(25) . . .
19.3(23) . . .
27.8(30) . . .
23.1(26) . . .
30.3(29) . . .
30.5(29) . . .
24.7(26) . . .
19.0(21) . . .
31.3(29) . . .
33.0(30) . . .
30.5(29) . . .
33.1(31) . . .
24.6(28) . . .
22.8(25) . . .
29.5(28) . . .
30.9(29) . . .
34.5(31) . . .
25.1(25) . . .
24.8(26) . . .
23.4(25) . . .
31.8(30) . . .
31.2(29) . . .
32.5(30) . . .
33.1(31) . . .
33.0(30) . . .
25.9(27) . . .
36.6(33) . . .
34.4(32) . . .
32.3(29) . . .
31.2(32) . . .
33.4(32) . . .
30.3(30) . . .
35.3(33) . . .
29.2(28) . . .
28.9(28) . . .
20.3(23) . . .
23.1(26) . . .
32.5(31) . . .
26.1(26) . . .
37.9(33) . . .
24.7(25) . . .
28.1(29) . . .
24.7(26) . . .
25.3(26) . . .
28.3(28) . . .
31.6(31) . . .
25.5(27) . . .
29.6(30) . . .
31.8(30) . . .
27.5(27) . . .
25.8(27) . . .
27.3(30) . . .
24.8(26) . . .
26.5(27) . . .
29.3(28) . . .
30.0(30) . . .
29.3(30) . . .
30.2(29) . . .
32.0(30) . . .
30.8(30) . . .
27.0(27) . . .
38.2(35) . . .
30.8(29) . . .
30.1(28) . . .
28.6(28) . . .
18.0(23) . . .
25.4(28) . . .
26.4(27) . . .
28.4(28) . . .
27.5(28) . . .
27.4(29) . . .
28.9(30) . . .
34.8(31) . . .
29.7(29) . . .
35.6(33) . . .
25.1(27) . . .
25.6(28) . . .
19.5(26) . . .
29.9(28) . . .
25.9(27) . . .
32.4(31) . . .
32.0(30) . . .
28.2(27) . . .
33.2(30) . . .
25.3(27) . . .
30.6(32) . . .
31.0(32) . . .
17.5(21) . . .
22.7(25) . . .
28.6(28) . . .
30.0(29) . . .
29.7(31) . . .
23.8(25) . . .
29.3(29) . . .
35.7(34) . . .
31.5(34) . . .
27.8(30) . . .
36.1(31) . . .
29.0(28) . . .
23.0(26) . . .
32.6(34) . . .
28.6(29) . . .
29.7(29) . . .
28.2(27) . . .
35.3(32) . . .
28.9(29) . . .
30.3(29) . . .
27.0(28) . . .
29.3(28) . . .
31.2(31) . . .
35.5(32) . . .
31.2(30) . . .
21.8(25) . . .
26.7(27) . . .
20.9(24) . . .
25.6(27) . . .
33.8(31) . . .
33.5(30) . . .
38.6(33) . . .
33.2(30) . . .
26.4(27) . . .
20.4(24) . . .
28.1(28) . . .
26.7(28) . . .
22.9(27) . . .
27.6(30) . . .
23.2(26) . . .
23.5(26) . . .
31.1(30) . . .
29.3(29) . . .
25.7(27) . . .
28.0(28) . . .
30.3(28) . . .
19.7(23) . . .
24.9(26) . . .
26.8(27) . . .
24.5(26) . . .
34.7(31) . . .
21.0(24) . . .
27.9(30) . . .
34.4(31) . . .
34.3(31) . . .
34.5(31) . . .
27.8(29) . . .
32.1(33) . . .
27.5(28) . . .
24.6(25) . . .
29.0(28) . . .
23.4(26) . . .
32.8(33) . . .
26.5(28) . . .
36.3(32) . . .
32.7(29) . . .
26.4(28) . . .
23.5(26) . . .
33.2(30) . . .
38.5(32) . . .
34.5(33) . . .
28.0(28) . . .
32.8(33) . . .
32.5(30) . . .
25.5(27) . . .
27.3(28) . . .
27.6(30) . . .
27.4(28) . . .
26.4(27) . . .
31.7(29) . . .
34.7(31) . . .
31.2(30) . . .
25.6(29) . . .
29.0(30) . . .
26.9(27) . . .
28.8(29) . . .
28.9(29) . . .
29.3(28) . . .
32.2(30) . . .
29.2(28) . . .
24.9(27) . . .
26.7(29) . . .
32.0(31) . . .
26.6(28) . . .
21.0(24) . . .
25.4(27) . . .
29.5(32) . . .
29.5(31) . . .
26.7(28) . . .
32.6(29) . . .
27.5(27) . . .
31.4(31) . . .
34.3(31) . . .
30.6(29) . . .
27.0(27) . . .
22.3(25) . . .
25.8(28) . . .
25.6(26) . . .
33.3(30) . . .
34.1(31) . . .
30.6(30) . . .
24.8(26) . . .
25.9(27) . . .
27.8(27) . . .
25.7(26) . . .
30.7(30) . . .
30.6(31) . . .
38(4) . . .
28.9(29) . . .
27.7(27) . . .
22.7(26) . . .
29.0(29) . . .
35.3(34) . . .
31.4(30) . . .
31.7(29) . . .
28.7(28) . . .
28.8(29) . . .
29.0(28) . . .
33.2(30) . . .
40.1(33) . . .
31.0(31) . . .
23.9(28) . . .
27.0(28) . . .
29.3(28) . . .
26.8(28) . . .
29.5(31) . . .
23.5(25) . . .
29.0(29) . . .
26.8(27) . . .
27.7(29) . . .
29.2(28) . . .
32.4(29) . . .
33.6(30) . . .
33.2(30) . . .
21.3(24) . . .
37.5(34) . . .
29.9(29) . . .
26.9(28) . . .
26.8(27) . . .
23.2(26) . . .
25.0(28) . . .
28.8(28) . . .
30.7(30) . . .
32.5(29) . . .
28.3(28) . . .
19.0(23) . . .
28.9(30) . . .
26.6(27) . . .
35.4(33) . . .
28.6(29) . . .
25.5(29) . . .
23.6(26) . . .
31.0(31) . . .
28.8(27) . . .
31.2(28) . . .
24.2(26) . . .
36.2(34) . . .
29.4(29) . . .
23.3(27) . . .
35.0(33) . . .
31.1(32) . . .
25.0(27) . . .
20.8(24) . . .
24.0(26) . . .
29.3(28) . . .
41(4) . . .
30.9(31) . . .
26.9(27) . . .
27.3(27) . . .
28.6(28) . . .
19.5(23) . . .
28.3(29) . . .
30.7(29) . . .
28.9(29) . . .
28.3(28) . . .
26.0(27) . . .
36.2(32) . . .
28.8(28) . . .
34.3(31) . . .
23.5(25) . . .
27.5(28) . . .
24.7(25) . . .
26.0(27) . . .
28.9(29) . . .
29.4(30) . . .
41(4) . . .
27.8(29) . . .
30.0(29) . . .
32.0(31) . . .
30.5(31) . . .
30.5(31) . . .
33.1(30) . . .
31.7(30) . . .
29.5(29) . . .
34.3(33) . . .
28.1(28) . . .
26.4(28) . . .
34.0(30) . . .
36.2(35) . . .
30.9(32) . . .
31.8(31) . . .
36.3(31) . . .
28.4(27) . . .
29.9(30) . . .
31.1(31) . . .
36.7(34) . . .
29.0(28) . . .
23.1(25) . . .
24.6(26) . . .
20.2(24) . . .
29.3(29) . . .
22.6(25) . . .
27.2(28) . . .
30.4(29) . . .
29.5(28) . . .
30.2(30) . . .
25.4(27) . . .
28.6(28) . . .
26.0(26) . . .
25.8(26) . . .
31.3(32) . . .
27.6(28) . . .
32.9(30) . . .
26.7(28) . . .
27.2(31) . . .
21.9(24) . . .
27.6(27) . . .
29.0(29) . . .
24.2(25) . . .
27.4(29) . . .
25.2(27) . . .
28.9(28) . . .
33.7(31) . . .
37.0(35) . . .
25.7(28) . . .
29.4(28) . . .
33.5(31) . . .
31.6(31) . . .
26.3(29) . . .
25.0(26) . . .
26.5(28) . . .
29.0(29) . . .
29.3(29) . . .
32.5(32) . . .
42(4) . . .
29.7(28) . . .
32.3(30) . . .
24.4(25) . . .
24.0(29) . . .
26.3(27) . . .
33.4(30) . . .
27.5(27) . . .
31.4(33) . . .
25.8(29) . . .
25.9(27) . . .
24.1(26) . . .
22.6(25) . . .
24.9(27) . . .
33.7(33) . . .
28.1(29) . . .
25.3(26) . . .
23.4(25) . . .
33.3(32) . . .
24.9(25) . . .
26.7(27) . . .
25.4(26) . . .
35.7(32) . . .
27.2(28) . . .
38.5(34) . . .
37.7(33) . . .
31.3(30) . . .
23.8(26) . . .
28.7(33) . . .
28.8(29) . . .
32.0(30) . . .
23.8(25) . . .
23.1(27) . . .
24.4(27) . . .
27.1(29) . . .
33.8(31) . . .
28.9(29) . . .
31.0(30) . . .
23.9(25) . . .
28.6(28) . . .
22.9(25) . . .
26.6(26) . . .
32.7(32) . . .
27.7(29) . . .
27.9(27) . . .
30.7(29) . . .
23.7(25) . . .
30.3(30) . . .
22.9(25) . . .
24.8(26) . . .
28.7(27) . . .
25.7(27) . . .
26.0(27) . . .
39.4(34) . . .
28.6(28) . . .
34.7(31) . . .
25.7(26) . . .
23.8(26) . . .
30.5(32) . . .
32.7(30) . . .
32.1(30) . . .
26.9(27) . . .
30.2(30) . . .
33.0(32) . . .
28.8(28) . . .
31.1(29) . . .
26.2(27) . . .
25.3(27) . . .
24.4(27) . . .
21.5(25) . . .
27.7(27) . . .
31.8(30) . . .
25.8(28) . . .
35.8(34) . . .
32.4(32) . . .
27.6(27) . . .
34.2(33) . . .
33.0(31) . . .
35.9(34) . . .
27.9(28) . . .
24.3(26) . . .
21.2(26) . . .
30.4(30) . . .
32.2(32) . . .
20.3(24) . . .
31.0(31) . . .
26.8(27) . . .
30.0(28) . . .
26.5(27) . . .
22.3(24) . . .
31.9(30) . . .
29.5(28) . . .
29.8(28) . . .
32.9(31) . . .
26.5(27) . . .
25.7(26) . . .
31.4(30) . . .
30.9(32) . . .
24.0(27) . . .
24.5(26) . . .
33.9(31) . . .
34.8(31) . . .
26.2(27) . . .
25.2(26) . . .
30.6(29) . . .
24.1(26) . . .
29.3(30) . . .
23.9(26) . . .
23.3(25) . . .
25.8(26) . . .
27.7(27) . . .
25.0(27) . . .
25.3(28) . . .
27.2(29) . . .
26.4(27) . . .
30.0(29) . . .
25.7(29) . . .
21.6(25) . . .
40.2(35) . . .
22.4(25) . . .
25.2(27) . . .
25.6(28) . . .
23.5(32) . . .
29.1(30) . . .
27.0(28) . . .
25.7(26) . . .
24.4(26) . . .
33.4(32) . . .
32.2(31) . . .
33.9(31) . . .
29.2(28) . . .
30.4(29) . . .
28.7(27) . . .
28.6(29) . . .
24.8(27) . . .
33.8(30) . . .
41.6(34) . . .
31.7(29) . . .
34.3(32) . . .
30.7(29) . . .
25.4(28) . . .
28.4(28) . . .
27.9(27) . . .
34.8(32) . . .
27.4(27) . . .
31.1(31) . . .
23.4(25) . . .
26.6(29) . . .
26.3(26) . . .
22.8(26) . . .
27.6(28) . . .
27.6(29) . . .
31.7(32) . . .
35.8(31) . . .
25.4(26) . . .
25.9(28) . . .
31.9(33) . . .
28.9(29) . . .
22.6(24) . . .
33.5(32) . . .
23.9(27) . . .
34.3(35) . . .
27.1(28) . . .
23.4(25) . . .
35.5(31) . . .
26.6(27) . . .
28.4(29) . . .
26.1(26) . . .
20.5(24) . . .
34.7(31) . . .
34.1(32) . . .
27.6(30) . . .
26.6(28) . . .
26.4(29) . . .
27.5(28) . . .
25.2(26) . . .
26.5(28) . . .
26.1(28) . . .
29.0(28) . . .
30.2(30) . . .
24.2(27) . . .
21.6(25) . . .
27.6(28) . . .
27.0(27) . . .
30.0(30) . . .
27.0(27) . . .
19.5(22) . . .
22.1(26) . . .
36.1(31) . . .
22.4(25) . . .
27.5(29) . . .
25.2(26) . . .
29.4(29) . . .
32.3(30) . . .
35.5(31) . . .
39.0(34) . . .
34.0(32) . . .
29.1(29) . . .
27.4(27) . . .
24.0(26) . . .
28.1(31) . . .
26.0(28) . . .
36.1(32) . . .
34.4(31) . . .
33.3(32) . . .
30.1(29) . . .
26.1(27) . . .
20.7(23) . . .
27.5(27) . . .
24.7(27) . . .
26.0(28) . . .
28.6(30) . . .
24.8(26) . . .
29.7(28) . . .
33.1(31) . . .
33.9(33) . . .
33.4(32) . . .
22.5(25) . . .
28.6(28) . . .
26.3(29) . . .
26.7(28) . . .
30.8(29) . . .
35.3(31) . . .
31.2(29) . . .
26.4(30) . . .
30.8(31) . . .
25.5(27) . . .
23.4(26) . . .
27.2(27) . . .
31.0(30) . . .
29.2(29) . . .
25.8(27) . . .
22.5(26) . . .
33.1(30) . . .
30.9(31) . . .
23.0(25) . . .
27.9(29) . . .
27.8(27) . . .
32.2(32) . . .
29.3(30) . . .
26.8(28) . . .
22.8(26) . . .
25.3(26) . . .
27.5(27) . . .
26.6(28) . . .
21.9(24) . . .
20.7(24) . . .
31.5(30) . . .
22.8(25) . . .
30.8(34) . . .
22.0(26) . . .
35.4(31) . . .
32.3(30) . . .
30.3(29) . . .
28.3(30) . . .
34.1(31) . . .
27.4(27) . . .
30.3(30) . . .
34.7(31) . . .
28.1(29) . . .
23.6(27) . . .
31.3(30) . . .
27.2(27) . . .
23.0(25) . . .
27.6(29) . . .
31.5(30) . . .
31.1(30) . . .
27.8(27) . . .
29.5(31) . . .
26.2(28) . . .
33.6(31) . . .
23.6(25) . . .
25.0(26) . . .
28.6(30) . . .
33.3(31) . . .
30.7(30) . . .
24.1(25) . . .
26.5(29) . . .
24.5(26) . . .
35.4(34) . . .
31.9(30) . . .
18.2(22) . . .
24.2(26) . . .
25.2(28) . . .
24.2(26) . . .
40.3(33) . . .
35.6(31) . . .
33.4(31) . . .
28.5(30) . . .
29.6(30) . . .
29.1(28) . . .
23.4(25) . . .
22.9(25) . . .
23.2(26) . . .
35(4) . . .
30.4(29) . . .
32.3(29) . . .
26.1(27) . . .
24.3(26) . . .
21.8(25) . . .
25.5(26) . . .
30.7(29) . . .
26.6(28) . . .
27.0(30) . . .
26.6(27) . . .
29.0(28) . . .
26.9(27) . . .
40(4) . . .
28.6(28) . . .
24.8(26) . . .
34.1(30) . . .
25.9(26) . . .
29.3(30) . . .
29.4(30) . . .
30.0(29) . . .
26.7(27) . . .
33.5(31) . . .
34.1(32) . . .
21.9(24) . . .
27.4(27) . . .
27.2(27) . . .
27.9(28) . . .
30.5(32) . . .
22.8(26) . . .
32.5(30) . . .
23.7(26) . . .
23.9(26) . . .
41(4) . . .
22.6(24) . . .
25.3(28) . . .
29.7(29) . . .
29.4(30) . . .
32.8(32) . . .
30.0(29) . . .
30.9(29) . . .
28.8(29) . . .
39.5(34) . . .
38.4(35) . . .
21.0(26) . . .
20.1(24) . . .
25.4(26) . . .
21.8(26) . . .
25.5(27) . . .
29.0(27) . . .
20.5(24) . . .
20.7(24) . . .
30.0(31) . . .
33.5(34) . . .
27.1(28) . . .
37.9(32) . . .
31.8(29) . . .
30.8(29) . . .
32.6(32) . . .
22.9(25) . . .
30.9(30) . . .
23.7(25) . . .
20.7(25) . . .
24.9(28) . . .
31.4(30) . . .
28.7(28) . . .
25.4(26) . . .
32.5(34) . . .
30.9(31) . . .
31.3(30) . . .
25.7(26) . . .
28.0(29) . . .
22.2(25) . . .
25.3(27) . . .
28.5(28) . . .
25.3(26) . . .
26.7(27) . . .
26.0(28) . . .
32.2(32) . . .
30.0(29) . . .
24.2(26) . . .
24.9(27) . . .
22.6(25) . . .
27.7(28) . . .
28.8(28) . . .
37.3(32) . . .
30.2(29) . . .
30.9(31) . . .
30.5(31) . . .
32.0(30) . . .
27.4(27) . . .
29.9(29) . . .
31.4(30) . . .
29.2(28) . . .
30.9(29) . . .
28.2(28) . . .
30.9(30) . . .
26.7(26) . . .
32.9(30) . . .
30.5(28) . . .
29.3(29) . . .
29.8(31) . . .
27.0(30) . . .
27.5(29) . . .
24.8(26) . . .
21.4(24) . . .
33.9(34) . . .
36.8(34) . . .
29.0(29) . . .
27.4(27) . . .
19.6(23) . . .
24.9(27) . . .
29.9(32) . . .
29.7(29) . . .
25.8(26) . . .
25.6(26) . . .
34.6(32) . . .
26.5(28) . . .
29.1(30) . . .
26.5(27) . . .
28.8(29) . . .
28.3(32) . . .
29.7(32) . . .
34.6(31) . . .
33.7(31) . . .
29.0(29) . . .
29.7(28) . . .
25.6(29) . . .
21.5(28) . . .
25.2(27) . . .
27.6(28) . . .
32.1(32) . . .
28.8(28) . . .
25.1(27) . . .
23.8(26) . . .
27.0(28) . . .
26.0(28) . . .
15.2(20) . . .
22.0(27) . . .
21.0(25) . . .
32.4(31) . . .
24.6(26) . . .
33.8(33) . . .
29.1(29) . . .
23.4(25) . . .
30.1(35) . . .
23.6(27) . . .
25.7(27) . . .
30.2(29) . . .
23.5(26) . . .
19.2(23) . . .
22.4(25) . . .
34.3(33) . . .
30.1(29) . . .
32.3(30) . . .
33.2(31) . . .
25.8(27) . . .
30.0(30) . . .
30.3(29) . . .
25.0(26) . . .
23.7(26) . . .
27.0(29) . . .
22.6(25) . . .
30.9(30) . . .
24.5(25) . . .
26.9(27) . . .
31.3(31) . . .
25.1(26) . . .
36.5(31) . . .
27.2(28) . . .
23.9(27) . . .
29.4(32) . . .
34.6(32) . . .
29.4(29) . . .
32.8(30) . . .
30.1(28) . . .
22.5(26) . . .
25.5(27) . . .
29.5(28) . . .
25.0(25) . . .
30.1(31) . . .
24.6(27) . . .
21.4(26) . . .
25.8(26) . . .
30.5(29) . . .
25.0(28) . . .
23.9(27) . . .
27.7(31) . . .
27.9(29) . . .
29.9(29) . . .
26.9(29) . . .
19.7(24) . . .
27.5(28) . . .
32.1(30) . . .
21.0(24) . . .
27.6(32) . . .
22.8(26) . . .
33.1(31) . . .
29.3(29) . . .
26.1(27) . . .
26.5(27) . . .
22.7(25) . . .
24.4(28) . . .
25.6(26) . . .
29.7(30) . . .
33.5(32) . . .
23.0(25) . . .
30.4(28) . . .
21.5(25) . . .
29.5(29) . . .
24.0(28) . . .
29.0(34) . . .
28.8(29) . . .
27.3(27) . . .
20.5(25) . . .
23.5(25) . . .
26.3(30) . . .
31.3(30) . . .
26.7(27) . . .
29.9(30) . . .
30.1(32) . . .
27.6(29) . . .
21.5(24) . . .
31.5(30) . . .
37.3(33) . . .
32.7(31) . . .
26.0(29) . . .
26.0(26) . . .
27.0(27) . . .
26.0(27) . . .
24.3(27) . . .
21.0(27) . . .
28.7(29) . . .
32.3(29) . . .
33.6(33) . . .
20.6(25) . . .
21.0(24) . . .
21.9(25) . . .
31.0(30) . . .
30.4(30) . . .
30.6(31) . . .
25.8(27) . . .
25.0(26) . . .
23.3(25) . . .
29.4(30) . . .
21.7(24) . . .
22.9(25) . . .
26.0(27) . . .
30.1(30) . . .
30.6(31) . . .
25.5(27) . . .
31.7(29) . . .
24.6(26) . . .
29.8(30) . . .
30.7(31) . . .
28.3(29) . . .
22.1(24) . . .
33.9(31) . . .
37.1(33) . . .
25.5(29) . . .
29.4(30) . . .
26.3(27) . . .
31.6(29) . . .
30.8(30) . . .
25.0(27) . . .
30.7(30) . . .
32.0(30) . . .
29.7(28) . . .
23.5(26) . . .
31.9(33) . . .
30.7(32) . . .
20.9(23) . . .
32.2(30) . . .
27.6(30) . . .
20.4(26) . . .
30.5(31) . . .
26.3(27) . . .
32.7(30) . . .
29.8(31) . . .
33.7(32) . . .
28.3(29) . . .
25.2(27) . . .
29.2(29) . . .
25.0(25) . . .
34.8(31) . . .
25.5(26) . . .
27.9(27) . . .
26.4(27) . . .
29.6(31) . . .
25.1(27) . . .
32.8(32) . . .
24.6(26) . . .
38.6(34) . . .
28.1(30) . . .
30.8(30) . . .
33.3(31) . . .
27.3(27) . . .
23.2(26) . . .
27.1(31) . . .
29.0(29) . . .
21.7(25) . . .
27.1(27) . . .
25.5(27) . . .
21.1(24) . . .
26.0(27) . . .
32.6(30) . . .
27.0(28) . . .
36.6(34) . . .
24.7(28) . . .
26.7(27) . . .
36.4(32) . . .
29.4(28) . . .
35.0(31) . . .
27.3(30) . . .
29.4(30) . . .
16.7(22) . . .
29.0(28) . . .
31.4(32) . . .
28.6(30) . . .
25.5(28) . . .
25.0(26) . . .
30.1(29) . . .
29.1(29) . . .
29.9(30) . . .
24.0(25) . . .
29.4(29) . . .
30.0(29) . . .
29.4(30) . . .
24.0(30) . . .
27.1(29) . . .
32.0(29) . . .
32.9(31) . . .
27.1(28) . . .
27.0(27) . . .
27.7(28) . . .
29.0(28) . . .
31.8(31) . . .
31.1(31) . . .
28.4(29) . . .
26.8(30) . . .
26.3(27) . . .
34.4(30) . . .
31.7(31) . . .
26.7(28) . . .
26.9(27) . . .
21.5(24) . . .
26.0(27) . . .
26.2(27) . . .
37.4(33) . . .
29.8(29) . . .
28.8(30) . . .
38.4(34) . . .
30.6(32) . . .
28.0(28) . . .
28.1(28) . . .
25.6(26) . . .
25.6(28) . . .
29.2(31) . . .
26.1(28) . . .
28.5(28) . . .
25.4(27) . . .
22.6(24) . . .
27.4(29) . . .
26.6(27) . . .
25.8(26) . . .
19.4(23) . . .
24.5(27) . . .
24.6(27) . . .
32.7(32) . . .
29.7(29) . . .
32.0(30) . . .
35(4) . . .
26.2(28) . . .
30.8(33) . . .
28.1(28) . . .
29.5(28) . . .
29.9(29) . . .
27.3(30) . . .
27.5(29) . . .
21.4(24) . . .
25.7(27) . . .
31.6(30) . . .
24.5(25) . . .
25.7(27) . . .
37.4(32) . . .
27.4(28) . . .
30.6(30) . . .
30.0(31) . . .
24.7(27) . . .
31.9(30) . . .
30.6(30) . . .
20.0(26) . . .
25.7(27) . . .
32.2(30) . . .
24.3(27) . . .
32.2(33) . . .
27.6(29) . . .
27.2(27) . . .
23.1(24) . . .
37.9(33) . . .
31.4(31) . . .
23.7(29) . . .
31.5(31) . . .
27.3(27) . . .
32.6(30) . . .
29.4(30) . . .
27.3(29) . . .
33.0(32) . . .
35.4(33) . . .
26.4(27) . . .
31.1(30) . . .
30.5(30) . . .
32.3(31) . . .
25.7(26) . . .
32.2(29) . . .
24.5(26) . . .
25.4(29) . . .
26.6(28) . . .
33.9(30) . . .
26.1(27) . . .
30.9(31) . . .
27.5(31) . . .
29.4(29) . . .
31.5(29) . . .
29.6(29) . . .
22.0(24) . . .
27.7(30) . . .
25.9(27) . . .
27.7(27) . . .
17.2(22) . . .
18.8(23) . . .
31.3(31) . . .
29.0(30) . . .
21.6(24) . . .
28.4(29) . . .
26.9(28) . . .
25.1(26) . . .
32.8(30) . . .
33.0(30) . . .
22.5(24) . . .
28.3(29) . . .
24.2(26) . . .
26.6(27) . . .
29.5(29) . . .
27.4(28) . . .
22.7(27) . . .
25.6(29) . . .
29.1(28) . . .
27.0(27) . . .
28.6(29) . . .
31.5(30) . . .
38.1(34) . . .
25.9(27) . . .
26.1(28) . . .
25.5(27) . . .
32.8(30) . . .
31.5(29) . . .
27.8(28) . . .
35.0(31) . . .
25.5(27) . . .
22.1(24) . . .
27.4(27) . . .
30.1(29) . . .
25.9(26) . . .
30.1(30) . . .
29.0(29) . . .
29.5(28) . . .
28.6(28) . . .
26.8(27) . . .
24.2(26) . . .
24.5(25) . . .
28.4(27) . . .
27.9(28) . . .
31.3(29) . . .
31.2(30) . . .
31.2(33) . . .
28.1(28) . . .
31.5(30) . . .
31.2(29) . . .
32.3(29) . . .
32.6(34) . . .
33.0(31) . . .
29.8(28) . . .
25.4(26) . . .
27.2(29) . . .
16.4(21) . . .
24.3(27) . . .
23.7(26) . . .
29.6(29) . . .
27.1(28) . . .
23.7(27) . . .
24.4(26) . . .
27.3(27) . . .
26.8(29) . . .
34.0(33) . . .
33.8(32) . . .
22.4(25) . . .
35.3(31) . . .
24.1(27) . . .
26.6(31) . . .
24.4(27) . . .
27.0(28) . . .
32.6(30) . . .
33.4(32) . . .
24.7(26) . . .
32.0(30) . . .
31.1(29) . . .
30.2(29) . . .
33.1(33) . . .
27.8(29) . . .
28.7(29) . . .
32.5(30) . . .
25.8(27) . . .
30.2(31) . . .
33.9(34) . . .
30.6(29) . . .
30.5(28) . . .
31.7(31) . . .
31.8(30) . . .
28.1(28) . . .
27.3(27) . . .
25.7(27) . . .
28.9(28) . . .
31.9(32) . . .
27.3(28) . . .
33.8(31) . . .
26.7(27) . . .
28.1(28) . . .
27.4(29) . . .
23.7(25) . . .
28.3(28) . . .
36.7(32) . . .
25.9(26) . . .
22.1(25) . . .
26.7(29) . . .
25.2(26) . . .
25.6(26) . . .
25.5(28) . . .
25.7(29) . . .
27.5(28) . . .
26.0(28) . . .
27.6(27) . . .
31.3(30) . . .
30.7(31) . . .
29.1(28) . . .
24.3(27) . . .
34.0(32) . . .
37.9(34) . . .
31.8(30) . . .
32.2(30) . . .
30.7(28) . . .
27.7(28) . . .
28.4(28) . . .
29.1(30) . . .
26.7(29) . . .
30.7(30) . . .
29.3(28) . . .
25.9(28) . . .
23.7(24) . . .
25.8(27) . . .
22.9(24) . . .
29.8(29) . . .
23.0(26) . . .
22.6(27) . . .
28.7(29) . . .
31.3(29) . . .
34.0(31) . . .
26.0(27) . . .
29.7(30) . . .
21.9(24) . . .
30.1(28) . . .
32.5(29) . . .
34.7(31) . . .
33.5(31) . . .
25.8(26) . . .
28.7(28) . . .
32.2(29) . . .
23.0(25) . . .
24.8(27) . . .
31.4(30) . . .
28.3(28) . . .
27.6(29) . . .
31.0(33) . . .
26.7(30) . . .
29.6(29) . . .
27.9(28) . . .
32.0(30) . . .
26.5(31) . . .
20.4(25) . . .
28.5(30) . . .
29.2(28) . . .
32.1(32) . . .
32.2(30) . . .
34.4(31) . . .
26.4(27) . . .
31.4(29) . . .
27.7(27) . . .
24.1(24) . . .
29.5(27) . . .
36.3(33) . . .
25.6(26) . . .
22.7(27) . . .
22.9(26) . . .
37.0(33) . . .
24.9(26) . . .
27.8(28) . . .
24.7(26) . . .
31.8(30) . . .
28.1(27) . . .
24.3(25) . . .
21.2(25) . . .
25.5(26) . . .
24.1(27) . . .
32.5(31) . . .
30.8(30) . . .
33.8(30) . . .
31.1(31) . . .
35.5(34) . . .
33.2(30) . . .
27.9(27) . . .
24.9(26) . . .
31.0(30) . . .
28.3(28) . . .
30.8(29) . . .
21.4(25) . . .
29.9(29) . . .
30.3(30) . . .
22.7(26) . . .
29.9(30) . . .
25.9(28) . . .
31.2(29) . . .
39.1(33) . . .
35.1(34) . . .
28.4(30) . . .
28.3(28) . . .
26.7(27) . . .
28.1(29) . . .
26.1(27) . . .
28.6(29) . . .
27.7(27) . . .
24.5(26) . . .
33.5(33) . . .
21.7(24) . . .
23.4(25) . . .
29.1(28) . . .
24.9(27) . . .
35.4(34) . . .
28.0(28) . . .
20.5(23) . . .
28.0(28) . . .
20.8(24) . . .
27.8(27) . . .
33.8(33) . . .
29.9(28) . . .
29.4(28) . . .
31.3(33) . . .
29.1(29) . . .
30.1(30) . . .
24.9(26) . . .
28.6(28) . . .
33.2(30) . . .
41(4) . . .
27.9(27) . . .
38.4(33) . . .
30.8(28) . . .
31.2(30) . . .
37.3(34) . . .
24.4(27) . . .
17.4(23) . . .
36.4(32) . . .
26.6(27) . . .
29.9(30) . . .
25.2(27) . . .
25.5(26) . . .
33.2(30) . . .
19.2(23) . . .
26.2(29) . . .
26.5(27) . . .
31.9(30) . . .
33.5(30) . . .
26.4(27) . . .
28.0(29) . . .
30.9(31) . . .
31.7(30) . . .
30.3(29) . . .
38.0(35) . . .
35.7(32) . . .
32.9(30) . . .
29.6(28) . . .
27.9(28) . . .
23.7(26) . . .
26.6(28) . . .
26.7(28) . . .
26.5(27) . . .
25.0(27) . . .
25.9(26) . . .
33.9(30) . . .
18.2(22) . . .
30.3(29) . . .
36.0(31) . . .
31.0(30) . . .
32.3(31) . . .
25.5(27) . . .
18.2(23) . . .
22.7(25) . . .
22.8(25) . . .
31.6(31) . . .
32.6(30) . . .
34.4(31) . . .
33.7(31) . . .
22.9(26) . . .
30.2(32) . . .
28.5(28) . . .
29.3(28) . . .
22.8(24) . . .
21.9(27) . . .
23.2(27) . . .
25.3(27) . . .
32.1(29) . . .
28.2(28) . . .
21.0(25) . . .
26.5(28) . . .
28.8(28) . . .
25.4(27) . . .
29.5(30) . . .
33.3(31) . . .
25.9(26) . . .
32.0(29) . . .
31.5(30) . . .
26.6(29) . . .
27.2(30) . . .
22.5(25) . . .
28.8(28) . . .
24.0(26) . . .
21.0(24) . . .
27.8(29) . . .
25.9(28) . . .
26.4(26) . . .
33.5(33) . . .
25.6(27) . . .
23.2(26) . . .
29.8(29) . . .
26.7(27) . . .
26.3(26) . . .
26.8(28) . . .
23.3(26) . . .
27.7(28) . . .
25.9(27) . . .
26.9(30) . . .
23.4(25) . . .
30.6(30) . . .
29.2(28) . . .
32.6(30) . . .
32.0(29) . . .
30.6(31) . . .
24.0(26) . . .
23.4(25) . . .
24.6(26) . . .
28.0(29) . . .
28.5(31) . . .
19.8(23) . . .
30.0(29) . . .
26.0(26) . . .
28.8(30) . . .
25.1(28) . . .
21.9(26) . . .
31.5(31) . . .
31.5(29) . . .
35.0(32) . . .
24.3(27) . . .
30.8(32) . . .
22.6(25) . . .
24.5(26) . . .
28.7(28) . . .
35.8(34) . . .
28.6(29) . . .
28.4(28) . . .
30.2(28) . . .
22.9(25) . . .
29.5(32) . . .
23.5(27) . . .
24.2(26) . . .
19.3(23) . . .
31.2(31) . . .
29.6(28) . . .
21.0(24) . . .
23.8(26) . . .
23.7(26) . . .
29.2(30) . . .
29.1(29) . . .
31.4(30) . . .
27.3(27) . . .
26.3(28) . . .
29.9(30) . . .
31.8(33) . . .
24.8(27) . . .
25.2(27) . . .
35.1(33) . . .
26.2(28) . . .
32.3(34) . . .
32.0(30) . . .
28.9(28) . . .
22.7(25) . . .
31.6(30) . . .
28.4(29) . . .
24.4(28) . . .
29.6(28) . . .
24.9(27) . . .
24.5(27) . . .
23.9(25) . . .
25.0(26) . . .
31.8(29) . . .
23.4(26) . . .
29.9(30) . . .
24.4(26) . . .
26.0(26) . . .
28.9(28) . . .
27.4(27) . . .
29.5(30) . . .
31.9(31) . . .
33.8(31) . . .
15.3(21) . . .
26.4(30) . . .
28.3(31) . . .
25.1(27) . . .
22.2(24) . . .
28.7(28) . . .
30.7(33) . . .
22.5(28) . . .
19.5(24) . . .
27.8(28) . . .
26.5(27) . . .
28.2(28) . . .
34.1(33) . . .
30.0(29) . . .
31.4(30) . . .
26.4(27) . . .
27.0(28) . . .
28.2(28) . . .
26.0(26) . . .
32.6(30) . . .
28.3(28) . . .
30.3(28) . . .
23.4(24) . . .
34.3(33) . . .
29.0(27) . . .
32.2(32) . . .
27.7(28) . . .
35.7(33) . . .
25.0(26) . . .
32.3(30) . . .
25.1(27) . . .
22.9(24) . . .
32.3(30) . . .
25.6(26) . . .
26.3(27) . . .
29.5(29) . . .
36(4) . . .
34.0(32) . . .
31.0(29) . . .
27.9(28) . . .
25.5(27) . . .
26.5(28) . . .
35.3(32) . . .
24.4(26) . . .
31.0(29) . . .
31.8(30) . . .
34.7(34) . . .
31.9(30) . . .
25.2(27) . . .
24.4(26) . . .
24.5(27) . . .
28.2(28) . . .
29.4(31) . . .
26.3(27) . . .
22.0(24) . . .
26.6(29) . . .
27.5(31) . . .
28.9(29) . . .
36.8(32) . . .
28.9(32) . . .
23.9(27) . . .
31.7(34) . . .
20.7(24) . . .
24.9(26) . . .
24.1(26) . . .
34.3(33) . . .
28.4(30) . . .
24.2(28) . . .
19.9(23) . . .
15.8(21) . . .
26.9(29) . . .
25.7(29) . . .
25.6(28) . . .
41.3(34) . . .
36.3(31) . . .
37.7(33) . . .
34.4(32) . . .
30.0(30) . . .
32.9(30) . . .
33.7(32) . . .
32.6(31) . . .
31.4(31) . . .
26.2(28) . . .
23.9(26) . . .
27.2(27) . . .
28.8(31) . . .
31.1(30) . . .
25.4(27) . . .
31.1(29) . . .
26.5(29) . . .
25.5(28) . . .
24.8(26) . . .
30.0(29) . . .
26.9(27) . . .
22.5(25) . . .
32.7(32) . . .
34.4(33) . . .
27.5(27) . . .
28.5(28) . . .
27.9(30) . . .
28.2(32) . . .
25.0(28) . . .
28.3(29) . . .
26.0(26) . . .
24.2(28) . . .
28.5(29) . . .
32.5(31) . . .
30.0(29) . . .
38.0(33) . . .
34.5(32) . . .
25.1(29) . . .
25.7(29) . . .
23.8(27) . . .
24.2(26) . . .
31.5(31) . . .
25.2(27) . . .
33.6(34) . . .
24.0(26) . . .
29.3(28) . . .
25.0(26) . . .
23.0(26) . . .
27.7(28) . . .
27.8(28) . . .
33.4(30) . . .
25.1(27) . . .
28.0(29) . . .
29.9(29) . . .
24.2(26) . . .
29.5(29) . . .
35.3(33) . . .
31.1(30) . . .
29.6(28) . . .
31.1(29) . . .
30.3(28) . . .
34.0(31) . . .
27.6(26) . . .
38.1(32) . . .
28.0(27) . . .
32.3(30) . . .
23.7(24) . . .
23.7(25) . . .
27.0(28) . . .
29.0(28) . . .
27.5(30) . . .
24.7(27) . . .
28.2(29) . . .
23.7(25) . . .
22.8(26) . . .
28.3(28) . . .
26.1(26) . . .
33.7(32) . . .
29.2(29) . . .
24.0(26) . . .
29.8(29) . . .
30.1(31) . . .
28.9(29) . . .
32.2(29) . . .
30.6(29) . . .
27.8(29) . . .
25.6(29) . . .
31.5(30) . . .
30.5(29) . . .
36.0(32) . . .
25.8(28) . . .
27.1(29) . . .
28.1(29) . . .
25.5(26) . . .
20.3(24) . . .
27.2(33) . . .
31.3(32) . . .
25.5(26) . . .
28.8(28) . . .
30.8(29) . . .
36.0(32) . . .
30.1(29) . . .
30.0(29) . . .
24.1(26) . . .
23.1(26) . . .
29.5(30) . . .
28.7(30) . . .
31.9(30) . . .
37.1(32) . . .
28.9(29) . . .
26.6(28) . . .
26.7(28) . . .
25.4(27) . . .
27.1(28) . . .
26.0(27) . . .
32.4(31) . . .
24.7(26) . . .
33.0(30) . . .
25.7(26) . . .
26.6(29) . . .
24.7(28) . . .
29.2(29) . . .
25.3(26) . . .
30.8(29) . . .
24.4(29) . . .
25.4(28) . . .
30.9(30) . . .
31.9(29) . . .
29.8(29) . . .
25.3(28) . . .
24.3(28) . . .
24.9(27) . . .
29.5(28) . . .
34.2(30) . . .
35.9(34) . . .
28.1(28) . . .
28.0(29) . . .
22.7(25) . . .
29.3(31) . . .
25.3(28) . . .
26.8(28) . . .
27.7(28) . . .
20.1(24) . . .
26.2(27) . . .
24.7(26) . . .
28.9(28) . . .
29.6(30) . . .
24.7(26) . . .
27.5(27) . . .
26.0(28) . . .
24.7(27) . . .
32.3(30) . . .
27.4(27) . . .
25.6(27) . . .
26.4(27) . . .
35.4(33) . . .
36.7(32) . . .
23.1(26) . . .
26.3(28) . . .
34.5(32) . . .
35.1(31) . . .
34.3(31) . . .
27.9(28) . . .
23.3(28) . . .
24.3(27) . . .
35(4) . . .
27.2(27) . . .
18.7(22) . . .
29.0(30) . . .
28.1(29) . . .
24.9(27) . . .
26.5(27) . . .
30.5(29) . . .
25.8(27) . . .
28.5(28) . . .
36.0(35) . . .
24.5(27) . . .
29.1(29) . . .
26.4(27) . . .
22.8(26) . . .
33.5(32) . . .
21.4(24) . . .
24.2(26) . . .
24.4(25) . . .
27.6(28) . . .
30.6(31) . . .
27.8(27) . . .
33.6(30) . . .
31.6(30) . . .
37.6(34) . . .
28.8(30) . . .
25.9(26) . . .
26.5(27) . . .
26.3(27) . . .
23.7(26) . . .
22.0(24) . . .
35.4(31) . . .
24.6(26) . . .
18.3(22) . . .
25.2(28) . . .
31.4(30) . . .
30.4(29) . . .
26.6(27) . . .
27.4(28) . . .
22.9(29) . . .
22.4(25) . . .
24.0(26) . . .
30.6(29) . . .
23.3(25) . . .
25.9(28) . . .
27.5(29) . . .
28.7(28) . . .
28.1(28) . . .
28.7(30) . . .
18.2(22) . . .
28.4(29) . . .
24.8(27) . . .
28.4(28) . . .
20.2(23) . . .
28.0(30) . . .
30.2(29) . . .
25.1(25) . . .
26.7(30) . . .
31.4(33) . . .
22.5(25) . . .
27.7(27) . . .
36.8(33) . . .
25.3(27) . . .
22.5(27) . . .
29.1(29) . . .
26.9(27) . . .
21.9(25) . . .
33.4(32) . . .
31.9(30) . . .
32.0(29) . . .
32.8(30) . . .
24.2(25) . . .
27.4(29) . . .
38(4) . . .
27.0(28) . . .
23.1(25) . . .
32.2(32) . . .
31.1(31) . . .
27.0(29) . . .
24.8(26) . . .
26.2(27) . . .
23.2(25) . . .
27.9(31) . . .
23.5(27) . . .
27.1(29) . . .
30.6(29) . . .
33.8(30) . . .
33.0(32) . . .
22.4(26) . . .
29.2(30) . . .
27.7(27) . . .
22.0(26) . . .
32.8(33) . . .
28.7(30) . . .
24.3(26) . . .
36.3(32) . . .
35.6(31) . . .
38.5(33) . . .
28.8(29) . . .
35.8(32) . . .
26.2(27) . . .
28.9(30) . . .
27.1(30) . . .
28.7(30) . . .
32.6(30) . . .
31.7(29) . . .
25.9(27) . . .
25.4(27) . . .
25.5(28) . . .
21.5(24) . . .
23.3(26) . . .
21.1(24) . . .
24.7(30) . . .
25.2(28) . . .
30.9(30) . . .
23.9(25) . . .
26.1(27) . . .
25.7(27) . . .
33.1(31) . . .
36.8(31) . . .
30.8(29) . . .
20.1(24) . . .
18.3(24) . . .
27.7(28) . . .
20.0(24) . . .
28.5(28) . . .
27.8(30) . . .
35.2(35) . . .
18.0(23) . . .
28.0(27) . . .
28.4(28) . . .
28.9(30) . . .
24.2(27) . . .
26.3(27) . . .
24.3(25) . . .
25.7(29) . . .
28.5(29) . . .
26.7(27) . . .
33.1(30) . . .
25.7(26) . . .
20.8(24) . . .
24.0(28) . . .
32.3(32) . . .
36.9(33) . . .
34.3(31) . . .
26.0(28) . . .
24.1(27) . . .
23.6(25) . . .
28.8(29) . . .
26.9(27) . . .
29.1(30) . . .
30.2(30) . . .
27.5(28) . . .
24.2(25) . . .
32.5(30) . . .
36.0(33) . . .
34.9(35) . . .
25.0(26) . . .
25.6(26) . . .
19.1(23) . . .
32.5(32) . . .
30.6(31) . . .
31.6(30) . . .
24.6(26) . . .
32.5(29) . . .
32.8(32) . . .
23.1(25) . . .
29.5(31) . . .
26.5(27) . . .
24.5(26) . . .
30.0(28) . . .
26.5(28) . . .
35.5(33) . . .
30.9(29) . . .
29.1(30) . . .
25.3(26) . . .
31.3(31) . . .
29.5(28) . . .
26.9(27) . . .
28.3(29) . . .
31.9(31) . . .
23.1(26) . . .
35.1(32) . . .
31.5(29) . . .
25.0(26) . . .
28.7(30) . . .
30.5(31) . . .
22.8(25) . . .
18.5(22) . . .
28.0(30) . . .
28.5(30) . . .
20.3(25) . . .
30.2(30) . . .
31.3(30) . . .
23.6(26) . . .
23.9(27) . . .
32.2(32) . . .
28.3(29) . . .
26.1(26) . . .
26.9(28) . . .
22.6(24) . . .
24.5(27) . . .
28.7(29) . . .
31.1(29) . . .
28.9(29) . . .
30.0(32) . . .
21.6(24) . . .
27.8(28) . . .
20.2(23) . . .
25.9(27) . . .
25.5(28) . . .
26.8(29) . . .
25.3(29) . . .
29.4(28) . . .
33.2(30) . . .
27.5(30) . . .
27.4(28) . . .
26.9(28) . . .
25.9(26) . . .
33.0(31) . . .
26.6(28) . . .
28.2(28) . . .
25.0(27) . . .
26.3(27) . . .
26.8(30) . . .
30.9(32) . . .
28.5(30) . . .
22.4(24) . . .
22.6(26) . . .
32.9(31) . . .
34.0(32) . . .
30.0(29) . . .
29.7(29) . . .
29.4(31) . . .
25.7(28) . . .
28.0(28) . . .
35.4(35) . . .
22.7(25) . . .
29.3(28) . . .
32.5(32) . . .
28.9(29) . . .
35.3(31) . . .
28.9(28) . . .
32.3(31) . . .
31.4(31) . . .
26.8(28) . . .
22.2(27) . . .
34.3(31) . . .
30.8(32) . . .
29.3(29) . . .
33.0(30) . . .
27.3(28) . . .
29.7(28) . . .
32.0(30) . . .
35.4(33) . . .
27.3(29) . . .
27.2(27) . . .
32.3(30) . . .
22.4(24) . . .
27.3(30) . . .
28.6(28) . . .
33.6(30) . . .
33.5(31) . . .
35.8(32) . . .
28.8(30) . . .
22.3(26) . . .
42(4) . . .
37.4(31) . . .
30.8(30) . . .
27.5(28) . . .
26.5(27) . . .
25.0(27) . . .
28.1(29) . . .
30.9(32) . . .
20.2(24) . . .
40.4(34) . . .
29.1(28) . . .
29.2(28) . . .
34.1(31) . . .
35.3(33) . . .
25.7(27) . . .
23.9(26) . . .
33.2(31) . . .
32.5(31) . . .
30.3(29) . . .
30.2(29) . . .
26.1(27) . . .
36.0(31) . . .
32.1(31) . . .
24.9(28) . . .
23.1(25) . . .
30.8(28) . . .
30.7(30) . . .
28.7(28) . . .
26.1(27) . . .
30.1(29) . . .
23.4(25) . . .
26.5(29) . . .
25.8(27) . . .
23.9(26) . . .
21.4(24) . . .
25.1(28) . . .
33.2(31) . . .
27.6(29) . . .
28.2(29) . . .
30.7(28) . . .
35.2(32) . . .
29.5(31) . . .
22.7(27) . . .
23.8(25) . . .
30.8(29) . . .
37.7(33) . . .
32.8(32) . . .
29.1(29) . . .
30.0(28) . . .
30.3(29) . . .
25.6(26) . . .
28.7(29) . . .
39(4) . . .
30.3(30) . . .
31.8(29) . . .
26.7(28) . . .
23.2(26) . . .
20.2(25) . . .
24.0(27) . . .
36.0(31) . . .
20.9(24) . . .
25.5(27) . . .
35.3(33) . . .
25.5(27) . . .
29.5(29) . . .
32.8(30) . . .
25.8(28) . . .
25.2(28) . . .
25.9(27) . . .
22.6(25) . . .
32.6(30) . . .
29.3(29) . . .
32.7(32) . . .
25.2(26) . . .
37.5(32) . . .
25.4(27) . . .
29.2(29) . . .
20.4(23) . . .
24.9(26) . . .
29.6(29) . . .
33.6(32) . . .
27.9(30) . . .
33.6(34) . . .
28.4(29) . . .
25.8(27) . . .
34.3(32) . . .
36.3(34) . . .
27.9(28) . . .
28.1(29) . . .
28.7(28) . . .
25.0(28) . . .
26.0(29) . . .
27.6(27) . . .
28.9(28) . . .
25.3(27) . . .
28.9(30) . . .
27.3(29) . . .
28.5(28) . . .
28.8(28) . . .
31.6(30) . . .
24.9(26) . . .
21.4(24) . . .
36.4(34) . . .
28.9(28) . . .
32.3(29) . . .
28.7(29) . . .
22.3(26) . . .
29.6(30) . . .
35.8(32) . . .
27.1(27) . . .
29.5(28) . . .
31.0(30) . . .
29.3(29) . . .
32.4(30) . . .
22.2(25) . . .
28.6(28) . . .
23.4(26) . . .
21.4(25) . . .
27.8(28) . . .
21.6(24) . . .
25.6(27) . . .
19.3(23) . . .
25.2(29) . . .
30.2(29) . . .
25.1(26) . . .
30.9(30) . . .
33.5(33) . . .
30.8(31) . . .
29.9(28) . . .
22.8(26) . . .
26.6(28) . . .
25.6(27) . . .
28.6(28) . . .
26.4(27) . . .
28.0(27) . . .
loop_
_refln_index_h
_refln_index_k
_refln_index_l
_refln_observed_status
_refln_F_squared_meas
_refln_F_squared_calc
_refln_phase_calc
_refln_d_spacing
_gsas_i100_meas
0 0 2 o 144.176 351.888 180.00 6.58409 0.18
0 2 0 o 1323.980 1576.191 180.00 8.19426 2.57
0 1 3 o 66.844 31.178 180.00 4.23995 0.07
0 0 4 o 138.374 207.748 180.00 3.29205 0.04
1 0 1 o 13345.862 13585.478 0.00 5.87750 26.62
0 3 1 o 1346.495 1638.144 180.00 5.04587 1.98
0 4 0 o 448.369 1787.709 0.00 4.09713 0.22
0 2 2 o 32498.584 33039.813 0.00 5.13254 49.46
1 0 3 o 312.287 179.911 180.00 3.64945 0.24
0 1 5 o 1182.945 1401.123 180.00 2.60028 0.46
1 1 2 o 4479.250 3934.049 0.00 4.47339 10.36
0 2 4 o 1142.394 639.829 0.00 3.05474 0.62
0 0 6 o 1335.370 1847.249 0.00 2.19470 0.19
1 2 1 o 1715.629 1773.843 0.00 4.77596 4.52
1 1 4 o 272.949 113.561 0.00 2.89672 0.27
1 0 5 o 806.722 794.522 180.00 2.44445 0.28
0 5 1 o 52.734 24.465 180.00 3.18065 0.03
0 1 7 o 1002.549 869.079 0.00 1.86890 0.21
1 2 3 o 707.121 918.685 0.00 3.33377 0.91
0 2 6 o 701.141 756.504 180.00 2.11998 0.18
0 6 0 o 2679.459 2657.011 0.00 2.73142 0.58
1 1 6 o 1061.735 1002.961 180.00 2.06497 0.53
1 4 1 o 681.700 778.554 180.00 3.36109 0.89
1 2 5 o 321.804 466.726 0.00 2.34244 0.21
0 3 3 o 12611.703 13253.009 0.00 3.42169 8.55
0 3 5 o 18.657 114.106 0.00 2.37234 0.01
0 0 8 o 362.588 434.149 180.00 1.64602 0.03
1 0 7 o 841.561 843.879 0.00 1.80845 0.16
0 4 2 o 1.793 6.588 0.00 3.47861 0.00
1 3 2 o 3710.507 3725.256 0.00 3.54090 5.39
0 1 9 o 1374.536 1122.454 0.00 1.45734 0.17
1 1 8 o 1181.739 999.464 0.00 1.58912 0.35
1 3 4 o 47.849 52.662 0.00 2.59097 0.04
0 3 7 o 1357.084 1201.031 0.00 1.77866 0.25
1 6 1 o 856.007 1058.028 0.00 2.47701 0.61
0 2 8 o 1181.474 1059.219 180.00 1.61379 0.18
1 2 7 o 1530.116 1413.046 180.00 1.76596 0.56
0 7 1 o 111.764 311.669 0.00 2.30507 0.03
2 0 0 o 2254.307 2121.828 180.00 3.28402 0.70
2 0 2 o 874.828 565.171 0.00 2.93875 0.44
2 0 4 o 1541.875 1552.185 180.00 2.32499 0.49
1 3 6 o 1405.288 1035.369 0.00 1.94514 0.62
2 1 1 o 960.102 933.306 180.00 3.12785 1.09
0 8 0 o 283.053 259.573 0.00 2.04856 0.03
2 2 0 o 114.542 61.174 0.00 3.04832 0.06
0 0 10 o 4510.275 5769.867 180.00 1.31682 0.23
2 1 3 o 1305.011 1403.992 0.00 2.59631 1.02
0 6 2 o 388.225 576.255 0.00 2.52293 0.14
1 0 9 o 1382.767 1047.146 180.00 1.42813 0.17
0 4 4 o 10117.030 11644.999 0.00 2.56627 3.87
1 5 2 o 2870.208 2930.983 180.00 2.67903 2.39
0 2 10 o 1.585 1.684 0.00 1.30014 0.00
2 0 6 o 0.039 0.042 0.00 1.82473 0.00
2 1 5 o 222.379 181.820 180.00 2.03861 0.11
1 2 9 o 46.960 44.785 180.00 1.40692 0.01
1 1 10 o 2.950 2.783 0.00 1.28714 0.00
2 2 2 o 2417.778 2051.684 180.00 2.76623 2.15
2 2 4 o 0.000 100.268 0.00 2.23670 0.00
2 4 0 o 1498.922 1754.885 180.00 2.56246 0.57
0 4 6 o 3771.511 2927.324 180.00 1.93462 0.83
2 3 1 o 679.746 570.244 0.00 2.75242 0.60
2 1 7 o 234.197 222.473 0.00 1.62429 0.07
0 3 9 o 6.834 6.185 0.00 1.41332 0.00
1 4 3 o 5251.651 5357.732 0.00 2.72514 4.53
1 3 8 o 17.854 17.841 0.00 1.53253 0.00
1 4 5 o 156.704 144.028 180.00 2.09921 0.08
1 8 1 o 705.181 548.117 180.00 1.93443 0.31
2 2 6 o 848.754 747.125 180.00 1.78110 0.32
2 0 8 o 565.369 488.488 180.00 1.47153 0.07
0 9 1 o 4384.961 4299.663 0.00 1.80378 0.84
1 7 2 o 3106.345 2938.627 0.00 2.09112 1.59
0 4 8 o 60.452 59.757 180.00 1.52737 0.01
1 4 7 o 91.682 127.183 180.00 1.65445 0.03
2 5 1 o 10.679 17.077 0.00 2.28473 0.01
0 5 3 o 282.791 554.991 180.00 2.62628 0.11
1 3 10 o 2.602 2.279 180.00 1.25651 0.00
0 8 2 o 2031.594 1600.622 180.00 1.95607 0.45
2 6 0 o 2730.626 2490.594 180.00 2.09999 0.70
2 3 3 o 0.000 63.287 180.00 2.36933 0.00
2 3 5 o 1313.407 1062.618 0.00 1.92305 0.57
2 2 8 o 1949.116 1364.328 0.00 1.44836 0.48
0 10 0 o 9398.355 10342.692 180.00 1.63885 0.74
2 1 9 o 1283.140 1560.521 180.00 1.33206 0.27
2 4 2 o 175.215 348.334 180.00 2.38798 0.12
0 5 5 o 23268.203 22578.314 0.00 2.05301 5.73
0 4 10 o 122.997 108.863 180.00 1.25366 0.01
2 0 10 o 2317.696 2852.602 0.00 1.22222 0.21
1 4 9 o 0.938 1.119 180.00 1.34855 0.00
2 3 7 o 2057.329 2159.986 180.00 1.56400 0.59
2 7 1 o 566.578 479.950 180.00 1.88670 0.24
2 2 10 o 633.356 1212.188 180.00 1.20885 0.11
0 5 7 o 51.304 52.145 180.00 1.63155 0.01
1 10 1 o 471.151 406.446 180.00 1.57863 0.14
1 6 3 o 4718.433 4978.774 180.00 2.18676 2.63
0 7 3 o 7257.373 6900.557 0.00 2.06574 1.81
1 5 6 o 816.171 808.600 0.00 1.75717 0.30
1 5 4 o 5870.563 6355.432 0.00 2.18984 3.28
0 11 1 o 7997.704 6189.508 180.00 1.48042 1.04
0 10 2 o 1973.245 1634.402 0.00 1.59033 0.29
2 4 4 o 1124.726 1031.049 180.00 2.02209 0.54
0 5 9 o 6.193 6.903 0.00 1.33606 0.00
2 8 0 o 3.787 3.906 180.00 1.73812 0.00
1 9 2 o 16.088 17.641 0.00 1.69557 0.01
2 3 9 o 1233.434 1302.289 0.00 1.29820 0.25
2 6 2 o 438.004 508.648 180.00 2.00069 0.20
2 4 6 o 2285.301 3030.172 0.00 1.66688 0.75
3 0 3 o 4513.492 3838.473 0.00 1.95917 1.01
1 5 8 o 36.850 25.466 180.00 1.43540 0.01
3 0 5 o 3426.437 3463.560 180.00 1.68358 0.57
0 12 0 o 4775.469 4991.975 0.00 1.36571 0.26
3 0 1 o 2425.307 2548.307 180.00 2.15970 0.66
3 1 2 o 2975.011 2986.557 180.00 2.06101 1.48
3 1 4 o 4448.379 4483.635 0.00 1.81184 1.71
2 4 8 o 1858.898 2016.417 180.00 1.38491 0.42
2 9 1 o 72.021 61.144 180.00 1.58100 0.02
3 1 6 o 253.336 232.111 180.00 1.54310 0.07
0 9 3 o 81.220 80.404 180.00 1.68196 0.01
2 5 3 o 85.511 86.128 0.00 2.05106 0.04
1 8 3 o 346.494 326.915 0.00 1.78637 0.13
3 2 1 o 24.543 23.220 0.00 2.08838 0.01
3 2 3 o 5608.351 4293.653 180.00 1.90546 2.38
3 0 7 o 412.994 310.741 180.00 1.42681 0.05
0 6 4 o 8392.567 7625.306 180.00 2.10208 2.16
3 2 5 o 398.098 561.513 0.00 1.64914 0.13
2 8 2 o 82.511 81.987 180.00 1.68055 0.03
0 6 6 o 5633.438 6934.055 0.00 1.71084 0.97
3 2 7 o 47.342 45.918 0.00 1.40566 0.01
3 1 8 o 995.123 1177.743 180.00 1.31144 0.20
2 10 0 o 35.808 33.426 0.00 1.46640 0.00
3 4 1 o 1038.407 768.985 180.00 1.91052 0.44
3 0 9 o 1761.469 2452.635 0.00 1.21648 0.16
1 12 1 o 0.558 0.727 0.00 1.33027 0.00
2 5 5 o 2590.839 2714.243 180.00 1.74083 0.92
1 11 2 o 260.164 229.791 180.00 1.41882 0.06
3 3 2 o 1100.904 697.461 0.00 1.94182 0.49
1 6 5 o 627.220 712.434 0.00 1.82152 0.24
0 6 8 o 224.778 209.081 180.00 1.40982 0.03
0 13 1 o 4131.504 3716.241 0.00 1.25492 0.39
2 5 7 o 3749.312 3415.133 0.00 1.46116 0.95
3 3 6 o 66.642 41.694 0.00 1.49113 0.02
0 12 2 o 3758.327 4034.298 180.00 1.33724 0.40
3 3 4 o 239.585 308.102 180.00 1.72927 0.08
1 6 7 o 454.694 366.754 0.00 1.50790 0.12
2 7 3 o 1387.322 1317.805 180.00 1.74857 0.50
1 6 9 o 169.191 124.379 180.00 1.26558 0.03
2 5 9 o 2216.433 1849.633 180.00 1.23756 0.41
1 10 3 o 0.137 0.092 180.00 1.49502 0.00
3 6 1 o 1748.977 1970.181 180.00 1.69411 0.59
0 8 4 o 1487.465 1606.760 0.00 1.73930 0.26
3 3 8 o 62.843 49.287 180.00 1.27909 0.01
1 7 4 o 707.487 674.405 180.00 1.83219 0.28
3 5 2 o 296.819 292.497 0.00 1.75472 0.11
0 11 3 o 1149.238 1055.350 0.00 1.41081 0.14
2 11 1 o 231.576 295.973 0.00 1.34962 0.05
3 4 3 o 391.003 349.618 180.00 1.76749 0.14
2 10 2 o 762.058 525.215 180.00 1.43133 0.19
2 12 0 o 821.356 710.180 180.00 1.26101 0.08
2 6 4 o 1115.129 838.707 0.00 1.77045 0.41
3 4 5 o 3.566 3.802 180.00 1.55724 0.00
3 8 1 o 2.583 1.747 180.00 1.48629 0.00
1 13 2 o 11.308 15.698 180.00 1.21673 0.00
3 4 7 o 400.846 476.466 0.00 1.34744 0.09
2 9 3 o 94.276 69.356 0.00 1.49703 0.02
0 7 7 o 5469.190 5339.270 0.00 1.46644 0.70
2 6 6 o 3307.963 3357.675 180.00 1.51729 0.90
0 7 5 o 1729.970 1571.221 180.00 1.74978 0.31
2 6 8 o 3443.374 3660.463 0.00 1.29549 0.69
3 7 2 o 1660.276 1838.709 180.00 1.55392 0.47
0 7 9 o 201.255 165.584 0.00 1.24076 0.02
1 9 4 o 447.818 431.397 0.00 1.54851 0.13
0 10 4 o 41.681 40.690 180.00 1.46711 0.01
1 7 6 o 570.725 609.571 0.00 1.55562 0.16
1 12 3 o 87.214 69.082 180.00 1.27908 0.02
3 5 4 o 729.026 662.909 180.00 1.59317 0.22
1 7 8 o 333.864 496.251 0.00 1.31910 0.07
2 12 2 o 1052.095 856.084 0.00 1.23850 0.19
0 13 3 o 380.796 703.288 180.00 1.21167 0.03
3 6 3 o 448.505 401.516 0.00 1.59199 0.13
3 10 1 o 22.536 24.998 0.00 1.30553 0.00
3 5 6 o 244.946 249.182 180.00 1.40122 0.06
4 0 4 o 1160.336 1082.313 0.00 1.46937 0.15
2 8 4 o 2224.996 2327.834 180.00 1.53704 0.62
3 9 2 o 93.439 107.147 180.00 1.36938 0.02
2 11 3 o 1348.488 1422.291 180.00 1.29626 0.27
4 1 5 o 1270.260 1397.269 0.00 1.38837 0.29
3 5 8 o 613.289 832.509 0.00 1.22097 0.11
4 0 6 o 1187.919 1669.050 180.00 1.31476 0.12
4 0 0 o 2567.550 2985.847 0.00 1.64201 0.20
4 0 2 o 253.879 238.227 180.00 1.59321 0.04
1 11 4 o 7.254 10.497 180.00 1.32925 0.00
4 1 3 o 529.095 581.113 180.00 1.53120 0.15
4 1 7 o 752.991 676.760 180.00 1.23354 0.14
4 1 1 o 1474.303 1315.334 0.00 1.62140 0.46
2 7 5 o 1882.958 1636.043 0.00 1.54425 0.53
4 2 6 o 460.939 482.555 0.00 1.29816 0.09
4 2 0 o 678.056 489.231 180.00 1.61000 0.10
4 2 4 o 1413.652 851.624 180.00 1.44631 0.35
4 2 2 o 1809.122 2027.046 0.00 1.56393 0.52
0 12 4 o 3.486 3.078 180.00 1.26147 0.00
1 8 5 o 520.375 715.705 180.00 1.57010 0.15
4 3 1 o 924.509 1111.322 180.00 1.56142 0.27
2 7 7 o 3982.269 3919.628 180.00 1.33901 0.85
4 4 0 o 1731.994 1932.282 0.00 1.52416 0.24
3 8 3 o 794.317 772.810 180.00 1.41589 0.19
4 3 5 o 123.977 174.637 180.00 1.35015 0.03
0 8 8 o 1076.306 971.464 0.00 1.28313 0.11
4 3 3 o 3295.101 2504.688 0.00 1.48038 0.85
0 9 5 o 1597.923 1311.937 0.00 1.49779 0.21
3 11 2 o 168.070 388.798 0.00 1.21071 0.03
2 10 4 o 648.359 623.617 0.00 1.33952 0.14
0 8 6 o 1881.944 1527.806 180.00 1.49755 0.25
4 5 1 o 2894.113 2778.599 0.00 1.45905 0.73
3 6 5 o 112.964 70.798 180.00 1.43320 0.03
4 4 2 o 2477.822 1752.521 180.00 1.48490 0.65
3 6 7 o 674.654 547.220 180.00 1.26466 0.13
4 6 0 o 4094.599 3906.765 180.00 1.40729 0.48
3 7 4 o 30.057 19.973 0.00 1.43838 0.01
1 8 7 o 154.630 199.460 0.00 1.35575 0.03
4 7 1 o 2519.725 2601.184 180.00 1.33738 0.54
3 10 3 o 713.317 646.705 180.00 1.25704 0.13
4 4 6 o 48.104 46.063 180.00 1.25188 0.01
4 4 4 o 1050.914 1063.345 0.00 1.38312 0.24
1 10 5 o 332.754 342.086 0.00 1.36123 0.07
4 6 2 o 1187.719 1533.371 0.00 1.37621 0.27
4 8 0 o 2148.064 1892.769 0.00 1.28123 0.21
0 11 5 o 655.016 676.729 0.00 1.29675 0.07
4 5 3 o 706.380 763.436 180.00 1.39228 0.16
2 9 5 o 3844.250 3510.623 180.00 1.36275 0.85
2 8 6 o 2755.299 2559.619 0.00 1.36257 0.61
4 9 1 o 1175.783 1604.749 0.00 1.21425 0.21
4 8 2 o 2163.690 1982.991 180.00 1.25764 0.41
3 7 6 o 19.005 22.557 0.00 1.29242 0.00
3 9 4 o 96.116 100.351 180.00 1.28833 0.02
4 5 5 o 618.817 568.682 0.00 1.28232 0.12
1 9 6 o 303.525 404.186 180.00 1.37054 0.07
0 9 7 o 17.992 17.521 180.00 1.30838 0.00
4 7 3 o 1126.044 1021.183 0.00 1.28540 0.22
3 8 5 o 94.631 98.467 180.00 1.30069 0.02
4 6 4 o 370.942 436.409 180.00 1.29402 0.07
0 10 6 o 0.008 0.012 0.00 1.31314 0.00
5 0 3 o 0.002 0.002 180.00 1.25846 0.00
5 0 1 o 2110.586 2255.322 0.00 1.30712 0.22
5 1 4 o 10.007 13.465 0.00 1.21670 0.00
5 1 2 o 583.300 532.454 0.00 1.28426 0.12
5 2 1 o 419.597 524.558 0.00 1.29080 0.08
5 2 3 o 445.146 342.303 0.00 1.24388 0.08
2 9 7 o 56.825 69.690 0.00 1.21546 0.01
5 3 2 o 602.397 593.715 0.00 1.25383 0.11
5 4 1 o 9.492 6.901 180.00 1.24528 0.00
1 11 6 o 96.929 225.060 0.00 1.21152 0.02
2 10 6 o 158.966 267.366 180.00 1.21928 0.03
1 10 7 o 173.931 199.222 180.00 1.21439 0.03
