#------------------------------------------------------------------------------
#$Date: 2016-03-21 01:21:50 +0200 (Mon, 21 Mar 2016) $
#$Revision: 178377 $
#$URL: svn://www.crystallography.net/cod/cif/4/00/21/4002123.cif $
#------------------------------------------------------------------------------
#
# This file is available in the Crystallography Open Database (COD),
# http://www.crystallography.net/
#
# All data on this site have been placed in the public domain by the
# contributors.
#
data_4002123
loop_
_publ_author_name
'Nanthamathee, Chompoonoot'
'Ling, Sanliang'
'Slater, Ben'
'Attfield, Martin P.'
_publ_section_title
;
 Contradistinct Thermoresponsive Behavior of Isostructural MIL-53 Type
 Metal--Organic Frameworks by Modifying the Framework Inorganic Anion
;
_journal_name_full               'Chemistry of Materials'
_journal_page_first              141223143002002
_journal_paper_doi               10.1021/cm503311x
_journal_year                    2014
_chemical_formula_sum            'C8 Al F O4'
_chemical_formula_weight         206.06
_chemical_name_systematic        ' ?'
_space_group_IT_number           74
_symmetry_cell_setting           orthorhombic
_symmetry_space_group_name_Hall  '-I 2b 2'
_symmetry_space_group_name_H-M   'I m m a'
_audit_creation_date             2014-08-28T12:44
_audit_creation_method           'from EXP file using GSAS2CIF'
_audit_update_record
' 2014-08-28T12:44  Initial CIF as created by GSAS2CIF'
_cell_angle_alpha                90.0
_cell_angle_beta                 90.0
_cell_angle_gamma                90.0
_cell_formula_units_Z            4
_cell_length_a                   6.56509(13)
_cell_length_b                   16.3991(4)
_cell_length_c                   13.1951(5)
_cell_volume                     1420.61(7)
_computing_structure_refinement  GSAS
_diffrn_radiation_polarisn_ratio 0.95
_diffrn_radiation_probe          x-ray
_diffrn_radiation_wavelength     0.827154
_exptl_absorpt_correction_T_max  1.00000
_exptl_absorpt_correction_T_min  1.00000
_exptl_absorpt_process_details
;   GSAS Absorption/surface roughness correction: function number 0
 No correction is applied.
;
_pd_block_id                     2014-08-28T12:44|200K||
_pd_calc_method                  'Rietveld Refinement'
_pd_instr_location               ' ?'
_pd_meas_2theta_range_inc        0.004
_pd_meas_2theta_range_max        150.01401
_pd_meas_2theta_range_min        0.002
_pd_meas_number_of_points        37504
_pd_phase_name                   290K
_pd_proc_2theta_range_inc        0.004
_pd_proc_2theta_range_max        150.06905
_pd_proc_2theta_range_min        0.05704
_pd_proc_info_datetime           2014-08-28T12:44:39
_pd_proc_info_excluded_regions   ' ?'
_pd_proc_ls_background_function
;   GSAS Background function number 1 with  2 terms.
 Shifted Chebyshev function of 1st kind
      1:    0.00000     2:    0.00000    
;
_pd_proc_ls_peak_cutoff          0.00050
_pd_proc_ls_profile_function
;
 CW Profile function number 4 with  18 terms
 Pseudovoigt profile coefficients as parameterized in
 P. Thompson, D.E. Cox & J.B. Hastings (1987). J. Appl. Cryst.,20,79-83.
 Asymmetry correction of L.W. Finger, D.E. Cox & A. P. Jephcoat (1994).
 J. Appl. Cryst.,27,892-900.
 Microstrain broadening by P.W. Stephens,  (1999). J. Appl. Cryst.,32,281-289.
 Peak tails are ignored  where the intensity is below 0.0005 times the peak
   Aniso. broadening axis   1.0   0.0   1.0
;
_pd_proc_ls_prof_R_factor        0.0800
_pd_proc_ls_prof_wR_expected     0.0453
_pd_proc_ls_prof_wR_factor       0.1056
_pd_proc_number_of_points        37504
_pd_spec_mounting                ' ?'
_refine_ls_goodness_of_fit_all   2.33
_refine_ls_matrix_type           full
_refine_ls_number_parameters     27
_refine_ls_number_restraints     0
_refine_ls_R_Fsqd_factor         0.29718
_refine_ls_shift/su_max          0.03
_refine_ls_shift/su_mean         0.01
_reflns_d_resolution_high        1.091
_reflns_d_resolution_low         8.200
_reflns_limit_h_max              6
_reflns_limit_h_min              0
_reflns_limit_k_max              15
_reflns_limit_k_min              0
_reflns_limit_l_max              12
_reflns_limit_l_min              0
_reflns_number_total             302
_cod_data_source_file            alf200K.cif
_cod_data_source_block           200K_publ
_cod_depositor_comments
;
The following automatic conversions were performed:

'_geom_bond_publ_flag' value 'N' changed to 'n' according to
/home/saulius/struct/COD-crude-data--automatic-downloads/rss-feeds/ACS/lib/dictionaries/cif_core.dic
dictionary named 'cif_core.dic' version 2.4.2 from 2011-04-26 (18
times).

'_geom_angle_publ_flag' value 'N' changed to 'n' according
to
/home/saulius/struct/COD-crude-data--automatic-downloads/rss-feeds/ACS/lib/dictionaries/cif_core.dic
dictionary named 'cif_core.dic' version 2.4.2 from 2011-04-26 (24
times).

Automatic conversion script
Id: cif_fix_values 2935 2014-11-11 08:27:57Z andrius 
;
_cod_original_cell_volume        1420.60(6)
_cod_database_code               4002123
#BEGIN Tags that were not found in dictionaries:
_gsas_exptl_extinct_corr_t_min   1.00000
_gsas_exptl_extinct_corr_t_max   1.00000
#END Tags that were not found in dictionaries
loop_
_symmetry_equiv_pos_site_id
_symmetry_equiv_pos_as_xyz
1 +x,+y,+z
2 -x,+y,+z
3 +x,-y+1/2,+z
4 -x,-y+1/2,+z
-1 -x,-y,-z
-2 +x,-y,-z
-3 -x,+y+1/2,-z
-4 +x,+y+1/2,-z
101 +x+1/2,+y+1/2,+z+1/2
102 -x+1/2,+y+1/2,+z+1/2
103 +x+1/2,-y,+z+1/2
104 -x+1/2,-y,+z+1/2
-101 -x+1/2,-y+1/2,-z+1/2
-102 +x+1/2,-y+1/2,-z+1/2
-103 -x+1/2,+y,-z+1/2
-104 +x+1/2,+y,-z+1/2
loop_
_atom_site_type_symbol
_atom_site_label
_atom_site_fract_x
_atom_site_fract_y
_atom_site_fract_z
_atom_site_occupancy
_atom_site_thermal_displace_type
_atom_site_U_iso_or_equiv
_atom_site_symmetry_multiplicity
Al Al1 0.25 0.25 0.75 1.0 Uiso 0.0318(14) 4
F F1 0.0 0.25 0.6911(4) 1.0 Uiso 0.0145(9) 4
O O1 0.1711(4) 0.16713(17) 0.84207(24) 1.0 Uiso 0.0145(9) 16
C C1 -0.1945(5) 0.0320(4) 0.9645(5) 1.0 Uiso 0.0268(15) 16
C C2 0.0 0.0619(4) 0.9422(6) 1.0 Uiso 0.0268(15) 8
C C3 0.0 0.1379(5) 0.8706(6) 1.0 Uiso 0.0268(15) 8
loop_
_atom_type_symbol
_atom_type_number_in_cell
_atom_type_scat_dispersion_real
_atom_type_scat_dispersion_imag
_atom_type_scat_Cromer_Mann_a1
_atom_type_scat_Cromer_Mann_a2
_atom_type_scat_Cromer_Mann_a3
_atom_type_scat_Cromer_Mann_a4
_atom_type_scat_Cromer_Mann_b1
_atom_type_scat_Cromer_Mann_b2
_atom_type_scat_Cromer_Mann_b3
_atom_type_scat_Cromer_Mann_b4
_atom_type_scat_Cromer_Mann_c
_atom_type_scat_source
Al 4.0 0.000 0.000 6.42020 3.03870 1.90020 0.74260 1.59360 31.5472 1.96460
85.0886 1.11510 International_Tables_Vol_C
F 4.0 0.000 0.000 3.53920 10.2825 2.64120 4.29440 1.51700 0.26150 1.02430
26.1476 0.27760 International_Tables_Vol_C
O 16.0 0.000 0.000 3.04850 13.2771 2.28680 5.70110 1.54630 0.32390 0.86700
32.9089 0.25080 International_Tables_Vol_C
C 32.0 0.000 0.000 2.31000 20.8439 1.02000 10.2075 1.58860 0.56870 0.86500
51.6512 0.21560 International_Tables_Vol_C
loop_
_geom_angle_atom_site_label_1
_geom_angle_atom_site_label_2
_geom_angle_atom_site_label_3
_geom_angle
_geom_angle_site_symmetry_1
_geom_angle_site_symmetry_3
_geom_angle_publ_flag
F1 Al1 F1 180.0 1_555 -101_546 n
F1 Al1 O1 91.55(12) 1_555 1_555 n
F1 Al1 O1 91.55(12) 1_555 3_555 n
F1 Al1 O1 88.45(12) 1_555 -101_566 n
F1 Al1 O1 88.45(12) 1_555 -103_566 n
F1 Al1 O1 88.45(12) -101_566 1_555 n
F1 Al1 O1 88.45(12) -101_566 3_555 n
F1 Al1 O1 91.55(12) -101_566 -101_566 n
F1 Al1 O1 91.55(12) -101_566 -103_566 n
O1 Al1 O1 91.63(20) 1_555 3_555 n
O1 Al1 O1 180.0 1_555 -101_566 n
O1 Al1 O1 88.37(20) 1_555 -103_566 n
O1 Al1 O1 88.37(20) 3_555 -101_566 n
O1 Al1 O1 180.0 3_555 -103_566 n
O1 Al1 O1 91.63(20) -101_566 -103_566 n
Al1 F1 Al1 129.36(30) 1_555 2_555 n
Al1 O1 C3 134.3(4) 1_555 1_555 n
C1 C1 C2 113.7(4) -2_557 1_555 n
C1 C2 C1 131.8(8) 1_555 2_555 n
C1 C2 C3 113.9(4) 1_555 1_555 n
C1 C2 C3 113.9(4) 2_555 1_555 n
O1 C3 O1 123.1(7) 1_555 2_555 n
O1 C3 C2 118.5(4) 1_555 1_555 n
O1 C3 C2 118.5(4) 2_555 1_555 n
loop_
_geom_bond_atom_site_label_1
_geom_bond_atom_site_label_2
_geom_bond_distance
_geom_bond_site_symmetry_2
_geom_bond_publ_flag
Al1 F1 1.8157(22) 1_555 n
Al1 F1 1.8157(22) -101_445 n
Al1 O1 1.8950(24) 1_555 n
Al1 O1 1.8950(24) 3_555 n
Al1 O1 1.8950(24) -101_445 n
Al1 O1 1.8950(24) -103_445 n
F1 Al1 1.8157(22) 1_555 n
F1 Al1 1.8157(22) 2_555 n
O1 Al1 1.8950(24) 1_555 n
O1 C3 1.278(4) 1_555 n
C1 C1 1.408(9) -2_557 n
C1 C2 1.399(4) 1_555 n
C2 C1 1.399(4) 1_555 n
C2 C1 1.399(4) 2_555 n
C2 C3 1.564(7) 1_555 n
C3 O1 1.278(4) 1_555 n
C3 O1 1.278(4) 2_555 n
C3 C2 1.564(7) 1_555 n
loop_
_pd_meas_intensity_total
_pd_proc_ls_weight
_pd_proc_intensity_bkg_calc
_pd_calc_intensity_total
9.0(30) 0.0 0.00 .
9.0(30) 0.0 0.00 .
27(5) 0.0 0.0 .
21(5) 0.0 0.0 .
9.0(30) 0.0 0.00 .
17(4) 0.0 0.0 .
17(4) 0.0 0.0 .
9.0(30) 0.0 0.00 .
17(4) 0.0 0.0 .
23(5) 0.0 0.0 .
12.0(35) 0.0 0.00 .
17(4) 0.0 0.0 .
10.0(32) 0.0 0.00 .
15(4) 0.0 0.0 .
16(4) 0.0 0.0 .
7.0(26) 0.0 0.00 .
13(4) 0.0 0.0 .
10.0(32) 0.0 0.00 .
11.0(33) 0.0 0.00 .
18(4) 0.0 0.0 .
13(4) 0.0 0.0 .
16(4) 0.0 0.0 .
14(4) 0.0 0.0 .
13(4) 0.0 0.0 .
16(4) 0.0 0.0 .
12.0(35) 0.0 0.00 .
15(4) 0.0 0.0 .
15(4) 0.0 0.0 .
12.0(35) 0.0 0.00 .
12.0(35) 0.0 0.00 .
17(4) 0.0 0.0 .
14(4) 0.0 0.0 .
17(4) 0.0 0.0 .
18(4) 0.0 0.0 .
11.0(33) 0.0 0.00 .
16(4) 0.0 0.0 .
16(4) 0.0 0.0 .
12.0(35) 0.0 0.00 .
13(4) 0.0 0.0 .
15(4) 0.0 0.0 .
12.0(35) 0.0 0.00 .
15(4) 0.0 0.0 .
16(4) 0.0 0.0 .
13(4) 0.0 0.0 .
9.0(30) 0.0 0.00 .
13(4) 0.0 0.0 .
14(4) 0.0 0.0 .
13(4) 0.0 0.0 .
19(4) 0.0 0.0 .
14(4) 0.0 0.0 .
13(4) 0.0 0.0 .
19(4) 0.0 0.0 .
17(4) 0.0 0.0 .
15(4) 0.0 0.0 .
14(4) 0.0 0.0 .
14(4) 0.0 0.0 .
20(4) 0.0 0.0 .
7.0(26) 0.0 0.00 .
17(4) 0.0 0.0 .
15(4) 0.0 0.0 .
14(4) 0.0 0.0 .
15(4) 0.0 0.0 .
12.0(35) 0.0 0.00 .
13(4) 0.0 0.0 .
20(4) 0.0 0.0 .
14(4) 0.0 0.0 .
12.0(35) 0.0 0.00 .
11.0(33) 0.0 0.00 .
15(4) 0.0 0.0 .
9.0(30) 0.0 0.00 .
16(4) 0.0 0.0 .
20(4) 0.0 0.0 .
7.0(26) 0.0 0.00 .
19(4) 0.0 0.0 .
19(4) 0.0 0.0 .
14(4) 0.0 0.0 .
14(4) 0.0 0.0 .
16(4) 0.0 0.0 .
17(4) 0.0 0.0 .
16(4) 0.0 0.0 .
16(4) 0.0 0.0 .
10.0(32) 0.0 0.00 .
11.0(33) 0.0 0.00 .
14(4) 0.0 0.0 .
16(4) 0.0 0.0 .
15(4) 0.0 0.0 .
17(4) 0.0 0.0 .
9.0(30) 0.0 0.00 .
16(4) 0.0 0.0 .
17(4) 0.0 0.0 .
13(4) 0.0 0.0 .
10.0(32) 0.0 0.00 .
19(4) 0.0 0.0 .
14(4) 0.0 0.0 .
24(5) 0.0 0.0 .
14(4) 0.0 0.0 .
11.0(33) 0.0 0.00 .
14(4) 0.0 0.0 .
16(4) 0.0 0.0 .
16(4) 0.0 0.0 .
15(4) 0.0 0.0 .
12.0(35) 0.0 0.00 .
15(4) 0.0 0.0 .
24(5) 0.0 0.0 .
17(4) 0.0 0.0 .
26(5) 0.0 0.0 .
22(5) 0.0 0.0 .
38(6) 0.0 0.0 .
46(7) 0.0 0.0 .
66(8) 0.0 0.0 .
83(9) 0.0 0.0 .
107(10) 0.0 0.0 .
149(12) 0.0 0.0 .
201(14) 0.0 0.0 .
227(15) 0.0 0.0 .
291(17) 0.0 0.0 .
395(20) 0.0 0.0 .
485(22) 0.0 0.0 .
650(25) 0.0 0.0 .
772(28) 0.0 0.0 .
868(29) 0.0 0.0 .
956(31) 0.0 0.0 .
1042(32) 0.0 0.0 .
1014(32) 0.0 0.0 .
1002(32) 0.0 0.0 .
989(31) 0.0 0.0 .
904(30) 0.0 0.0 .
938(31) 0.0 0.0 .
983(31) 0.0 0.0 .
995(32) 0.0 0.0 .
966(31) 0.0 0.0 .
908(30) 0.0 0.0 .
918(30) 0.0 0.0 .
890(30) 0.0 0.0 .
879(30) 0.0 0.0 .
886(30) 0.0 0.0 .
862(29) 0.0 0.0 .
767(28) 0.0 0.0 .
760(28) 0.0 0.0 .
794(28) 0.0 0.0 .
737(27) 0.0 0.0 .
713(27) 0.0 0.0 .
619(25) 0.0 0.0 .
626(25) 0.0 0.0 .
562(24) 0.0 0.0 .
524(23) 0.0 0.0 .
521(23) 0.0 0.0 .
471(22) 0.0 0.0 .
446(21) 0.0 0.0 .
456(21) 0.0 0.0 .
417(20) 0.0 0.0 .
416(20) 0.0 0.0 .
409(20) 0.0 0.0 .
376(19) 0.0 0.0 .
389(20) 0.0 0.0 .
383(20) 0.0 0.0 .
351(19) 0.0 0.0 .
357(19) 0.0 0.0 .
349(19) 0.0 0.0 .
376(19) 0.0 0.0 .
331(18) 0.0 0.0 .
336(18) 0.0 0.0 .
344(19) 0.0 0.0 .
372(19) 0.0 0.0 .
352(19) 0.0 0.0 .
323(18) 0.0 0.0 .
327(18) 0.0 0.0 .
354(19) 0.0 0.0 .
345(19) 0.0 0.0 .
369(19) 0.0 0.0 .
360(19) 0.0 0.0 .
338(18) 0.0 0.0 .
350(19) 0.0 0.0 .
330(18) 0.0 0.0 .
348(19) 0.0 0.0 .
386(20) 0.0 0.0 .
367(19) 0.0 0.0 .
394(20) 0.0 0.0 .
357(19) 0.0 0.0 .
340(18) 0.0 0.0 .
367(19) 0.0 0.0 .
375(19) 0.0 0.0 .
379(19) 0.0 0.0 .
372(19) 0.0 0.0 .
365(19) 0.0 0.0 .
378(19) 0.0 0.0 .
361(19) 0.0 0.0 .
361(19) 0.0 0.0 .
383(20) 0.0 0.0 .
390(20) 0.0 0.0 .
419(20) 0.0 0.0 .
403(20) 0.0 0.0 .
391(20) 0.0 0.0 .
404(20) 0.0 0.0 .
390(20) 0.0 0.0 .
409(20) 0.0 0.0 .
421(21) 0.0 0.0 .
410(20) 0.0 0.0 .
442(21) 0.0 0.0 .
366(19) 0.0 0.0 .
410(20) 0.0 0.0 .
411(20) 0.0 0.0 .
484(22) 0.0 0.0 .
433(21) 0.0 0.0 .
448(21) 0.0 0.0 .
450(21) 0.0 0.0 .
469(22) 0.0 0.0 .
453(21) 0.0 0.0 .
433(21) 0.0 0.0 .
466(22) 0.0 0.0 .
448(21) 0.0 0.0 .
469(22) 0.0 0.0 .
515(23) 0.0 0.0 .
449(21) 0.0 0.0 .
487(22) 0.0 0.0 .
490(22) 0.0 0.0 .
498(22) 0.0 0.0 .
487(22) 0.0 0.0 .
492(22) 0.0 0.0 .
524(23) 0.0 0.0 .
512(23) 0.0 0.0 .
493(22) 0.0 0.0 .
552(23) 0.0 0.0 .
507(23) 0.0 0.0 .
574(24) 0.0 0.0 .
585(24) 0.0 0.0 .
604(25) 0.0 0.0 .
530(23) 0.0 0.0 .
553(24) 0.0 0.0 .
577(24) 0.0 0.0 .
589(24) 0.0 0.0 .
626(25) 0.0 0.0 .
642(25) 0.0 0.0 .
737(27) 0.0 0.0 .
814(29) 0.0 0.0 .
918(30) 0.0 0.0 .
1027(32) 0.0 0.0 .
1223(35) 0.0 0.0 .
1366(37) 0.0 0. .
1435(38) 0.0 0. .
1550(39) 0.0 0. .
1781(42) 0.0 0. .
1915(44) 0.0 0. .
2236(47) 0.0 0. .
2453(50) 0.0 0. .
2691(52) 0.0 0. .
3000(55) 0.0 0. .
3197(57) 0.0 0. .
3699(61) 0.0 0. .
4001(63) 0.0 0. .
4450(67) 0.0 0. .
5013(71) 0.0 0. .
5521(74) 0.0 0. .
6191(79) 0.0 0. .
7104(84) 0.0 0. .
7638(87) 0.0 0. .
8555(92) 0.0 0. .
9351(97) 0.0 0. .
10740(100) 0.0 0. .
11570(110) 0.0 0. .
12540(110) 0.0 0. .
13360(120) 0.0 0. .
14270(120) 0.0 0. .
14310(120) 0.0 0. .
14760(120) 0.0 0. .
15230(120) 0.0 0. .
15910(130) 0.0 0. .
16120(130) 0.0 0. .
15990(130) 0.0 0. .
16130(130) 0.0 0. .
16150(130) 0.0 0. .
16020(130) 0.0 0. .
16480(130) 0.0 0. .
16370(130) 0.0 0. .
16420(130) 0.0 0. .
16550(130) 0.0 0. .
16790(130) 0.0 0. .
17020(130) 0.0 0. .
17250(130) 0.0 0. .
17210(130) 0.0 0. .
17450(130) 0.0 0. .
17240(130) 0.0 0. .
17220(130) 0.0 0. .
17500(130) 0.0 0. .
17660(130) 0.0 0. .
17370(130) 0.0 0. .
17620(130) 0.0 0. .
17500(130) 0.0 0. .
17700(130) 0.0 0. .
17720(130) 0.0 0. .
17650(130) 0.0 0. .
17360(130) 0.0 0. .
17110(130) 0.0 0. .
16910(130) 0.0 0. .
16680(130) 0.0 0. .
16670(130) 0.0 0. .
16490(130) 0.0 0. .
16530(130) 0.0 0. .
16090(130) 0.0 0. .
16000(130) 0.0 0. .
16150(130) 0.0 0. .
15440(120) 0.0 0. .
15640(130) 0.0 0. .
15270(120) 0.0 0. .
15560(130) 0.0 0. .
15200(120) 0.0 0. .
14810(120) 0.0 0. .
14840(120) 0.0 0. .
15120(120) 0.0 0. .
14800(120) 0.0 0. .
14430(120) 0.0 0. .
14800(120) 0.0 0. .
14250(120) 0.0 0. .
14310(120) 0.0 0. .
14190(120) 0.0 0. .
14080(120) 0.0 0. .
13690(120) 0.0 0. .
13280(120) 0.0 0. .
13360(120) 0.0 0. .
13560(120) 0.0 0. .
13140(120) 0.0 0. .
13230(120) 0.0 0. .
13120(120) 0.0 0. .
12470(110) 0.0 0. .
12480(110) 0.0 0. .
12530(110) 0.0 0. .
12550(110) 0.0 0. .
12640(110) 0.0 0. .
12410(110) 0.0 0. .
12170(110) 0.0 0. .
11900(110) 0.0 0. .
12120(110) 0.0 0. .
11990(110) 0.0 0. .
11910(110) 0.0 0. .
11870(110) 0.0 0. .
11880(110) 0.0 0. .
11670(110) 0.0 0. .
11660(110) 0.0 0. .
11500(110) 0.0 0. .
11310(110) 0.0 0. .
11230(110) 0.0 0. .
11190(110) 0.0 0. .
11250(110) 0.0 0. .
10970(110) 0.0 0. .
10710(100) 0.0 0. .
10550(100) 0.0 0. .
10240(100) 0.0 0. .
10420(100) 0.0 0. .
10400(100) 0.0 0. .
10200(100) 0.0 0. .
10310(100) 0.0 0. .
10100(100) 0.0 0. .
9739(99) 0.0 0. .
9850(99) 0.0 0. .
9780(99) 0.0 0. .
9798(99) 0.0 0. .
9755(99) 0.0 0. .
9526(98) 0.0 0. .
9551(98) 0.0 0. .
9307(96) 0.0 0. .
9311(96) 0.0 0. .
9546(98) 0.0 0. .
9223(96) 0.0 0. .
9006(95) 0.0 0. .
9137(96) 0.0 0. .
8995(95) 0.0 0. .
8980(95) 0.0 0. .
8687(93) 0.0 0. .
8330(91) 0.0 0. .
8726(93) 0.0 0. .
8242(91) 0.0 0. .
8333(91) 0.0 0. .
8473(92) 0.0 0. .
8031(90) 0.0 0. .
7855(89) 0.0 0. .
7976(89) 0.0 0. .
7976(89) 0.0 0. .
7871(89) 0.0 0. .
8023(90) 0.0 0. .
7725(88) 0.0 0. .
7733(88) 0.0 0. .
7751(88) 0.0 0. .
7759(88) 0.0 0. .
7725(88) 0.0 0. .
7425(86) 0.0 0. .
7582(87) 0.0 0. .
7456(86) 0.0 0. .
7680(88) 0.0 0. .
7367(86) 0.0 0. .
7569(87) 0.0 0. .
7672(88) 0.0 0. .
7373(86) 0.0 0. .
7484(87) 0.0 0. .
7303(85) 0.0 0. .
7098(84) 0.0 0. .
7319(86) 0.0 0. .
7392(86) 0.0 0. .
7088(84) 0.0 0. .
7284(85) 0.0 0. .
7187(85) 0.0 0. .
7182(85) 0.0 0. .
7065(84) 0.0 0. .
6968(83) 0.0 0. .
7270(85) 0.0 0. .
7008(84) 0.0 0. .
6858(83) 0.0 0. .
6827(83) 0.0 0. .
6568(81) 0.0 0. .
6559(81) 0.0 0. .
6846(83) 0.0 0. .
6601(81) 0.0 0. .
6575(81) 0.0 0. .
6482(81) 0.0 0. .
6477(80) 0.0 0. .
6438(80) 0.0 0. .
6419(80) 0.0 0. .
6581(81) 0.0 0. .
6634(81) 0.0 0. .
6358(80) 0.0 0. .
6489(81) 0.0 0. .
6424(80) 0.0 0. .
6342(80) 0.0 0. .
6406(80) 0.0 0. .
6301(79) 0.0 0. .
6038(78) 0.0 0. .
6058(78) 0.0 0. .
6119(78) 0.0 0. .
6081(78) 0.0 0. .
6062(78) 0.0 0. .
6017(78) 0.0 0. .
5860(77) 0.0 0. .
5966(77) 0.0 0. .
5783(76) 0.0 0. .
5842(76) 0.0 0. .
5843(76) 0.0 0. .
5705(76) 0.0 0. .
5593(75) 0.0 0. .
5717(76) 0.0 0. .
5837(76) 0.0 0. .
5828(76) 0.0 0. .
5825(76) 0.0 0. .
5885(77) 0.0 0. .
5818(76) 0.0 0. .
5777(76) 0.0 0. .
5840(76) 0.0 0. .
5717(76) 0.0 0. .
5806(76) 0.0 0. .
5673(75) 0.0 0. .
5445(74) 0.0 0. .
5200(72) 0.0 0. .
5388(73) 0.0 0. .
5221(72) 0.0 0. .
5307(73) 0.0 0. .
5157(72) 0.0 0. .
5162(72) 0.0 0. .
5078(71) 0.0 0. .
5094(71) 0.0 0. .
5059(71) 0.0 0. .
5256(72) 0.0 0. .
5275(73) 0.0 0. .
5242(72) 0.0 0. .
5106(71) 0.0 0. .
4873(70) 0.0 0. .
4976(71) 0.0 0. .
4940(70) 0.0 0. .
5098(71) 0.0 0. .
5159(72) 0.0 0. .
4935(70) 0.0 0. .
5033(71) 0.0 0. .
4987(71) 0.0 0. .
5020(71) 0.0 0. .
4905(70) 0.0 0. .
4758(69) 0.0 0. .
4953(70) 0.0 0. .
4679(68) 0.0 0. .
4671(68) 0.0 0. .
4582(68) 0.0 0. .
4639(68) 0.0 0. .
4569(68) 0.0 0. .
4705(69) 0.0 0. .
4705(69) 0.0 0. .
4776(69) 0.0 0. .
4627(68) 0.0 0. .
4623(68) 0.0 0. .
4799(69) 0.0 0. .
4516(67) 0.0 0. .
4418(66) 0.0 0. .
4520(67) 0.0 0. .
4517(67) 0.0 0. .
4559(68) 0.0 0. .
4267(65) 0.0 0. .
4278(65) 0.0 0. .
4240(65) 0.0 0. .
4372(66) 0.0 0. .
4324(66) 0.0 0. .
4407(66) 0.0 0. .
4338(66) 0.0 0. .
4194(65) 0.0 0. .
4284(65) 0.0 0. .
4104(64) 0.0 0. .
4115(64) 0.0 0. .
3870(62) 0.0 0. .
3855(62) 0.0 0. .
3919(63) 0.0 0. .
3981(63) 0.0 0. .
3772(61) 0.0 0. .
3917(63) 0.0 0. .
3877(62) 0.0 0. .
3667(61) 0.0 0. .
3726(61) 0.0 0. .
3637(60) 0.0 0. .
3638(60) 0.0 0. .
3686(61) 0.0 0. .
3561(60) 0.0 0. .
3603(60) 0.0 0. .
3390(58) 0.0 0. .
3338(58) 0.0 0. .
3415(58) 0.0 0. .
3412(58) 0.0 0. .
3332(58) 0.0 0. .
3458(59) 0.0 0. .
3398(58) 0.0 0. .
3378(58) 0.0 0. .
3305(57) 0.0 0. .
3256(57) 0.0 0. .
3123(56) 0.0 0. .
2953(54) 0.0 0. .
2937(54) 0.0 0. .
2961(54) 0.0 0. .
2871(54) 0.0 0. .
2874(54) 0.0 0. .
2699(52) 0.0 0. .
2714(52) 0.0 0. .
2687(52) 0.0 0. .
2677(52) 0.0 0. .
2580(51) 0.0 0. .
2601(51) 0.0 0. .
2678(52) 0.0 0. .
2550(50) 0.0 0. .
2544(50) 0.0 0. .
2592(51) 0.0 0. .
2515(50) 0.0 0. .
2480(50) 0.0 0. .
2566(51) 0.0 0. .
2473(50) 0.0 0. .
2580(51) 0.0 0. .
2602(51) 0.0 0. .
2507(50) 0.0 0. .
2629(51) 0.0 0. .
2563(51) 0.0 0. .
2511(50) 0.0 0. .
2511(50) 0.0 0. .
2349(48) 0.0 0. .
2319(48) 0.0 0. .
2257(48) 0.0 0. .
2275(48) 0.0 0. .
2296(48) 0.0 0. .
2206(47) 0.0 0. .
2181(47) 0.0 0. .
2201(47) 0.0 0. .
2106(46) 0.0 0. .
2110(46) 0.0 0. .
2146(46) 0.0 0. .
2000(45) 0.0 0. .
1968(44) 0.0 0. .
1911(44) 0.0 0. .
1900(44) 0.0 0. .
1919(44) 0.0 0. .
1917(44) 0.0 0. .
1780(42) 0.0 0. .
1847(43) 0.0 0. .
1767(42) 0.0 0. .
1735(42) 0.0 0. .
1761(42) 0.0 0. .
1680(41) 0.0 0. .
1660(41) 0.0 0. .
1638(40) 0.0 0. .
1579(40) 0.0 0. .
1595(40) 0.0 0. .
1486(39) 0.0 0. .
1553(39) 0.0 0. .
1460(38) 0.0 0. .
1402(37) 0.0 0. .
1435(38) 0.0 0. .
1432(38) 0.0 0. .
1346(37) 0.0 0. .
1331(36) 0.0 0. .
1368(37) 0.0 0. .
1308(36) 0.0 0. .
1309(36) 0.0 0. .
1258(35) 0.0 0. .
1342(37) 0.0 0. .
1284(36) 0.0 0. .
1208(35) 0.0 0.0 .
1270(36) 0.0 0. .
1239(35) 0.0 0. .
1206(35) 0.0 0.0 .
1277(36) 0.0 0. .
1287(36) 0.0 0. .
1266(36) 0.0 0. .
1249(35) 0.0 0. .
1256(35) 0.0 0. .
1266(36) 0.0 0. .
1248(35) 0.0 0. .
1173(34) 0.0 0.0 .
1159(34) 0.0 0.0 .
1153(34) 0.0 0.0 .
1082(33) 0.0 0.0 .
1074(33) 0.0 0.0 .
1097(33) 0.0 0.0 .
1059(33) 0.0 0.0 .
1035(32) 0.0 0.0 .
1051(32) 0.0 0.0 .
1003(32) 0.0 0.0 .
1018(32) 0.0 0.0 .
1069(33) 0.0 0.0 .
994(32) 0.0 0.0 .
971(31) 0.0 0.0 .
999(32) 0.0 0.0 .
996(32) 0.0 0.0 .
1000(32) 0.0 0.0 .
974(31) 0.0 0.0 .
945(31) 0.0 0.0 .
1040(32) 0.0 0.0 .
1026(32) 0.0 0.0 .
972(31) 0.0 0.0 .
1021(32) 0.0 0.0 .
968(31) 0.0 0.0 .
984(31) 0.0 0.0 .
966(31) 0.0 0.0 .
986(31) 0.0 0.0 .
987(31) 0.0 0.0 .
896(30) 0.0 0.0 .
928(30) 0.0 0.0 .
926(30) 0.0 0.0 .
887(30) 0.0 0.0 .
853(29) 0.0 0.0 .
870(29) 0.0 0.0 .
911(30) 0.0 0.0 .
877(30) 0.0 0.0 .
898(30) 0.0 0.0 .
881(30) 0.0 0.0 .
858(29) 0.0 0.0 .
838(29) 0.0 0.0 .
837(29) 0.0 0.0 .
813(29) 0.0 0.0 .
751(27) 0.0 0.0 .
782(28) 0.0 0.0 .
722(27) 0.0 0.0 .
795(28) 0.0 0.0 .
769(28) 0.0 0.0 .
727(27) 0.0 0.0 .
730(27) 0.0 0.0 .
746(27) 0.0 0.0 .
716(27) 0.0 0.0 .
689(26) 0.0 0.0 .
697(26) 0.0 0.0 .
740(27) 0.0 0.0 .
675(26) 0.0 0.0 .
657(26) 0.0 0.0 .
704(27) 0.0 0.0 .
703(27) 0.0 0.0 .
655(26) 0.0 0.0 .
661(26) 0.0 0.0 .
672(26) 0.0 0.0 .
668(26) 0.0 0.0 .
643(25) 0.0 0.0 .
610(25) 0.0 0.0 .
641(25) 0.0 0.0 .
584(24) 0.0 0.0 .
571(24) 0.0 0.0 .
649(25) 0.0 0.0 .
651(26) 0.0 0.0 .
636(25) 0.0 0.0 .
645(25) 0.0 0.0 .
570(24) 0.0 0.0 .
615(25) 0.0 0.0 .
627(25) 0.0 0.0 .
651(26) 0.0 0.0 .
654(26) 0.0 0.0 .
624(25) 0.0 0.0 .
668(26) 0.0 0.0 .
650(25) 0.0 0.0 .
646(25) 0.0 0.0 .
640(25) 0.0 0.0 .
607(25) 0.0 0.0 .
591(24) 0.0 0.0 .
554(24) 0.0 0.0 .
525(23) 0.0 0.0 .
510(23) 0.0 0.0 .
515(23) 0.0 0.0 .
514(23) 0.0 0.0 .
478(22) 0.0 0.0 .
440(21) 0.0 0.0 .
471(22) 0.0 0.0 .
440(21) 0.0 0.0 .
416(20) 0.0 0.0 .
429(21) 0.0 0.0 .
381(20) 0.0 0.0 .
400(20) 0.0 0.0 .
407(20) 0.0 0.0 .
364(19) 0.0 0.0 .
366(19) 0.0 0.0 .
355(19) 0.0 0.0 .
338(18) 0.0 0.0 .
359(19) 0.0 0.0 .
330(18) 0.0 0.0 .
345(19) 0.0 0.0 .
331(18) 0.0 0.0 .
318(18) 0.0 0.0 .
317(18) 0.0 0.0 .
290(17) 0.0 0.0 .
320(18) 0.0 0.0 .
301(17) 0.0 0.0 .
287(17) 0.0 0.0 .
276(17) 0.0 0.0 .
282(17) 0.0 0.0 .
241(16) 0.0 0.0 .
267(16) 0.0 0.0 .
273(17) 0.0 0.0 .
263(16) 0.0 0.0 .
263(16) 0.0 0.0 .
288(17) 0.0 0.0 .
265(16) 0.0 0.0 .
276(17) 0.0 0.0 .
259(16) 0.0 0.0 .
257(16) 0.0 0.0 .
258(16) 0.0 0.0 .
272(16) 0.0 0.0 .
277(17) 0.0 0.0 .
297(17) 0.0 0.0 .
316(18) 0.0 0.0 .
310(18) 0.0 0.0 .
296(17) 0.0 0.0 .
315(18) 0.0 0.0 .
350(19) 0.0 0.0 .
328(18) 0.0 0.0 .
338(18) 0.0 0.0 .
328(18) 0.0 0.0 .
315(18) 0.0 0.0 .
361(19) 0.0 0.0 .
297(17) 0.0 0.0 .
321(18) 0.0 0.0 .
277(17) 0.0 0.0 .
254(16) 0.0 0.0 .
274(17) 0.0 0.0 .
288(17) 0.0 0.0 .
268(16) 0.0 0.0 .
257(16) 0.0 0.0 .
258(16) 0.0 0.0 .
267(16) 0.0 0.0 .
263(16) 0.0 0.0 .
255(16) 0.0 0.0 .
234(15) 0.0 0.0 .
252(16) 0.0 0.0 .
236(15) 0.0 0.0 .
221(15) 0.0 0.0 .
227(15) 0.0 0.0 .
235(15) 0.0 0.0 .
242(16) 0.0 0.0 .
239(15) 0.0 0.0 .
240(15) 0.0 0.0 .
227(15) 0.0 0.0 .
259(16) 0.0 0.0 .
247(16) 0.0 0.0 .
218(15) 0.0 0.0 .
214(15) 0.0 0.0 .
213(15) 0.0 0.0 .
241(16) 0.0 0.0 .
198(14) 0.0 0.0 .
209(14) 0.0 0.0 .
202(14) 0.0 0.0 .
191(14) 0.0 0.0 .
188(14) 0.0 0.0 .
204(14) 0.0 0.0 .
189(14) 0.0 0.0 .
195(14) 0.0 0.0 .
167(13) 0.0 0.0 .
189(14) 0.0 0.0 .
183(14) 0.0 0.0 .
178(13) 0.0 0.0 .
165(13) 0.0 0.0 .
177(13) 0.0 0.0 .
174(13) 0.0 0.0 .
189(14) 0.0 0.0 .
168(13) 0.0 0.0 .
193(14) 0.0 0.0 .
165(13) 0.0 0.0 .
171(13) 0.0 0.0 .
175(13) 0.0 0.0 .
172(13) 0.0 0.0 .
163(13) 0.0 0.0 .
167(13) 0.0 0.0 .
170(13) 0.0 0.0 .
158(13) 0.0 0.0 .
173(13) 0.0 0.0 .
172(13) 0.0 0.0 .
183(14) 0.0 0.0 .
157(13) 0.0 0.0 .
148(12) 0.0 0.0 .
154(12) 0.0 0.0 .
168(13) 0.0 0.0 .
173(13) 0.0 0.0 .
168(13) 0.0 0.0 .
165(13) 0.0 0.0 .
168(13) 0.0 0.0 .
145(12) 0.0 0.0 .
175(13) 0.0 0.0 .
172(13) 0.0 0.0 .
157(13) 0.0 0.0 .
165(13) 0.0 0.0 .
164(13) 0.0 0.0 .
174(13) 0.0 0.0 .
162(13) 0.0 0.0 .
157(13) 0.0 0.0 .
173(13) 0.0 0.0 .
159(13) 0.0 0.0 .
153(12) 0.0 0.0 .
154(12) 0.0 0.0 .
158(13) 0.0 0.0 .
186(14) 0.0 0.0 .
163(13) 0.0 0.0 .
150(12) 0.0 0.0 .
158(13) 0.0 0.0 .
171(13) 0.0 0.0 .
148(12) 0.0 0.0 .
175(13) 0.0 0.0 .
153(12) 0.0 0.0 .
150(12) 0.0 0.0 .
161(13) 0.0 0.0 .
167(13) 0.0 0.0 .
143(12) 0.0 0.0 .
136(12) 0.0 0.0 .
164(13) 0.0 0.0 .
176(13) 0.0 0.0 .
176(13) 0.0 0.0 .
156(12) 0.0 0.0 .
157(13) 0.0 0.0 .
164(13) 0.0 0.0 .
172(13) 0.0 0.0 .
159(13) 0.0 0.0 .
135(12) 0.0 0.0 .
175(13) 0.0 0.0 .
144(12) 0.0 0.0 .
149(12) 0.0 0.0 .
157(13) 0.0 0.0 .
146(12) 0.0 0.0 .
151(12) 0.0 0.0 .
143(12) 0.0 0.0 .
158(13) 0.0 0.0 .
177(13) 0.0 0.0 .
148(12) 0.0 0.0 .
147(12) 0.0 0.0 .
162(13) 0.0 0.0 .
142(12) 0.0 0.0 .
156(12) 0.0 0.0 .
158(13) 0.0 0.0 .
157(13) 0.0 0.0 .
154(12) 0.0 0.0 .
168(13) 0.0 0.0 .
183(14) 0.0 0.0 .
151(12) 0.0 0.0 .
140(12) 0.0 0.0 .
152(12) 0.0 0.0 .
174(13) 0.0 0.0 .
161(13) 0.0 0.0 .
162(13) 0.0 0.0 .
147(12) 0.0 0.0 .
169(13) 0.0 0.0 .
176(13) 0.0 0.0 .
138(12) 0.0 0.0 .
155(12) 0.0 0.0 .
156(12) 0.0 0.0 .
155(12) 0.0 0.0 .
143(12) 0.0 0.0 .
151(12) 0.0 0.0 .
165(13) 0.0 0.0 .
144(12) 0.0 0.0 .
134(12) 0.0 0.0 .
156(12) 0.0 0.0 .
156(12) 0.0 0.0 .
162(13) 0.0 0.0 .
147(12) 0.0 0.0 .
178(13) 0.0 0.0 .
152(12) 0.0 0.0 .
167(13) 0.0 0.0 .
153(12) 0.0 0.0 .
170(13) 0.0 0.0 .
140(12) 0.0 0.0 .
154(12) 0.0 0.0 .
155(12) 0.0 0.0 .
163(13) 0.0 0.0 .
138(12) 0.0 0.0 .
154(12) 0.0 0.0 .
170(13) 0.0 0.0 .
147(12) 0.0 0.0 .
171(13) 0.0 0.0 .
161(13) 0.0 0.0 .
143(12) 0.0 0.0 .
166(13) 0.0 0.0 .
154(12) 0.0 0.0 .
164(13) 0.0 0.0 .
158(13) 0.0 0.0 .
135(12) 0.0 0.0 .
139(12) 0.0 0.0 .
153(12) 0.0 0.0 .
171(13) 0.0 0.0 .
175(13) 0.0 0.0 .
172(13) 0.0 0.0 .
160(13) 0.0 0.0 .
148(12) 0.0 0.0 .
157(13) 0.0 0.0 .
144(12) 0.0 0.0 .
146(12) 0.0 0.0 .
170(13) 0.0 0.0 .
145(12) 0.0 0.0 .
149(12) 0.0 0.0 .
144(12) 0.0 0.0 .
155(12) 0.0 0.0 .
145(12) 0.0 0.0 .
158(13) 0.0 0.0 .
162(13) 0.0 0.0 .
137(12) 0.0 0.0 .
138(12) 0.0 0.0 .
146(12) 0.0 0.0 .
166(13) 0.0 0.0 .
135(12) 0.0 0.0 .
144(12) 0.0 0.0 .
154(12) 0.0 0.0 .
153(12) 0.0 0.0 .
148(12) 0.0 0.0 .
140(12) 0.0 0.0 .
165(13) 0.0 0.0 .
173(13) 0.0 0.0 .
150(12) 0.0 0.0 .
165(13) 0.0 0.0 .
147(12) 0.0 0.0 .
163(13) 0.0 0.0 .
162(13) 0.0 0.0 .
142(12) 0.0 0.0 .
151(12) 0.0 0.0 .
140(12) 0.0 0.0 .
142(12) 0.0 0.0 .
144(12) 0.0 0.0 .
140(12) 0.0 0.0 .
162(13) 0.0 0.0 .
153(12) 0.0 0.0 .
158(13) 0.0 0.0 .
155(12) 0.0 0.0 .
151(12) 0.0 0.0 .
141(12) 0.0 0.0 .
172(13) 0.0 0.0 .
150(12) 0.0 0.0 .
149(12) 0.0 0.0 .
151(12) 0.0 0.0 .
148(12) 0.0 0.0 .
181(13) 0.0 0.0 .
169(13) 0.0 0.0 .
145(12) 0.0 0.0 .
190(14) 0.0 0.0 .
145(12) 0.0 0.0 .
148(12) 0.0 0.0 .
175(13) 0.0 0.0 .
164(13) 0.0 0.0 .
148(12) 0.0 0.0 .
172(13) 0.0 0.0 .
146(12) 0.0 0.0 .
147(12) 0.0 0.0 .
150(12) 0.0 0.0 .
164(13) 0.0 0.0 .
165(13) 0.0 0.0 .
148(12) 0.0 0.0 .
160(13) 0.0 0.0 .
164(13) 0.0 0.0 .
165(13) 0.0 0.0 .
179(13) 0.0 0.0 .
167(13) 0.0 0.0 .
167(13) 0.0 0.0 .
143(12) 0.0 0.0 .
166(13) 0.0 0.0 .
175(13) 0.0 0.0 .
165(13) 0.0 0.0 .
158(13) 0.0 0.0 .
178(13) 0.0 0.0 .
161(13) 0.0 0.0 .
154(12) 0.0 0.0 .
172(13) 0.0 0.0 .
170(13) 0.0 0.0 .
163(13) 0.0 0.0 .
160(13) 0.0 0.0 .
181(13) 0.0 0.0 .
166(13) 0.0 0.0 .
169(13) 0.0 0.0 .
174(13) 0.0 0.0 .
158(13) 0.0 0.0 .
167(13) 0.0 0.0 .
156(12) 0.0 0.0 .
154(12) 0.0 0.0 .
173(13) 0.0 0.0 .
178(13) 0.0 0.0 .
173(13) 0.0 0.0 .
180(13) 0.0 0.0 .
166(13) 0.0 0.0 .
164(13) 0.0 0.0 .
176(13) 0.0 0.0 .
172(13) 0.0 0.0 .
163(13) 0.0 0.0 .
175(13) 0.0 0.0 .
196(14) 0.0 0.0 .
178(13) 0.0 0.0 .
212(15) 0.0 0.0 .
196(14) 0.0 0.0 .
192(14) 0.0 0.0 .
198(14) 0.0 0.0 .
182(13) 0.0 0.0 .
173(13) 0.0 0.0 .
216(15) 0.0 0.0 .
210(14) 0.0 0.0 .
198(14) 0.0 0.0 .
199(14) 0.0 0.0 .
181(13) 0.0 0.0 .
206(14) 0.0 0.0 .
194(14) 0.0 0.0 .
206(14) 0.0 0.0 .
226(15) 0.0 0.0 .
202(14) 0.0 0.0 .
202(14) 0.0 0.0 .
217(15) 0.0 0.0 .
218(15) 0.0 0.0 .
222(15) 0.0 0.0 .
206(14) 0.0 0.0 .
245(16) 0.0 0.0 .
224(15) 0.0 0.0 .
232(15) 0.0 0.0 .
227(15) 0.0 0.0 .
242(16) 0.0 0.0 .
241(16) 0.0 0.0 .
242(16) 0.0 0.0 .
236(15) 0.0 0.0 .
249(16) 0.0 0.0 .
241(16) 0.0 0.0 .
243(16) 0.0 0.0 .
233(15) 0.0 0.0 .
245(16) 0.0 0.0 .
287(17) 0.0 0.0 .
279(17) 0.0 0.0 .
266(16) 0.0 0.0 .
269(16) 0.0 0.0 .
285(17) 0.0 0.0 .
286(17) 0.0 0.0 .
311(18) 0.0 0.0 .
287(17) 0.0 0.0 .
294(17) 0.0 0.0 .
338(18) 0.0 0.0 .
299(17) 0.0 0.0 .
311(18) 0.0 0.0 .
310(18) 0.0 0.0 .
384(20) 0.0 0.0 .
317(18) 0.0 0.0 .
359(19) 0.0 0.0 .
335(18) 0.0 0.0 .
360(19) 0.0 0.0 .
353(19) 0.0 0.0 .
372(19) 0.0 0.0 .
354(19) 0.0 0.0 .
368(19) 0.0 0.0 .
390(20) 0.0 0.0 .
393(20) 0.0 0.0 .
413(20) 0.0 0.0 .
424(21) 0.0 0.0 .
435(21) 0.0 0.0 .
404(20) 0.0 0.0 .
461(21) 0.0 0.0 .
444(21) 0.0 0.0 .
417(20) 0.0 0.0 .
476(22) 0.0 0.0 .
470(22) 0.0 0.0 .
511(23) 0.0 0.0 .
485(22) 0.0 0.0 .
535(23) 0.0 0.0 .
513(23) 0.0 0.0 .
578(24) 0.0 0.0 .
568(24) 0.0 0.0 .
569(24) 0.0 0.0 .
608(25) 0.0 0.0 .
659(26) 0.0 0.0 .
612(25) 0.0 0.0 .
585(24) 0.0 0.0 .
638(25) 0.0 0.0 .
704(27) 0.0 0.0 .
700(26) 0.0 0.0 .
751(27) 0.0 0.0 .
757(28) 0.0 0.0 .
773(28) 0.0 0.0 .
784(28) 0.0 0.0 .
810(28) 0.0 0.0 .
907(30) 0.0 0.0 .
964(31) 0.0 0.0 .
1003(32) 0.0 0.0 .
1030(32) 0.0 0.0 .
1092(33) 0.0 0.0 .
1165(34) 0.0 0.0 .
1275(36) 0.0 0. .
1291(36) 0.0 0. .
1461(38) 0.0 0. .
1528(39) 0.0 0. .
1741(42) 0.0 0. .
1930(44) 0.0 0. .
2170(47) 0.0 0. .
2417(49) 0.0 0. .
2648(51) 0.0 0. .
3055(55) 0.0 0. .
3432(59) 0.0 0. .
3720(61) 0.0 0. .
3977(63) 0.0 0. .
4217(65) 0.0 0. .
4427(67) 0.0 0. .
4884(70) 0.0 0. .
5125(72) 0.0 0. .
5648(75) 0.0 0. .
6156(78) 0.0 0. .
6729(82) 0.0 0. .
7652(87) 0.0 0. .
8817(94) 0.0 0. .
10100(100) 0.0 0. .
12120(110) 0.0 0. .
14460(120) 0.0 0. .
17690(130) 0.0 0. .
22420(150) 0.0 0. .
28870(170) 0.0 0. .
37490(190) 0.0 0. .
49940(220) 0.0 0. .
66280(260) 0.0 0. .
85990(290) 0.0 0. .
110870(330) 0.0 0. .
137750(370) 0.0 0. .
166650(410) 0.0 0. .
195400(440) 0.0 0. .
214080(460) 0.0 0. .
205970(450) 0.0 0. .
173060(420) 0.0 0. .
135220(370) 0.0 0. .
103640(320) 0.0 0. .
79560(280) 0.0 0. .
61100(250) 0.0 0. .
48390(220) 0.0 0. .
38320(200) 0.0 0. .
30580(180) 0.0 0. .
25130(160) 0.0 0. .
20510(140) 0.0 0. .
17140(130) 0.0 0. .
14510(120) 0.0 0. .
12310(110) 0.0 0. .
10510(100) 0.0 0. .
9150(96) 0.0 0. .
8030(90) 0.0 0. .
7061(84) 0.0 0. .
6156(78) 0.0 0. .
5600(75) 0.0 0. .
4909(70) 0.0 0. .
4411(66) 0.0 0. .
4028(63) 0.0 0. .
3712(61) 0.0 0. .
3391(58) 0.0 0. .
3205(57) 0.0 0. .
2842(53) 0.0 0. .
2688(52) 0.0 0. .
2537(50) 0.0 0. .
2319(48) 0.0 0. .
2238(47) 0.0 0. .
2167(47) 0.0 0. .
1918(44) 0.0 0. .
1839(43) 0.0 0. .
1722(41) 0.0 0. .
1566(40) 0.0 0. .
1534(39) 0.0 0. .
1524(39) 0.0 0. .
1467(38) 0.0 0. .
1354(37) 0.0 0. .
1303(36) 0.0 0. .
1231(35) 0.0 0. .
1163(34) 0.0 0.0 .
1171(34) 0.0 0.0 .
1147(34) 0.0 0.0 .
1121(33) 0.0 0.0 .
1064(33) 0.0 0.0 .
945(31) 0.0 0.0 .
936(31) 0.0 0.0 .
968(31) 0.0 0.0 .
934(31) 0.0 0.0 .
865(29) 0.0 0.0 .
896(30) 0.0 0.0 .
882(30) 0.0 0.0 .
882(30) 0.0 0.0 .
825(29) 0.0 0.0 .
802(28) 0.0 0.0 .
792(28) 0.0 0.0 .
742(27) 0.0 0.0 .
731(27) 0.0 0.0 .
746(27) 0.0 0.0 .
754(27) 0.0 0.0 .
691(26) 0.0 0.0 .
698(26) 0.0 0.0 .
627(25) 0.0 0.0 .
668(26) 0.0 0.0 .
622(25) 0.0 0.0 .
650(25) 0.0 0.0 .
677(26) 0.0 0.0 .
637(25) 0.0 0.0 .
626(25) 0.0 0.0 .
632(25) 0.0 0.0 .
591(24) 0.0 0.0 .
606(25) 0.0 0.0 .
614(25) 0.0 0.0 .
613(25) 0.0 0.0 .
618(25) 0.0 0.0 .
604(25) 0.0 0.0 .
568(24) 0.0 0.0 .
604(25) 0.0 0.0 .
603(25) 0.0 0.0 .
527(23) 0.0 0.0 .
565(24) 0.0 0.0 .
553(24) 0.0 0.0 .
594(24) 0.0 0.0 .
527(23) 0.0 0.0 .
560(24) 0.0 0.0 .
512(23) 0.0 0.0 .
552(23) 0.0 0.0 .
588(24) 0.0 0.0 .
549(23) 0.0 0.0 .
527(23) 0.0 0.0 .
588(24) 0.0 0.0 .
533(23) 0.0 0.0 .
542(23) 0.0 0.0 .
528(23) 0.0 0.0 .
528(23) 0.0 0.0 .
507(23) 0.0 0.0 .
557(24) 0.0 0.0 .
528(23) 0.0 0.0 .
519(23) 0.0 0.0 .
545(23) 0.0 0.0 .
523(23) 0.0 0.0 .
551(23) 0.0 0.0 .
578(24) 0.0 0.0 .
557(24) 0.0 0.0 .
603(25) 0.0 0.0 .
579(24) 0.0 0.0 .
613(25) 0.0 0.0 .
660(26) 0.0 0.0 .
592(24) 0.0 0.0 .
609(25) 0.0 0.0 .
667(26) 0.0 0.0 .
624(25) 0.0 0.0 .
659(26) 0.0 0.0 .
649(25) 0.0 0.0 .
658(26) 0.0 0.0 .
621(25) 0.0 0.0 .
639(25) 0.0 0.0 .
686(26) 0.0 0.0 .
673(26) 0.0 0.0 .
622(25) 0.0 0.0 .
593(24) 0.0 0.0 .
572(24) 0.0 0.0 .
614(25) 0.0 0.0 .
596(24) 0.0 0.0 .
561(24) 0.0 0.0 .
534(23) 0.0 0.0 .
523(23) 0.0 0.0 .
503(22) 0.0 0.0 .
503(22) 0.0 0.0 .
504(22) 0.0 0.0 .
455(21) 0.0 0.0 .
440(21) 0.0 0.0 .
428(21) 0.0 0.0 .
435(21) 0.0 0.0 .
374(19) 0.0 0.0 .
344(19) 0.0 0.0 .
368(19) 0.0 0.0 .
364(19) 0.0 0.0 .
360(19) 0.0 0.0 .
364(19) 0.0 0.0 .
345(19) 0.0 0.0 .
315(18) 0.0 0.0 .
320(18) 0.0 0.0 .
356(19) 0.0 0.0 .
307(18) 0.0 0.0 .
303(17) 0.0 0.0 .
292(17) 0.0 0.0 .
300(17) 0.0 0.0 .
276(17) 0.0 0.0 .
250(16) 0.0 0.0 .
287(17) 0.0 0.0 .
266(16) 0.0 0.0 .
262(16) 0.0 0.0 .
244(16) 0.0 0.0 .
255(16) 0.0 0.0 .
250(16) 0.0 0.0 .
243(16) 0.0 0.0 .
241(16) 0.0 0.0 .
254(16) 0.0 0.0 .
225(15) 0.0 0.0 .
245(16) 0.0 0.0 .
234(15) 0.0 0.0 .
234(15) 0.0 0.0 .
233(15) 0.0 0.0 .
233(15) 0.0 0.0 .
233(15) 0.0 0.0 .
238(15) 0.0 0.0 .
226(15) 0.00442 215.2 2.6
221(15) 0.00452 214.8 2.7
201(14) 0.00498 214.5 2.7
224(15) 0.00446 214.1 2.7
238(15) 0.00420 213.7 2.8
235(15) 0.00426 213.4 2.8
227(15) 0.00441 213.0 2.9
231(15) 0.00433 212.6 2.9
237(15) 0.00422 212.3 3.0
264(16) 0.00379 211.9 3.0
247(16) 0.00405 211.6 3.1
238(15) 0.00420 211.2 3.2
230(15) 0.00435 210.8 3.2
252(16) 0.00397 210.5 3.3
272(16) 0.00368 210.1 3.3
275(17) 0.00364 209.8 3.4
262(16) 0.00382 209.4 3.5
266(16) 0.00376 209.0 3.5
262(16) 0.00382 208.7 3.6
263(16) 0.00380 208.3 3.7
241(16) 0.00415 207.9 3.7
245(16) 0.00408 207.6 3.8
265(16) 0.00377 207.2 3.9
254(16) 0.00394 206.9 3.9
258(16) 0.00388 206.5 4.0
248(16) 0.00403 206.1 4.1
259(16) 0.00386 205.8 4.2
249(16) 0.00402 205.4 4.3
243(16) 0.00412 205.1 4.4
258(16) 0.00388 204.7 4.5
262(16) 0.00382 204.3 4.6
231(15) 0.00433 204.0 4.7
238(15) 0.00420 203.6 4.8
248(16) 0.00403 203.2 4.9
219(15) 0.00457 202.9 5.0
251(16) 0.00398 202.5 5.1
231(15) 0.00433 202.2 5.2
226(15) 0.00442 201.8 5.3
224(15) 0.00446 201.4 5.4
232(15) 0.00431 201.1 5.6
223(15) 0.00448 200.7 5.7
220(15) 0.00455 200.3 5.9
194(14) 0.00515 200.0 6.0
248(16) 0.00403 199.6 6.1
207(14) 0.00483 199.3 6.3
226(15) 0.00442 198.9 6.5
201(14) 0.00498 198.5 6.6
209(14) 0.00478 198.2 6.8
210(14) 0.00476 197.8 7.0
216(15) 0.00463 197.5 7.2
187(14) 0.00535 197.1 7.4
200(14) 0.00500 196.7 7.6
211(15) 0.00474 196.4 7.8
205(14) 0.00488 196.0 8.0
207(14) 0.00483 195.6 8.2
194(14) 0.00515 195.3 8.5
201(14) 0.00498 194.9 8.7
197(14) 0.00508 194.5 9.0
184(14) 0.00543 194.0 9.3
209(14) 0.00478 193.5 9.5
208(14) 0.00481 193.0 9.8
199(14) 0.00503 192.6 10.2
193(14) 0.00518 192.1 10.5
190(14) 0.00526 191.6 10.9
208(14) 0.00481 191.1 11.2
169(13) 0.00592 190.6 11.6
216(15) 0.00463 190.2 12.0
220(15) 0.00455 189.7 12.4
186(14) 0.00538 189.2 12.9
201(14) 0.00498 188.7 13.4
213(15) 0.00469 188.2 13.9
196(14) 0.00510 187.7 14.4
196(14) 0.00510 187.3 14.9
200(14) 0.00500 186.8 15.5
201(14) 0.00498 186.3 16.2
196(14) 0.00510 185.8 16.8
218(15) 0.00459 185.3 17.5
194(14) 0.00515 184.8 18.3
212(15) 0.00472 184.4 19.1
204(14) 0.00490 183.9 19.9
211(15) 0.00474 183.4 20.8
212(15) 0.00472 182.9 21.8
178(13) 0.00562 182.4 22.8
192(14) 0.00521 181.9 23.9
209(14) 0.00478 181.5 25.1
188(14) 0.00532 181.0 26.4
201(14) 0.00498 180.5 27.8
222(15) 0.00450 180.0 29.3
235(15) 0.00426 179.5 31.0
210(14) 0.00476 179.0 32.7
223(15) 0.00448 178.6 34.6
233(15) 0.00429 178.1 36.7
227(15) 0.00441 177.6 39.0
238(15) 0.00420 177.1 41.5
268(16) 0.00373 176.6 44.2
244(16) 0.00410 176.1 47.3
264(16) 0.00379 175.7 50.6
257(16) 0.00389 175.2 54.3
256(16) 0.00391 174.7 58.4
252(16) 0.00397 174.2 63.0
291(17) 0.003436 173.7 68.1
296(17) 0.003378 173.2 73.9
304(17) 0.003289 172.8 80.6
334(18) 0.002994 172.3 88.2
333(18) 0.003003 171.8 97.2
334(18) 0.002994 171.3 107.7
371(19) 0.002695 170.8 120.4
385(20) 0.002597 170.3 135.9
414(20) 0.002415 169.9 155.1
431(21) 0.002320 169.4 179.1
411(20) 0.002433 168.9 209.3
482(22) 0.002075 168.4 247.3
548(23) 0.001825 167.9 294.7
611(25) 0.001637 167.4 353.6
660(26) 0.001515 167.0 425.4
659(26) 0.001517 166.5 511.5
711(27) 0.001406 166.0 612.5
751(27) 0.001332 165.5 727.9
905(30) 0.001105 165.0 855.4
965(31) 0.001036 164.6 990.3
1066(33) 0.000938 164.1 1124.0
1108(33) 0.000903 163.6 1243.8
1154(34) 0.000867 163.1 1333.4
1206(35) 0.000829 162.6 1377.0
1303(36) 0.000767 162. 1366.
1208(35) 0.000828 161.7 1302.1
1093(33) 0.000915 161.2 1198.3
973(31) 0.001028 160.7 1071.1
862(29) 0.001160 160.2 935.6
786(28) 0.001272 159.7 802.9
624(25) 0.001603 159.2 679.9
599(24) 0.001669 158.8 570.2
486(22) 0.002058 158.3 475.1
458(21) 0.002183 157.8 394.9
429(21) 0.002331 157.3 328.5
388(20) 0.002577 156.8 274.4
371(19) 0.002695 156.3 231.0
357(19) 0.002801 155.9 196.3
327(18) 0.003058 155.4 168.8
317(18) 0.003155 154.9 146.9
342(18) 0.002924 154.4 129.3
331(18) 0.003021 153.9 115.0
307(18) 0.003257 153.4 103.3
286(17) 0.003497 153.0 93.4
309(18) 0.003236 152.5 85.0
296(17) 0.003378 152.0 77.8
263(16) 0.00380 151.5 71.5
270(16) 0.00370 151.0 66.0
269(16) 0.00372 150.5 61.1
272(16) 0.00368 150.1 56.7
249(16) 0.00402 149.6 52.8
293(17) 0.003413 149.1 49.2
235(15) 0.00426 148.6 46.0
252(16) 0.00397 148.1 43.1
239(15) 0.00418 147.6 40.5
250(16) 0.00400 147.2 38.1
230(15) 0.00435 146.7 35.9
265(16) 0.00377 146.2 33.9
231(15) 0.00433 145.7 32.0
228(15) 0.00439 145.2 30.3
197(14) 0.00508 144.7 28.7
227(15) 0.00441 144.3 27.3
202(14) 0.00495 143.8 25.9
203(14) 0.00493 143.3 24.7
226(15) 0.00442 142.8 23.5
198(14) 0.00505 142.3 22.4
204(14) 0.00490 141.8 21.4
201(14) 0.00498 141.4 20.5
201(14) 0.00498 140.9 19.6
186(14) 0.00538 140.4 18.8
209(14) 0.00478 139.9 18.0
180(13) 0.00556 139.4 17.2
170(13) 0.00588 139.0 16.6
168(13) 0.00595 138.5 15.9
158(13) 0.00633 138.0 15.3
161(13) 0.00621 137.5 14.7
170(13) 0.00588 137.0 14.2
149(12) 0.00671 136.5 13.7
160(13) 0.00625 136.1 13.2
155(12) 0.00645 135.6 12.7
158(13) 0.00633 135.1 12.3
162(13) 0.00617 134.6 11.9
139(12) 0.00719 134.1 11.5
145(12) 0.00690 133.6 11.1
136(12) 0.00735 133.2 10.8
137(12) 0.00730 132.7 10.4
144(12) 0.00694 132.2 10.1
143(12) 0.00699 131.7 9.8
162(13) 0.00617 131.2 9.5
147(12) 0.00680 130.7 9.2
124(11) 0.00806 130.3 8.9
143(12) 0.00699 129.8 8.7
148(12) 0.00676 129.3 8.4
124(11) 0.00806 128.8 8.2
121(11) 0.00826 128.3 8.0
150(12) 0.00667 127.8 7.8
109(10) 0.00917 127.4 7.5
132(11) 0.00758 126.9 7.3
139(12) 0.00719 126.4 7.2
136(12) 0.00735 125.9 7.0
134(12) 0.00746 125.4 6.8
121(11) 0.00826 124.9 6.6
121(11) 0.00826 124.5 6.5
107(10) 0.00935 124.0 6.3
142(12) 0.00704 123.5 6.1
135(12) 0.00741 123.0 6.0
123(11) 0.00813 122.5 5.9
101(10) 0.00990 122.0 5.7
141(12) 0.00709 121.6 5.6
137(12) 0.00730 121.1 5.5
115(11) 0.00870 120.6 5.3
118(11) 0.00847 120.1 5.2
108(10) 0.00926 119.6 5.1
110(10) 0.00909 119.1 5.0
117(11) 0.00855 118.7 4.9
111(11) 0.00901 118.2 4.8
106(10) 0.00943 117.7 4.7
120(11) 0.00833 117.2 4.6
121(11) 0.00826 116.7 4.5
106(10) 0.00943 116.2 4.4
125(11) 0.00800 115.8 4.3
115(11) 0.00870 115.3 4.2
115(11) 0.00870 114.8 4.1
102(10) 0.00980 114.3 4.1
121(11) 0.00826 113.8 4.0
114(11) 0.00877 113.4 3.9
126(11) 0.00794 112.9 3.8
115(11) 0.00870 112.4 3.8
119(11) 0.00840 111.9 3.7
108(10) 0.00926 111.4 3.6
102(10) 0.00980 110.9 3.6
101(10) 0.00990 110.5 3.5
108(10) 0.00926 110.0 3.4
95(10) 0.01053 109.5 3.4
108(10) 0.00926 109.0 3.3
103(10) 0.00971 108.5 3.3
110(10) 0.00909 108.0 3.2
110(10) 0.00909 107.6 3.2
131(11) 0.00763 107.1 3.1
118(11) 0.00847 106.6 3.1
103(10) 0.00971 106.1 3.0
109(10) 0.00917 105.6 3.0
105(10) 0.00952 105.1 2.9
108(10) 0.00926 105.1 2.9
106(10) 0.00943 105.1 2.8
106(10) 0.00943 105.1 2.8
116(11) 0.00862 105.1 2.7
111(11) 0.00901 105.1 2.7
108(10) 0.00926 105.1 2.6
88(9) 0.01136 105.0 2.6
99(10) 0.01010 105.0 2.6
108(10) 0.00926 105.0 2.5
104(10) 0.00962 105.0 2.5
99(10) 0.01010 105.0 2.5
115(11) 0.00870 105.0 2.4
104(10) 0.00962 105.0 2.4
120(11) 0.00833 105.0 2.4
115(11) 0.00870 104.9 2.3
128(11) 0.00781 104.9 2.3
100(10) 0.01000 104.9 2.3
94(10) 0.01064 104.9 2.2
106(10) 0.00943 104.9 2.2
115(11) 0.00870 104.9 2.2
119(11) 0.00840 104.9 2.1
105(10) 0.00952 104.8 2.1
106(10) 0.00943 104.8 2.1
123(11) 0.00813 104.8 2.1
105(10) 0.00952 104.8 2.0
99(10) 0.01010 104.8 2.0
99(10) 0.01010 104.8 2.0
98(10) 0.01020 104.8 2.0
102(10) 0.00980 104.8 1.9
114(11) 0.00877 104.7 1.9
102(10) 0.00980 104.7 1.9
121(11) 0.00826 104.7 1.9
105(10) 0.00952 104.7 1.8
123(11) 0.00813 104.7 1.8
96(10) 0.01042 104.7 1.8
108(10) 0.00926 104.7 1.8
97(10) 0.01031 104.7 1.8
105(10) 0.00952 104.6 1.7
99(10) 0.01010 104.6 1.7
111(11) 0.00901 104.6 1.7
110(10) 0.00909 104.6 1.7
105(10) 0.00952 104.6 1.7
102(10) 0.00980 104.6 1.7
96(10) 0.01042 104.6 1.6
118(11) 0.00847 104.5 1.6
105(10) 0.00952 104.5 1.6
102(10) 0.00980 104.5 1.6
106(10) 0.00943 104.5 1.6
109(10) 0.00917 104.5 1.6
118(11) 0.00847 104.5 1.5
111(11) 0.00901 104.5 1.5
98(10) 0.01020 104.5 1.5
120(11) 0.00833 104.4 1.5
110(10) 0.00909 104.4 1.5
90(9) 0.01111 104.4 1.5
88(9) 0.01136 104.4 1.5
108(10) 0.00926 104.4 1.4
100(10) 0.01000 104.4 1.4
129(11) 0.00775 104.4 1.4
117(11) 0.00855 104.3 1.4
107(10) 0.00935 104.3 1.4
103(10) 0.00971 104.3 1.4
94(10) 0.01064 104.3 1.4
98(10) 0.01020 104.3 1.4
98(10) 0.01020 104.3 1.3
107(10) 0.00935 104.3 1.3
97(10) 0.01031 104.3 1.3
106(10) 0.00943 104.2 1.3
125(11) 0.00800 104.2 1.3
88(9) 0.01136 104.2 1.3
120(11) 0.00833 104.2 1.3
121(11) 0.00826 104.2 1.3
110(10) 0.00909 104.2 1.3
101(10) 0.00990 104.2 1.3
111(11) 0.00901 104.2 1.2
94(10) 0.01064 104.1 1.2
82(9) 0.01220 104.1 1.2
108(10) 0.00926 104.1 1.2
106(10) 0.00943 104.1 1.2
95(10) 0.01053 104.1 1.2
92(10) 0.01087 104.1 1.2
106(10) 0.00943 104.1 1.2
122(11) 0.00820 104.0 1.2
111(11) 0.00901 104.0 1.2
114(11) 0.00877 104.0 1.2
106(10) 0.00943 104.0 1.2
104(10) 0.00962 104.0 1.2
114(11) 0.00877 104.0 1.2
97(10) 0.01031 104.0 1.1
101(10) 0.00990 104.0 1.1
113(11) 0.00885 103.9 1.1
97(10) 0.01031 103.9 1.1
106(10) 0.00943 103.9 1.1
94(10) 0.01064 103.9 1.1
113(11) 0.00885 103.9 1.1
105(10) 0.00952 103.9 1.1
102(10) 0.00980 103.9 1.1
117(11) 0.00855 103.8 1.1
101(10) 0.00990 103.8 1.1
97(10) 0.01031 103.8 1.1
114(11) 0.00877 103.8 1.1
109(10) 0.00917 103.8 1.1
86(9) 0.01163 103.8 1.1
100(10) 0.01000 103.8 1.1
118(11) 0.00847 103.8 1.1
104(10) 0.00962 103.7 1.1
103(10) 0.00971 103.7 1.1
93(10) 0.01075 103.7 1.1
109(10) 0.00917 103.7 1.1
102(10) 0.00980 103.7 1.1
87(9) 0.01149 103.7 1.1
89(9) 0.01124 103.7 1.1
110(10) 0.00909 103.6 1.1
108(10) 0.00926 103.6 1.1
102(10) 0.00980 103.6 1.1
93(10) 0.01075 103.6 1.1
123(11) 0.00813 103.6 1.1
104(10) 0.00962 103.6 1.1
91(10) 0.01099 103.6 1.1
92(10) 0.01087 103.6 1.1
102(10) 0.00980 103.5 1.1
112(11) 0.00893 103.5 1.1
94(10) 0.01064 103.5 1.1
106(10) 0.00943 103.5 1.1
113(11) 0.00885 103.5 1.1
91(10) 0.01099 103.5 1.1
88(9) 0.01136 103.5 1.1
86(9) 0.01163 103.5 1.1
94(10) 0.01064 103.4 1.1
89(9) 0.01124 103.4 1.1
107(10) 0.00935 103.4 1.1
102(10) 0.00980 103.4 1.1
119(11) 0.00840 103.4 1.1
91(10) 0.01099 103.4 1.1
97(10) 0.01031 103.4 1.1
98(10) 0.01020 103.3 1.1
110(10) 0.00909 103.3 1.1
97(10) 0.01031 103.3 1.1
98(10) 0.01020 103.3 1.1
107(10) 0.00935 103.3 1.1
107(10) 0.00935 103.3 1.1
100(10) 0.01000 103.3 1.1
123(11) 0.00813 103.3 1.1
111(11) 0.00901 103.2 1.2
118(11) 0.00847 103.2 1.2
99(10) 0.01010 103.2 1.2
100(10) 0.01000 103.2 1.2
99(10) 0.01010 103.2 1.2
107(10) 0.00935 103.2 1.2
114(11) 0.00877 103.2 1.2
105(10) 0.00952 103.1 1.2
114(11) 0.00877 103.1 1.2
104(10) 0.00962 103.1 1.3
91(10) 0.01099 103.1 1.3
107(10) 0.00935 103.1 1.3
105(10) 0.00952 103.1 1.3
95(10) 0.01053 103.1 1.3
91(10) 0.01099 103.1 1.3
101(10) 0.00990 103.0 1.4
110(10) 0.00909 103.0 1.4
107(10) 0.00935 103.0 1.4
102(10) 0.00980 103.0 1.4
100(10) 0.01000 103.0 0.9
101(10) 0.00990 103.0 1.0
108(10) 0.00926 103.0 1.0
94(10) 0.01064 102.9 1.0
98(10) 0.01020 102.9 1.0
99(10) 0.01010 102.9 1.1
122(11) 0.00820 102.9 1.1
91(10) 0.01099 102.9 1.1
104(10) 0.00962 102.9 1.2
99(10) 0.01010 102.9 1.2
112(11) 0.00893 102.9 1.3
116(11) 0.00862 102.8 1.3
97(10) 0.01031 102.8 1.3
96(10) 0.01042 102.8 1.4
98(10) 0.01020 102.8 1.4
97(10) 0.01031 102.8 1.5
117(11) 0.00855 102.8 1.5
104(10) 0.00962 102.8 1.6
91(10) 0.01099 102.8 1.7
117(11) 0.00855 102.7 1.7
93(10) 0.01075 102.7 1.8
92(10) 0.01087 102.7 1.9
113(11) 0.00885 102.7 1.9
115(11) 0.00870 102.7 2.0
93(10) 0.01075 102.7 2.1
100(10) 0.01000 102.7 2.2
104(10) 0.00962 102.6 2.3
104(10) 0.00962 102.6 2.4
116(11) 0.00862 102.6 2.5
110(10) 0.00909 102.6 2.6
118(11) 0.00847 102.6 2.7
92(10) 0.01087 102.6 2.9
107(10) 0.00935 102.6 3.0
96(10) 0.01042 102.6 3.2
121(11) 0.00826 102.5 3.3
113(11) 0.00885 102.7 3.5
108(10) 0.00926 102.9 3.7
131(11) 0.00763 103.1 3.9
122(11) 0.00820 103.3 4.2
112(11) 0.00893 103.5 4.5
105(10) 0.00952 103.6 4.8
107(10) 0.00935 103.8 5.1
114(11) 0.00877 104.0 5.5
107(10) 0.00935 104.2 6.0
104(10) 0.00962 104.4 6.5
112(11) 0.00893 104.5 7.1
103(10) 0.00971 104.7 7.8
111(11) 0.00901 104.9 8.6
122(11) 0.00820 105.1 9.5
128(11) 0.00781 105.3 10.6
124(11) 0.00806 105.5 11.8
115(11) 0.00870 105.6 13.1
120(11) 0.00833 105.8 14.6
118(11) 0.00847 106.0 16.3
134(12) 0.00746 106.2 18.2
108(10) 0.00926 106.4 20.3
121(11) 0.00826 106.6 22.6
103(10) 0.00971 106.7 25.2
118(11) 0.00847 106.9 27.9
124(11) 0.00806 107.1 30.7
128(11) 0.00781 107.3 33.8
134(12) 0.00746 107.5 36.9
108(10) 0.00926 107.6 40.1
125(11) 0.00800 107.8 43.3
129(11) 0.00775 108.0 46.5
134(12) 0.00746 108.2 49.4
123(11) 0.00813 108.4 52.0
132(11) 0.00758 108.6 54.1
125(11) 0.00800 108.7 55.7
112(11) 0.00893 108.9 56.6
135(12) 0.00741 109.1 56.8
140(12) 0.00714 109.3 56.2
120(11) 0.00833 109.5 54.9
116(11) 0.00862 109.7 53.0
128(11) 0.00781 109.8 50.6
123(11) 0.00813 110.0 47.8
122(11) 0.00820 110.2 44.8
126(11) 0.00794 110.4 41.6
111(11) 0.00901 110.6 38.4
112(11) 0.00893 110.7 35.2
100(10) 0.01000 110.9 32.1
113(11) 0.00885 111.1 29.1
133(12) 0.00752 111.3 26.4
122(11) 0.00820 111.5 23.8
139(12) 0.00719 111.7 21.4
128(11) 0.00781 111.8 19.2
117(11) 0.00855 112.0 17.2
125(11) 0.00800 112.2 15.4
127(11) 0.00787 112.4 13.8
128(11) 0.00781 112.6 12.4
109(10) 0.00917 112.8 11.1
113(11) 0.00885 112.9 10.0
115(11) 0.00870 113.1 9.0
114(11) 0.00877 113.3 8.2
114(11) 0.00877 113.5 7.4
119(11) 0.00840 113.7 6.8
113(11) 0.00885 113.9 6.2
107(10) 0.00935 114.0 5.7
120(11) 0.00833 114.2 5.3
120(11) 0.00833 114.4 4.9
94(10) 0.01064 114.6 4.6
113(11) 0.00885 114.8 4.3
107(10) 0.00935 114.9 4.0
119(11) 0.00840 115.1 3.8
124(11) 0.00806 115.3 3.6
109(10) 0.00917 115.5 3.4
115(11) 0.00870 115.7 3.2
111(11) 0.00901 115.9 3.1
116(11) 0.00862 116.0 2.9
125(11) 0.00800 116.2 2.8
126(11) 0.00794 116.4 2.7
130(11) 0.00769 116.6 2.5
113(11) 0.00885 116.8 2.4
115(11) 0.00870 117.0 2.3
103(10) 0.00971 117.1 9.9
122(11) 0.00820 117.3 9.9
112(11) 0.00893 117.5 9.9
105(10) 0.00952 117.7 9.9
117(11) 0.00855 117.9 10.0
107(10) 0.00935 118.0 10.0
107(10) 0.00935 118.2 10.0
113(11) 0.00885 118.4 10.0
106(10) 0.00943 118.6 10.1
119(11) 0.00840 118.8 10.1
115(11) 0.00870 119.0 10.2
111(11) 0.00901 119.1 10.2
124(11) 0.00806 119.3 10.3
123(11) 0.00813 119.5 10.4
122(11) 0.00820 119.7 10.4
130(11) 0.00769 119.9 10.5
121(11) 0.00826 120.1 10.6
136(12) 0.00735 120.2 10.6
115(11) 0.00870 120.4 10.7
109(10) 0.00917 120.6 10.8
120(11) 0.00833 120.8 10.9
125(11) 0.00800 121.0 11.0
139(12) 0.00719 121.1 11.1
123(11) 0.00813 121.3 11.2
120(11) 0.00833 121.5 11.3
126(11) 0.00794 121.7 11.4
137(12) 0.00730 121.9 11.5
118(11) 0.00847 122.1 11.7
104(10) 0.00962 122.2 11.8
122(11) 0.00820 122.4 11.9
133(12) 0.00752 122.6 12.0
116(11) 0.00862 122.8 12.2
141(12) 0.00709 123.0 12.3
116(11) 0.00862 123.2 12.4
112(11) 0.00893 123.3 12.6
114(11) 0.00877 123.5 12.7
133(12) 0.00752 123.7 12.9
125(11) 0.00800 123.9 13.1
110(10) 0.00909 124.1 13.2
123(11) 0.00813 124.3 13.4
126(11) 0.00794 124.4 13.6
127(11) 0.00787 124.6 13.7
119(11) 0.00840 124.8 13.9
126(11) 0.00794 125.0 14.1
122(11) 0.00820 125.2 14.3
129(11) 0.00775 125.3 14.5
122(11) 0.00820 125.5 14.7
148(12) 0.00676 125.7 14.9
140(12) 0.00714 125.9 15.1
146(12) 0.00685 126.1 15.3
158(13) 0.00633 126.3 15.6
172(13) 0.00581 126.4 15.8
147(12) 0.00680 126.6 16.0
158(13) 0.00633 126.8 16.3
150(12) 0.00667 127.0 16.5
156(12) 0.00641 127.2 16.8
144(12) 0.00694 127.4 17.0
146(12) 0.00685 127.5 17.3
148(12) 0.00676 127.7 17.6
126(11) 0.00794 127.9 17.9
134(12) 0.00746 128.1 18.2
147(12) 0.00680 128.3 18.5
158(13) 0.00633 128.4 18.8
143(12) 0.00699 128.6 19.1
148(12) 0.00676 128.8 19.4
147(12) 0.00680 129.0 19.8
140(12) 0.00714 129.2 20.1
137(12) 0.00730 129.4 20.5
138(12) 0.00725 129.5 20.8
117(11) 0.00855 129.7 21.2
135(12) 0.00741 129.9 21.6
159(13) 0.00629 130.1 22.0
157(13) 0.00637 130.3 22.4
142(12) 0.00704 130.5 22.8
136(12) 0.00735 130.6 23.3
135(12) 0.00741 130.8 23.7
147(12) 0.00680 131.0 24.2
151(12) 0.00662 131.2 24.6
152(12) 0.00658 131.4 25.1
139(12) 0.00719 131.5 25.6
141(12) 0.00709 131.7 26.2
135(12) 0.00741 131.9 26.7
145(12) 0.00690 132.1 27.3
123(11) 0.00813 132.3 27.8
120(11) 0.00833 132.5 28.4
136(12) 0.00735 132.6 29.1
144(12) 0.00694 132.8 29.7
145(12) 0.00690 133.0 30.4
140(12) 0.00714 133.2 31.0
156(12) 0.00641 133.4 31.7
137(12) 0.00730 133.6 32.5
128(11) 0.00781 133.7 33.2
140(12) 0.00714 133.9 34.0
140(12) 0.00714 134.1 34.8
132(11) 0.00758 134.3 35.7
125(11) 0.00800 134.5 36.5
139(12) 0.00719 134.6 37.4
158(13) 0.00633 134.8 38.4
158(13) 0.00633 135.0 39.4
139(12) 0.00719 135.1 40.4
130(11) 0.00769 135.2 41.4
145(12) 0.00690 135.3 42.5
129(11) 0.00775 135.4 43.7
147(12) 0.00680 135.5 44.9
140(12) 0.00714 135.6 46.1
152(12) 0.00658 135.7 47.4
154(12) 0.00649 135.9 48.7
131(11) 0.00763 136.0 50.2
144(12) 0.00694 136.1 51.6
135(12) 0.00741 136.2 53.2
148(12) 0.00676 136.3 54.8
158(13) 0.00633 136.4 56.4
160(13) 0.00625 136.5 58.2
161(13) 0.00621 136.6 60.0
155(12) 0.00645 136.7 62.0
158(13) 0.00633 136.8 64.0
162(13) 0.00617 136.9 66.1
168(13) 0.00595 137.0 68.4
169(13) 0.00592 137.1 70.7
161(13) 0.00621 137.2 73.2
171(13) 0.00585 137.3 75.8
158(13) 0.00633 137.4 78.6
164(13) 0.00610 137.5 81.5
179(13) 0.00559 137.6 84.5
179(13) 0.00559 137.7 87.8
195(14) 0.00513 137.8 91.2
180(13) 0.00556 137.9 94.9
175(13) 0.00571 138.0 98.7
219(15) 0.00457 138.1 102.8
212(15) 0.00472 138.2 107.2
193(14) 0.00518 138.3 111.9
213(15) 0.00469 138.4 116.8
203(14) 0.00493 138.5 122.1
212(15) 0.00472 138.6 127.8
216(15) 0.00463 138.7 133.9
204(14) 0.00490 138.8 140.4
228(15) 0.00439 138.9 147.4
218(15) 0.00459 139.0 154.9
253(16) 0.00395 139.1 163.1
248(16) 0.00403 139.2 171.9
269(16) 0.00372 139.3 181.4
266(16) 0.00376 139.4 191.7
252(16) 0.00397 139.5 202.9
280(17) 0.00357 139.6 215.2
296(17) 0.003378 139.7 228.6
295(17) 0.003390 139.8 243.3
279(17) 0.00358 139.9 259.4
281(17) 0.00356 140.0 277.1
335(18) 0.002985 140.1 296.8
378(19) 0.002646 140.2 318.6
363(19) 0.002755 140.3 342.9
400(20) 0.002500 140.4 370.0
441(21) 0.002268 140.5 400.5
442(21) 0.002262 140.6 434.8
486(22) 0.002058 140.7 473.7
512(23) 0.001953 140.8 518.0
568(24) 0.001761 140.9 568.7
633(25) 0.001580 141.1 627.2
655(26) 0.001527 141.2 695.0
785(28) 0.001274 141.3 774.2
868(29) 0.001152 141.4 867.5
916(30) 0.001092 141.5 978.5
1078(33) 0.000928 141.6 1111.8
1317(36) 0.000759 142. 1275.
1417(38) 0.000706 142. 1478.
1765(42) 0.000567 142. 1738.
2158(46) 0.000463 142. 2083.
2639(51) 0.000379 142. 2558.
3340(58) 0.0002994 142. 3229.
4251(65) 0.0002352 142. 4191.
5684(75) 0.0001759 142. 5555.
7554(87) 0.0001324 142. 7437.
10530(100) 0.0000949 143. 9916.
13820(120) 0.0000724 143. 12967.
17470(130) 0.0000572 143. 16322.
20440(140) 0.0000489 143. 19270.
21340(150) 0.0000469 143. 20692.
19480(140) 0.0000513 143. 19851.
16350(130) 0.0000612 143. 17199.
13270(120) 0.0000753 143. 13862.
10780(100) 0.0000927 143. 10688.
8545(92) 0.0001170 143. 8045.
6794(82) 0.0001472 144. 6007.
5562(75) 0.0001798 144. 4514.
4526(67) 0.0002209 144. 3455.
3691(61) 0.0002709 144. 2716.
3137(56) 0.0003188 144. 2196.
2624(51) 0.000381 144. 1821.
2226(47) 0.000449 144. 1541.
1796(42) 0.000557 144. 1325.
1614(40) 0.000620 144. 1152.
1436(38) 0.000696 145. 1012.
1287(36) 0.000777 145. 895.
1122(33) 0.000891 144.7 797.8
1009(32) 0.000991 144.8 715.1
858(29) 0.001166 144.9 644.4
812(28) 0.001232 145.0 583.6
741(27) 0.001350 145.1 531.0
723(27) 0.001383 145.2 485.0
613(25) 0.001631 145.3 444.8
609(25) 0.001642 145.4 409.3
508(23) 0.001968 145.5 377.8
515(23) 0.001942 145.6 349.8
525(23) 0.001905 145.7 324.8
453(21) 0.002208 145.8 302.4
447(21) 0.002237 145.9 282.2
399(20) 0.002506 146.0 263.9
384(20) 0.002604 146.2 247.4
379(19) 0.002639 146.3 232.3
355(19) 0.002817 146.4 218.6
333(18) 0.003003 146.5 206.1
343(19) 0.002915 146.6 194.6
339(18) 0.002950 146.7 184.0
328(18) 0.003049 146.8 174.3
314(18) 0.003185 146.9 165.3
314(18) 0.003185 147.0 157.0
302(17) 0.003311 147.1 149.3
309(18) 0.003236 147.2 142.2
286(17) 0.003497 147.3 135.5
288(17) 0.003472 147.4 129.3
278(17) 0.00360 147.5 123.5
270(16) 0.00370 147.6 118.1
267(16) 0.00375 147.7 113.1
259(16) 0.00386 147.8 108.3
255(16) 0.00392 147.9 103.9
261(16) 0.00383 148.0 100.1
232(15) 0.00431 148.1 96.2
252(16) 0.00397 148.2 92.5
238(15) 0.00420 148.3 89.0
264(16) 0.00379 148.4 85.7
266(16) 0.00376 148.5 82.6
229(15) 0.00437 148.6 79.6
240(15) 0.00417 148.7 76.8
251(16) 0.00398 148.8 74.2
257(16) 0.00389 148.9 71.7
245(16) 0.00408 149.0 69.3
257(16) 0.00389 149.1 67.0
241(16) 0.00415 149.2 64.8
268(16) 0.00373 149.3 62.8
233(15) 0.00429 149.4 60.8
213(15) 0.00469 149.5 71.1
222(15) 0.00450 149.6 69.4
220(15) 0.00455 149.7 67.8
232(15) 0.00431 149.8 66.3
249(16) 0.00402 149.9 64.8
231(15) 0.00433 150.0 63.5
235(15) 0.00426 150.1 62.2
231(15) 0.00433 150.2 60.9
247(16) 0.00405 150.3 59.7
230(15) 0.00435 150.4 58.6
243(16) 0.00412 150.5 57.5
230(15) 0.00435 150.6 56.5
204(14) 0.00490 150.7 55.5
230(15) 0.00435 150.8 54.6
245(16) 0.00408 150.9 53.7
209(14) 0.00478 151.0 52.8
206(14) 0.00485 151.1 52.0
211(15) 0.00474 151.3 51.2
234(15) 0.00427 151.4 50.5
227(15) 0.00441 151.5 49.7
194(14) 0.00515 151.6 49.1
194(14) 0.00515 151.7 48.4
219(15) 0.00457 151.8 47.8
218(15) 0.00459 151.9 47.2
199(14) 0.00503 152.0 46.6
199(14) 0.00503 152.1 46.1
192(14) 0.00521 152.2 45.6
185(14) 0.00541 152.3 45.1
192(14) 0.00521 152.4 44.6
158(13) 0.00633 152.5 44.2
173(13) 0.00578 152.6 43.8
169(13) 0.00592 152.7 43.4
179(13) 0.00559 152.8 43.0
177(13) 0.00565 152.9 42.6
201(14) 0.00498 153.0 42.3
183(14) 0.00546 153.1 42.0
174(13) 0.00575 153.2 41.7
170(13) 0.00588 153.3 41.4
160(13) 0.00625 153.4 41.1
193(14) 0.00518 153.5 40.9
169(13) 0.00592 153.6 40.6
171(13) 0.00585 153.7 40.4
179(13) 0.00559 153.8 40.2
179(13) 0.00559 153.9 40.0
173(13) 0.00578 154.0 39.8
169(13) 0.00592 154.1 39.7
178(13) 0.00562 154.2 39.5
192(14) 0.00521 154.3 39.4
184(14) 0.00543 154.4 39.2
165(13) 0.00606 154.5 39.1
168(13) 0.00595 154.6 39.0
159(13) 0.00629 154.7 38.9
157(13) 0.00637 154.8 38.9
177(13) 0.00565 154.9 38.8
170(13) 0.00588 155.0 38.8
157(13) 0.00637 155.1 38.7
173(13) 0.00578 155.2 38.7
170(13) 0.00588 155.3 38.7
153(12) 0.00654 155.4 38.7
170(13) 0.00588 155.5 38.7
184(14) 0.00543 155.6 38.7
182(13) 0.00549 155.7 38.7
144(12) 0.00694 155.8 38.8
151(12) 0.00662 155.9 38.8
170(13) 0.00588 156.0 38.9
149(12) 0.00671 156.1 39.0
127(11) 0.00787 156.2 39.0
192(14) 0.00521 156.3 39.1
160(13) 0.00625 156.5 39.2
166(13) 0.00602 156.6 39.4
162(13) 0.00617 156.7 39.5
162(13) 0.00617 157.0 39.6
157(13) 0.00637 157.2 39.8
162(13) 0.00617 157.5 39.9
160(13) 0.00625 157.8 40.1
168(13) 0.00595 158.1 40.3
170(13) 0.00588 158.3 40.5
166(13) 0.00602 158.6 40.7
177(13) 0.00565 158.9 40.9
142(12) 0.00704 159.2 41.1
171(13) 0.00585 159.4 41.4
161(13) 0.00621 159.7 41.6
155(12) 0.00645 160.0 41.9
153(12) 0.00654 160.3 42.1
171(13) 0.00585 160.5 42.4
157(13) 0.00637 160.8 42.7
182(13) 0.00549 161.1 43.0
157(13) 0.00637 161.4 43.3
161(13) 0.00621 161.6 43.7
175(13) 0.00571 161.9 44.0
178(13) 0.00562 162.2 44.4
175(13) 0.00571 162.5 44.8
171(13) 0.00585 162.7 45.2
173(13) 0.00578 163.0 45.6
159(13) 0.00629 163.3 46.0
173(13) 0.00578 163.6 46.4
174(13) 0.00575 163.8 46.8
164(13) 0.00610 164.1 47.3
173(13) 0.00578 164.4 47.8
172(13) 0.00581 164.7 48.3
168(13) 0.00595 164.9 48.8
172(13) 0.00581 165.2 49.3
171(13) 0.00585 165.5 49.9
181(13) 0.00552 165.8 50.4
173(13) 0.00578 166.0 51.0
192(14) 0.00521 166.3 51.6
151(12) 0.00662 166.6 52.2
159(13) 0.00629 166.9 52.8
188(14) 0.00532 167.1 53.5
187(14) 0.00535 167.4 54.2
177(13) 0.00565 167.7 54.9
183(14) 0.00546 168.0 55.6
194(14) 0.00515 168.2 56.3
204(14) 0.00490 168.5 57.1
177(13) 0.00565 168.8 57.9
169(13) 0.00592 169.1 58.7
212(15) 0.00472 169.3 59.5
203(14) 0.00493 169.6 60.4
195(14) 0.00513 169.9 61.3
193(14) 0.00518 170.2 62.2
201(14) 0.00498 170.4 63.2
196(14) 0.00510 170.7 64.2
214(15) 0.00467 171.0 65.2
218(15) 0.00459 171.3 66.2
203(14) 0.00493 171.5 67.3
181(13) 0.00552 171.8 68.4
219(15) 0.00457 172.1 69.6
228(15) 0.00439 172.4 70.8
208(14) 0.00481 172.6 72.0
228(15) 0.00439 172.9 66.8
205(14) 0.00488 173.2 68.2
223(15) 0.00448 173.5 69.6
227(15) 0.00441 173.7 71.1
236(15) 0.00424 174.0 72.6
220(15) 0.00455 174.3 74.2
248(16) 0.00403 174.6 75.8
254(16) 0.00394 174.8 77.5
226(15) 0.00442 175.1 79.2
240(15) 0.00417 175.4 81.0
230(15) 0.00435 175.7 82.8
246(16) 0.00407 175.9 84.8
217(15) 0.00461 176.2 86.7
275(17) 0.00364 176.5 88.8
252(16) 0.00397 176.8 90.9
257(16) 0.00389 177.0 93.1
242(16) 0.00413 177.3 95.4
280(17) 0.00357 177.6 97.7
272(16) 0.00368 177.9 100.2
262(16) 0.00382 178.1 102.7
259(16) 0.00386 178.4 105.4
285(17) 0.00351 178.7 108.1
282(17) 0.00355 179.0 111.0
269(16) 0.00372 179.2 114.0
303(17) 0.003300 179.5 117.1
318(18) 0.003145 179.8 120.3
320(18) 0.003125 180.1 123.6
348(19) 0.002874 180.3 127.1
307(18) 0.003257 180.6 130.8
333(18) 0.003003 180.9 134.6
313(18) 0.003195 181.2 138.6
324(18) 0.003086 181.4 142.7
325(18) 0.003077 181.7 147.1
344(19) 0.002907 182.0 151.6
331(18) 0.003021 182.3 156.4
335(18) 0.002985 182.5 161.4
384(20) 0.002604 182.8 166.6
394(20) 0.002538 183.1 172.1
347(19) 0.002882 183.4 177.9
381(20) 0.002625 183.6 184.0
412(20) 0.002427 183.9 190.3
385(20) 0.002597 184.2 197.1
447(21) 0.002237 184.5 204.1
466(22) 0.002146 184.7 211.6
502(22) 0.001992 185.0 219.5
497(22) 0.002012 185.3 227.8
523(23) 0.001912 185.6 236.7
512(23) 0.001953 185.8 246.0
502(22) 0.001992 186.1 255.9
483(22) 0.002070 186.4 266.4
509(23) 0.001965 186.7 277.6
508(23) 0.001968 186.9 289.5
515(23) 0.001942 187.2 302.1
505(22) 0.001980 187.5 315.6
513(23) 0.001949 187.8 330.1
540(23) 0.001852 188.0 345.5
526(23) 0.001901 188.3 362.1
514(23) 0.001946 188.6 379.9
526(23) 0.001901 188.9 399.0
533(23) 0.001876 189.1 419.5
557(24) 0.001795 189.4 441.7
620(25) 0.001613 189.7 465.7
577(24) 0.001733 190.0 491.7
574(24) 0.001742 190.2 520.0
615(25) 0.001626 190.5 550.7
655(26) 0.001527 190.8 584.2
717(27) 0.001395 191.1 620.8
691(26) 0.001447 191.3 660.9
727(27) 0.001376 191.6 705.1
781(28) 0.001280 191.9 753.7
776(28) 0.001289 192.2 807.5
868(29) 0.001152 192.4 867.2
904(30) 0.001106 192.7 933.7
970(31) 0.001031 193.0 1008.0
993(32) 0.001007 193.3 1091.4
1142(34) 0.000876 193.5 1185.4
1223(35) 0.000818 193.8 1292.1
1321(36) 0.000757 194. 1414.
1539(39) 0.000650 194. 1554.
1684(41) 0.000594 195. 1717.
1907(44) 0.000524 195. 1910.
2123(46) 0.000471 195. 2140.
2389(49) 0.000419 195. 2423.
2784(53) 0.000359 196. 2775.
3207(57) 0.0003118 196. 3223.
3758(61) 0.0002661 196. 3801.
4308(66) 0.0002321 197. 4552.
5248(72) 0.0001905 197. 5527.
6426(80) 0.0001556 197. 6782.
8065(90) 0.0001240 197. 8371.
10270(100) 0.0000974 198. 10341.
13080(110) 0.0000764 198. 12715.
16590(130) 0.0000603 198. 15478.
21190(150) 0.0000472 198. 18549.
25600(160) 0.0000391 199. 21741.
29160(170) 0.0000343 199. 24717.
30300(170) 0.0000330 199. 26987.
29910(170) 0.0000334 200. 28038.
27340(170) 0.0000366 200. 27584.
24250(160) 0.0000412 200. 25753.
20790(140) 0.0000481 200. 23000.
18060(130) 0.0000554 201. 19846.
15410(120) 0.0000649 201. 16698.
13250(120) 0.0000755 201. 13798.
11370(110) 0.0000880 202. 11264.
9683(98) 0.0001033 202. 9135.
8530(92) 0.0001172 202. 7398.
7224(85) 0.0001384 202. 6017.
6516(81) 0.0001535 203. 4938.
5595(75) 0.0001787 203. 4106.
4949(70) 0.0002021 203. 3466.
4399(66) 0.0002273 203. 2973.
4028(63) 0.0002483 204. 2589.
3592(60) 0.0002784 204. 2284.
3245(57) 0.0003082 204. 2038.
2896(54) 0.0003453 205. 1835.
2582(51) 0.000387 205. 1666.
2418(49) 0.000414 205. 1522.
2146(46) 0.000466 205. 1399.
1954(44) 0.000512 206. 1294.
1856(43) 0.000539 206. 1203.
1697(41) 0.000589 206. 1125.
1564(40) 0.000639 206. 1059.
1450(38) 0.000690 207. 1003.
1413(38) 0.000708 207. 959.
1390(37) 0.000719 207. 925.
1329(36) 0.000752 208. 902.
1237(35) 0.000808 208. 890.
1227(35) 0.000815 208.1 890.2
1222(35) 0.000818 208.4 902.6
1243(35) 0.000805 209. 928.
1197(35) 0.000835 208.9 965.5
1208(35) 0.000828 209.2 1015.1
1195(35) 0.000837 209.5 1074.8
1295(36) 0.000772 210. 1141.
1260(35) 0.000794 210. 1208.
1379(37) 0.000725 210. 1269.
1413(38) 0.000708 211. 1311.
1552(39) 0.000644 211. 1327.
1494(39) 0.000669 211. 1308.
1432(38) 0.000698 211. 1255.
1328(36) 0.000753 212. 1175.
1258(35) 0.000795 212. 1079.
1117(33) 0.000895 212.2 975.3
977(31) 0.001024 212.5 872.6
884(30) 0.001131 212.8 775.7
776(28) 0.001289 213.0 687.5
709(27) 0.001410 213.3 609.2
633(25) 0.001580 213.6 541.2
605(25) 0.001653 213.9 483.0
516(23) 0.001938 214.1 434.0
500(22) 0.002000 214.4 392.9
498(22) 0.002008 214.7 358.7
449(21) 0.002227 215.0 330.3
446(21) 0.002242 215.2 306.4
430(21) 0.002326 215.5 286.3
391(20) 0.002558 215.8 269.0
372(19) 0.002688 216.1 254.1
374(19) 0.002674 216.3 241.1
344(19) 0.002907 216.6 229.4
365(19) 0.002740 216.9 219.0
345(19) 0.002899 217.2 209.5
326(18) 0.003067 217.4 200.8
343(19) 0.002915 217.7 192.8
349(19) 0.002865 218.0 185.4
324(18) 0.003086 218.3 178.5
360(19) 0.002778 218.5 172.1
306(17) 0.003268 218.8 166.1
321(18) 0.003115 219.1 160.5
289(17) 0.003460 219.4 155.2
321(18) 0.003115 219.6 150.3
288(17) 0.003472 219.9 145.6
280(17) 0.00357 220.2 141.2
292(17) 0.003425 220.5 137.1
281(17) 0.00356 220.7 133.1
270(16) 0.00370 221.0 129.4
283(17) 0.00353 221.3 125.9
290(17) 0.003448 221.6 122.5
263(16) 0.00380 221.8 119.3
270(16) 0.00370 222.1 116.3
254(16) 0.00394 222.4 113.4
280(17) 0.00357 222.7 110.6
258(16) 0.00388 222.9 108.0
272(16) 0.00368 223.2 105.4
245(16) 0.00408 223.5 103.0
205(14) 0.00488 223.8 100.8
245(16) 0.00408 224.0 98.6
252(16) 0.00397 224.3 96.5
265(16) 0.00377 224.6 94.5
265(16) 0.00377 224.9 92.5
227(15) 0.00441 225.1 90.7
246(16) 0.00407 225.4 88.9
247(16) 0.00405 225.7 87.3
249(16) 0.00402 226.0 85.6
231(15) 0.00433 226.2 84.1
227(15) 0.00441 226.5 82.6
243(16) 0.00412 226.8 81.3
252(16) 0.00397 227.1 79.9
222(15) 0.00450 227.3 78.6
216(15) 0.00463 227.6 77.4
263(16) 0.00380 227.8 76.2
248(16) 0.00403 227.7 75.1
221(15) 0.00452 227.6 74.0
220(15) 0.00455 227.4 73.0
224(15) 0.00446 227.3 72.0
218(15) 0.00459 227.2 71.1
233(15) 0.00429 227.1 70.2
223(15) 0.00448 227.0 69.4
223(15) 0.00448 226.9 68.6
241(16) 0.00415 226.7 67.8
243(16) 0.00412 226.6 67.1
242(16) 0.00413 226.5 66.5
234(15) 0.00427 226.4 65.9
273(17) 0.00366 226.3 65.3
275(17) 0.00364 226.2 64.8
307(18) 0.003257 226.1 64.3
366(19) 0.002732 225.9 63.9
386(20) 0.002591 225.8 63.5
347(19) 0.002882 225.7 63.2
314(18) 0.003185 225.6 62.9
281(17) 0.00356 225.5 62.7
277(17) 0.00361 225.4 62.5
225(15) 0.00444 225.2 62.3
234(15) 0.00427 225.1 62.3
254(16) 0.00394 225.0 62.2
219(15) 0.00457 224.9 62.3
226(15) 0.00442 224.8 62.4
229(15) 0.00437 224.7 62.5
218(15) 0.00459 224.5 62.7
241(16) 0.00415 224.4 63.0
235(15) 0.00426 224.3 63.4
238(15) 0.00420 224.2 63.9
254(16) 0.00394 224.1 64.4
249(16) 0.00402 224.0 65.1
240(15) 0.00417 223.8 65.9
237(15) 0.00422 223.7 66.7
256(16) 0.00391 223.6 67.7
234(15) 0.00427 223.5 68.9
240(15) 0.00417 223.4 70.1
253(16) 0.00395 223.3 71.6
255(16) 0.00392 223.1 73.2
255(16) 0.00392 223.0 75.1
240(15) 0.00417 222.9 77.1
267(16) 0.00375 222.8 79.5
261(16) 0.00383 222.7 82.1
231(15) 0.00433 222.6 85.0
243(16) 0.00412 222.5 88.4
296(17) 0.003378 222.3 92.2
279(17) 0.00358 222.2 96.4
282(17) 0.00355 222.1 101.3
275(17) 0.00364 222.0 106.9
297(17) 0.003367 221.9 113.2
335(18) 0.002985 221.8 120.5
306(17) 0.003268 221.6 129.0
327(18) 0.003058 221.5 138.8
339(18) 0.002950 221.4 150.3
376(19) 0.002660 221.3 163.8
401(20) 0.002494 221.2 179.8
389(20) 0.002571 221.1 199.0
465(22) 0.002151 220.9 222.2
497(22) 0.002012 220.8 250.6
595(24) 0.001681 220.7 285.9
602(25) 0.001661 220.6 330.7
724(27) 0.001381 220.5 389.2
797(28) 0.001255 220.4 469.0
991(31) 0.001009 220.2 582.3
1168(34) 0.000856 220.1 749.0
1440(38) 0.000694 220. 997.
1804(42) 0.000554 220. 1362.
2201(47) 0.000454 220. 1874.
2731(52) 0.000366 220. 2546.
3408(58) 0.0002934 220. 3327.
4013(63) 0.0002492 219. 4032.
4452(67) 0.0002246 219. 4329.
4290(65) 0.0002331 219. 4024.
3434(59) 0.0002912 219. 3316.
2574(51) 0.000389 219. 2535.
1939(44) 0.000516 219. 1865.
1535(39) 0.000651 219. 1354.
1215(35) 0.000823 218.6 991.2
982(31) 0.001018 218.5 743.7
810(28) 0.001235 218.4 577.4
712(27) 0.001404 218.3 464.3
573(24) 0.001745 218.2 384.6
558(24) 0.001792 218.0 325.8
449(21) 0.002227 217.9 280.8
457(21) 0.002188 217.8 245.3
442(21) 0.002262 217.7 216.5
372(19) 0.002688 217.6 193.0
354(19) 0.002825 217.5 173.5
341(18) 0.002933 217.3 157.1
318(18) 0.003145 217.2 143.2
302(17) 0.003311 217.1 131.3
289(17) 0.003460 217.0 121.1
312(18) 0.003205 216.9 112.3
285(17) 0.00351 216.8 104.6
318(18) 0.003145 216.6 97.8
288(17) 0.003472 216.5 91.8
276(17) 0.00362 216.4 86.5
285(17) 0.00351 216.3 81.8
292(17) 0.003425 216.2 77.6
292(17) 0.003425 216.1 73.9
259(16) 0.00386 216.0 70.5
274(17) 0.00365 215.8 67.4
275(17) 0.00364 215.7 64.6
235(15) 0.00426 215.6 62.1
245(16) 0.00408 215.5 59.8
263(16) 0.00380 215.4 57.7
244(16) 0.00410 215.3 55.7
255(16) 0.00392 215.1 54.0
260(16) 0.00385 215.0 52.4
220(15) 0.00455 214.9 50.9
235(15) 0.00426 214.8 49.5
211(15) 0.00474 214.7 48.2
227(15) 0.00441 214.6 47.0
226(15) 0.00442 214.4 46.0
235(15) 0.00426 214.3 45.0
233(15) 0.00429 214.2 44.0
256(16) 0.00391 214.1 43.2
246(16) 0.00407 214.0 42.4
263(16) 0.00380 213.9 41.6
229(15) 0.00437 213.7 40.9
247(16) 0.00405 213.6 40.3
239(15) 0.00418 213.5 39.7
234(15) 0.00427 213.4 39.2
218(15) 0.00459 213.3 38.7
236(15) 0.00424 213.2 38.2
254(16) 0.00394 213.1 37.8
229(15) 0.00437 212.9 37.4
234(15) 0.00427 212.8 37.0
251(16) 0.00398 212.7 36.7
261(16) 0.00383 212.6 36.4
241(16) 0.00415 212.5 36.1
236(15) 0.00424 212.4 35.9
249(16) 0.00402 212.2 35.6
258(16) 0.00388 212.1 35.4
241(16) 0.00415 212.0 35.3
240(15) 0.00417 211.9 35.1
242(16) 0.00413 211.8 35.0
251(16) 0.00398 211.7 34.9
239(15) 0.00418 211.5 34.8
233(15) 0.00429 211.4 34.8
236(15) 0.00424 211.3 34.7
239(15) 0.00418 211.2 34.7
251(16) 0.00398 211.1 34.7
224(15) 0.00446 211.0 34.8
233(15) 0.00429 210.8 34.8
252(16) 0.00397 210.7 34.9
236(15) 0.00424 210.6 35.0
231(15) 0.00433 210.5 35.1
248(16) 0.00403 210.4 35.2
257(16) 0.00389 210.3 35.3
224(15) 0.00446 210.2 35.5
223(15) 0.00448 210.0 35.7
235(15) 0.00426 209.9 35.9
226(15) 0.00442 209.8 36.2
203(14) 0.00493 209.7 36.4
221(15) 0.00452 209.6 36.7
221(15) 0.00452 209.5 37.0
225(15) 0.00444 209.3 37.3
201(14) 0.00498 209.2 37.7
199(14) 0.00503 209.1 38.1
230(15) 0.00435 209.0 38.5
218(15) 0.00459 208.9 38.9
206(14) 0.00485 208.8 39.4
187(14) 0.00535 208.6 39.9
215(15) 0.00465 208.5 40.4
202(14) 0.00495 208.4 41.0
213(15) 0.00469 208.3 41.6
207(14) 0.00483 208.1 42.2
213(15) 0.00469 208.0 42.8
205(14) 0.00488 207.8 43.5
206(14) 0.00485 207.7 44.3
244(16) 0.00410 207.5 45.1
198(14) 0.00505 207.3 45.9
217(15) 0.00461 207.2 46.8
210(14) 0.00476 207.0 47.7
234(15) 0.00427 206.9 48.7
237(15) 0.00422 206.7 49.7
210(14) 0.00476 206.6 50.8
240(15) 0.00417 206.4 52.0
199(14) 0.00503 206.3 53.2
211(15) 0.00474 206.1 54.5
215(15) 0.00465 206.0 55.9
215(15) 0.00465 205.8 57.3
227(15) 0.00441 205.7 58.8
236(15) 0.00424 205.5 60.5
240(15) 0.00417 205.4 62.2
224(15) 0.00446 205.2 64.0
224(15) 0.00446 205.1 66.0
221(15) 0.00452 204.9 68.0
234(15) 0.00427 204.8 70.2
226(15) 0.00442 204.6 72.6
253(16) 0.00395 204.5 75.1
225(15) 0.00444 204.3 77.7
243(16) 0.00412 204.2 80.6
237(15) 0.00422 204.0 83.6
240(15) 0.00417 203.9 86.9
246(16) 0.00407 203.7 90.3
260(16) 0.00385 203.5 94.1
247(16) 0.00405 203.4 98.1
244(16) 0.00410 203.2 102.4
257(16) 0.00389 203.1 107.0
269(16) 0.00372 202.9 112.1
261(16) 0.00383 202.8 117.5
271(16) 0.00369 202.6 123.3
294(17) 0.003401 202.5 129.7
270(16) 0.00370 202.3 136.6
298(17) 0.003356 202.2 144.2
309(18) 0.003236 202.0 152.4
291(17) 0.003436 201.9 161.4
326(18) 0.003067 201.7 171.4
322(18) 0.003106 201.6 182.3
328(18) 0.003049 201.4 194.5
356(19) 0.002809 201.3 208.0
378(19) 0.002646 201.1 223.2
367(19) 0.002725 201.0 240.5
420(20) 0.002381 200.8 260.2
453(21) 0.002208 200.7 283.1
480(22) 0.002083 200.5 309.8
499(22) 0.002004 200.4 335.0
550(23) 0.001818 200.2 372.8
584(24) 0.001712 200.1 418.2
650(25) 0.001538 199.9 473.2
659(26) 0.001517 199.8 539.9
773(28) 0.001294 199.6 620.8
806(28) 0.001241 199.4 718.7
965(31) 0.001036 199.3 836.0
1078(33) 0.000928 199.1 975.6
1145(34) 0.000873 199.0 1139.6
1381(37) 0.000724 199. 1330.
1581(40) 0.000633 199. 1546.
1833(43) 0.000546 199. 1789.
2177(47) 0.000459 198. 2056.
2759(53) 0.000362 198. 2340.
3036(55) 0.0003294 198. 2632.
3418(58) 0.0002926 198. 2920.
3697(61) 0.0002705 198. 3183.
3957(63) 0.0002527 198. 3398.
4024(63) 0.0002485 197. 3540.
3955(63) 0.0002528 197. 3590.
3616(60) 0.0002765 197. 3541.
3367(58) 0.0002970 197. 3401.
3159(56) 0.0003166 197. 3187.
2836(53) 0.000353 197. 2925.
2655(52) 0.000377 197. 2637.
2380(49) 0.000420 196. 2344.
2155(46) 0.000464 196. 2060.
2023(45) 0.000494 196. 1793.
1854(43) 0.000539 196. 1550.
1641(41) 0.000609 196. 1333.
1469(38) 0.000681 196. 1142.
1395(37) 0.000717 195. 978.
1242(35) 0.000805 195. 838.
1140(34) 0.000877 195.2 720.0
1079(33) 0.000927 195.0 621.9
975(31) 0.001026 194.9 540.6
909(30) 0.001100 194.7 473.7
850(29) 0.001176 194.6 418.4
856(29) 0.001168 194.4 372.8
759(28) 0.001318 194.3 335.0
700(26) 0.001429 194.1 303.2
667(26) 0.001499 194.0 276.4
627(25) 0.001595 193.8 253.4
599(24) 0.001669 193.7 233.6
540(23) 0.001852 193.5 216.2
540(23) 0.001852 193.4 200.9
548(23) 0.001825 193.2 187.2
503(22) 0.001988 193.1 175.0
493(22) 0.002028 192.9 163.9
421(21) 0.002375 192.8 153.9
424(21) 0.002358 192.6 144.8
411(20) 0.002433 192.5 136.5
400(20) 0.002500 192.3 128.8
368(19) 0.002717 192.2 121.8
366(19) 0.002732 192.0 115.4
370(19) 0.002703 191.9 109.4
367(19) 0.002725 191.7 103.9
317(18) 0.003155 191.5 98.8
340(18) 0.002941 191.4 94.0
298(17) 0.003356 191.2 89.6
291(17) 0.003436 191.1 85.5
307(18) 0.003257 190.9 81.7
306(17) 0.003268 190.8 78.1
315(18) 0.003175 190.6 74.8
302(17) 0.003311 190.5 71.6
309(18) 0.003236 190.3 68.7
305(17) 0.003279 190.2 65.9
270(16) 0.00370 190.0 63.3
273(17) 0.00366 189.9 60.9
238(15) 0.00420 189.7 58.6
277(17) 0.00361 189.6 56.4
235(15) 0.00426 189.4 54.3
252(16) 0.00397 189.3 52.4
246(16) 0.00407 189.1 50.6
248(16) 0.00403 189.0 48.8
252(16) 0.00397 188.8 47.2
245(16) 0.00408 188.7 45.6
247(16) 0.00405 188.5 44.1
230(15) 0.00435 188.4 42.7
230(15) 0.00435 188.2 41.3
223(15) 0.00448 188.1 40.1
222(15) 0.00450 187.9 38.8
230(15) 0.00435 187.8 37.7
224(15) 0.00446 187.6 36.6
195(14) 0.00513 187.4 35.5
209(14) 0.00478 187.3 34.5
234(15) 0.00427 187.1 33.5
200(14) 0.00500 187.0 32.6
185(14) 0.00541 186.8 31.7
196(14) 0.00510 186.7 30.8
198(14) 0.00505 186.5 30.0
209(14) 0.00478 186.4 29.2
198(14) 0.00505 186.2 28.5
222(15) 0.00450 186.1 27.8
198(14) 0.00505 185.9 27.1
210(14) 0.00476 185.8 26.4
215(15) 0.00465 185.6 25.8
182(13) 0.00549 185.5 25.1
206(14) 0.00485 185.3 24.5
185(14) 0.00541 185.2 24.0
183(14) 0.00546 185.0 23.4
214(15) 0.00467 184.9 22.9
215(15) 0.00465 184.7 22.4
185(14) 0.00541 184.6 21.9
197(14) 0.00508 184.4 21.4
208(14) 0.00481 184.3 21.0
182(13) 0.00549 184.1 20.5
191(14) 0.00524 184.0 20.1
199(14) 0.00503 183.8 19.7
226(15) 0.00442 183.6 19.3
193(14) 0.00518 183.5 18.9
201(14) 0.00498 183.3 18.5
177(13) 0.00565 183.2 18.1
199(14) 0.00503 183.0 17.8
193(14) 0.00518 182.9 17.5
181(13) 0.00552 182.7 17.1
206(14) 0.00485 182.6 16.8
221(15) 0.00452 182.4 16.5
182(13) 0.00549 182.3 16.2
198(14) 0.00505 182.1 15.9
185(14) 0.00541 182.0 15.6
180(13) 0.00556 181.8 15.4
183(14) 0.00546 181.7 15.1
178(13) 0.00562 181.5 14.9
171(13) 0.00585 181.4 14.6
188(14) 0.00532 181.6 14.4
183(14) 0.00546 181.9 14.1
180(13) 0.00556 182.2 13.9
179(13) 0.00559 182.5 13.7
186(14) 0.00538 182.7 13.5
180(13) 0.00556 183.0 13.3
179(13) 0.00559 183.3 13.1
175(13) 0.00571 183.6 12.9
203(14) 0.00493 183.8 12.7
167(13) 0.00599 184.1 12.5
207(14) 0.00483 184.4 12.3
204(14) 0.00490 184.7 12.2
208(14) 0.00481 184.9 12.0
197(14) 0.00508 185.2 11.8
195(14) 0.00513 185.5 11.7
195(14) 0.00513 185.8 11.5
196(14) 0.00510 186.0 11.4
210(14) 0.00476 186.3 11.2
188(14) 0.00532 186.6 11.1
191(14) 0.00524 186.8 10.9
196(14) 0.00510 187.1 10.8
195(14) 0.00513 187.4 10.7
192(14) 0.00521 187.7 10.6
203(14) 0.00493 187.9 10.4
189(14) 0.00529 188.2 10.3
179(13) 0.00559 188.5 10.2
192(14) 0.00521 188.8 10.1
195(14) 0.00513 189.0 10.0
194(14) 0.00515 189.3 9.9
191(14) 0.00524 189.6 9.8
196(14) 0.00510 189.9 9.7
187(14) 0.00535 190.1 9.6
189(14) 0.00529 190.4 9.5
209(14) 0.00478 190.7 9.4
210(14) 0.00476 191.0 9.3
193(14) 0.00518 191.2 9.3
187(14) 0.00535 191.5 9.2
215(15) 0.00465 191.8 9.1
191(14) 0.00524 192.1 9.0
200(14) 0.00500 192.3 9.0
193(14) 0.00518 192.6 8.9
201(14) 0.00498 192.9 8.8
174(13) 0.00575 193.2 8.8
169(13) 0.00592 193.4 8.7
209(14) 0.00478 193.7 8.7
193(14) 0.00518 194.0 8.6
185(14) 0.00541 194.2 8.6
188(14) 0.00532 194.5 8.5
204(14) 0.00490 194.8 8.5
191(14) 0.00524 195.1 8.4
213(15) 0.00469 195.3 8.4
211(15) 0.00474 195.6 8.4
173(13) 0.00578 195.9 8.3
177(13) 0.00565 196.2 8.3
175(13) 0.00571 196.4 8.3
204(14) 0.00490 196.7 8.3
179(13) 0.00559 197.0 8.2
181(13) 0.00552 197.3 8.2
193(14) 0.00518 197.5 8.2
221(15) 0.00452 197.8 8.2
218(15) 0.00459 198.1 8.2
210(14) 0.00476 198.4 8.2
435(21) 0.002299 198.6 8.2
404(20) 0.002475 198.9 8.2
330(18) 0.003030 199.2 8.2
282(17) 0.00355 199.5 8.2
230(15) 0.00435 199.7 8.2
225(15) 0.00444 200.0 8.2
205(14) 0.00488 200.3 8.3
199(14) 0.00503 200.5 8.3
189(14) 0.00529 200.8 8.3
197(14) 0.00508 201.1 8.4
197(14) 0.00508 201.4 8.4
215(15) 0.00465 201.6 8.5
200(14) 0.00500 201.9 8.5
208(14) 0.00481 202.2 8.6
192(14) 0.00521 202.5 8.6
218(15) 0.00459 202.7 8.7
197(14) 0.00508 203.0 8.8
228(15) 0.00439 203.3 8.9
198(14) 0.00505 203.6 9.0
193(14) 0.00518 203.7 9.1
190(14) 0.00526 203.7 9.2
232(15) 0.00431 203.8 9.3
218(15) 0.00459 203.9 9.4
207(14) 0.00483 203.9 9.5
191(14) 0.00524 204.0 9.7
220(15) 0.00455 204.0 9.8
192(14) 0.00521 204.1 10.0
228(15) 0.00439 204.1 10.2
194(14) 0.00515 204.2 10.4
185(14) 0.00541 204.3 10.6
197(14) 0.00508 204.3 10.8
193(14) 0.00518 204.4 11.1
203(14) 0.00493 204.4 11.3
219(15) 0.00457 204.5 11.6
219(15) 0.00457 204.6 11.9
243(16) 0.00412 204.6 12.2
240(15) 0.00417 204.7 12.6
203(14) 0.00493 204.7 13.0
216(15) 0.00463 204.8 13.4
252(16) 0.00397 204.9 13.9
238(15) 0.00420 204.9 14.4
234(15) 0.00427 205.0 14.9
232(15) 0.00431 205.0 15.5
208(14) 0.00481 205.1 16.2
217(15) 0.00461 205.1 17.0
199(14) 0.00503 205.2 17.9
229(15) 0.00437 205.3 18.8
229(15) 0.00437 205.3 20.0
221(15) 0.00452 205.4 21.2
210(14) 0.00476 205.4 22.6
253(16) 0.00395 205.5 24.3
209(14) 0.00478 205.6 26.1
228(15) 0.00439 205.6 28.2
239(15) 0.00418 205.7 30.6
229(15) 0.00437 205.7 33.4
244(16) 0.00410 205.8 36.5
276(17) 0.00362 205.9 39.9
229(15) 0.00437 205.9 43.9
287(17) 0.003484 206.0 48.2
308(18) 0.003247 206.0 53.1
261(16) 0.00383 206.1 58.4
295(17) 0.003390 206.2 64.3
278(17) 0.00360 206.2 70.7
290(17) 0.003448 206.3 77.6
297(17) 0.003367 206.3 85.0
285(17) 0.00351 206.4 92.8
274(17) 0.00365 206.4 101.1
309(18) 0.003236 206.5 109.6
299(17) 0.003344 206.6 118.4
339(18) 0.002950 206.6 127.1
319(18) 0.003135 206.7 135.8
297(17) 0.003367 206.7 144.0
322(18) 0.003106 206.8 151.6
350(19) 0.002857 206.9 158.2
370(19) 0.002703 206.9 163.5
357(19) 0.002801 207.0 167.3
362(19) 0.002762 207.0 169.4
336(18) 0.002976 207.1 169.5
357(19) 0.002801 207.2 167.8
362(19) 0.002762 207.2 164.3
336(18) 0.002976 207.3 159.2
360(19) 0.002778 207.3 152.7
390(20) 0.002564 207.4 145.3
330(18) 0.003030 207.4 137.1
352(19) 0.002841 207.5 128.5
346(19) 0.002890 207.6 119.7
308(18) 0.003247 207.6 110.9
311(18) 0.003215 207.7 102.3
320(18) 0.003125 207.7 93.9
313(18) 0.003195 207.8 86.0
289(17) 0.003460 207.9 78.4
259(16) 0.00386 207.9 71.4
250(16) 0.00400 208.0 64.8
274(17) 0.00365 208.0 58.8
290(17) 0.003448 208.1 53.3
271(16) 0.00369 208.2 48.3
277(17) 0.00361 208.2 43.8
268(16) 0.00373 208.3 39.8
278(17) 0.00360 208.3 36.2
295(17) 0.003390 208.4 33.0
249(16) 0.00402 208.5 30.2
280(17) 0.00357 208.5 27.6
284(17) 0.00352 208.6 25.4
285(17) 0.00351 208.6 23.5
268(16) 0.00373 208.7 21.8
278(17) 0.00360 208.7 20.3
274(17) 0.00365 208.8 18.9
297(17) 0.003367 208.9 17.7
300(17) 0.003333 208.9 16.7
297(17) 0.003367 209.0 15.8
287(17) 0.003484 209.0 14.9
285(17) 0.00351 209.1 14.2
299(17) 0.003344 209.2 13.5
294(17) 0.003401 209.2 12.9
325(18) 0.003077 209.3 12.3
270(16) 0.00370 209.3 11.8
307(18) 0.003257 209.4 11.3
285(17) 0.00351 209.5 10.9
280(17) 0.00357 209.5 10.5
321(18) 0.003115 209.6 10.1
305(17) 0.003279 209.6 9.7
304(17) 0.003289 209.7 9.4
301(17) 0.003322 209.7 9.1
309(18) 0.003236 209.8 8.8
288(17) 0.003472 209.9 8.5
320(18) 0.003125 209.9 8.2
328(18) 0.003049 210.0 8.0
350(19) 0.002857 210.0 7.7
364(19) 0.002747 210.1 7.5
337(18) 0.002967 210.2 7.3
338(18) 0.002959 210.2 7.1
333(18) 0.003003 210.3 6.9
320(18) 0.003125 210.3 6.7
333(18) 0.003003 210.4 6.6
340(18) 0.002941 210.5 6.4
332(18) 0.003012 210.5 6.2
322(18) 0.003106 210.6 6.1
331(18) 0.003021 210.6 5.9
311(18) 0.003215 210.7 5.8
295(17) 0.003390 210.8 5.7
319(18) 0.003135 210.8 5.5
310(18) 0.003226 210.9 5.4
322(18) 0.003106 210.9 5.3
307(18) 0.003257 211.0 5.2
300(17) 0.003333 211.0 5.1
297(17) 0.003367 211.1 5.0
328(18) 0.003049 211.2 4.9
305(17) 0.003279 211.2 4.8
290(17) 0.003448 211.3 4.7
296(17) 0.003378 211.3 4.6
293(17) 0.003413 211.4 4.5
296(17) 0.003378 211.5 4.4
303(17) 0.003300 211.5 4.3
267(16) 0.00375 211.6 4.3
301(17) 0.003322 211.6 4.2
307(18) 0.003257 211.7 4.1
287(17) 0.003484 211.8 4.1
273(17) 0.00366 211.8 4.0
270(16) 0.00370 211.9 3.9
285(17) 0.00351 211.9 3.9
264(16) 0.00379 212.0 3.8
258(16) 0.00388 212.1 3.7
258(16) 0.00388 212.1 3.7
285(17) 0.00351 212.2 3.6
261(16) 0.00383 212.2 3.6
264(16) 0.00379 212.3 3.5
273(17) 0.00366 212.3 3.5
247(16) 0.00405 212.4 3.4
277(17) 0.00361 212.5 3.4
300(17) 0.003333 212.5 3.3
329(18) 0.003039 212.6 3.3
324(18) 0.003086 212.6 3.2
353(19) 0.002833 212.7 3.2
380(19) 0.002632 212.8 3.1
381(20) 0.002625 212.8 3.1
380(19) 0.002632 212.9 3.1
339(18) 0.002950 212.9 3.0
330(18) 0.003030 213.0 3.0
328(18) 0.003049 213.1 3.0
294(17) 0.003401 213.1 2.9
261(16) 0.00383 213.2 2.9
249(16) 0.00402 213.2 2.8
244(16) 0.00410 213.3 2.8
236(15) 0.00424 213.3 2.8
220(15) 0.00455 213.4 2.8
218(15) 0.00459 213.5 2.7
256(16) 0.00391 213.5 2.7
241(16) 0.00415 213.6 2.7
253(16) 0.00395 213.6 2.6
230(15) 0.00435 213.7 2.6
229(15) 0.00437 213.8 2.6
214(15) 0.00467 213.8 2.5
261(16) 0.00383 213.9 2.5
224(15) 0.00446 213.9 2.5
210(14) 0.00476 214.0 2.5
232(15) 0.00431 214.1 2.4
215(15) 0.00465 214.1 2.4
214(15) 0.00467 214.2 2.4
218(15) 0.00459 214.2 2.4
223(15) 0.00448 214.3 2.4
230(15) 0.00435 214.4 2.3
245(16) 0.00408 214.4 2.3
230(15) 0.00435 214.5 2.3
217(15) 0.00461 214.5 2.3
236(15) 0.00424 214.6 2.2
252(16) 0.00397 214.6 2.2
244(16) 0.00410 214.7 2.2
206(14) 0.00485 214.8 2.2
226(15) 0.00442 214.8 2.2
205(14) 0.00488 214.9 2.1
249(16) 0.00402 214.9 2.1
211(15) 0.00474 215.0 2.1
229(15) 0.00437 215.1 2.1
228(15) 0.00439 215.1 2.1
206(14) 0.00485 215.2 2.1
216(15) 0.00463 215.2 2.0
220(15) 0.00455 215.3 2.0
218(15) 0.00459 215.4 2.0
212(15) 0.00472 215.4 2.0
252(16) 0.00397 215.5 2.0
232(15) 0.00431 215.5 2.0
239(15) 0.00418 215.6 2.0
226(15) 0.00442 215.6 1.9
214(15) 0.00467 215.7 1.9
209(14) 0.00478 215.8 1.9
231(15) 0.00433 215.8 1.9
232(15) 0.00431 215.7 1.9
245(16) 0.00408 215.5 1.9
188(14) 0.00532 215.3 1.9
201(14) 0.00498 215.1 1.8
221(15) 0.00452 214.9 1.8
215(15) 0.00465 214.7 1.8
235(15) 0.00426 214.5 1.8
224(15) 0.00446 214.4 1.8
211(15) 0.00474 214.2 1.8
214(15) 0.00467 214.0 1.8
207(14) 0.00483 213.8 1.8
221(15) 0.00452 213.6 1.7
225(15) 0.00444 213.4 1.7
203(14) 0.00493 213.2 1.7
231(15) 0.00433 213.0 1.7
226(15) 0.00442 212.8 1.7
228(15) 0.00439 212.6 1.7
264(16) 0.00379 212.4 1.7
224(15) 0.00446 212.2 1.7
200(14) 0.00500 212.1 1.7
193(14) 0.00518 211.9 1.7
215(15) 0.00465 211.7 1.6
247(16) 0.00405 211.5 1.6
214(15) 0.00467 211.3 1.6
207(14) 0.00483 211.1 1.6
254(16) 0.00394 210.9 1.6
216(15) 0.00463 210.7 1.6
206(14) 0.00485 210.5 1.6
218(15) 0.00459 210.3 1.6
203(14) 0.00493 210.1 1.6
236(15) 0.00424 209.9 1.6
224(15) 0.00446 209.8 1.6
203(14) 0.00493 209.6 1.5
241(16) 0.00415 209.4 1.5
223(15) 0.00448 209.2 1.5
220(15) 0.00455 209.0 1.5
221(15) 0.00452 208.8 1.5
220(15) 0.00455 208.6 1.5
185(14) 0.00541 208.4 1.5
222(15) 0.00450 208.2 1.5
219(15) 0.00457 208.0 1.5
235(15) 0.00426 207.8 1.5
196(14) 0.00510 207.6 1.5
210(14) 0.00476 207.5 1.5
190(14) 0.00526 207.3 1.5
201(14) 0.00498 207.1 1.5
234(15) 0.00427 206.9 1.5
209(14) 0.00478 206.7 1.4
202(14) 0.00495 206.5 1.4
185(14) 0.00541 206.3 1.4
194(14) 0.00515 206.1 1.4
204(14) 0.00490 205.9 1.4
204(14) 0.00490 205.7 1.4
218(15) 0.00459 205.5 1.4
203(14) 0.00493 205.3 1.4
221(15) 0.00452 205.2 1.4
213(15) 0.00469 205.0 1.4
224(15) 0.00446 204.8 1.4
227(15) 0.00441 204.6 1.4
205(14) 0.00488 204.4 1.4
206(14) 0.00485 204.2 1.4
216(15) 0.00463 204.0 1.4
232(15) 0.00431 203.8 1.4
214(15) 0.00467 203.6 1.4
206(14) 0.00485 203.4 1.4
209(14) 0.00478 203.2 1.4
211(15) 0.00474 203.0 1.4
212(15) 0.00472 202.9 1.4
192(14) 0.00521 202.7 1.4
221(15) 0.00452 202.5 1.4
213(15) 0.00469 202.3 1.4
238(15) 0.00420 202.1 1.3
189(14) 0.00529 201.9 1.3
194(14) 0.00515 201.7 1.3
195(14) 0.00513 201.5 1.3
224(15) 0.00446 201.3 1.3
218(15) 0.00459 201.1 1.3
226(15) 0.00442 200.9 2.6
217(15) 0.00461 200.7 2.6
210(14) 0.00476 200.6 2.6
211(15) 0.00474 200.4 2.6
197(14) 0.00508 200.2 2.6
200(14) 0.00500 200.0 2.6
198(14) 0.00505 199.8 2.6
200(14) 0.00500 199.6 2.6
205(14) 0.00488 199.4 2.6
216(15) 0.00463 199.2 2.6
210(14) 0.00476 199.0 2.6
194(14) 0.00515 198.8 2.7
209(14) 0.00478 198.6 2.7
194(14) 0.00515 198.4 2.7
201(14) 0.00498 198.3 2.7
214(15) 0.00467 198.1 2.7
204(14) 0.00490 197.9 2.7
196(14) 0.00510 197.7 2.7
208(14) 0.00481 197.5 2.7
195(14) 0.00513 197.3 2.7
206(14) 0.00485 197.1 2.7
204(14) 0.00490 196.9 2.8
218(15) 0.00459 196.7 2.8
204(14) 0.00490 196.5 2.8
236(15) 0.00424 196.3 2.9
201(14) 0.00498 196.1 2.9
185(14) 0.00541 196.0 3.0
208(14) 0.00481 195.8 3.0
206(14) 0.00485 195.6 3.0
199(14) 0.00503 195.4 3.0
196(14) 0.00510 195.2 3.0
179(13) 0.00559 195.0 3.0
204(14) 0.00490 195.0 3.0
204(14) 0.00490 195.2 3.1
220(15) 0.00455 195.4 3.1
204(14) 0.00490 195.6 3.1
185(14) 0.00541 195.8 3.1
187(14) 0.00535 196.0 3.1
218(15) 0.00459 196.2 3.1
196(14) 0.00510 196.4 3.2
199(14) 0.00503 196.6 3.2
194(14) 0.00515 196.8 3.2
211(15) 0.00474 197.0 3.2
194(14) 0.00515 197.2 3.2
190(14) 0.00526 197.4 3.3
226(15) 0.00442 197.6 3.3
201(14) 0.00498 197.8 3.3
212(15) 0.00472 198.0 3.3
192(14) 0.00521 198.2 3.3
217(15) 0.00461 198.4 3.4
193(14) 0.00518 198.6 3.4
189(14) 0.00529 198.8 3.4
194(14) 0.00515 199.0 3.4
204(14) 0.00490 199.2 3.5
205(14) 0.00488 199.4 5.2
186(14) 0.00538 199.6 5.2
199(14) 0.00503 199.8 5.3
186(14) 0.00538 200.0 5.3
192(14) 0.00521 200.2 5.4
178(13) 0.00562 200.4 5.4
215(15) 0.00465 200.6 5.5
202(14) 0.00495 200.8 5.6
196(14) 0.00510 201.0 5.6
215(15) 0.00465 201.2 5.7
200(14) 0.00500 201.4 5.7
199(14) 0.00503 201.6 5.8
197(14) 0.00508 201.8 6.1
191(14) 0.00524 202.0 6.1
226(15) 0.00442 202.2 6.2
215(15) 0.00465 202.4 6.3
210(14) 0.00476 202.6 6.3
192(14) 0.00521 202.8 6.4
250(16) 0.00400 203.0 6.5
206(14) 0.00485 203.2 6.6
219(15) 0.00457 203.4 6.7
220(15) 0.00455 203.6 6.8
191(14) 0.00524 203.8 6.9
181(13) 0.00552 204.0 7.0
213(15) 0.00469 204.2 7.1
187(14) 0.00535 204.4 7.2
206(14) 0.00485 204.6 7.3
192(14) 0.00521 204.8 7.4
208(14) 0.00481 205.0 7.5
186(14) 0.00538 205.2 7.6
211(15) 0.00474 205.4 7.8
189(14) 0.00529 205.6 7.9
202(14) 0.00495 205.8 8.1
205(14) 0.00488 206.0 8.2
173(13) 0.00578 206.2 8.4
202(14) 0.00495 206.4 8.6
192(14) 0.00521 206.6 8.8
182(13) 0.00549 206.8 9.0
198(14) 0.00505 207.0 9.2
209(14) 0.00478 207.2 9.5
207(14) 0.00483 207.4 9.7
218(15) 0.00459 207.6 10.0
216(15) 0.00463 207.8 10.3
216(15) 0.00463 208.0 10.7
217(15) 0.00461 208.2 11.1
193(14) 0.00518 208.4 11.5
216(15) 0.00463 208.6 12.0
207(14) 0.00483 208.8 12.5
215(15) 0.00465 209.0 13.1
205(14) 0.00488 209.2 13.7
209(14) 0.00478 209.4 14.4
248(16) 0.00403 209.6 15.2
220(15) 0.00455 209.8 16.0
214(15) 0.00467 210.0 16.9
227(15) 0.00441 210.2 17.8
231(15) 0.00433 210.4 18.8
211(15) 0.00474 210.6 19.9
220(15) 0.00455 210.8 21.1
219(15) 0.00457 211.0 22.4
194(14) 0.00515 211.2 23.7
227(15) 0.00441 211.4 25.1
199(14) 0.00503 211.6 26.5
225(15) 0.00444 211.8 28.0
224(15) 0.00446 212.0 29.6
216(15) 0.00463 212.2 31.1
236(15) 0.00424 212.4 32.7
226(15) 0.00442 212.6 34.2
255(16) 0.00392 212.8 35.7
248(16) 0.00403 213.0 37.2
261(16) 0.00383 213.2 38.5
252(16) 0.00397 213.4 39.7
246(16) 0.00407 213.6 40.7
233(15) 0.00429 213.8 41.5
233(15) 0.00429 214.0 42.0
226(15) 0.00442 214.2 42.3
238(15) 0.00420 214.4 42.3
243(16) 0.00412 214.6 42.1
281(17) 0.00356 214.8 41.6
262(16) 0.00382 215.0 40.9
233(15) 0.00429 215.2 40.0
220(15) 0.00455 215.4 39.0
245(16) 0.00408 215.6 37.9
244(16) 0.00410 215.8 36.6
238(15) 0.00420 216.0 35.4
218(15) 0.00459 216.2 34.1
223(15) 0.00448 216.4 32.8
233(15) 0.00429 216.6 31.5
248(16) 0.00403 216.8 30.3
214(15) 0.00467 217.0 29.1
244(16) 0.00410 217.2 28.0
228(15) 0.00439 217.4 26.9
239(15) 0.00418 217.6 26.0
222(15) 0.00450 217.8 25.1
226(15) 0.00442 218.0 24.3
214(15) 0.00467 218.2 23.5
241(16) 0.00415 218.4 22.9
234(15) 0.00427 218.6 22.3
217(15) 0.00461 218.8 21.8
208(14) 0.00481 219.0 21.4
243(16) 0.00412 219.2 21.0
235(15) 0.00426 219.4 20.7
249(16) 0.00402 219.6 20.5
282(17) 0.00355 219.8 20.4
233(15) 0.00429 220.0 20.3
244(16) 0.00410 220.2 20.2
244(16) 0.00410 220.4 20.2
223(15) 0.00448 220.6 20.3
212(15) 0.00472 220.8 20.4
211(15) 0.00474 221.0 20.5
229(15) 0.00437 221.2 20.7
227(15) 0.00441 221.4 20.9
228(15) 0.00439 221.6 21.2
244(16) 0.00410 221.8 21.4
219(15) 0.00457 222.0 21.8
239(15) 0.00418 222.2 22.1
247(16) 0.00405 222.4 22.5
231(15) 0.00433 222.6 22.9
252(16) 0.00397 222.8 23.4
225(15) 0.00444 223.0 23.9
216(15) 0.00463 223.2 24.4
224(15) 0.00446 223.4 25.0
206(14) 0.00485 223.6 25.6
223(15) 0.00448 223.8 26.2
216(15) 0.00463 224.0 26.9
214(15) 0.00467 224.2 27.6
222(15) 0.00450 224.4 28.4
204(14) 0.00490 224.6 29.2
213(15) 0.00469 224.8 30.1
218(15) 0.00459 225.0 31.0
239(15) 0.00418 225.2 32.0
211(15) 0.00474 225.4 33.1
226(15) 0.00442 225.6 34.2
210(14) 0.00476 225.8 35.4
215(15) 0.00465 226.0 36.7
214(15) 0.00467 226.2 38.1
251(16) 0.00398 226.4 39.6
240(15) 0.00417 226.6 41.2
225(15) 0.00444 226.8 42.9
235(15) 0.00426 227.0 44.8
239(15) 0.00418 227.2 46.8
231(15) 0.00433 227.4 49.0
235(15) 0.00426 227.6 51.3
264(16) 0.00379 227.8 53.9
247(16) 0.00405 228.0 56.7
255(16) 0.00392 228.2 59.8
227(15) 0.00441 228.4 63.1
253(16) 0.00395 228.6 66.8
251(16) 0.00398 228.8 70.8
230(15) 0.00435 229.0 75.3
250(16) 0.00400 229.2 80.2
254(16) 0.00394 229.4 85.7
291(17) 0.003436 229.6 91.9
281(17) 0.00356 229.8 98.8
284(17) 0.00352 230.0 106.6
288(17) 0.003472 230.2 115.4
321(18) 0.003115 230.4 125.5
317(18) 0.003155 230.6 137.0
388(20) 0.002577 230.8 150.3
376(19) 0.002660 231.0 165.7
365(19) 0.002740 231.2 183.7
413(20) 0.002421 231.4 204.9
439(21) 0.002278 231.6 230.2
492(22) 0.002033 231.8 260.6
533(23) 0.001876 232.0 297.8
564(24) 0.001773 232.2 343.9
603(25) 0.001658 232.4 402.8
701(26) 0.001427 232.6 480.7
818(29) 0.001222 232.8 587.6
937(31) 0.001067 233.0 739.8
1190(34) 0.000840 233.2 960.6
1439(38) 0.000695 233. 1280.
1746(42) 0.000573 234. 1730.
2240(47) 0.000446 234. 2335.
2854(53) 0.0003504 234. 3093.
3783(62) 0.0002643 234. 3935.
4492(67) 0.0002226 234. 4660.
5018(71) 0.0001993 235. 4961.
4839(70) 0.0002067 235. 4662.
3891(62) 0.0002570 235. 3937.
2991(55) 0.0003343 235. 3096.
2472(50) 0.000405 235. 2339.
1905(44) 0.000525 236. 1733.
1583(40) 0.000632 236. 1283.
1244(35) 0.000804 236. 964.
1066(33) 0.000938 236.2 743.4
898(30) 0.001114 236.4 591.6
784(28) 0.001276 236.6 485.0
691(26) 0.001447 236.8 407.5
604(25) 0.001656 237.0 348.6
569(24) 0.001757 237.2 302.9
494(22) 0.002024 237.4 266.2
466(22) 0.002146 237.6 236.2
418(20) 0.002392 237.8 211.3
393(20) 0.002545 238.0 190.5
385(20) 0.002597 238.2 173.0
382(20) 0.002618 238.4 158.0
339(18) 0.002950 238.6 145.2
325(18) 0.003077 238.8 134.2
330(18) 0.003030 239.0 124.6
318(18) 0.003145 239.2 116.3
336(18) 0.002976 239.4 109.0
300(17) 0.003333 239.6 102.6
313(18) 0.003195 239.8 97.0
273(17) 0.00366 240.0 92.0
286(17) 0.003497 240.2 87.6
249(16) 0.00402 240.4 83.7
269(16) 0.00372 240.6 80.3
289(17) 0.003460 240.8 77.2
266(16) 0.00376 241.0 74.4
271(16) 0.00369 241.2 72.0
288(17) 0.003472 241.4 69.8
282(17) 0.00355 241.6 67.9
287(17) 0.003484 241.8 66.3
269(16) 0.00372 242.0 64.8
283(17) 0.00353 242.2 63.5
246(16) 0.00407 242.4 62.4
247(16) 0.00405 242.6 61.5
272(16) 0.00368 242.8 60.7
254(16) 0.00394 243.0 60.1
272(16) 0.00368 243.2 59.6
233(15) 0.00429 243.4 59.2
284(17) 0.00352 243.6 59.0
278(17) 0.00360 243.8 58.8
252(16) 0.00397 243.9 58.9
270(16) 0.00370 244.0 59.0
285(17) 0.00351 244.0 59.3
257(16) 0.00389 244.1 59.8
262(16) 0.00382 244.2 60.4
232(15) 0.00431 244.3 61.2
262(16) 0.00382 244.3 62.3
216(15) 0.00463 244.4 63.5
247(16) 0.00405 244.5 65.0
247(16) 0.00405 244.6 66.6
269(16) 0.00372 244.6 68.2
275(17) 0.00364 244.7 69.9
277(17) 0.00361 244.8 71.3
260(16) 0.00385 244.9 72.5
274(17) 0.00365 244.9 73.3
271(16) 0.00369 245.0 74.1
237(15) 0.00422 245.1 74.9
284(17) 0.00352 245.2 75.9
281(17) 0.00356 245.3 77.1
294(17) 0.003401 245.3 78.6
245(16) 0.00408 245.4 80.3
276(17) 0.00362 245.5 82.3
273(17) 0.00366 245.6 84.6
293(17) 0.003413 245.6 87.1
308(18) 0.003247 245.7 90.0
283(17) 0.00353 245.8 93.1
303(17) 0.003300 245.9 96.4
293(17) 0.003413 245.9 100.1
295(17) 0.003390 246.0 104.1
306(17) 0.003268 246.1 108.4
312(18) 0.003205 246.2 113.1
307(18) 0.003257 246.2 118.2
307(18) 0.003257 246.3 123.7
314(18) 0.003185 246.4 129.7
357(19) 0.002801 246.5 136.2
326(18) 0.003067 246.5 143.3
362(19) 0.002762 246.6 151.1
365(19) 0.002740 246.7 159.6
382(20) 0.002618 246.8 169.0
347(19) 0.002882 246.8 179.3
377(19) 0.002653 246.9 190.8
391(20) 0.002558 247.0 203.5
413(20) 0.002421 247.1 217.8
439(21) 0.002278 247.1 233.9
483(22) 0.002070 247.2 252.3
500(22) 0.002000 247.3 273.4
504(22) 0.001984 247.4 298.1
533(23) 0.001876 247.5 327.0
576(24) 0.001736 247.5 361.4
588(24) 0.001701 247.6 402.6
642(25) 0.001558 247.7 452.3
671(26) 0.001490 247.8 512.3
759(28) 0.001318 247.8 584.9
839(29) 0.001192 247.9 672.5
914(30) 0.001094 248.0 777.5
1002(32) 0.000998 248.1 902.6
1101(33) 0.000908 248.1 1049.8
1316(36) 0.000760 248. 1221.
1584(40) 0.000631 248. 1417.
1810(43) 0.000552 248. 1639.
2187(47) 0.000457 248. 1883.
2589(51) 0.000386 249. 2148.
3105(56) 0.0003221 249. 2426.
3549(60) 0.0002818 249. 2707.
3902(62) 0.0002563 249. 2975.
4012(63) 0.0002493 249. 3211.
4062(64) 0.0002462 249. 3392.
4022(63) 0.0002486 249. 3497.
3839(62) 0.0002605 249. 3512.
3523(59) 0.0002838 249. 3434.
3265(57) 0.0003063 249. 3275.
2831(53) 0.000353 249. 3054.
2666(52) 0.000375 249. 2794.
2464(50) 0.000406 249. 2515.
2262(48) 0.000442 249. 2235.
1924(44) 0.000520 250. 1966.
1871(43) 0.000534 250. 1715.
1674(41) 0.000597 250. 1486.
1587(40) 0.000630 250. 1282.
1337(37) 0.000748 250. 1104.
1260(35) 0.000794 250. 949.
1176(34) 0.000850 250.0 818.0
1043(32) 0.000959 250.1 707.4
1000(32) 0.001000 250.2 615.0
880(30) 0.001136 250.3 538.4
934(31) 0.001071 250.3 475.0
834(29) 0.001199 250.4 422.8
757(28) 0.001321 250.5 379.6
707(27) 0.001414 250.6 343.9
682(26) 0.001466 250.6 313.9
631(25) 0.001585 250.7 288.5
659(26) 0.001517 250.8 266.9
560(24) 0.001786 250.9 248.3
565(24) 0.001770 250.9 232.1
569(24) 0.001757 251.0 217.9
513(23) 0.001949 251.1 205.4
508(23) 0.001968 251.2 194.3
458(21) 0.002183 251.2 184.4
457(21) 0.002188 251.3 175.6
434(21) 0.002304 251.4 167.7
484(22) 0.002066 251.5 160.6
447(21) 0.002237 251.5 154.3
427(21) 0.002342 251.6 148.8
432(21) 0.002315 251.7 143.8
407(20) 0.002457 251.8 139.5
396(20) 0.002525 251.8 135.8
408(20) 0.002451 251.9 132.6
403(20) 0.002481 252.0 130.0
383(20) 0.002611 252.1 128.0
391(20) 0.002558 252.2 126.6
395(20) 0.002532 252.2 125.8
404(20) 0.002475 252.3 125.7
379(19) 0.002639 252.4 126.4
410(20) 0.002439 252.5 128.0
377(19) 0.002653 252.5 130.5
368(19) 0.002717 252.6 134.1
368(19) 0.002717 252.7 139.0
392(20) 0.002551 252.8 145.4
397(20) 0.002519 252.8 153.3
402(20) 0.002488 252.9 163.1
415(20) 0.002410 253.0 174.8
446(21) 0.002242 253.1 188.6
457(21) 0.002188 253.1 204.7
455(21) 0.002198 253.2 223.1
456(21) 0.002193 253.3 243.8
463(22) 0.002160 253.4 266.7
534(23) 0.001873 253.4 291.6
552(23) 0.001812 253.5 318.0
545(23) 0.001835 253.6 345.4
595(24) 0.001681 253.7 372.9
569(24) 0.001757 253.7 399.3
640(25) 0.001563 253.8 423.1
667(26) 0.001499 253.9 442.7
680(26) 0.001471 254.0 456.4
697(26) 0.001435 254.0 463.2
759(28) 0.001318 254.1 462.3
704(27) 0.001420 254.2 454.3
706(27) 0.001416 254.3 440.1
698(26) 0.001433 254.4 421.5
641(25) 0.001560 254.4 400.1
629(25) 0.001590 254.5 377.6
622(25) 0.001608 254.6 355.5
581(24) 0.001721 254.7 334.8
560(24) 0.001786 254.7 316.3
557(24) 0.001795 254.8 300.6
494(22) 0.002024 254.9 287.9
480(22) 0.002083 255.0 278.5
471(22) 0.002123 255.0 272.4
493(22) 0.002028 255.1 269.6
482(22) 0.002075 255.2 270.0
519(23) 0.001927 255.3 273.2
509(23) 0.001965 255.3 279.1
539(23) 0.001855 255.4 287.2
530(23) 0.001887 255.5 297.1
556(24) 0.001799 255.6 308.1
612(25) 0.001634 255.6 319.7
584(24) 0.001712 255.7 331.0
619(25) 0.001616 255.8 341.3
600(24) 0.001667 255.9 349.6
609(25) 0.001642 255.9 355.2
608(25) 0.001645 256.0 357.5
615(25) 0.001626 256.1 356.0
601(25) 0.001664 256.2 350.5
592(24) 0.001689 256.2 341.3
528(23) 0.001894 256.3 328.9
523(23) 0.001912 256.4 313.9
476(22) 0.002101 256.5 296.9
481(22) 0.002079 256.6 278.8
463(22) 0.002160 256.6 260.1
453(21) 0.002208 256.7 241.4
437(21) 0.002288 256.8 223.0
426(21) 0.002347 256.9 205.2
438(21) 0.002283 256.9 188.4
374(19) 0.002674 257.0 172.7
361(19) 0.002770 257.1 158.1
356(19) 0.002809 257.2 144.6
393(20) 0.002545 257.2 132.4
359(19) 0.002786 257.3 121.4
345(19) 0.002899 257.4 111.6
338(18) 0.002959 257.5 102.8
325(18) 0.003077 257.5 95.1
333(18) 0.003003 257.6 88.3
311(18) 0.003215 257.7 82.4
316(18) 0.003165 257.8 77.3
308(18) 0.003247 257.8 72.8
318(18) 0.003145 257.9 69.0
317(18) 0.003155 258.0 65.7
285(17) 0.00351 258.1 62.9
282(17) 0.00355 258.1 60.5
282(17) 0.00355 258.2 58.4
287(17) 0.003484 258.3 56.7
269(16) 0.00372 258.4 55.2
291(17) 0.003436 258.4 54.0
268(16) 0.00373 258.5 52.9
295(17) 0.003390 258.6 52.1
262(16) 0.00382 258.7 51.4
256(16) 0.00391 258.7 50.8
281(17) 0.00356 258.8 50.4
266(16) 0.00376 258.9 50.2
275(17) 0.00364 258.7 50.1
257(16) 0.00389 258.4 50.1
284(17) 0.00352 258.2 50.3
270(16) 0.00370 257.9 50.8
270(16) 0.00370 257.6 51.4
253(16) 0.00395 257.4 52.3
250(16) 0.00400 257.1 53.5
248(16) 0.00403 256.8 55.2
254(16) 0.00394 256.5 57.3
265(16) 0.00377 256.3 60.2
269(16) 0.00372 256.0 64.0
296(17) 0.003378 255.7 69.0
306(17) 0.003268 255.4 75.8
326(18) 0.003067 255.2 85.1
354(19) 0.002825 254.9 98.2
374(19) 0.002674 254.6 117.3
432(21) 0.002315 254.3 147.3
523(23) 0.001912 254.1 197.0
648(25) 0.001543 253.8 280.9
711(27) 0.001406 253.5 417.2
970(31) 0.001031 253.3 614.2
1157(34) 0.000864 253.0 824.4
1207(35) 0.000829 252.7 888.9
1102(33) 0.000907 252.4 734.6
808(28) 0.001238 252.2 515.9
638(25) 0.001567 251.9 344.1
506(22) 0.001976 251.6 232.2
432(21) 0.002315 251.3 164.8
367(19) 0.002725 251.1 124.1
336(18) 0.002976 250.8 98.5
304(17) 0.003289 250.5 81.2
290(17) 0.003448 250.3 68.8
272(16) 0.00368 250.0 59.5
264(16) 0.00379 249.7 52.3
270(16) 0.00370 249.4 46.6
272(16) 0.00368 249.2 42.1
239(15) 0.00418 248.9 38.4
279(17) 0.00358 248.6 35.2
267(16) 0.00375 248.3 32.6
239(15) 0.00418 248.1 30.4
243(16) 0.00412 247.8 28.5
266(16) 0.00376 247.5 26.8
246(16) 0.00407 247.3 25.3
235(15) 0.00426 247.0 24.0
245(16) 0.00408 246.7 22.9
236(15) 0.00424 246.4 21.8
235(15) 0.00426 246.2 20.9
208(14) 0.00481 245.9 20.1
217(15) 0.00461 245.6 19.3
220(15) 0.00455 245.3 18.6
233(15) 0.00429 245.1 18.0
218(15) 0.00459 244.8 17.4
206(14) 0.00485 244.5 16.8
246(16) 0.00407 244.3 16.3
251(16) 0.00398 244.0 15.9
257(16) 0.00389 243.7 15.4
224(15) 0.00446 243.4 15.0
229(15) 0.00437 243.2 14.7
203(14) 0.00493 242.9 14.3
232(15) 0.00431 242.6 14.0
251(16) 0.00398 242.3 13.7
221(15) 0.00452 242.1 13.4
220(15) 0.00455 241.8 13.1
229(15) 0.00437 241.5 12.8
257(16) 0.00389 241.3 12.6
258(16) 0.00388 241.0 12.3
278(17) 0.00360 240.7 12.1
233(15) 0.00429 240.4 11.9
269(16) 0.00372 240.2 11.7
250(16) 0.00400 239.9 11.5
244(16) 0.00410 239.6 11.3
242(16) 0.00413 239.3 11.1
240(15) 0.00417 239.1 11.0
234(15) 0.00427 238.8 10.8
210(14) 0.00476 238.5 10.7
234(15) 0.00427 238.2 10.5
244(16) 0.00410 238.0 10.4
224(15) 0.00446 237.7 10.3
226(15) 0.00442 237.4 10.1
230(15) 0.00435 237.2 10.0
232(15) 0.00431 236.9 9.9
227(15) 0.00441 236.6 9.8
236(15) 0.00424 236.3 9.7
234(15) 0.00427 236.1 9.6
218(15) 0.00459 235.8 9.5
245(16) 0.00408 235.5 9.4
267(16) 0.00375 235.2 9.3
248(16) 0.00403 235.0 9.2
239(15) 0.00418 234.7 9.1
233(15) 0.00429 234.4 9.0
215(15) 0.00465 234.2 9.0
253(16) 0.00395 233.9 8.9
242(16) 0.00413 233.6 8.8
230(15) 0.00435 233.3 8.8
230(15) 0.00435 233.1 8.7
220(15) 0.00455 232.8 8.6
200(14) 0.00500 232.5 8.6
229(15) 0.00437 232.2 8.6
211(15) 0.00474 232.0 8.5
259(16) 0.00386 231.7 8.5
241(16) 0.00415 231.4 8.5
238(15) 0.00420 231.2 8.4
224(15) 0.00446 230.9 8.4
233(15) 0.00429 230.6 8.4
227(15) 0.00441 230.3 8.4
222(15) 0.00450 230.1 8.4
219(15) 0.00457 229.8 8.4
210(14) 0.00476 229.5 8.4
212(15) 0.00472 229.2 8.4
232(15) 0.00431 229.0 8.4
249(16) 0.00402 228.7 8.4
221(15) 0.00452 228.4 8.5
230(15) 0.00435 228.2 8.5
201(14) 0.00498 227.9 8.6
236(15) 0.00424 227.6 8.7
226(15) 0.00442 227.3 8.8
225(15) 0.00444 227.1 8.9
210(14) 0.00476 226.8 9.0
215(15) 0.00465 226.5 9.1
228(15) 0.00439 226.2 9.3
248(16) 0.00403 226.0 9.4
223(15) 0.00448 225.7 9.6
227(15) 0.00441 225.4 9.8
216(15) 0.00463 225.2 10.0
246(16) 0.00407 224.9 10.2
244(16) 0.00410 224.6 10.4
222(15) 0.00450 224.3 10.7
197(14) 0.00508 224.1 10.9
197(14) 0.00508 223.8 11.2
215(15) 0.00465 223.5 11.4
232(15) 0.00431 223.2 11.6
224(15) 0.00446 223.0 11.8
238(15) 0.00420 222.7 12.0
227(15) 0.00441 222.4 12.2
225(15) 0.00444 222.1 12.3
195(14) 0.00513 221.9 12.3
222(15) 0.00450 221.6 12.4
212(15) 0.00472 221.3 12.4
222(15) 0.00450 221.1 12.3
220(15) 0.00455 220.8 12.3
249(16) 0.00402 220.5 12.1
231(15) 0.00433 220.2 12.0
224(15) 0.00446 220.0 11.9
223(15) 0.00448 219.7 11.7
231(15) 0.00433 219.4 11.5
211(15) 0.00474 219.1 11.4
233(15) 0.00429 218.9 11.2
232(15) 0.00431 218.6 11.1
221(15) 0.00452 218.3 10.9
225(15) 0.00444 218.1 10.8
209(14) 0.00478 217.8 10.7
229(15) 0.00437 217.5 10.6
248(16) 0.00403 217.2 10.6
228(15) 0.00439 217.0 10.5
211(15) 0.00474 216.7 10.5
223(15) 0.00448 216.4 10.5
208(14) 0.00481 216.1 10.5
204(14) 0.00490 215.9 10.6
240(15) 0.00417 215.6 10.6
232(15) 0.00431 215.3 10.7
202(14) 0.00495 215.1 10.8
243(16) 0.00412 214.8 11.0
190(14) 0.00526 214.5 11.1
201(14) 0.00498 214.2 11.3
227(15) 0.00441 214.0 11.5
213(15) 0.00469 213.7 11.8
228(15) 0.00439 213.8 12.1
207(14) 0.00483 213.9 12.4
193(14) 0.00518 213.9 12.8
241(16) 0.00415 214.0 13.1
232(15) 0.00431 214.1 13.6
223(15) 0.00448 214.2 14.0
205(14) 0.00488 214.3 14.6
215(15) 0.00465 214.3 15.1
212(15) 0.00472 214.4 15.8
239(15) 0.00418 214.5 16.5
236(15) 0.00424 214.6 17.3
239(15) 0.00418 214.7 18.2
209(14) 0.00478 214.8 19.2
231(15) 0.00433 214.8 20.3
255(16) 0.00392 214.9 21.6
233(15) 0.00429 215.0 23.1
249(16) 0.00402 215.1 24.7
236(15) 0.00424 215.2 26.6
261(16) 0.00383 215.3 28.8
252(16) 0.00397 215.3 31.4
242(16) 0.00413 215.4 34.4
232(15) 0.00431 215.5 38.0
246(16) 0.00407 215.6 42.2
246(16) 0.00407 215.7 47.3
246(16) 0.00407 215.8 53.6
279(17) 0.00358 215.8 61.4
296(17) 0.003378 215.9 71.3
371(19) 0.002695 216.0 84.4
374(19) 0.002674 216.1 102.5
394(20) 0.002538 216.2 128.3
417(20) 0.002398 216.2 166.2
478(22) 0.002092 216.3 221.7
568(24) 0.001761 216.4 301.2
652(26) 0.001534 216.5 409.7
881(30) 0.001135 216.6 546.7
1044(32) 0.000958 216.7 698.0
1210(35) 0.000826 216.7 822.3
1200(35) 0.000833 216.8 859.1
1023(32) 0.000978 216.9 785.2
890(30) 0.001124 217.0 644.8
739(27) 0.001353 217.1 495.6
642(25) 0.001558 217.2 368.3
487(22) 0.002053 217.2 270.6
437(21) 0.002288 217.3 200.4
387(20) 0.002584 217.4 152.0
353(19) 0.002833 217.5 119.1
349(19) 0.002865 217.6 96.6
306(17) 0.003268 217.6 80.7
296(17) 0.003378 217.7 69.0
292(17) 0.003425 217.8 60.1
276(17) 0.00362 217.9 53.1
272(16) 0.00368 218.0 47.4
249(16) 0.00402 218.1 42.8
256(16) 0.00391 218.1 39.0
279(17) 0.00358 218.2 35.8
243(16) 0.00412 218.3 33.2
220(15) 0.00455 218.4 30.9
262(16) 0.00382 218.5 29.0
249(16) 0.00402 218.6 27.4
229(15) 0.00437 218.6 26.0
238(15) 0.00420 218.7 24.9
233(15) 0.00429 218.8 23.9
254(16) 0.00394 218.9 23.0
232(15) 0.00431 219.0 22.3
249(16) 0.00402 219.0 21.7
235(15) 0.00426 219.1 21.2
247(16) 0.00405 219.2 20.8
258(16) 0.00388 219.3 20.5
246(16) 0.00407 219.4 20.3
214(15) 0.00467 219.5 20.1
256(16) 0.00391 219.5 20.0
241(16) 0.00415 219.6 20.0
231(15) 0.00433 219.7 20.1
235(15) 0.00426 219.8 20.2
244(16) 0.00410 219.9 20.4
218(15) 0.00459 220.0 20.7
244(16) 0.00410 220.0 21.0
250(16) 0.00400 220.1 21.5
240(15) 0.00417 220.2 22.0
255(16) 0.00392 220.3 22.6
237(15) 0.00422 220.4 23.2
245(16) 0.00408 220.5 24.0
220(15) 0.00455 220.5 24.9
237(15) 0.00422 220.6 25.9
227(15) 0.00441 220.7 27.0
276(17) 0.00362 220.8 28.2
236(15) 0.00424 220.9 29.6
223(15) 0.00448 220.9 31.1
285(17) 0.00351 221.0 32.7
224(15) 0.00446 221.1 34.5
250(16) 0.00400 221.2 36.5
254(16) 0.00394 221.3 38.6
257(16) 0.00389 221.4 40.9
241(16) 0.00415 221.4 43.3
258(16) 0.00388 221.5 46.0
268(16) 0.00373 221.6 48.8
265(16) 0.00377 221.7 51.8
250(16) 0.00400 221.8 55.0
272(16) 0.00368 221.9 58.5
256(16) 0.00391 221.9 62.0
293(17) 0.003413 222.0 65.8
307(18) 0.003257 222.1 69.7
307(18) 0.003257 222.2 73.8
281(17) 0.00356 222.3 78.1
303(17) 0.003300 222.3 82.5
292(17) 0.003425 222.4 87.0
292(17) 0.003425 222.5 91.5
305(17) 0.003279 222.6 96.2
302(17) 0.003311 222.7 100.8
319(18) 0.003135 222.8 105.4
344(19) 0.002907 222.8 110.0
327(18) 0.003058 222.9 114.4
339(18) 0.002950 223.0 118.6
323(18) 0.003096 223.1 122.6
360(19) 0.002778 223.2 126.2
361(19) 0.002770 223.3 129.5
349(19) 0.002865 223.3 132.3
327(18) 0.003058 223.4 134.5
402(20) 0.002488 223.5 136.2
339(18) 0.002950 223.6 137.3
349(19) 0.002865 223.7 137.8
343(19) 0.002915 223.7 137.6
331(18) 0.003021 223.8 136.7
335(18) 0.002985 223.9 135.3
333(18) 0.003003 224.0 133.4
345(19) 0.002899 224.1 131.0
348(19) 0.002874 224.2 128.2
331(18) 0.003021 224.2 125.1
317(18) 0.003155 224.3 122.0
334(18) 0.002994 224.4 118.9
308(18) 0.003247 224.5 116.1
321(18) 0.003115 224.6 113.7
306(17) 0.003268 224.7 112.0
350(19) 0.002857 224.7 111.1
303(17) 0.003300 224.8 110.7
320(18) 0.003125 224.9 110.4
317(18) 0.003155 225.0 109.0
306(17) 0.003268 225.1 105.1
324(18) 0.003086 225.2 98.4
308(18) 0.003247 225.2 90.2
316(18) 0.003165 225.3 81.7
316(18) 0.003165 225.4 73.9
307(18) 0.003257 225.5 66.9
272(16) 0.00368 225.6 60.9
253(16) 0.00395 225.6 55.8
291(17) 0.003436 225.7 51.3
287(17) 0.003484 225.8 47.5
263(16) 0.00380 225.9 44.0
251(16) 0.00398 226.0 41.0
268(16) 0.00373 226.1 38.2
272(16) 0.00368 226.1 35.6
267(16) 0.00375 226.2 33.3
235(15) 0.00426 226.3 31.2
261(16) 0.00383 226.4 29.2
257(16) 0.00389 226.5 27.4
236(15) 0.00424 226.6 25.8
261(16) 0.00383 226.6 24.3
287(17) 0.003484 226.7 22.9
270(16) 0.00370 226.8 21.7
247(16) 0.00405 226.9 20.5
277(17) 0.00361 227.0 19.4
272(16) 0.00368 227.0 18.5
258(16) 0.00388 227.1 17.6
278(17) 0.00360 227.2 16.8
250(16) 0.00400 227.3 16.0
234(15) 0.00427 227.4 15.3
254(16) 0.00394 227.5 14.7
263(16) 0.00380 227.5 14.1
263(16) 0.00380 227.6 13.6
258(16) 0.00388 227.7 13.1
267(16) 0.00375 227.8 12.6
262(16) 0.00382 227.9 12.2
246(16) 0.00407 228.0 11.8
278(17) 0.00360 228.0 11.4
278(17) 0.00360 228.1 11.1
237(15) 0.00422 228.2 10.7
252(16) 0.00397 228.3 10.4
246(16) 0.00407 228.4 10.2
249(16) 0.00402 228.4 9.9
243(16) 0.00412 228.5 9.6
256(16) 0.00391 228.6 9.4
273(17) 0.00366 228.7 9.2
243(16) 0.00412 228.8 8.9
223(15) 0.00448 228.9 8.7
236(15) 0.00424 228.9 8.5
216(15) 0.00463 229.0 8.3
226(15) 0.00442 229.1 8.2
216(15) 0.00463 229.2 8.0
239(15) 0.00418 229.3 7.8
232(15) 0.00431 229.4 7.7
244(16) 0.00410 229.4 7.5
237(15) 0.00422 229.5 7.4
236(15) 0.00424 229.6 7.2
249(16) 0.00402 229.7 7.1
254(16) 0.00394 229.8 7.0
243(16) 0.00412 229.8 6.8
244(16) 0.00410 229.9 6.7
257(16) 0.00389 230.0 6.6
235(15) 0.00426 230.1 6.5
216(15) 0.00463 230.2 6.4
237(15) 0.00422 230.3 6.3
216(15) 0.00463 230.3 6.2
231(15) 0.00433 230.4 6.1
244(16) 0.00410 230.5 6.0
245(16) 0.00408 230.5 5.9
254(16) 0.00394 230.6 5.9
230(15) 0.00435 230.7 5.8
232(15) 0.00431 230.8 5.7
243(16) 0.00412 230.8 5.6
251(16) 0.00398 230.9 5.6
235(15) 0.00426 231.0 5.5
229(15) 0.00437 231.1 5.4
229(15) 0.00437 231.1 5.4
219(15) 0.00457 231.2 5.3
256(16) 0.00391 231.3 5.3
214(15) 0.00467 231.3 5.2
238(15) 0.00420 231.4 5.2
234(15) 0.00427 231.5 5.1
256(16) 0.00391 231.6 5.1
237(15) 0.00422 231.6 5.0
249(16) 0.00402 231.7 5.0
239(15) 0.00418 231.8 5.0
214(15) 0.00467 231.9 4.9
248(16) 0.00403 231.9 4.9
208(14) 0.00481 232.0 4.9
230(15) 0.00435 232.1 4.8
247(16) 0.00405 232.1 4.8
263(16) 0.00380 232.2 4.8
239(15) 0.00418 232.3 4.8
221(15) 0.00452 232.4 4.8
249(16) 0.00402 232.4 4.7
223(15) 0.00448 232.5 4.7
231(15) 0.00433 232.6 4.7
246(16) 0.00407 232.7 4.7
209(14) 0.00478 232.7 4.7
241(16) 0.00415 232.8 4.7
232(15) 0.00431 232.9 4.7
243(16) 0.00412 232.9 4.7
249(16) 0.00402 233.0 4.7
217(15) 0.00461 233.1 4.7
228(15) 0.00439 233.2 4.8
250(16) 0.00400 233.2 4.8
238(15) 0.00420 233.3 4.8
244(16) 0.00410 233.4 4.8
222(15) 0.00450 233.5 4.9
227(15) 0.00441 233.5 4.9
235(15) 0.00426 233.6 5.0
247(16) 0.00405 233.7 5.0
253(16) 0.00395 233.7 5.1
245(16) 0.00408 233.8 5.2
260(16) 0.00385 233.9 5.2
266(16) 0.00376 234.0 5.3
280(17) 0.00357 234.0 5.4
243(16) 0.00412 234.1 5.6
259(16) 0.00386 234.2 5.7
276(17) 0.00362 234.3 5.8
284(17) 0.00352 234.3 6.0
283(17) 0.00353 234.4 6.2
244(16) 0.00410 234.5 6.4
271(16) 0.00369 234.5 6.6
300(17) 0.003333 234.6 6.9
261(16) 0.00383 234.7 7.2
274(17) 0.00365 234.8 7.6
244(16) 0.00410 234.8 8.1
286(17) 0.003497 234.9 8.6
247(16) 0.00405 235.0 9.3
281(17) 0.00356 235.1 10.1
251(16) 0.00398 235.1 11.1
273(17) 0.00366 235.2 12.4
284(17) 0.00352 235.3 13.9
272(16) 0.00368 235.3 15.8
273(17) 0.00366 235.4 18.2
241(16) 0.00415 235.5 21.0
274(17) 0.00365 235.6 24.3
301(17) 0.003322 235.6 28.1
278(17) 0.00360 235.7 32.5
280(17) 0.00357 235.8 37.2
295(17) 0.003390 235.9 42.2
272(16) 0.00368 235.9 47.2
335(18) 0.002985 236.0 51.7
348(19) 0.002874 236.1 55.4
328(18) 0.003049 236.1 57.5
330(18) 0.003030 236.2 57.9
304(17) 0.003289 236.3 56.3
307(18) 0.003257 236.4 53.2
307(18) 0.003257 236.4 48.9
312(18) 0.003205 236.5 44.1
263(16) 0.00380 236.6 39.2
290(17) 0.003448 236.7 34.5
269(16) 0.00372 236.7 30.1
278(17) 0.00360 236.8 26.2
269(16) 0.00372 236.9 22.8
294(17) 0.003401 236.9 20.0
272(16) 0.00368 237.0 17.6
254(16) 0.00394 237.1 15.7
251(16) 0.00398 237.2 14.2
261(16) 0.00383 237.2 13.0
266(16) 0.00376 237.3 12.1
252(16) 0.00397 237.4 11.4
262(16) 0.00382 237.5 10.9
274(17) 0.00365 237.5 10.5
253(16) 0.00395 237.6 10.3
249(16) 0.00402 237.7 10.2
259(16) 0.00386 237.7 10.1
250(16) 0.00400 237.8 10.1
265(16) 0.00377 237.9 10.1
279(17) 0.00358 238.0 10.3
226(15) 0.00442 238.0 10.4
292(17) 0.003425 238.1 10.6
255(16) 0.00392 238.2 11.3
276(17) 0.00362 238.3 11.6
255(16) 0.00392 238.3 12.0
249(16) 0.00402 238.4 12.3
243(16) 0.00412 238.5 12.7
246(16) 0.00407 238.5 13.2
286(17) 0.003497 238.6 13.6
252(16) 0.00397 238.7 14.1
263(16) 0.00380 238.8 14.7
263(16) 0.00380 238.8 15.2
267(16) 0.00375 238.9 15.8
275(17) 0.00364 239.0 16.3
272(16) 0.00368 239.1 16.9
273(17) 0.00366 239.1 17.5
260(16) 0.00385 239.2 18.1
299(17) 0.003344 239.3 18.7
253(16) 0.00395 239.3 19.3
254(16) 0.00394 239.4 19.8
264(16) 0.00379 239.5 20.3
268(16) 0.00373 239.6 20.8
255(16) 0.00392 239.6 21.6
249(16) 0.00402 239.7 22.0
267(16) 0.00375 239.8 22.3
264(16) 0.00379 239.9 22.7
283(17) 0.00353 239.9 22.8
281(17) 0.00356 240.0 22.9
246(16) 0.00407 240.1 22.9
267(16) 0.00375 240.2 22.8
268(16) 0.00373 240.2 22.7
257(16) 0.00389 240.3 22.4
267(16) 0.00375 240.4 22.1
224(15) 0.00446 240.4 21.7
254(16) 0.00394 240.5 21.2
290(17) 0.003448 240.6 20.7
265(16) 0.00377 240.7 20.2
277(17) 0.00361 240.7 19.6
266(16) 0.00376 240.8 18.9
261(16) 0.00383 240.9 18.3
243(16) 0.00412 241.0 17.7
258(16) 0.00388 241.0 17.0
265(16) 0.00377 241.1 16.4
260(16) 0.00385 241.2 15.7
275(17) 0.00364 241.2 15.1
256(16) 0.00391 241.3 14.5
248(16) 0.00403 241.4 13.8
246(16) 0.00407 241.5 13.3
241(16) 0.00415 241.5 12.7
246(16) 0.00407 241.6 12.1
254(16) 0.00394 241.7 11.6
252(16) 0.00397 241.8 11.1
255(16) 0.00392 241.8 10.6
239(15) 0.00418 241.9 10.2
254(16) 0.00394 242.0 9.7
240(15) 0.00417 242.0 9.3
241(16) 0.00415 242.1 9.0
252(16) 0.00397 242.2 8.6
255(16) 0.00392 242.3 8.3
258(16) 0.00388 242.3 8.0
247(16) 0.00405 242.4 7.7
260(16) 0.00385 242.5 7.4
273(17) 0.00366 242.6 7.2
265(16) 0.00377 242.6 7.0
224(15) 0.00446 242.7 7.8
248(16) 0.00403 242.8 7.6
267(16) 0.00375 242.8 7.5
255(16) 0.00392 242.9 7.3
249(16) 0.00402 243.0 7.2
256(16) 0.00391 243.1 7.1
247(16) 0.00405 243.1 7.0
236(15) 0.00424 243.2 6.8
227(15) 0.00441 243.3 6.8
251(16) 0.00398 243.4 6.7
246(16) 0.00407 243.4 6.6
247(16) 0.00405 243.5 6.5
257(16) 0.00389 243.6 6.5
237(15) 0.00422 243.6 6.4
267(16) 0.00375 243.7 6.4
249(16) 0.00402 243.8 6.4
245(16) 0.00408 243.9 6.3
248(16) 0.00403 243.9 6.3
259(16) 0.00386 244.0 6.3
253(16) 0.00395 244.1 6.3
249(16) 0.00402 244.2 6.2
250(16) 0.00400 244.2 6.2
264(16) 0.00379 244.3 6.2
263(16) 0.00380 244.4 6.2
253(16) 0.00395 244.4 6.2
261(16) 0.00383 244.5 6.2
257(16) 0.00389 244.6 6.2
251(16) 0.00398 244.7 6.2
240(15) 0.00417 244.7 6.2
258(16) 0.00388 244.8 6.2
255(16) 0.00392 244.9 6.3
253(16) 0.00395 245.0 6.3
227(15) 0.00441 245.0 6.3
243(16) 0.00412 245.1 6.4
257(16) 0.00389 245.2 6.4
251(16) 0.00398 245.2 6.5
271(16) 0.00369 245.4 6.5
225(15) 0.00444 245.5 6.5
231(15) 0.00433 245.6 6.5
258(16) 0.00388 245.8 6.6
257(16) 0.00389 245.9 6.6
270(16) 0.00370 246.1 6.6
255(16) 0.00392 246.2 6.7
274(17) 0.00365 246.3 6.7
278(17) 0.00360 246.5 6.8
248(16) 0.00403 246.6 6.8
233(15) 0.00429 246.8 6.8
267(16) 0.00375 246.9 6.9
230(15) 0.00435 247.1 6.9
270(16) 0.00370 247.2 7.0
234(15) 0.00427 247.3 7.0
256(16) 0.00391 247.5 7.1
239(15) 0.00418 247.6 7.1
271(16) 0.00369 247.8 7.2
288(17) 0.003472 247.9 7.3
266(16) 0.00376 248.1 7.3
255(16) 0.00392 248.2 7.4
262(16) 0.00382 248.3 7.5
258(16) 0.00388 248.5 7.5
262(16) 0.00382 248.6 7.6
269(16) 0.00372 248.8 7.7
276(17) 0.00362 248.9 7.7
229(15) 0.00437 249.1 7.8
237(15) 0.00422 249.2 7.9
267(16) 0.00375 249.3 8.0
246(16) 0.00407 249.5 8.1
255(16) 0.00392 249.6 8.1
258(16) 0.00388 249.8 8.2
255(16) 0.00392 249.9 8.3
254(16) 0.00394 250.1 8.4
253(16) 0.00395 250.2 8.5
262(16) 0.00382 250.3 8.6
250(16) 0.00400 250.5 8.7
270(16) 0.00370 250.6 8.8
269(16) 0.00372 250.8 8.9
245(16) 0.00408 250.9 9.1
268(16) 0.00373 251.0 9.2
254(16) 0.00394 251.2 9.3
254(16) 0.00394 251.3 9.4
250(16) 0.00400 251.5 9.5
252(16) 0.00397 251.6 9.7
222(15) 0.00450 251.8 9.8
255(16) 0.00392 251.9 10.6
254(16) 0.00394 252.0 10.7
272(16) 0.00368 252.2 10.9
262(16) 0.00382 252.3 11.0
256(16) 0.00391 252.5 11.2
272(16) 0.00368 252.6 11.4
259(16) 0.00386 252.8 11.5
256(16) 0.00391 252.9 11.7
253(16) 0.00395 253.0 11.9
299(17) 0.003344 253.2 12.1
266(16) 0.00376 253.3 12.3
276(17) 0.00362 253.5 12.6
269(16) 0.00372 253.6 12.8
283(17) 0.00353 253.8 13.0
255(16) 0.00392 253.9 13.2
281(17) 0.00356 254.0 13.5
267(16) 0.00375 254.2 13.7
286(17) 0.003497 254.3 14.0
284(17) 0.00352 254.5 14.3
255(16) 0.00392 254.6 14.6
269(16) 0.00372 254.7 14.9
267(16) 0.00375 254.9 15.2
312(18) 0.003205 255.0 15.5
296(17) 0.003378 255.2 15.8
268(16) 0.00373 255.3 16.2
275(17) 0.00364 255.5 16.5
254(16) 0.00394 255.6 16.9
259(16) 0.00386 255.7 17.3
264(16) 0.00379 255.9 17.7
267(16) 0.00375 256.0 18.1
252(16) 0.00397 256.2 18.6
269(16) 0.00372 256.3 19.0
281(17) 0.00356 256.5 19.5
277(17) 0.00361 256.6 20.0
286(17) 0.003497 256.7 20.6
261(16) 0.00383 256.9 21.2
267(16) 0.00375 257.0 21.8
255(16) 0.00392 257.2 22.4
285(17) 0.00351 257.3 23.1
252(16) 0.00397 257.5 23.8
266(16) 0.00376 257.6 24.5
278(17) 0.00360 257.7 25.3
288(17) 0.003472 257.9 26.2
253(16) 0.00395 258.0 27.1
276(17) 0.00362 258.2 28.1
267(16) 0.00375 258.3 29.1
262(16) 0.00382 258.5 30.2
278(17) 0.00360 258.6 31.4
283(17) 0.00353 258.7 32.7
271(16) 0.00369 258.9 34.1
271(16) 0.00369 259.0 35.6
275(17) 0.00364 259.2 37.2
276(17) 0.00362 259.3 39.0
278(17) 0.00360 259.4 40.9
284(17) 0.00352 259.6 43.0
281(17) 0.00356 259.7 45.2
268(16) 0.00373 259.9 47.8
287(17) 0.003484 260.0 50.5
299(17) 0.003344 260.2 53.6
282(17) 0.00355 260.3 57.0
294(17) 0.003401 260.4 60.8
305(17) 0.003279 260.6 65.1
297(17) 0.003367 260.7 70.0
301(17) 0.003322 260.9 75.5
327(18) 0.003058 261.0 81.8
330(18) 0.003030 261.2 89.2
327(18) 0.003058 261.3 98.0
359(19) 0.002786 261.4 108.6
370(19) 0.002703 261.6 121.6
406(20) 0.002463 261.7 137.9
444(21) 0.002252 261.9 158.8
425(21) 0.002353 262.0 185.7
502(22) 0.001992 262.2 220.5
533(23) 0.001876 262.3 265.3
572(24) 0.001748 262.4 322.3
692(26) 0.001445 262.6 393.4
780(28) 0.001282 262.7 479.6
898(30) 0.001114 262.9 581.2
1087(33) 0.000920 263.0 695.8
1318(36) 0.000759 263. 818.
1483(39) 0.000674 263. 936.
1625(40) 0.000615 263. 1033.
1615(40) 0.000619 264. 1089.
1593(40) 0.000628 264. 1089.
1424(38) 0.000702 264. 1034.
1273(36) 0.000786 264. 939.
1139(34) 0.000878 264.1 824.0
994(32) 0.001006 264.3 706.1
877(30) 0.001140 264.4 596.1
828(29) 0.001208 264.6 499.7
753(27) 0.001328 264.7 419.1
681(26) 0.001468 264.9 354.6
657(26) 0.001522 265.0 305.0
615(25) 0.001626 265.1 268.9
630(25) 0.001587 265.3 244.7
606(25) 0.001650 265.4 230.8
592(24) 0.001689 265.6 226.1
594(24) 0.001684 265.7 229.8
598(24) 0.001672 265.9 241.1
581(24) 0.001721 266.0 259.5
609(25) 0.001642 266.1 284.2
619(25) 0.001616 266.3 313.8
663(26) 0.001508 266.4 345.7
711(27) 0.001406 266.6 375.5
701(26) 0.001427 266.7 397.0
732(27) 0.001366 266.9 404.6
767(28) 0.001304 267.0 395.5
665(26) 0.001504 267.1 372.4
685(26) 0.001460 267.3 340.9
572(24) 0.001748 267.4 307.0
519(23) 0.001927 267.6 274.8
523(23) 0.001912 267.7 246.6
475(22) 0.002105 267.9 223.3
471(22) 0.002123 268.0 205.2
435(21) 0.002299 268.1 192.1
426(21) 0.002347 268.3 183.3
442(21) 0.002262 268.4 178.3
437(21) 0.002288 268.6 176.4
414(20) 0.002415 268.7 177.2
399(20) 0.002506 268.8 180.2
430(21) 0.002326 269.0 185.2
433(21) 0.002309 269.1 191.9
463(22) 0.002160 269.3 200.3
426(21) 0.002347 269.4 210.4
459(21) 0.002179 269.6 222.3
477(22) 0.002096 269.7 236.2
480(22) 0.002083 269.8 252.3
495(22) 0.002020 270.0 271.3
500(22) 0.002000 270.1 293.6
569(24) 0.001757 270.3 320.2
644(25) 0.001553 270.4 352.6
652(26) 0.001534 270.6 393.2
707(27) 0.001414 270.7 445.2
771(28) 0.001297 270.8 513.7
887(30) 0.001127 271.0 605.0
958(31) 0.001044 271.1 727.7
1153(34) 0.000867 271.3 891.2
1237(35) 0.000808 271. 1105.
1464(38) 0.000683 272. 1378.
1876(43) 0.000533 272. 1711.
2178(47) 0.000459 272. 2100.
2720(52) 0.000368 272. 2520.
3098(56) 0.0003228 272. 2920.
3457(59) 0.0002893 272. 3214.
3414(58) 0.0002929 272. 3314.
3131(56) 0.0003194 273. 3182.
2724(52) 0.000367 273. 2865.
2503(50) 0.000400 273. 2454.
2089(46) 0.000479 273. 2031.
1810(43) 0.000552 273. 1643.
1519(39) 0.000658 273. 1313.
1383(37) 0.000723 273. 1044.
1208(35) 0.000828 273.5 832.9
1110(33) 0.000901 273.7 671.9
974(31) 0.001027 273.8 551.0
888(30) 0.001126 274.0 460.7
844(29) 0.001185 274.1 392.9
827(29) 0.001209 274.3 341.1
670(26) 0.001493 274.4 300.6
674(26) 0.001484 274.5 268.2
587(24) 0.001704 274.7 241.5
577(24) 0.001733 274.8 219.3
524(23) 0.001908 275.0 200.3
513(23) 0.001949 275.1 184.1
489(22) 0.002045 275.3 170.0
449(21) 0.002227 275.4 157.8
444(21) 0.002252 275.5 147.1
452(21) 0.002212 275.7 137.7
442(21) 0.002262 275.8 129.4
414(20) 0.002415 276.0 122.2
409(20) 0.002445 276.1 115.7
412(20) 0.002427 276.3 110.0
408(20) 0.002451 276.4 105.0
373(19) 0.002681 276.5 100.6
381(20) 0.002625 276.7 96.6
382(20) 0.002618 276.8 93.2
355(19) 0.002817 277.0 90.2
376(19) 0.002660 277.1 87.5
377(19) 0.002653 277.2 85.3
372(19) 0.002688 277.4 83.3
391(20) 0.002558 277.5 81.7
380(19) 0.002632 277.7 80.4
387(20) 0.002584 277.8 79.3
374(19) 0.002674 278.0 78.6
392(20) 0.002551 278.1 78.1
385(20) 0.002597 278.2 77.8
381(20) 0.002625 278.4 77.8
388(20) 0.002577 278.5 78.1
340(18) 0.002941 278.7 78.6
361(19) 0.002770 278.8 79.5
354(19) 0.002825 279.0 80.6
402(20) 0.002488 279.1 82.1
355(19) 0.002817 279.2 83.9
369(19) 0.002710 279.4 86.1
378(19) 0.002646 279.5 88.7
408(20) 0.002451 279.7 91.9
417(20) 0.002398 279.8 95.7
403(20) 0.002481 280.0 100.3
402(20) 0.002488 280.1 105.8
427(21) 0.002342 280.2 112.3
422(21) 0.002370 280.4 120.2
484(22) 0.002066 280.5 129.7
453(21) 0.002208 280.7 141.2
514(23) 0.001946 280.8 155.1
505(22) 0.001980 281.0 171.7
558(24) 0.001792 281.1 191.6
590(24) 0.001695 281.2 215.2
617(25) 0.001621 281.4 243.0
614(25) 0.001629 281.5 275.5
659(26) 0.001517 281.7 312.8
695(26) 0.001439 281.8 355.4
723(27) 0.001383 281.9 403.2
735(27) 0.001361 282.1 456.1
811(28) 0.001233 282.2 513.6
868(29) 0.001152 282.4 574.6
925(30) 0.001081 282.5 637.8
916(30) 0.001092 282.7 700.8
1051(32) 0.000951 282.8 760.7
1100(33) 0.000909 282.9 813.5
1174(34) 0.000852 283.1 855.0
1239(35) 0.000807 283. 881.
1237(35) 0.000808 283. 889.
1292(36) 0.000774 284. 878.
1252(35) 0.000799 284. 848.
1192(35) 0.000839 283.8 804.2
1159(34) 0.000863 283.9 749.5
1057(33) 0.000946 284.1 688.4
949(31) 0.001054 284.2 624.7
853(29) 0.001172 284.4 561.3
804(28) 0.001244 284.5 500.3
722(27) 0.001385 284.7 443.1
661(26) 0.001513 284.8 390.5
625(25) 0.001600 284.9 343.0
561(24) 0.001783 285.1 300.7
535(23) 0.001869 285.2 263.7
452(21) 0.002212 285.4 231.5
417(20) 0.002398 285.5 203.5
453(21) 0.002208 285.7 180.0
423(21) 0.002364 285.8 160.0
405(20) 0.002469 285.9 143.3
414(20) 0.002415 286.1 129.2
398(20) 0.002513 286.2 117.3
380(19) 0.002632 286.4 107.4
368(19) 0.002717 286.5 99.0
366(19) 0.002732 286.6 91.8
326(18) 0.003067 286.8 85.7
333(18) 0.003003 286.9 80.5
299(17) 0.003344 287.1 75.9
331(18) 0.003021 287.2 71.9
316(18) 0.003165 287.4 68.3
290(17) 0.003448 287.5 65.1
329(18) 0.003039 287.6 62.2
327(18) 0.003058 287.8 59.6
337(18) 0.002967 287.9 57.3
321(18) 0.003115 288.1 55.2
318(18) 0.003145 288.2 53.2
327(18) 0.003058 288.4 51.4
302(17) 0.003311 288.5 49.8
315(18) 0.003175 288.6 48.3
299(17) 0.003344 288.8 47.0
303(17) 0.003300 288.9 45.7
312(18) 0.003205 289.1 44.6
298(17) 0.003356 289.2 43.5
294(17) 0.003401 289.4 42.6
336(18) 0.002976 289.5 41.7
300(17) 0.003333 289.6 40.9
286(17) 0.003497 289.8 40.2
306(17) 0.003268 289.9 39.5
326(18) 0.003067 290.1 38.9
269(16) 0.00372 290.2 38.4
306(17) 0.003268 290.3 37.9
313(18) 0.003195 290.5 37.5
332(18) 0.003012 290.6 37.2
287(17) 0.003484 290.8 36.8
301(17) 0.003322 290.9 36.6
273(17) 0.00366 291.1 36.4
292(17) 0.003425 291.2 36.2
270(16) 0.00370 291.2 36.1
288(17) 0.003472 291.2 36.0
311(18) 0.003215 291.2 36.0
301(17) 0.003322 291.3 36.1
310(18) 0.003226 291.3 36.2
287(17) 0.003484 291.3 36.3
277(17) 0.00361 291.3 36.5
289(17) 0.003460 291.3 36.8
297(17) 0.003367 291.3 37.1
284(17) 0.00352 291.3 37.5
319(18) 0.003135 291.3 38.0
284(17) 0.00352 291.3 38.5
317(18) 0.003155 291.3 39.2
337(18) 0.002967 291.3 40.0
293(17) 0.003413 291.3 40.8
286(17) 0.003497 291.3 41.9
307(18) 0.003257 291.3 43.0
303(17) 0.003300 291.3 44.4
277(17) 0.00361 291.3 46.0
305(17) 0.003279 291.3 48.0
271(16) 0.00369 291.3 50.3
314(18) 0.003185 291.3 53.1
342(18) 0.002924 291.3 56.6
339(18) 0.002950 291.3 61.3
301(17) 0.003322 291.3 67.7
306(17) 0.003268 291.3 76.8
336(18) 0.002976 291.3 90.1
372(19) 0.002688 291.3 109.2
361(19) 0.002770 291.3 135.7
431(21) 0.002320 291.3 169.7
448(21) 0.002232 291.3 207.9
456(21) 0.002193 291.3 239.4
526(23) 0.001901 291.3 247.8
484(22) 0.002066 291.3 228.3
426(21) 0.002347 291.3 194.2
412(20) 0.002427 291.3 160.2
392(20) 0.002551 291.3 132.9
356(19) 0.002809 291.3 113.3
375(19) 0.002667 291.4 100.3
319(18) 0.003135 291.4 92.3
322(18) 0.003106 291.4 87.7
314(18) 0.003185 291.4 85.3
332(18) 0.003012 291.4 84.3
367(19) 0.002725 291.4 84.2
349(19) 0.002865 291.4 84.8
370(19) 0.002703 291.4 85.8
342(18) 0.002924 291.4 87.3
339(18) 0.002950 291.4 88.9
341(18) 0.002933 291.4 91.0
339(18) 0.002950 291.4 93.2
349(19) 0.002865 291.4 95.6
349(19) 0.002865 291.4 98.3
364(19) 0.002747 291.4 101.1
367(19) 0.002725 291.4 104.1
398(20) 0.002513 291.4 107.2
402(20) 0.002488 291.4 110.5
377(19) 0.002653 291.4 113.9
399(20) 0.002506 291.4 117.5
398(20) 0.002513 291.4 121.2
410(20) 0.002439 291.4 125.2
436(21) 0.002294 291.4 129.3
385(20) 0.002597 291.4 133.6
420(20) 0.002381 291.4 138.2
419(20) 0.002387 291.4 143.0
436(21) 0.002294 291.4 148.1
422(21) 0.002370 291.4 153.6
452(21) 0.002212 291.4 159.5
433(21) 0.002309 291.4 165.8
478(22) 0.002092 291.4 172.6
473(22) 0.002114 291.4 179.9
450(21) 0.002222 291.4 187.8
450(21) 0.002222 291.4 196.4
489(22) 0.002045 291.5 205.6
495(22) 0.002020 291.5 215.6
512(23) 0.001953 291.5 226.3
519(23) 0.001927 291.5 237.8
579(24) 0.001727 291.5 249.9
559(24) 0.001789 291.5 262.7
586(24) 0.001706 291.5 276.1
634(25) 0.001577 291.5 289.8
671(26) 0.001490 291.5 303.7
650(25) 0.001538 291.5 317.6
674(26) 0.001484 291.5 330.9
729(27) 0.001372 291.5 343.3
712(27) 0.001404 291.5 354.3
709(27) 0.001410 291.5 363.2
760(28) 0.001316 291.5 369.5
753(27) 0.001328 291.5 372.8
751(27) 0.001332 291.5 372.8
700(26) 0.001429 291.5 369.6
651(26) 0.001536 291.5 363.3
671(26) 0.001490 291.5 354.4
616(25) 0.001623 291.5 343.4
643(25) 0.001555 291.5 331.0
614(25) 0.001629 291.5 317.7
580(24) 0.001724 291.5 304.0
568(24) 0.001761 291.5 290.4
547(23) 0.001828 291.5 277.2
565(24) 0.001770 291.5 264.8
559(24) 0.001789 291.5 253.2
529(23) 0.001890 291.5 242.8
503(22) 0.001988 291.5 233.5
512(23) 0.001953 291.5 225.5
502(22) 0.001992 291.5 218.9
516(23) 0.001938 291.5 213.7
514(23) 0.001946 291.5 210.0
490(22) 0.002041 291.5 207.7
474(22) 0.002110 291.6 207.0
510(23) 0.001961 291.6 207.9
511(23) 0.001957 291.6 210.6
502(22) 0.001992 291.6 215.1
525(23) 0.001905 291.6 221.6
559(24) 0.001789 291.6 230.4
499(22) 0.002004 291.6 241.7
497(22) 0.002012 291.6 255.8
555(24) 0.001802 291.6 273.1
545(23) 0.001835 291.6 293.9
587(24) 0.001704 291.6 318.8
576(24) 0.001736 291.6 348.1
595(24) 0.001681 291.6 382.4
648(25) 0.001543 291.6 422.2
648(25) 0.001543 291.6 467.9
745(27) 0.001342 291.6 519.7
787(28) 0.001271 291.6 578.2
802(28) 0.001247 291.6 643.3
886(30) 0.001129 291.6 715.3
990(31) 0.001010 291.6 793.6
1065(33) 0.000939 291.6 878.0
1219(35) 0.000820 291.6 967.6
1362(37) 0.000734 292. 1061.
1488(39) 0.000672 292. 1156.
1547(39) 0.000646 292. 1252.
1648(41) 0.000607 292. 1343.
1706(41) 0.000586 292. 1427.
1792(42) 0.000558 292. 1499.
1738(42) 0.000575 292. 1555.
1727(42) 0.000579 292. 1591.
1603(40) 0.000624 292. 1605.
1619(40) 0.000618 292. 1596.
1584(40) 0.000631 292. 1566.
1474(38) 0.000678 292. 1517.
1477(38) 0.000677 292. 1454.
1388(37) 0.000720 292. 1381.
1351(37) 0.000740 292. 1302.
1234(35) 0.000810 292. 1221.
1193(35) 0.000838 291.7 1141.2
1105(33) 0.000905 291.7 1063.3
1120(33) 0.000893 291.7 988.8
991(31) 0.001009 291.7 917.8
1035(32) 0.000966 291.7 850.3
1021(32) 0.000979 291.7 785.5
919(30) 0.001088 291.7 723.2
970(31) 0.001031 291.7 663.0
917(30) 0.001091 291.7 604.9
864(29) 0.001157 291.7 549.6
825(29) 0.001212 291.7 497.3
776(28) 0.001289 291.7 448.8
726(27) 0.001377 291.7 404.2
698(26) 0.001433 291.7 363.8
695(26) 0.001439 291.7 327.5
599(24) 0.001669 291.7 295.2
581(24) 0.001721 291.7 266.6
575(24) 0.001739 291.7 241.4
541(23) 0.001848 291.7 219.3
567(24) 0.001764 291.7 200.0
531(23) 0.001883 291.7 183.1
473(22) 0.002114 291.7 168.5
480(22) 0.002083 291.7 155.7
441(21) 0.002268 291.7 144.5
467(22) 0.002141 291.7 134.7
450(21) 0.002222 291.7 126.1
437(21) 0.002288 291.7 118.5
423(21) 0.002364 291.7 111.7
415(20) 0.002410 291.7 105.6
397(20) 0.002519 291.7 100.2
422(21) 0.002370 291.7 95.3
386(20) 0.002591 291.8 90.8
398(20) 0.002513 291.8 86.8
363(19) 0.002755 291.8 83.0
342(18) 0.002924 291.8 79.6
345(19) 0.002899 291.8 76.4
385(20) 0.002597 291.8 73.5
344(19) 0.002907 291.8 70.7
353(19) 0.002833 291.8 68.2
343(19) 0.002915 291.8 65.8
349(19) 0.002865 291.8 63.7
326(18) 0.003067 291.8 61.7
339(18) 0.002950 291.8 59.8
309(18) 0.003236 291.8 58.1
326(18) 0.003067 291.8 56.5
341(18) 0.002933 291.8 55.0
347(19) 0.002882 291.8 53.7
320(18) 0.003125 291.8 52.5
297(17) 0.003367 291.8 51.4
323(18) 0.003096 291.8 50.5
326(18) 0.003067 291.8 49.7
314(18) 0.003185 291.8 49.0
312(18) 0.003205 291.8 48.4
314(18) 0.003185 291.8 48.0
324(18) 0.003086 291.8 47.7
308(18) 0.003247 291.8 47.6
335(18) 0.002985 291.8 47.6
324(18) 0.003086 291.8 47.8
330(18) 0.003030 291.8 48.1
304(17) 0.003289 291.8 48.6
333(18) 0.003003 291.8 49.2
293(17) 0.003413 291.8 50.0
322(18) 0.003106 291.8 50.9
312(18) 0.003205 291.8 51.9
319(18) 0.003135 291.8 53.0
305(17) 0.003279 291.9 54.3
306(17) 0.003268 291.9 55.6
289(17) 0.003460 291.9 57.0
313(18) 0.003195 291.9 58.3
346(19) 0.002890 291.9 59.6
293(17) 0.003413 291.9 60.8
298(17) 0.003356 291.9 61.9
319(18) 0.003135 291.9 62.7
282(17) 0.00355 291.9 63.2
309(18) 0.003236 291.9 63.5
300(17) 0.003333 291.9 63.3
343(19) 0.002915 291.9 62.8
306(17) 0.003268 291.9 61.8
311(18) 0.003215 291.9 60.6
282(17) 0.00355 291.9 59.0
314(18) 0.003185 291.9 57.2
332(18) 0.003012 291.9 55.2
293(17) 0.003413 291.9 53.1
307(18) 0.003257 291.9 50.9
283(17) 0.00353 291.9 48.7
285(17) 0.00351 291.9 46.5
288(17) 0.003472 291.9 44.3
305(17) 0.003279 291.9 42.2
309(18) 0.003236 291.9 40.2
289(17) 0.003460 291.9 38.4
287(17) 0.003484 291.9 36.6
282(17) 0.00355 291.9 34.9
320(18) 0.003125 291.9 33.4
293(17) 0.003413 291.9 32.0
305(17) 0.003279 291.9 30.7
281(17) 0.00356 291.9 29.5
286(17) 0.003497 291.9 28.5
295(17) 0.003390 291.9 27.5
290(17) 0.003448 291.9 26.7
282(17) 0.00355 291.9 25.9
286(17) 0.003497 292.0 25.2
279(17) 0.00358 292.0 24.6
306(17) 0.003268 292.0 24.1
310(18) 0.003226 292.0 23.7
316(18) 0.003165 291.9 23.3
301(17) 0.003322 291.9 22.9
280(17) 0.00357 291.8 22.6
292(17) 0.003425 291.8 22.4
268(16) 0.00373 291.8 22.1
278(17) 0.00360 291.7 22.0
297(17) 0.003367 291.7 21.8
277(17) 0.00361 291.6 21.7
274(17) 0.00365 291.6 21.6
294(17) 0.003401 291.6 21.6
281(17) 0.00356 291.5 21.6
322(18) 0.003106 291.5 21.6
305(17) 0.003279 291.5 21.6
270(16) 0.00370 291.4 21.7
271(16) 0.00369 291.4 21.8
275(17) 0.00364 291.3 22.0
308(18) 0.003247 291.3 22.1
293(17) 0.003413 291.3 22.4
296(17) 0.003378 291.2 22.7
277(17) 0.00361 291.2 23.0
303(17) 0.003300 291.2 23.3
320(18) 0.003125 291.1 23.7
295(17) 0.003390 291.1 24.2
305(17) 0.003279 291.0 24.7
299(17) 0.003344 291.0 25.4
295(17) 0.003390 291.0 26.1
293(17) 0.003413 290.9 26.8
286(17) 0.003497 290.9 27.7
315(18) 0.003175 290.9 28.8
294(17) 0.003401 290.8 29.9
365(19) 0.002740 290.8 31.1
336(18) 0.002976 290.7 32.6
308(18) 0.003247 290.7 34.1
302(17) 0.003311 290.7 35.9
340(18) 0.002941 290.6 37.8
317(18) 0.003155 290.6 39.9
318(18) 0.003145 290.6 42.3
343(19) 0.002915 290.5 44.8
329(18) 0.003039 290.5 47.6
307(18) 0.003257 290.4 50.6
332(18) 0.003012 290.4 53.9
364(19) 0.002747 290.4 57.4
332(18) 0.003012 290.3 61.1
321(18) 0.003115 290.3 65.1
342(18) 0.002924 290.2 69.4
352(19) 0.002841 290.2 73.8
349(19) 0.002865 290.2 78.5
361(19) 0.002770 290.1 83.3
384(20) 0.002604 290.1 88.3
378(19) 0.002646 290.1 93.4
334(18) 0.002994 290.0 98.6
361(19) 0.002770 290.0 103.8
343(19) 0.002915 289.9 108.9
335(18) 0.002985 289.9 113.9
394(20) 0.002538 289.9 118.6
363(19) 0.002755 289.8 123.0
361(19) 0.002770 289.8 127.0
382(20) 0.002618 289.8 130.5
407(20) 0.002457 289.7 133.3
395(20) 0.002532 289.7 135.3
367(19) 0.002725 289.6 136.6
390(20) 0.002564 289.6 137.0
397(20) 0.002519 289.6 136.6
385(20) 0.002597 289.5 135.3
404(20) 0.002475 289.5 133.2
408(20) 0.002451 289.5 130.4
349(19) 0.002865 289.4 127.0
403(20) 0.002481 289.4 123.1
398(20) 0.002513 289.3 118.7
399(20) 0.002506 289.3 114.1
357(19) 0.002801 289.3 109.3
342(18) 0.002924 289.2 104.4
343(19) 0.002915 289.2 99.4
341(18) 0.002933 289.2 94.5
360(19) 0.002778 289.1 89.7
366(19) 0.002732 289.1 85.0
350(19) 0.002857 289.0 80.5
299(17) 0.003344 289.0 76.2
317(18) 0.003155 289.0 72.2
337(18) 0.002967 288.9 68.3
316(18) 0.003165 288.9 64.8
312(18) 0.003205 288.8 61.5
324(18) 0.003086 288.8 58.4
296(17) 0.003378 288.8 55.7
314(18) 0.003185 288.7 53.1
291(17) 0.003436 288.7 50.9
287(17) 0.003484 288.7 48.9
295(17) 0.003390 288.6 47.1
361(19) 0.002770 288.6 45.5
311(18) 0.003215 288.5 44.2
301(17) 0.003322 288.5 43.1
325(18) 0.003077 288.5 42.1
322(18) 0.003106 288.4 41.4
303(17) 0.003300 288.4 40.8
336(18) 0.002976 288.4 40.3
317(18) 0.003155 288.3 40.0
310(18) 0.003226 288.3 39.8
331(18) 0.003021 288.2 39.7
320(18) 0.003125 288.2 39.7
349(19) 0.002865 288.2 39.8
332(18) 0.003012 288.1 40.0
343(19) 0.002915 288.1 40.3
333(18) 0.003003 288.1 40.6
319(18) 0.003135 288.0 40.9
323(18) 0.003096 288.0 41.3
324(18) 0.003086 287.9 41.8
291(17) 0.003436 287.9 42.2
313(18) 0.003195 287.9 42.6
337(18) 0.002967 287.8 43.1
336(18) 0.002976 287.8 43.5
298(17) 0.003356 287.7 43.9
287(17) 0.003484 287.7 44.3
328(18) 0.003049 287.7 44.7
341(18) 0.002933 287.6 45.0
304(17) 0.003289 287.6 45.3
338(18) 0.002959 287.6 45.5
293(17) 0.003413 287.5 45.6
304(17) 0.003289 287.5 45.7
349(19) 0.002865 287.4 45.7
304(17) 0.003289 287.4 45.6
338(18) 0.002959 287.4 45.5
306(17) 0.003268 287.3 45.2
313(18) 0.003195 287.3 44.9
322(18) 0.003106 287.3 44.5
318(18) 0.003145 287.2 44.0
314(18) 0.003185 287.2 43.5
304(17) 0.003289 287.1 42.9
315(18) 0.003175 287.1 42.2
326(18) 0.003067 287.1 41.4
354(19) 0.002825 287.0 40.7
302(17) 0.003311 287.0 39.8
293(17) 0.003413 287.0 38.9
312(18) 0.003205 286.9 38.0
308(18) 0.003247 286.9 37.1
287(17) 0.003484 286.8 36.2
339(18) 0.002950 286.8 35.2
326(18) 0.003067 286.8 34.2
321(18) 0.003115 286.7 33.3
306(17) 0.003268 286.7 32.3
299(17) 0.003344 286.7 31.3
299(17) 0.003344 286.6 30.4
329(18) 0.003039 286.6 29.4
298(17) 0.003356 286.5 28.5
302(17) 0.003311 286.5 27.6
313(18) 0.003195 286.5 26.6
294(17) 0.003401 286.4 25.8
301(17) 0.003322 286.4 24.9
296(17) 0.003378 286.3 24.1
279(17) 0.00358 286.3 23.3
316(18) 0.003165 286.3 22.5
294(17) 0.003401 286.2 21.7
298(17) 0.003356 286.2 21.0
314(18) 0.003185 286.2 20.3
306(17) 0.003268 286.1 19.6
343(19) 0.002915 286.1 18.9
283(17) 0.00353 286.0 18.3
302(17) 0.003311 286.0 17.7
297(17) 0.003367 286.0 17.1
322(18) 0.003106 285.9 16.6
321(18) 0.003115 285.9 16.1
312(18) 0.003205 285.9 15.6
289(17) 0.003460 285.8 15.1
311(18) 0.003215 285.8 14.6
277(17) 0.00361 285.7 14.2
313(18) 0.003195 285.7 13.8
302(17) 0.003311 285.7 13.4
327(18) 0.003058 285.6 13.1
299(17) 0.003344 285.6 12.7
288(17) 0.003472 285.6 12.4
305(17) 0.003279 285.5 12.1
282(17) 0.00355 285.5 11.9
298(17) 0.003356 285.4 11.6
281(17) 0.00356 285.4 11.3
272(16) 0.00368 285.4 11.1
287(17) 0.003484 285.3 10.9
286(17) 0.003497 285.3 10.7
278(17) 0.00360 285.3 10.5
278(17) 0.00360 285.2 10.3
266(16) 0.00376 285.2 10.2
298(17) 0.003356 285.1 10.0
290(17) 0.003448 285.1 9.9
288(17) 0.003472 285.1 9.8
312(18) 0.003205 285.0 9.6
287(17) 0.003484 285.0 9.5
313(18) 0.003195 284.9 9.4
298(17) 0.003356 284.9 9.3
273(17) 0.00366 284.9 9.3
309(18) 0.003236 284.8 9.2
286(17) 0.003497 284.8 9.1
269(16) 0.00372 284.8 9.1
277(17) 0.00361 284.7 9.0
311(18) 0.003215 284.7 9.0
290(17) 0.003448 284.6 8.9
286(17) 0.003497 284.6 8.9
298(17) 0.003356 284.6 8.9
301(17) 0.003322 284.5 8.9
278(17) 0.00360 284.5 8.9
295(17) 0.003390 284.5 8.8
292(17) 0.003425 284.4 8.9
287(17) 0.003484 284.4 8.9
278(17) 0.00360 284.3 8.9
293(17) 0.003413 284.3 8.9
290(17) 0.003448 284.3 9.0
302(17) 0.003311 284.2 9.0
310(18) 0.003226 284.2 9.0
270(16) 0.00370 284.2 9.1
293(17) 0.003413 284.1 9.2
289(17) 0.003460 284.1 9.3
287(17) 0.003484 284.1 9.4
283(17) 0.00353 284.1 9.5
298(17) 0.003356 284.1 9.6
293(17) 0.003413 284.1 9.7
280(17) 0.00357 284.1 9.9
288(17) 0.003472 284.2 10.1
326(18) 0.003067 284.2 10.2
260(16) 0.00385 284.2 10.5
296(17) 0.003378 284.2 10.7
264(16) 0.00379 284.2 11.0
286(17) 0.003497 284.3 11.3
271(16) 0.00369 284.3 11.6
280(17) 0.00357 284.3 12.0
306(17) 0.003268 284.3 12.4
292(17) 0.003425 284.3 12.9
288(17) 0.003472 284.4 13.5
300(17) 0.003333 284.4 14.1
283(17) 0.00353 284.4 14.9
311(18) 0.003215 284.4 15.8
279(17) 0.00358 284.4 16.9
308(18) 0.003247 284.5 18.2
320(18) 0.003125 284.5 19.9
291(17) 0.003436 284.5 22.0
298(17) 0.003356 284.5 24.7
302(17) 0.003311 284.5 28.1
322(18) 0.003106 284.6 32.3
310(18) 0.003226 284.6 37.7
356(19) 0.002809 284.6 44.3
344(19) 0.002907 284.6 52.1
291(17) 0.003436 284.6 61.4
319(18) 0.003135 284.7 71.8
356(19) 0.002809 284.7 83.0
338(18) 0.002959 284.7 94.4
338(18) 0.002959 284.7 104.7
367(19) 0.002725 284.7 112.4
373(19) 0.002681 284.8 116.0
369(19) 0.002710 284.8 114.6
347(19) 0.002882 284.8 108.7
357(19) 0.002801 284.8 99.6
348(19) 0.002874 284.8 88.9
354(19) 0.002825 284.9 78.0
299(17) 0.003344 284.9 67.6
317(18) 0.003155 284.9 58.4
340(18) 0.002941 284.9 50.5
320(18) 0.003125 284.9 43.9
310(18) 0.003226 285.0 38.6
317(18) 0.003155 285.0 34.4
298(17) 0.003356 285.0 31.2
320(18) 0.003125 285.0 28.7
308(18) 0.003247 285.0 26.9
327(18) 0.003058 285.1 25.5
350(19) 0.002857 285.1 24.5
294(17) 0.0 0.0 .
311(18) 0.0 0.0 .
345(19) 0.0 0.0 .
317(18) 0.0 0.0 .
327(18) 0.0 0.0 .
318(18) 0.0 0.0 .
289(17) 0.0 0.0 .
298(17) 0.0 0.0 .
314(18) 0.0 0.0 .
332(18) 0.0 0.0 .
299(17) 0.0 0.0 .
330(18) 0.0 0.0 .
329(18) 0.0 0.0 .
350(19) 0.0 0.0 .
350(19) 0.0 0.0 .
334(18) 0.0 0.0 .
306(17) 0.0 0.0 .
329(18) 0.0 0.0 .
337(18) 0.0 0.0 .
334(18) 0.0 0.0 .
319(18) 0.0 0.0 .
315(18) 0.0 0.0 .
339(18) 0.0 0.0 .
398(20) 0.0 0.0 .
344(19) 0.0 0.0 .
356(19) 0.0 0.0 .
354(19) 0.0 0.0 .
389(20) 0.0 0.0 .
405(20) 0.0 0.0 .
347(19) 0.0 0.0 .
327(18) 0.0 0.0 .
341(18) 0.0 0.0 .
345(19) 0.0 0.0 .
367(19) 0.0 0.0 .
378(19) 0.0 0.0 .
354(19) 0.0 0.0 .
357(19) 0.0 0.0 .
371(19) 0.0 0.0 .
366(19) 0.0 0.0 .
374(19) 0.0 0.0 .
365(19) 0.0 0.0 .
372(19) 0.0 0.0 .
353(19) 0.0 0.0 .
348(19) 0.0 0.0 .
373(19) 0.0 0.0 .
365(19) 0.0 0.0 .
381(20) 0.0 0.0 .
379(19) 0.0 0.0 .
377(19) 0.0 0.0 .
420(20) 0.0 0.0 .
461(21) 0.0 0.0 .
398(20) 0.0 0.0 .
372(19) 0.0 0.0 .
390(20) 0.0 0.0 .
413(20) 0.0 0.0 .
427(21) 0.0 0.0 .
461(21) 0.0 0.0 .
406(20) 0.0 0.0 .
441(21) 0.0 0.0 .
449(21) 0.0 0.0 .
435(21) 0.0 0.0 .
469(22) 0.0 0.0 .
479(22) 0.0 0.0 .
458(21) 0.0 0.0 .
467(22) 0.0 0.0 .
493(22) 0.0 0.0 .
493(22) 0.0 0.0 .
525(23) 0.0 0.0 .
514(23) 0.0 0.0 .
565(24) 0.0 0.0 .
542(23) 0.0 0.0 .
563(24) 0.0 0.0 .
612(25) 0.0 0.0 .
607(25) 0.0 0.0 .
592(24) 0.0 0.0 .
655(26) 0.0 0.0 .
597(24) 0.0 0.0 .
713(27) 0.0 0.0 .
689(26) 0.0 0.0 .
695(26) 0.0 0.0 .
798(28) 0.0 0.0 .
822(29) 0.0 0.0 .
889(30) 0.0 0.0 .
919(30) 0.0 0.0 .
997(32) 0.0 0.0 .
1100(33) 0.0 0.0 .
1172(34) 0.0 0.0 .
1255(35) 0.0 0. .
1413(38) 0.0 0. .
1668(41) 0.0 0. .
1780(42) 0.0 0. .
2102(46) 0.0 0. .
2476(50) 0.0 0. .
2974(55) 0.0 0. .
3581(60) 0.0 0. .
4548(67) 0.0 0. .
5748(76) 0.0 0. .
7819(88) 0.0 0. .
10960(110) 0.0 0. .
15750(130) 0.0 0. .
24550(160) 0.0 0. .
39900(200) 0.0 0. .
67770(260) 0.0 0. .
110080(330) 0.0 0. .
136700(370) 0.0 0. .
121550(350) 0.0 0. .
80860(280) 0.0 0. .
46410(220) 0.0 0. .
28000(170) 0.0 0. .
17610(130) 0.0 0. .
11770(110) 0.0 0. .
8641(93) 0.0 0. .
6294(79) 0.0 0. .
4846(70) 0.0 0. .
3882(62) 0.0 0. .
3141(56) 0.0 0. .
2689(52) 0.0 0. .
2251(47) 0.0 0. .
1920(44) 0.0 0. .
1691(41) 0.0 0. .
1530(39) 0.0 0. .
1337(37) 0.0 0. .
1228(35) 0.0 0.0 .
1201(35) 0.0 0.0 .
1071(33) 0.0 0.0 .
1004(32) 0.0 0.0 .
955(31) 0.0 0.0 .
869(29) 0.0 0.0 .
870(29) 0.0 0.0 .
761(28) 0.0 0.0 .
743(27) 0.0 0.0 .
674(26) 0.0 0.0 .
647(25) 0.0 0.0 .
603(25) 0.0 0.0 .
649(25) 0.0 0.0 .
623(25) 0.0 0.0 .
590(24) 0.0 0.0 .
553(24) 0.0 0.0 .
578(24) 0.0 0.0 .
573(24) 0.0 0.0 .
515(23) 0.0 0.0 .
516(23) 0.0 0.0 .
492(22) 0.0 0.0 .
456(21) 0.0 0.0 .
477(22) 0.0 0.0 .
484(22) 0.0 0.0 .
487(22) 0.0 0.0 .
484(22) 0.0 0.0 .
475(22) 0.0 0.0 .
425(21) 0.0 0.0 .
437(21) 0.0 0.0 .
452(21) 0.0 0.0 .
426(21) 0.0 0.0 .
428(21) 0.0 0.0 .
434(21) 0.0 0.0 .
448(21) 0.0 0.0 .
434(21) 0.0 0.0 .
427(21) 0.0 0.0 .
414(20) 0.0 0.0 .
410(20) 0.0 0.0 .
433(21) 0.0 0.0 .
402(20) 0.0 0.0 .
430(21) 0.0 0.0 .
418(20) 0.0 0.0 .
372(19) 0.0 0.0 .
381(20) 0.0 0.0 .
401(20) 0.0 0.0 .
383(20) 0.0 0.0 .
384(20) 0.0 0.0 .
360(19) 0.0 0.0 .
376(19) 0.0 0.0 .
397(20) 0.0 0.0 .
406(20) 0.0 0.0 .
375(19) 0.0 0.0 .
408(20) 0.0 0.0 .
402(20) 0.0 0.0 .
392(20) 0.0 0.0 .
350(19) 0.0 0.0 .
378(19) 0.0 0.0 .
343(19) 0.0 0.0 .
366(19) 0.0 0.0 .
341(18) 0.002933 288.7 16.9
332(18) 0.003012 288.7 16.5
360(19) 0.002778 288.7 16.0
373(19) 0.002681 288.7 15.6
320(18) 0.003125 288.8 15.3
348(19) 0.002874 288.8 14.9
378(19) 0.002646 288.8 14.6
351(19) 0.002849 288.8 14.4
348(19) 0.002874 288.8 14.1
317(18) 0.003155 288.9 13.9
339(18) 0.002950 288.9 13.8
342(18) 0.002924 288.9 13.7
348(19) 0.002874 288.9 13.6
343(19) 0.002915 288.9 13.6
348(19) 0.002874 289.0 13.6
340(18) 0.002941 289.0 13.7
369(19) 0.002710 289.0 13.9
350(19) 0.002857 289.0 14.1
387(20) 0.002584 289.0 14.4
373(19) 0.002681 289.1 14.7
347(19) 0.002882 289.1 15.0
358(19) 0.002793 289.1 15.4
336(18) 0.002976 289.1 15.9
353(19) 0.002833 289.1 16.4
324(18) 0.003086 289.2 16.8
356(19) 0.002809 289.2 17.3
347(19) 0.002882 289.2 17.8
345(19) 0.002899 289.2 18.1
330(18) 0.003030 289.2 18.4
357(19) 0.002801 289.3 18.6
366(19) 0.002732 289.3 18.7
354(19) 0.002825 289.3 18.6
320(18) 0.003125 289.3 18.3
332(18) 0.003012 289.3 18.0
309(18) 0.003236 289.4 17.5
333(18) 0.003003 289.4 16.9
331(18) 0.003021 289.4 16.3
296(17) 0.003378 289.4 15.6
304(17) 0.003289 289.4 14.9
324(18) 0.003086 289.5 14.3
338(18) 0.002959 289.5 13.6
353(19) 0.002833 289.5 13.0
328(18) 0.003049 289.5 12.4
337(18) 0.002967 289.5 11.9
327(18) 0.003058 289.6 11.4
302(17) 0.003311 289.6 10.9
301(17) 0.003322 289.6 10.5
319(18) 0.003135 289.6 10.2
322(18) 0.003106 289.6 9.8
310(18) 0.003226 289.7 9.6
303(17) 0.003300 289.7 9.3
298(17) 0.003356 289.7 9.1
314(18) 0.003185 289.7 8.9
295(17) 0.003390 289.7 8.7
327(18) 0.003058 289.8 8.6
332(18) 0.003012 289.8 8.4
315(18) 0.003175 289.8 8.3
342(18) 0.002924 289.8 8.2
329(18) 0.003039 289.8 8.1
290(17) 0.003448 289.9 8.1
343(19) 0.002915 289.9 8.0
341(18) 0.002933 289.9 8.0
344(19) 0.002907 289.9 7.9
322(18) 0.003106 289.9 7.9
320(18) 0.003125 290.0 7.8
333(18) 0.003003 290.0 7.8
336(18) 0.002976 290.0 7.8
301(17) 0.003322 290.0 7.7
308(18) 0.003247 290.0 7.7
318(18) 0.003145 290.1 7.7
310(18) 0.003226 290.1 7.7
298(17) 0.003356 290.1 7.7
325(18) 0.003077 290.1 7.7
310(18) 0.003226 290.1 7.7
310(18) 0.003226 290.2 7.7
315(18) 0.003175 290.2 7.7
323(18) 0.003096 290.2 7.7
311(18) 0.003215 290.2 7.7
309(18) 0.003236 290.2 7.7
315(18) 0.003175 290.3 7.7
298(17) 0.003356 290.3 7.7
306(17) 0.003268 290.3 7.7
287(17) 0.003484 290.3 7.7
309(18) 0.003236 290.3 7.8
288(17) 0.003472 290.4 7.8
299(17) 0.003344 290.4 7.8
300(17) 0.003333 290.4 7.8
298(17) 0.003356 290.4 7.9
282(17) 0.00355 290.4 7.9
298(17) 0.003356 290.4 7.9
299(17) 0.003344 290.5 7.9
322(18) 0.003106 290.5 8.0
296(17) 0.003378 290.5 8.0
293(17) 0.003413 290.5 8.0
300(17) 0.003333 290.5 8.1
300(17) 0.003333 290.6 8.1
280(17) 0.00357 290.6 8.2
336(18) 0.002976 290.6 8.2
286(17) 0.003497 290.6 8.3
303(17) 0.003300 290.6 8.3
310(18) 0.003226 290.7 8.3
269(16) 0.00372 290.7 8.4
335(18) 0.002985 290.7 8.5
325(18) 0.003077 290.7 8.5
273(17) 0.00366 290.7 8.6
292(17) 0.003425 290.8 8.6
307(18) 0.003257 290.8 8.7
300(17) 0.003333 290.8 8.8
330(18) 0.003030 290.8 8.8
293(17) 0.003413 290.8 8.9
315(18) 0.003175 290.9 9.0
293(17) 0.003413 290.9 9.0
320(18) 0.003125 290.9 9.1
312(18) 0.003205 290.9 9.2
317(18) 0.003155 290.9 9.3
288(17) 0.003472 291.1 9.3
310(18) 0.003226 291.3 9.4
302(17) 0.003311 291.6 9.5
305(17) 0.003279 291.8 9.6
272(16) 0.00368 292.0 9.7
279(17) 0.00358 292.2 9.8
268(16) 0.00373 292.4 9.9
307(18) 0.003257 292.6 10.0
317(18) 0.003155 292.9 10.1
291(17) 0.003436 293.1 10.2
292(17) 0.003425 293.3 10.3
327(18) 0.003058 293.5 10.4
302(17) 0.003311 293.7 10.6
303(17) 0.003300 294.0 10.7
310(18) 0.003226 294.2 10.8
328(18) 0.003049 294.4 11.6
306(17) 0.003268 294.6 11.7
319(18) 0.003135 294.8 11.9
305(17) 0.003279 295.1 12.0
318(18) 0.003145 295.3 12.1
310(18) 0.003226 295.5 12.3
345(19) 0.002899 295.7 12.5
350(19) 0.002857 295.9 12.6
363(19) 0.002755 296.2 12.8
343(19) 0.002915 296.4 13.0
369(19) 0.002710 296.6 13.1
342(18) 0.002924 296.8 13.3
319(18) 0.003135 297.0 13.5
302(17) 0.003311 297.2 13.7
306(17) 0.003268 297.5 13.9
326(18) 0.003067 297.7 14.1
320(18) 0.003125 297.9 14.3
287(17) 0.003484 298.1 14.5
317(18) 0.003155 298.3 14.7
322(18) 0.003106 298.6 14.9
312(18) 0.003205 298.8 15.2
322(18) 0.003106 299.0 15.4
334(18) 0.002994 299.2 15.7
332(18) 0.003012 299.4 15.9
318(18) 0.003145 299.7 16.2
323(18) 0.003096 299.9 16.5
330(18) 0.003030 300.1 16.8
339(18) 0.002950 300.3 17.1
306(17) 0.003268 300.5 17.4
316(18) 0.003165 300.8 17.7
310(18) 0.003226 301.0 18.1
300(17) 0.003333 301.2 18.4
347(19) 0.002882 301.4 18.8
310(18) 0.003226 301.6 19.4
307(18) 0.003257 301.8 19.8
301(17) 0.003322 302.1 20.2
299(17) 0.003344 302.3 20.7
309(18) 0.003236 302.5 21.1
334(18) 0.002994 302.7 21.6
314(18) 0.003185 302.9 22.1
299(17) 0.003344 303.2 22.6
308(18) 0.003247 303.4 23.2
310(18) 0.003226 303.6 24.0
334(18) 0.002994 303.8 24.5
328(18) 0.003049 304.0 25.1
323(18) 0.003096 304.3 25.8
306(17) 0.003268 304.5 26.4
316(18) 0.003165 304.7 27.1
348(19) 0.002874 304.9 27.9
330(18) 0.003030 305.1 28.6
343(19) 0.002915 305.4 29.4
311(18) 0.003215 305.6 30.2
336(18) 0.002976 305.8 31.1
325(18) 0.003077 306.0 31.9
340(18) 0.002941 306.2 32.9
339(18) 0.002950 306.4 33.8
334(18) 0.002994 306.7 34.8
340(18) 0.002941 306.9 35.9
322(18) 0.003106 307.1 36.9
349(19) 0.002865 307.3 38.1
354(19) 0.002825 307.5 39.2
347(19) 0.002882 307.8 40.5
331(18) 0.003021 308.0 41.7
334(18) 0.002994 308.2 43.1
322(18) 0.003106 308.4 44.4
346(19) 0.002890 308.6 45.9
329(18) 0.003039 308.9 47.4
352(19) 0.002841 309.1 48.9
346(19) 0.002890 309.3 50.5
375(19) 0.002667 309.5 52.2
355(19) 0.002817 309.7 54.0
322(18) 0.003106 310.0 55.8
315(18) 0.003175 310.2 57.7
354(19) 0.002825 310.4 59.6
341(18) 0.002933 310.6 61.7
368(19) 0.002717 310.8 63.8
347(19) 0.002882 311.0 66.1
343(19) 0.002915 311.3 68.4
349(19) 0.002865 311.5 70.8
364(19) 0.002747 311.7 73.3
394(20) 0.002538 311.9 76.0
369(19) 0.002710 312.1 78.8
382(20) 0.002618 312.4 81.6
395(20) 0.002532 312.6 84.7
405(20) 0.002469 312.8 87.8
416(20) 0.002404 313.0 91.2
419(20) 0.002387 313.2 94.7
390(20) 0.002564 313.5 98.3
386(20) 0.002591 313.7 102.2
415(20) 0.002410 313.9 106.3
421(21) 0.002375 314.1 110.7
433(21) 0.002309 314.3 115.3
411(20) 0.002433 314.6 120.2
422(21) 0.002370 314.8 125.4
438(21) 0.002283 315.0 131.0
493(22) 0.002028 315.2 137.0
423(21) 0.002364 315.4 143.4
462(21) 0.002164 315.6 150.4
483(22) 0.002070 315.9 158.0
490(22) 0.002041 316.1 166.3
521(23) 0.001919 316.3 175.4
496(22) 0.002016 316.5 185.4
548(23) 0.001825 316.7 196.7
523(23) 0.001912 317.0 209.4
583(24) 0.001715 317.2 223.9
533(23) 0.001876 317.4 240.7
642(25) 0.001558 317.6 260.4
654(26) 0.001529 317.8 284.0
655(26) 0.001527 318.1 312.5
712(27) 0.001404 318.3 347.4
714(27) 0.001401 318.5 390.4
838(29) 0.001193 318.7 443.5
898(30) 0.001114 318.9 508.9
951(31) 0.001052 319.2 588.9
1085(33) 0.000922 319.4 685.9
1153(34) 0.000867 319.6 801.5
1267(36) 0.000789 320. 937.
1490(39) 0.000671 320. 1093.
1648(41) 0.000607 320. 1268.
1948(44) 0.000513 320. 1458.
2164(47) 0.000462 321. 1654.
2265(48) 0.000442 321. 1845.
2488(50) 0.000402 321. 2014.
2529(50) 0.000395 321. 2142.
2506(50) 0.000399 322. 2218.
2384(49) 0.000419 322. 2239.
2368(49) 0.000422 322. 2214.
2315(48) 0.000432 322. 2161.
2291(48) 0.000436 322. 2093.
2224(47) 0.000450 323. 2022.
2258(48) 0.000443 323. 1951.
2252(47) 0.000444 323. 1877.
2269(48) 0.000441 323. 1794.
2242(47) 0.000446 324. 1698.
2230(47) 0.000448 324. 1585.
2144(46) 0.000466 324. 1459.
1941(44) 0.000515 324. 1323.
1749(42) 0.000572 324. 1185.
1603(40) 0.000624 325. 1051.
1415(38) 0.000707 325. 925.
1255(35) 0.000797 325. 809.
1135(34) 0.000881 325.3 705.6
959(31) 0.001043 325.5 613.9
946(31) 0.001057 325.7 534.0
845(29) 0.001183 325.9 465.2
780(28) 0.001282 326.2 406.5
712(27) 0.001404 326.4 356.9
685(26) 0.001460 326.6 315.2
669(26) 0.001495 326.8 280.4
589(24) 0.001698 327.0 251.3
583(24) 0.001715 327.3 226.9
583(24) 0.001715 327.5 206.4
575(24) 0.001739 327.7 189.1
565(24) 0.001770 327.9 174.3
545(23) 0.001835 328.1 161.5
497(22) 0.002012 328.3 150.4
495(22) 0.002020 328.6 140.6
485(22) 0.002062 328.8 131.9
474(22) 0.002110 329.0 124.2
474(22) 0.002110 329.2 117.2
452(21) 0.002212 329.4 110.8
466(22) 0.002146 329.7 105.1
422(21) 0.002370 329.9 99.9
457(21) 0.002188 330.1 95.1
446(21) 0.002242 330.3 90.7
395(20) 0.002532 330.5 86.6
407(20) 0.002457 330.8 82.9
389(20) 0.002571 331.0 79.5
386(20) 0.002591 331.2 76.4
384(20) 0.002604 331.4 73.5
381(20) 0.002625 331.6 70.9
417(20) 0.002398 331.9 68.4
388(20) 0.002577 332.1 66.2
394(20) 0.002538 332.3 64.1
407(20) 0.002457 332.5 62.2
367(19) 0.002725 332.7 60.5
395(20) 0.002532 332.9 58.9
371(19) 0.002695 333.2 57.5
385(20) 0.002597 333.4 56.2
373(19) 0.002681 333.6 55.0
344(19) 0.002907 333.8 54.0
360(19) 0.002778 334.0 53.2
401(20) 0.002494 334.3 52.4
386(20) 0.002591 334.5 51.9
346(19) 0.002890 334.7 51.4
377(19) 0.002653 334.9 51.2
370(19) 0.002703 335.1 51.1
383(20) 0.002611 335.4 51.2
376(19) 0.002660 335.6 51.5
367(19) 0.002725 335.8 52.1
386(20) 0.002591 336.0 52.9
382(20) 0.002618 336.2 54.1
369(19) 0.002710 336.5 55.6
350(19) 0.002857 336.7 57.8
383(20) 0.002611 336.9 60.3
389(20) 0.002571 337.1 63.6
393(20) 0.002545 337.3 67.7
400(20) 0.002500 337.5 73.2
418(20) 0.002392 337.8 80.4
450(21) 0.002222 338.0 90.3
467(22) 0.002141 338.2 104.3
464(22) 0.002155 338.4 124.3
511(23) 0.001957 338.6 152.8
576(24) 0.001736 338.9 192.6
641(25) 0.001560 339.1 246.3
690(26) 0.001449 339.3 315.1
804(28) 0.001244 339.5 397.1
827(29) 0.001209 339.7 483.0
896(30) 0.001116 340.0 552.8
945(31) 0.001058 340.2 578.9
818(29) 0.001222 340.4 548.1
794(28) 0.001259 340.6 475.5
730(27) 0.001370 340.8 388.6
640(25) 0.001563 341.1 306.7
632(25) 0.001582 341.3 238.3
534(23) 0.001873 341.5 185.0
532(23) 0.001880 341.7 145.4
499(22) 0.002004 341.9 116.9
457(21) 0.002188 342.1 96.7
497(22) 0.002012 342.4 82.4
460(21) 0.002174 342.6 71.9
472(22) 0.002119 342.8 64.8
489(22) 0.002045 343.0 58.7
533(23) 0.001876 343.2 53.8
504(22) 0.001984 343.5 49.8
511(23) 0.001957 343.7 46.5
541(23) 0.001848 343.9 43.7
532(23) 0.001880 344.1 41.3
527(23) 0.001898 344.3 39.2
540(23) 0.001852 344.6 37.4
511(23) 0.001957 344.8 35.9
508(23) 0.001968 345.0 34.5
493(22) 0.002028 345.2 33.3
490(22) 0.002041 345.4 32.3
437(21) 0.002288 345.7 31.4
449(21) 0.002227 345.9 30.6
431(21) 0.002320 346.1 29.9
421(21) 0.002375 346.3 29.2
405(20) 0.002469 346.5 28.6
407(20) 0.002457 346.7 28.1
379(19) 0.002639 347.0 27.7
376(19) 0.002660 347.2 27.2
401(20) 0.002494 347.4 26.9
381(20) 0.002625 347.6 26.6
373(19) 0.002681 347.8 26.3
371(19) 0.002695 348.1 26.1
376(19) 0.002660 348.3 25.8
345(19) 0.002899 348.5 25.7
379(19) 0.002639 348.7 25.5
393(20) 0.002545 348.9 25.4
363(19) 0.002755 349.2 25.3
352(19) 0.002841 349.4 25.2
369(19) 0.002710 349.6 25.2
352(19) 0.002841 349.8 25.2
384(20) 0.002604 350.0 25.2
385(20) 0.002597 350.3 25.2
352(19) 0.002841 350.5 25.2
380(19) 0.002632 350.7 25.3
374(19) 0.002674 350.9 25.3
338(18) 0.002959 351.0 25.4
362(19) 0.002762 351.1 25.6
342(18) 0.002924 351.2 25.7
380(19) 0.002632 351.3 25.8
354(19) 0.002825 351.3 26.0
379(19) 0.002639 351.4 26.2
364(19) 0.002747 351.5 26.4
326(18) 0.003067 351.6 26.6
364(19) 0.002747 351.7 26.8
363(19) 0.002755 351.8 27.1
363(19) 0.002755 351.9 27.3
366(19) 0.002732 351.9 27.6
359(19) 0.002786 352.0 27.9
354(19) 0.002825 352.1 28.2
358(19) 0.002793 352.2 28.5
343(19) 0.002915 352.3 28.8
343(19) 0.002915 352.4 29.2
376(19) 0.002660 352.5 29.5
347(19) 0.002882 352.6 29.9
353(19) 0.002833 352.6 30.3
353(19) 0.002833 352.7 30.7
358(19) 0.002793 352.8 31.1
372(19) 0.002688 352.9 31.5
358(19) 0.002793 353.0 31.9
372(19) 0.002688 353.1 32.4
368(19) 0.002717 353.2 32.8
379(19) 0.002639 353.2 33.2
381(20) 0.002625 353.3 33.7
403(20) 0.002481 353.4 34.2
378(19) 0.002646 353.5 34.6
374(19) 0.002674 353.6 35.1
369(19) 0.002710 353.7 35.6
395(20) 0.002532 353.8 36.0
386(20) 0.002591 353.9 36.5
391(20) 0.002558 353.9 37.0
408(20) 0.002451 354.0 37.5
391(20) 0.002558 354.1 38.0
394(20) 0.002538 354.2 38.4
372(19) 0.002688 354.3 38.9
376(19) 0.002660 354.4 39.4
402(20) 0.002488 354.5 39.9
379(19) 0.002639 354.5 40.4
366(19) 0.002732 354.6 40.9
376(19) 0.002660 354.7 41.3
398(20) 0.002513 354.8 41.8
374(19) 0.002674 354.9 42.3
366(19) 0.002732 355.0 42.9
381(20) 0.002625 355.1 43.4
374(19) 0.002674 355.1 43.9
381(20) 0.002625 355.2 44.5
360(19) 0.002778 355.3 45.1
433(21) 0.002309 355.4 45.7
393(20) 0.002545 355.5 46.3
370(19) 0.002703 355.6 47.0
379(19) 0.002639 355.7 47.7
380(19) 0.002632 355.8 48.5
396(20) 0.002525 355.8 49.3
366(19) 0.002732 355.9 50.2
377(19) 0.002653 356.0 51.2
380(19) 0.002632 356.1 52.2
358(19) 0.002793 356.2 53.4
388(20) 0.002577 356.3 54.6
380(19) 0.002632 356.4 55.9
355(19) 0.002817 356.4 57.4
422(21) 0.002370 356.5 59.0
424(21) 0.002358 356.6 60.8
444(21) 0.002252 356.7 62.7
430(21) 0.002326 356.8 64.9
374(19) 0.002674 356.9 67.3
416(20) 0.002404 357.0 70.0
419(20) 0.002387 357.1 72.9
436(21) 0.002294 357.1 76.3
418(20) 0.002392 357.2 80.0
433(21) 0.002309 357.3 84.3
422(21) 0.002370 357.4 89.0
471(22) 0.002123 357.5 94.5
446(21) 0.002242 357.6 100.7
470(22) 0.002128 357.7 107.9
451(21) 0.002217 357.7 116.1
482(22) 0.002075 357.8 125.7
518(23) 0.001931 357.9 137.0
502(22) 0.001992 358.0 150.4
565(24) 0.001770 358.1 166.5
523(23) 0.001912 358.2 186.0
590(24) 0.001695 358.3 210.3
629(25) 0.001590 358.3 241.4
640(25) 0.001563 358.4 282.6
680(26) 0.001471 358.5 340.3
813(29) 0.001230 358.6 425.8
913(30) 0.001095 358.7 556.5
1106(33) 0.000904 358.8 755.9
1394(37) 0.000717 359. 1046.
1770(42) 0.000565 359. 1429.
2281(48) 0.000438 359. 1837.
2585(51) 0.000387 359. 2070.
2584(51) 0.000387 359. 1946.
2210(47) 0.000452 359. 1580.
1830(43) 0.000546 359. 1196.
1543(39) 0.000648 359. 897.
1342(37) 0.000745 360. 692.
1137(34) 0.000880 359.6 561.4
1050(32) 0.000952 359.7 481.8
946(31) 0.001057 359.8 433.4
869(29) 0.001151 359.9 403.2
845(29) 0.001183 360.0 383.6
835(29) 0.001198 360.1 370.4
785(28) 0.001274 360.2 361.5
721(27) 0.001387 360.3 355.4
755(27) 0.001324 360.3 351.2
710(27) 0.001408 360.4 348.4
729(27) 0.001372 360.5 346.7
735(27) 0.001361 360.6 345.9
749(27) 0.001335 360.7 345.9
741(27) 0.001350 360.8 346.5
726(27) 0.001377 360.9 347.8
711(27) 0.001406 360.9 349.7
698(26) 0.001433 361.0 352.2
708(27) 0.001412 361.1 355.0
731(27) 0.001368 361.2 358.2
722(27) 0.001385 361.3 361.7
708(27) 0.001412 361.4 365.1
719(27) 0.001391 361.5 368.4
700(26) 0.001429 361.5 371.2
686(26) 0.001458 361.6 373.5
780(28) 0.001282 361.7 374.9
745(27) 0.001342 361.8 375.2
735(27) 0.001361 361.9 374.3
818(29) 0.001222 362.0 372.1
847(29) 0.001181 362.1 368.4
738(27) 0.001355 362.2 363.3
832(29) 0.001202 362.2 356.8
811(28) 0.001233 362.3 349.2
815(29) 0.001227 362.4 340.6
778(28) 0.001285 362.5 331.3
736(27) 0.001359 362.6 321.6
770(28) 0.001299 362.7 311.7
747(27) 0.001339 362.8 301.9
686(26) 0.001458 362.8 292.3
619(25) 0.001616 362.9 283.0
635(25) 0.001575 363.0 273.8
606(25) 0.001650 363.1 264.1
637(25) 0.001570 363.2 253.4
562(24) 0.001779 363.3 241.8
582(24) 0.001718 363.4 229.7
599(24) 0.001669 363.5 217.9
554(24) 0.001805 363.5 206.9
551(23) 0.001815 363.6 196.8
529(23) 0.001890 363.7 187.8
541(23) 0.001848 363.8 179.8
568(24) 0.001761 363.9 172.8
578(24) 0.001730 364.0 166.7
711(27) 0.001406 364.1 161.4
1432(38) 0.000698 364. 157.
691(26) 0.001447 364.2 153.1
677(26) 0.001477 364.3 150.0
566(24) 0.001767 364.4 147.4
584(24) 0.001712 364.5 145.5
540(23) 0.001852 364.6 144.1
578(24) 0.001730 364.7 143.2
516(23) 0.001938 364.8 142.9
562(24) 0.001779 364.8 143.0
527(23) 0.001898 364.9 143.6
504(22) 0.001984 365.0 144.7
551(23) 0.001815 365.1 146.3
552(23) 0.001812 365.2 148.3
533(23) 0.001876 365.3 150.8
549(23) 0.001822 365.4 153.9
579(24) 0.001727 365.4 157.4
542(23) 0.001845 365.5 161.5
583(24) 0.001715 365.6 166.2
611(25) 0.001637 365.7 171.6
613(25) 0.001631 365.8 177.7
651(26) 0.001536 365.9 184.7
659(26) 0.001517 366.0 192.5
680(26) 0.001471 366.0 201.4
697(26) 0.001435 366.1 211.4
645(25) 0.001550 366.2 222.7
708(27) 0.001412 366.3 235.3
731(27) 0.001368 366.4 249.4
716(27) 0.001397 366.5 265.1
769(28) 0.001300 366.6 282.5
721(27) 0.001387 366.7 301.8
727(27) 0.001376 366.7 322.9
732(27) 0.001366 366.8 345.9
796(28) 0.001256 366.9 370.8
777(28) 0.001287 367.0 397.7
788(28) 0.001269 367.1 426.3
817(29) 0.001224 367.2 456.4
827(29) 0.001209 367.3 487.9
853(29) 0.001172 367.3 520.3
882(30) 0.001134 367.4 553.0
961(31) 0.001041 367.5 585.5
959(31) 0.001043 367.6 616.9
1018(32) 0.000982 367.7 646.2
1098(33) 0.000911 367.8 672.5
1134(34) 0.000882 367.9 694.8
1099(33) 0.000910 368.0 712.6
1183(34) 0.000845 368.0 725.4
1193(35) 0.000838 368.1 733.5
1234(35) 0.000810 368. 737.
1202(35) 0.000832 368.3 738.7
1236(35) 0.000809 368. 738.
1232(35) 0.000812 368. 739.
1131(34) 0.000884 368.6 741.5
1160(34) 0.000862 368.6 748.7
1122(33) 0.000891 368.7 762.3
1134(34) 0.000882 368.8 784.4
1144(34) 0.000874 368.9 816.7
1195(35) 0.000837 369.0 860.9
1173(34) 0.000853 369.1 918.3
1292(36) 0.000774 369. 990.
1455(38) 0.000687 369. 1075.
1517(39) 0.000659 369. 1172.
1633(40) 0.000612 369. 1278.
1742(42) 0.000574 370. 1387.
1879(43) 0.000532 370. 1490.
1932(44) 0.000518 370. 1577.
1989(45) 0.000503 370. 1639.
1928(44) 0.000519 370. 1672.
2063(45) 0.000485 370. 1681.
2091(46) 0.000478 370. 1676.
2071(46) 0.000483 370. 1663.
2182(47) 0.000458 370. 1652.
2203(47) 0.000454 370. 1644.
2227(47) 0.000449 370. 1641.
2184(47) 0.000458 370. 1641.
2204(47) 0.000454 371. 1644.
2223(47) 0.000450 371. 1645.
2174(47) 0.000460 371. 1643.
2138(46) 0.000468 371. 1634.
1935(44) 0.000517 371. 1617.
1934(44) 0.000517 371. 1590.
1840(43) 0.000543 371. 1553.
1798(42) 0.000556 371. 1506.
1716(41) 0.000583 371. 1451.
1628(40) 0.000614 371. 1390.
1590(40) 0.000629 371. 1323.
1587(40) 0.000630 371. 1253.
1489(39) 0.000672 372. 1181.
1336(37) 0.000749 372. 1109.
1447(38) 0.000691 372. 1036.
1349(37) 0.000741 372. 964.
1303(36) 0.000767 372. 892.
1250(35) 0.000800 372. 822.
1170(34) 0.000855 372.1 755.2
1118(33) 0.000894 372.2 691.3
1094(33) 0.000914 372.3 631.5
1122(33) 0.000891 372.4 575.9
1025(32) 0.000976 372.4 525.0
1040(32) 0.000962 372.5 478.7
1005(32) 0.000995 372.6 436.8
975(31) 0.001026 372.7 399.2
979(31) 0.001021 372.8 365.5
876(30) 0.001142 372.9 335.4
921(30) 0.001086 373.0 308.7
885(30) 0.001130 373.1 285.1
909(30) 0.001100 373.1 264.1
860(29) 0.001163 373.2 245.6
851(29) 0.001175 373.3 229.1
811(28) 0.001233 373.4 214.6
818(29) 0.001222 373.5 201.7
800(28) 0.001250 373.6 190.3
800(28) 0.001250 373.7 180.1
803(28) 0.001245 373.7 171.0
760(28) 0.001316 373.8 162.9
789(28) 0.0 0.0 .
770(28) 0.0 0.0 .
774(28) 0.0 0.0 .
799(28) 0.0 0.0 .
764(28) 0.0 0.0 .
787(28) 0.0 0.0 .
747(27) 0.0 0.0 .
753(27) 0.0 0.0 .
773(28) 0.0 0.0 .
742(27) 0.0 0.0 .
773(28) 0.0 0.0 .
750(27) 0.0 0.0 .
794(28) 0.0 0.0 .
752(27) 0.0 0.0 .
773(28) 0.0 0.0 .
790(28) 0.0 0.0 .
825(29) 0.0 0.0 .
805(28) 0.0 0.0 .
862(29) 0.0 0.0 .
879(30) 0.0 0.0 .
939(31) 0.0 0.0 .
936(31) 0.0 0.0 .
995(32) 0.0 0.0 .
997(32) 0.0 0.0 .
1073(33) 0.0 0.0 .
1051(32) 0.0 0.0 .
1079(33) 0.0 0.0 .
1034(32) 0.0 0.0 .
1086(33) 0.0 0.0 .
1083(33) 0.0 0.0 .
1089(33) 0.0 0.0 .
1080(33) 0.0 0.0 .
1120(33) 0.0 0.0 .
1131(34) 0.0 0.0 .
1152(34) 0.0 0.0 .
1084(33) 0.0 0.0 .
1113(33) 0.0 0.0 .
1147(34) 0.0 0.0 .
1157(34) 0.0 0.0 .
1267(36) 0.0 0. .
1330(36) 0.0 0. .
1319(36) 0.0 0. .
1421(38) 0.0 0. .
1523(39) 0.0 0. .
1642(41) 0.0 0. .
1702(41) 0.0 0. .
1896(44) 0.0 0. .
2038(45) 0.0 0. .
2174(47) 0.0 0. .
2403(49) 0.0 0. .
2686(52) 0.0 0. .
2999(55) 0.0 0. .
3397(58) 0.0 0. .
3783(62) 0.0 0. .
4240(65) 0.0 0. .
5062(71) 0.0 0. .
6007(78) 0.0 0. .
7160(85) 0.0 0. .
8438(92) 0.0 0. .
10510(100) 0.0 0. .
13240(120) 0.0 0. .
17060(130) 0.0 0. .
22550(150) 0.0 0. .
30760(180) 0.0 0. .
44010(210) 0.0 0. .
65790(260) 0.0 0. .
103300(320) 0.0 0. .
169950(410) 0.0 0. .
269650(520) 0.0 0. .
358830(600) 0.0 0. .
370070(610) 0.0 0. .
284130(530) 0.0 0. .
181980(430) 0.0 0. .
108290(330) 0.0 0. .
67550(260) 0.0 0. .
43960(210) 0.0 0. .
30400(170) 0.0 0. .
22160(150) 0.0 0. .
16260(130) 0.0 0. .
12710(110) 0.0 0. .
9871(99) 0.0 0. .
8022(90) 0.0 0. .
6564(81) 0.0 0. .
5625(75) 0.0 0. .
4611(68) 0.0 0. .
3964(63) 0.0 0. .
3470(59) 0.0 0. .
3044(55) 0.0 0. .
2702(52) 0.0 0. .
2526(50) 0.0 0. .
2225(47) 0.0 0. .
1998(45) 0.0 0. .
1900(44) 0.0 0. .
1762(42) 0.0 0. .
1576(40) 0.0 0. .
1530(39) 0.0 0. .
1433(38) 0.0 0. .
1318(36) 0.0 0. .
1217(35) 0.0 0.0 .
1192(35) 0.0 0.0 .
1115(33) 0.0 0.0 .
1025(32) 0.0 0.0 .
1022(32) 0.0 0.0 .
936(31) 0.0 0.0 .
967(31) 0.0 0.0 .
887(30) 0.0 0.0 .
908(30) 0.0 0.0 .
847(29) 0.0 0.0 .
867(29) 0.0 0.0 .
811(28) 0.0 0.0 .
829(29) 0.0 0.0 .
719(27) 0.0 0.0 .
737(27) 0.0 0.0 .
749(27) 0.0 0.0 .
687(26) 0.0 0.0 .
704(27) 0.0 0.0 .
681(26) 0.0 0.0 .
691(26) 0.0 0.0 .
668(26) 0.0 0.0 .
663(26) 0.0 0.0 .
619(25) 0.0 0.0 .
670(26) 0.0 0.0 .
641(25) 0.0 0.0 .
641(25) 0.0 0.0 .
639(25) 0.0 0.0 .
629(25) 0.0 0.0 .
619(25) 0.0 0.0 .
585(24) 0.0 0.0 .
597(24) 0.0 0.0 .
604(25) 0.0 0.0 .
603(25) 0.0 0.0 .
598(24) 0.0 0.0 .
613(25) 0.0 0.0 .
580(24) 0.0 0.0 .
541(23) 0.0 0.0 .
526(23) 0.0 0.0 .
504(22) 0.0 0.0 .
512(23) 0.0 0.0 .
477(22) 0.0 0.0 .
524(23) 0.0 0.0 .
506(22) 0.0 0.0 .
517(23) 0.0 0.0 .
484(22) 0.0 0.0 .
503(22) 0.0 0.0 .
476(22) 0.0 0.0 .
487(22) 0.0 0.0 .
513(23) 0.0 0.0 .
468(22) 0.0 0.0 .
458(21) 0.0 0.0 .
468(22) 0.0 0.0 .
490(22) 0.0 0.0 .
458(21) 0.0 0.0 .
450(21) 0.0 0.0 .
454(21) 0.0 0.0 .
455(21) 0.0 0.0 .
437(21) 0.0 0.0 .
465(22) 0.0 0.0 .
469(22) 0.0 0.0 .
423(21) 0.0 0.0 .
451(21) 0.0 0.0 .
455(21) 0.0 0.0 .
456(21) 0.0 0.0 .
465(22) 0.0 0.0 .
425(21) 0.0 0.0 .
428(21) 0.0 0.0 .
469(22) 0.0 0.0 .
430(21) 0.0 0.0 .
441(21) 0.0 0.0 .
434(21) 0.0 0.0 .
430(21) 0.0 0.0 .
452(21) 0.0 0.0 .
467(22) 0.0 0.0 .
467(22) 0.0 0.0 .
445(21) 0.0 0.0 .
454(21) 0.0 0.0 .
452(21) 0.0 0.0 .
437(21) 0.0 0.0 .
391(20) 0.0 0.0 .
426(21) 0.0 0.0 .
433(21) 0.0 0.0 .
423(21) 0.0 0.0 .
450(21) 0.0 0.0 .
422(21) 0.0 0.0 .
447(21) 0.0 0.0 .
407(20) 0.0 0.0 .
412(20) 0.0 0.0 .
423(21) 0.0 0.0 .
388(20) 0.0 0.0 .
412(20) 0.0 0.0 .
408(20) 0.0 0.0 .
412(20) 0.0 0.0 .
414(20) 0.0 0.0 .
363(19) 0.0 0.0 .
395(20) 0.0 0.0 .
399(20) 0.0 0.0 .
398(20) 0.0 0.0 .
373(19) 0.0 0.0 .
410(20) 0.0 0.0 .
388(20) 0.0 0.0 .
375(19) 0.0 0.0 .
403(20) 0.0 0.0 .
400(20) 0.0 0.0 .
396(20) 0.0 0.0 .
422(21) 0.0 0.0 .
428(21) 0.0 0.0 .
349(19) 0.002865 391.6 24.2
423(21) 0.002364 391.7 24.6
384(20) 0.002604 391.7 25.1
383(20) 0.002611 391.8 25.7
380(19) 0.002632 391.8 26.3
399(20) 0.002506 391.8 26.9
358(19) 0.002793 391.9 27.5
370(19) 0.002703 391.9 28.2
405(20) 0.002469 391.9 29.0
414(20) 0.002415 392.0 29.8
386(20) 0.002591 392.0 30.6
402(20) 0.002488 392.1 31.6
365(19) 0.002740 392.1 32.6
388(20) 0.002577 392.1 33.6
386(20) 0.002591 392.2 34.8
365(19) 0.002740 392.2 36.1
398(20) 0.002513 392.2 37.4
375(19) 0.002667 392.3 38.9
370(19) 0.002703 392.3 40.5
380(19) 0.002632 392.4 42.2
386(20) 0.002591 392.4 44.1
368(19) 0.002717 392.4 46.1
406(20) 0.002463 392.5 48.4
421(21) 0.002375 392.5 50.9
398(20) 0.002513 392.6 53.6
409(20) 0.002445 392.6 56.6
445(21) 0.002247 392.6 59.9
416(20) 0.002404 392.7 63.6
428(21) 0.002336 392.7 67.7
418(20) 0.002392 392.7 72.3
411(20) 0.002433 392.8 77.4
452(21) 0.002212 392.8 83.2
465(22) 0.002151 392.9 89.6
456(21) 0.002193 392.9 96.9
462(21) 0.002164 392.9 104.9
465(22) 0.002151 393.0 114.0
485(22) 0.002062 393.0 123.9
461(21) 0.002169 393.0 135.0
487(22) 0.002053 393.1 147.1
489(22) 0.002045 393.1 160.2
539(23) 0.001855 393.2 174.4
557(24) 0.001795 393.2 189.6
558(24) 0.001792 393.2 205.6
559(24) 0.001789 393.3 222.2
613(25) 0.001631 393.3 239.2
611(25) 0.001637 393.4 256.1
633(25) 0.001580 393.4 272.5
643(25) 0.001555 393.4 287.8
657(26) 0.001522 393.5 301.1
687(26) 0.001456 393.5 311.9
682(26) 0.001466 393.5 319.5
704(27) 0.001420 393.6 323.4
663(26) 0.001508 393.6 323.5
742(27) 0.001348 393.7 320.1
669(26) 0.001495 393.7 313.5
645(25) 0.001550 393.7 304.4
680(26) 0.001471 393.8 293.4
610(25) 0.001639 393.8 281.3
622(25) 0.001608 393.8 268.5
622(25) 0.001608 393.9 255.6
623(25) 0.001605 393.9 242.8
609(25) 0.001642 394.0 230.4
566(24) 0.001767 394.0 218.7
565(24) 0.001770 394.0 207.7
607(25) 0.001647 394.1 197.5
571(24) 0.001751 394.1 188.1
545(23) 0.001835 394.2 179.6
563(24) 0.001776 394.2 171.9
553(24) 0.001808 394.2 165.1
561(24) 0.001783 394.3 159.0
552(23) 0.001812 394.3 153.7
515(23) 0.001942 394.3 149.0
484(22) 0.002066 394.4 144.9
517(23) 0.001934 394.4 141.4
487(22) 0.002053 394.5 138.3
510(23) 0.001961 394.5 135.7
500(22) 0.002000 394.5 133.5
484(22) 0.002066 394.6 131.6
434(21) 0.002304 394.6 130.1
473(22) 0.002114 394.6 128.8
511(23) 0.001957 394.7 127.7
475(22) 0.002105 394.7 126.9
489(22) 0.002045 394.8 126.3
485(22) 0.002062 394.8 125.9
482(22) 0.002075 394.8 125.7
459(21) 0.002179 394.9 125.7
469(22) 0.002132 394.9 126.0
431(21) 0.002320 395.0 126.4
466(22) 0.002146 395.0 127.1
452(21) 0.002212 395.0 128.1
457(21) 0.002188 395.1 129.5
494(22) 0.002024 395.1 131.2
483(22) 0.002070 395.1 133.5
498(22) 0.002008 395.2 136.5
501(22) 0.001996 395.2 140.3
514(23) 0.001946 395.3 145.3
549(23) 0.001822 395.3 151.8
576(24) 0.001736 395.3 160.1
539(23) 0.001855 395.4 170.5
574(24) 0.001742 395.4 183.5
589(24) 0.001698 395.4 199.2
610(25) 0.001639 395.5 217.7
683(26) 0.001464 395.5 238.7
752(27) 0.001330 395.6 261.4
804(28) 0.001244 395.6 284.4
797(28) 0.001255 395.6 304.9
815(29) 0.001227 395.7 319.7
764(28) 0.001309 395.7 325.6
860(29) 0.001163 395.8 321.5
746(27) 0.001340 395.8 308.6
728(27) 0.001374 395.8 290.2
667(26) 0.001499 395.9 269.6
669(26) 0.001495 395.9 249.2
636(25) 0.001572 395.9 230.4
596(24) 0.001678 396.0 214.0
594(24) 0.001684 396.0 200.3
621(25) 0.001610 396.1 189.0
574(24) 0.001742 396.1 179.9
551(23) 0.001815 396.1 172.8
586(24) 0.001706 396.2 167.2
545(23) 0.001835 396.2 162.7
572(24) 0.001748 396.2 159.0
530(23) 0.001887 396.3 156.0
509(23) 0.001965 396.3 153.3
527(23) 0.001898 396.4 150.9
522(23) 0.001916 396.4 148.5
522(23) 0.001916 396.4 146.3
544(23) 0.001838 396.5 144.0
510(23) 0.001961 396.5 141.8
483(22) 0.002070 396.6 139.5
505(22) 0.001980 396.6 137.2
512(23) 0.001953 396.6 134.9
490(22) 0.002041 396.7 132.7
509(23) 0.001965 396.7 130.4
463(22) 0.002160 396.7 128.2
460(21) 0.002174 396.8 126.1
477(22) 0.002096 396.8 124.0
486(22) 0.002058 396.9 122.0
470(22) 0.002128 396.9 120.1
466(22) 0.002146 396.9 118.3
441(21) 0.002268 397.0 116.7
474(22) 0.002110 397.0 115.1
435(21) 0.002299 397.0 113.8
479(22) 0.002088 397.1 112.5
452(21) 0.002212 397.1 111.4
460(21) 0.002174 397.2 110.5
459(21) 0.002179 397.2 109.7
448(21) 0.002232 397.2 109.0
447(21) 0.002237 397.3 108.5
446(21) 0.002242 397.3 108.1
460(21) 0.002174 397.4 107.7
434(21) 0.002304 397.4 107.5
457(21) 0.002188 397.4 107.3
439(21) 0.002278 397.5 107.1
440(21) 0.002273 397.5 106.9
432(21) 0.002315 397.5 106.7
448(21) 0.002232 397.6 106.4
449(21) 0.002227 397.6 106.0
473(22) 0.002114 397.7 105.5
463(22) 0.002160 397.7 104.8
457(21) 0.002188 397.7 104.0
449(21) 0.002227 397.8 103.0
455(21) 0.002198 397.8 101.8
427(21) 0.002342 397.8 100.4
402(20) 0.002488 397.9 98.9
422(21) 0.002370 397.9 97.2
418(20) 0.002392 398.0 95.4
443(21) 0.002257 398.0 93.4
448(21) 0.002232 398.0 91.4
416(20) 0.002404 398.1 89.3
413(20) 0.002421 398.1 87.2
383(20) 0.002611 398.2 85.0
410(20) 0.002439 398.2 82.9
389(20) 0.002571 398.2 80.9
402(20) 0.002488 397.7 78.9
391(20) 0.002558 397.1 77.0
402(20) 0.002488 396.4 75.2
398(20) 0.002513 395.8 73.5
414(20) 0.002415 395.1 71.9
406(20) 0.002463 394.5 70.5
417(20) 0.002398 393.8 69.3
394(20) 0.002538 393.2 68.2
384(20) 0.002604 392.5 67.3
411(20) 0.002433 391.9 66.5
422(21) 0.002370 391.2 66.0
366(19) 0.002732 390.6 65.7
391(20) 0.002558 389.9 65.6
397(20) 0.002519 389.3 65.8
396(20) 0.002525 388.6 66.2
381(20) 0.002625 387.9 66.9
446(21) 0.002242 387.3 67.9
416(20) 0.002404 386.6 69.3
410(20) 0.002439 386.0 71.3
436(21) 0.002294 385.3 73.6
413(20) 0.002421 384.7 76.6
428(21) 0.002336 384.0 80.2
438(21) 0.002283 383.4 84.7
479(22) 0.002088 382.7 90.2
481(22) 0.002079 382.1 96.7
505(22) 0.001980 381.4 104.6
496(22) 0.002016 380.8 114.0
532(23) 0.001880 380.1 125.0
500(22) 0.002000 379.5 137.8
524(23) 0.001908 378.8 152.4
567(24) 0.001764 378.1 168.8
559(24) 0.001789 377.5 187.1
624(25) 0.001603 376.8 206.8
617(25) 0.001621 376.2 227.6
691(26) 0.001447 375.5 248.8
725(27) 0.001379 374.9 269.8
716(27) 0.001397 374.2 290.3
750(27) 0.001333 373.6 310.3
803(28) 0.001245 372.9 330.7
788(28) 0.001269 372.3 352.6
818(29) 0.001222 371.6 377.1
838(29) 0.001193 371.0 405.1
886(30) 0.001129 370.3 437.1
948(31) 0.001055 369.7 473.0
1023(32) 0.000978 369.0 512.4
1080(33) 0.000926 368.3 554.2
1123(34) 0.000890 367.7 596.9
1228(35) 0.000814 367.0 638.2
1282(36) 0.000780 366. 675.
1216(35) 0.000822 365.7 704.8
1234(35) 0.000810 365. 724.
1242(35) 0.000805 364. 730.
1143(34) 0.000875 363.8 721.8
1133(34) 0.000883 363.1 700.3
1120(33) 0.000893 362.5 667.3
960(31) 0.001042 361.8 625.8
941(31) 0.001063 361.2 578.6
854(29) 0.001171 360.5 528.8
858(29) 0.001166 359.9 478.5
741(27) 0.001350 359.2 429.6
757(28) 0.001321 358.5 383.1
681(26) 0.001468 357.9 340.0
683(26) 0.001464 357.2 300.6
629(25) 0.001590 356.6 265.2
630(25) 0.001587 355.9 233.8
557(24) 0.001795 355.3 206.2
562(24) 0.001779 354.6 182.3
510(23) 0.001961 354.0 161.7
535(23) 0.001869 353.3 144.1
496(22) 0.002016 352.7 129.2
483(22) 0.002070 352.0 116.6
441(21) 0.002268 351.4 106.0
437(21) 0.002288 350.7 97.1
418(20) 0.002392 350.1 89.7
412(20) 0.002427 349.4 83.4
446(21) 0.002242 348.7 78.0
392(20) 0.002551 348.1 73.5
375(19) 0.002667 347.4 69.7
432(21) 0.002315 346.8 66.4
408(20) 0.002451 346.1 63.6
375(19) 0.002667 345.5 61.1
393(20) 0.002545 344.8 59.1
390(20) 0.002564 344.2 57.3
343(19) 0.002915 343.5 55.9
358(19) 0.002793 342.9 54.7
363(19) 0.002755 342.2 53.7
357(19) 0.002801 341.6 52.9
353(19) 0.002833 340.9 52.4
319(18) 0.003135 340.3 52.0
331(18) 0.003021 339.6 51.9
342(18) 0.002924 338.9 51.9
392(20) 0.002551 338.3 52.0
300(17) 0.003333 337.6 52.4
349(19) 0.002865 337.0 52.9
304(17) 0.003289 336.3 53.6
338(18) 0.002959 335.7 54.4
373(19) 0.002681 335.0 55.3
372(19) 0.002688 334.4 56.3
342(18) 0.002924 333.7 57.5
335(18) 0.002985 333.1 58.8
337(18) 0.002967 332.4 60.1
340(18) 0.002941 331.8 61.5
357(19) 0.002801 331.1 63.0
338(18) 0.002959 330.5 64.4
359(19) 0.002786 329.8 65.9
392(20) 0.002551 329.1 67.3
373(19) 0.002681 328.5 68.7
375(19) 0.002667 327.8 69.9
352(19) 0.002841 327.2 71.1
356(19) 0.002809 326.5 72.0
363(19) 0.002755 325.9 72.7
312(18) 0.003205 325.2 73.2
360(19) 0.002778 324.6 73.4
332(18) 0.003012 323.9 73.4
362(19) 0.002762 323.3 73.1
351(19) 0.002849 322.6 72.5
365(19) 0.002740 322.0 71.6
331(18) 0.003021 321.3 70.5
345(19) 0.002899 320.7 69.2
349(19) 0.002865 320.0 67.7
314(18) 0.003185 319.3 66.1
316(18) 0.003165 318.7 64.3
305(17) 0.003279 318.0 62.5
336(18) 0.002976 317.4 60.6
329(18) 0.003039 316.7 58.6
321(18) 0.003115 316.1 56.7
323(18) 0.003096 315.5 54.8
332(18) 0.003012 315.0 52.9
324(18) 0.003086 314.5 51.1
347(19) 0.002882 314.1 49.4
320(18) 0.003125 313.6 47.7
316(18) 0.003165 313.2 46.0
314(18) 0.003185 312.7 44.5
303(17) 0.003300 312.2 43.1
300(17) 0.003333 311.8 41.7
337(18) 0.002967 311.3 40.4
313(18) 0.003195 310.8 39.2
297(17) 0.003367 310.4 38.2
267(16) 0.00375 309.9 37.1
329(18) 0.003039 309.4 36.3
305(17) 0.003279 309.0 35.4
315(18) 0.003175 308.5 34.6
292(17) 0.003425 308.1 33.9
319(18) 0.003135 307.6 33.3
309(18) 0.003236 307.1 32.7
319(18) 0.003135 306.7 32.2
331(18) 0.003021 306.2 31.8
304(17) 0.003289 305.7 31.4
323(18) 0.003096 305.3 31.0
318(18) 0.003145 304.8 30.7
334(18) 0.002994 304.3 30.4
291(17) 0.003436 303.9 30.1
304(17) 0.003289 303.4 29.9
277(17) 0.00361 303.0 29.7
285(17) 0.00351 302.5 29.5
313(18) 0.003195 302.0 29.3
324(18) 0.003086 301.6 29.1
305(17) 0.003279 301.1 28.9
291(17) 0.003436 300.6 28.8
283(17) 0.00353 300.2 28.6
314(18) 0.003185 299.7 28.5
307(18) 0.003257 299.2 28.4
299(17) 0.003344 298.8 28.2
295(17) 0.003390 298.3 28.0
307(18) 0.003257 297.8 27.8
315(18) 0.003175 297.4 27.6
330(18) 0.003030 296.9 27.4
337(18) 0.002967 296.5 27.2
303(17) 0.003300 296.0 27.0
323(18) 0.003096 295.5 26.8
315(18) 0.003175 295.1 26.6
325(18) 0.003077 294.6 26.3
261(16) 0.00383 294.1 26.1
299(17) 0.003344 293.7 25.8
310(18) 0.003226 293.2 25.5
274(17) 0.00365 292.7 25.3
299(17) 0.003344 292.3 25.0
296(17) 0.003378 291.8 24.7
305(17) 0.003279 291.4 24.4
300(17) 0.003333 290.9 24.1
272(16) 0.00368 290.4 23.8
281(17) 0.00356 290.0 23.5
279(17) 0.00358 289.5 23.2
333(18) 0.003003 289.0 22.9
282(17) 0.00355 288.6 22.6
295(17) 0.003390 288.1 22.2
272(16) 0.00368 287.6 21.9
306(17) 0.003268 287.2 21.6
321(18) 0.003115 286.7 21.3
318(18) 0.003145 286.3 21.0
275(17) 0.00364 285.8 20.7
287(17) 0.003484 285.3 20.4
288(17) 0.003472 284.9 20.1
291(17) 0.003436 284.4 19.8
322(18) 0.003106 283.9 19.5
296(17) 0.003378 283.5 19.2
284(17) 0.00352 283.0 19.0
287(17) 0.003484 282.5 18.7
282(17) 0.00355 282.1 18.5
296(17) 0.003378 281.6 18.3
299(17) 0.003344 281.2 18.0
286(17) 0.003497 280.7 17.8
305(17) 0.003279 280.2 17.5
311(18) 0.003215 279.8 17.3
343(19) 0.002915 279.3 17.0
292(17) 0.003425 278.8 16.8
323(18) 0.003096 278.4 16.6
299(17) 0.003344 277.9 16.4
307(18) 0.003257 277.4 16.2
358(19) 0.002793 277.0 16.0
358(19) 0.002793 276.5 15.8
339(18) 0.002950 276.0 15.7
305(17) 0.003279 275.6 15.5
308(18) 0.003247 275.1 15.3
302(17) 0.003311 274.7 15.2
286(17) 0.003497 274.2 15.0
306(17) 0.003268 273.7 14.8
308(18) 0.003247 273.3 14.7
291(17) 0.003436 272.8 14.6
299(17) 0.003344 272.3 14.4
267(16) 0.00375 271.9 14.3
302(17) 0.003311 271.4 14.2
311(18) 0.003215 270.9 14.1
254(16) 0.00394 270.5 14.0
302(17) 0.003311 270.0 13.9
275(17) 0.00364 269.6 13.8
287(17) 0.003484 269.1 13.7
291(17) 0.003436 268.9 13.6
279(17) 0.00358 269.0 13.6
280(17) 0.00357 269.0 13.5
283(17) 0.00353 269.1 13.5
325(18) 0.003077 269.2 13.4
328(18) 0.003049 269.3 13.4
286(17) 0.003497 269.3 13.3
277(17) 0.00361 269.4 13.3
281(17) 0.00356 269.5 13.3
274(17) 0.00365 269.6 13.3
260(16) 0.00385 269.7 13.2
304(17) 0.003289 269.7 13.2
319(18) 0.003135 269.8 13.2
309(18) 0.003236 269.9 13.2
293(17) 0.003413 270.0 13.3
290(17) 0.003448 270.0 13.3
315(18) 0.003175 270.1 13.3
318(18) 0.003145 270.2 13.3
304(17) 0.003289 270.3 13.4
314(18) 0.003185 270.3 13.4
299(17) 0.003344 270.4 13.5
278(17) 0.00360 270.5 13.5
299(17) 0.003344 270.6 13.6
341(18) 0.002933 270.6 13.7
280(17) 0.00357 270.7 13.8
288(17) 0.003472 270.8 13.9
320(18) 0.003125 270.9 14.0
298(17) 0.003356 270.9 14.1
288(17) 0.003472 271.0 14.2
292(17) 0.003425 271.1 14.4
287(17) 0.003484 271.2 14.5
282(17) 0.00355 271.2 14.6
289(17) 0.003460 271.3 14.8
327(18) 0.003058 271.4 14.9
259(16) 0.00386 271.5 15.1
313(18) 0.003195 271.5 15.3
288(17) 0.003472 271.6 15.4
294(17) 0.003401 271.7 15.6
307(18) 0.003257 271.8 15.9
305(17) 0.003279 271.8 16.1
295(17) 0.003390 271.9 16.4
292(17) 0.003425 272.0 16.6
284(17) 0.00352 272.1 16.9
281(17) 0.00356 272.1 17.2
289(17) 0.003460 272.2 17.5
295(17) 0.003390 272.3 17.9
290(17) 0.003448 272.4 18.3
293(17) 0.003413 272.4 18.7
285(17) 0.00351 272.5 19.1
308(18) 0.003247 272.6 19.6
302(17) 0.003311 272.7 20.2
302(17) 0.003311 272.7 20.8
306(17) 0.003268 272.8 21.4
293(17) 0.003413 272.9 22.2
297(17) 0.003367 273.0 23.0
301(17) 0.003322 273.0 24.0
323(18) 0.003096 273.1 25.1
305(17) 0.003279 273.2 26.4
341(18) 0.002933 273.3 28.0
307(18) 0.003257 273.3 30.0
322(18) 0.003106 273.4 32.4
330(18) 0.003030 273.5 35.4
311(18) 0.003215 273.6 39.1
324(18) 0.003086 273.6 43.8
348(19) 0.002874 273.7 49.4
332(18) 0.003012 273.8 56.2
353(19) 0.002833 273.9 64.2
364(19) 0.002747 273.9 73.4
359(19) 0.002786 274.0 83.6
400(20) 0.002500 274.1 94.4
374(19) 0.002674 274.2 105.0
417(20) 0.002398 274.2 114.4
458(21) 0.002183 274.3 121.0
427(21) 0.002342 274.4 123.7
479(22) 0.002088 274.5 122.0
428(21) 0.002336 274.5 116.4
419(20) 0.002387 274.6 108.1
369(19) 0.002710 274.7 98.5
369(19) 0.002710 274.8 88.7
369(19) 0.002710 274.8 79.6
338(18) 0.002959 274.9 71.5
354(19) 0.002825 275.0 64.6
346(19) 0.002890 275.1 59.0
325(18) 0.003077 275.1 54.5
356(19) 0.002809 275.2 51.1
348(19) 0.002874 275.3 48.7
358(19) 0.002793 275.4 47.1
348(19) 0.002874 275.4 46.2
351(19) 0.002849 275.5 45.9
337(18) 0.002967 275.6 46.1
348(19) 0.002874 275.7 46.8
305(17) 0.003279 275.7 47.9
360(19) 0.002778 275.8 49.4
345(19) 0.002899 275.9 51.4
339(18) 0.002950 276.0 53.8
384(20) 0.002604 276.0 56.8
328(18) 0.003049 276.1 60.3
368(19) 0.002717 276.2 64.3
364(19) 0.002747 276.3 69.0
369(19) 0.002710 276.3 74.4
376(19) 0.002660 276.4 80.3
396(20) 0.002525 276.5 86.9
389(20) 0.002571 276.6 94.1
405(20) 0.002469 276.6 101.7
413(20) 0.002421 276.7 109.7
402(20) 0.002488 276.8 117.8
421(21) 0.002375 276.9 125.8
433(21) 0.002309 276.9 133.1
444(21) 0.002252 277.0 139.4
430(21) 0.002326 277.1 144.3
446(21) 0.002242 277.2 147.2
440(21) 0.002273 277.3 148.2
462(21) 0.002164 277.3 147.2
436(21) 0.002294 277.4 144.6
420(20) 0.002381 277.5 140.8
411(20) 0.002433 277.6 136.2
424(21) 0.002358 277.6 131.3
422(21) 0.002370 277.7 126.6
388(20) 0.002577 277.8 122.2
414(20) 0.002415 277.9 118.4
441(21) 0.002268 277.9 115.5
428(21) 0.002336 278.0 113.4
416(20) 0.002404 278.1 112.2
423(21) 0.002364 278.2 112.0
438(21) 0.002283 278.2 112.8
398(20) 0.002513 278.3 114.7
454(21) 0.002203 278.4 117.5
398(20) 0.002513 278.5 121.4
445(21) 0.002247 278.5 126.3
428(21) 0.002336 278.6 132.1
453(21) 0.002208 278.7 139.0
460(21) 0.002174 278.8 146.8
461(21) 0.002169 278.8 155.6
464(22) 0.002155 278.9 165.3
467(22) 0.002141 279.0 176.0
459(21) 0.002179 279.1 187.5
479(22) 0.002088 279.1 199.9
529(23) 0.001890 279.2 213.1
588(24) 0.001701 279.3 227.1
579(24) 0.001727 279.4 241.8
619(25) 0.001616 279.4 257.0
639(25) 0.001565 279.5 272.8
663(26) 0.001508 279.6 288.8
682(26) 0.001466 279.7 304.9
718(27) 0.001393 279.7 320.9
735(27) 0.001361 279.8 336.5
742(27) 0.001348 279.9 351.4
756(27) 0.001323 280.0 365.1
761(28) 0.001314 280.0 377.5
793(28) 0.001261 280.1 388.0
756(27) 0.001323 280.2 396.4
756(27) 0.001323 280.3 402.4
740(27) 0.001351 280.3 405.8
746(27) 0.001340 280.4 406.6
730(27) 0.001370 280.5 404.8
749(27) 0.001335 280.6 400.5
730(27) 0.001370 280.6 394.0
650(25) 0.001538 280.7 385.7
685(26) 0.001460 280.8 375.9
643(25) 0.001555 280.9 364.9
627(25) 0.001595 280.9 353.2
665(26) 0.001504 281.0 340.8
644(25) 0.001553 281.1 328.3
616(25) 0.001623 281.2 315.8
604(25) 0.001656 281.2 303.4
615(25) 0.001626 281.3 291.4
604(25) 0.001656 281.4 279.7
605(25) 0.001653 281.5 268.7
586(24) 0.001706 281.5 258.1
594(24) 0.001684 281.6 248.2
558(24) 0.001792 281.7 238.9
568(24) 0.001761 281.8 230.2
562(24) 0.001779 281.8 222.1
574(24) 0.001742 281.9 214.6
554(24) 0.001805 282.0 207.6
567(24) 0.001764 282.1 201.1
514(23) 0.001946 282.1 195.1
513(23) 0.001949 282.2 189.5
543(23) 0.001842 282.3 184.2
529(23) 0.001890 282.4 179.3
535(23) 0.001869 282.4 174.6
526(23) 0.001901 282.5 170.1
570(24) 0.001754 282.6 165.9
709(27) 0.001410 282.7 161.8
722(27) 0.001385 282.7 157.8
517(23) 0.001934 282.8 154.0
496(22) 0.002016 282.9 150.2
495(22) 0.002020 283.0 146.5
520(23) 0.001923 283.0 142.8
514(23) 0.001946 283.1 139.2
476(22) 0.002101 283.2 135.7
454(21) 0.002203 283.3 132.2
462(21) 0.002164 283.3 128.8
504(22) 0.001984 283.4 125.4
468(22) 0.002137 283.5 122.1
474(22) 0.002110 283.6 118.8
431(21) 0.002320 283.6 115.6
432(21) 0.002315 283.7 112.5
460(21) 0.002174 283.8 109.4
402(20) 0.002488 283.9 106.4
435(21) 0.002299 283.9 103.6
391(20) 0.002558 284.0 100.8
418(20) 0.002392 284.1 98.1
405(20) 0.002469 284.2 95.5
424(21) 0.002358 284.2 93.0
376(19) 0.002660 284.3 90.7
373(19) 0.002681 284.4 88.4
377(19) 0.002653 284.5 86.3
382(20) 0.002618 284.5 84.3
406(20) 0.002463 284.6 82.4
388(20) 0.002577 284.7 80.7
377(19) 0.002653 284.8 79.1
383(20) 0.002611 284.9 77.6
371(19) 0.002695 284.9 76.3
340(18) 0.002941 285.0 75.1
383(20) 0.002611 285.1 74.0
399(20) 0.002506 285.2 73.1
388(20) 0.002577 285.2 72.4
355(19) 0.002817 285.3 71.8
333(18) 0.003003 285.4 71.3
360(19) 0.002778 285.5 71.0
354(19) 0.002825 285.5 70.8
325(18) 0.003077 285.6 70.8
364(19) 0.002747 285.7 70.9
354(19) 0.002825 285.8 71.2
328(18) 0.003049 285.8 71.6
381(20) 0.002625 285.9 72.2
372(19) 0.002688 286.0 72.9
378(19) 0.002646 286.1 73.8
366(19) 0.002732 286.1 74.8
345(19) 0.002899 286.2 75.9
355(19) 0.002817 286.3 77.1
383(20) 0.002611 286.4 78.5
384(20) 0.002604 286.4 80.0
394(20) 0.002538 286.5 81.6
343(19) 0.002915 286.6 83.2
388(20) 0.002577 286.7 85.0
377(19) 0.002653 286.7 86.8
390(20) 0.002564 286.8 88.7
382(20) 0.002618 286.9 90.5
395(20) 0.002532 287.0 92.4
390(20) 0.002564 287.0 94.3
391(20) 0.002558 287.1 96.1
408(20) 0.002451 287.2 97.9
366(19) 0.002732 287.3 99.6
417(20) 0.002398 287.3 101.2
429(21) 0.002331 287.4 102.8
413(20) 0.002421 287.5 104.2
412(20) 0.002427 287.6 105.5
453(21) 0.002208 287.6 106.8
434(21) 0.002304 287.7 107.9
432(21) 0.002315 287.8 109.0
414(20) 0.002415 287.9 109.9
428(21) 0.002336 287.9 110.8
426(21) 0.002347 288.0 111.6
407(20) 0.002457 288.1 112.3
426(21) 0.002347 288.2 112.9
439(21) 0.002278 288.2 113.4
410(20) 0.002439 288.3 113.8
416(20) 0.002404 288.4 114.2
411(20) 0.002433 288.5 114.4
446(21) 0.002242 288.5 114.5
412(20) 0.002427 288.6 114.6
412(20) 0.002427 288.7 114.5
432(21) 0.002315 288.8 114.3
397(20) 0.002519 288.8 114.1
394(20) 0.002538 288.9 113.7
374(19) 0.002674 289.0 113.3
402(20) 0.002488 289.1 112.8
386(20) 0.002591 289.1 112.2
415(20) 0.002410 289.2 111.6
401(20) 0.002494 289.3 110.9
422(21) 0.002370 289.4 110.1
376(19) 0.002660 289.4 109.4
394(20) 0.002538 289.5 108.6
376(19) 0.002660 289.6 107.8
388(20) 0.002577 289.7 107.1
373(19) 0.002681 289.7 106.3
393(20) 0.002545 289.8 105.6
404(20) 0.002475 289.9 105.0
398(20) 0.002513 290.0 104.4
413(20) 0.002421 290.0 103.8
395(20) 0.002532 290.1 103.4
415(20) 0.002410 290.2 103.0
403(20) 0.002481 290.3 102.8
391(20) 0.002558 290.3 102.8
419(20) 0.002387 290.4 102.9
401(20) 0.002494 290.5 103.2
385(20) 0.002597 290.6 103.9
411(20) 0.002433 290.6 104.9
386(20) 0.002591 290.7 106.3
398(20) 0.002513 290.8 108.3
397(20) 0.002519 290.9 111.0
410(20) 0.002439 290.9 114.7
404(20) 0.002475 291.0 119.4
439(21) 0.002278 291.1 125.5
446(21) 0.002242 291.2 133.2
472(22) 0.002119 291.2 142.6
487(22) 0.002053 291.3 153.9
497(22) 0.002012 291.4 167.2
540(23) 0.001852 291.5 182.4
562(24) 0.001779 291.5 199.2
619(25) 0.001616 291.6 216.9
615(25) 0.001626 291.7 234.4
685(26) 0.001460 291.8 250.1
709(27) 0.001410 291.8 261.9
725(27) 0.001379 291.9 268.0
683(26) 0.001464 292.0 267.2
670(26) 0.001493 292.1 259.9
638(25) 0.001567 292.2 247.8
637(25) 0.001570 292.2 232.9
581(24) 0.001721 292.3 217.3
525(23) 0.001905 292.4 202.4
497(22) 0.002012 292.5 189.0
506(22) 0.001976 292.5 177.7
520(23) 0.001923 292.6 168.7
503(22) 0.001988 292.7 161.9
501(22) 0.001996 292.8 157.1
477(22) 0.002096 292.8 153.9
471(22) 0.002123 292.9 151.8
544(23) 0.001838 293.0 150.2
465(22) 0.002151 293.1 148.4
461(21) 0.002169 293.1 146.1
462(21) 0.002164 293.2 143.0
441(21) 0.002268 293.3 139.2
404(20) 0.002475 293.4 134.9
421(21) 0.002375 293.4 130.3
410(20) 0.002439 293.5 125.9
392(20) 0.002551 293.6 121.7
405(20) 0.002469 293.7 118.0
400(20) 0.002500 293.7 114.8
386(20) 0.002591 293.8 112.1
388(20) 0.002577 293.9 110.0
399(20) 0.002506 294.0 108.4
407(20) 0.002457 294.0 107.3
394(20) 0.002538 294.1 106.6
404(20) 0.002475 294.2 106.3
425(21) 0.002353 294.3 106.3
395(20) 0.002532 294.3 106.6
370(19) 0.002703 294.4 107.2
390(20) 0.002564 294.5 107.9
397(20) 0.002519 294.6 108.7
404(20) 0.002475 294.6 109.7
404(20) 0.002475 294.7 110.7
405(20) 0.002469 294.8 111.8
408(20) 0.002451 294.9 112.9
395(20) 0.002532 294.9 113.9
409(20) 0.002445 295.0 114.9
385(20) 0.002597 295.1 115.8
406(20) 0.002463 295.2 116.6
414(20) 0.002415 295.2 117.3
441(21) 0.002268 295.3 117.9
424(21) 0.002358 295.4 118.3
357(19) 0.002801 295.5 118.6
384(20) 0.002604 295.5 118.8
394(20) 0.002538 295.6 118.9
379(19) 0.002639 295.7 119.0
387(20) 0.002584 295.8 119.1
405(20) 0.002469 295.8 119.3
387(20) 0.002584 295.9 119.6
411(20) 0.002433 296.0 120.1
397(20) 0.002519 296.1 120.9
411(20) 0.002433 296.1 122.1
425(21) 0.002353 296.2 123.6
391(20) 0.002558 296.3 125.6
461(21) 0.002169 296.4 128.1
416(20) 0.002404 296.4 131.0
431(21) 0.002320 296.5 134.3
455(21) 0.002198 296.6 138.0
421(21) 0.002375 296.7 141.8
447(21) 0.002237 296.7 145.7
430(21) 0.002326 296.8 149.3
459(21) 0.002179 296.9 152.7
458(21) 0.002183 297.0 155.8
494(22) 0.002024 297.0 158.9
495(22) 0.002020 297.1 162.6
481(22) 0.002079 297.2 167.5
511(23) 0.001957 297.3 174.6
542(23) 0.001845 297.3 184.5
557(24) 0.001795 297.4 197.7
584(24) 0.001712 297.5 214.4
634(25) 0.001577 297.6 233.6
642(25) 0.001558 297.6 253.1
673(26) 0.001486 297.7 268.8
683(26) 0.001464 297.8 276.2
662(26) 0.001511 297.9 273.9
680(26) 0.001471 297.9 264.3
630(25) 0.001587 298.0 251.9
638(25) 0.001567 298.1 239.9
617(25) 0.001621 298.2 230.1
561(24) 0.001783 298.2 222.8
572(24) 0.001748 298.3 217.5
584(24) 0.001712 298.4 213.7
552(23) 0.001812 298.5 210.7
588(24) 0.001701 298.5 207.9
555(24) 0.001802 298.6 204.9
596(24) 0.001678 298.7 201.4
529(23) 0.001890 298.8 197.6
504(22) 0.001984 298.8 193.5
531(23) 0.001883 298.9 189.4
505(22) 0.001980 299.0 185.6
522(23) 0.001916 299.1 182.3
510(23) 0.001961 299.1 179.7
465(22) 0.002151 299.2 178.2
494(22) 0.002024 299.3 177.7
470(22) 0.002128 299.4 178.5
478(22) 0.002092 299.4 180.5
502(22) 0.001992 299.5 183.9
486(22) 0.002058 299.6 188.6
503(22) 0.001988 299.7 194.7
496(22) 0.002016 299.8 202.1
534(23) 0.001873 299.8 210.7
563(24) 0.001776 299.9 220.4
531(23) 0.001883 300.0 231.0
599(24) 0.001669 300.1 242.3
549(23) 0.001822 300.1 254.1
604(25) 0.001656 300.2 266.0
618(25) 0.001618 300.3 277.7
620(25) 0.001613 300.4 288.7
591(24) 0.001692 300.4 298.5
581(24) 0.001721 300.5 306.8
618(25) 0.001618 300.6 313.2
624(25) 0.001603 300.7 317.3
625(25) 0.001600 300.7 318.8
605(25) 0.001653 300.8 317.7
573(24) 0.001745 300.9 313.9
547(23) 0.001828 301.0 307.4
567(24) 0.001764 301.0 298.4
570(24) 0.001754 301.1 287.1
598(24) 0.001672 301.2 274.0
530(23) 0.001887 301.3 259.4
519(23) 0.001927 301.3 243.8
485(22) 0.002062 301.4 227.8
449(21) 0.002227 301.5 211.7
493(22) 0.002028 301.6 195.9
437(21) 0.002288 301.6 180.7
437(21) 0.002288 301.7 166.2
449(21) 0.002227 301.8 152.6
427(21) 0.002342 301.9 139.9
434(21) 0.002304 301.9 128.3
412(20) 0.002427 302.0 117.7
387(20) 0.002584 302.1 108.1
415(20) 0.002410 302.2 99.4
371(19) 0.002695 302.2 91.7
374(19) 0.002674 302.3 84.9
392(20) 0.002551 302.4 78.9
338(18) 0.002959 302.5 73.7
357(19) 0.002801 302.5 69.1
341(18) 0.002933 302.6 65.2
371(19) 0.002695 302.7 61.8
350(19) 0.002857 302.8 59.0
343(19) 0.002915 302.8 56.6
335(18) 0.002985 302.9 54.6
326(18) 0.003067 303.0 53.0
340(18) 0.002941 303.1 51.7
368(19) 0.002717 303.1 50.7
318(18) 0.003145 303.2 50.0
375(19) 0.002667 303.3 49.6
356(19) 0.002809 303.4 49.4
319(18) 0.003135 303.4 49.4
351(19) 0.002849 303.5 49.7
365(19) 0.002740 303.6 50.1
362(19) 0.002762 303.7 50.7
329(18) 0.003039 303.7 51.4
332(18) 0.003012 303.8 52.2
375(19) 0.002667 303.9 53.1
338(18) 0.002959 304.0 54.1
348(19) 0.002874 304.0 55.1
314(18) 0.003185 304.1 56.0
313(18) 0.003195 304.2 56.8
357(19) 0.002801 304.3 57.4
326(18) 0.003067 304.3 57.8
333(18) 0.003003 304.4 57.9
345(19) 0.002899 304.5 57.8
324(18) 0.003086 304.6 57.3
351(19) 0.002849 304.6 56.5
327(18) 0.003058 304.7 55.5
327(18) 0.003058 304.8 54.2
325(18) 0.003077 304.9 52.8
353(19) 0.002833 304.9 51.2
346(19) 0.002890 305.0 49.6
309(18) 0.003236 305.1 48.0
313(18) 0.003195 305.2 46.4
312(18) 0.003205 305.2 44.9
283(17) 0.00353 305.3 43.4
321(18) 0.003115 305.4 42.1
340(18) 0.002941 305.4 40.8
291(17) 0.003436 305.5 39.7
320(18) 0.003125 305.6 38.7
367(19) 0.002725 305.7 37.8
340(18) 0.002941 305.7 37.1
330(18) 0.003030 305.8 36.5
336(18) 0.002976 305.9 36.0
342(18) 0.002924 305.9 35.7
331(18) 0.003021 306.0 35.5
371(19) 0.002695 306.1 35.4
338(18) 0.002959 306.1 35.4
361(19) 0.002770 306.2 35.6
321(18) 0.003115 306.3 35.9
371(19) 0.002695 306.4 36.3
346(19) 0.002890 306.4 36.9
336(18) 0.002976 306.5 37.6
339(18) 0.002950 306.6 38.4
322(18) 0.003106 306.6 39.4
334(18) 0.002994 306.7 40.6
328(18) 0.003049 306.8 41.9
359(19) 0.002786 306.8 43.5
342(18) 0.002924 306.9 45.2
352(19) 0.002841 307.0 47.2
336(18) 0.002976 307.1 49.4
340(18) 0.002941 307.1 51.9
325(18) 0.003077 307.2 54.7
335(18) 0.002985 307.3 57.8
349(19) 0.002865 307.3 61.3
381(20) 0.002625 307.4 65.2
374(19) 0.002674 307.5 69.4
345(19) 0.002899 307.5 74.1
378(19) 0.002646 307.6 79.2
384(20) 0.002604 307.7 84.7
380(19) 0.002632 307.8 90.7
394(20) 0.002538 307.8 97.2
412(20) 0.002427 307.9 104.2
411(20) 0.002433 308.0 111.7
426(21) 0.002347 308.0 119.7
434(21) 0.002304 308.1 128.2
405(20) 0.002469 308.2 137.1
459(21) 0.002179 308.2 146.4
480(22) 0.002083 308.3 156.0
458(21) 0.002183 308.4 166.0
508(23) 0.001968 308.5 176.2
518(23) 0.001931 308.5 186.6
482(22) 0.002075 308.6 196.9
564(24) 0.001773 308.7 207.1
567(24) 0.001764 308.7 217.0
525(23) 0.001905 308.8 226.4
549(23) 0.001822 308.9 235.0
586(24) 0.001706 308.9 242.8
603(25) 0.001658 309.0 249.4
576(24) 0.001736 309.1 254.6
519(23) 0.001927 309.2 258.4
537(23) 0.001862 309.2 260.4
536(23) 0.001866 309.3 260.7
541(23) 0.001848 309.4 259.3
536(23) 0.001866 309.4 256.1
508(23) 0.001968 309.5 251.4
504(22) 0.001984 309.6 245.2
484(22) 0.002066 309.6 237.9
476(22) 0.002101 309.7 229.5
472(22) 0.002119 309.8 220.4
484(22) 0.002066 309.9 210.6
493(22) 0.002028 309.9 200.6
440(21) 0.002273 310.0 190.3
456(21) 0.002193 310.1 180.0
440(21) 0.002273 310.1 169.8
374(19) 0.002674 310.2 159.7
402(20) 0.002488 310.3 150.0
433(21) 0.002309 310.3 140.6
403(20) 0.002481 310.4 131.6
404(20) 0.002475 310.5 123.0
408(20) 0.002451 310.6 114.9
384(20) 0.002604 310.6 107.3
359(19) 0.002786 310.7 100.2
402(20) 0.002488 310.8 93.6
344(19) 0.002907 310.8 87.4
400(20) 0.002500 310.9 81.8
398(20) 0.002513 311.0 76.6
397(20) 0.002519 311.0 71.8
380(19) 0.002632 311.1 67.5
348(19) 0.002874 311.2 63.6
377(19) 0.002653 311.3 60.1
360(19) 0.002778 311.3 56.9
368(19) 0.002717 311.4 54.1
369(19) 0.002710 311.5 51.5
348(19) 0.002874 311.5 49.3
323(18) 0.003096 311.6 47.3
369(19) 0.002710 311.7 45.6
347(19) 0.002882 311.7 44.0
363(19) 0.002755 311.8 42.7
356(19) 0.002809 311.9 41.5
386(20) 0.002591 312.0 40.6
332(18) 0.003012 312.0 39.7
356(19) 0.002809 312.1 39.0
361(19) 0.002770 312.2 38.5
341(18) 0.002933 312.2 38.1
384(20) 0.002604 312.3 37.7
335(18) 0.002985 312.4 37.5
349(19) 0.002865 312.4 37.5
370(19) 0.002703 312.5 37.5
361(19) 0.002770 312.6 37.6
358(19) 0.002793 312.7 37.9
365(19) 0.002740 312.7 38.3
362(19) 0.002762 312.8 38.9
365(19) 0.002740 312.9 39.6
347(19) 0.002882 312.9 40.4
375(19) 0.002667 313.0 41.5
353(19) 0.002833 313.1 42.8
377(19) 0.002653 313.1 44.3
382(20) 0.002618 313.2 46.1
353(19) 0.002833 313.3 48.1
351(19) 0.002849 313.4 50.5
378(19) 0.002646 313.4 53.2
380(19) 0.002632 313.5 56.3
407(20) 0.002457 313.6 59.9
355(19) 0.002817 313.6 63.8
396(20) 0.002525 313.7 68.2
401(20) 0.002494 313.8 73.1
395(20) 0.002532 313.8 78.5
402(20) 0.002488 313.9 84.4
442(21) 0.002262 314.0 90.7
376(19) 0.002660 314.1 97.6
426(21) 0.002347 314.1 104.9
421(21) 0.002375 314.2 112.5
422(21) 0.002370 314.3 120.5
482(22) 0.002075 314.3 128.7
436(21) 0.002294 314.4 137.0
428(21) 0.002336 314.5 145.2
486(22) 0.002058 314.5 153.1
459(21) 0.002179 314.6 160.4
486(22) 0.002058 314.7 167.0
511(23) 0.001957 314.8 172.5
489(22) 0.002045 314.8 176.8
504(22) 0.001984 314.9 179.5
508(23) 0.001968 315.0 180.5
529(23) 0.001890 315.0 179.9
522(23) 0.001916 315.1 177.8
495(22) 0.002020 315.2 174.2
523(23) 0.001912 315.2 169.5
505(22) 0.001980 315.3 163.9
528(23) 0.001894 315.4 157.7
476(22) 0.002101 315.5 151.1
445(21) 0.002247 315.5 144.4
463(22) 0.002160 315.6 137.7
476(22) 0.002101 315.7 131.3
452(21) 0.002212 315.7 125.3
453(21) 0.002208 315.8 119.6
422(21) 0.002370 315.9 114.5
414(20) 0.002415 315.9 110.0
399(20) 0.002506 316.0 106.0
392(20) 0.002551 316.1 102.6
389(20) 0.002571 316.2 99.8
412(20) 0.002427 316.2 97.6
403(20) 0.002481 316.3 95.9
382(20) 0.002618 316.4 94.8
413(20) 0.002421 316.4 94.2
416(20) 0.002404 316.5 94.1
417(20) 0.002398 316.6 94.4
405(20) 0.002469 316.6 95.1
439(21) 0.002278 316.7 96.2
424(21) 0.002358 316.8 97.5
422(21) 0.002370 316.9 99.1
429(21) 0.002331 316.9 100.9
450(21) 0.002222 317.0 102.9
453(21) 0.002208 317.1 105.0
432(21) 0.002315 317.1 107.1
475(22) 0.002105 317.2 109.3
459(21) 0.002179 317.3 111.4
442(21) 0.002262 317.3 113.3
480(22) 0.002083 317.4 115.2
466(22) 0.002146 317.5 116.8
482(22) 0.002075 317.6 118.2
428(21) 0.002336 317.6 119.2
443(21) 0.002257 317.7 120.0
479(22) 0.002088 317.8 120.4
457(21) 0.002188 317.8 120.4
468(22) 0.002137 317.9 120.1
450(21) 0.002222 318.0 119.3
448(21) 0.002232 318.0 118.3
440(21) 0.002273 318.1 116.8
448(21) 0.002232 318.2 115.1
433(21) 0.002309 318.3 113.1
412(20) 0.002427 318.3 110.8
440(21) 0.002273 318.4 108.3
418(20) 0.002392 318.5 105.6
418(20) 0.002392 318.5 102.8
382(20) 0.002618 318.6 100.0
407(20) 0.002457 318.7 97.0
404(20) 0.002475 318.7 94.0
361(19) 0.002770 318.8 91.0
386(20) 0.002591 318.9 88.1
369(19) 0.002710 318.9 85.2
363(19) 0.002755 319.0 82.4
369(19) 0.002710 319.1 79.6
366(19) 0.002732 319.2 76.9
397(20) 0.002519 319.2 74.4
366(19) 0.002732 319.3 72.0
386(20) 0.002591 319.4 69.7
383(20) 0.002611 319.4 67.6
352(19) 0.002841 319.5 65.7
353(19) 0.002833 319.6 63.9
387(20) 0.002584 319.6 62.3
366(19) 0.002732 319.7 60.8
364(19) 0.002747 319.8 59.6
377(19) 0.002653 319.9 58.5
365(19) 0.002740 319.9 57.7
353(19) 0.002833 320.0 57.0
358(19) 0.002793 320.1 56.5
359(19) 0.002786 320.1 56.2
344(19) 0.002907 320.2 56.1
370(19) 0.002703 320.3 56.2
327(18) 0.003058 320.3 56.4
352(19) 0.002841 320.4 56.9
368(19) 0.002717 320.5 57.5
359(19) 0.002786 320.6 58.3
355(19) 0.002817 320.6 59.3
350(19) 0.002857 320.7 60.4
353(19) 0.002833 320.8 61.7
358(19) 0.002793 320.8 63.2
394(20) 0.002538 320.9 64.8
369(19) 0.002710 321.0 66.5
376(19) 0.002660 321.0 68.4
350(19) 0.002857 321.1 70.4
376(19) 0.002660 321.2 72.5
379(19) 0.002639 321.3 74.7
411(20) 0.002433 321.3 77.1
388(20) 0.002577 321.4 79.5
395(20) 0.002532 321.5 81.9
417(20) 0.002398 321.5 84.4
401(20) 0.002494 321.6 86.9
406(20) 0.002463 321.7 89.5
427(21) 0.002342 321.7 92.0
436(21) 0.002294 321.8 94.4
455(21) 0.002198 321.9 96.8
442(21) 0.002262 322.0 99.1
408(20) 0.002451 322.0 101.4
449(21) 0.002227 322.1 103.4
426(21) 0.002347 322.2 105.2
427(21) 0.002342 322.2 106.8
407(20) 0.002457 322.3 108.1
455(21) 0.002198 322.4 109.2
465(22) 0.002151 322.4 110.0
407(20) 0.002457 322.5 110.5
439(21) 0.002278 322.6 110.6
436(21) 0.002294 322.7 110.5
433(21) 0.002309 322.7 110.0
479(22) 0.002088 322.8 109.2
425(21) 0.002353 322.9 108.1
441(21) 0.002268 322.9 106.7
396(20) 0.002525 323.0 105.0
434(21) 0.002304 323.1 103.1
440(21) 0.002273 323.1 101.1
427(21) 0.002342 323.2 98.8
421(21) 0.002375 323.3 96.4
389(20) 0.002571 323.4 93.9
423(21) 0.002364 323.4 91.2
427(21) 0.002342 323.5 88.6
420(20) 0.002381 323.6 85.9
398(20) 0.002513 323.6 83.1
389(20) 0.002571 323.7 80.4
412(20) 0.002427 323.8 77.7
395(20) 0.002532 323.8 75.0
386(20) 0.002591 323.9 72.4
403(20) 0.002481 324.0 69.9
392(20) 0.002551 324.1 67.4
368(19) 0.002717 324.1 64.9
383(20) 0.002611 324.2 62.6
390(20) 0.002564 324.3 60.4
375(19) 0.002667 324.3 58.2
360(19) 0.002778 324.4 56.2
355(19) 0.002817 324.5 54.2
357(19) 0.002801 324.5 52.4
339(18) 0.002950 324.6 50.6
360(19) 0.002778 324.7 48.9
370(19) 0.002703 324.8 47.4
367(19) 0.002725 324.8 45.9
358(19) 0.002793 324.9 44.6
362(19) 0.002762 325.0 43.3
372(19) 0.002688 325.0 42.1
349(19) 0.002865 325.1 41.1
351(19) 0.002849 325.2 40.1
335(18) 0.002985 325.2 39.1
349(19) 0.002865 325.3 38.3
357(19) 0.002801 325.4 37.6
382(20) 0.002618 325.5 36.9
368(19) 0.002717 325.5 36.2
342(18) 0.002924 325.6 35.7
339(18) 0.002950 325.7 35.2
346(19) 0.002890 325.7 34.8
339(18) 0.002950 325.8 34.4
362(19) 0.002762 325.9 34.0
354(19) 0.002825 325.9 33.8
359(19) 0.002786 326.0 33.5
347(19) 0.002882 326.1 33.3
357(19) 0.002801 326.2 33.2
345(19) 0.002899 326.2 33.1
353(19) 0.002833 326.3 33.0
342(18) 0.002924 326.4 33.0
360(19) 0.002778 326.4 33.0
306(17) 0.003268 326.5 33.0
326(18) 0.003067 326.6 33.1
343(19) 0.002915 326.6 33.2
324(18) 0.003086 326.7 33.3
380(19) 0.002632 326.8 33.5
340(18) 0.002941 326.9 33.7
372(19) 0.002688 326.9 34.0
344(19) 0.002907 327.0 34.3
324(18) 0.003086 327.1 34.6
329(18) 0.003039 327.1 35.0
341(18) 0.002933 327.2 35.4
329(18) 0.003039 327.2 35.8
312(18) 0.003205 327.2 36.3
341(18) 0.002933 327.1 36.8
314(18) 0.003185 327.1 37.4
327(18) 0.003058 327.0 38.0
315(18) 0.003175 327.0 38.6
345(19) 0.002899 326.9 39.3
359(19) 0.002786 326.9 40.0
326(18) 0.003067 326.8 40.8
342(18) 0.002924 326.8 41.6
349(19) 0.002865 326.7 42.4
331(18) 0.003021 326.7 43.3
351(19) 0.002849 326.6 44.2
326(18) 0.003067 326.6 45.1
336(18) 0.002976 326.5 46.0
346(19) 0.002890 326.4 46.9
357(19) 0.002801 326.4 47.9
353(19) 0.002833 326.3 48.9
331(18) 0.003021 326.3 49.9
340(18) 0.002941 326.2 50.9
346(19) 0.002890 326.2 52.0
340(18) 0.002941 326.1 53.1
369(19) 0.002710 326.1 54.2
354(19) 0.002825 326.0 55.4
353(19) 0.002833 326.0 56.6
378(19) 0.002646 325.9 57.9
362(19) 0.002762 325.9 59.2
340(18) 0.002941 325.8 60.6
362(19) 0.002762 325.8 62.1
355(19) 0.002817 325.7 63.6
363(19) 0.002755 325.7 65.3
335(18) 0.002985 325.6 67.0
386(20) 0.002591 325.6 68.8
351(19) 0.002849 325.5 70.7
366(19) 0.002732 325.5 72.6
379(19) 0.002639 325.4 74.7
358(19) 0.002793 325.4 76.9
349(19) 0.002865 325.3 79.3
376(19) 0.002660 325.3 81.7
394(20) 0.002538 325.2 84.3
409(20) 0.002445 325.2 87.1
387(20) 0.002584 325.1 90.1
399(20) 0.002506 325.1 93.3
381(20) 0.002625 325.0 96.9
389(20) 0.002571 325.0 100.9
421(21) 0.002375 324.9 105.4
404(20) 0.002475 324.9 110.7
380(19) 0.002632 324.8 117.4
433(21) 0.002309 324.8 125.9
432(21) 0.002315 324.7 137.1
468(22) 0.002137 324.7 152.1
496(22) 0.002016 324.6 171.7
495(22) 0.002020 324.6 196.7
474(22) 0.002110 324.5 226.8
510(23) 0.001961 324.5 259.5
549(23) 0.001822 324.4 288.9
524(23) 0.001908 324.4 305.2
546(23) 0.001832 324.3 301.1
506(22) 0.001976 324.3 279.2
507(23) 0.001972 324.2 249.1
502(22) 0.001992 324.2 219.1
499(22) 0.002004 324.1 193.3
447(21) 0.002237 324.1 172.7
464(22) 0.002155 324.0 157.1
446(21) 0.002242 324.0 145.7
468(22) 0.002137 323.9 137.4
470(22) 0.002128 323.8 131.2
452(21) 0.002212 323.8 126.4
480(22) 0.002083 323.7 122.5
438(21) 0.002283 323.7 119.2
426(21) 0.002347 323.6 116.2
406(20) 0.002463 323.6 113.5
424(21) 0.002358 323.5 110.8
426(21) 0.002347 323.5 108.3
420(20) 0.002381 323.4 105.8
424(21) 0.002358 323.4 103.3
449(21) 0.002227 323.3 100.9
416(20) 0.002404 323.3 98.5
386(20) 0.002591 323.2 96.1
392(20) 0.002551 323.2 93.7
403(20) 0.002481 323.1 91.4
374(19) 0.002674 323.1 89.0
372(19) 0.002688 323.0 86.7
384(20) 0.002604 323.0 84.5
377(19) 0.002653 322.9 82.2
376(19) 0.002660 322.9 80.0
382(20) 0.002618 322.8 77.8
367(19) 0.002725 322.8 75.6
349(19) 0.002865 322.7 73.5
378(19) 0.002646 322.7 71.6
363(19) 0.002755 322.6 69.6
336(18) 0.002976 322.6 67.6
363(19) 0.002755 322.5 65.7
323(18) 0.003096 322.5 63.8
317(18) 0.003155 322.4 62.1
359(19) 0.002786 322.4 60.3
357(19) 0.002801 322.3 58.6
339(18) 0.002950 322.3 57.0
359(19) 0.002786 322.2 55.5
343(19) 0.002915 322.2 54.0
315(18) 0.003175 322.1 52.5
350(19) 0.002857 322.1 51.2
339(18) 0.002950 322.0 49.8
341(18) 0.002933 322.0 48.6
348(19) 0.002874 321.9 47.4
337(18) 0.002967 321.9 46.3
336(18) 0.002976 321.8 45.2
351(19) 0.002849 321.8 44.2
340(18) 0.002941 321.7 43.2
345(19) 0.002899 321.7 42.3
333(18) 0.003003 321.6 41.5
326(18) 0.003067 321.6 40.7
315(18) 0.003175 321.5 40.0
330(18) 0.003030 321.5 39.3
341(18) 0.002933 321.4 38.7
321(18) 0.003115 321.4 38.1
336(18) 0.002976 321.3 37.6
337(18) 0.002967 321.2 37.1
313(18) 0.003195 321.2 36.7
332(18) 0.003012 321.1 36.4
324(18) 0.003086 321.1 36.1
325(18) 0.003077 321.0 35.8
336(18) 0.002976 321.0 35.6
317(18) 0.003155 320.9 35.5
324(18) 0.003086 320.9 35.4
355(19) 0.002817 320.8 35.4
343(19) 0.002915 320.8 35.5
341(18) 0.002933 320.7 35.6
353(19) 0.002833 320.7 35.8
324(18) 0.003086 320.6 36.2
353(19) 0.002833 320.6 36.6
339(18) 0.002950 320.5 37.2
361(19) 0.002770 320.5 37.9
360(19) 0.002778 320.4 38.8
365(19) 0.002740 320.4 39.9
347(19) 0.002882 320.3 41.3
354(19) 0.002825 320.3 43.1
389(20) 0.002571 320.2 45.3
376(19) 0.002660 320.2 48.2
399(20) 0.002506 320.1 52.1
367(19) 0.002725 320.1 57.2
413(20) 0.002421 320.0 64.3
399(20) 0.002506 320.0 73.9
434(21) 0.002304 319.9 87.0
452(21) 0.002212 319.9 104.3
491(22) 0.002037 319.8 126.5
555(24) 0.001802 319.8 153.9
543(23) 0.001842 319.7 185.8
578(24) 0.001730 319.7 220.1
597(24) 0.001675 319.6 252.1
605(25) 0.001653 319.6 274.3
597(24) 0.001675 319.5 279.4
634(25) 0.001577 319.5 265.2
550(23) 0.001818 319.4 237.1
548(23) 0.001825 319.4 202.9
507(23) 0.001972 319.3 169.0
456(21) 0.002193 319.3 138.8
434(21) 0.002304 319.2 113.6
435(21) 0.002299 319.2 93.5
373(19) 0.002681 319.1 78.0
398(20) 0.002513 319.1 66.4
379(19) 0.002639 319.0 57.7
362(19) 0.002762 319.0 51.3
356(19) 0.002809 318.9 46.5
384(20) 0.002604 318.9 42.7
369(19) 0.002710 318.8 39.8
341(18) 0.002933 318.8 37.4
347(19) 0.002882 318.7 35.5
358(19) 0.002793 318.6 33.8
352(19) 0.002841 318.6 32.4
360(19) 0.002778 318.5 31.2
328(18) 0.003049 318.5 30.1
358(19) 0.002793 318.4 29.1
327(18) 0.003058 318.4 28.3
352(19) 0.002841 318.3 27.5
328(18) 0.003049 318.3 26.9
310(18) 0.003226 318.2 26.3
333(18) 0.003003 318.2 25.7
304(17) 0.003289 318.1 25.2
346(19) 0.002890 318.1 24.8
331(18) 0.003021 318.0 24.4
325(18) 0.003077 318.0 24.0
342(18) 0.002924 317.9 23.7
342(18) 0.002924 317.9 23.4
317(18) 0.003155 317.8 23.1
330(18) 0.003030 317.8 22.9
319(18) 0.003135 317.7 22.7
329(18) 0.003039 317.7 22.6
319(18) 0.003135 317.6 22.5
335(18) 0.002985 317.6 22.4
319(18) 0.003135 317.5 22.4
326(18) 0.003067 317.5 22.5
334(18) 0.002994 317.4 22.7
328(18) 0.003049 317.4 23.0
336(18) 0.002976 317.3 23.5
354(19) 0.002825 317.3 24.2
359(19) 0.002786 317.2 25.2
355(19) 0.002817 317.2 26.7
385(20) 0.002597 317.1 28.7
375(19) 0.002667 317.1 31.2
380(19) 0.002632 317.0 34.3
378(19) 0.002646 317.0 37.8
386(20) 0.002591 316.9 41.4
423(21) 0.002364 316.9 44.5
407(20) 0.002457 316.8 46.1
398(20) 0.002513 316.8 45.7
356(19) 0.002809 316.7 43.3
367(19) 0.002725 316.7 39.9
378(19) 0.002646 316.6 36.1
341(18) 0.002933 316.6 32.6
329(18) 0.003039 316.5 29.6
335(18) 0.002985 316.5 27.2
344(19) 0.002907 316.4 25.3
306(17) 0.003268 316.4 23.9
305(17) 0.003279 316.3 22.8
334(18) 0.002994 316.3 22.1
344(19) 0.002907 316.2 21.6
331(18) 0.003021 316.1 21.2
332(18) 0.003012 316.0 21.0
341(18) 0.002933 315.9 20.8
318(18) 0.003145 315.7 20.7
325(18) 0.003077 315.6 20.7
308(18) 0.003247 315.5 20.7
339(18) 0.002950 315.4 20.7
335(18) 0.002985 315.2 20.8
352(19) 0.002841 315.1 20.9
316(18) 0.003165 315.0 21.0
310(18) 0.003226 314.9 21.2
330(18) 0.003030 314.7 21.3
310(18) 0.003226 314.6 21.5
307(18) 0.003257 314.5 21.8
347(19) 0.002882 314.4 22.0
311(18) 0.003215 314.3 22.3
338(18) 0.002959 314.1 22.6
323(18) 0.003096 314.0 22.9
323(18) 0.003096 313.9 23.2
336(18) 0.002976 313.8 23.6
346(19) 0.002890 313.6 24.1
361(19) 0.002770 313.5 24.5
326(18) 0.003067 313.4 24.9
322(18) 0.003106 313.3 25.4
318(18) 0.003145 313.2 25.8
341(18) 0.002933 313.0 26.3
339(18) 0.002950 312.9 26.9
319(18) 0.003135 312.8 27.4
324(18) 0.003086 312.7 28.0
333(18) 0.003003 312.5 28.6
344(19) 0.002907 312.4 29.3
331(18) 0.003021 312.3 30.0
358(19) 0.002793 312.2 30.7
341(18) 0.002933 312.0 31.5
329(18) 0.003039 311.9 32.3
328(18) 0.003049 311.8 33.1
333(18) 0.003003 311.7 34.0
334(18) 0.002994 311.6 35.0
373(19) 0.002681 311.4 36.0
335(18) 0.002985 311.3 37.1
349(19) 0.002865 311.2 38.3
350(19) 0.002857 311.1 39.5
375(19) 0.002667 310.9 41.0
341(18) 0.002933 310.8 42.5
365(19) 0.002740 310.7 44.2
360(19) 0.002778 310.6 46.2
323(18) 0.003096 310.5 48.3
346(19) 0.002890 310.3 50.7
367(19) 0.002725 310.2 53.4
390(20) 0.002564 310.1 56.5
371(19) 0.002695 310.0 59.9
354(19) 0.002825 309.8 63.7
385(20) 0.002597 309.7 68.0
365(19) 0.002740 309.6 72.7
381(20) 0.002625 309.5 78.0
374(19) 0.002674 309.3 83.6
403(20) 0.002481 309.2 89.7
382(20) 0.002618 309.1 96.1
420(20) 0.002381 309.0 102.7
366(19) 0.002732 308.9 109.3
389(20) 0.002571 308.7 115.6
407(20) 0.002457 308.6 121.6
410(20) 0.002439 308.5 126.9
402(20) 0.002488 308.4 131.5
440(21) 0.002273 308.2 135.1
454(21) 0.002203 308.1 137.5
427(21) 0.002342 308.0 138.7
413(20) 0.002421 307.9 138.4
445(21) 0.002247 307.8 136.5
437(21) 0.002288 307.6 133.2
365(19) 0.002740 307.5 128.6
382(20) 0.002618 307.4 123.0
403(20) 0.002481 307.3 116.8
386(20) 0.002591 307.1 110.3
378(19) 0.002646 307.0 103.9
356(19) 0.002809 306.9 97.6
347(19) 0.002882 306.8 91.8
369(19) 0.002710 306.6 86.4
356(19) 0.002809 306.5 81.5
324(18) 0.003086 306.4 77.0
374(19) 0.002674 306.3 73.1
325(18) 0.003077 306.2 69.7
345(19) 0.002899 306.0 66.6
357(19) 0.002801 305.9 64.0
343(19) 0.002915 305.8 61.7
345(19) 0.002899 305.7 59.6
366(19) 0.002732 305.5 57.9
316(18) 0.003165 305.4 56.3
332(18) 0.003012 305.3 54.9
339(18) 0.002950 305.2 53.7
366(19) 0.002732 305.1 52.6
337(18) 0.002967 304.9 51.6
321(18) 0.003115 304.8 50.7
329(18) 0.003039 304.7 49.9
289(17) 0.003460 304.6 49.1
324(18) 0.003086 304.4 48.4
317(18) 0.003155 304.3 47.8
305(17) 0.003279 304.2 47.2
339(18) 0.002950 304.1 46.7
326(18) 0.003067 303.9 46.2
321(18) 0.003115 303.8 45.7
338(18) 0.002959 303.7 45.3
307(18) 0.003257 303.6 45.0
312(18) 0.003205 303.5 44.6
335(18) 0.002985 303.3 44.4
325(18) 0.003077 303.2 44.1
311(18) 0.003215 303.1 43.9
318(18) 0.003145 303.0 43.7
300(17) 0.003333 302.8 43.5
306(17) 0.003268 302.7 43.4
326(18) 0.003067 302.6 43.3
284(17) 0.00352 302.5 43.2
309(18) 0.003236 302.4 43.2
348(19) 0.002874 302.2 43.2
303(17) 0.003300 302.1 43.2
318(18) 0.003145 302.0 43.2
333(18) 0.003003 301.9 43.3
301(17) 0.003322 301.7 43.3
313(18) 0.003195 301.6 43.4
323(18) 0.003096 301.5 43.5
310(18) 0.003226 301.4 43.6
322(18) 0.003106 301.2 43.7
331(18) 0.003021 301.1 43.8
283(17) 0.00353 301.0 43.9
299(17) 0.003344 300.9 44.1
283(17) 0.00353 300.8 44.2
341(18) 0.002933 300.6 44.3
297(17) 0.003367 300.5 44.4
314(18) 0.003185 300.5 44.5
313(18) 0.003195 300.7 44.6
303(17) 0.003300 300.8 44.7
298(17) 0.003356 301.0 44.8
305(17) 0.003279 301.2 44.9
295(17) 0.003390 301.4 45.0
296(17) 0.003378 301.6 45.2
292(17) 0.003425 301.8 45.3
279(17) 0.00358 302.0 45.3
295(17) 0.003390 302.2 45.5
294(17) 0.003401 302.4 45.6
331(18) 0.003021 302.5 45.7
344(19) 0.002907 302.7 45.9
314(18) 0.003185 302.9 46.0
299(17) 0.003344 303.1 46.2
286(17) 0.003497 303.3 46.5
317(18) 0.003155 303.5 46.8
338(18) 0.002959 303.7 47.1
349(19) 0.002865 303.9 47.5
307(18) 0.003257 304.1 48.0
313(18) 0.003195 304.2 48.5
297(17) 0.003367 304.4 49.1
316(18) 0.003165 304.6 49.8
320(18) 0.003125 304.8 50.6
311(18) 0.003215 305.0 51.5
328(18) 0.003049 305.2 52.6
332(18) 0.003012 305.4 53.9
334(18) 0.002994 305.6 55.4
330(18) 0.003030 305.8 57.2
318(18) 0.003145 305.9 59.4
334(18) 0.002994 306.1 62.2
330(18) 0.003030 306.3 65.6
370(19) 0.002703 306.5 70.0
311(18) 0.003215 306.7 75.6
337(18) 0.002967 306.9 82.5
356(19) 0.002809 307.1 91.0
371(19) 0.002695 307.3 101.2
389(20) 0.002571 307.5 112.8
394(20) 0.002538 307.6 125.5
426(21) 0.002347 307.8 138.1
391(20) 0.002558 308.0 149.0
430(21) 0.002326 308.2 155.8
404(20) 0.002475 308.4 157.1
412(20) 0.002427 308.6 152.7
373(19) 0.002681 308.8 144.5
395(20) 0.002532 309.0 134.5
395(20) 0.002532 309.2 124.5
374(19) 0.002674 309.3 115.6
366(19) 0.002732 309.5 108.2
386(20) 0.002591 309.7 102.4
398(20) 0.002513 309.9 98.2
393(20) 0.002545 310.1 95.3
376(19) 0.002660 310.3 93.6
379(19) 0.002639 310.5 92.8
385(20) 0.002597 310.7 92.6
401(20) 0.002494 310.9 93.0
406(20) 0.002463 311.0 93.8
401(20) 0.002494 311.2 94.9
404(20) 0.002475 311.4 96.3
398(20) 0.002513 311.6 97.8
406(20) 0.002463 311.8 99.5
441(21) 0.002268 312.0 101.3
415(20) 0.002410 312.2 103.4
432(21) 0.002315 312.4 105.6
447(21) 0.002237 312.6 108.1
420(20) 0.002381 312.7 110.9
422(21) 0.002370 312.9 114.1
435(21) 0.002299 313.1 117.8
431(21) 0.002320 313.3 122.3
427(21) 0.002342 313.5 127.8
429(21) 0.002331 313.7 134.5
457(21) 0.002188 313.9 142.8
461(21) 0.002169 314.1 153.2
503(22) 0.001988 314.3 166.0
452(21) 0.002212 314.4 181.6
505(22) 0.001980 314.6 200.2
505(22) 0.001980 314.8 222.1
518(23) 0.001931 315.0 247.0
574(24) 0.001742 315.2 274.4
566(24) 0.001767 315.4 303.1
621(25) 0.001610 315.6 331.1
611(25) 0.001637 315.8 355.3
593(24) 0.001686 316.0 372.3
629(25) 0.001590 316.1 378.9
612(25) 0.001634 316.3 374.3
584(24) 0.001712 316.5 360.1
576(24) 0.001736 316.7 339.9
556(24) 0.001799 316.9 317.5
522(23) 0.001916 317.1 296.0
515(23) 0.001942 317.3 277.7
497(22) 0.002012 317.5 263.7
546(23) 0.001832 317.7 254.4
502(22) 0.001992 317.8 249.3
547(23) 0.001828 318.0 247.6
526(23) 0.001901 318.2 247.5
518(23) 0.001931 318.4 246.6
550(23) 0.001818 318.6 242.7
537(23) 0.001862 318.8 234.6
527(23) 0.001898 319.0 222.9
498(22) 0.002008 319.2 209.0
480(22) 0.002083 319.4 194.8
428(21) 0.002336 319.5 181.6
451(21) 0.002217 319.7 170.1
490(22) 0.002041 319.9 160.7
445(21) 0.002247 320.1 153.4
453(21) 0.002208 320.3 148.3
445(21) 0.002247 320.5 144.9
455(21) 0.002198 320.7 143.1
421(21) 0.002375 320.9 142.5
424(21) 0.002358 321.1 142.8
429(21) 0.002331 321.2 143.8
447(21) 0.002237 321.4 145.1
446(21) 0.002242 321.6 146.6
471(22) 0.002123 321.8 148.1
404(20) 0.002475 322.0 149.6
436(21) 0.002294 322.2 151.0
422(21) 0.002370 322.4 152.3
411(20) 0.002433 322.6 153.6
433(21) 0.002309 322.8 155.0
436(21) 0.002294 322.9 156.6
428(21) 0.002336 323.1 158.3
475(22) 0.002105 323.3 160.2
413(20) 0.002421 323.5 162.2
460(21) 0.002174 323.7 164.3
443(21) 0.002257 323.9 166.3
453(21) 0.002208 324.1 168.2
462(21) 0.002164 324.3 169.8
434(21) 0.002304 324.5 170.9
456(21) 0.002193 324.6 171.4
452(21) 0.002212 324.8 171.1
454(21) 0.002203 325.0 170.0
482(22) 0.002075 325.2 168.1
445(21) 0.002247 325.4 165.3
461(21) 0.002169 325.6 161.8
486(22) 0.002058 325.8 157.6
452(21) 0.002212 326.0 152.8
430(21) 0.002326 326.2 147.7
459(21) 0.002179 326.3 142.4
406(20) 0.002463 326.5 136.9
414(20) 0.002415 326.7 131.5
442(21) 0.002262 326.9 126.2
411(20) 0.002433 327.1 121.2
403(20) 0.002481 327.3 116.4
417(20) 0.002398 327.5 111.9
369(19) 0.002710 327.7 107.7
366(19) 0.002732 327.9 103.9
373(19) 0.002681 328.1 100.4
370(19) 0.002703 328.2 97.3
372(19) 0.002688 328.4 94.5
355(19) 0.002817 328.6 91.9
366(19) 0.002732 328.8 89.7
403(20) 0.002481 329.0 87.8
361(19) 0.002770 329.2 86.1
359(19) 0.002786 329.4 84.7
370(19) 0.002703 329.6 83.7
379(19) 0.002639 329.8 83.0
380(19) 0.002632 329.9 82.9
358(19) 0.002793 330.1 83.3
345(19) 0.002899 330.3 84.5
366(19) 0.002732 330.5 86.5
405(20) 0.002469 330.7 89.6
414(20) 0.002415 330.9 94.0
421(21) 0.002375 331.1 99.7
410(20) 0.002439 331.3 107.0
451(21) 0.002217 331.5 115.9
436(21) 0.002294 331.6 126.6
442(21) 0.002262 331.8 138.9
462(21) 0.002164 332.0 152.8
463(22) 0.002160 332.2 167.9
504(22) 0.001984 332.4 183.8
568(24) 0.001761 332.6 199.4
596(24) 0.001678 332.8 213.8
658(26) 0.001520 333.0 225.5
574(24) 0.001742 333.2 232.8
560(24) 0.001786 333.3 234.7
544(23) 0.001838 333.5 230.9
568(24) 0.001761 333.7 221.7
520(23) 0.001923 333.9 208.6
483(22) 0.002070 334.1 192.9
461(21) 0.002169 334.3 176.2
471(22) 0.002123 334.5 159.4
453(21) 0.002208 334.7 143.6
467(22) 0.002141 334.9 129.0
459(21) 0.002179 335.0 115.9
429(21) 0.002331 335.2 104.5
429(21) 0.002331 335.4 94.9
405(20) 0.002469 335.6 86.9
398(20) 0.002513 335.8 80.5
419(20) 0.002387 336.0 75.5
384(20) 0.002604 336.2 71.9
420(20) 0.002381 336.4 69.4
406(20) 0.002463 336.6 68.1
395(20) 0.002532 336.7 67.7
394(20) 0.002538 336.9 68.3
393(20) 0.002545 337.1 69.8
417(20) 0.002398 337.3 72.1
387(20) 0.002584 337.5 75.3
399(20) 0.002506 337.7 79.4
418(20) 0.002392 337.9 84.3
416(20) 0.002404 338.1 90.2
414(20) 0.002415 338.3 96.9
450(21) 0.002222 338.4 104.5
400(20) 0.002500 338.6 112.9
458(21) 0.002183 338.8 122.1
437(21) 0.002288 339.0 131.9
505(22) 0.001980 339.2 142.1
483(22) 0.002070 339.4 152.6
477(22) 0.002096 339.6 163.0
490(22) 0.002041 339.8 173.0
521(23) 0.001919 340.0 181.9
482(22) 0.002075 340.1 189.3
486(22) 0.002058 340.3 194.7
511(23) 0.001957 340.5 197.6
500(22) 0.002000 340.7 197.8
509(23) 0.001965 340.9 195.2
503(22) 0.001988 341.1 190.0
494(22) 0.002024 341.3 182.6
485(22) 0.002062 341.5 173.5
449(21) 0.002227 341.7 163.3
477(22) 0.002096 341.8 152.5
401(20) 0.002494 342.0 141.4
412(20) 0.002427 342.2 130.5
437(21) 0.002288 342.4 119.9
371(19) 0.002695 342.6 110.0
387(20) 0.002584 342.8 100.7
367(19) 0.002725 343.0 92.1
389(20) 0.002571 343.2 84.4
348(19) 0.002874 343.4 77.6
373(19) 0.002681 343.5 71.5
384(20) 0.002604 343.7 66.3
337(18) 0.002967 343.9 61.8
353(19) 0.002833 344.1 58.1
371(19) 0.002695 344.3 55.0
374(19) 0.002674 344.5 52.7
360(19) 0.002778 344.7 50.9
353(19) 0.002833 344.9 49.7
357(19) 0.002801 345.1 49.1
368(19) 0.002717 345.2 48.9
378(19) 0.002646 345.4 49.2
365(19) 0.002740 345.6 50.0
384(20) 0.002604 345.8 51.1
363(19) 0.002755 346.0 52.6
367(19) 0.002725 346.2 54.4
408(20) 0.002451 346.4 56.5
389(20) 0.002571 346.6 58.7
409(20) 0.002445 346.8 60.9
420(20) 0.002381 346.9 63.0
385(20) 0.002597 347.1 64.9
419(20) 0.002387 347.3 66.3
394(20) 0.002538 347.5 67.2
413(20) 0.002421 347.7 67.3
398(20) 0.002513 347.9 66.7
373(19) 0.002681 348.1 65.4
358(19) 0.002793 348.3 63.5
371(19) 0.002695 348.5 61.2
376(19) 0.002660 348.6 58.6
366(19) 0.002732 348.8 55.9
377(19) 0.002653 349.0 53.2
339(18) 0.002950 349.2 50.6
371(19) 0.002695 349.4 48.2
369(19) 0.002710 349.6 46.0
375(19) 0.002667 349.8 44.0
358(19) 0.002793 350.0 42.4
373(19) 0.002681 350.2 41.0
388(20) 0.002577 350.3 39.9
380(19) 0.002632 350.5 39.1
329(18) 0.003039 350.7 38.5
368(19) 0.002717 350.9 38.3
350(19) 0.002857 350.9 38.3
372(19) 0.002688 351.0 38.6
357(19) 0.002801 351.0 39.3
342(18) 0.002924 351.0 40.3
379(19) 0.002639 351.0 41.7
385(20) 0.002597 351.1 43.5
368(19) 0.002717 351.1 45.9
393(20) 0.002545 351.1 48.9
380(19) 0.002632 351.2 52.5
387(20) 0.002584 351.2 57.0
378(19) 0.002646 351.2 62.3
380(19) 0.002632 351.2 68.5
352(19) 0.002841 351.3 75.6
365(19) 0.002740 351.3 83.7
358(19) 0.002793 351.3 92.7
392(20) 0.002551 351.3 102.4
397(20) 0.002519 351.4 112.4
439(21) 0.002278 351.4 122.3
394(20) 0.002538 351.4 131.5
410(20) 0.002439 351.4 139.1
410(20) 0.002439 351.5 144.5
417(20) 0.002398 351.5 147.3
445(21) 0.002247 351.5 147.5
401(20) 0.002494 351.6 145.6
438(21) 0.002283 351.6 142.6
440(21) 0.002273 351.6 139.0
418(20) 0.002392 351.6 135.7
409(20) 0.002445 351.7 132.9
426(21) 0.002347 351.7 131.1
415(20) 0.002410 351.7 130.3
427(21) 0.002342 351.7 130.6
429(21) 0.002331 351.8 132.0
428(21) 0.002336 351.8 134.5
440(21) 0.002273 351.8 137.9
435(21) 0.002299 351.8 142.0
480(22) 0.002083 351.9 146.9
497(22) 0.002012 351.9 152.2
460(21) 0.002174 351.9 157.8
476(22) 0.002101 352.0 163.5
451(21) 0.002217 352.0 169.1
493(22) 0.002028 352.0 174.5
491(22) 0.002037 352.0 179.3
457(21) 0.002188 352.1 183.5
490(22) 0.002041 352.1 186.8
483(22) 0.002070 352.1 189.2
465(22) 0.002151 352.1 190.5
464(22) 0.002155 352.2 190.5
468(22) 0.002137 352.2 189.4
484(22) 0.002066 352.2 187.1
430(21) 0.002326 352.2 183.8
451(21) 0.002217 352.3 179.4
462(21) 0.002164 352.3 174.3
409(20) 0.002445 352.3 168.4
435(21) 0.002299 352.4 162.0
436(21) 0.002294 352.4 155.2
438(21) 0.002283 352.4 148.2
411(20) 0.002433 352.4 141.1
395(20) 0.002532 352.5 133.9
415(20) 0.002410 352.5 126.9
420(20) 0.002381 352.5 120.0
412(20) 0.002427 352.5 113.3
402(20) 0.002488 352.6 106.9
414(20) 0.002415 352.6 100.9
394(20) 0.002538 352.6 95.1
385(20) 0.002597 352.6 89.7
379(19) 0.002639 352.7 84.7
391(20) 0.002558 352.7 80.1
388(20) 0.002577 352.7 75.8
380(19) 0.002632 352.8 71.9
376(19) 0.002660 352.8 68.3
393(20) 0.002545 352.8 65.1
366(19) 0.002732 352.8 62.3
369(19) 0.002710 352.9 59.7
379(19) 0.002639 352.9 57.5
382(20) 0.002618 352.9 55.5
414(20) 0.002415 352.9 53.8
433(21) 0.002309 353.0 52.3
371(19) 0.002695 353.0 51.0
380(19) 0.002632 353.0 50.0
398(20) 0.002513 353.0 49.1
399(20) 0.002506 353.1 48.3
377(19) 0.002653 353.1 47.7
370(19) 0.002703 353.1 47.2
410(20) 0.002439 353.2 46.8
384(20) 0.002604 353.2 46.5
368(19) 0.002717 353.2 46.2
355(19) 0.002817 353.2 46.0
399(20) 0.002506 353.3 45.7
431(21) 0.002320 353.3 45.5
371(19) 0.002695 353.3 45.3
397(20) 0.002519 353.3 45.0
378(19) 0.002646 353.4 44.7
374(19) 0.002674 353.4 44.4
371(19) 0.002695 353.4 44.1
384(20) 0.002604 353.4 43.6
367(19) 0.002725 353.5 43.2
367(19) 0.002725 353.5 42.6
375(19) 0.002667 353.5 42.1
367(19) 0.002725 353.6 41.4
390(20) 0.002564 353.6 40.8
367(19) 0.002725 353.6 40.1
374(19) 0.002674 353.6 39.3
395(20) 0.002532 353.7 38.5
368(19) 0.002717 353.7 37.8
366(19) 0.002732 353.7 37.0
383(20) 0.002611 353.7 36.1
339(18) 0.002950 353.8 35.3
372(19) 0.002688 353.8 34.5
384(20) 0.002604 353.8 33.7
398(20) 0.002513 353.8 32.9
349(19) 0.002865 353.9 32.2
379(19) 0.002639 353.9 31.4
399(20) 0.002506 353.9 30.7
392(20) 0.002551 354.0 30.0
346(19) 0.002890 354.0 29.4
359(19) 0.002786 354.0 28.8
384(20) 0.002604 354.0 28.2
326(18) 0.003067 354.1 27.6
369(19) 0.002710 354.6 27.1
336(18) 0.002976 355.1 26.7
339(18) 0.002950 355.6 26.3
370(19) 0.002703 356.1 25.9
341(18) 0.002933 356.6 25.6
342(18) 0.002924 357.1 25.3
362(19) 0.002762 357.6 25.1
354(19) 0.002825 358.1 25.0
391(20) 0.002558 358.6 24.9
371(19) 0.002695 359.1 24.9
356(19) 0.002809 359.6 25.0
364(19) 0.002747 360.1 25.2
357(19) 0.002801 360.6 25.5
427(21) 0.002342 361.1 25.9
403(20) 0.002481 361.6 26.5
416(20) 0.002404 362.1 27.2
357(19) 0.002801 362.6 28.2
395(20) 0.002532 363.1 29.5
391(20) 0.002558 363.6 31.1
399(20) 0.002506 364.1 33.1
430(21) 0.002326 364.6 35.7
392(20) 0.002551 365.1 38.9
422(21) 0.002370 365.6 42.7
436(21) 0.002294 366.1 47.4
425(21) 0.002353 366.6 52.8
454(21) 0.002203 367.1 59.1
439(21) 0.002278 367.6 66.3
442(21) 0.002262 368.1 74.1
471(22) 0.002123 368.6 82.4
485(22) 0.002062 369.1 90.8
499(22) 0.002004 369.6 98.8
483(22) 0.002070 370.1 105.5
495(22) 0.002020 370.6 110.1
514(23) 0.001946 371.1 111.9
531(23) 0.001883 371.6 110.7
489(22) 0.002045 372.1 106.6
450(21) 0.002222 372.6 100.3
460(21) 0.002174 373.1 92.7
470(22) 0.002128 373.6 84.5
491(22) 0.002037 374.1 76.4
451(21) 0.002217 374.6 68.7
431(21) 0.002320 375.1 61.6
441(21) 0.002268 375.6 55.3
394(20) 0.002538 376.1 49.9
429(21) 0.002331 376.6 45.2
422(21) 0.002370 377.1 41.3
425(21) 0.002353 377.6 38.1
389(20) 0.002571 378.1 35.4
405(20) 0.002469 378.6 33.3
391(20) 0.002558 379.1 31.5
401(20) 0.002494 379.6 30.2
376(19) 0.002660 380.1 29.1
377(19) 0.002653 380.6 28.2
400(20) 0.002500 381.1 27.5
374(19) 0.002674 381.6 26.9
401(20) 0.002494 382.1 26.5
409(20) 0.002445 382.7 26.1
405(20) 0.002469 383.4 25.9
370(19) 0.002703 384.2 25.7
406(20) 0.002463 385.0 25.5
358(19) 0.002793 385.8 25.5
389(20) 0.002571 386.6 25.5
400(20) 0.002500 387.4 25.5
415(20) 0.002410 388.2 25.6
375(19) 0.002667 389.0 25.7
418(20) 0.002392 389.8 25.9
403(20) 0.002481 390.6 26.1
349(19) 0.002865 391.4 26.4
397(20) 0.002519 392.1 26.7
390(20) 0.002564 392.9 27.0
381(20) 0.002625 393.7 27.4
390(20) 0.002564 394.5 27.9
397(20) 0.002519 395.3 28.3
405(20) 0.002469 396.1 28.9
429(21) 0.002331 396.9 29.4
397(20) 0.002519 397.7 30.0
415(20) 0.002410 398.5 30.7
396(20) 0.002525 399.3 31.4
387(20) 0.002584 400.1 32.2
395(20) 0.002532 400.8 33.0
420(20) 0.002381 401.6 33.9
413(20) 0.002421 402.4 34.8
390(20) 0.002564 403.2 35.8
413(20) 0.002421 404.0 36.9
436(21) 0.002294 404.8 38.0
408(20) 0.002451 405.6 39.2
426(21) 0.002347 406.4 40.5
438(21) 0.002283 407.2 41.8
433(21) 0.002309 408.0 43.2
414(20) 0.002415 408.7 44.7
394(20) 0.002538 409.5 46.3
434(21) 0.002304 410.3 48.1
426(21) 0.002347 411.1 49.9
427(21) 0.002342 411.9 51.8
409(20) 0.002445 412.7 53.9
471(22) 0.002123 413.5 56.2
435(21) 0.002299 414.3 58.7
445(21) 0.002247 415.1 61.5
481(22) 0.002079 415.9 64.6
467(22) 0.002141 416.7 68.1
488(22) 0.002049 417.4 72.1
517(23) 0.001934 418.2 76.6
553(24) 0.001808 419.0 81.9
523(23) 0.001912 419.8 88.1
563(24) 0.001776 420.6 95.3
572(24) 0.001748 421.4 103.7
593(24) 0.001686 422.2 113.3
593(24) 0.001686 423.0 124.1
622(25) 0.001608 423.8 136.3
613(25) 0.001631 424.6 149.6
641(25) 0.001560 425.3 163.7
712(27) 0.001404 426.1 178.3
707(27) 0.001414 426.9 192.4
691(26) 0.001447 427.7 205.1
702(26) 0.001424 428.5 215.1
678(26) 0.001475 429.3 221.2
711(27) 0.001406 430.1 222.8
728(27) 0.001374 430.9 220.3
705(27) 0.001418 431.7 214.5
645(25) 0.001550 432.5 206.8
644(25) 0.001553 433.3 198.4
613(25) 0.001631 434.0 190.4
621(25) 0.001610 434.8 183.4
647(25) 0.001546 435.6 178.1
596(24) 0.001678 436.4 174.7
621(25) 0.001610 437.2 173.4
608(25) 0.001645 438.0 174.3
611(25) 0.001637 438.8 177.4
630(25) 0.001587 439.6 182.9
656(26) 0.001524 440.4 190.5
670(26) 0.001493 441.2 200.2
658(26) 0.001520 442.0 211.9
697(26) 0.001435 442.7 225.4
758(28) 0.001319 443.5 240.1
791(28) 0.001264 444.3 255.8
840(29) 0.001190 445.1 271.7
807(28) 0.001239 445.9 287.0
897(30) 0.001115 446.7 300.5
856(29) 0.001168 447.5 310.8
848(29) 0.001179 448.3 316.9
751(27) 0.001332 449.1 317.9
727(27) 0.001376 449.9 313.5
733(27) 0.001364 450.6 304.1
717(27) 0.001395 451.4 290.8
702(26) 0.001424 452.2 274.8
694(26) 0.001441 453.0 257.3
649(25) 0.001541 453.8 239.3
691(26) 0.001447 454.6 221.7
646(25) 0.001548 455.4 204.8
637(25) 0.001570 456.2 189.2
567(24) 0.001764 457.0 174.9
627(25) 0.001595 457.8 162.0
559(24) 0.001789 458.6 150.6
577(24) 0.001733 459.3 140.6
554(24) 0.001805 460.1 132.0
576(24) 0.001736 460.9 124.5
558(24) 0.001792 461.7 118.1
536(23) 0.001866 462.5 112.6
507(23) 0.001972 463.3 108.0
508(23) 0.001968 464.1 104.0
568(24) 0.001761 464.9 100.6
537(23) 0.001862 465.7 97.7
529(23) 0.001890 466.5 95.2
514(23) 0.001946 467.2 93.1
504(22) 0.001984 468.0 91.3
510(23) 0.001961 468.8 89.8
473(22) 0.002114 469.6 88.5
513(23) 0.001949 470.4 87.5
461(21) 0.002169 471.2 86.7
530(23) 0.001887 472.0 86.0
510(23) 0.001961 472.8 85.6
528(23) 0.001894 473.6 85.5
513(23) 0.001949 474.0 85.5
495(22) 0.002020 473.9 85.7
499(22) 0.002004 473.9 86.2
493(22) 0.002028 473.9 86.9
484(22) 0.002066 473.9 87.9
512(23) 0.001953 473.8 89.1
494(22) 0.002024 473.8 90.5
487(22) 0.002053 473.8 92.2
459(21) 0.002179 473.8 94.2
472(22) 0.002119 473.7 96.5
511(23) 0.001957 473.7 99.0
513(23) 0.001949 473.7 101.8
539(23) 0.001855 473.7 104.9
497(22) 0.002012 473.7 108.3
506(22) 0.001976 473.6 112.0
531(23) 0.001883 473.6 115.9
513(23) 0.001949 473.6 120.1
520(23) 0.001923 473.6 124.5
506(22) 0.001976 473.5 129.2
551(23) 0.001815 473.5 134.0
571(24) 0.001751 473.5 139.0
581(24) 0.001721 473.5 144.1
556(24) 0.001799 473.4 149.3
604(25) 0.001656 473.4 154.5
606(25) 0.001650 473.4 159.5
541(23) 0.001848 473.4 164.5
561(24) 0.001783 473.3 169.2
586(24) 0.001706 473.3 173.5
602(25) 0.001661 473.3 177.5
586(24) 0.001706 473.3 181.0
601(25) 0.001664 473.2 183.9
567(24) 0.001764 473.2 186.2
582(24) 0.001718 473.2 187.8
572(24) 0.001748 473.2 188.8
526(23) 0.001901 473.2 189.2
578(24) 0.001730 473.1 189.0
616(25) 0.001623 473.1 188.2
533(23) 0.001876 473.1 187.0
611(25) 0.001637 473.1 185.2
585(24) 0.001709 473.0 183.1
624(25) 0.001603 473.0 180.7
583(24) 0.001715 473.0 178.1
531(23) 0.001883 473.0 175.3
554(24) 0.001805 472.9 172.4
582(24) 0.001718 472.9 169.5
561(24) 0.001783 472.9 166.6
575(24) 0.001739 472.9 163.7
629(25) 0.001590 472.8 161.0
598(24) 0.001672 472.8 158.3
594(24) 0.001684 472.8 155.9
593(24) 0.001686 472.8 153.5
638(25) 0.001567 472.7 151.4
587(24) 0.001704 472.7 149.4
621(25) 0.001610 472.7 147.6
629(25) 0.001590 472.7 146.0
591(24) 0.001692 472.7 144.5
641(25) 0.001560 472.6 143.2
615(25) 0.001626 472.6 142.0
623(25) 0.001605 472.6 141.0
588(24) 0.001701 472.6 140.1
614(25) 0.001629 472.5 139.3
632(25) 0.001582 472.5 138.6
586(24) 0.001706 472.5 137.9
616(25) 0.001623 472.5 137.4
634(25) 0.001577 472.4 136.9
607(25) 0.001647 472.4 136.6
652(26) 0.001534 472.4 136.3
628(25) 0.001592 472.4 136.1
583(24) 0.001715 472.3 136.2
597(24) 0.001675 472.3 136.4
606(25) 0.001650 472.3 136.8
627(25) 0.001595 472.3 137.6
624(25) 0.001603 472.3 138.8
622(25) 0.001608 472.2 140.6
633(25) 0.001580 472.2 142.9
622(25) 0.001608 472.2 145.9
611(25) 0.001637 472.2 149.7
625(25) 0.001600 472.1 154.5
644(25) 0.001553 472.1 160.2
630(25) 0.001587 472.1 167.0
662(26) 0.001511 472.1 174.9
692(26) 0.001445 472.0 183.9
649(25) 0.001541 472.0 194.0
700(26) 0.001429 472.0 204.9
651(26) 0.001536 472.0 216.5
681(26) 0.001468 471.9 228.3
721(27) 0.001387 471.9 240.0
728(27) 0.001374 471.9 250.7
683(26) 0.001464 471.9 259.8
743(27) 0.001346 471.8 266.2
784(28) 0.001276 471.8 269.2
696(26) 0.001437 471.8 268.4
764(28) 0.001309 471.8 263.5
725(27) 0.001379 471.8 255.0
687(26) 0.001456 471.7 243.5
701(26) 0.001427 471.7 229.8
683(26) 0.001464 471.7 214.9
697(26) 0.001435 471.7 199.6
645(25) 0.001550 471.6 184.3
642(25) 0.001558 471.6 169.5
666(26) 0.001501 471.6 155.6
621(25) 0.001610 471.6 142.7
594(24) 0.001684 471.5 130.9
600(24) 0.001667 471.5 120.3
578(24) 0.001730 471.5 110.9
583(24) 0.001715 471.5 102.5
581(24) 0.001721 471.4 95.2
574(24) 0.001742 471.4 88.9
594(24) 0.001684 471.4 83.4
545(23) 0.001835 471.4 78.7
550(23) 0.001818 471.4 74.6
554(24) 0.001805 471.3 71.1
543(23) 0.001842 471.3 68.1
571(24) 0.001751 471.3 65.5
537(23) 0.001862 471.3 63.2
549(23) 0.001822 471.2 61.2
576(24) 0.001736 471.2 59.5
535(23) 0.001869 471.2 57.9
568(24) 0.001761 471.2 56.5
534(23) 0.001873 471.1 55.3
527(23) 0.001898 471.1 54.2
559(24) 0.001789 471.1 53.2
520(23) 0.001923 471.1 52.3
533(23) 0.001876 471.0 51.4
548(23) 0.001825 471.0 50.7
525(23) 0.001905 471.0 50.0
539(23) 0.001855 471.0 49.4
525(23) 0.001905 470.9 48.8
587(24) 0.001704 470.9 48.2
569(24) 0.001757 470.9 47.8
551(23) 0.001815 470.9 47.3
542(23) 0.001845 470.9 47.0
568(24) 0.001761 470.8 46.6
555(24) 0.0 0.0 .
564(24) 0.0 0.0 .
562(24) 0.0 0.0 .
549(23) 0.0 0.0 .
536(23) 0.0 0.0 .
514(23) 0.0 0.0 .
563(24) 0.0 0.0 .
608(25) 0.0 0.0 .
586(24) 0.0 0.0 .
581(24) 0.0 0.0 .
590(24) 0.0 0.0 .
588(24) 0.0 0.0 .
569(24) 0.0 0.0 .
586(24) 0.0 0.0 .
551(23) 0.0 0.0 .
567(24) 0.0 0.0 .
594(24) 0.0 0.0 .
571(24) 0.0 0.0 .
606(25) 0.0 0.0 .
612(25) 0.0 0.0 .
602(25) 0.0 0.0 .
615(25) 0.0 0.0 .
627(25) 0.0 0.0 .
638(25) 0.0 0.0 .
625(25) 0.0 0.0 .
663(26) 0.0 0.0 .
674(26) 0.0 0.0 .
684(26) 0.0 0.0 .
649(25) 0.0 0.0 .
642(25) 0.0 0.0 .
650(25) 0.0 0.0 .
624(25) 0.0 0.0 .
693(26) 0.0 0.0 .
697(26) 0.0 0.0 .
651(26) 0.0 0.0 .
655(26) 0.0 0.0 .
721(27) 0.0 0.0 .
646(25) 0.0 0.0 .
662(26) 0.0 0.0 .
668(26) 0.0 0.0 .
647(25) 0.0 0.0 .
650(25) 0.0 0.0 .
647(25) 0.0 0.0 .
665(26) 0.0 0.0 .
680(26) 0.0 0.0 .
682(26) 0.0 0.0 .
678(26) 0.0 0.0 .
692(26) 0.0 0.0 .
660(26) 0.0 0.0 .
698(26) 0.0 0.0 .
706(27) 0.0 0.0 .
708(27) 0.0 0.0 .
682(26) 0.0 0.0 .
682(26) 0.0 0.0 .
714(27) 0.0 0.0 .
746(27) 0.0 0.0 .
726(27) 0.0 0.0 .
680(26) 0.0 0.0 .
776(28) 0.0 0.0 .
730(27) 0.0 0.0 .
699(26) 0.0 0.0 .
727(27) 0.0 0.0 .
746(27) 0.0 0.0 .
730(27) 0.0 0.0 .
796(28) 0.0 0.0 .
785(28) 0.0 0.0 .
805(28) 0.0 0.0 .
876(30) 0.0 0.0 .
798(28) 0.0 0.0 .
806(28) 0.0 0.0 .
856(29) 0.0 0.0 .
830(29) 0.0 0.0 .
936(31) 0.0 0.0 .
867(29) 0.0 0.0 .
886(30) 0.0 0.0 .
920(30) 0.0 0.0 .
894(30) 0.0 0.0 .
928(30) 0.0 0.0 .
996(32) 0.0 0.0 .
927(30) 0.0 0.0 .
978(31) 0.0 0.0 .
1015(32) 0.0 0.0 .
1111(33) 0.0 0.0 .
1074(33) 0.0 0.0 .
1125(34) 0.0 0.0 .
1143(34) 0.0 0.0 .
1197(35) 0.0 0.0 .
1227(35) 0.0 0.0 .
1255(35) 0.0 0. .
1212(35) 0.0 0.0 .
1268(36) 0.0 0. .
1391(37) 0.0 0. .
1408(38) 0.0 0. .
1476(38) 0.0 0. .
1520(39) 0.0 0. .
1518(39) 0.0 0. .
1557(39) 0.0 0. .
1626(40) 0.0 0. .
1719(41) 0.0 0. .
1760(42) 0.0 0. .
1778(42) 0.0 0. .
1900(44) 0.0 0. .
1954(44) 0.0 0. .
2024(45) 0.0 0. .
2204(47) 0.0 0. .
2343(48) 0.0 0. .
2493(50) 0.0 0. .
2640(51) 0.0 0. .
2816(53) 0.0 0. .
3068(55) 0.0 0. .
3236(57) 0.0 0. .
3490(59) 0.0 0. .
3870(62) 0.0 0. .
4158(64) 0.0 0. .
4641(68) 0.0 0. .
5155(72) 0.0 0. .
5730(76) 0.0 0. .
6307(79) 0.0 0. .
7175(85) 0.0 0. .
8061(90) 0.0 0. .
9288(96) 0.0 0. .
10720(100) 0.0 0. .
12240(110) 0.0 0. .
14530(120) 0.0 0. .
17090(130) 0.0 0. .
20530(140) 0.0 0. .
24800(160) 0.0 0. .
30150(170) 0.0 0. .
37200(190) 0.0 0. .
47770(220) 0.0 0. .
61740(250) 0.0 0. .
82550(290) 0.0 0. .
113450(340) 0.0 0. .
159580(400) 0.0 0. .
225640(480) 0.0 0. .
309340(560) 0.0 0. .
387960(620) 0.0 0. .
429340(660) 0.0 0. .
422330(650) 0.0 0. .
366780(610) 0.0 0. .
282650(530) 0.0 0. .
201500(450) 0.0 0. .
141570(380) 0.0 0. .
101150(320) 0.0 0. .
73740(270) 0.0 0. .
55750(240) 0.0 0. .
43320(210) 0.0 0. .
33860(180) 0.0 0. .
27220(170) 0.0 0. .
22280(150) 0.0 0. .
18610(140) 0.0 0. .
15630(130) 0.0 0. .
13120(120) 0.0 0. .
11380(110) 0.0 0. .
9832(99) 0.0 0. .
8657(93) 0.0 0. .
7611(87) 0.0 0. .
6679(82) 0.0 0. .
6135(78) 0.0 0. .
5456(74) 0.0 0. .
4896(70) 0.0 0. .
4478(67) 0.0 0. .
4095(64) 0.0 0. .
3801(62) 0.0 0. .
3559(60) 0.0 0. .
3321(58) 0.0 0. .
3058(55) 0.0 0. .
2817(53) 0.0 0. .
2699(52) 0.0 0. .
2454(50) 0.0 0. .
2338(48) 0.0 0. .
2264(48) 0.0 0. .
2122(46) 0.0 0. .
1970(44) 0.0 0. .
1990(45) 0.0 0. .
1888(43) 0.0 0. .
1833(43) 0.0 0. .
1772(42) 0.0 0. .
1662(41) 0.0 0. .
1619(40) 0.0 0. .
1552(39) 0.0 0. .
1494(39) 0.0 0. .
1471(38) 0.0 0. .
1449(38) 0.0 0. .
1350(37) 0.0 0. .
1312(36) 0.0 0. .
1253(35) 0.0 0. .
1224(35) 0.0 0.0 .
1184(34) 0.0 0.0 .
1169(34) 0.0 0.0 .
1170(34) 0.0 0.0 .
1128(34) 0.0 0.0 .
1174(34) 0.0 0.0 .
1085(33) 0.0 0.0 .
1064(33) 0.0 0.0 .
1159(34) 0.0 0.0 .
1026(32) 0.0 0.0 .
1022(32) 0.0 0.0 .
1052(32) 0.0 0.0 .
1021(32) 0.0 0.0 .
994(32) 0.0 0.0 .
1019(32) 0.0 0.0 .
991(31) 0.0 0.0 .
996(32) 0.0 0.0 .
956(31) 0.0 0.0 .
931(31) 0.0 0.0 .
932(31) 0.0 0.0 .
916(30) 0.0 0.0 .
922(30) 0.0 0.0 .
946(31) 0.0 0.0 .
929(30) 0.0 0.0 .
900(30) 0.0 0.0 .
928(30) 0.0 0.0 .
824(29) 0.0 0.0 .
902(30) 0.0 0.0 .
845(29) 0.0 0.0 .
876(30) 0.0 0.0 .
847(29) 0.0 0.0 .
804(28) 0.0 0.0 .
823(29) 0.0 0.0 .
808(28) 0.0 0.0 .
780(28) 0.0 0.0 .
779(28) 0.0 0.0 .
773(28) 0.0 0.0 .
808(28) 0.0 0.0 .
792(28) 0.0 0.0 .
751(27) 0.0 0.0 .
745(27) 0.0 0.0 .
773(28) 0.0 0.0 .
756(27) 0.0 0.0 .
752(27) 0.0 0.0 .
718(27) 0.0 0.0 .
744(27) 0.0 0.0 .
714(27) 0.0 0.0 .
719(27) 0.0 0.0 .
759(28) 0.0 0.0 .
696(26) 0.001437 465.2 32.1
708(27) 0.001412 465.2 32.0
705(27) 0.001418 465.2 32.0
712(27) 0.001404 465.1 32.1
713(27) 0.001403 465.1 32.3
713(27) 0.001403 465.1 32.6
657(26) 0.001522 465.1 33.1
680(26) 0.001471 465.0 33.6
693(26) 0.001443 465.0 34.4
666(26) 0.001501 465.0 35.3
686(26) 0.001458 465.0 36.4
680(26) 0.001471 465.0 37.7
729(27) 0.001372 464.9 39.2
709(27) 0.001410 464.9 41.0
702(26) 0.001424 464.9 43.1
685(26) 0.001460 464.9 45.5
686(26) 0.001458 464.8 48.2
692(26) 0.001445 464.8 51.2
679(26) 0.001473 464.8 54.6
703(27) 0.001422 464.8 58.4
630(25) 0.001587 464.7 62.5
662(26) 0.001511 464.7 66.9
752(27) 0.001330 464.7 71.7
732(27) 0.001366 464.7 76.7
728(27) 0.001374 464.6 82.0
734(27) 0.001362 464.6 87.4
692(26) 0.001445 464.6 92.9
694(26) 0.001441 464.6 98.3
705(27) 0.001418 464.5 103.5
696(26) 0.001437 464.5 108.3
735(27) 0.001361 464.5 112.5
712(27) 0.001404 464.5 115.8
698(26) 0.001433 464.5 118.1
711(27) 0.001406 464.4 119.3
746(27) 0.001340 464.4 119.3
687(26) 0.001456 464.4 118.0
690(26) 0.001449 464.4 115.7
675(26) 0.001481 464.3 112.4
710(27) 0.001408 464.3 108.3
641(25) 0.001560 464.3 103.6
669(26) 0.001495 464.3 98.6
633(25) 0.001580 464.2 93.5
617(25) 0.001621 464.2 88.3
627(25) 0.001595 464.2 83.2
637(25) 0.001570 464.2 78.3
650(25) 0.001538 464.1 73.7
597(24) 0.001675 464.1 69.4
600(24) 0.001667 464.1 65.4
584(24) 0.001712 464.1 61.8
621(25) 0.001610 464.1 58.5
577(24) 0.001733 464.0 55.6
609(25) 0.001642 464.0 53.1
584(24) 0.001712 464.0 50.8
536(23) 0.001866 464.0 48.9
577(24) 0.001733 463.9 47.3
573(24) 0.001745 463.9 45.9
607(25) 0.001647 463.9 44.7
561(24) 0.001783 463.9 43.7
557(24) 0.001795 463.8 42.8
542(23) 0.001845 463.8 42.1
557(24) 0.001795 463.8 41.4
546(23) 0.001832 463.8 40.8
508(23) 0.001968 463.7 40.2
544(23) 0.001838 463.7 39.6
518(23) 0.001931 463.7 39.0
523(23) 0.001912 463.7 38.4
540(23) 0.001852 463.6 37.7
556(24) 0.001799 463.6 37.0
497(22) 0.002012 463.6 36.3
513(23) 0.001949 463.6 35.5
531(23) 0.001883 463.6 34.8
498(22) 0.002008 463.5 34.0
504(22) 0.001984 463.5 33.2
462(21) 0.002164 463.5 32.3
512(23) 0.001953 463.5 31.5
502(22) 0.001992 463.4 30.7
506(22) 0.001976 463.4 30.0
494(22) 0.002024 463.4 29.2
515(23) 0.001942 463.4 28.5
456(21) 0.002193 463.3 27.8
486(22) 0.002058 463.3 27.1
474(22) 0.002110 463.3 26.5
475(22) 0.002105 463.3 26.0
506(22) 0.001976 463.2 25.4
517(23) 0.001934 463.2 24.9
455(21) 0.002198 463.2 24.5
444(21) 0.002252 463.1 24.1
482(22) 0.002075 462.9 23.8
497(22) 0.002012 462.6 23.5
465(22) 0.002151 462.3 23.2
492(22) 0.002033 462.1 23.0
455(21) 0.002198 461.8 22.9
467(22) 0.002141 461.6 22.8
485(22) 0.002062 461.3 22.7
488(22) 0.002049 461.1 22.7
479(22) 0.002088 460.8 22.7
458(21) 0.002183 460.5 22.8
474(22) 0.002110 460.3 23.0
503(22) 0.001988 460.0 23.2
462(21) 0.002164 459.8 23.4
477(22) 0.002096 459.5 23.7
469(22) 0.002132 459.3 24.1
479(22) 0.002088 459.0 24.5
464(22) 0.002155 458.8 25.0
479(22) 0.002088 458.5 25.5
493(22) 0.002028 458.2 26.1
495(22) 0.002020 458.0 26.8
463(22) 0.002160 457.7 27.6
487(22) 0.002053 457.5 28.6
470(22) 0.002128 457.2 29.6
451(21) 0.002217 457.0 30.8
450(21) 0.002222 456.7 32.1
503(22) 0.001988 456.4 33.6
496(22) 0.002016 456.2 35.4
474(22) 0.002110 455.9 37.4
509(23) 0.001965 455.7 39.6
509(23) 0.001965 455.4 42.1
504(22) 0.001984 455.2 44.9
482(22) 0.002075 454.9 47.9
484(22) 0.002066 454.6 51.3
531(23) 0.001883 454.4 54.9
563(24) 0.001776 454.1 58.7
533(23) 0.001876 453.9 62.5
554(24) 0.001805 453.6 66.4
600(24) 0.001667 453.4 70.1
554(24) 0.001805 453.1 73.5
571(24) 0.001751 452.8 76.3
538(23) 0.001859 452.6 78.4
533(23) 0.001876 452.3 79.7
593(24) 0.001686 452.1 80.3
552(23) 0.001812 451.8 80.4
523(23) 0.001912 451.6 80.2
536(23) 0.001866 451.3 79.7
529(23) 0.001890 451.0 79.2
552(23) 0.001812 450.8 78.8
542(23) 0.001845 450.5 78.6
585(24) 0.001709 450.3 78.6
554(24) 0.001805 450.0 78.8
569(24) 0.001757 449.8 79.3
522(23) 0.001916 449.5 80.0
569(24) 0.001757 449.2 80.8
569(24) 0.001757 449.0 81.9
567(24) 0.001764 448.7 83.1
572(24) 0.001748 448.5 84.3
504(22) 0.001984 448.2 85.6
569(24) 0.001757 448.0 86.8
584(24) 0.001712 447.7 88.0
544(23) 0.001838 447.5 89.2
526(23) 0.001901 447.2 90.1
567(24) 0.001764 446.9 91.0
554(24) 0.001805 446.7 91.6
514(23) 0.001946 446.4 92.1
551(23) 0.001815 446.2 92.3
546(23) 0.001832 445.9 92.4
525(23) 0.001905 445.7 92.3
518(23) 0.001931 445.4 92.0
535(23) 0.001869 445.1 91.6
522(23) 0.001916 444.9 91.1
535(23) 0.001869 444.6 90.5
509(23) 0.001965 444.4 89.8
502(22) 0.001992 444.1 89.1
490(22) 0.002041 443.9 88.4
498(22) 0.002008 443.6 87.7
519(23) 0.001927 443.3 87.0
524(23) 0.001908 443.1 86.5
486(22) 0.002058 442.8 86.0
513(23) 0.001949 442.6 85.7
488(22) 0.002049 442.3 85.6
477(22) 0.002096 442.1 85.7
504(22) 0.001984 441.8 86.0
517(23) 0.001934 441.5 86.5
521(23) 0.001919 441.3 87.3
541(23) 0.001848 441.0 88.3
551(23) 0.001815 440.8 89.7
542(23) 0.001845 440.5 91.3
517(23) 0.001934 440.3 93.1
504(22) 0.001984 440.0 95.2
537(23) 0.001862 439.7 97.4
520(23) 0.001923 439.5 99.7
548(23) 0.001825 439.2 102.1
570(24) 0.001754 439.0 104.3
563(24) 0.001776 438.7 106.3
526(23) 0.001901 438.5 107.9
570(24) 0.001754 438.2 108.8
512(23) 0.001953 437.9 109.1
553(24) 0.001808 437.7 108.5
549(23) 0.001822 437.4 107.0
564(24) 0.001773 437.2 104.6
488(22) 0.002049 436.9 101.5
507(23) 0.001972 436.7 97.8
560(24) 0.001786 436.4 93.7
523(23) 0.001912 436.2 89.3
497(22) 0.002012 435.9 84.8
475(22) 0.002105 435.6 80.3
525(23) 0.001905 435.4 75.9
506(22) 0.001976 435.1 71.7
487(22) 0.002053 434.9 67.7
502(22) 0.001992 434.6 63.9
486(22) 0.002058 434.4 60.5
454(21) 0.002203 434.1 57.4
507(23) 0.001972 433.8 54.5
525(23) 0.001905 433.6 52.0
449(21) 0.002227 433.3 49.8
465(22) 0.002151 433.1 47.8
501(22) 0.001996 432.8 46.2
467(22) 0.002141 432.6 44.8
445(21) 0.002247 432.3 43.6
455(21) 0.002198 432.0 42.8
469(22) 0.002132 431.8 42.2
450(21) 0.002222 431.5 41.8
450(21) 0.002222 431.3 41.7
454(21) 0.002203 431.0 41.9
438(21) 0.002283 430.8 42.4
477(22) 0.002096 430.5 43.2
443(21) 0.002257 430.2 44.2
462(21) 0.002164 430.0 45.7
464(22) 0.002155 429.7 47.4
484(22) 0.002066 429.5 49.5
456(21) 0.002193 429.2 52.0
462(21) 0.002164 429.0 54.9
471(22) 0.002123 428.7 58.1
517(23) 0.001934 428.4 61.7
454(21) 0.002203 428.2 65.6
489(22) 0.002045 427.9 69.8
476(22) 0.002101 427.7 74.2
481(22) 0.002079 427.4 78.7
467(22) 0.002141 427.2 83.2
524(23) 0.001908 426.9 87.5
497(22) 0.002012 426.6 91.4
460(21) 0.002174 426.4 94.7
457(21) 0.002188 426.1 97.1
456(21) 0.002193 425.9 98.5
489(22) 0.002045 425.6 98.8
457(21) 0.002188 425.4 97.8
462(21) 0.002164 425.1 95.8
479(22) 0.002088 424.9 92.9
477(22) 0.002096 424.6 89.2
476(22) 0.002101 424.3 85.1
490(22) 0.002041 424.1 80.7
433(21) 0.002309 423.8 76.2
441(21) 0.002268 423.6 71.9
475(22) 0.002105 423.3 67.7
457(21) 0.002188 423.1 63.8
445(21) 0.002247 422.8 60.3
470(22) 0.002128 422.5 57.3
415(20) 0.002410 422.3 54.7
425(21) 0.002353 422.0 52.7
423(21) 0.002364 421.8 51.4
456(21) 0.002193 421.5 50.7
437(21) 0.002288 421.3 50.8
469(22) 0.002132 421.0 51.9
466(22) 0.002146 420.7 53.8
441(21) 0.002268 420.5 56.8
443(21) 0.002257 420.2 60.8
459(21) 0.002179 420.0 65.6
472(22) 0.002119 419.7 70.9
465(22) 0.002151 419.5 76.0
486(22) 0.002058 419.2 80.0
492(22) 0.002033 418.9 81.7
478(22) 0.002092 418.7 80.6
491(22) 0.002037 418.4 77.1
471(22) 0.002123 418.2 72.1
469(22) 0.002132 417.9 66.5
423(21) 0.002364 417.7 61.2
426(21) 0.002347 417.4 56.6
446(21) 0.002242 417.1 52.7
441(21) 0.002268 416.9 49.6
402(20) 0.002488 416.6 47.3
466(22) 0.002146 416.4 45.7
427(21) 0.002342 416.1 44.6
434(21) 0.002304 415.9 44.0
480(22) 0.002083 415.6 43.7
415(20) 0.002410 415.4 43.7
400(20) 0.002500 415.1 43.9
435(21) 0.002299 414.8 44.3
447(21) 0.002237 414.6 44.8
433(21) 0.002309 414.3 45.4
411(20) 0.002433 414.1 46.2
452(21) 0.002212 413.8 47.0
403(20) 0.002481 413.6 48.0
431(21) 0.002320 413.3 49.1
454(21) 0.002203 413.0 50.3
484(22) 0.002066 412.8 51.6
463(22) 0.002160 412.5 53.1
451(21) 0.002217 412.3 54.8
456(21) 0.002193 412.0 56.6
446(21) 0.002242 411.8 58.8
420(20) 0.002381 411.5 61.2
481(22) 0.002079 411.2 64.0
470(22) 0.002128 411.0 67.2
446(21) 0.002242 410.7 71.0
502(22) 0.001992 410.5 75.4
497(22) 0.002012 410.2 80.6
539(23) 0.001855 410.0 86.8
552(23) 0.001812 409.7 94.0
538(23) 0.001859 409.4 102.6
528(23) 0.001894 409.2 112.6
550(23) 0.001818 408.9 124.4
579(24) 0.001727 408.7 138.0
620(25) 0.001613 408.4 153.8
629(25) 0.001590 408.2 171.8
688(26) 0.001453 407.9 192.1
664(26) 0.001506 407.6 214.8
715(27) 0.001399 407.4 239.8
813(29) 0.001230 407.1 266.9
817(29) 0.001224 406.9 295.7
808(28) 0.001238 406.6 325.8
942(31) 0.001062 406.4 356.2
929(30) 0.001076 406.1 385.9
1027(32) 0.000974 405.8 413.3
1042(32) 0.000960 405.6 436.7
985(31) 0.001015 405.3 454.4
1019(32) 0.000981 405.1 464.6
1010(32) 0.000990 404.8 466.5
1018(32) 0.000982 404.6 459.8
992(31) 0.001008 404.3 445.4
899(30) 0.001112 404.1 424.7
890(30) 0.001124 403.8 399.4
780(28) 0.001282 403.5 371.3
792(28) 0.001263 403.3 341.8
719(27) 0.001391 403.0 312.2
715(27) 0.001399 402.8 283.4
694(26) 0.001441 402.5 256.0
661(26) 0.001513 402.3 230.4
641(25) 0.001560 402.0 206.8
622(25) 0.001608 401.7 185.4
617(25) 0.001621 401.5 166.2
572(24) 0.001748 401.2 149.1
539(23) 0.001855 401.0 134.1
540(23) 0.001852 400.7 121.0
539(23) 0.001855 400.5 109.6
489(22) 0.002045 400.2 99.8
501(22) 0.001996 399.9 91.5
473(22) 0.002114 399.7 84.3
501(22) 0.001996 399.4 78.2
483(22) 0.002070 399.2 73.0
493(22) 0.002028 398.9 68.6
459(21) 0.002179 398.7 64.8
449(21) 0.002227 398.4 61.6
428(21) 0.002336 398.1 58.9
443(21) 0.002257 397.9 56.6
462(21) 0.002164 397.6 54.6
408(20) 0.002451 397.4 53.0
467(22) 0.002141 397.1 51.6
463(22) 0.002160 396.9 50.4
426(21) 0.002347 396.6 49.5
451(21) 0.002217 396.3 48.7
408(20) 0.002451 396.1 48.0
431(21) 0.002320 395.8 47.4
425(21) 0.002353 395.6 47.0
451(21) 0.002217 395.3 46.5
403(20) 0.002481 395.1 46.1
413(20) 0.002421 394.8 45.7
450(21) 0.002222 394.5 45.3
399(20) 0.002506 394.3 44.8
422(21) 0.002370 394.0 44.3
402(20) 0.002488 393.8 43.7
440(21) 0.002273 393.5 43.0
397(20) 0.002519 393.3 42.2
409(20) 0.002445 393.0 41.4
385(20) 0.002597 392.8 40.5
454(21) 0.002203 392.5 39.6
420(20) 0.002381 392.2 38.6
396(20) 0.002525 392.0 37.7
419(20) 0.002387 391.7 36.7
408(20) 0.002451 391.5 35.8
427(21) 0.002342 391.2 35.0
418(20) 0.002392 391.0 34.1
436(21) 0.002294 390.7 33.4
415(20) 0.002410 390.4 32.6
426(21) 0.002347 390.2 32.0
407(20) 0.002457 389.9 31.4
410(20) 0.002439 389.7 30.8
389(20) 0.002571 389.4 30.4
395(20) 0.002532 389.2 30.0
416(20) 0.002404 388.9 29.6
405(20) 0.002469 388.6 29.3
414(20) 0.002415 388.4 29.1
398(20) 0.002513 388.1 28.9
408(20) 0.002451 387.9 28.8
393(20) 0.002545 387.6 28.8
404(20) 0.002475 387.4 28.8
442(21) 0.002262 387.1 28.8
405(20) 0.002469 386.8 28.9
383(20) 0.002611 386.6 29.1
407(20) 0.002457 386.3 29.2
422(21) 0.002370 386.1 29.4
434(21) 0.002304 385.8 29.7
409(20) 0.002445 385.6 30.0
413(20) 0.002421 385.3 30.3
405(20) 0.002469 385.0 30.6
400(20) 0.002500 384.8 31.0
407(20) 0.002457 384.5 31.4
413(20) 0.002421 384.3 31.8
431(21) 0.002320 384.0 32.2
422(21) 0.002370 383.8 32.6
396(20) 0.002525 383.5 33.0
415(20) 0.002410 383.3 33.5
427(21) 0.002342 383.0 33.9
432(21) 0.002315 382.7 34.3
434(21) 0.002304 382.5 34.7
425(21) 0.002353 382.2 35.1
420(20) 0.002381 382.0 35.5
425(21) 0.002353 381.7 35.9
421(21) 0.002375 381.5 36.3
442(21) 0.002262 381.2 36.6
399(20) 0.002506 380.9 37.0
392(20) 0.002551 380.7 37.3
381(20) 0.002625 380.4 37.6
414(20) 0.002415 380.2 37.9
422(21) 0.002370 379.9 38.1
415(20) 0.002410 379.7 38.4
434(21) 0.002304 379.4 38.7
367(19) 0.002725 379.1 39.0
411(20) 0.002433 378.9 39.2
410(20) 0.002439 378.6 39.5
408(20) 0.002451 378.4 39.8
414(20) 0.002415 378.1 40.2
409(20) 0.002445 378.0 40.5
419(20) 0.002387 378.0 40.9
403(20) 0.002481 377.9 41.3
372(19) 0.002688 377.8 41.7
390(20) 0.002564 377.8 42.2
437(21) 0.002288 377.7 42.7
399(20) 0.002506 377.7 43.3
363(19) 0.002755 377.6 43.9
388(20) 0.002577 377.6 44.6
423(21) 0.002364 377.5 45.4
417(20) 0.002398 377.4 46.2
406(20) 0.002463 377.4 47.2
410(20) 0.002439 377.3 48.2
403(20) 0.002481 377.3 49.3
443(21) 0.002257 377.2 50.6
442(21) 0.002262 377.2 52.0
382(20) 0.002618 377.1 53.5
446(21) 0.002242 377.1 55.2
428(21) 0.002336 377.0 57.0
401(20) 0.002494 376.9 59.0
446(21) 0.002242 376.9 61.2
444(21) 0.002252 376.8 63.6
439(21) 0.002278 376.8 66.1
446(21) 0.002242 376.7 68.9
428(21) 0.002336 376.7 71.9
412(20) 0.002427 376.6 75.2
435(21) 0.002299 376.6 78.7
471(22) 0.002123 376.5 82.4
456(21) 0.002193 376.4 86.4
463(22) 0.002160 376.4 90.7
476(22) 0.002101 376.3 95.2
512(23) 0.001953 376.3 100.0
479(22) 0.002088 376.2 105.1
454(21) 0.002203 376.2 110.5
449(21) 0.002227 376.1 116.1
523(23) 0.001912 376.1 122.0
519(23) 0.001927 376.0 128.1
511(23) 0.001957 375.9 134.5
560(24) 0.001786 375.9 141.1
557(24) 0.001795 375.8 147.9
540(23) 0.001852 375.8 154.9
536(23) 0.001866 375.7 162.0
579(24) 0.001727 375.7 169.1
604(25) 0.001656 375.6 176.3
622(25) 0.001608 375.6 183.5
571(24) 0.001751 375.5 190.6
643(25) 0.001555 375.4 197.5
664(26) 0.001506 375.4 204.2
624(25) 0.001603 375.3 210.6
621(25) 0.001610 375.3 216.6
652(26) 0.001534 375.2 222.1
670(26) 0.001493 375.2 227.1
652(26) 0.001534 375.1 231.6
616(25) 0.001623 375.0 235.4
638(25) 0.001567 375.0 238.5
641(25) 0.001560 374.9 241.1
618(25) 0.001618 374.9 243.0
652(26) 0.001534 374.8 244.4
682(26) 0.001466 374.8 245.3
648(25) 0.001543 374.7 245.8
666(26) 0.001501 374.7 246.0
642(25) 0.001558 374.6 245.9
629(25) 0.001590 374.5 245.6
621(25) 0.001610 374.5 245.3
628(25) 0.001592 374.4 244.8
677(26) 0.001477 374.4 244.3
649(25) 0.001541 374.3 243.8
637(25) 0.001570 374.3 243.3
632(25) 0.001582 374.2 242.7
675(26) 0.001481 374.2 242.2
652(26) 0.001534 374.1 241.4
610(25) 0.001639 374.0 240.3
615(25) 0.001626 374.0 239.0
660(26) 0.001515 373.9 237.2
627(25) 0.001595 373.9 234.8
620(25) 0.001613 373.8 231.9
593(24) 0.001686 373.8 228.3
603(25) 0.001658 373.7 224.0
678(26) 0.001475 373.7 219.0
591(24) 0.001692 373.6 213.4
644(25) 0.001553 373.5 207.2
611(25) 0.001637 373.5 200.6
607(25) 0.001647 373.4 193.7
568(24) 0.001761 373.4 186.6
580(24) 0.001724 373.3 179.3
551(23) 0.001815 373.3 172.1
550(23) 0.001818 373.2 164.9
553(24) 0.001808 373.2 157.9
534(23) 0.001873 373.1 151.1
505(22) 0.001980 373.0 144.5
511(23) 0.001957 373.0 138.2
498(22) 0.002008 372.9 132.2
500(22) 0.002000 372.9 126.5
491(22) 0.002037 372.8 121.2
490(22) 0.002041 372.8 116.1
474(22) 0.002110 372.7 111.4
451(21) 0.002217 372.6 106.9
436(21) 0.002294 372.6 102.8
448(21) 0.002232 372.5 99.0
454(21) 0.002203 372.5 95.4
463(22) 0.002160 372.4 92.0
484(22) 0.002066 372.4 88.9
461(21) 0.002169 372.3 86.0
423(21) 0.002364 372.3 83.4
419(20) 0.002387 372.2 80.9
460(21) 0.002174 372.1 78.6
433(21) 0.002309 372.1 76.4
406(20) 0.002463 372.0 74.4
418(20) 0.002392 372.0 72.5
412(20) 0.002427 371.9 70.7
407(20) 0.002457 371.9 69.1
409(20) 0.002445 371.8 67.5
420(20) 0.002381 371.8 66.0
457(21) 0.002188 371.7 64.6
402(20) 0.002488 371.6 63.2
434(21) 0.002304 371.6 62.0
391(20) 0.002558 371.5 60.7
419(20) 0.002387 371.5 59.6
401(20) 0.002494 371.4 58.4
418(20) 0.002392 371.4 57.4
376(19) 0.002660 371.3 56.3
405(20) 0.002469 371.3 55.3
390(20) 0.002564 371.2 54.4
410(20) 0.002439 371.1 53.5
402(20) 0.002488 371.1 52.6
381(20) 0.002625 371.0 51.7
396(20) 0.002525 371.0 50.9
413(20) 0.002421 370.9 50.1
374(19) 0.002674 370.9 49.3
383(20) 0.002611 370.8 48.6
386(20) 0.002591 370.7 47.9
434(21) 0.002304 370.7 47.2
412(20) 0.002427 370.6 46.5
382(20) 0.002618 370.6 45.9
385(20) 0.002597 370.5 45.3
366(19) 0.002732 370.5 44.7
411(20) 0.002433 370.4 44.2
360(19) 0.002778 370.4 43.7
449(21) 0.002227 370.3 43.2
422(21) 0.002370 370.2 42.8
393(20) 0.002545 370.2 42.3
376(19) 0.002660 370.1 42.0
389(20) 0.002571 370.1 41.6
397(20) 0.002519 370.0 41.3
392(20) 0.002551 370.0 40.9
418(20) 0.002392 369.9 40.7
376(19) 0.002660 369.8 40.4
381(20) 0.002625 369.8 40.2
379(19) 0.002639 369.7 40.0
359(19) 0.002786 369.6 39.9
369(19) 0.002710 369.6 39.8
386(20) 0.002591 369.5 39.7
383(20) 0.002611 369.4 39.6
390(20) 0.002564 369.3 39.6
404(20) 0.002475 369.3 39.6
373(19) 0.002681 369.2 39.6
387(20) 0.002584 369.1 39.6
453(21) 0.002208 369.1 39.7
440(21) 0.002273 369.0 39.8
376(19) 0.002660 368.9 40.0
409(20) 0.002445 368.8 40.2
393(20) 0.002545 368.8 40.3
442(21) 0.002262 368.7 40.6
387(20) 0.002584 368.6 40.8
404(20) 0.002475 368.6 41.1
411(20) 0.002433 368.5 41.4
393(20) 0.002545 368.4 41.7
369(19) 0.002710 368.4 42.1
452(21) 0.002212 368.3 42.5
414(20) 0.002415 368.2 42.9
367(19) 0.002725 368.1 43.3
382(20) 0.002618 368.1 43.7
420(20) 0.002381 368.0 44.2
414(20) 0.002415 367.9 44.7
439(21) 0.002278 367.9 45.1
404(20) 0.002475 367.8 45.6
411(20) 0.002433 367.7 46.1
386(20) 0.002591 367.6 46.7
401(20) 0.002494 367.6 47.2
410(20) 0.002439 367.5 47.6
419(20) 0.002387 367.4 48.2
386(20) 0.002591 367.4 48.7
397(20) 0.002519 367.3 49.2
385(20) 0.002597 367.2 49.7
413(20) 0.002421 367.2 50.2
402(20) 0.002488 367.1 50.6
421(21) 0.002375 367.0 51.1
396(20) 0.002525 366.9 51.5
452(21) 0.002212 366.9 51.9
440(21) 0.002273 366.8 52.3
400(20) 0.002500 366.7 52.7
397(20) 0.002519 366.7 53.0
400(20) 0.002500 366.6 53.3
401(20) 0.002494 366.5 53.5
392(20) 0.002551 366.4 53.8
417(20) 0.002398 366.4 54.0
388(20) 0.002577 366.3 54.2
424(21) 0.002358 366.2 54.4
424(21) 0.002358 366.2 54.5
417(20) 0.002398 366.1 54.7
455(21) 0.002198 366.0 54.8
418(20) 0.002392 366.0 54.9
393(20) 0.002545 365.9 55.1
395(20) 0.002532 365.8 55.2
425(21) 0.002353 365.7 55.3
423(21) 0.002364 365.7 55.5
407(20) 0.002457 365.6 55.6
393(20) 0.002545 365.5 55.8
407(20) 0.002457 365.5 55.9
402(20) 0.002488 365.4 56.1
435(21) 0.002299 365.3 56.3
388(20) 0.002577 365.2 56.5
437(21) 0.002288 365.2 56.8
418(20) 0.002392 365.1 57.0
401(20) 0.002494 365.0 57.2
385(20) 0.002597 365.0 57.5
394(20) 0.002538 364.9 57.8
418(20) 0.002392 364.8 58.1
423(21) 0.002364 364.7 58.4
414(20) 0.002415 364.7 58.7
425(21) 0.002353 364.6 59.0
409(20) 0.002445 364.5 59.4
389(20) 0.002571 364.5 59.7
417(20) 0.002398 364.4 60.0
404(20) 0.002475 364.3 60.4
405(20) 0.002469 364.3 60.7
431(21) 0.002320 364.2 61.0
434(21) 0.002304 364.1 61.3
444(21) 0.002252 364.0 61.6
419(20) 0.002387 364.0 62.0
414(20) 0.002415 363.9 62.3
420(20) 0.002381 363.8 62.6
421(21) 0.002375 363.8 62.9
426(21) 0.002347 363.7 63.1
417(20) 0.002398 363.6 63.3
405(20) 0.002469 363.5 63.5
417(20) 0.002398 363.5 63.5
423(21) 0.002364 363.4 63.4
435(21) 0.002299 363.3 63.1
425(21) 0.002353 363.3 62.6
424(21) 0.002358 363.2 62.1
405(20) 0.002469 363.1 61.5
411(20) 0.002433 363.1 60.9
435(21) 0.002299 363.0 60.2
395(20) 0.002532 362.9 59.6
414(20) 0.002415 362.8 59.0
410(20) 0.002439 362.8 58.4
429(21) 0.002331 362.7 57.8
389(20) 0.002571 362.6 57.2
414(20) 0.002415 362.6 56.6
387(20) 0.002584 362.5 56.1
411(20) 0.002433 362.4 55.5
388(20) 0.002577 362.3 54.9
407(20) 0.002457 362.3 54.4
412(20) 0.002427 362.2 53.8
424(21) 0.002358 362.1 53.3
340(18) 0.002941 362.1 52.8
387(20) 0.002584 362.0 52.3
384(20) 0.002604 361.9 51.8
418(20) 0.002392 361.9 51.3
406(20) 0.002463 361.8 50.8
414(20) 0.002415 361.7 50.4
417(20) 0.002398 361.6 50.0
419(20) 0.002387 361.6 49.6
453(21) 0.002208 361.5 49.2
429(21) 0.002331 361.4 48.9
394(20) 0.002538 361.4 48.6
401(20) 0.002494 361.3 48.3
410(20) 0.002439 361.2 48.0
400(20) 0.002500 361.1 47.8
421(21) 0.002375 361.1 47.6
410(20) 0.002439 361.0 47.4
400(20) 0.002500 360.9 47.3
377(19) 0.002653 360.9 47.2
400(20) 0.002500 360.8 47.3
409(20) 0.002445 360.7 47.4
404(20) 0.002475 360.7 47.6
429(21) 0.002331 360.6 47.9
410(20) 0.002439 360.5 48.4
389(20) 0.002571 360.4 49.1
429(21) 0.002331 360.4 50.0
415(20) 0.002410 360.3 51.3
426(21) 0.002347 360.2 53.1
432(21) 0.002315 360.2 55.5
431(21) 0.002320 360.1 58.7
451(21) 0.002217 360.0 63.0
471(22) 0.002123 359.9 68.8
480(22) 0.002083 359.9 76.4
470(22) 0.002128 359.8 86.1
482(22) 0.002075 359.7 98.1
476(22) 0.002101 359.7 112.6
497(22) 0.002012 359.6 129.3
547(23) 0.001828 359.5 147.4
465(22) 0.002151 359.5 165.5
499(22) 0.002004 359.4 180.7
534(23) 0.001873 359.3 190.0
508(23) 0.001968 359.2 190.6
514(23) 0.001946 359.2 182.5
476(22) 0.002101 359.1 167.8
466(22) 0.002146 359.0 150.0
466(22) 0.002146 359.0 131.8
438(21) 0.002283 358.9 114.9
434(21) 0.002304 358.8 100.1
455(21) 0.002198 358.7 87.7
417(20) 0.002398 358.7 77.8
425(21) 0.002353 358.6 70.0
392(20) 0.002551 358.5 64.0
384(20) 0.002604 358.5 59.5
442(21) 0.002262 358.4 56.2
408(20) 0.002451 358.3 53.8
389(20) 0.002571 358.3 52.1
408(20) 0.002451 358.2 50.8
414(20) 0.002415 358.1 50.0
410(20) 0.002439 358.0 49.4
388(20) 0.002577 358.0 49.1
409(20) 0.002445 357.9 49.0
417(20) 0.002398 357.8 49.1
411(20) 0.002433 357.8 49.4
405(20) 0.002469 357.7 49.8
407(20) 0.002457 357.6 50.4
379(19) 0.002639 357.5 51.1
407(20) 0.002457 357.5 52.0
405(20) 0.002469 357.4 53.0
379(19) 0.002639 357.3 54.1
432(21) 0.002315 357.3 55.4
428(21) 0.002336 357.2 56.8
398(20) 0.002513 357.1 58.3
401(20) 0.002494 357.1 59.8
395(20) 0.002532 357.0 61.5
413(20) 0.002421 356.9 63.3
428(21) 0.002336 356.8 65.1
425(21) 0.002353 356.8 66.9
401(20) 0.002494 356.7 68.7
428(21) 0.002336 356.6 70.4
405(20) 0.002469 356.6 72.1
420(20) 0.002381 356.5 73.7
433(21) 0.002309 356.4 75.4
457(21) 0.002188 356.3 77.0
467(22) 0.002141 356.3 78.6
484(22) 0.002066 356.2 80.3
451(21) 0.002217 356.1 82.0
451(21) 0.002217 356.1 83.8
485(22) 0.002062 356.0 85.7
447(21) 0.002237 355.9 87.6
444(21) 0.002252 355.9 89.6
481(22) 0.002079 355.8 91.7
457(21) 0.002188 355.7 93.8
463(22) 0.002160 355.6 95.9
479(22) 0.002088 355.6 98.0
510(23) 0.001961 355.5 100.2
517(23) 0.001934 355.4 102.3
483(22) 0.002070 355.4 104.3
481(22) 0.002079 355.3 106.3
498(22) 0.002008 355.2 108.2
492(22) 0.002033 355.1 109.9
479(22) 0.002088 355.1 111.5
480(22) 0.002083 355.0 112.9
446(21) 0.002242 354.9 114.2
477(22) 0.002096 354.9 115.2
504(22) 0.001984 354.8 116.0
488(22) 0.002049 354.7 116.5
489(22) 0.002045 354.7 116.8
497(22) 0.002012 354.6 116.9
506(22) 0.001976 354.5 116.7
479(22) 0.002088 354.4 116.4
497(22) 0.002012 354.4 115.8
480(22) 0.002083 354.3 115.0
497(22) 0.002012 354.2 114.1
461(21) 0.002169 354.2 113.0
486(22) 0.002058 354.1 111.8
485(22) 0.002062 354.0 110.5
462(21) 0.002164 353.9 109.1
477(22) 0.002096 353.9 107.7
450(21) 0.002222 353.8 106.2
480(22) 0.002083 353.7 104.8
472(22) 0.002119 353.7 103.3
499(22) 0.002004 353.6 101.9
484(22) 0.002066 353.5 100.5
521(23) 0.001919 353.5 99.1
477(22) 0.002096 353.4 97.8
461(21) 0.002169 353.3 96.6
483(22) 0.002070 353.2 95.3
451(21) 0.002217 353.2 94.1
478(22) 0.002092 353.1 92.8
493(22) 0.002028 353.0 91.4
453(21) 0.002208 353.0 89.9
428(21) 0.002336 352.9 88.2
470(22) 0.002128 352.8 86.3
426(21) 0.002347 352.7 84.2
434(21) 0.002304 352.7 81.9
434(21) 0.002304 352.6 79.5
439(21) 0.002278 352.5 76.9
425(21) 0.002353 352.5 74.4
442(21) 0.002262 352.4 71.8
442(21) 0.002262 352.3 69.3
413(20) 0.002421 352.3 66.8
421(21) 0.002375 352.2 64.5
422(21) 0.002370 352.1 62.3
420(20) 0.002381 352.0 60.3
413(20) 0.002421 352.0 58.5
424(21) 0.002358 351.9 56.9
407(20) 0.002457 351.8 55.5
375(19) 0.002667 351.8 54.5
412(20) 0.002427 351.7 53.8
401(20) 0.002494 351.6 53.6
396(20) 0.002525 351.5 53.9
417(20) 0.002398 351.5 54.9
409(20) 0.002445 351.4 56.6
415(20) 0.002410 351.3 59.2
415(20) 0.002410 351.3 62.8
425(21) 0.002353 351.2 67.4
443(21) 0.002257 351.1 72.9
424(21) 0.002358 351.1 79.1
397(20) 0.002519 351.0 85.7
402(20) 0.002488 350.9 91.9
432(21) 0.002315 350.8 96.6
405(20) 0.002469 350.8 98.7
426(21) 0.002347 350.7 97.5
416(20) 0.002404 350.6 93.4
420(20) 0.002381 350.6 87.1
414(20) 0.002415 350.5 79.9
414(20) 0.002415 350.4 72.7
389(20) 0.002571 350.3 66.0
380(19) 0.002632 350.3 60.1
390(20) 0.002564 350.2 55.1
408(20) 0.002451 350.1 51.1
397(20) 0.002519 350.1 48.0
410(20) 0.002439 350.0 45.7
370(19) 0.002703 349.9 44.0
391(20) 0.002558 349.8 42.9
425(21) 0.002353 349.8 42.2
424(21) 0.002358 349.7 42.0
368(19) 0.002717 349.6 42.1
387(20) 0.002584 349.6 42.5
363(19) 0.002755 349.5 43.1
381(20) 0.002625 349.4 44.1
418(20) 0.002392 349.4 45.3
390(20) 0.002564 349.3 46.7
409(20) 0.002445 349.2 48.4
393(20) 0.002545 349.1 50.3
386(20) 0.002591 349.1 52.5
390(20) 0.002564 349.0 54.9
395(20) 0.002532 348.9 57.6
406(20) 0.002463 348.9 60.5
415(20) 0.002410 348.8 63.5
402(20) 0.002488 348.7 66.7
430(21) 0.002326 348.6 70.0
402(20) 0.002488 348.6 73.3
438(21) 0.002283 348.5 76.6
435(21) 0.002299 348.4 79.8
441(21) 0.002268 348.4 82.9
444(21) 0.002252 348.3 85.8
418(20) 0.002392 348.2 88.5
417(20) 0.002398 348.2 91.1
427(21) 0.002342 348.1 93.5
432(21) 0.002315 348.0 96.0
439(21) 0.002278 347.9 98.6
445(21) 0.002247 347.9 101.5
451(21) 0.002217 347.8 104.8
443(21) 0.002257 347.7 108.5
449(21) 0.002227 347.7 112.6
463(22) 0.002160 347.6 116.9
482(22) 0.002075 347.5 121.1
438(21) 0.002283 347.4 124.8
488(22) 0.002049 347.4 127.4
449(21) 0.002227 347.3 128.5
444(21) 0.002252 347.2 127.6
507(23) 0.001972 347.2 125.0
461(21) 0.002169 347.1 121.1
440(21) 0.002273 347.0 116.3
437(21) 0.002288 347.0 111.3
447(21) 0.002237 346.9 106.2
436(21) 0.002294 346.8 101.4
431(21) 0.002320 346.7 96.9
427(21) 0.002342 346.7 92.8
430(21) 0.002326 346.6 89.1
443(21) 0.002257 346.5 85.7
404(20) 0.002475 346.5 82.7
414(20) 0.002415 346.4 79.9
384(20) 0.002604 346.3 77.3
438(21) 0.002283 346.2 74.9
416(20) 0.002404 346.2 72.6
425(21) 0.002353 346.1 70.4
439(21) 0.002278 346.0 68.3
415(20) 0.002410 346.0 66.1
404(20) 0.002475 345.9 64.0
413(20) 0.002421 345.8 61.9
416(20) 0.002404 345.8 59.8
399(20) 0.002506 345.7 57.7
418(20) 0.002392 345.6 55.6
391(20) 0.002558 345.5 53.5
394(20) 0.002538 345.5 51.3
405(20) 0.002469 345.4 49.3
422(21) 0.002370 345.3 47.2
366(19) 0.002732 345.3 45.2
400(20) 0.002500 345.2 43.3
370(19) 0.002703 345.1 41.4
354(19) 0.002825 345.0 39.6
411(20) 0.002433 345.0 37.8
370(19) 0.002703 344.9 36.1
377(19) 0.002653 344.8 34.5
353(19) 0.002833 344.8 33.0
359(19) 0.002786 344.7 31.6
383(20) 0.002611 344.6 30.2
357(19) 0.002801 344.6 28.9
370(19) 0.002703 344.5 27.7
382(20) 0.002618 344.4 26.6
344(19) 0.002907 344.3 25.5
375(19) 0.002667 344.3 24.5
367(19) 0.002725 344.2 23.5
363(19) 0.002755 344.1 22.6
357(19) 0.002801 344.1 21.8
346(19) 0.002890 344.0 21.0
369(19) 0.002710 343.9 20.3
373(19) 0.002681 343.8 19.7
352(19) 0.002841 343.8 19.0
351(19) 0.002849 343.7 18.5
359(19) 0.002786 343.6 17.9
342(18) 0.002924 343.6 17.4
360(19) 0.002778 343.5 17.0
400(20) 0.002500 343.4 16.5
374(19) 0.002674 343.4 16.1
362(19) 0.002762 343.3 15.8
412(20) 0.002427 343.2 15.5
395(20) 0.002532 343.1 15.1
396(20) 0.002525 343.1 14.9
465(22) 0.002151 343.0 14.6
402(20) 0.002488 342.9 14.4
362(19) 0.002762 342.9 14.1
392(20) 0.002551 342.8 13.9
359(19) 0.002786 342.7 13.7
371(19) 0.002695 342.6 13.6
369(19) 0.002710 342.6 13.4
361(19) 0.002770 342.5 13.3
323(18) 0.003096 342.4 13.1
335(18) 0.002985 342.4 13.0
376(19) 0.002660 342.3 12.9
373(19) 0.002681 342.2 12.8
371(19) 0.002695 342.2 12.7
343(19) 0.002915 342.1 12.7
385(20) 0.002597 342.0 12.6
321(18) 0.003115 341.9 12.6
362(19) 0.002762 341.9 12.5
357(19) 0.002801 341.8 12.5
340(18) 0.002941 341.7 12.5
314(18) 0.003185 341.7 12.5
347(19) 0.002882 341.6 12.5
353(19) 0.002833 341.6 12.5
337(18) 0.002967 341.7 12.5
336(18) 0.002976 341.7 12.5
350(19) 0.002857 341.8 12.6
333(18) 0.003003 341.9 12.6
318(18) 0.003145 341.9 12.7
324(18) 0.003086 342.0 12.8
354(19) 0.002825 342.1 12.8
368(19) 0.002717 342.1 12.9
327(18) 0.003058 342.2 13.1
323(18) 0.003096 342.3 13.2
335(18) 0.002985 342.3 13.3
333(18) 0.003003 342.4 13.5
382(20) 0.002618 342.4 13.7
343(19) 0.002915 342.5 13.9
360(19) 0.002778 342.6 14.1
339(18) 0.002950 342.6 14.3
362(19) 0.002762 342.7 14.6
327(18) 0.003058 342.8 14.8
323(18) 0.003096 342.8 15.1
346(19) 0.002890 342.9 15.4
363(19) 0.002755 343.0 15.8
340(18) 0.002941 343.0 16.1
340(18) 0.002941 343.1 16.5
353(19) 0.002833 343.1 16.9
343(19) 0.002915 343.2 17.4
346(19) 0.002890 343.3 17.8
345(19) 0.002899 343.3 18.3
372(19) 0.002688 343.4 18.8
339(18) 0.002950 343.5 19.4
339(18) 0.002950 343.5 20.0
376(19) 0.002660 343.6 20.6
372(19) 0.002688 343.6 21.2
368(19) 0.002717 343.7 21.9
380(19) 0.002632 343.8 22.6
353(19) 0.002833 343.8 23.3
361(19) 0.002770 343.9 24.0
368(19) 0.002717 344.0 24.8
347(19) 0.002882 344.0 25.6
367(19) 0.002725 344.1 26.4
399(20) 0.002506 344.2 27.2
413(20) 0.002421 344.2 28.1
375(19) 0.002667 344.3 28.9
413(20) 0.002421 344.3 29.8
438(21) 0.002283 344.4 30.6
396(20) 0.002525 344.5 31.5
425(21) 0.002353 344.5 32.3
403(20) 0.002481 344.6 33.2
400(20) 0.002500 344.7 34.0
391(20) 0.002558 344.7 34.7
414(20) 0.002415 344.8 35.5
378(19) 0.002646 344.9 36.2
379(19) 0.002639 344.9 36.8
418(20) 0.002392 345.0 37.4
365(19) 0.002740 345.0 37.9
349(19) 0.002865 345.1 38.3
397(20) 0.002519 345.2 38.7
382(20) 0.002618 345.2 39.0
362(19) 0.002762 345.3 39.2
373(19) 0.002681 345.4 39.3
379(19) 0.002639 345.4 39.3
376(19) 0.002660 345.5 39.3
350(19) 0.002857 345.6 39.2
375(19) 0.002667 345.6 39.1
358(19) 0.002793 345.7 38.9
380(19) 0.002632 345.7 38.7
360(19) 0.002778 345.8 38.4
352(19) 0.002841 345.9 38.2
364(19) 0.002747 345.9 37.9
401(20) 0.002494 346.0 37.6
375(19) 0.002667 346.1 37.3
388(20) 0.002577 346.1 37.0
381(20) 0.002625 346.2 36.7
374(19) 0.002674 346.3 36.4
406(20) 0.002463 346.3 36.2
385(20) 0.002597 346.4 36.0
369(19) 0.002710 346.4 35.8
358(19) 0.002793 346.5 35.7
385(20) 0.002597 346.6 35.6
360(19) 0.002778 346.6 35.5
362(19) 0.002762 346.7 35.5
354(19) 0.002825 346.8 35.6
365(19) 0.002740 346.8 35.7
355(19) 0.002817 346.9 35.9
376(19) 0.002660 347.0 36.1
381(20) 0.002625 347.0 36.4
375(19) 0.002667 347.1 36.8
351(19) 0.002849 347.1 37.3
378(19) 0.002646 347.2 37.9
364(19) 0.002747 347.3 38.5
356(19) 0.002809 347.3 39.3
398(20) 0.002513 347.4 40.1
367(19) 0.002725 347.5 41.1
375(19) 0.002667 347.5 42.2
380(19) 0.002632 347.6 43.4
388(20) 0.002577 347.7 44.8
385(20) 0.002597 347.7 46.3
379(19) 0.002639 347.8 47.9
408(20) 0.002451 347.8 49.7
362(19) 0.002762 347.9 51.6
381(20) 0.002625 348.0 53.7
369(19) 0.002710 348.0 55.9
400(20) 0.002500 348.1 58.3
365(19) 0.002740 348.2 60.8
411(20) 0.002433 348.2 63.5
395(20) 0.002532 348.3 66.3
414(20) 0.002415 348.3 69.2
423(21) 0.002364 348.4 72.2
409(20) 0.002445 348.5 75.3
394(20) 0.002538 348.5 78.5
423(21) 0.002364 348.6 81.7
427(21) 0.002342 348.7 85.0
429(21) 0.002331 348.7 88.2
450(21) 0.002222 348.8 91.3
385(20) 0.002597 348.9 94.2
411(20) 0.002433 348.9 97.0
410(20) 0.002439 349.0 99.5
429(21) 0.002331 349.0 101.7
429(21) 0.002331 349.1 103.6
476(22) 0.002101 349.2 105.0
444(21) 0.002252 349.2 105.9
430(21) 0.002326 349.3 106.3
460(21) 0.002174 349.4 106.3
466(22) 0.002146 349.4 105.8
477(22) 0.002096 349.5 104.8
438(21) 0.002283 349.6 103.4
447(21) 0.002237 349.6 101.6
468(22) 0.002137 349.7 99.6
441(21) 0.002268 349.7 97.3
467(22) 0.002141 349.8 94.8
447(21) 0.002237 349.9 92.2
443(21) 0.002257 349.9 89.5
421(21) 0.002375 350.0 86.8
407(20) 0.002457 350.1 84.1
420(20) 0.002381 350.1 81.5
405(20) 0.002469 350.2 79.0
458(21) 0.002183 350.3 76.7
419(20) 0.002387 350.3 74.5
397(20) 0.002519 350.4 72.6
423(21) 0.002364 350.4 70.9
420(20) 0.002381 350.5 69.6
424(21) 0.002358 350.6 68.6
410(20) 0.002439 350.6 68.1
436(21) 0.002294 350.7 68.1
442(21) 0.002262 350.8 68.7
450(21) 0.002222 350.8 69.8
425(21) 0.002353 350.9 71.5
437(21) 0.002288 351.0 73.9
487(22) 0.002053 351.0 76.9
475(22) 0.002105 351.1 80.3
494(22) 0.002024 351.1 84.0
420(20) 0.002381 351.2 87.8
440(21) 0.002273 351.3 91.1
418(20) 0.002392 351.3 93.6
463(22) 0.002160 351.4 94.6
474(22) 0.002110 351.5 93.8
465(22) 0.002151 351.5 91.2
425(21) 0.002353 351.6 87.1
436(21) 0.002294 351.7 81.9
421(21) 0.002375 351.7 76.1
433(21) 0.002309 351.8 70.2
422(21) 0.002370 351.8 64.5
392(20) 0.002551 351.9 59.2
395(20) 0.002532 352.0 54.3
406(20) 0.002463 352.0 50.0
379(19) 0.002639 352.1 46.3
415(20) 0.002410 352.2 43.0
377(19) 0.002653 352.2 40.3
412(20) 0.002427 352.3 37.9
384(20) 0.002604 352.3 35.9
324(18) 0.003086 352.4 34.3
375(19) 0.002667 352.5 32.8
410(20) 0.002439 352.5 31.6
365(19) 0.002740 352.6 30.5
381(20) 0.002625 352.7 29.6
360(19) 0.002778 352.7 28.8
373(19) 0.002681 352.8 28.1
359(19) 0.002786 352.9 27.4
341(18) 0.002933 352.9 26.8
367(19) 0.002725 353.0 26.3
357(19) 0.002801 353.0 25.8
373(19) 0.002681 353.1 25.4
379(19) 0.002639 353.2 25.0
339(18) 0.002950 353.2 24.7
364(19) 0.002747 353.3 24.3
343(19) 0.002915 353.4 24.1
363(19) 0.002755 353.4 23.8
351(19) 0.002849 353.5 23.6
368(19) 0.002717 353.6 23.4
390(20) 0.002564 353.6 23.3
368(19) 0.002717 353.7 23.1
365(19) 0.002740 353.7 23.0
378(19) 0.002646 353.7 23.0
349(19) 0.002865 353.6 22.9
349(19) 0.002865 353.6 22.9
322(18) 0.003106 353.5 23.0
347(19) 0.002882 353.4 23.0
379(19) 0.002639 353.4 23.1
374(19) 0.002674 353.3 23.2
370(19) 0.002703 353.3 23.3
369(19) 0.002710 353.2 23.5
360(19) 0.002778 353.2 23.7
363(19) 0.002755 353.1 23.9
352(19) 0.002841 353.1 24.2
352(19) 0.002841 353.0 24.5
387(20) 0.002584 353.0 24.9
375(19) 0.002667 352.9 25.2
364(19) 0.002747 352.9 25.7
375(19) 0.002667 352.8 26.1
378(19) 0.002646 352.7 26.7
365(19) 0.002740 352.7 27.2
343(19) 0.002915 352.6 27.9
367(19) 0.002725 352.6 28.6
401(20) 0.002494 352.5 29.4
350(19) 0.002857 352.5 30.2
387(20) 0.002584 352.4 31.2
374(19) 0.002674 352.4 32.3
378(19) 0.002646 352.3 33.5
412(20) 0.002427 352.3 34.9
372(19) 0.002688 352.2 36.4
362(19) 0.002762 352.2 38.1
370(19) 0.002703 352.1 39.9
386(20) 0.002591 352.0 41.9
388(20) 0.002577 352.0 44.1
412(20) 0.002427 351.9 46.5
385(20) 0.002597 351.9 49.0
422(21) 0.002370 351.8 51.6
380(19) 0.002632 351.8 54.3
410(20) 0.002439 351.7 57.1
404(20) 0.002475 351.7 59.9
397(20) 0.002519 351.6 62.6
415(20) 0.002410 351.6 65.0
400(20) 0.002500 351.5 67.1
397(20) 0.002519 351.5 68.8
370(19) 0.002703 351.4 69.8
433(21) 0.002309 351.3 70.2
436(21) 0.002294 351.3 70.1
414(20) 0.002415 351.2 69.4
409(20) 0.002445 351.2 68.4
419(20) 0.002387 351.1 67.2
425(21) 0.002353 351.1 65.8
463(22) 0.002160 351.0 64.4
413(20) 0.002421 351.0 63.1
384(20) 0.002604 350.9 61.9
412(20) 0.002427 350.9 60.8
441(21) 0.002268 350.8 59.8
448(21) 0.002232 350.8 59.1
420(20) 0.002381 350.7 58.5
443(21) 0.002257 350.6 58.0
435(21) 0.002299 350.6 57.7
411(20) 0.002433 350.5 57.5
412(20) 0.002427 350.5 57.4
435(21) 0.002299 350.4 57.4
398(20) 0.002513 350.4 57.5
446(21) 0.002242 350.3 57.6
406(20) 0.002463 350.3 57.8
413(20) 0.002421 350.2 58.1
470(22) 0.002128 350.2 58.3
416(20) 0.002404 350.1 58.6
406(20) 0.002463 350.1 58.8
433(21) 0.002309 350.0 59.0
412(20) 0.002427 349.9 59.3
437(21) 0.002288 349.9 59.4
409(20) 0.002445 349.8 59.6
455(21) 0.002198 349.8 59.7
424(21) 0.002358 349.7 59.8
452(21) 0.002212 349.7 59.9
440(21) 0.002273 349.6 59.9
424(21) 0.002358 349.6 59.8
429(21) 0.002331 349.5 59.8
427(21) 0.002342 349.5 59.6
432(21) 0.002315 349.4 59.4
463(22) 0.002160 349.4 59.2
428(21) 0.002336 349.3 58.9
471(22) 0.002123 349.2 58.6
406(20) 0.002463 349.2 58.2
427(21) 0.002342 349.1 57.8
402(20) 0.002488 349.1 57.3
399(20) 0.002506 349.0 56.9
419(20) 0.002387 349.0 56.3
426(21) 0.002347 348.9 55.8
404(20) 0.002475 348.9 55.2
420(20) 0.002381 348.8 54.5
396(20) 0.002525 348.8 53.9
410(20) 0.002439 348.7 53.2
451(21) 0.002217 348.7 52.6
431(21) 0.002320 348.6 51.9
449(21) 0.002227 348.5 51.2
463(22) 0.002160 348.5 50.4
415(20) 0.002410 348.4 49.7
382(20) 0.002618 348.4 49.0
408(20) 0.002451 348.3 48.3
447(21) 0.002237 348.3 47.5
408(20) 0.002451 348.2 46.8
406(20) 0.002463 348.2 46.1
429(21) 0.002331 348.1 45.3
409(20) 0.002445 348.1 44.6
392(20) 0.002551 348.0 43.9
383(20) 0.002611 348.0 43.2
385(20) 0.002597 347.9 42.5
391(20) 0.002558 347.8 41.8
411(20) 0.002433 347.8 41.1
401(20) 0.002494 347.7 40.4
379(19) 0.002639 347.7 39.7
424(21) 0.002358 347.6 39.1
419(20) 0.002387 347.6 38.4
392(20) 0.002551 347.5 37.8
393(20) 0.002545 347.5 37.1
386(20) 0.002591 347.4 36.5
420(20) 0.002381 347.4 35.8
390(20) 0.002564 347.3 35.2
397(20) 0.002519 347.3 34.6
422(21) 0.002370 347.2 34.0
398(20) 0.002513 347.1 33.4
390(20) 0.002564 347.1 32.8
382(20) 0.002618 347.0 32.2
397(20) 0.002519 347.0 31.7
371(19) 0.002695 346.9 31.1
392(20) 0.002551 346.9 30.5
397(20) 0.002519 346.8 30.0
422(21) 0.002370 346.8 29.5
414(20) 0.002415 346.7 29.0
399(20) 0.002506 346.7 28.5
398(20) 0.002513 346.6 28.0
386(20) 0.002591 346.6 27.5
412(20) 0.002427 346.5 27.1
405(20) 0.002469 346.4 26.6
402(20) 0.002488 346.4 26.2
414(20) 0.002415 346.3 25.8
381(20) 0.002625 346.3 25.4
404(20) 0.002475 346.2 25.0
429(21) 0.002331 346.2 24.7
405(20) 0.002469 346.1 24.3
401(20) 0.002494 346.1 24.0
401(20) 0.002494 346.0 23.7
418(20) 0.002392 346.0 23.5
403(20) 0.002481 345.9 23.2
414(20) 0.002415 345.9 23.0
403(20) 0.002481 345.8 22.7
417(20) 0.002398 345.7 22.5
398(20) 0.002513 345.7 22.3
409(20) 0.002445 345.6 22.2
410(20) 0.002439 345.6 22.0
405(20) 0.002469 345.5 21.9
411(20) 0.002433 345.5 21.7
434(21) 0.002304 345.4 21.6
397(20) 0.002519 345.4 21.5
399(20) 0.002506 345.3 21.5
423(21) 0.002364 345.3 21.4
410(20) 0.002439 345.2 21.4
414(20) 0.002415 345.2 21.3
405(20) 0.002469 345.1 21.3
423(21) 0.002364 345.0 21.3
400(20) 0.002500 345.0 21.3
395(20) 0.002532 344.9 21.4
415(20) 0.002410 344.9 21.4
398(20) 0.002513 344.8 21.5
430(21) 0.002326 344.8 21.6
410(20) 0.002439 344.7 21.7
410(20) 0.002439 344.7 21.8
421(21) 0.002375 344.6 21.9
430(21) 0.002326 344.6 22.0
409(20) 0.002445 344.5 22.2
416(20) 0.002404 344.5 22.3
421(21) 0.002375 344.4 22.5
422(21) 0.002370 344.3 22.6
426(21) 0.002347 344.3 22.8
435(21) 0.002299 344.2 23.0
430(21) 0.002326 344.2 23.2
453(21) 0.002208 344.1 23.4
434(21) 0.0 0.0 .
464(22) 0.0 0.0 .
451(21) 0.0 0.0 .
460(21) 0.0 0.0 .
493(22) 0.0 0.0 .
491(22) 0.0 0.0 .
484(22) 0.0 0.0 .
470(22) 0.0 0.0 .
462(21) 0.0 0.0 .
492(22) 0.0 0.0 .
480(22) 0.0 0.0 .
474(22) 0.0 0.0 .
523(23) 0.0 0.0 .
498(22) 0.0 0.0 .
561(24) 0.0 0.0 .
486(22) 0.0 0.0 .
524(23) 0.0 0.0 .
550(23) 0.0 0.0 .
507(23) 0.0 0.0 .
517(23) 0.0 0.0 .
585(24) 0.0 0.0 .
549(23) 0.0 0.0 .
577(24) 0.0 0.0 .
561(24) 0.0 0.0 .
547(23) 0.0 0.0 .
600(24) 0.0 0.0 .
582(24) 0.0 0.0 .
585(24) 0.0 0.0 .
615(25) 0.0 0.0 .
608(25) 0.0 0.0 .
622(25) 0.0 0.0 .
658(26) 0.0 0.0 .
637(25) 0.0 0.0 .
705(27) 0.0 0.0 .
699(26) 0.0 0.0 .
748(27) 0.0 0.0 .
720(27) 0.0 0.0 .
734(27) 0.0 0.0 .
821(29) 0.0 0.0 .
740(27) 0.0 0.0 .
829(29) 0.0 0.0 .
837(29) 0.0 0.0 .
865(29) 0.0 0.0 .
959(31) 0.0 0.0 .
970(31) 0.0 0.0 .
978(31) 0.0 0.0 .
1084(33) 0.0 0.0 .
1130(34) 0.0 0.0 .
1196(35) 0.0 0.0 .
1328(36) 0.0 0. .
1374(37) 0.0 0. .
1494(39) 0.0 0. .
1580(40) 0.0 0. .
1756(42) 0.0 0. .
1884(43) 0.0 0. .
2176(47) 0.0 0. .
2401(49) 0.0 0. .
2676(52) 0.0 0. .
3023(55) 0.0 0. .
3428(59) 0.0 0. .
3940(63) 0.0 0. .
4472(67) 0.0 0. .
5263(73) 0.0 0. .
6287(79) 0.0 0. .
7701(88) 0.0 0. .
9337(97) 0.0 0. .
11750(110) 0.0 0. .
14550(120) 0.0 0. .
19170(140) 0.0 0. .
25080(160) 0.0 0. .
33350(180) 0.0 0. .
44580(210) 0.0 0. .
58420(240) 0.0 0. .
72580(270) 0.0 0. .
81890(290) 0.0 0. .
83230(290) 0.0 0. .
76540(280) 0.0 0. .
63320(250) 0.0 0. .
48680(220) 0.0 0. .
36610(190) 0.0 0. .
27190(170) 0.0 0. .
20470(140) 0.0 0. .
16040(130) 0.0 0. .
12410(110) 0.0 0. .
9950(100) 0.0 0. .
8201(91) 0.0 0. .
6696(82) 0.0 0. .
5479(74) 0.0 0. .
4737(69) 0.0 0. .
4083(64) 0.0 0. .
3559(60) 0.0 0. .
3166(56) 0.0 0. .
2801(53) 0.0 0. .
2469(50) 0.0 0. .
2299(48) 0.0 0. .
2066(45) 0.0 0. .
1910(44) 0.0 0. .
1719(41) 0.0 0. .
1575(40) 0.0 0. .
1455(38) 0.0 0. .
1332(36) 0.0 0. .
1283(36) 0.0 0. .
1169(34) 0.0 0.0 .
1121(33) 0.0 0.0 .
1043(32) 0.0 0.0 .
1043(32) 0.0 0.0 .
995(32) 0.0 0.0 .
975(31) 0.0 0.0 .
905(30) 0.0 0.0 .
885(30) 0.0 0.0 .
916(30) 0.0 0.0 .
894(30) 0.0 0.0 .
832(29) 0.0 0.0 .
836(29) 0.0 0.0 .
788(28) 0.0 0.0 .
763(28) 0.0 0.0 .
730(27) 0.0 0.0 .
718(27) 0.0 0.0 .
721(27) 0.0 0.0 .
681(26) 0.001468 337.7 81.5
642(25) 0.001558 337.6 80.8
645(25) 0.001550 337.6 80.0
648(25) 0.001543 337.5 79.0
600(24) 0.001667 337.5 77.9
611(25) 0.001637 337.4 76.6
623(25) 0.001605 337.3 75.2
656(26) 0.001524 337.3 73.7
600(24) 0.001667 337.2 72.2
588(24) 0.001701 337.2 70.7
612(25) 0.001634 337.1 69.2
583(24) 0.001715 337.1 67.8
580(24) 0.001724 337.0 66.3
556(24) 0.001799 337.0 64.9
570(24) 0.001754 336.9 63.6
557(24) 0.001795 336.9 62.4
560(24) 0.001786 336.8 61.1
541(23) 0.001848 336.8 60.0
518(23) 0.001931 336.7 58.9
552(23) 0.001812 336.6 57.9
515(23) 0.001942 336.6 56.9
511(23) 0.001957 336.5 56.0
552(23) 0.001812 336.5 55.2
502(22) 0.001992 336.4 54.4
464(22) 0.002155 336.4 53.6
503(22) 0.001988 336.3 52.9
522(23) 0.001916 336.3 52.3
512(23) 0.001953 336.2 51.7
490(22) 0.002041 336.2 51.2
481(22) 0.002079 336.1 50.7
493(22) 0.002028 336.1 50.2
529(23) 0.001890 336.0 49.8
489(22) 0.002045 335.9 49.4
489(22) 0.002045 335.9 49.1
466(22) 0.002146 335.8 48.8
499(22) 0.002004 335.8 48.6
465(22) 0.002151 335.7 48.4
447(21) 0.002237 335.7 48.2
465(22) 0.002151 335.6 48.0
469(22) 0.002132 335.6 47.9
428(21) 0.002336 335.5 47.8
443(21) 0.002257 335.5 47.8
442(21) 0.002262 335.4 47.7
461(21) 0.002169 335.4 47.7
475(22) 0.002105 335.3 47.6
435(21) 0.002299 335.2 47.6
441(21) 0.002268 335.2 47.5
435(21) 0.002299 335.1 47.5
439(21) 0.002278 335.1 47.4
467(22) 0.002141 335.0 47.2
448(21) 0.002232 335.0 47.1
425(21) 0.002353 334.9 46.9
480(22) 0.002083 334.9 46.6
452(21) 0.002212 334.8 46.3
436(21) 0.002294 334.8 46.0
433(21) 0.002309 334.7 45.7
433(21) 0.002309 334.7 45.3
466(22) 0.002146 334.6 45.0
442(21) 0.002262 334.5 44.6
428(21) 0.002336 334.5 44.2
419(20) 0.002387 334.4 43.9
439(21) 0.002278 334.4 43.6
455(21) 0.002198 334.3 43.4
422(21) 0.002370 334.3 43.2
418(20) 0.002392 334.2 43.2
419(20) 0.002387 334.2 43.2
394(20) 0.002538 334.1 43.4
445(21) 0.002247 334.1 43.7
427(21) 0.002342 334.0 44.3
412(20) 0.002427 334.0 45.1
424(21) 0.002358 333.9 46.1
422(21) 0.002370 333.8 47.5
414(20) 0.002415 333.8 49.3
397(20) 0.002519 333.7 51.5
457(21) 0.002188 333.7 54.2
432(21) 0.002315 333.6 57.5
485(22) 0.002062 333.6 61.4
464(22) 0.002155 333.5 65.9
453(21) 0.002208 333.5 71.1
477(22) 0.002096 333.4 76.9
477(22) 0.002096 333.4 83.3
478(22) 0.002092 333.3 90.2
482(22) 0.002075 333.3 97.5
482(22) 0.002075 333.2 105.0
518(23) 0.001931 333.1 112.3
505(22) 0.001980 333.1 119.1
496(22) 0.002016 333.0 124.8
468(22) 0.002137 333.0 129.0
491(22) 0.002037 332.9 131.2
468(22) 0.002137 332.9 131.0
482(22) 0.002075 332.8 128.6
509(23) 0.001965 332.8 124.2
462(21) 0.002164 332.7 118.3
450(21) 0.002222 332.7 111.2
443(21) 0.002257 332.6 103.6
441(21) 0.002268 332.6 95.9
420(20) 0.002381 332.5 88.3
400(20) 0.002500 332.4 81.0
435(21) 0.002299 332.4 74.3
453(21) 0.002208 332.3 68.1
432(21) 0.002315 332.3 62.6
397(20) 0.002519 332.2 57.7
387(20) 0.002584 332.2 53.5
401(20) 0.002494 332.1 49.9
424(21) 0.002358 332.1 46.9
416(20) 0.002404 332.0 44.4
407(20) 0.002457 332.0 42.4
394(20) 0.002538 331.9 40.8
422(21) 0.002370 331.9 39.7
396(20) 0.002525 331.8 38.9
376(19) 0.002660 331.7 38.6
392(20) 0.002551 331.7 38.5
428(21) 0.002336 331.6 38.8
416(20) 0.002404 331.6 39.4
418(20) 0.002392 331.5 40.3
425(21) 0.002353 331.5 41.4
415(20) 0.002410 331.4 42.8
406(20) 0.002463 331.4 44.5
434(21) 0.002304 331.3 46.3
398(20) 0.002513 331.3 48.2
405(20) 0.002469 331.2 50.1
378(19) 0.002646 331.2 51.9
427(21) 0.002342 331.1 53.4
409(20) 0.002445 331.0 54.5
397(20) 0.002519 331.0 55.1
414(20) 0.002415 330.9 55.1
419(20) 0.002387 330.9 54.5
374(19) 0.002674 330.8 53.3
401(20) 0.002494 330.8 51.7
409(20) 0.002445 330.7 49.7
387(20) 0.002584 330.7 47.6
396(20) 0.002525 330.6 45.5
365(19) 0.002740 330.6 43.3
413(20) 0.002421 330.5 41.2
386(20) 0.002591 330.5 39.2
362(19) 0.002762 330.4 37.3
390(20) 0.002564 330.3 35.6
379(19) 0.002639 330.3 34.0
382(20) 0.002618 330.2 32.5
367(19) 0.002725 330.2 31.2
348(19) 0.002874 330.1 30.1
378(19) 0.002646 330.1 29.1
368(19) 0.002717 330.0 28.1
358(19) 0.002793 330.0 27.3
335(18) 0.002985 329.9 26.6
362(19) 0.002762 329.9 26.0
369(19) 0.002710 329.8 25.4
346(19) 0.002890 329.8 24.9
373(19) 0.002681 329.7 24.4
357(19) 0.002801 329.6 24.0
357(19) 0.002801 329.6 23.6
358(19) 0.002793 329.5 23.3
375(19) 0.002667 329.5 22.9
371(19) 0.002695 329.4 22.6
358(19) 0.002793 329.4 22.4
353(19) 0.002833 329.3 22.1
353(19) 0.002833 329.3 21.9
339(18) 0.002950 329.2 21.6
377(19) 0.002653 329.2 21.4
377(19) 0.002653 329.1 21.2
382(20) 0.002618 329.1 21.0
385(20) 0.002597 329.0 20.8
347(19) 0.002882 328.9 20.6
370(19) 0.002703 328.9 20.5
348(19) 0.002874 328.8 20.3
349(19) 0.002865 328.8 20.1
364(19) 0.002747 328.7 20.0
362(19) 0.002762 328.7 19.8
349(19) 0.002865 328.6 19.6
359(19) 0.002786 328.6 19.5
324(18) 0.003086 328.5 19.3
323(18) 0.003096 328.5 19.2
361(19) 0.002770 328.4 19.1
349(19) 0.002865 328.4 19.0
317(18) 0.003155 328.3 18.8
348(19) 0.002874 328.2 18.7
360(19) 0.002778 328.2 18.7
335(18) 0.002985 328.1 18.6
303(17) 0.003300 328.1 18.5
330(18) 0.003030 328.0 18.5
337(18) 0.002967 328.0 18.4
327(18) 0.003058 327.9 18.4
341(18) 0.002933 327.9 18.4
359(19) 0.002786 327.8 18.4
328(18) 0.003049 327.8 18.4
339(18) 0.002950 327.7 18.4
362(19) 0.002762 327.7 18.4
343(19) 0.002915 327.6 18.5
347(19) 0.002882 327.5 18.5
345(19) 0.002899 327.5 18.6
358(19) 0.002793 327.4 18.6
335(18) 0.002985 327.4 18.7
340(18) 0.002941 327.3 18.7
344(19) 0.002907 327.3 18.7
327(18) 0.003058 327.2 18.7
324(18) 0.003086 327.2 18.7
342(18) 0.002924 327.1 18.7
323(18) 0.003096 327.1 18.7
337(18) 0.002967 327.0 18.6
325(18) 0.003077 327.0 18.5
334(18) 0.002994 326.9 18.4
294(17) 0.003401 326.8 18.3
334(18) 0.002994 326.8 18.2
342(18) 0.002924 326.7 18.1
350(19) 0.002857 326.7 18.0
325(18) 0.003077 326.6 17.9
352(19) 0.002841 326.6 17.8
333(18) 0.003003 326.5 17.7
325(18) 0.003077 326.5 17.6
323(18) 0.003096 326.4 17.6
326(18) 0.003067 326.4 17.5
336(18) 0.002976 326.3 17.4
336(18) 0.002976 326.3 17.4
320(18) 0.003125 326.2 17.3
331(18) 0.003021 326.1 17.3
295(17) 0.003390 326.1 17.3
358(19) 0.002793 326.0 17.2
336(18) 0.002976 326.0 17.2
335(18) 0.002985 325.9 17.2
348(19) 0.002874 325.9 17.2
342(18) 0.002924 325.8 17.2
334(18) 0.002994 325.8 17.2
350(19) 0.002857 325.7 17.3
335(18) 0.002985 325.7 17.3
354(19) 0.002825 325.6 17.3
322(18) 0.003106 325.6 17.4
335(18) 0.002985 325.5 17.4
349(19) 0.002865 325.4 17.5
347(19) 0.002882 325.4 17.5
353(19) 0.002833 325.3 17.6
331(18) 0.003021 325.3 17.6
303(17) 0.003300 325.2 17.7
315(18) 0.003175 325.1 17.7
326(18) 0.003067 325.0 17.8
337(18) 0.002967 324.9 17.9
313(18) 0.003195 324.9 18.0
319(18) 0.003135 324.8 18.1
351(19) 0.002849 324.7 18.2
355(19) 0.002817 324.6 18.3
374(19) 0.002674 324.5 18.5
369(19) 0.002710 324.5 18.6
342(18) 0.002924 324.4 18.8
331(18) 0.003021 324.3 18.9
311(18) 0.003215 324.2 19.1
332(18) 0.003012 324.1 19.3
341(18) 0.002933 324.1 19.6
332(18) 0.003012 324.0 19.8
354(19) 0.002825 323.9 20.1
332(18) 0.003012 323.8 20.4
354(19) 0.002825 323.7 20.7
312(18) 0.003205 323.7 21.0
354(19) 0.002825 323.6 21.4
329(18) 0.003039 323.5 21.9
360(19) 0.002778 323.4 22.3
325(18) 0.003077 323.3 22.9
328(18) 0.003049 323.3 23.5
358(19) 0.002793 323.2 24.2
348(19) 0.002874 323.1 25.1
370(19) 0.002703 323.0 26.0
348(19) 0.002874 322.9 27.1
333(18) 0.003003 322.9 28.3
347(19) 0.002882 322.8 29.8
350(19) 0.002857 322.7 31.5
365(19) 0.002740 322.6 33.5
387(20) 0.002584 322.5 35.7
372(19) 0.002688 322.5 38.3
374(19) 0.002674 322.4 41.2
387(20) 0.002584 322.3 44.6
382(20) 0.002618 322.2 48.3
408(20) 0.002451 322.1 52.5
371(19) 0.002695 322.1 57.1
423(21) 0.002364 322.0 62.0
425(21) 0.002353 321.9 67.3
420(20) 0.002381 321.8 73.0
428(21) 0.002336 321.7 78.8
453(21) 0.002208 321.7 84.6
424(21) 0.002358 321.6 90.3
452(21) 0.002212 321.5 95.6
449(21) 0.002227 321.4 100.2
490(22) 0.002041 321.3 103.9
469(22) 0.002132 321.3 106.3
463(22) 0.002160 321.2 107.4
452(21) 0.002212 321.1 107.0
462(21) 0.002164 321.0 105.4
495(22) 0.002020 321.0 102.6
437(21) 0.002288 320.9 99.0
414(20) 0.002415 320.8 94.9
412(20) 0.002427 320.7 90.5
423(21) 0.002364 320.6 86.1
434(21) 0.002304 320.6 81.9
385(20) 0.002597 320.5 77.9
379(19) 0.002639 320.4 74.4
387(20) 0.002584 320.3 71.3
366(19) 0.002732 320.2 68.7
379(19) 0.002639 320.2 66.5
412(20) 0.002427 320.1 64.7
380(19) 0.002632 320.0 63.4
370(19) 0.002703 319.9 62.4
383(20) 0.002611 319.8 61.7
386(20) 0.002591 319.8 61.1
376(19) 0.002660 319.7 60.7
381(20) 0.002625 319.6 60.4
392(20) 0.002551 319.5 60.0
395(20) 0.002532 319.4 59.5
394(20) 0.002538 319.4 58.9
404(20) 0.002475 319.3 58.3
411(20) 0.002433 319.2 57.6
438(21) 0.002283 319.1 56.9
398(20) 0.002513 319.0 56.2
411(20) 0.002433 319.0 55.5
385(20) 0.002597 318.9 54.9
427(21) 0.002342 318.8 54.5
372(19) 0.002688 318.7 54.1
405(20) 0.002469 318.6 54.0
445(21) 0.002247 318.6 54.0
395(20) 0.002532 318.5 54.1
404(20) 0.002475 318.4 54.5
416(20) 0.002404 318.3 55.0
386(20) 0.002591 318.2 55.7
418(20) 0.002392 318.2 56.6
409(20) 0.002445 318.1 57.7
425(21) 0.002353 318.0 58.9
433(21) 0.002309 317.9 60.3
399(20) 0.002506 317.8 61.9
427(21) 0.002342 317.8 63.6
435(21) 0.002299 317.7 65.5
415(20) 0.002410 317.6 67.4
431(21) 0.002320 317.5 69.4
435(21) 0.002299 317.4 71.5
445(21) 0.002247 317.4 73.6
434(21) 0.002304 317.3 75.7
464(22) 0.002155 317.2 77.8
465(22) 0.002151 317.1 79.7
470(22) 0.002128 317.0 81.6
486(22) 0.002058 317.0 83.2
459(21) 0.002179 316.9 84.7
478(22) 0.002092 316.8 86.0
472(22) 0.002119 316.7 87.0
465(22) 0.002151 316.7 87.8
470(22) 0.002128 316.6 88.4
467(22) 0.002141 316.5 88.7
476(22) 0.002101 316.4 89.0
457(21) 0.002188 316.3 89.1
454(21) 0.002203 316.3 89.2
451(21) 0.002217 316.2 89.3
467(22) 0.002141 316.1 89.3
451(21) 0.002217 316.0 89.4
464(22) 0.002155 315.9 89.6
468(22) 0.002137 315.9 89.8
442(21) 0.002262 315.8 90.2
480(22) 0.002083 315.7 90.6
427(21) 0.002342 315.6 91.2
460(21) 0.002174 315.5 91.8
474(22) 0.002110 315.5 92.6
460(21) 0.002174 315.4 93.4
474(22) 0.002110 315.3 94.3
464(22) 0.002155 315.2 95.3
501(22) 0.001996 315.1 96.2
473(22) 0.002114 315.1 97.2
492(22) 0.002033 315.0 98.1
452(21) 0.002212 314.9 98.9
496(22) 0.0 0.0 .
450(21) 0.0 0.0 .
518(23) 0.0 0.0 .
461(21) 0.0 0.0 .
456(21) 0.0 0.0 .
457(21) 0.0 0.0 .
503(22) 0.0 0.0 .
491(22) 0.0 0.0 .
455(21) 0.0 0.0 .
491(22) 0.0 0.0 .
470(22) 0.0 0.0 .
464(22) 0.0 0.0 .
465(22) 0.0 0.0 .
442(21) 0.0 0.0 .
463(22) 0.0 0.0 .
438(21) 0.0 0.0 .
461(21) 0.0 0.0 .
444(21) 0.0 0.0 .
445(21) 0.0 0.0 .
462(21) 0.0 0.0 .
452(21) 0.0 0.0 .
454(21) 0.0 0.0 .
454(21) 0.0 0.0 .
418(20) 0.0 0.0 .
432(21) 0.0 0.0 .
455(21) 0.0 0.0 .
459(21) 0.0 0.0 .
463(22) 0.0 0.0 .
452(21) 0.0 0.0 .
491(22) 0.0 0.0 .
502(22) 0.0 0.0 .
505(22) 0.0 0.0 .
447(21) 0.0 0.0 .
513(23) 0.0 0.0 .
585(24) 0.0 0.0 .
587(24) 0.0 0.0 .
594(24) 0.0 0.0 .
627(25) 0.0 0.0 .
669(26) 0.0 0.0 .
714(27) 0.0 0.0 .
783(28) 0.0 0.0 .
845(29) 0.0 0.0 .
902(30) 0.0 0.0 .
1032(32) 0.0 0.0 .
1093(33) 0.0 0.0 .
1335(37) 0.0 0. .
1478(38) 0.0 0. .
1792(42) 0.0 0. .
2169(47) 0.0 0. .
2595(51) 0.0 0. .
3430(59) 0.0 0. .
4360(66) 0.0 0. .
5768(76) 0.0 0. .
7085(84) 0.0 0. .
9058(95) 0.0 0. .
10340(100) 0.0 0. .
10620(100) 0.0 0. .
9859(99) 0.0 0. .
8131(90) 0.0 0. .
6514(81) 0.0 0. .
5034(71) 0.0 0. .
3741(61) 0.0 0. .
2938(54) 0.0 0. .
2311(48) 0.0 0. .
1852(43) 0.0 0. .
1562(40) 0.0 0. .
1317(36) 0.0 0. .
1158(34) 0.0 0.0 .
1036(32) 0.0 0.0 .
977(31) 0.0 0.0 .
806(28) 0.0 0.0 .
743(27) 0.0 0.0 .
701(26) 0.0 0.0 .
645(25) 0.0 0.0 .
598(24) 0.0 0.0 .
585(24) 0.0 0.0 .
542(23) 0.0 0.0 .
517(23) 0.0 0.0 .
527(23) 0.0 0.0 .
503(22) 0.0 0.0 .
459(21) 0.0 0.0 .
488(22) 0.0 0.0 .
406(20) 0.0 0.0 .
407(20) 0.0 0.0 .
439(21) 0.0 0.0 .
434(21) 0.0 0.0 .
422(21) 0.002370 308.0 30.7
388(20) 0.002577 307.9 30.9
406(20) 0.002463 307.8 31.1
411(20) 0.002433 307.7 31.4
382(20) 0.002618 307.7 31.6
372(19) 0.002688 307.6 31.9
401(20) 0.002494 307.5 32.2
353(19) 0.002833 307.4 32.6
351(19) 0.002849 307.3 33.0
362(19) 0.002762 307.3 33.4
371(19) 0.002695 307.2 33.9
354(19) 0.002825 307.1 34.4
368(19) 0.002717 307.0 34.9
354(19) 0.002825 306.9 35.5
358(19) 0.002793 306.9 36.0
355(19) 0.002817 306.8 36.6
385(20) 0.002597 306.7 37.3
349(19) 0.002865 306.6 37.9
352(19) 0.002841 306.5 38.4
370(19) 0.002703 306.5 39.0
370(19) 0.002703 306.4 39.5
361(19) 0.002770 306.3 40.0
363(19) 0.002755 306.2 40.4
377(19) 0.002653 306.1 40.8
364(19) 0.002747 306.1 41.1
352(19) 0.002841 306.0 41.3
344(19) 0.002907 305.9 41.4
353(19) 0.002833 305.8 41.5
352(19) 0.002841 305.7 41.5
375(19) 0.002667 305.7 41.5
338(18) 0.002959 305.6 41.4
347(19) 0.002882 305.5 41.4
371(19) 0.002695 305.4 41.2
360(19) 0.002778 305.3 41.1
365(19) 0.002740 305.3 41.0
361(19) 0.002770 305.2 40.8
347(19) 0.002882 305.1 40.7
370(19) 0.002703 305.0 40.6
351(19) 0.002849 304.9 40.5
372(19) 0.002688 304.9 40.4
365(19) 0.002740 304.8 40.3
378(19) 0.002646 304.7 40.3
344(19) 0.002907 304.6 40.4
342(18) 0.002924 304.5 40.4
337(18) 0.002967 304.5 40.6
354(19) 0.002825 304.4 40.7
372(19) 0.002688 304.3 41.0
373(19) 0.002681 304.2 41.3
353(19) 0.002833 304.2 41.6
352(19) 0.002841 304.1 42.1
383(20) 0.002611 304.0 42.6
355(19) 0.002817 303.9 43.2
363(19) 0.002755 303.8 43.8
369(19) 0.002710 303.8 44.6
358(19) 0.002793 303.7 45.4
321(18) 0.003115 303.6 46.3
352(19) 0.002841 303.5 47.3
358(19) 0.002793 303.4 48.4
366(19) 0.002732 303.4 49.7
372(19) 0.002688 303.3 51.0
372(19) 0.002688 303.2 52.4
360(19) 0.002778 303.1 53.8
368(19) 0.002717 303.0 55.4
339(18) 0.002950 303.0 57.1
370(19) 0.002703 302.9 58.9
387(20) 0.002584 302.8 60.7
357(19) 0.002801 302.7 62.6
365(19) 0.002740 302.6 64.6
369(19) 0.002710 302.6 66.7
360(19) 0.002778 302.5 68.8
398(20) 0.002513 302.4 70.9
381(20) 0.002625 302.3 73.1
380(19) 0.002632 302.2 75.2
360(19) 0.002778 302.2 77.3
408(20) 0.002451 302.1 79.4
384(20) 0.002604 302.0 81.5
405(20) 0.002469 301.9 83.4
379(19) 0.002639 301.8 85.2
415(20) 0.002410 301.8 86.9
371(19) 0.002695 301.7 88.4
379(19) 0.002639 301.6 89.8
371(19) 0.002695 301.5 90.9
389(20) 0.002571 301.4 91.7
436(21) 0.002294 301.4 92.3
381(20) 0.002625 301.3 92.6
397(20) 0.002519 301.2 92.7
414(20) 0.002415 301.1 92.5
400(20) 0.002500 301.0 92.0
402(20) 0.002488 301.0 91.3
415(20) 0.002410 300.9 90.4
420(20) 0.002381 300.8 89.2
385(20) 0.002597 300.7 87.9
394(20) 0.002538 300.6 86.4
404(20) 0.002475 300.6 84.8
400(20) 0.002500 300.5 83.1
383(20) 0.002611 300.4 81.3
378(19) 0.002646 300.3 79.5
374(19) 0.002674 300.2 77.6
359(19) 0.002786 300.2 75.7
375(19) 0.002667 300.1 73.9
381(20) 0.002625 300.0 72.1
370(19) 0.002703 299.9 70.4
356(19) 0.002809 299.9 68.7
359(19) 0.002786 299.8 67.1
350(19) 0.002857 299.7 65.5
367(19) 0.002725 299.6 64.1
354(19) 0.002825 299.5 62.8
344(19) 0.002907 299.5 61.6
359(19) 0.002786 299.4 60.4
355(19) 0.002817 299.3 59.4
366(19) 0.002732 299.2 58.6
341(18) 0.002933 299.1 57.8
356(19) 0.002809 299.1 57.2
319(18) 0.003135 299.0 56.6
319(18) 0.003135 298.9 56.2
322(18) 0.003106 298.8 56.0
358(19) 0.002793 298.7 55.8
328(18) 0.003049 298.7 55.7
336(18) 0.002976 298.6 55.8
356(19) 0.002809 298.5 55.9
347(19) 0.002882 298.4 56.2
340(18) 0.002941 298.3 56.5
337(18) 0.002967 298.3 56.9
348(19) 0.002874 298.2 57.4
349(19) 0.002865 298.1 58.0
351(19) 0.002849 298.0 58.7
363(19) 0.002755 297.9 59.4
359(19) 0.002786 297.9 60.1
360(19) 0.002778 297.8 60.9
359(19) 0.002786 297.7 61.8
352(19) 0.002841 297.6 62.6
377(19) 0.002653 297.5 63.4
369(19) 0.002710 297.5 64.2
369(19) 0.002710 297.4 65.1
351(19) 0.002849 297.3 65.8
356(19) 0.002809 297.2 66.5
317(18) 0.003155 297.1 67.2
328(18) 0.003049 297.1 67.8
351(19) 0.002849 297.0 68.3
372(19) 0.002688 296.9 68.7
348(19) 0.002874 296.8 69.0
358(19) 0.002793 296.7 69.2
375(19) 0.002667 296.7 69.3
369(19) 0.002710 296.6 69.2
325(18) 0.003077 296.5 69.1
372(19) 0.002688 296.4 68.8
376(19) 0.002660 296.3 68.4
340(18) 0.002941 296.3 67.9
332(18) 0.003012 296.2 67.4
335(18) 0.002985 296.1 66.7
346(19) 0.002890 296.0 66.0
383(20) 0.002611 296.0 65.2
363(19) 0.002755 295.9 64.4
356(19) 0.002809 295.8 63.6
331(18) 0.003021 295.7 62.7
325(18) 0.003077 295.6 61.9
335(18) 0.002985 295.6 61.1
348(19) 0.002874 295.5 60.3
344(19) 0.002907 295.4 59.5
356(19) 0.002809 295.3 58.9
335(18) 0.002985 295.2 58.3
331(18) 0.003021 295.2 57.9
346(19) 0.002890 295.1 57.6
350(19) 0.002857 295.0 57.5
367(19) 0.002725 294.9 57.5
350(19) 0.002857 294.8 57.8
363(19) 0.002755 294.8 58.4
348(19) 0.002874 294.7 59.2
356(19) 0.002809 294.6 60.4
372(19) 0.002688 294.5 62.0
355(19) 0.002817 294.4 64.0
370(19) 0.002703 294.4 66.5
383(20) 0.002611 294.3 69.5
362(19) 0.002762 294.2 73.1
392(20) 0.002551 294.1 77.3
383(20) 0.002611 294.0 82.2
423(21) 0.002364 294.0 87.7
380(19) 0.002632 293.9 93.8
388(20) 0.002577 293.8 100.7
424(21) 0.002358 293.7 108.1
443(21) 0.002257 293.6 116.1
415(20) 0.002410 293.6 124.6
472(22) 0.002119 293.5 133.3
460(21) 0.002174 293.4 142.1
432(21) 0.002315 293.3 150.8
479(22) 0.002088 293.2 158.9
478(22) 0.002092 293.2 166.2
461(21) 0.002169 293.1 172.2
472(22) 0.002119 293.0 176.7
452(21) 0.002212 292.9 179.4
468(22) 0.002137 292.8 180.2
442(21) 0.002262 292.8 179.1
460(21) 0.002174 292.7 176.1
478(22) 0.002092 292.6 171.4
434(21) 0.002304 292.5 165.1
455(21) 0.002198 292.4 157.7
440(21) 0.002273 292.4 149.4
428(21) 0.002336 292.3 140.4
434(21) 0.002304 292.2 131.2
407(20) 0.002457 292.1 122.0
411(20) 0.002433 292.0 112.9
412(20) 0.002427 292.0 104.2
404(20) 0.002475 291.9 96.0
390(20) 0.002564 291.8 88.3
416(20) 0.002404 291.7 81.2
353(19) 0.002833 291.7 74.8
377(19) 0.002653 291.6 68.9
349(19) 0.002865 291.5 63.6
327(18) 0.003058 291.4 58.9
368(19) 0.002717 291.3 54.7
368(19) 0.002717 291.3 51.0
323(18) 0.003096 291.2 47.7
362(19) 0.002762 291.1 44.7
333(18) 0.003003 291.0 42.1
348(19) 0.002874 290.9 39.8
332(18) 0.003012 290.9 37.8
341(18) 0.002933 290.8 36.0
332(18) 0.003012 290.7 34.4
325(18) 0.003077 290.6 32.9
332(18) 0.003012 290.5 31.6
321(18) 0.003115 290.5 30.4
312(18) 0.003205 290.4 29.3
308(18) 0.003247 290.3 28.3
302(17) 0.003311 290.2 27.4
312(18) 0.003205 290.1 26.5
307(18) 0.003257 290.1 25.7
312(18) 0.003205 290.0 25.0
285(17) 0.00351 289.9 24.3
324(18) 0.003086 289.8 23.7
300(17) 0.003333 289.7 23.1
296(17) 0.003378 289.7 22.5
311(18) 0.003215 289.6 22.0
293(17) 0.003413 289.5 21.5
308(18) 0.003247 289.4 21.1
303(17) 0.003300 289.3 20.6
327(18) 0.003058 289.3 20.2
289(17) 0.003460 289.2 19.9
284(17) 0.00352 289.1 19.5
341(18) 0.002933 289.0 19.2
311(18) 0.003215 288.9 18.9
306(17) 0.003268 288.9 18.6
308(18) 0.003247 288.8 18.3
310(18) 0.003226 288.7 18.1
288(17) 0.003472 288.6 17.9
297(17) 0.003367 288.5 17.6
297(17) 0.003367 288.5 17.4
291(17) 0.003436 288.4 17.2
308(18) 0.003247 288.3 17.0
305(17) 0.003279 288.2 16.9
301(17) 0.003322 288.1 16.7
305(17) 0.003279 288.1 16.5
292(17) 0.003425 288.0 16.4
261(16) 0.00383 287.9 16.3
316(18) 0.003165 287.8 16.1
278(17) 0.00360 287.7 16.0
288(17) 0.003472 287.7 15.9
278(17) 0.00360 287.6 15.8
292(17) 0.003425 287.5 15.7
297(17) 0.003367 287.4 15.6
278(17) 0.00360 287.4 15.6
306(17) 0.003268 287.3 15.5
309(18) 0.003236 287.2 15.4
300(17) 0.003333 287.1 15.4
292(17) 0.003425 287.0 15.3
290(17) 0.003448 287.0 15.3
295(17) 0.003390 286.9 15.3
287(17) 0.003484 286.8 15.3
296(17) 0.003378 286.7 15.3
264(16) 0.00379 286.6 15.3
295(17) 0.003390 286.6 15.3
272(16) 0.00368 286.5 15.3
270(16) 0.00370 286.4 15.3
309(18) 0.003236 286.3 15.3
304(17) 0.003289 286.2 15.4
306(17) 0.003268 286.2 15.4
297(17) 0.003367 286.1 15.5
275(17) 0.00364 286.0 15.5
289(17) 0.003460 285.9 15.6
265(16) 0.00377 285.8 15.7
299(17) 0.003344 285.8 15.8
302(17) 0.003311 285.7 15.8
290(17) 0.003448 285.6 15.9
288(17) 0.003472 285.6 16.0
289(17) 0.003460 285.6 16.2
277(17) 0.00361 285.6 16.3
279(17) 0.00358 285.6 16.4
290(17) 0.003448 285.7 16.6
274(17) 0.00365 285.7 16.7
294(17) 0.003401 285.7 16.9
307(18) 0.003257 285.7 17.0
287(17) 0.003484 285.7 17.2
338(18) 0.002959 285.8 17.4
298(17) 0.003356 285.8 17.6
304(17) 0.003289 285.8 17.8
302(17) 0.003311 285.8 18.0
303(17) 0.003300 285.8 18.2
311(18) 0.003215 285.9 18.4
307(18) 0.003257 285.9 18.7
256(16) 0.00391 285.9 19.0
278(17) 0.00360 285.9 19.3
295(17) 0.003390 286.0 19.6
290(17) 0.003448 286.0 19.9
289(17) 0.003460 286.0 20.2
308(18) 0.003247 286.0 20.6
309(18) 0.003236 286.0 21.0
292(17) 0.003425 286.1 21.5
286(17) 0.003497 286.1 22.0
288(17) 0.003472 286.1 22.5
299(17) 0.003344 286.1 23.1
308(18) 0.003247 286.2 23.7
311(18) 0.003215 286.2 24.4
321(18) 0.003115 286.2 25.2
320(18) 0.003125 286.2 26.1
279(17) 0.00358 286.2 27.0
323(18) 0.003096 286.3 28.1
285(17) 0.00351 286.3 29.3
293(17) 0.003413 286.3 30.6
316(18) 0.003165 286.3 31.9
310(18) 0.003226 286.3 33.5
290(17) 0.003448 286.4 35.1
289(17) 0.003460 286.4 36.9
319(18) 0.003135 286.4 38.8
322(18) 0.003106 286.4 40.8
301(17) 0.003322 286.5 43.0
322(18) 0.003106 286.5 45.3
322(18) 0.003106 286.5 47.6
296(17) 0.003378 286.5 50.0
294(17) 0.003401 286.5 52.4
319(18) 0.003135 286.6 54.8
319(18) 0.003135 286.6 57.2
304(17) 0.003289 286.6 59.4
320(18) 0.003125 286.6 61.4
308(18) 0.003247 286.6 63.2
344(19) 0.002907 286.7 64.6
332(18) 0.003012 286.7 65.6
339(18) 0.002950 286.7 66.2
312(18) 0.003205 286.7 66.3
339(18) 0.002950 286.8 66.0
306(17) 0.003268 286.8 65.3
323(18) 0.003096 286.8 64.2
301(17) 0.003322 286.8 62.8
298(17) 0.003356 286.8 61.3
332(18) 0.003012 286.9 59.5
304(17) 0.003289 286.9 57.8
312(18) 0.003205 286.9 55.9
294(17) 0.003401 286.9 54.2
328(18) 0.003049 286.9 52.4
330(18) 0.003030 287.0 50.8
317(18) 0.003155 287.0 49.3
308(18) 0.003247 287.0 47.9
312(18) 0.003205 287.0 46.6
293(17) 0.003413 287.1 45.5
323(18) 0.003096 287.1 44.5
316(18) 0.003165 287.1 43.6
335(18) 0.002985 287.1 42.9
326(18) 0.003067 287.1 42.3
301(17) 0.003322 287.2 41.8
322(18) 0.003106 287.2 41.5
339(18) 0.002950 287.2 41.3
322(18) 0.003106 287.2 41.1
318(18) 0.003145 287.2 41.1
317(18) 0.003155 287.3 41.2
307(18) 0.003257 287.3 41.3
293(17) 0.003413 287.3 41.5
315(18) 0.003175 287.3 41.8
313(18) 0.003195 287.4 42.2
315(18) 0.003175 287.4 42.6
331(18) 0.003021 287.4 43.0
309(18) 0.003236 287.4 43.5
315(18) 0.003175 287.4 44.0
298(17) 0.003356 287.5 44.5
329(18) 0.003039 287.5 45.1
311(18) 0.003215 287.5 45.7
317(18) 0.003155 287.5 46.4
326(18) 0.003067 287.5 47.0
333(18) 0.003003 287.6 47.7
311(18) 0.003215 287.6 48.4
316(18) 0.003165 287.6 49.1
324(18) 0.003086 287.6 49.8
315(18) 0.003175 287.7 50.6
319(18) 0.003135 287.7 51.3
306(17) 0.003268 287.7 52.1
295(17) 0.003390 287.7 53.0
330(18) 0.003030 287.7 53.8
307(18) 0.003257 287.8 54.7
287(17) 0.003484 287.8 55.6
310(18) 0.003226 287.8 56.5
321(18) 0.003115 287.8 57.4
296(17) 0.003378 287.8 58.4
334(18) 0.002994 287.9 59.4
337(18) 0.002967 287.9 60.4
321(18) 0.003115 287.9 61.4
294(17) 0.003401 287.9 62.4
319(18) 0.003135 288.0 63.4
319(18) 0.003135 288.0 64.5
349(19) 0.002865 288.0 65.5
355(19) 0.002817 288.0 66.5
319(18) 0.003135 288.0 67.5
364(19) 0.002747 288.1 68.5
363(19) 0.002755 288.1 69.5
338(18) 0.002959 288.1 70.4
328(18) 0.003049 288.1 71.3
331(18) 0.003021 288.1 72.1
338(18) 0.002959 288.2 72.9
349(19) 0.002865 288.2 73.6
343(19) 0.002915 288.2 74.2
347(19) 0.002882 288.2 74.8
342(18) 0.002924 288.3 75.2
345(19) 0.002899 288.3 75.5
339(18) 0.002950 288.3 75.8
357(19) 0.002801 288.3 75.9
361(19) 0.002770 288.3 75.9
340(18) 0.002941 288.4 75.8
363(19) 0.002755 288.4 75.6
325(18) 0.003077 288.4 75.2
336(18) 0.002976 288.4 74.8
323(18) 0.003096 288.4 74.2
340(18) 0.002941 288.5 73.5
344(19) 0.002907 288.5 72.7
371(19) 0.002695 288.5 71.8
358(19) 0.002793 288.5 70.9
324(18) 0.003086 288.6 69.8
332(18) 0.003012 288.6 68.7
333(18) 0.003003 288.6 67.5
345(19) 0.002899 288.6 66.3
305(17) 0.003279 288.6 65.0
340(18) 0.002941 288.7 63.7
332(18) 0.003012 288.7 62.4
339(18) 0.002950 288.7 61.0
354(19) 0.002825 288.7 59.7
344(19) 0.002907 288.7 58.3
312(18) 0.003205 288.8 56.9
307(18) 0.003257 288.8 55.6
312(18) 0.003205 288.8 54.2
315(18) 0.003175 288.8 52.9
304(17) 0.003289 288.9 51.6
307(18) 0.003257 288.9 50.3
285(17) 0.00351 288.9 49.0
298(17) 0.003356 288.9 47.8
325(18) 0.003077 288.9 46.6
324(18) 0.003086 289.0 45.5
314(18) 0.003185 289.0 44.4
315(18) 0.003175 289.0 43.3
323(18) 0.003096 289.0 42.3
270(16) 0.00370 289.0 41.3
300(17) 0.003333 289.1 40.3
293(17) 0.003413 289.1 39.4
317(18) 0.003155 289.1 38.6
324(18) 0.003086 289.1 37.8
276(17) 0.00362 289.2 37.0
320(18) 0.003125 289.2 36.3
297(17) 0.003367 289.2 35.7
288(17) 0.003472 289.2 35.0
299(17) 0.003344 289.2 34.5
309(18) 0.003236 289.3 34.0
318(18) 0.003145 289.3 33.5
318(18) 0.003145 289.3 33.0
299(17) 0.003344 289.3 32.6
298(17) 0.003356 289.4 32.3
290(17) 0.003448 289.4 32.0
309(18) 0.003236 289.4 31.7
314(18) 0.003185 289.4 31.5
278(17) 0.00360 289.4 31.3
279(17) 0.00358 289.5 31.1
335(18) 0.002985 289.5 31.0
296(17) 0.003378 289.5 31.0
296(17) 0.003378 289.5 30.9
271(16) 0.00369 289.5 30.9
319(18) 0.003135 289.6 30.9
327(18) 0.003058 289.6 30.9
287(17) 0.003484 289.6 30.9
295(17) 0.003390 289.6 31.0
318(18) 0.003145 289.7 31.1
336(18) 0.002976 289.7 31.2
302(17) 0.003311 289.7 31.4
296(17) 0.003378 289.7 31.5
330(18) 0.003030 289.7 31.7
292(17) 0.003425 289.8 31.9
317(18) 0.003155 289.8 32.1
296(17) 0.003378 289.8 32.3
326(18) 0.003067 289.8 32.5
294(17) 0.003401 289.8 32.7
310(18) 0.003226 289.9 32.9
275(17) 0.00364 289.9 33.1
299(17) 0.003344 289.9 33.3
298(17) 0.003356 289.9 33.5
291(17) 0.003436 290.0 33.7
322(18) 0.003106 290.0 33.9
318(18) 0.003145 290.0 34.1
320(18) 0.003125 290.0 34.2
302(17) 0.003311 290.0 34.4
307(18) 0.003257 290.1 34.5
301(17) 0.003322 290.1 34.6
286(17) 0.003497 290.1 34.7
321(18) 0.003115 290.1 34.8
313(18) 0.003195 290.1 34.8
294(17) 0.003401 290.2 34.9
310(18) 0.003226 290.2 34.9
301(17) 0.003322 290.2 34.9
304(17) 0.003289 290.2 34.8
301(17) 0.003322 290.3 34.7
344(19) 0.002907 290.3 34.7
292(17) 0.003425 290.3 34.5
317(18) 0.003155 290.3 34.4
297(17) 0.003367 290.3 34.3
306(17) 0.003268 290.4 34.1
311(18) 0.003215 290.4 33.9
308(18) 0.003247 290.4 33.7
274(17) 0.00365 290.4 33.5
299(17) 0.003344 290.4 33.2
296(17) 0.003378 290.5 33.0
289(17) 0.003460 290.5 32.7
292(17) 0.003425 290.5 32.5
288(17) 0.003472 290.5 32.2
308(18) 0.003247 290.6 31.9
306(17) 0.003268 290.6 31.6
297(17) 0.003367 290.6 31.4
285(17) 0.00351 290.6 31.1
270(16) 0.00370 290.6 30.8
296(17) 0.003378 290.7 30.5
280(17) 0.00357 290.7 30.3
308(18) 0.003247 290.7 30.0
305(17) 0.003279 290.7 29.7
302(17) 0.003311 290.7 29.5
299(17) 0.003344 290.8 29.3
285(17) 0.00351 290.8 29.0
328(18) 0.003049 290.8 28.8
296(17) 0.003378 290.8 28.6
282(17) 0.00355 290.9 28.4
309(18) 0.003236 290.9 28.2
304(17) 0.003289 290.9 28.1
282(17) 0.00355 290.9 27.9
304(17) 0.003289 290.9 27.8
309(18) 0.003236 291.0 27.7
280(17) 0.00357 291.0 27.6
287(17) 0.003484 291.0 27.5
322(18) 0.003106 291.0 27.4
283(17) 0.00353 291.0 27.4
284(17) 0.00352 291.1 27.4
282(17) 0.00355 291.1 27.4
286(17) 0.003497 291.1 27.4
304(17) 0.003289 291.1 27.5
303(17) 0.003300 291.2 27.6
302(17) 0.003311 291.2 27.7
284(17) 0.00352 291.2 27.8
272(16) 0.00368 291.2 27.9
296(17) 0.003378 291.2 28.1
277(17) 0.00361 291.4 28.3
305(17) 0.003279 291.5 28.5
287(17) 0.003484 291.7 28.7
281(17) 0.00356 291.8 29.0
287(17) 0.003484 291.9 29.2
300(17) 0.003333 292.1 29.5
292(17) 0.003425 292.2 29.8
299(17) 0.003344 292.4 30.1
327(18) 0.003058 292.5 30.4
287(17) 0.003484 292.6 30.7
306(17) 0.003268 292.8 31.0
316(18) 0.003165 292.9 31.3
315(18) 0.003175 293.1 31.7
317(18) 0.003155 293.2 32.0
314(18) 0.003185 293.3 32.4
295(17) 0.003390 293.5 32.8
273(17) 0.00366 293.6 33.2
297(17) 0.003367 293.8 33.7
309(18) 0.003236 293.9 34.1
306(17) 0.003268 294.0 34.6
300(17) 0.003333 294.2 35.1
312(18) 0.003205 294.3 35.6
290(17) 0.003448 294.5 36.1
299(17) 0.003344 294.6 36.7
320(18) 0.003125 294.7 37.2
310(18) 0.003226 294.9 37.8
315(18) 0.003175 295.0 38.4
300(17) 0.003333 295.2 39.0
308(18) 0.003247 295.3 39.6
309(18) 0.003236 295.4 40.1
315(18) 0.003175 295.6 40.7
308(18) 0.003247 295.7 41.3
346(19) 0.002890 295.9 41.9
317(18) 0.003155 296.0 42.4
291(17) 0.003436 296.1 42.9
315(18) 0.003175 296.3 43.4
315(18) 0.003175 296.4 43.9
321(18) 0.003115 296.6 44.3
312(18) 0.003205 296.7 44.7
306(17) 0.003268 296.8 45.1
306(17) 0.003268 297.0 45.5
334(18) 0.002994 297.1 45.9
305(17) 0.003279 297.2 46.2
304(17) 0.003289 297.4 46.6
330(18) 0.003030 297.5 47.0
315(18) 0.003175 297.7 47.5
319(18) 0.003135 297.8 48.0
312(18) 0.003205 297.9 48.6
308(18) 0.003247 298.1 49.4
320(18) 0.003125 298.2 50.3
345(19) 0.002899 298.4 51.4
341(18) 0.002933 298.5 52.7
342(18) 0.002924 298.6 54.2
313(18) 0.003195 298.8 56.0
341(18) 0.002933 298.9 58.2
324(18) 0.003086 299.1 60.6
335(18) 0.002985 299.2 63.4
358(19) 0.002793 299.3 66.4
341(18) 0.002933 299.5 69.7
345(19) 0.002899 299.6 73.2
369(19) 0.002710 299.8 76.7
368(19) 0.002717 299.9 80.1
361(19) 0.002770 300.0 83.1
352(19) 0.002841 300.2 85.5
364(19) 0.002747 300.3 87.0
361(19) 0.002770 300.5 87.3
384(20) 0.002604 300.6 86.4
380(19) 0.002632 300.7 84.3
358(19) 0.002793 300.9 81.3
354(19) 0.002825 301.0 77.5
328(18) 0.003049 301.2 73.3
360(19) 0.002778 301.3 69.0
327(18) 0.003058 301.4 64.7
312(18) 0.003205 301.6 60.6
291(17) 0.003436 301.7 56.8
330(18) 0.003030 301.9 53.3
319(18) 0.003135 302.0 50.1
336(18) 0.002976 302.1 47.2
339(18) 0.002950 302.3 44.6
330(18) 0.003030 302.4 42.4
335(18) 0.002985 302.6 40.4
307(18) 0.003257 302.7 38.7
326(18) 0.003067 302.8 37.3
300(17) 0.003333 303.0 36.0
309(18) 0.003236 303.1 34.8
289(17) 0.003460 303.3 33.8
317(18) 0.003155 303.4 32.9
328(18) 0.003049 303.5 32.1
314(18) 0.003185 303.7 31.4
338(18) 0.002959 303.8 30.8
317(18) 0.003155 304.0 30.2
296(17) 0.003378 304.1 29.7
304(17) 0.003289 304.2 29.2
329(18) 0.003039 304.4 28.8
352(19) 0.002841 304.5 28.4
275(17) 0.00364 304.7 28.1
299(17) 0.003344 304.8 27.8
299(17) 0.003344 304.9 27.6
295(17) 0.003390 305.1 27.5
300(17) 0.003333 305.2 27.4
335(18) 0.002985 305.4 27.3
308(18) 0.003247 305.4 27.3
308(18) 0.003247 305.3 27.4
297(17) 0.003367 305.1 27.6
323(18) 0.003096 304.9 27.8
326(18) 0.003067 304.8 28.1
296(17) 0.003378 304.6 28.5
331(18) 0.003021 304.4 28.9
299(17) 0.003344 304.3 29.4
341(18) 0.002933 304.1 30.0
329(18) 0.003039 303.9 30.6
306(17) 0.003268 303.8 31.4
302(17) 0.003311 303.6 32.1
322(18) 0.003106 303.4 32.9
288(17) 0.003472 303.3 33.7
333(18) 0.003003 303.1 34.6
339(18) 0.002950 302.9 35.4
332(18) 0.003012 302.8 36.2
345(19) 0.002899 302.6 36.9
300(17) 0.003333 302.4 37.6
328(18) 0.003049 302.3 38.2
317(18) 0.003155 302.1 38.7
325(18) 0.003077 301.9 39.0
301(17) 0.003322 301.8 39.2
329(18) 0.003039 301.6 39.4
321(18) 0.003115 301.4 39.4
324(18) 0.003086 301.3 39.5
308(18) 0.003247 301.1 39.5
325(18) 0.003077 301.0 39.6
322(18) 0.003106 300.8 39.8
349(19) 0.002865 300.6 40.2
318(18) 0.003145 300.5 41.0
349(19) 0.002865 300.3 42.1
316(18) 0.003165 300.1 43.8
343(19) 0.002915 300.0 46.0
347(19) 0.002882 299.8 49.1
352(19) 0.002841 299.6 52.9
354(19) 0.002825 299.5 57.5
330(18) 0.003030 299.3 62.8
374(19) 0.002674 299.1 68.7
389(20) 0.002571 299.0 74.6
366(19) 0.002732 298.8 79.9
369(19) 0.002710 298.6 83.4
341(18) 0.002933 298.5 84.4
333(18) 0.003003 298.3 82.4
327(18) 0.003058 298.1 77.8
343(19) 0.002915 298.0 71.6
369(19) 0.002710 297.8 64.7
352(19) 0.002841 297.6 57.8
304(17) 0.003289 297.5 51.5
299(17) 0.003344 297.3 45.9
317(18) 0.003155 297.1 41.1
341(18) 0.002933 297.0 37.1
309(18) 0.003236 296.8 33.8
307(18) 0.003257 296.6 31.2
303(17) 0.003300 296.5 29.2
323(18) 0.003096 296.3 27.6
313(18) 0.003195 296.2 26.3
319(18) 0.003135 296.0 25.3
303(17) 0.003300 295.8 24.6
316(18) 0.003165 295.7 24.0
318(18) 0.003145 295.5 23.6
340(18) 0.002941 295.3 23.4
315(18) 0.003175 295.2 23.3
288(17) 0.003472 295.0 23.3
291(17) 0.003436 294.8 23.5
304(17) 0.003289 294.7 23.8
301(17) 0.003322 294.5 24.2
283(17) 0.00353 294.3 24.8
315(18) 0.003175 294.2 25.5
285(17) 0.00351 294.0 26.3
281(17) 0.00356 293.8 27.2
302(17) 0.003311 293.7 28.2
308(18) 0.003247 293.5 29.2
301(17) 0.003322 293.3 30.1
313(18) 0.003195 293.2 31.0
277(17) 0.00361 293.0 31.8
298(17) 0.003356 292.8 32.3
327(18) . . .
300(17) . . .
307(18) . . .
305(17) . . .
259(16) . . .
292(17) . . .
293(17) . . .
307(18) . . .
277(17) . . .
302(17) . . .
304(17) . . .
300(17) . . .
297(17) . . .
310(18) . . .
303(17) . . .
334(18) . . .
311(18) . . .
287(17) . . .
280(17) . . .
327(18) . . .
305(17) . . .
283(17) . . .
322(18) . . .
332(18) . . .
318(18) . . .
320(18) . . .
642(25) . . .
413(20) . . .
363(19) . . .
418(20) . . .
1293(36) . . .
337(18) . . .
540(23) . . .
335(18) . . .
308(18) . . .
312(18) . . .
304(17) . . .
312(18) . . .
308(18) . . .
301(17) . . .
299(17) . . .
307(18) . . .
292(17) . . .
305(17) . . .
287(17) . . .
298(17) . . .
273(17) . . .
269(16) . . .
296(17) . . .
288(17) . . .
282(17) . . .
298(17) . . .
302(17) . . .
299(17) . . .
281(17) . . .
273(17) . . .
310(18) . . .
281(17) . . .
291(17) . . .
295(17) . . .
293(17) . . .
285(17) . . .
280(17) . . .
303(17) . . .
314(18) . . .
332(18) . . .
300(17) . . .
314(18) . . .
298(17) . . .
305(17) . . .
292(17) . . .
305(17) . . .
287(17) . . .
293(17) . . .
305(17) . . .
325(18) . . .
282(17) . . .
297(17) . . .
285(17) . . .
287(17) . . .
316(18) . . .
308(18) . . .
288(17) . . .
304(17) . . .
301(17) . . .
308(18) . . .
279(17) . . .
295(17) . . .
303(17) . . .
304(17) . . .
278(17) . . .
307(18) . . .
271(16) . . .
271(16) . . .
270(16) . . .
288(17) . . .
294(17) . . .
306(17) . . .
312(18) . . .
328(18) . . .
269(16) . . .
298(17) . . .
307(18) . . .
286(17) . . .
303(17) . . .
289(17) . . .
320(18) . . .
337(18) . . .
299(17) . . .
279(17) . . .
340(18) . . .
295(17) . . .
300(17) . . .
325(18) . . .
323(18) . . .
333(18) . . .
338(18) . . .
342(18) . . .
306(17) . . .
339(18) . . .
315(18) . . .
342(18) . . .
360(19) . . .
351(19) . . .
355(19) . . .
346(19) . . .
337(18) . . .
352(19) . . .
344(19) . . .
320(18) . . .
329(18) . . .
333(18) . . .
297(17) . . .
301(17) . . .
304(17) . . .
345(19) . . .
346(19) . . .
317(18) . . .
333(18) . . .
324(18) . . .
313(18) . . .
310(18) . . .
324(18) . . .
324(18) . . .
313(18) . . .
343(19) . . .
322(18) . . .
320(18) . . .
318(18) . . .
316(18) . . .
318(18) . . .
351(19) . . .
324(18) . . .
335(18) . . .
315(18) . . .
306(17) . . .
314(18) . . .
322(18) . . .
310(18) . . .
302(17) . . .
319(18) . . .
313(18) . . .
288(17) . . .
311(18) . . .
317(18) . . .
307(18) . . .
299(17) . . .
307(18) . . .
306(17) . . .
323(18) . . .
286(17) . . .
330(18) . . .
257(16) . . .
293(17) . . .
305(17) . . .
308(18) . . .
309(18) . . .
325(18) . . .
303(17) . . .
290(17) . . .
302(17) . . .
280(17) . . .
274(17) . . .
282(17) . . .
274(17) . . .
291(17) . . .
276(17) . . .
272(16) . . .
291(17) . . .
259(16) . . .
254(16) . . .
299(17) . . .
266(16) . . .
276(17) . . .
265(16) . . .
266(16) . . .
293(17) . . .
263(16) . . .
256(16) . . .
269(16) . . .
283(17) . . .
296(17) . . .
288(17) . . .
276(17) . . .
263(16) . . .
285(17) . . .
278(17) . . .
293(17) . . .
290(17) . . .
263(16) . . .
280(17) . . .
278(17) . . .
269(16) . . .
276(17) . . .
276(17) . . .
272(16) . . .
285(17) . . .
275(17) . . .
305(17) . . .
305(17) . . .
269(16) . . .
282(17) . . .
289(17) . . .
319(18) . . .
300(17) . . .
321(18) . . .
262(16) . . .
299(17) . . .
302(17) . . .
304(17) . . .
315(18) . . .
323(18) . . .
287(17) . . .
321(18) . . .
305(17) . . .
334(18) . . .
312(18) . . .
305(17) . . .
321(18) . . .
313(18) . . .
289(17) . . .
321(18) . . .
291(17) . . .
325(18) . . .
306(17) . . .
300(17) . . .
291(17) . . .
272(16) . . .
300(17) . . .
297(17) . . .
256(16) . . .
272(16) . . .
296(17) . . .
296(17) . . .
285(17) . . .
269(16) . . .
333(18) . . .
314(18) . . .
290(17) . . .
299(17) . . .
285(17) . . .
270(16) . . .
295(17) . . .
259(16) . . .
270(16) . . .
290(17) . . .
290(17) . . .
286(17) . . .
284(17) . . .
279(17) . . .
270(16) . . .
286(17) . . .
264(16) . . .
270(16) . . .
292(17) . . .
281(17) . . .
294(17) . . .
262(16) . . .
266(16) . . .
300(17) . . .
277(17) . . .
275(17) . . .
311(18) . . .
278(17) . . .
286(17) . . .
255(16) . . .
286(17) . . .
281(17) . . .
258(16) . . .
272(16) . . .
254(16) . . .
243(16) . . .
266(16) . . .
277(17) . . .
256(16) . . .
273(17) . . .
296(17) . . .
268(16) . . .
274(17) . . .
256(16) . . .
282(17) . . .
259(16) . . .
273(17) . . .
266(16) . . .
239(15) . . .
269(16) . . .
270(16) . . .
258(16) . . .
265(16) . . .
275(17) . . .
277(17) . . .
263(16) . . .
279(17) . . .
277(17) . . .
287(17) . . .
287(17) . . .
255(16) . . .
292(17) . . .
249(16) . . .
277(17) . . .
288(17) . . .
259(16) . . .
289(17) . . .
271(16) . . .
276(17) . . .
255(16) . . .
262(16) . . .
286(17) . . .
283(17) . . .
299(17) . . .
265(16) . . .
262(16) . . .
272(16) . . .
321(18) . . .
272(16) . . .
291(17) . . .
290(17) . . .
258(16) . . .
313(18) . . .
297(17) . . .
312(18) . . .
282(17) . . .
294(17) . . .
313(18) . . .
290(17) . . .
291(17) . . .
319(18) . . .
317(18) . . .
338(18) . . .
313(18) . . .
289(17) . . .
283(17) . . .
296(17) . . .
299(17) . . .
285(17) . . .
271(16) . . .
278(17) . . .
285(17) . . .
264(16) . . .
300(17) . . .
286(17) . . .
318(18) . . .
303(17) . . .
288(17) . . .
304(17) . . .
327(18) . . .
298(17) . . .
288(17) . . .
292(17) . . .
301(17) . . .
288(17) . . .
287(17) . . .
269(16) . . .
263(16) . . .
280(17) . . .
280(17) . . .
260(16) . . .
281(17) . . .
279(17) . . .
257(16) . . .
283(17) . . .
278(17) . . .
269(16) . . .
281(17) . . .
263(16) . . .
294(17) . . .
269(16) . . .
274(17) . . .
289(17) . . .
276(17) . . .
276(17) . . .
262(16) . . .
269(16) . . .
279(17) . . .
271(16) . . .
266(16) . . .
252(16) . . .
261(16) . . .
280(17) . . .
265(16) . . .
302(17) . . .
287(17) . . .
274(17) . . .
258(16) . . .
272(16) . . .
266(16) . . .
284(17) . . .
280(17) . . .
268(16) . . .
276(17) . . .
282(17) . . .
262(16) . . .
298(17) . . .
275(17) . . .
264(16) . . .
296(17) . . .
264(16) . . .
248(16) . . .
263(16) . . .
284(17) . . .
267(16) . . .
286(17) . . .
296(17) . . .
280(17) . . .
287(17) . . .
266(16) . . .
271(16) . . .
269(16) . . .
285(17) . . .
266(16) . . .
243(16) . . .
304(17) . . .
275(17) . . .
284(17) . . .
281(17) . . .
257(16) . . .
258(16) . . .
267(16) . . .
249(16) . . .
259(16) . . .
266(16) . . .
267(16) . . .
283(17) . . .
280(17) . . .
278(17) . . .
270(16) . . .
287(17) . . .
257(16) . . .
263(16) . . .
267(16) . . .
278(17) . . .
264(16) . . .
264(16) . . .
280(17) . . .
270(16) . . .
272(16) . . .
257(16) . . .
254(16) . . .
268(16) . . .
294(17) . . .
290(17) . . .
262(16) . . .
258(16) . . .
265(16) . . .
263(16) . . .
276(17) . . .
252(16) . . .
286(17) . . .
279(17) . . .
267(16) . . .
287(17) . . .
277(17) . . .
280(17) . . .
252(16) . . .
263(16) . . .
279(17) . . .
265(16) . . .
299(17) . . .
264(16) . . .
252(16) . . .
269(16) . . .
263(16) . . .
272(16) . . .
258(16) . . .
277(17) . . .
271(16) . . .
282(17) . . .
263(16) . . .
281(17) . . .
295(17) . . .
254(16) . . .
261(16) . . .
266(16) . . .
294(17) . . .
267(16) . . .
248(16) . . .
270(16) . . .
273(17) . . .
239(15) . . .
284(17) . . .
253(16) . . .
257(16) . . .
254(16) . . .
272(16) . . .
280(17) . . .
292(17) . . .
264(16) . . .
263(16) . . .
287(17) . . .
312(18) . . .
279(17) . . .
289(17) . . .
303(17) . . .
291(17) . . .
295(17) . . .
290(17) . . .
298(17) . . .
296(17) . . .
305(17) . . .
282(17) . . .
286(17) . . .
289(17) . . .
305(17) . . .
276(17) . . .
284(17) . . .
340(18) . . .
327(18) . . .
310(18) . . .
319(18) . . .
333(18) . . .
317(18) . . .
307(18) . . .
286(17) . . .
289(17) . . .
290(17) . . .
357(19) . . .
298(17) . . .
286(17) . . .
299(17) . . .
310(18) . . .
281(17) . . .
278(17) . . .
264(16) . . .
270(16) . . .
301(17) . . .
283(17) . . .
303(17) . . .
284(17) . . .
276(17) . . .
269(16) . . .
282(17) . . .
292(17) . . .
293(17) . . .
273(17) . . .
287(17) . . .
320(18) . . .
302(17) . . .
286(17) . . .
330(18) . . .
314(18) . . .
291(17) . . .
278(17) . . .
259(16) . . .
278(17) . . .
276(17) . . .
301(17) . . .
272(16) . . .
284(17) . . .
315(18) . . .
298(17) . . .
287(17) . . .
289(17) . . .
313(18) . . .
278(17) . . .
282(17) . . .
267(16) . . .
299(17) . . .
291(17) . . .
297(17) . . .
292(17) . . .
278(17) . . .
326(18) . . .
267(16) . . .
290(17) . . .
304(17) . . .
330(18) . . .
308(18) . . .
296(17) . . .
314(18) . . .
308(18) . . .
294(17) . . .
308(18) . . .
298(17) . . .
321(18) . . .
315(18) . . .
318(18) . . .
319(18) . . .
298(17) . . .
326(18) . . .
294(17) . . .
315(18) . . .
308(18) . . .
310(18) . . .
284(17) . . .
275(17) . . .
313(18) . . .
304(17) . . .
262(16) . . .
283(17) . . .
303(17) . . .
269(16) . . .
277(17) . . .
319(18) . . .
285(17) . . .
302(17) . . .
278(17) . . .
310(18) . . .
306(17) . . .
305(17) . . .
319(18) . . .
303(17) . . .
328(18) . . .
308(18) . . .
306(17) . . .
322(18) . . .
304(17) . . .
321(18) . . .
320(18) . . .
331(18) . . .
308(18) . . .
318(18) . . .
330(18) . . .
315(18) . . .
319(18) . . .
328(18) . . .
314(18) . . .
323(18) . . .
328(18) . . .
322(18) . . .
322(18) . . .
318(18) . . .
314(18) . . .
313(18) . . .
303(17) . . .
315(18) . . .
284(17) . . .
278(17) . . .
305(17) . . .
300(17) . . .
272(16) . . .
320(18) . . .
305(17) . . .
280(17) . . .
298(17) . . .
299(17) . . .
313(18) . . .
302(17) . . .
306(17) . . .
298(17) . . .
298(17) . . .
304(17) . . .
281(17) . . .
290(17) . . .
293(17) . . .
288(17) . . .
313(18) . . .
263(16) . . .
315(18) . . .
332(18) . . .
319(18) . . .
315(18) . . .
335(18) . . .
299(17) . . .
284(17) . . .
327(18) . . .
307(18) . . .
324(18) . . .
293(17) . . .
326(18) . . .
318(18) . . .
314(18) . . .
297(17) . . .
320(18) . . .
364(19) . . .
345(19) . . .
327(18) . . .
338(18) . . .
349(19) . . .
370(19) . . .
367(19) . . .
345(19) . . .
388(20) . . .
321(18) . . .
341(18) . . .
354(19) . . .
382(20) . . .
343(19) . . .
306(17) . . .
363(19) . . .
317(18) . . .
326(18) . . .
343(19) . . .
318(18) . . .
287(17) . . .
326(18) . . .
324(18) . . .
351(19) . . .
324(18) . . .
342(18) . . .
329(18) . . .
331(18) . . .
299(17) . . .
297(17) . . .
293(17) . . .
351(19) . . .
306(17) . . .
310(18) . . .
311(18) . . .
312(18) . . .
308(18) . . .
310(18) . . .
322(18) . . .
289(17) . . .
319(18) . . .
313(18) . . .
281(17) . . .
302(17) . . .
308(18) . . .
288(17) . . .
322(18) . . .
297(17) . . .
316(18) . . .
295(17) . . .
302(17) . . .
303(17) . . .
301(17) . . .
294(17) . . .
318(18) . . .
300(17) . . .
308(18) . . .
287(17) . . .
279(17) . . .
295(17) . . .
317(18) . . .
277(17) . . .
309(18) . . .
343(19) . . .
312(18) . . .
302(17) . . .
306(17) . . .
315(18) . . .
339(18) . . .
295(17) . . .
316(18) . . .
290(17) . . .
285(17) . . .
278(17) . . .
315(18) . . .
296(17) . . .
309(18) . . .
281(17) . . .
322(18) . . .
306(17) . . .
294(17) . . .
309(18) . . .
276(17) . . .
285(17) . . .
317(18) . . .
292(17) . . .
295(17) . . .
292(17) . . .
300(17) . . .
292(17) . . .
324(18) . . .
306(17) . . .
278(17) . . .
335(18) . . .
336(18) . . .
291(17) . . .
282(17) . . .
308(18) . . .
312(18) . . .
330(18) . . .
297(17) . . .
293(17) . . .
305(17) . . .
279(17) . . .
279(17) . . .
292(17) . . .
300(17) . . .
300(17) . . .
261(16) . . .
300(17) . . .
315(18) . . .
296(17) . . .
302(17) . . .
275(17) . . .
312(18) . . .
282(17) . . .
290(17) . . .
288(17) . . .
277(17) . . .
316(18) . . .
284(17) . . .
266(16) . . .
300(17) . . .
306(17) . . .
271(16) . . .
288(17) . . .
307(18) . . .
297(17) . . .
312(18) . . .
290(17) . . .
316(18) . . .
287(17) . . .
296(17) . . .
277(17) . . .
327(18) . . .
294(17) . . .
309(18) . . .
279(17) . . .
280(17) . . .
320(18) . . .
313(18) . . .
299(17) . . .
313(18) . . .
342(18) . . .
295(17) . . .
309(18) . . .
301(17) . . .
316(18) . . .
313(18) . . .
300(17) . . .
310(18) . . .
332(18) . . .
328(18) . . .
368(19) . . .
314(18) . . .
314(18) . . .
320(18) . . .
352(19) . . .
320(18) . . .
347(19) . . .
361(19) . . .
330(18) . . .
321(18) . . .
337(18) . . .
323(18) . . .
340(18) . . .
337(18) . . .
367(19) . . .
338(18) . . .
330(18) . . .
345(19) . . .
358(19) . . .
335(18) . . .
328(18) . . .
315(18) . . .
313(18) . . .
354(19) . . .
364(19) . . .
339(18) . . .
333(18) . . .
357(19) . . .
364(19) . . .
347(19) . . .
322(18) . . .
359(19) . . .
331(18) . . .
339(18) . . .
369(19) . . .
359(19) . . .
346(19) . . .
362(19) . . .
347(19) . . .
333(18) . . .
366(19) . . .
352(19) . . .
363(19) . . .
364(19) . . .
373(19) . . .
342(18) . . .
345(19) . . .
309(18) . . .
345(19) . . .
329(18) . . .
321(18) . . .
378(19) . . .
366(19) . . .
339(18) . . .
328(18) . . .
345(19) . . .
381(20) . . .
356(19) . . .
386(20) . . .
378(19) . . .
362(19) . . .
355(19) . . .
403(20) . . .
408(20) . . .
407(20) . . .
421(21) . . .
431(21) . . .
447(21) . . .
433(21) . . .
439(21) . . .
430(21) . . .
511(23) . . .
482(22) . . .
491(22) . . .
502(22) . . .
499(22) . . .
520(23) . . .
509(23) . . .
546(23) . . .
576(24) . . .
564(24) . . .
649(25) . . .
702(26) . . .
652(26) . . .
706(27) . . .
755(27) . . .
790(28) . . .
920(30) . . .
858(29) . . .
938(31) . . .
1049(32) . . .
1190(34) . . .
1264(36) . . .
1459(38) . . .
1615(40) . . .
1848(43) . . .
2114(46) . . .
2430(49) . . .
2821(53) . . .
3392(58) . . .
3991(63) . . .
4942(70) . . .
6025(78) . . .
7563(87) . . .
9795(99) . . .
12420(110) . . .
15320(120) . . .
18380(140) . . .
20950(150) . . .
22380(150) . . .
22090(150) . . .
20000(140) . . .
17170(130) . . .
13710(120) . . .
11120(110) . . .
8787(94) . . .
6785(82) . . .
5603(75) . . .
4439(67) . . .
3568(60) . . .
3065(55) . . .
2550(50) . . .
2271(48) . . .
1849(43) . . .
1666(41) . . .
1489(39) . . .
1317(36) . . .
1257(35) . . .
1120(33) . . .
992(31) . . .
906(30) . . .
869(29) . . .
836(29) . . .
762(28) . . .
675(26) . . .
634(25) . . .
594(24) . . .
634(25) . . .
597(24) . . .
564(24) . . .
536(23) . . .
536(23) . . .
499(22) . . .
544(23) . . .
482(22) . . .
462(21) . . .
452(21) . . .
470(22) . . .
466(22) . . .
427(21) . . .
430(21) . . .
423(21) . . .
434(21) . . .
445(21) . . .
391(20) . . .
391(20) . . .
389(20) . . .
368(19) . . .
371(19) . . .
374(19) . . .
395(20) . . .
385(20) . . .
358(19) . . .
368(19) . . .
341(18) . . .
377(19) . . .
377(19) . . .
339(18) . . .
363(19) . . .
358(19) . . .
359(19) . . .
359(19) . . .
383(20) . . .
335(18) . . .
349(19) . . .
349(19) . . .
341(18) . . .
347(19) . . .
341(18) . . .
354(19) . . .
335(18) . . .
341(18) . . .
408(20) . . .
339(18) . . .
300(17) . . .
365(19) . . .
353(19) . . .
352(19) . . .
343(19) . . .
290(17) . . .
323(18) . . .
354(19) . . .
340(18) . . .
361(19) . . .
351(19) . . .
358(19) . . .
352(19) . . .
326(18) . . .
338(18) . . .
311(18) . . .
350(19) . . .
329(18) . . .
356(19) . . .
332(18) . . .
339(18) . . .
321(18) . . .
337(18) . . .
358(19) . . .
338(18) . . .
351(19) . . .
351(19) . . .
371(19) . . .
370(19) . . .
384(20) . . .
365(19) . . .
347(19) . . .
399(20) . . .
344(19) . . .
336(18) . . .
336(18) . . .
324(18) . . .
314(18) . . .
328(18) . . .
332(18) . . .
359(19) . . .
344(19) . . .
336(18) . . .
349(19) . . .
349(19) . . .
302(17) . . .
310(18) . . .
344(19) . . .
324(18) . . .
297(17) . . .
334(18) . . .
345(19) . . .
319(18) . . .
329(18) . . .
334(18) . . .
327(18) . . .
324(18) . . .
333(18) . . .
313(18) . . .
311(18) . . .
309(18) . . .
325(18) . . .
320(18) . . .
305(17) . . .
326(18) . . .
337(18) . . .
310(18) . . .
309(18) . . .
325(18) . . .
288(17) . . .
322(18) . . .
322(18) . . .
300(17) . . .
324(18) . . .
320(18) . . .
284(17) . . .
293(17) . . .
335(18) . . .
316(18) . . .
306(17) . . .
306(17) . . .
308(18) . . .
294(17) . . .
309(18) . . .
302(17) . . .
288(17) . . .
302(17) . . .
287(17) . . .
267(16) . . .
268(16) . . .
304(17) . . .
304(17) . . .
314(18) . . .
314(18) . . .
291(17) . . .
302(17) . . .
291(17) . . .
264(16) . . .
293(17) . . .
288(17) . . .
299(17) . . .
322(18) . . .
295(17) . . .
315(18) . . .
326(18) . . .
316(18) . . .
301(17) . . .
271(16) . . .
315(18) . . .
327(18) . . .
293(17) . . .
271(16) . . .
312(18) . . .
312(18) . . .
318(18) . . .
309(18) . . .
298(17) . . .
298(17) . . .
320(18) . . .
313(18) . . .
289(17) . . .
301(17) . . .
307(18) . . .
290(17) . . .
305(17) . . .
328(18) . . .
318(18) . . .
323(18) . . .
301(17) . . .
322(18) . . .
310(18) . . .
287(17) . . .
321(18) . . .
301(17) . . .
291(17) . . .
286(17) . . .
306(17) . . .
301(17) . . .
324(18) . . .
343(19) . . .
333(18) . . .
321(18) . . .
312(18) . . .
288(17) . . .
310(18) . . .
303(17) . . .
299(17) . . .
290(17) . . .
283(17) . . .
290(17) . . .
304(17) . . .
297(17) . . .
318(18) . . .
323(18) . . .
314(18) . . .
328(18) . . .
299(17) . . .
283(17) . . .
288(17) . . .
310(18) . . .
308(18) . . .
320(18) . . .
296(17) . . .
301(17) . . .
277(17) . . .
299(17) . . .
267(16) . . .
289(17) . . .
285(17) . . .
315(18) . . .
308(18) . . .
299(17) . . .
313(18) . . .
267(16) . . .
295(17) . . .
296(17) . . .
312(18) . . .
286(17) . . .
311(18) . . .
301(17) . . .
305(17) . . .
298(17) . . .
294(17) . . .
286(17) . . .
319(18) . . .
319(18) . . .
305(17) . . .
301(17) . . .
281(17) . . .
294(17) . . .
309(18) . . .
289(17) . . .
299(17) . . .
324(18) . . .
306(17) . . .
297(17) . . .
327(18) . . .
325(18) . . .
325(18) . . .
312(18) . . .
316(18) . . .
303(17) . . .
325(18) . . .
302(17) . . .
334(18) . . .
342(18) . . .
326(18) . . .
326(18) . . .
299(17) . . .
297(17) . . .
328(18) . . .
273(17) . . .
325(18) . . .
329(18) . . .
303(17) . . .
305(17) . . .
315(18) . . .
326(18) . . .
306(17) . . .
304(17) . . .
308(18) . . .
286(17) . . .
317(18) . . .
300(17) . . .
304(17) . . .
289(17) . . .
303(17) . . .
297(17) . . .
319(18) . . .
313(18) . . .
303(17) . . .
318(18) . . .
284(17) . . .
310(18) . . .
299(17) . . .
287(17) . . .
300(17) . . .
278(17) . . .
305(17) . . .
296(17) . . .
272(16) . . .
270(16) . . .
270(16) . . .
270(16) . . .
285(17) . . .
263(16) . . .
261(16) . . .
258(16) . . .
316(18) . . .
278(17) . . .
307(18) . . .
285(17) . . .
315(18) . . .
279(17) . . .
290(17) . . .
273(17) . . .
268(16) . . .
298(17) . . .
268(16) . . .
301(17) . . .
276(17) . . .
279(17) . . .
260(16) . . .
285(17) . . .
276(17) . . .
273(17) . . .
296(17) . . .
264(16) . . .
268(16) . . .
267(16) . . .
283(17) . . .
292(17) . . .
286(17) . . .
287(17) . . .
266(16) . . .
284(17) . . .
300(17) . . .
300(17) . . .
287(17) . . .
265(16) . . .
296(17) . . .
300(17) . . .
275(17) . . .
271(16) . . .
271(16) . . .
282(17) . . .
261(16) . . .
265(16) . . .
254(16) . . .
277(17) . . .
265(16) . . .
299(17) . . .
282(17) . . .
277(17) . . .
311(18) . . .
254(16) . . .
269(16) . . .
302(17) . . .
284(17) . . .
277(17) . . .
262(16) . . .
258(16) . . .
284(17) . . .
312(18) . . .
291(17) . . .
282(17) . . .
322(18) . . .
293(17) . . .
311(18) . . .
290(17) . . .
293(17) . . .
294(17) . . .
288(17) . . .
293(17) . . .
331(18) . . .
308(18) . . .
301(17) . . .
321(18) . . .
295(17) . . .
340(18) . . .
308(18) . . .
320(18) . . .
319(18) . . .
313(18) . . .
302(17) . . .
295(17) . . .
281(17) . . .
312(18) . . .
311(18) . . .
315(18) . . .
296(17) . . .
291(17) . . .
314(18) . . .
322(18) . . .
294(17) . . .
303(17) . . .
299(17) . . .
328(18) . . .
301(17) . . .
317(18) . . .
300(17) . . .
302(17) . . .
262(16) . . .
292(17) . . .
319(18) . . .
309(18) . . .
289(17) . . .
296(17) . . .
314(18) . . .
317(18) . . .
340(18) . . .
294(17) . . .
301(17) . . .
290(17) . . .
295(17) . . .
283(17) . . .
285(17) . . .
302(17) . . .
314(18) . . .
312(18) . . .
296(17) . . .
319(18) . . .
285(17) . . .
303(17) . . .
292(17) . . .
302(17) . . .
285(17) . . .
311(18) . . .
292(17) . . .
298(17) . . .
301(17) . . .
299(17) . . .
272(16) . . .
316(18) . . .
321(18) . . .
286(17) . . .
313(18) . . .
324(18) . . .
269(16) . . .
309(18) . . .
295(17) . . .
297(17) . . .
283(17) . . .
308(18) . . .
283(17) . . .
278(17) . . .
298(17) . . .
291(17) . . .
318(18) . . .
321(18) . . .
298(17) . . .
325(18) . . .
291(17) . . .
291(17) . . .
319(18) . . .
323(18) . . .
318(18) . . .
310(18) . . .
337(18) . . .
309(18) . . .
291(17) . . .
324(18) . . .
334(18) . . .
314(18) . . .
341(18) . . .
305(17) . . .
313(18) . . .
294(17) . . .
317(18) . . .
308(18) . . .
293(17) . . .
331(18) . . .
307(18) . . .
348(19) . . .
318(18) . . .
330(18) . . .
322(18) . . .
310(18) . . .
326(18) . . .
319(18) . . .
287(17) . . .
300(17) . . .
308(18) . . .
330(18) . . .
324(18) . . .
332(18) . . .
329(18) . . .
330(18) . . .
306(17) . . .
308(18) . . .
297(17) . . .
319(18) . . .
300(17) . . .
312(18) . . .
303(17) . . .
280(17) . . .
289(17) . . .
262(16) . . .
297(17) . . .
302(17) . . .
268(16) . . .
306(17) . . .
275(17) . . .
321(18) . . .
323(18) . . .
270(16) . . .
282(17) . . .
306(17) . . .
266(16) . . .
293(17) . . .
282(17) . . .
304(17) . . .
322(18) . . .
298(17) . . .
270(16) . . .
287(17) . . .
313(18) . . .
293(17) . . .
297(17) . . .
285(17) . . .
283(17) . . .
278(17) . . .
277(17) . . .
276(17) . . .
289(17) . . .
271(16) . . .
272(16) . . .
297(17) . . .
277(17) . . .
302(17) . . .
272(16) . . .
248(16) . . .
303(17) . . .
314(18) . . .
296(17) . . .
253(16) . . .
321(18) . . .
307(18) . . .
282(17) . . .
267(16) . . .
299(17) . . .
299(17) . . .
295(17) . . .
305(17) . . .
285(17) . . .
303(17) . . .
287(17) . . .
298(17) . . .
294(17) . . .
275(17) . . .
310(18) . . .
306(17) . . .
322(18) . . .
301(17) . . .
294(17) . . .
301(17) . . .
273(17) . . .
302(17) . . .
309(18) . . .
281(17) . . .
300(17) . . .
276(17) . . .
296(17) . . .
312(18) . . .
300(17) . . .
302(17) . . .
284(17) . . .
310(18) . . .
297(17) . . .
327(18) . . .
300(17) . . .
327(18) . . .
309(18) . . .
306(17) . . .
326(18) . . .
320(18) . . .
286(17) . . .
305(17) . . .
293(17) . . .
335(18) . . .
290(17) . . .
318(18) . . .
313(18) . . .
319(18) . . .
333(18) . . .
300(17) . . .
296(17) . . .
306(17) . . .
314(18) . . .
292(17) . . .
310(18) . . .
297(17) . . .
294(17) . . .
299(17) . . .
331(18) . . .
274(17) . . .
323(18) . . .
287(17) . . .
297(17) . . .
289(17) . . .
304(17) . . .
302(17) . . .
299(17) . . .
287(17) . . .
310(18) . . .
295(17) . . .
295(17) . . .
262(16) . . .
338(18) . . .
285(17) . . .
299(17) . . .
293(17) . . .
300(17) . . .
268(16) . . .
285(17) . . .
325(18) . . .
320(18) . . .
293(17) . . .
279(17) . . .
300(17) . . .
311(18) . . .
296(17) . . .
267(16) . . .
292(17) . . .
304(17) . . .
282(17) . . .
307(18) . . .
308(18) . . .
287(17) . . .
321(18) . . .
286(17) . . .
279(17) . . .
316(18) . . .
315(18) . . .
272(16) . . .
320(18) . . .
296(17) . . .
267(16) . . .
295(17) . . .
315(18) . . .
281(17) . . .
300(17) . . .
317(18) . . .
299(17) . . .
306(17) . . .
308(18) . . .
297(17) . . .
296(17) . . .
284(17) . . .
307(18) . . .
292(17) . . .
311(18) . . .
304(17) . . .
292(17) . . .
329(18) . . .
311(18) . . .
309(18) . . .
289(17) . . .
289(17) . . .
297(17) . . .
315(18) . . .
275(17) . . .
303(17) . . .
302(17) . . .
297(17) . . .
287(17) . . .
299(17) . . .
270(16) . . .
267(16) . . .
310(18) . . .
295(17) . . .
301(17) . . .
302(17) . . .
288(17) . . .
312(18) . . .
273(17) . . .
281(17) . . .
298(17) . . .
298(17) . . .
266(16) . . .
277(17) . . .
297(17) . . .
313(18) . . .
330(18) . . .
307(18) . . .
312(18) . . .
269(16) . . .
313(18) . . .
272(16) . . .
286(17) . . .
319(18) . . .
309(18) . . .
262(16) . . .
298(17) . . .
290(17) . . .
294(17) . . .
300(17) . . .
302(17) . . .
285(17) . . .
295(17) . . .
283(17) . . .
298(17) . . .
284(17) . . .
271(16) . . .
302(17) . . .
314(18) . . .
299(17) . . .
298(17) . . .
300(17) . . .
294(17) . . .
310(18) . . .
313(18) . . .
289(17) . . .
300(17) . . .
277(17) . . .
334(18) . . .
281(17) . . .
319(18) . . .
302(17) . . .
268(16) . . .
329(18) . . .
308(18) . . .
284(17) . . .
311(18) . . .
291(17) . . .
302(17) . . .
296(17) . . .
295(17) . . .
300(17) . . .
291(17) . . .
309(18) . . .
286(17) . . .
295(17) . . .
312(18) . . .
282(17) . . .
330(18) . . .
302(17) . . .
306(17) . . .
274(17) . . .
288(17) . . .
284(17) . . .
296(17) . . .
272(16) . . .
283(17) . . .
306(17) . . .
303(17) . . .
281(17) . . .
288(17) . . .
296(17) . . .
320(18) . . .
282(17) . . .
312(18) . . .
291(17) . . .
329(18) . . .
303(17) . . .
284(17) . . .
307(18) . . .
321(18) . . .
301(17) . . .
299(17) . . .
315(18) . . .
287(17) . . .
314(18) . . .
298(17) . . .
327(18) . . .
298(17) . . .
308(18) . . .
310(18) . . .
303(17) . . .
297(17) . . .
313(18) . . .
322(18) . . .
286(17) . . .
302(17) . . .
295(17) . . .
313(18) . . .
293(17) . . .
286(17) . . .
308(18) . . .
294(17) . . .
315(18) . . .
343(19) . . .
303(17) . . .
329(18) . . .
320(18) . . .
302(17) . . .
278(17) . . .
319(18) . . .
294(17) . . .
292(17) . . .
303(17) . . .
307(18) . . .
300(17) . . .
294(17) . . .
302(17) . . .
306(17) . . .
302(17) . . .
298(17) . . .
294(17) . . .
306(17) . . .
303(17) . . .
295(17) . . .
319(18) . . .
318(18) . . .
340(18) . . .
316(18) . . .
337(18) . . .
281(17) . . .
357(19) . . .
296(17) . . .
316(18) . . .
324(18) . . .
333(18) . . .
359(19) . . .
327(18) . . .
331(18) . . .
333(18) . . .
303(17) . . .
338(18) . . .
316(18) . . .
307(18) . . .
335(18) . . .
310(18) . . .
332(18) . . .
335(18) . . .
335(18) . . .
333(18) . . .
317(18) . . .
341(18) . . .
337(18) . . .
310(18) . . .
317(18) . . .
321(18) . . .
315(18) . . .
318(18) . . .
334(18) . . .
337(18) . . .
346(19) . . .
320(18) . . .
330(18) . . .
319(18) . . .
310(18) . . .
343(19) . . .
328(18) . . .
294(17) . . .
310(18) . . .
307(18) . . .
304(17) . . .
334(18) . . .
360(19) . . .
334(18) . . .
312(18) . . .
320(18) . . .
332(18) . . .
316(18) . . .
324(18) . . .
315(18) . . .
337(18) . . .
354(19) . . .
337(18) . . .
294(17) . . .
322(18) . . .
316(18) . . .
332(18) . . .
315(18) . . .
365(19) . . .
340(18) . . .
309(18) . . .
361(19) . . .
329(18) . . .
349(19) . . .
324(18) . . .
347(19) . . .
364(19) . . .
339(18) . . .
318(18) . . .
333(18) . . .
383(20) . . .
340(18) . . .
340(18) . . .
364(19) . . .
349(19) . . .
364(19) . . .
313(18) . . .
340(18) . . .
351(19) . . .
340(18) . . .
325(18) . . .
338(18) . . .
352(19) . . .
337(18) . . .
352(19) . . .
335(18) . . .
321(18) . . .
351(19) . . .
338(18) . . .
325(18) . . .
350(19) . . .
313(18) . . .
354(19) . . .
348(19) . . .
328(18) . . .
317(18) . . .
315(18) . . .
312(18) . . .
329(18) . . .
329(18) . . .
326(18) . . .
327(18) . . .
330(18) . . .
347(19) . . .
346(19) . . .
344(19) . . .
340(18) . . .
350(19) . . .
308(18) . . .
337(18) . . .
326(18) . . .
335(18) . . .
341(18) . . .
327(18) . . .
343(19) . . .
322(18) . . .
323(18) . . .
328(18) . . .
336(18) . . .
315(18) . . .
312(18) . . .
315(18) . . .
365(19) . . .
343(19) . . .
345(19) . . .
326(18) . . .
346(19) . . .
345(19) . . .
350(19) . . .
354(19) . . .
323(18) . . .
346(19) . . .
378(19) . . .
339(18) . . .
329(18) . . .
295(17) . . .
346(19) . . .
342(18) . . .
337(18) . . .
352(19) . . .
349(19) . . .
352(19) . . .
332(18) . . .
320(18) . . .
320(18) . . .
340(18) . . .
330(18) . . .
335(18) . . .
308(18) . . .
354(19) . . .
337(18) . . .
316(18) . . .
334(18) . . .
330(18) . . .
344(19) . . .
320(18) . . .
336(18) . . .
360(19) . . .
355(19) . . .
329(18) . . .
343(19) . . .
335(18) . . .
354(19) . . .
354(19) . . .
330(18) . . .
334(18) . . .
331(18) . . .
331(18) . . .
351(19) . . .
315(18) . . .
346(19) . . .
334(18) . . .
356(19) . . .
328(18) . . .
380(19) . . .
330(18) . . .
342(18) . . .
335(18) . . .
381(20) . . .
373(19) . . .
354(19) . . .
370(19) . . .
371(19) . . .
347(19) . . .
360(19) . . .
359(19) . . .
354(19) . . .
360(19) . . .
347(19) . . .
365(19) . . .
366(19) . . .
341(18) . . .
340(18) . . .
355(19) . . .
336(18) . . .
363(19) . . .
336(18) . . .
362(19) . . .
373(19) . . .
371(19) . . .
343(19) . . .
385(20) . . .
355(19) . . .
382(20) . . .
370(19) . . .
388(20) . . .
384(20) . . .
379(19) . . .
370(19) . . .
361(19) . . .
372(19) . . .
384(20) . . .
385(20) . . .
331(18) . . .
369(19) . . .
354(19) . . .
369(19) . . .
384(20) . . .
379(19) . . .
379(19) . . .
358(19) . . .
363(19) . . .
357(19) . . .
369(19) . . .
375(19) . . .
387(20) . . .
352(19) . . .
343(19) . . .
386(20) . . .
391(20) . . .
385(20) . . .
366(19) . . .
375(19) . . .
344(19) . . .
343(19) . . .
378(19) . . .
390(20) . . .
381(20) . . .
346(19) . . .
340(18) . . .
401(20) . . .
382(20) . . .
392(20) . . .
367(19) . . .
361(19) . . .
379(19) . . .
376(19) . . .
378(19) . . .
357(19) . . .
364(19) . . .
382(20) . . .
372(19) . . .
377(19) . . .
393(20) . . .
416(20) . . .
407(20) . . .
414(20) . . .
373(19) . . .
390(20) . . .
430(21) . . .
398(20) . . .
409(20) . . .
391(20) . . .
381(20) . . .
368(19) . . .
389(20) . . .
379(19) . . .
404(20) . . .
415(20) . . .
422(21) . . .
408(20) . . .
412(20) . . .
405(20) . . .
430(21) . . .
468(22) . . .
428(21) . . .
428(21) . . .
426(21) . . .
468(22) . . .
444(21) . . .
441(21) . . .
425(21) . . .
448(21) . . .
467(22) . . .
455(21) . . .
439(21) . . .
419(20) . . .
493(22) . . .
482(22) . . .
472(22) . . .
506(22) . . .
481(22) . . .
505(22) . . .
526(23) . . .
495(22) . . .
521(23) . . .
561(24) . . .
546(23) . . .
533(23) . . .
582(24) . . .
629(25) . . .
613(25) . . .
610(25) . . .
619(25) . . .
624(25) . . .
674(26) . . .
667(26) . . .
697(26) . . .
759(28) . . .
759(28) . . .
829(29) . . .
806(28) . . .
819(29) . . .
923(30) . . .
947(31) . . .
999(32) . . .
1016(32) . . .
1111(33) . . .
1228(35) . . .
1243(35) . . .
1399(37) . . .
1497(39) . . .
1666(41) . . .
1797(42) . . .
1963(44) . . .
2256(47) . . .
2589(51) . . .
2885(54) . . .
3389(58) . . .
3954(63) . . .
4544(67) . . .
5150(72) . . .
6179(79) . . .
7360(86) . . .
8900(94) . . .
10800(100) . . .
13180(120) . . .
15690(130) . . .
18850(140) . . .
22480(150) . . .
25840(160) . . .
28450(170) . . .
29990(170) . . .
29640(170) . . .
28480(170) . . .
25630(160) . . .
22040(150) . . .
18560(140) . . .
15130(120) . . .
12570(110) . . .
10270(100) . . .
8611(93) . . .
7080(84) . . .
5943(77) . . .
5108(71) . . .
4310(66) . . .
3633(60) . . .
3204(57) . . .
2797(53) . . .
2491(50) . . .
2271(48) . . .
1953(44) . . .
1770(42) . . .
1670(41) . . .
1492(39) . . .
1376(37) . . .
1337(37) . . .
1154(34) . . .
1127(34) . . .
998(32) . . .
927(30) . . .
916(30) . . .
855(29) . . .
824(29) . . .
804(28) . . .
690(26) . . .
707(27) . . .
754(27) . . .
722(27) . . .
724(27) . . .
689(26) . . .
685(26) . . .
632(25) . . .
618(25) . . .
568(24) . . .
559(24) . . .
606(25) . . .
595(24) . . .
544(23) . . .
590(24) . . .
531(23) . . .
503(22) . . .
540(23) . . .
531(23) . . .
466(22) . . .
544(23) . . .
480(22) . . .
489(22) . . .
451(21) . . .
502(22) . . .
458(21) . . .
444(21) . . .
466(22) . . .
445(21) . . .
425(21) . . .
446(21) . . .
469(22) . . .
464(22) . . .
430(21) . . .
401(20) . . .
428(21) . . .
413(20) . . .
434(21) . . .
436(21) . . .
434(21) . . .
414(20) . . .
425(21) . . .
442(21) . . .
425(21) . . .
425(21) . . .
443(21) . . .
436(21) . . .
406(20) . . .
407(20) . . .
410(20) . . .
392(20) . . .
399(20) . . .
421(21) . . .
408(20) . . .
368(19) . . .
389(20) . . .
399(20) . . .
375(19) . . .
392(20) . . .
430(21) . . .
403(20) . . .
394(20) . . .
428(21) . . .
425(21) . . .
403(20) . . .
421(21) . . .
407(20) . . .
395(20) . . .
404(20) . . .
374(19) . . .
400(20) . . .
380(19) . . .
413(20) . . .
414(20) . . .
407(20) . . .
382(20) . . .
405(20) . . .
395(20) . . .
423(21) . . .
382(20) . . .
370(19) . . .
404(20) . . .
409(20) . . .
430(21) . . .
423(21) . . .
396(20) . . .
418(20) . . .
427(21) . . .
382(20) . . .
395(20) . . .
383(20) . . .
397(20) . . .
387(20) . . .
388(20) . . .
411(20) . . .
428(21) . . .
419(20) . . .
412(20) . . .
446(21) . . .
393(20) . . .
393(20) . . .
405(20) . . .
441(21) . . .
413(20) . . .
454(21) . . .
422(21) . . .
430(21) . . .
467(22) . . .
441(21) . . .
439(21) . . .
390(20) . . .
416(20) . . .
429(21) . . .
436(21) . . .
399(20) . . .
423(21) . . .
424(21) . . .
408(20) . . .
423(21) . . .
438(21) . . .
447(21) . . .
427(21) . . .
439(21) . . .
431(21) . . .
381(20) . . .
448(21) . . .
389(20) . . .
422(21) . . .
459(21) . . .
429(21) . . .
401(20) . . .
390(20) . . .
402(20) . . .
400(20) . . .
400(20) . . .
408(20) . . .
392(20) . . .
399(20) . . .
385(20) . . .
433(21) . . .
387(20) . . .
379(19) . . .
390(20) . . .
388(20) . . .
392(20) . . .
407(20) . . .
396(20) . . .
387(20) . . .
381(20) . . .
337(18) . . .
399(20) . . .
399(20) . . .
374(19) . . .
392(20) . . .
370(19) . . .
365(19) . . .
365(19) . . .
385(20) . . .
399(20) . . .
383(20) . . .
359(19) . . .
365(19) . . .
375(19) . . .
389(20) . . .
421(21) . . .
390(20) . . .
407(20) . . .
399(20) . . .
397(20) . . .
415(20) . . .
407(20) . . .
370(19) . . .
356(19) . . .
399(20) . . .
376(19) . . .
419(20) . . .
376(19) . . .
368(19) . . .
371(19) . . .
397(20) . . .
380(19) . . .
401(20) . . .
368(19) . . .
376(19) . . .
361(19) . . .
387(20) . . .
391(20) . . .
396(20) . . .
401(20) . . .
390(20) . . .
411(20) . . .
399(20) . . .
423(21) . . .
398(20) . . .
440(21) . . .
432(21) . . .
411(20) . . .
353(19) . . .
398(20) . . .
396(20) . . .
418(20) . . .
411(20) . . .
383(20) . . .
413(20) . . .
401(20) . . .
386(20) . . .
401(20) . . .
410(20) . . .
405(20) . . .
408(20) . . .
397(20) . . .
404(20) . . .
409(20) . . .
423(21) . . .
396(20) . . .
398(20) . . .
457(21) . . .
426(21) . . .
407(20) . . .
418(20) . . .
398(20) . . .
404(20) . . .
412(20) . . .
416(20) . . .
430(21) . . .
380(19) . . .
395(20) . . .
415(20) . . .
430(21) . . .
396(20) . . .
452(21) . . .
439(21) . . .
417(20) . . .
397(20) . . .
419(20) . . .
433(21) . . .
478(22) . . .
434(21) . . .
432(21) . . .
396(20) . . .
406(20) . . .
438(21) . . .
417(20) . . .
430(21) . . .
436(21) . . .
429(21) . . .
437(21) . . .
474(22) . . .
455(21) . . .
444(21) . . .
420(20) . . .
433(21) . . .
449(21) . . .
441(21) . . .
456(21) . . .
443(21) . . .
431(21) . . .
427(21) . . .
456(21) . . .
469(22) . . .
446(21) . . .
430(21) . . .
477(22) . . .
454(21) . . .
453(21) . . .
476(22) . . .
487(22) . . .
462(21) . . .
458(21) . . .
449(21) . . .
450(21) . . .
453(21) . . .
477(22) . . .
463(22) . . .
473(22) . . .
530(23) . . .
483(22) . . .
484(22) . . .
498(22) . . .
502(22) . . .
484(22) . . .
513(23) . . .
494(22) . . .
545(23) . . .
505(22) . . .
545(23) . . .
519(23) . . .
532(23) . . .
524(23) . . .
551(23) . . .
539(23) . . .
547(23) . . .
597(24) . . .
600(24) . . .
602(25) . . .
644(25) . . .
612(25) . . .
639(25) . . .
615(25) . . .
658(26) . . .
681(26) . . .
740(27) . . .
772(28) . . .
772(28) . . .
791(28) . . .
824(29) . . .
847(29) . . .
870(29) . . .
882(30) . . .
906(30) . . .
921(30) . . .
1036(32) . . .
1152(34) . . .
1163(34) . . .
1287(36) . . .
1329(36) . . .
1528(39) . . .
1661(41) . . .
1716(41) . . .
1878(43) . . .
2092(46) . . .
2341(48) . . .
2528(50) . . .
2789(53) . . .
3151(56) . . .
3745(61) . . .
4183(65) . . .
5000(71) . . .
5929(77) . . .
6847(83) . . .
8093(90) . . .
9888(99) . . .
12170(110) . . .
15120(120) . . .
18700(140) . . .
22590(150) . . .
27380(170) . . .
31830(180) . . .
36040(190) . . .
38120(200) . . .
38910(200) . . .
38090(200) . . .
34970(190) . . .
30510(180) . . .
25640(160) . . .
21220(150) . . .
16970(130) . . .
13540(120) . . .
10820(100) . . .
8891(94) . . .
7381(86) . . .
6137(78) . . .
5169(72) . . .
4421(66) . . .
3916(63) . . .
3353(58) . . .
2978(55) . . .
2610(51) . . .
2341(48) . . .
2229(47) . . .
1907(44) . . .
1845(43) . . .
1633(40) . . .
1529(39) . . .
1381(37) . . .
1311(36) . . .
1202(35) . . .
1129(34) . . .
1107(33) . . .
990(31) . . .
966(31) . . .
893(30) . . .
925(30) . . .
855(29) . . .
802(28) . . .
786(28) . . .
788(28) . . .
755(27) . . .
747(27) . . .
697(26) . . .
681(26) . . .
681(26) . . .
640(25) . . .
671(26) . . .
577(24) . . .
628(25) . . .
619(25) . . .
610(25) . . .
566(24) . . .
597(24) . . .
565(24) . . .
554(24) . . .
554(24) . . .
499(22) . . .
514(23) . . .
502(22) . . .
507(23) . . .
489(22) . . .
469(22) . . .
499(22) . . .
480(22) . . .
481(22) . . .
493(22) . . .
477(22) . . .
492(22) . . .
469(22) . . .
460(21) . . .
480(22) . . .
435(21) . . .
433(21) . . .
423(21) . . .
429(21) . . .
446(21) . . .
414(20) . . .
426(21) . . .
438(21) . . .
418(20) . . .
435(21) . . .
410(20) . . .
411(20) . . .
445(21) . . .
437(21) . . .
434(21) . . .
410(20) . . .
412(20) . . .
426(21) . . .
406(20) . . .
424(21) . . .
401(20) . . .
426(21) . . .
422(21) . . .
406(20) . . .
387(20) . . .
379(19) . . .
367(19) . . .
403(20) . . .
394(20) . . .
388(20) . . .
397(20) . . .
379(19) . . .
374(19) . . .
368(19) . . .
386(20) . . .
392(20) . . .
418(20) . . .
332(18) . . .
393(20) . . .
381(20) . . .
363(19) . . .
380(19) . . .
397(20) . . .
379(19) . . .
410(20) . . .
369(19) . . .
393(20) . . .
372(19) . . .
337(18) . . .
345(19) . . .
412(20) . . .
374(19) . . .
369(19) . . .
378(19) . . .
385(20) . . .
401(20) . . .
414(20) . . .
389(20) . . .
373(19) . . .
367(19) . . .
375(19) . . .
385(20) . . .
366(19) . . .
346(19) . . .
373(19) . . .
347(19) . . .
370(19) . . .
368(19) . . .
390(20) . . .
374(19) . . .
374(19) . . .
323(18) . . .
373(19) . . .
356(19) . . .
348(19) . . .
359(19) . . .
368(19) . . .
347(19) . . .
377(19) . . .
380(19) . . .
351(19) . . .
363(19) . . .
348(19) . . .
347(19) . . .
362(19) . . .
358(19) . . .
387(20) . . .
343(19) . . .
369(19) . . .
363(19) . . .
374(19) . . .
321(18) . . .
325(18) . . .
357(19) . . .
358(19) . . .
343(19) . . .
362(19) . . .
386(20) . . .
349(19) . . .
328(18) . . .
346(19) . . .
337(18) . . .
333(18) . . .
359(19) . . .
329(18) . . .
351(19) . . .
336(18) . . .
319(18) . . .
348(19) . . .
382(20) . . .
348(19) . . .
353(19) . . .
333(18) . . .
312(18) . . .
315(18) . . .
356(19) . . .
370(19) . . .
348(19) . . .
318(18) . . .
358(19) . . .
364(19) . . .
313(18) . . .
360(19) . . .
327(18) . . .
341(18) . . .
317(18) . . .
352(19) . . .
352(19) . . .
323(18) . . .
315(18) . . .
346(19) . . .
319(18) . . .
347(19) . . .
335(18) . . .
340(18) . . .
337(18) . . .
337(18) . . .
364(19) . . .
340(18) . . .
312(18) . . .
312(18) . . .
326(18) . . .
351(19) . . .
348(19) . . .
350(19) . . .
340(18) . . .
335(18) . . .
329(18) . . .
376(19) . . .
320(18) . . .
326(18) . . .
331(18) . . .
347(19) . . .
331(18) . . .
315(18) . . .
321(18) . . .
340(18) . . .
336(18) . . .
345(19) . . .
303(17) . . .
354(19) . . .
319(18) . . .
334(18) . . .
323(18) . . .
330(18) . . .
309(18) . . .
299(17) . . .
307(18) . . .
332(18) . . .
333(18) . . .
321(18) . . .
304(17) . . .
342(18) . . .
313(18) . . .
321(18) . . .
335(18) . . .
346(19) . . .
297(17) . . .
326(18) . . .
335(18) . . .
309(18) . . .
328(18) . . .
303(17) . . .
311(18) . . .
269(16) . . .
324(18) . . .
307(18) . . .
320(18) . . .
307(18) . . .
331(18) . . .
317(18) . . .
321(18) . . .
287(17) . . .
303(17) . . .
333(18) . . .
337(18) . . .
324(18) . . .
290(17) . . .
338(18) . . .
313(18) . . .
280(17) . . .
292(17) . . .
314(18) . . .
297(17) . . .
298(17) . . .
325(18) . . .
317(18) . . .
301(17) . . .
318(18) . . .
307(18) . . .
333(18) . . .
336(18) . . .
323(18) . . .
345(19) . . .
314(18) . . .
272(16) . . .
319(18) . . .
290(17) . . .
322(18) . . .
299(17) . . .
299(17) . . .
320(18) . . .
299(17) . . .
322(18) . . .
340(18) . . .
283(17) . . .
267(16) . . .
297(17) . . .
332(18) . . .
301(17) . . .
291(17) . . .
308(18) . . .
297(17) . . .
296(17) . . .
298(17) . . .
288(17) . . .
301(17) . . .
309(18) . . .
310(18) . . .
325(18) . . .
310(18) . . .
282(17) . . .
326(18) . . .
306(17) . . .
329(18) . . .
333(18) . . .
301(17) . . .
278(17) . . .
322(18) . . .
291(17) . . .
319(18) . . .
301(17) . . .
307(18) . . .
302(17) . . .
331(18) . . .
310(18) . . .
339(18) . . .
287(17) . . .
314(18) . . .
327(18) . . .
318(18) . . .
334(18) . . .
320(18) . . .
295(17) . . .
306(17) . . .
317(18) . . .
310(18) . . .
289(17) . . .
322(18) . . .
329(18) . . .
325(18) . . .
290(17) . . .
311(18) . . .
329(18) . . .
327(18) . . .
275(17) . . .
314(18) . . .
330(18) . . .
327(18) . . .
303(17) . . .
286(17) . . .
307(18) . . .
348(19) . . .
299(17) . . .
316(18) . . .
291(17) . . .
295(17) . . .
319(18) . . .
321(18) . . .
301(17) . . .
289(17) . . .
305(17) . . .
292(17) . . .
317(18) . . .
296(17) . . .
284(17) . . .
297(17) . . .
306(17) . . .
297(17) . . .
279(17) . . .
271(16) . . .
292(17) . . .
331(18) . . .
286(17) . . .
293(17) . . .
291(17) . . .
324(18) . . .
264(16) . . .
295(17) . . .
307(18) . . .
282(17) . . .
308(18) . . .
316(18) . . .
291(17) . . .
309(18) . . .
298(17) . . .
305(17) . . .
288(17) . . .
307(18) . . .
321(18) . . .
268(16) . . .
259(16) . . .
297(17) . . .
296(17) . . .
280(17) . . .
304(17) . . .
286(17) . . .
280(17) . . .
292(17) . . .
327(18) . . .
274(17) . . .
308(18) . . .
292(17) . . .
300(17) . . .
307(18) . . .
318(18) . . .
285(17) . . .
269(16) . . .
318(18) . . .
314(18) . . .
328(18) . . .
321(18) . . .
278(17) . . .
316(18) . . .
295(17) . . .
310(18) . . .
305(17) . . .
291(17) . . .
296(17) . . .
285(17) . . .
332(18) . . .
310(18) . . .
313(18) . . .
312(18) . . .
293(17) . . .
327(18) . . .
293(17) . . .
282(17) . . .
324(18) . . .
295(17) . . .
336(18) . . .
306(17) . . .
292(17) . . .
295(17) . . .
274(17) . . .
294(17) . . .
306(17) . . .
297(17) . . .
314(18) . . .
306(17) . . .
302(17) . . .
307(18) . . .
298(17) . . .
292(17) . . .
310(18) . . .
303(17) . . .
274(17) . . .
288(17) . . .
304(17) . . .
317(18) . . .
298(17) . . .
289(17) . . .
290(17) . . .
301(17) . . .
309(18) . . .
313(18) . . .
271(16) . . .
271(16) . . .
282(17) . . .
314(18) . . .
299(17) . . .
297(17) . . .
288(17) . . .
305(17) . . .
290(17) . . .
289(17) . . .
290(17) . . .
288(17) . . .
295(17) . . .
312(18) . . .
312(18) . . .
303(17) . . .
327(18) . . .
302(17) . . .
279(17) . . .
288(17) . . .
309(18) . . .
321(18) . . .
278(17) . . .
294(17) . . .
288(17) . . .
302(17) . . .
282(17) . . .
278(17) . . .
278(17) . . .
275(17) . . .
280(17) . . .
301(17) . . .
281(17) . . .
263(16) . . .
309(18) . . .
280(17) . . .
289(17) . . .
294(17) . . .
265(16) . . .
268(16) . . .
296(17) . . .
273(17) . . .
293(17) . . .
294(17) . . .
295(17) . . .
280(17) . . .
296(17) . . .
309(18) . . .
277(17) . . .
321(18) . . .
283(17) . . .
293(17) . . .
298(17) . . .
293(17) . . .
267(16) . . .
294(17) . . .
300(17) . . .
286(17) . . .
267(16) . . .
253(16) . . .
287(17) . . .
300(17) . . .
286(17) . . .
283(17) . . .
276(17) . . .
274(17) . . .
264(16) . . .
291(17) . . .
256(16) . . .
271(16) . . .
289(17) . . .
275(17) . . .
287(17) . . .
283(17) . . .
280(17) . . .
275(17) . . .
266(16) . . .
267(16) . . .
293(17) . . .
250(16) . . .
319(18) . . .
269(16) . . .
300(17) . . .
276(17) . . .
269(16) . . .
280(17) . . .
274(17) . . .
269(16) . . .
286(17) . . .
281(17) . . .
289(17) . . .
295(17) . . .
310(18) . . .
287(17) . . .
259(16) . . .
280(17) . . .
284(17) . . .
273(17) . . .
297(17) . . .
288(17) . . .
276(17) . . .
251(16) . . .
275(17) . . .
304(17) . . .
297(17) . . .
282(17) . . .
300(17) . . .
278(17) . . .
280(17) . . .
275(17) . . .
313(18) . . .
291(17) . . .
289(17) . . .
289(17) . . .
264(16) . . .
327(18) . . .
295(17) . . .
329(18) . . .
286(17) . . .
282(17) . . .
308(18) . . .
293(17) . . .
325(18) . . .
290(17) . . .
297(17) . . .
311(18) . . .
304(17) . . .
309(18) . . .
279(17) . . .
329(18) . . .
315(18) . . .
297(17) . . .
290(17) . . .
309(18) . . .
283(17) . . .
280(17) . . .
254(16) . . .
292(17) . . .
296(17) . . .
263(16) . . .
284(17) . . .
290(17) . . .
298(17) . . .
281(17) . . .
274(17) . . .
267(16) . . .
313(18) . . .
280(17) . . .
266(16) . . .
275(17) . . .
269(16) . . .
274(17) . . .
278(17) . . .
261(16) . . .
270(16) . . .
272(16) . . .
275(17) . . .
263(16) . . .
268(16) . . .
286(17) . . .
275(17) . . .
271(16) . . .
272(16) . . .
295(17) . . .
264(16) . . .
286(17) . . .
284(17) . . .
283(17) . . .
268(16) . . .
284(17) . . .
301(17) . . .
278(17) . . .
283(17) . . .
278(17) . . .
263(16) . . .
266(16) . . .
264(16) . . .
292(17) . . .
289(17) . . .
257(16) . . .
296(17) . . .
270(16) . . .
291(17) . . .
284(17) . . .
293(17) . . .
292(17) . . .
259(16) . . .
301(17) . . .
258(16) . . .
293(17) . . .
267(16) . . .
269(16) . . .
271(16) . . .
310(18) . . .
289(17) . . .
300(17) . . .
261(16) . . .
301(17) . . .
296(17) . . .
305(17) . . .
273(17) . . .
274(17) . . .
294(17) . . .
291(17) . . .
297(17) . . .
276(17) . . .
260(16) . . .
294(17) . . .
265(16) . . .
304(17) . . .
296(17) . . .
280(17) . . .
297(17) . . .
280(17) . . .
268(16) . . .
329(18) . . .
284(17) . . .
279(17) . . .
269(16) . . .
295(17) . . .
303(17) . . .
286(17) . . .
313(18) . . .
285(17) . . .
261(16) . . .
271(16) . . .
277(17) . . .
263(16) . . .
284(17) . . .
308(18) . . .
280(17) . . .
284(17) . . .
290(17) . . .
274(17) . . .
290(17) . . .
310(18) . . .
272(16) . . .
287(17) . . .
260(16) . . .
290(17) . . .
267(16) . . .
256(16) . . .
284(17) . . .
274(17) . . .
280(17) . . .
289(17) . . .
284(17) . . .
277(17) . . .
277(17) . . .
285(17) . . .
257(16) . . .
258(16) . . .
281(17) . . .
278(17) . . .
258(16) . . .
280(17) . . .
264(16) . . .
291(17) . . .
284(17) . . .
263(16) . . .
282(17) . . .
282(17) . . .
248(16) . . .
269(16) . . .
276(17) . . .
279(17) . . .
272(16) . . .
247(16) . . .
255(16) . . .
285(17) . . .
297(17) . . .
291(17) . . .
272(16) . . .
267(16) . . .
253(16) . . .
289(17) . . .
257(16) . . .
270(16) . . .
255(16) . . .
279(17) . . .
258(16) . . .
287(17) . . .
286(17) . . .
305(17) . . .
294(17) . . .
276(17) . . .
280(17) . . .
256(16) . . .
279(17) . . .
256(16) . . .
267(16) . . .
253(16) . . .
279(17) . . .
296(17) . . .
282(17) . . .
265(16) . . .
275(17) . . .
276(17) . . .
259(16) . . .
289(17) . . .
271(16) . . .
264(16) . . .
257(16) . . .
254(16) . . .
258(16) . . .
271(16) . . .
236(15) . . .
264(16) . . .
278(17) . . .
258(16) . . .
254(16) . . .
275(17) . . .
268(16) . . .
258(16) . . .
269(16) . . .
280(17) . . .
262(16) . . .
248(16) . . .
290(17) . . .
277(17) . . .
279(17) . . .
263(16) . . .
280(17) . . .
265(16) . . .
273(17) . . .
289(17) . . .
253(16) . . .
283(17) . . .
289(17) . . .
258(16) . . .
260(16) . . .
273(17) . . .
265(16) . . .
261(16) . . .
265(16) . . .
275(17) . . .
280(17) . . .
269(16) . . .
291(17) . . .
263(16) . . .
260(16) . . .
289(17) . . .
276(17) . . .
292(17) . . .
263(16) . . .
257(16) . . .
267(16) . . .
274(17) . . .
281(17) . . .
264(16) . . .
257(16) . . .
256(16) . . .
240(15) . . .
265(16) . . .
265(16) . . .
271(16) . . .
253(16) . . .
277(17) . . .
273(17) . . .
276(17) . . .
256(16) . . .
280(17) . . .
254(16) . . .
278(17) . . .
296(17) . . .
266(16) . . .
254(16) . . .
295(17) . . .
260(16) . . .
289(17) . . .
261(16) . . .
248(16) . . .
278(17) . . .
264(16) . . .
264(16) . . .
290(17) . . .
276(17) . . .
262(16) . . .
275(17) . . .
253(16) . . .
260(16) . . .
272(16) . . .
258(16) . . .
254(16) . . .
275(17) . . .
272(16) . . .
277(17) . . .
260(16) . . .
258(16) . . .
275(17) . . .
269(16) . . .
276(17) . . .
279(17) . . .
261(16) . . .
262(16) . . .
258(16) . . .
273(17) . . .
260(16) . . .
257(16) . . .
267(16) . . .
261(16) . . .
258(16) . . .
270(16) . . .
239(15) . . .
263(16) . . .
273(17) . . .
261(16) . . .
251(16) . . .
254(16) . . .
273(17) . . .
279(17) . . .
264(16) . . .
250(16) . . .
249(16) . . .
249(16) . . .
234(15) . . .
222(15) . . .
226(15) . . .
259(16) . . .
259(16) . . .
260(16) . . .
297(17) . . .
254(16) . . .
265(16) . . .
244(16) . . .
249(16) . . .
257(16) . . .
258(16) . . .
290(17) . . .
273(17) . . .
261(16) . . .
247(16) . . .
266(16) . . .
256(16) . . .
246(16) . . .
258(16) . . .
245(16) . . .
265(16) . . .
272(16) . . .
270(16) . . .
243(16) . . .
258(16) . . .
235(15) . . .
269(16) . . .
266(16) . . .
259(16) . . .
271(16) . . .
239(15) . . .
293(17) . . .
257(16) . . .
278(17) . . .
288(17) . . .
262(16) . . .
275(17) . . .
261(16) . . .
264(16) . . .
258(16) . . .
279(17) . . .
261(16) . . .
249(16) . . .
256(16) . . .
263(16) . . .
265(16) . . .
247(16) . . .
261(16) . . .
262(16) . . .
244(16) . . .
257(16) . . .
282(17) . . .
293(17) . . .
266(16) . . .
242(16) . . .
250(16) . . .
291(17) . . .
247(16) . . .
261(16) . . .
256(16) . . .
270(16) . . .
265(16) . . .
262(16) . . .
250(16) . . .
242(16) . . .
254(16) . . .
252(16) . . .
247(16) . . .
286(17) . . .
261(16) . . .
253(16) . . .
274(17) . . .
250(16) . . .
241(16) . . .
248(16) . . .
250(16) . . .
265(16) . . .
236(15) . . .
255(16) . . .
293(17) . . .
253(16) . . .
254(16) . . .
279(17) . . .
250(16) . . .
264(16) . . .
244(16) . . .
249(16) . . .
279(17) . . .
250(16) . . .
265(16) . . .
248(16) . . .
265(16) . . .
246(16) . . .
269(16) . . .
278(17) . . .
279(17) . . .
261(16) . . .
276(17) . . .
249(16) . . .
249(16) . . .
271(16) . . .
278(17) . . .
267(16) . . .
308(18) . . .
271(16) . . .
315(18) . . .
280(17) . . .
267(16) . . .
266(16) . . .
290(17) . . .
276(17) . . .
267(16) . . .
294(17) . . .
276(17) . . .
315(18) . . .
309(18) . . .
300(17) . . .
311(18) . . .
285(17) . . .
295(17) . . .
318(18) . . .
300(17) . . .
286(17) . . .
347(19) . . .
307(18) . . .
350(19) . . .
355(19) . . .
323(18) . . .
360(19) . . .
365(19) . . .
329(18) . . .
343(19) . . .
333(18) . . .
306(17) . . .
294(17) . . .
328(18) . . .
304(17) . . .
305(17) . . .
287(17) . . .
284(17) . . .
300(17) . . .
301(17) . . .
282(17) . . .
290(17) . . .
283(17) . . .
294(17) . . .
280(17) . . .
291(17) . . .
282(17) . . .
294(17) . . .
289(17) . . .
267(16) . . .
282(17) . . .
282(17) . . .
285(17) . . .
251(16) . . .
281(17) . . .
300(17) . . .
281(17) . . .
289(17) . . .
263(16) . . .
280(17) . . .
289(17) . . .
262(16) . . .
267(16) . . .
308(18) . . .
280(17) . . .
257(16) . . .
268(16) . . .
278(17) . . .
287(17) . . .
275(17) . . .
230(15) . . .
279(17) . . .
292(17) . . .
286(17) . . .
270(16) . . .
262(16) . . .
274(17) . . .
288(17) . . .
253(16) . . .
272(16) . . .
277(17) . . .
262(16) . . .
284(17) . . .
254(16) . . .
275(17) . . .
285(17) . . .
285(17) . . .
284(17) . . .
271(16) . . .
260(16) . . .
269(16) . . .
286(17) . . .
302(17) . . .
244(16) . . .
275(17) . . .
289(17) . . .
281(17) . . .
301(17) . . .
261(16) . . .
299(17) . . .
273(17) . . .
270(16) . . .
274(17) . . .
255(16) . . .
277(17) . . .
264(16) . . .
282(17) . . .
308(18) . . .
274(17) . . .
281(17) . . .
280(17) . . .
300(17) . . .
290(17) . . .
293(17) . . .
299(17) . . .
271(16) . . .
283(17) . . .
280(17) . . .
273(17) . . .
317(18) . . .
298(17) . . .
294(17) . . .
311(18) . . .
300(17) . . .
329(18) . . .
319(18) . . .
336(18) . . .
317(18) . . .
327(18) . . .
311(18) . . .
312(18) . . .
309(18) . . .
314(18) . . .
317(18) . . .
322(18) . . .
334(18) . . .
319(18) . . .
323(18) . . .
308(18) . . .
318(18) . . .
313(18) . . .
324(18) . . .
296(17) . . .
327(18) . . .
324(18) . . .
300(17) . . .
309(18) . . .
304(17) . . .
309(18) . . .
289(17) . . .
328(18) . . .
288(17) . . .
301(17) . . .
290(17) . . .
329(18) . . .
295(17) . . .
296(17) . . .
283(17) . . .
322(18) . . .
277(17) . . .
267(16) . . .
285(17) . . .
309(18) . . .
279(17) . . .
314(18) . . .
285(17) . . .
293(17) . . .
294(17) . . .
295(17) . . .
315(18) . . .
299(17) . . .
287(17) . . .
278(17) . . .
272(16) . . .
272(16) . . .
279(17) . . .
271(16) . . .
263(16) . . .
274(17) . . .
273(17) . . .
270(16) . . .
280(17) . . .
293(17) . . .
286(17) . . .
284(17) . . .
259(16) . . .
265(16) . . .
281(17) . . .
276(17) . . .
267(16) . . .
304(17) . . .
273(17) . . .
285(17) . . .
274(17) . . .
264(16) . . .
272(16) . . .
267(16) . . .
278(17) . . .
260(16) . . .
269(16) . . .
239(15) . . .
260(16) . . .
280(17) . . .
278(17) . . .
276(17) . . .
280(17) . . .
276(17) . . .
273(17) . . .
304(17) . . .
301(17) . . .
287(17) . . .
266(16) . . .
276(17) . . .
308(18) . . .
254(16) . . .
293(17) . . .
284(17) . . .
299(17) . . .
258(16) . . .
276(17) . . .
305(17) . . .
309(18) . . .
285(17) . . .
287(17) . . .
281(17) . . .
272(16) . . .
280(17) . . .
269(16) . . .
282(17) . . .
277(17) . . .
302(17) . . .
262(16) . . .
262(16) . . .
303(17) . . .
290(17) . . .
282(17) . . .
288(17) . . .
264(16) . . .
298(17) . . .
292(17) . . .
283(17) . . .
286(17) . . .
298(17) . . .
290(17) . . .
260(16) . . .
260(16) . . .
268(16) . . .
249(16) . . .
284(17) . . .
284(17) . . .
260(16) . . .
271(16) . . .
281(17) . . .
266(16) . . .
291(17) . . .
294(17) . . .
280(17) . . .
260(16) . . .
259(16) . . .
283(17) . . .
278(17) . . .
278(17) . . .
275(17) . . .
261(16) . . .
265(16) . . .
279(17) . . .
270(16) . . .
245(16) . . .
279(17) . . .
266(16) . . .
290(17) . . .
255(16) . . .
258(16) . . .
276(17) . . .
264(16) . . .
275(17) . . .
276(17) . . .
260(16) . . .
302(17) . . .
298(17) . . .
303(17) . . .
261(16) . . .
256(16) . . .
291(17) . . .
278(17) . . .
288(17) . . .
302(17) . . .
240(15) . . .
255(16) . . .
262(16) . . .
288(17) . . .
270(16) . . .
300(17) . . .
281(17) . . .
267(16) . . .
291(17) . . .
266(16) . . .
241(16) . . .
273(17) . . .
295(17) . . .
278(17) . . .
277(17) . . .
281(17) . . .
300(17) . . .
269(16) . . .
272(16) . . .
294(17) . . .
274(17) . . .
279(17) . . .
275(17) . . .
293(17) . . .
282(17) . . .
287(17) . . .
285(17) . . .
296(17) . . .
278(17) . . .
269(16) . . .
277(17) . . .
273(17) . . .
325(18) . . .
291(17) . . .
283(17) . . .
283(17) . . .
297(17) . . .
292(17) . . .
341(18) . . .
292(17) . . .
271(16) . . .
308(18) . . .
300(17) . . .
281(17) . . .
288(17) . . .
310(18) . . .
324(18) . . .
319(18) . . .
304(17) . . .
303(17) . . .
302(17) . . .
301(17) . . .
291(17) . . .
291(17) . . .
305(17) . . .
304(17) . . .
318(18) . . .
304(17) . . .
304(17) . . .
328(18) . . .
323(18) . . .
306(17) . . .
318(18) . . .
313(18) . . .
328(18) . . .
332(18) . . .
316(18) . . .
284(17) . . .
298(17) . . .
333(18) . . .
305(17) . . .
302(17) . . .
300(17) . . .
342(18) . . .
331(18) . . .
324(18) . . .
305(17) . . .
330(18) . . .
311(18) . . .
319(18) . . .
339(18) . . .
328(18) . . .
378(19) . . .
371(19) . . .
332(18) . . .
328(18) . . .
339(18) . . .
330(18) . . .
334(18) . . .
373(19) . . .
323(18) . . .
338(18) . . .
360(19) . . .
351(19) . . .
365(19) . . .
364(19) . . .
366(19) . . .
367(19) . . .
362(19) . . .
368(19) . . .
364(19) . . .
403(20) . . .
386(20) . . .
429(21) . . .
402(20) . . .
380(19) . . .
409(20) . . .
380(19) . . .
413(20) . . .
370(19) . . .
408(20) . . .
436(21) . . .
415(20) . . .
414(20) . . .
411(20) . . .
437(21) . . .
481(22) . . .
463(22) . . .
451(21) . . .
435(21) . . .
468(22) . . .
458(21) . . .
493(22) . . .
511(23) . . .
533(23) . . .
502(22) . . .
524(23) . . .
552(23) . . .
583(24) . . .
567(24) . . .
565(24) . . .
656(26) . . .
682(26) . . .
711(27) . . .
762(28) . . .
742(27) . . .
780(28) . . .
848(29) . . .
867(29) . . .
938(31) . . .
909(30) . . .
1001(32) . . .
1067(33) . . .
1217(35) . . .
1293(36) . . .
1409(38) . . .
1580(40) . . .
1679(41) . . .
1805(42) . . .
2103(46) . . .
2308(48) . . .
2447(49) . . .
2925(54) . . .
3280(57) . . .
3816(62) . . .
4329(66) . . .
5136(72) . . .
6082(78) . . .
7158(85) . . .
8586(93) . . .
10220(100) . . .
11980(110) . . .
13920(120) . . .
15800(130) . . .
17560(130) . . .
18770(140) . . .
19520(140) . . .
19430(140) . . .
18790(140) . . .
17420(130) . . .
15750(130) . . .
13740(120) . . .
11750(110) . . .
10160(100) . . .
8223(91) . . .
7075(84) . . .
5991(77) . . .
5208(72) . . .
4282(65) . . .
3784(62) . . .
3223(57) . . .
2799(53) . . .
2596(51) . . .
2299(48) . . .
2038(45) . . .
1767(42) . . .
1627(40) . . .
1478(38) . . .
1435(38) . . .
1245(35) . . .
1157(34) . . .
1033(32) . . .
988(31) . . .
951(31) . . .
864(29) . . .
819(29) . . .
779(28) . . .
772(28) . . .
740(27) . . .
719(27) . . .
669(26) . . .
640(25) . . .
601(25) . . .
599(24) . . .
563(24) . . .
589(24) . . .
522(23) . . .
517(23) . . .
496(22) . . .
513(23) . . .
467(22) . . .
470(22) . . .
457(21) . . .
459(21) . . .
436(21) . . .
445(21) . . .
423(21) . . .
461(21) . . .
417(20) . . .
425(21) . . .
430(21) . . .
422(21) . . .
380(19) . . .
408(20) . . .
401(20) . . .
408(20) . . .
405(20) . . .
399(20) . . .
386(20) . . .
389(20) . . .
369(19) . . .
388(20) . . .
348(19) . . .
364(19) . . .
367(19) . . .
342(18) . . .
352(19) . . .
346(19) . . .
345(19) . . .
366(19) . . .
345(19) . . .
359(19) . . .
327(18) . . .
347(19) . . .
370(19) . . .
340(18) . . .
347(19) . . .
323(18) . . .
366(19) . . .
342(18) . . .
331(18) . . .
344(19) . . .
329(18) . . .
345(19) . . .
320(18) . . .
295(17) . . .
326(18) . . .
318(18) . . .
333(18) . . .
321(18) . . .
315(18) . . .
306(17) . . .
325(18) . . .
337(18) . . .
298(17) . . .
313(18) . . .
328(18) . . .
323(18) . . .
318(18) . . .
323(18) . . .
320(18) . . .
289(17) . . .
337(18) . . .
330(18) . . .
314(18) . . .
337(18) . . .
311(18) . . .
298(17) . . .
308(18) . . .
264(16) . . .
292(17) . . .
323(18) . . .
348(19) . . .
279(17) . . .
303(17) . . .
308(18) . . .
315(18) . . .
318(18) . . .
289(17) . . .
312(18) . . .
294(17) . . .
290(17) . . .
325(18) . . .
292(17) . . .
288(17) . . .
291(17) . . .
309(18) . . .
280(17) . . .
300(17) . . .
303(17) . . .
302(17) . . .
297(17) . . .
304(17) . . .
298(17) . . .
272(16) . . .
307(18) . . .
282(17) . . .
288(17) . . .
288(17) . . .
279(17) . . .
281(17) . . .
272(16) . . .
293(17) . . .
295(17) . . .
287(17) . . .
289(17) . . .
289(17) . . .
302(17) . . .
312(18) . . .
284(17) . . .
273(17) . . .
292(17) . . .
288(17) . . .
286(17) . . .
306(17) . . .
300(17) . . .
276(17) . . .
310(18) . . .
291(17) . . .
298(17) . . .
277(17) . . .
290(17) . . .
296(17) . . .
284(17) . . .
318(18) . . .
259(16) . . .
294(17) . . .
288(17) . . .
308(18) . . .
310(18) . . .
250(16) . . .
274(17) . . .
266(16) . . .
286(17) . . .
278(17) . . .
286(17) . . .
278(17) . . .
277(17) . . .
279(17) . . .
284(17) . . .
292(17) . . .
292(17) . . .
299(17) . . .
266(16) . . .
304(17) . . .
277(17) . . .
292(17) . . .
255(16) . . .
268(16) . . .
291(17) . . .
324(18) . . .
270(16) . . .
286(17) . . .
299(17) . . .
284(17) . . .
264(16) . . .
286(17) . . .
303(17) . . .
306(17) . . .
294(17) . . .
309(18) . . .
280(17) . . .
287(17) . . .
325(18) . . .
292(17) . . .
288(17) . . .
279(17) . . .
303(17) . . .
309(18) . . .
280(17) . . .
271(16) . . .
289(17) . . .
262(16) . . .
290(17) . . .
278(17) . . .
271(16) . . .
263(16) . . .
268(16) . . .
277(17) . . .
288(17) . . .
244(16) . . .
283(17) . . .
276(17) . . .
291(17) . . .
272(16) . . .
302(17) . . .
256(16) . . .
271(16) . . .
273(17) . . .
273(17) . . .
274(17) . . .
247(16) . . .
259(16) . . .
293(17) . . .
291(17) . . .
281(17) . . .
251(16) . . .
259(16) . . .
263(16) . . .
265(16) . . .
273(17) . . .
280(17) . . .
271(16) . . .
259(16) . . .
267(16) . . .
290(17) . . .
258(16) . . .
267(16) . . .
301(17) . . .
282(17) . . .
292(17) . . .
271(16) . . .
287(17) . . .
283(17) . . .
271(16) . . .
295(17) . . .
281(17) . . .
273(17) . . .
228(15) . . .
261(16) . . .
277(17) . . .
264(16) . . .
262(16) . . .
255(16) . . .
280(17) . . .
258(16) . . .
258(16) . . .
261(16) . . .
240(15) . . .
278(17) . . .
259(16) . . .
268(16) . . .
269(16) . . .
289(17) . . .
266(16) . . .
280(17) . . .
263(16) . . .
259(16) . . .
248(16) . . .
266(16) . . .
252(16) . . .
280(17) . . .
243(16) . . .
282(17) . . .
261(16) . . .
280(17) . . .
279(17) . . .
266(16) . . .
264(16) . . .
280(17) . . .
271(16) . . .
275(17) . . .
239(15) . . .
263(16) . . .
254(16) . . .
296(17) . . .
251(16) . . .
267(16) . . .
285(17) . . .
275(17) . . .
278(17) . . .
246(16) . . .
259(16) . . .
270(16) . . .
252(16) . . .
268(16) . . .
250(16) . . .
250(16) . . .
254(16) . . .
253(16) . . .
257(16) . . .
276(17) . . .
285(17) . . .
269(16) . . .
256(16) . . .
249(16) . . .
254(16) . . .
240(15) . . .
248(16) . . .
258(16) . . .
242(16) . . .
253(16) . . .
266(16) . . .
279(17) . . .
247(16) . . .
270(16) . . .
272(16) . . .
247(16) . . .
251(16) . . .
269(16) . . .
254(16) . . .
266(16) . . .
244(16) . . .
265(16) . . .
233(15) . . .
272(16) . . .
225(15) . . .
255(16) . . .
245(16) . . .
253(16) . . .
256(16) . . .
244(16) . . .
239(15) . . .
247(16) . . .
265(16) . . .
239(15) . . .
261(16) . . .
281(17) . . .
251(16) . . .
247(16) . . .
257(16) . . .
254(16) . . .
261(16) . . .
247(16) . . .
266(16) . . .
262(16) . . .
253(16) . . .
247(16) . . .
236(15) . . .
256(16) . . .
262(16) . . .
255(16) . . .
259(16) . . .
279(17) . . .
251(16) . . .
257(16) . . .
283(17) . . .
271(16) . . .
267(16) . . .
240(15) . . .
274(17) . . .
259(16) . . .
256(16) . . .
285(17) . . .
252(16) . . .
252(16) . . .
249(16) . . .
256(16) . . .
243(16) . . .
273(17) . . .
247(16) . . .
253(16) . . .
262(16) . . .
282(17) . . .
262(16) . . .
256(16) . . .
266(16) . . .
268(16) . . .
254(16) . . .
269(16) . . .
275(17) . . .
274(17) . . .
255(16) . . .
248(16) . . .
272(16) . . .
243(16) . . .
256(16) . . .
239(15) . . .
273(17) . . .
252(16) . . .
267(16) . . .
242(16) . . .
244(16) . . .
273(17) . . .
241(16) . . .
259(16) . . .
234(15) . . .
259(16) . . .
248(16) . . .
273(17) . . .
263(16) . . .
247(16) . . .
225(15) . . .
239(15) . . .
240(15) . . .
254(16) . . .
256(16) . . .
244(16) . . .
244(16) . . .
224(15) . . .
251(16) . . .
232(15) . . .
241(16) . . .
233(15) . . .
255(16) . . .
248(16) . . .
276(17) . . .
232(15) . . .
233(15) . . .
238(15) . . .
271(16) . . .
233(15) . . .
257(16) . . .
278(17) . . .
239(15) . . .
245(16) . . .
248(16) . . .
264(16) . . .
255(16) . . .
245(16) . . .
249(16) . . .
234(15) . . .
260(16) . . .
270(16) . . .
241(16) . . .
258(16) . . .
265(16) . . .
245(16) . . .
247(16) . . .
259(16) . . .
245(16) . . .
277(17) . . .
258(16) . . .
236(15) . . .
240(15) . . .
259(16) . . .
233(15) . . .
247(16) . . .
247(16) . . .
268(16) . . .
251(16) . . .
233(15) . . .
251(16) . . .
252(16) . . .
250(16) . . .
263(16) . . .
247(16) . . .
245(16) . . .
244(16) . . .
264(16) . . .
259(16) . . .
242(16) . . .
242(16) . . .
253(16) . . .
248(16) . . .
253(16) . . .
264(16) . . .
271(16) . . .
257(16) . . .
253(16) . . .
252(16) . . .
275(17) . . .
246(16) . . .
235(15) . . .
261(16) . . .
252(16) . . .
234(15) . . .
239(15) . . .
242(16) . . .
253(16) . . .
230(15) . . .
254(16) . . .
278(17) . . .
237(15) . . .
270(16) . . .
245(16) . . .
255(16) . . .
220(15) . . .
237(15) . . .
234(15) . . .
240(15) . . .
260(16) . . .
238(15) . . .
262(16) . . .
252(16) . . .
266(16) . . .
246(16) . . .
282(17) . . .
208(14) . . .
242(16) . . .
258(16) . . .
260(16) . . .
268(16) . . .
248(16) . . .
233(15) . . .
261(16) . . .
258(16) . . .
261(16) . . .
253(16) . . .
259(16) . . .
275(17) . . .
251(16) . . .
307(18) . . .
279(17) . . .
279(17) . . .
272(16) . . .
260(16) . . .
280(17) . . .
275(17) . . .
271(16) . . .
285(17) . . .
282(17) . . .
288(17) . . .
273(17) . . .
295(17) . . .
277(17) . . .
284(17) . . .
300(17) . . .
286(17) . . .
282(17) . . .
277(17) . . .
302(17) . . .
263(16) . . .
284(17) . . .
298(17) . . .
274(17) . . .
294(17) . . .
279(17) . . .
286(17) . . .
284(17) . . .
295(17) . . .
265(16) . . .
288(17) . . .
290(17) . . .
283(17) . . .
281(17) . . .
260(16) . . .
276(17) . . .
246(16) . . .
261(16) . . .
288(17) . . .
253(16) . . .
236(15) . . .
256(16) . . .
283(17) . . .
295(17) . . .
267(16) . . .
257(16) . . .
278(17) . . .
269(16) . . .
287(17) . . .
268(16) . . .
249(16) . . .
247(16) . . .
259(16) . . .
262(16) . . .
264(16) . . .
291(17) . . .
260(16) . . .
251(16) . . .
266(16) . . .
293(17) . . .
289(17) . . .
261(16) . . .
258(16) . . .
235(15) . . .
265(16) . . .
286(17) . . .
270(16) . . .
238(15) . . .
253(16) . . .
280(17) . . .
269(16) . . .
257(16) . . .
280(17) . . .
280(17) . . .
250(16) . . .
283(17) . . .
285(17) . . .
293(17) . . .
247(16) . . .
257(16) . . .
258(16) . . .
267(16) . . .
242(16) . . .
279(17) . . .
259(16) . . .
284(17) . . .
269(16) . . .
260(16) . . .
268(16) . . .
250(16) . . .
282(17) . . .
267(16) . . .
269(16) . . .
274(17) . . .
275(17) . . .
281(17) . . .
241(16) . . .
257(16) . . .
246(16) . . .
261(16) . . .
263(16) . . .
258(16) . . .
287(17) . . .
269(16) . . .
292(17) . . .
285(17) . . .
260(16) . . .
277(17) . . .
244(16) . . .
251(16) . . .
257(16) . . .
235(15) . . .
278(17) . . .
269(16) . . .
260(16) . . .
265(16) . . .
282(17) . . .
268(16) . . .
277(17) . . .
244(16) . . .
258(16) . . .
278(17) . . .
266(16) . . .
263(16) . . .
273(17) . . .
249(16) . . .
271(16) . . .
255(16) . . .
255(16) . . .
272(16) . . .
240(15) . . .
278(17) . . .
246(16) . . .
279(17) . . .
272(16) . . .
238(15) . . .
246(16) . . .
263(16) . . .
269(16) . . .
284(17) . . .
251(16) . . .
252(16) . . .
270(16) . . .
291(17) . . .
256(16) . . .
257(16) . . .
278(17) . . .
276(17) . . .
247(16) . . .
248(16) . . .
226(15) . . .
247(16) . . .
243(16) . . .
247(16) . . .
246(16) . . .
263(16) . . .
280(17) . . .
261(16) . . .
246(16) . . .
233(15) . . .
249(16) . . .
251(16) . . .
238(15) . . .
237(15) . . .
248(16) . . .
257(16) . . .
251(16) . . .
251(16) . . .
261(16) . . .
245(16) . . .
221(15) . . .
229(15) . . .
258(16) . . .
250(16) . . .
247(16) . . .
247(16) . . .
241(16) . . .
245(16) . . .
235(15) . . .
241(16) . . .
247(16) . . .
226(15) . . .
247(16) . . .
234(15) . . .
262(16) . . .
247(16) . . .
243(16) . . .
263(16) . . .
234(15) . . .
238(15) . . .
246(16) . . .
252(16) . . .
237(15) . . .
247(16) . . .
241(16) . . .
255(16) . . .
241(16) . . .
243(16) . . .
249(16) . . .
242(16) . . .
235(15) . . .
231(15) . . .
246(16) . . .
260(16) . . .
234(15) . . .
238(15) . . .
255(16) . . .
239(15) . . .
225(15) . . .
250(16) . . .
251(16) . . .
251(16) . . .
248(16) . . .
256(16) . . .
252(16) . . .
253(16) . . .
240(15) . . .
262(16) . . .
249(16) . . .
238(15) . . .
250(16) . . .
229(15) . . .
248(16) . . .
241(16) . . .
267(16) . . .
229(15) . . .
239(15) . . .
241(16) . . .
226(15) . . .
243(16) . . .
248(16) . . .
299(17) . . .
223(15) . . .
263(16) . . .
242(16) . . .
249(16) . . .
250(16) . . .
248(16) . . .
240(15) . . .
243(16) . . .
242(16) . . .
262(16) . . .
258(16) . . .
258(16) . . .
223(15) . . .
246(16) . . .
246(16) . . .
246(16) . . .
250(16) . . .
272(16) . . .
248(16) . . .
254(16) . . .
226(15) . . .
250(16) . . .
241(16) . . .
261(16) . . .
230(15) . . .
227(15) . . .
262(16) . . .
227(15) . . .
262(16) . . .
247(16) . . .
241(16) . . .
245(16) . . .
260(16) . . .
245(16) . . .
265(16) . . .
258(16) . . .
258(16) . . .
219(15) . . .
243(16) . . .
227(15) . . .
248(16) . . .
269(16) . . .
246(16) . . .
243(16) . . .
228(15) . . .
224(15) . . .
246(16) . . .
257(16) . . .
240(15) . . .
255(16) . . .
226(15) . . .
269(16) . . .
266(16) . . .
262(16) . . .
234(15) . . .
241(16) . . .
230(15) . . .
272(16) . . .
249(16) . . .
258(16) . . .
271(16) . . .
255(16) . . .
261(16) . . .
236(15) . . .
233(15) . . .
290(17) . . .
254(16) . . .
243(16) . . .
259(16) . . .
227(15) . . .
255(16) . . .
252(16) . . .
292(17) . . .
247(16) . . .
242(16) . . .
255(16) . . .
284(17) . . .
273(17) . . .
240(15) . . .
292(17) . . .
247(16) . . .
237(15) . . .
239(15) . . .
254(16) . . .
240(15) . . .
278(17) . . .
256(16) . . .
256(16) . . .
259(16) . . .
266(16) . . .
257(16) . . .
240(15) . . .
263(16) . . .
227(15) . . .
254(16) . . .
225(15) . . .
263(16) . . .
269(16) . . .
270(16) . . .
249(16) . . .
244(16) . . .
271(16) . . .
249(16) . . .
264(16) . . .
247(16) . . .
250(16) . . .
258(16) . . .
236(15) . . .
256(16) . . .
282(17) . . .
265(16) . . .
243(16) . . .
258(16) . . .
270(16) . . .
255(16) . . .
266(16) . . .
236(15) . . .
258(16) . . .
240(15) . . .
243(16) . . .
251(16) . . .
237(15) . . .
255(16) . . .
252(16) . . .
278(17) . . .
237(15) . . .
262(16) . . .
236(15) . . .
274(17) . . .
227(15) . . .
256(16) . . .
254(16) . . .
275(17) . . .
237(15) . . .
232(15) . . .
278(17) . . .
237(15) . . .
236(15) . . .
241(16) . . .
250(16) . . .
243(16) . . .
238(15) . . .
244(16) . . .
265(16) . . .
256(16) . . .
269(16) . . .
260(16) . . .
256(16) . . .
289(17) . . .
247(16) . . .
252(16) . . .
243(16) . . .
243(16) . . .
259(16) . . .
270(16) . . .
244(16) . . .
270(16) . . .
264(16) . . .
248(16) . . .
252(16) . . .
254(16) . . .
245(16) . . .
262(16) . . .
279(17) . . .
279(17) . . .
272(16) . . .
240(15) . . .
279(17) . . .
245(16) . . .
251(16) . . .
273(17) . . .
256(16) . . .
260(16) . . .
245(16) . . .
256(16) . . .
293(17) . . .
241(16) . . .
265(16) . . .
275(17) . . .
255(16) . . .
287(17) . . .
272(16) . . .
252(16) . . .
273(17) . . .
286(17) . . .
244(16) . . .
274(17) . . .
273(17) . . .
270(16) . . .
292(17) . . .
271(16) . . .
268(16) . . .
293(17) . . .
263(16) . . .
275(17) . . .
262(16) . . .
287(17) . . .
281(17) . . .
285(17) . . .
294(17) . . .
286(17) . . .
291(17) . . .
302(17) . . .
307(18) . . .
292(17) . . .
317(18) . . .
311(18) . . .
283(17) . . .
315(18) . . .
311(18) . . .
303(17) . . .
329(18) . . .
318(18) . . .
343(19) . . .
319(18) . . .
318(18) . . .
374(19) . . .
363(19) . . .
354(19) . . .
382(20) . . .
368(19) . . .
350(19) . . .
381(20) . . .
397(20) . . .
379(19) . . .
436(21) . . .
433(21) . . .
441(21) . . .
487(22) . . .
486(22) . . .
470(22) . . .
518(23) . . .
536(23) . . .
552(23) . . .
645(25) . . .
659(26) . . .
650(25) . . .
675(26) . . .
787(28) . . .
805(28) . . .
853(29) . . .
915(30) . . .
1043(32) . . .
1089(33) . . .
1221(35) . . .
1391(37) . . .
1551(39) . . .
1770(42) . . .
2034(45) . . .
2219(47) . . .
2756(52) . . .
3191(56) . . .
3727(61) . . .
4335(66) . . .
5071(71) . . .
6093(78) . . .
6874(83) . . .
7767(88) . . .
8334(91) . . .
8976(95) . . .
9198(96) . . .
9083(95) . . .
8472(92) . . .
7709(88) . . .
6965(83) . . .
5965(77) . . .
5050(71) . . .
4287(65) . . .
3640(60) . . .
3070(55) . . .
2679(52) . . .
2350(48) . . .
2031(45) . . .
1775(42) . . .
1544(39) . . .
1340(37) . . .
1289(36) . . .
1158(34) . . .
969(31) . . .
923(30) . . .
872(30) . . .
778(28) . . .
743(27) . . .
697(26) . . .
663(26) . . .
609(25) . . .
589(24) . . .
582(24) . . .
530(23) . . .
522(23) . . .
508(23) . . .
475(22) . . .
434(21) . . .
417(20) . . .
412(20) . . .
426(21) . . .
412(20) . . .
374(19) . . .
363(19) . . .
352(19) . . .
358(19) . . .
358(19) . . .
363(19) . . .
333(18) . . .
310(18) . . .
351(19) . . .
332(18) . . .
304(17) . . .
311(18) . . .
298(17) . . .
324(18) . . .
266(16) . . .
312(18) . . .
292(17) . . .
309(18) . . .
292(17) . . .
298(17) . . .
300(17) . . .
307(18) . . .
294(17) . . .
300(17) . . .
276(17) . . .
275(17) . . .
259(16) . . .
272(16) . . .
278(17) . . .
286(17) . . .
271(16) . . .
271(16) . . .
252(16) . . .
239(15) . . .
294(17) . . .
280(17) . . .
271(16) . . .
266(16) . . .
275(17) . . .
251(16) . . .
277(17) . . .
266(16) . . .
267(16) . . .
274(17) . . .
255(16) . . .
275(17) . . .
283(17) . . .
270(16) . . .
270(16) . . .
258(16) . . .
271(16) . . .
269(16) . . .
271(16) . . .
258(16) . . .
281(17) . . .
234(15) . . .
282(17) . . .
258(16) . . .
280(17) . . .
225(15) . . .
271(16) . . .
248(16) . . .
249(16) . . .
248(16) . . .
260(16) . . .
257(16) . . .
281(17) . . .
267(16) . . .
247(16) . . .
257(16) . . .
256(16) . . .
252(16) . . .
241(16) . . .
248(16) . . .
217(15) . . .
234(15) . . .
261(16) . . .
222(15) . . .
235(15) . . .
259(16) . . .
221(15) . . .
229(15) . . .
228(15) . . .
235(15) . . .
263(16) . . .
246(16) . . .
243(16) . . .
236(15) . . .
225(15) . . .
234(15) . . .
231(15) . . .
255(16) . . .
229(15) . . .
249(16) . . .
247(16) . . .
251(16) . . .
249(16) . . .
251(16) . . .
237(15) . . .
238(15) . . .
250(16) . . .
228(15) . . .
249(16) . . .
237(15) . . .
239(15) . . .
237(15) . . .
242(16) . . .
248(16) . . .
236(15) . . .
257(16) . . .
245(16) . . .
230(15) . . .
239(15) . . .
218(15) . . .
240(15) . . .
239(15) . . .
243(16) . . .
234(15) . . .
248(16) . . .
218(15) . . .
209(14) . . .
209(14) . . .
207(14) . . .
249(16) . . .
253(16) . . .
223(15) . . .
236(15) . . .
244(16) . . .
207(14) . . .
208(14) . . .
214(15) . . .
222(15) . . .
236(15) . . .
236(15) . . .
231(15) . . .
233(15) . . .
216(15) . . .
244(16) . . .
266(16) . . .
256(16) . . .
232(15) . . .
236(15) . . .
235(15) . . .
230(15) . . .
250(16) . . .
236(15) . . .
217(15) . . .
256(16) . . .
229(15) . . .
228(15) . . .
239(15) . . .
232(15) . . .
243(16) . . .
216(15) . . .
239(15) . . .
243(16) . . .
222(15) . . .
250(16) . . .
244(16) . . .
227(15) . . .
233(15) . . .
236(15) . . .
263(16) . . .
270(16) . . .
244(16) . . .
261(16) . . .
213(15) . . .
242(16) . . .
218(15) . . .
242(16) . . .
233(15) . . .
233(15) . . .
230(15) . . .
248(16) . . .
229(15) . . .
215(15) . . .
222(15) . . .
222(15) . . .
256(16) . . .
229(15) . . .
225(15) . . .
227(15) . . .
218(15) . . .
246(16) . . .
244(16) . . .
203(14) . . .
224(15) . . .
219(15) . . .
258(16) . . .
223(15) . . .
240(15) . . .
234(15) . . .
236(15) . . .
221(15) . . .
242(16) . . .
241(16) . . .
234(15) . . .
207(14) . . .
227(15) . . .
220(15) . . .
224(15) . . .
237(15) . . .
220(15) . . .
222(15) . . .
203(14) . . .
209(14) . . .
214(15) . . .
232(15) . . .
231(15) . . .
225(15) . . .
211(15) . . .
211(15) . . .
214(15) . . .
221(15) . . .
215(15) . . .
218(15) . . .
223(15) . . .
215(15) . . .
235(15) . . .
227(15) . . .
229(15) . . .
232(15) . . .
221(15) . . .
197(14) . . .
217(15) . . .
218(15) . . .
226(15) . . .
221(15) . . .
223(15) . . .
208(14) . . .
213(15) . . .
227(15) . . .
218(15) . . .
234(15) . . .
233(15) . . .
221(15) . . .
217(15) . . .
255(16) . . .
214(15) . . .
246(16) . . .
214(15) . . .
251(16) . . .
225(15) . . .
218(15) . . .
209(14) . . .
222(15) . . .
224(15) . . .
223(15) . . .
217(15) . . .
236(15) . . .
225(15) . . .
246(16) . . .
248(16) . . .
228(15) . . .
231(15) . . .
239(15) . . .
217(15) . . .
240(15) . . .
248(16) . . .
228(15) . . .
236(15) . . .
257(16) . . .
236(15) . . .
214(15) . . .
203(14) . . .
225(15) . . .
216(15) . . .
215(15) . . .
216(15) . . .
251(16) . . .
232(15) . . .
241(16) . . .
251(16) . . .
224(15) . . .
206(14) . . .
232(15) . . .
230(15) . . .
221(15) . . .
215(15) . . .
234(15) . . .
224(15) . . .
229(15) . . .
235(15) . . .
206(14) . . .
238(15) . . .
216(15) . . .
226(15) . . .
220(15) . . .
255(16) . . .
205(14) . . .
215(15) . . .
200(14) . . .
225(15) . . .
218(15) . . .
213(15) . . .
203(14) . . .
244(16) . . .
241(16) . . .
213(15) . . .
230(15) . . .
228(15) . . .
209(14) . . .
216(15) . . .
225(15) . . .
232(15) . . .
202(14) . . .
223(15) . . .
228(15) . . .
217(15) . . .
222(15) . . .
246(16) . . .
224(15) . . .
228(15) . . .
206(14) . . .
230(15) . . .
219(15) . . .
197(14) . . .
224(15) . . .
226(15) . . .
226(15) . . .
241(16) . . .
212(15) . . .
216(15) . . .
227(15) . . .
215(15) . . .
205(14) . . .
225(15) . . .
222(15) . . .
241(16) . . .
219(15) . . .
242(16) . . .
225(15) . . .
222(15) . . .
230(15) . . .
202(14) . . .
237(15) . . .
206(14) . . .
237(15) . . .
222(15) . . .
228(15) . . .
214(15) . . .
235(15) . . .
204(14) . . .
231(15) . . .
234(15) . . .
205(14) . . .
210(14) . . .
218(15) . . .
218(15) . . .
217(15) . . .
217(15) . . .
241(16) . . .
227(15) . . .
221(15) . . .
229(15) . . .
213(15) . . .
228(15) . . .
221(15) . . .
202(14) . . .
235(15) . . .
213(15) . . .
220(15) . . .
218(15) . . .
222(15) . . .
204(14) . . .
229(15) . . .
227(15) . . .
216(15) . . .
248(16) . . .
207(14) . . .
219(15) . . .
206(14) . . .
211(15) . . .
229(15) . . .
220(15) . . .
213(15) . . .
206(14) . . .
200(14) . . .
232(15) . . .
242(16) . . .
200(14) . . .
198(14) . . .
209(14) . . .
206(14) . . .
223(15) . . .
218(15) . . .
209(14) . . .
226(15) . . .
213(15) . . .
221(15) . . .
220(15) . . .
231(15) . . .
218(15) . . .
219(15) . . .
178(13) . . .
202(14) . . .
217(15) . . .
233(15) . . .
218(15) . . .
215(15) . . .
220(15) . . .
218(15) . . .
205(14) . . .
212(15) . . .
220(15) . . .
197(14) . . .
234(15) . . .
239(15) . . .
238(15) . . .
237(15) . . .
211(15) . . .
225(15) . . .
252(16) . . .
256(16) . . .
232(15) . . .
236(15) . . .
268(16) . . .
238(15) . . .
268(16) . . .
226(15) . . .
228(15) . . .
251(16) . . .
226(15) . . .
242(16) . . .
241(16) . . .
228(15) . . .
244(16) . . .
229(15) . . .
225(15) . . .
244(16) . . .
227(15) . . .
229(15) . . .
204(14) . . .
238(15) . . .
217(15) . . .
242(16) . . .
218(15) . . .
221(15) . . .
225(15) . . .
222(15) . . .
236(15) . . .
234(15) . . .
233(15) . . .
265(16) . . .
260(16) . . .
228(15) . . .
235(15) . . .
241(16) . . .
221(15) . . .
224(15) . . .
231(15) . . .
251(16) . . .
245(16) . . .
229(15) . . .
228(15) . . .
249(16) . . .
237(15) . . .
217(15) . . .
231(15) . . .
233(15) . . .
214(15) . . .
257(16) . . .
211(15) . . .
235(15) . . .
226(15) . . .
190(14) . . .
230(15) . . .
220(15) . . .
222(15) . . .
214(15) . . .
216(15) . . .
242(16) . . .
234(15) . . .
238(15) . . .
201(14) . . .
213(15) . . .
218(15) . . .
230(15) . . .
221(15) . . .
217(15) . . .
217(15) . . .
217(15) . . .
229(15) . . .
224(15) . . .
232(15) . . .
203(14) . . .
201(14) . . .
189(14) . . .
221(15) . . .
220(15) . . .
199(14) . . .
225(15) . . .
210(14) . . .
218(15) . . .
224(15) . . .
210(14) . . .
225(15) . . .
216(15) . . .
242(16) . . .
215(15) . . .
222(15) . . .
204(14) . . .
227(15) . . .
224(15) . . .
209(14) . . .
200(14) . . .
227(15) . . .
210(14) . . .
202(14) . . .
227(15) . . .
205(14) . . .
211(15) . . .
228(15) . . .
197(14) . . .
217(15) . . .
202(14) . . .
216(15) . . .
200(14) . . .
206(14) . . .
240(15) . . .
200(14) . . .
198(14) . . .
222(15) . . .
225(15) . . .
204(14) . . .
248(16) . . .
196(14) . . .
204(14) . . .
220(15) . . .
204(14) . . .
205(14) . . .
202(14) . . .
187(14) . . .
220(15) . . .
209(14) . . .
195(14) . . .
199(14) . . .
208(14) . . .
199(14) . . .
221(15) . . .
222(15) . . .
171(13) . . .
196(14) . . .
196(14) . . .
233(15) . . .
217(15) . . .
203(14) . . .
199(14) . . .
204(14) . . .
214(15) . . .
215(15) . . .
220(15) . . .
196(14) . . .
200(14) . . .
220(15) . . .
223(15) . . .
201(14) . . .
214(15) . . .
198(14) . . .
203(14) . . .
222(15) . . .
211(15) . . .
221(15) . . .
192(14) . . .
222(15) . . .
184(14) . . .
206(14) . . .
243(16) . . .
215(15) . . .
188(14) . . .
218(15) . . .
212(15) . . .
196(14) . . .
202(14) . . .
220(15) . . .
209(14) . . .
238(15) . . .
196(14) . . .
222(15) . . .
206(14) . . .
198(14) . . .
225(15) . . .
221(15) . . .
231(15) . . .
245(16) . . .
191(14) . . .
233(15) . . .
207(14) . . .
248(16) . . .
231(15) . . .
238(15) . . .
209(14) . . .
212(15) . . .
231(15) . . .
216(15) . . .
207(14) . . .
229(15) . . .
211(15) . . .
224(15) . . .
213(15) . . .
203(14) . . .
227(15) . . .
225(15) . . .
198(14) . . .
215(15) . . .
203(14) . . .
193(14) . . .
221(15) . . .
203(14) . . .
221(15) . . .
204(14) . . .
237(15) . . .
209(14) . . .
208(14) . . .
222(15) . . .
187(14) . . .
205(14) . . .
211(15) . . .
216(15) . . .
213(15) . . .
227(15) . . .
217(15) . . .
216(15) . . .
218(15) . . .
197(14) . . .
203(14) . . .
226(15) . . .
218(15) . . .
215(15) . . .
186(14) . . .
220(15) . . .
206(14) . . .
211(15) . . .
204(14) . . .
214(15) . . .
208(14) . . .
212(15) . . .
198(14) . . .
206(14) . . .
217(15) . . .
212(15) . . .
208(14) . . .
197(14) . . .
215(15) . . .
210(14) . . .
215(15) . . .
196(14) . . .
215(15) . . .
213(15) . . .
232(15) . . .
209(14) . . .
225(15) . . .
220(15) . . .
222(15) . . .
183(14) . . .
205(14) . . .
202(14) . . .
215(15) . . .
224(15) . . .
206(14) . . .
206(14) . . .
188(14) . . .
202(14) . . .
235(15) . . .
195(14) . . .
206(14) . . .
211(15) . . .
175(13) . . .
205(14) . . .
212(15) . . .
220(15) . . .
213(15) . . .
218(15) . . .
228(15) . . .
190(14) . . .
200(14) . . .
224(15) . . .
212(15) . . .
228(15) . . .
219(15) . . .
208(14) . . .
203(14) . . .
226(15) . . .
221(15) . . .
227(15) . . .
217(15) . . .
212(15) . . .
198(14) . . .
198(14) . . .
212(15) . . .
196(14) . . .
209(14) . . .
208(14) . . .
216(15) . . .
208(14) . . .
220(15) . . .
210(14) . . .
198(14) . . .
202(14) . . .
206(14) . . .
213(15) . . .
205(14) . . .
212(15) . . .
210(14) . . .
188(14) . . .
205(14) . . .
205(14) . . .
218(15) . . .
210(14) . . .
247(16) . . .
218(15) . . .
194(14) . . .
183(14) . . .
195(14) . . .
220(15) . . .
203(14) . . .
206(14) . . .
205(14) . . .
199(14) . . .
209(14) . . .
197(14) . . .
215(15) . . .
217(15) . . .
217(15) . . .
197(14) . . .
217(15) . . .
221(15) . . .
205(14) . . .
205(14) . . .
198(14) . . .
195(14) . . .
197(14) . . .
201(14) . . .
218(15) . . .
210(14) . . .
205(14) . . .
182(13) . . .
234(15) . . .
186(14) . . .
205(14) . . .
197(14) . . .
181(13) . . .
208(14) . . .
217(15) . . .
186(14) . . .
208(14) . . .
186(14) . . .
191(14) . . .
201(14) . . .
204(14) . . .
220(15) . . .
195(14) . . .
221(15) . . .
178(13) . . .
181(13) . . .
199(14) . . .
202(14) . . .
196(14) . . .
214(15) . . .
208(14) . . .
199(14) . . .
202(14) . . .
200(14) . . .
215(15) . . .
207(14) . . .
221(15) . . .
207(14) . . .
194(14) . . .
230(15) . . .
194(14) . . .
193(14) . . .
195(14) . . .
182(13) . . .
230(15) . . .
209(14) . . .
209(14) . . .
192(14) . . .
208(14) . . .
207(14) . . .
204(14) . . .
212(15) . . .
180(13) . . .
217(15) . . .
212(15) . . .
232(15) . . .
206(14) . . .
195(14) . . .
204(14) . . .
214(15) . . .
202(14) . . .
201(14) . . .
225(15) . . .
215(15) . . .
205(14) . . .
207(14) . . .
194(14) . . .
199(14) . . .
188(14) . . .
194(14) . . .
203(14) . . .
197(14) . . .
199(14) . . .
180(13) . . .
188(14) . . .
215(15) . . .
199(14) . . .
191(14) . . .
212(15) . . .
193(14) . . .
224(15) . . .
200(14) . . .
208(14) . . .
194(14) . . .
185(14) . . .
220(15) . . .
211(15) . . .
188(14) . . .
191(14) . . .
198(14) . . .
202(14) . . .
205(14) . . .
194(14) . . .
193(14) . . .
178(13) . . .
188(14) . . .
194(14) . . .
188(14) . . .
201(14) . . .
239(15) . . .
212(15) . . .
201(14) . . .
190(14) . . .
211(15) . . .
202(14) . . .
203(14) . . .
200(14) . . .
219(15) . . .
203(14) . . .
211(15) . . .
231(15) . . .
193(14) . . .
214(15) . . .
188(14) . . .
180(13) . . .
207(14) . . .
201(14) . . .
187(14) . . .
196(14) . . .
210(14) . . .
206(14) . . .
216(15) . . .
211(15) . . .
195(14) . . .
221(15) . . .
207(14) . . .
195(14) . . .
196(14) . . .
195(14) . . .
204(14) . . .
194(14) . . .
206(14) . . .
207(14) . . .
199(14) . . .
197(14) . . .
183(14) . . .
192(14) . . .
187(14) . . .
198(14) . . .
220(15) . . .
204(14) . . .
210(14) . . .
227(15) . . .
213(15) . . .
205(14) . . .
190(14) . . .
225(15) . . .
220(15) . . .
197(14) . . .
186(14) . . .
227(15) . . .
217(15) . . .
208(14) . . .
212(15) . . .
235(15) . . .
199(14) . . .
193(14) . . .
221(15) . . .
199(14) . . .
207(14) . . .
224(15) . . .
209(14) . . .
198(14) . . .
229(15) . . .
214(15) . . .
202(14) . . .
184(14) . . .
225(15) . . .
202(14) . . .
208(14) . . .
194(14) . . .
213(15) . . .
223(15) . . .
214(15) . . .
205(14) . . .
188(14) . . .
192(14) . . .
203(14) . . .
219(15) . . .
223(15) . . .
200(14) . . .
214(15) . . .
214(15) . . .
192(14) . . .
199(14) . . .
197(14) . . .
192(14) . . .
207(14) . . .
221(15) . . .
197(14) . . .
215(15) . . .
206(14) . . .
199(14) . . .
202(14) . . .
202(14) . . .
209(14) . . .
212(15) . . .
199(14) . . .
219(15) . . .
211(15) . . .
212(15) . . .
188(14) . . .
201(14) . . .
202(14) . . .
186(14) . . .
223(15) . . .
204(14) . . .
213(15) . . .
222(15) . . .
209(14) . . .
192(14) . . .
221(15) . . .
211(15) . . .
200(14) . . .
201(14) . . .
225(15) . . .
235(15) . . .
210(14) . . .
210(14) . . .
204(14) . . .
228(15) . . .
212(15) . . .
215(15) . . .
212(15) . . .
204(14) . . .
209(14) . . .
223(15) . . .
238(15) . . .
219(15) . . .
210(14) . . .
224(15) . . .
205(14) . . .
200(14) . . .
210(14) . . .
193(14) . . .
195(14) . . .
235(15) . . .
203(14) . . .
225(15) . . .
200(14) . . .
206(14) . . .
208(14) . . .
190(14) . . .
193(14) . . .
230(15) . . .
213(15) . . .
189(14) . . .
195(14) . . .
183(14) . . .
227(15) . . .
210(14) . . .
204(14) . . .
198(14) . . .
208(14) . . .
190(14) . . .
210(14) . . .
199(14) . . .
201(14) . . .
216(15) . . .
222(15) . . .
198(14) . . .
209(14) . . .
210(14) . . .
210(14) . . .
224(15) . . .
209(14) . . .
217(15) . . .
194(14) . . .
200(14) . . .
228(15) . . .
206(14) . . .
206(14) . . .
212(15) . . .
228(15) . . .
209(14) . . .
197(14) . . .
217(15) . . .
204(14) . . .
207(14) . . .
213(15) . . .
191(14) . . .
215(15) . . .
217(15) . . .
199(14) . . .
196(14) . . .
202(14) . . .
197(14) . . .
223(15) . . .
227(15) . . .
198(14) . . .
201(14) . . .
208(14) . . .
222(15) . . .
188(14) . . .
213(15) . . .
215(15) . . .
203(14) . . .
211(15) . . .
218(15) . . .
206(14) . . .
216(15) . . .
202(14) . . .
214(15) . . .
186(14) . . .
203(14) . . .
203(14) . . .
217(15) . . .
206(14) . . .
219(15) . . .
203(14) . . .
208(14) . . .
186(14) . . .
203(14) . . .
212(15) . . .
205(14) . . .
203(14) . . .
207(14) . . .
203(14) . . .
202(14) . . .
230(15) . . .
205(14) . . .
232(15) . . .
219(15) . . .
219(15) . . .
222(15) . . .
228(15) . . .
199(14) . . .
232(15) . . .
203(14) . . .
222(15) . . .
226(15) . . .
209(14) . . .
211(15) . . .
209(14) . . .
218(15) . . .
206(14) . . .
201(14) . . .
205(14) . . .
193(14) . . .
214(15) . . .
199(14) . . .
200(14) . . .
201(14) . . .
197(14) . . .
186(14) . . .
200(14) . . .
232(15) . . .
227(15) . . .
199(14) . . .
196(14) . . .
226(15) . . .
203(14) . . .
220(15) . . .
199(14) . . .
233(15) . . .
202(14) . . .
196(14) . . .
190(14) . . .
220(15) . . .
230(15) . . .
212(15) . . .
206(14) . . .
220(15) . . .
237(15) . . .
191(14) . . .
201(14) . . .
202(14) . . .
193(14) . . .
213(15) . . .
205(14) . . .
196(14) . . .
221(15) . . .
213(15) . . .
201(14) . . .
216(15) . . .
223(15) . . .
199(14) . . .
180(13) . . .
199(14) . . .
194(14) . . .
204(14) . . .
202(14) . . .
216(15) . . .
222(15) . . .
205(14) . . .
197(14) . . .
208(14) . . .
223(15) . . .
187(14) . . .
203(14) . . .
213(15) . . .
196(14) . . .
200(14) . . .
228(15) . . .
224(15) . . .
190(14) . . .
217(15) . . .
194(14) . . .
212(15) . . .
235(15) . . .
209(14) . . .
200(14) . . .
199(14) . . .
222(15) . . .
208(14) . . .
221(15) . . .
207(14) . . .
197(14) . . .
219(15) . . .
215(15) . . .
225(15) . . .
236(15) . . .
229(15) . . .
213(15) . . .
228(15) . . .
214(15) . . .
224(15) . . .
193(14) . . .
220(15) . . .
224(15) . . .
228(15) . . .
207(14) . . .
213(15) . . .
205(14) . . .
223(15) . . .
202(14) . . .
227(15) . . .
218(15) . . .
211(15) . . .
236(15) . . .
220(15) . . .
192(14) . . .
202(14) . . .
220(15) . . .
213(15) . . .
195(14) . . .
210(14) . . .
201(14) . . .
227(15) . . .
204(14) . . .
222(15) . . .
218(15) . . .
197(14) . . .
202(14) . . .
195(14) . . .
202(14) . . .
218(15) . . .
210(14) . . .
215(15) . . .
184(14) . . .
221(15) . . .
216(15) . . .
187(14) . . .
192(14) . . .
208(14) . . .
199(14) . . .
193(14) . . .
216(15) . . .
190(14) . . .
225(15) . . .
205(14) . . .
210(14) . . .
220(15) . . .
206(14) . . .
207(14) . . .
224(15) . . .
235(15) . . .
202(14) . . .
197(14) . . .
214(15) . . .
222(15) . . .
206(14) . . .
179(13) . . .
218(15) . . .
206(14) . . .
220(15) . . .
189(14) . . .
198(14) . . .
217(15) . . .
190(14) . . .
222(15) . . .
200(14) . . .
220(15) . . .
195(14) . . .
200(14) . . .
209(14) . . .
202(14) . . .
215(15) . . .
215(15) . . .
205(14) . . .
213(15) . . .
208(14) . . .
220(15) . . .
215(15) . . .
223(15) . . .
198(14) . . .
213(15) . . .
235(15) . . .
210(14) . . .
203(14) . . .
226(15) . . .
205(14) . . .
231(15) . . .
201(14) . . .
196(14) . . .
205(14) . . .
197(14) . . .
208(14) . . .
227(15) . . .
214(15) . . .
209(14) . . .
220(15) . . .
213(15) . . .
201(14) . . .
210(14) . . .
194(14) . . .
231(15) . . .
229(15) . . .
233(15) . . .
195(14) . . .
200(14) . . .
195(14) . . .
198(14) . . .
196(14) . . .
190(14) . . .
207(14) . . .
218(15) . . .
222(15) . . .
207(14) . . .
239(15) . . .
200(14) . . .
223(15) . . .
198(14) . . .
216(15) . . .
229(15) . . .
207(14) . . .
212(15) . . .
219(15) . . .
210(14) . . .
232(15) . . .
246(16) . . .
235(15) . . .
214(15) . . .
221(15) . . .
194(14) . . .
220(15) . . .
211(15) . . .
209(14) . . .
208(14) . . .
213(15) . . .
221(15) . . .
221(15) . . .
215(15) . . .
197(14) . . .
210(14) . . .
214(15) . . .
229(15) . . .
241(16) . . .
232(15) . . .
215(15) . . .
229(15) . . .
224(15) . . .
224(15) . . .
244(16) . . .
222(15) . . .
224(15) . . .
204(14) . . .
214(15) . . .
213(15) . . .
242(16) . . .
211(15) . . .
236(15) . . .
223(15) . . .
202(14) . . .
232(15) . . .
250(16) . . .
219(15) . . .
208(14) . . .
240(15) . . .
212(15) . . .
208(14) . . .
215(15) . . .
216(15) . . .
237(15) . . .
227(15) . . .
217(15) . . .
236(15) . . .
222(15) . . .
213(15) . . .
210(14) . . .
206(14) . . .
209(14) . . .
213(15) . . .
194(14) . . .
238(15) . . .
221(15) . . .
209(14) . . .
225(15) . . .
238(15) . . .
205(14) . . .
218(15) . . .
220(15) . . .
230(15) . . .
247(16) . . .
210(14) . . .
196(14) . . .
223(15) . . .
214(15) . . .
226(15) . . .
203(14) . . .
219(15) . . .
226(15) . . .
220(15) . . .
214(15) . . .
221(15) . . .
213(15) . . .
225(15) . . .
223(15) . . .
211(15) . . .
213(15) . . .
198(14) . . .
192(14) . . .
212(15) . . .
229(15) . . .
214(15) . . .
217(15) . . .
207(14) . . .
206(14) . . .
223(15) . . .
228(15) . . .
207(14) . . .
199(14) . . .
224(15) . . .
232(15) . . .
230(15) . . .
228(15) . . .
194(14) . . .
218(15) . . .
234(15) . . .
249(16) . . .
210(14) . . .
199(14) . . .
211(15) . . .
232(15) . . .
233(15) . . .
196(14) . . .
217(15) . . .
218(15) . . .
233(15) . . .
238(15) . . .
219(15) . . .
248(16) . . .
216(15) . . .
235(15) . . .
235(15) . . .
236(15) . . .
232(15) . . .
248(16) . . .
236(15) . . .
243(16) . . .
211(15) . . .
222(15) . . .
241(16) . . .
248(16) . . .
241(16) . . .
246(16) . . .
225(15) . . .
233(15) . . .
228(15) . . .
242(16) . . .
197(14) . . .
221(15) . . .
213(15) . . .
238(15) . . .
226(15) . . .
227(15) . . .
247(16) . . .
252(16) . . .
231(15) . . .
241(16) . . .
235(15) . . .
229(15) . . .
202(14) . . .
216(15) . . .
232(15) . . .
236(15) . . .
243(16) . . .
218(15) . . .
243(16) . . .
250(16) . . .
241(16) . . .
251(16) . . .
255(16) . . .
228(15) . . .
220(15) . . .
242(16) . . .
220(15) . . .
238(15) . . .
230(15) . . .
235(15) . . .
207(14) . . .
250(16) . . .
213(15) . . .
227(15) . . .
228(15) . . .
241(16) . . .
215(15) . . .
230(15) . . .
248(16) . . .
220(15) . . .
220(15) . . .
216(15) . . .
257(16) . . .
238(15) . . .
207(14) . . .
244(16) . . .
211(15) . . .
235(15) . . .
248(16) . . .
245(16) . . .
235(15) . . .
250(16) . . .
237(15) . . .
251(16) . . .
223(15) . . .
234(15) . . .
240(15) . . .
253(16) . . .
233(15) . . .
240(15) . . .
239(15) . . .
240(15) . . .
235(15) . . .
256(16) . . .
233(15) . . .
242(16) . . .
214(15) . . .
249(16) . . .
206(14) . . .
218(15) . . .
234(15) . . .
243(16) . . .
237(15) . . .
236(15) . . .
250(16) . . .
251(16) . . .
229(15) . . .
240(15) . . .
218(15) . . .
260(16) . . .
257(16) . . .
257(16) . . .
239(15) . . .
217(15) . . .
252(16) . . .
252(16) . . .
253(16) . . .
261(16) . . .
262(16) . . .
255(16) . . .
254(16) . . .
239(15) . . .
260(16) . . .
239(15) . . .
258(16) . . .
249(16) . . .
265(16) . . .
269(16) . . .
266(16) . . .
286(17) . . .
248(16) . . .
281(17) . . .
257(16) . . .
265(16) . . .
264(16) . . .
249(16) . . .
233(15) . . .
255(16) . . .
259(16) . . .
278(17) . . .
300(17) . . .
261(16) . . .
297(17) . . .
315(18) . . .
275(17) . . .
284(17) . . .
253(16) . . .
244(16) . . .
274(17) . . .
269(16) . . .
275(17) . . .
241(16) . . .
265(16) . . .
273(17) . . .
276(17) . . .
280(17) . . .
296(17) . . .
270(16) . . .
259(16) . . .
281(17) . . .
292(17) . . .
297(17) . . .
286(17) . . .
322(18) . . .
294(17) . . .
307(18) . . .
311(18) . . .
330(18) . . .
300(17) . . .
331(18) . . .
332(18) . . .
318(18) . . .
315(18) . . .
368(19) . . .
334(18) . . .
374(19) . . .
363(19) . . .
388(20) . . .
355(19) . . .
414(20) . . .
386(20) . . .
390(20) . . .
434(21) . . .
446(21) . . .
450(21) . . .
414(20) . . .
462(21) . . .
458(21) . . .
510(23) . . .
530(23) . . .
575(24) . . .
606(25) . . .
641(25) . . .
676(26) . . .
701(26) . . .
752(27) . . .
796(28) . . .
869(29) . . .
928(30) . . .
1026(32) . . .
1064(33) . . .
1258(35) . . .
1393(37) . . .
1472(38) . . .
1661(41) . . .
1790(42) . . .
2114(46) . . .
2356(49) . . .
2719(52) . . .
3138(56) . . .
3646(60) . . .
4026(63) . . .
4823(69) . . .
5583(75) . . .
6180(79) . . .
6925(83) . . .
7302(85) . . .
7612(87) . . .
7909(89) . . .
8101(90) . . .
8063(90) . . .
7734(88) . . .
7241(85) . . .
6709(82) . . .
5985(77) . . .
5305(73) . . .
4708(69) . . .
4051(64) . . .
3381(58) . . .
2949(54) . . .
2557(51) . . .
2251(47) . . .
1968(44) . . .
1701(41) . . .
1545(39) . . .
1394(37) . . .
1302(36) . . .
1162(34) . . .
1089(33) . . .
978(31) . . .
910(30) . . .
875(30) . . .
788(28) . . .
717(27) . . .
727(27) . . .
677(26) . . .
574(24) . . .
588(24) . . .
545(23) . . .
504(22) . . .
527(23) . . .
475(22) . . .
481(22) . . .
454(21) . . .
446(21) . . .
409(20) . . .
401(20) . . .
419(20) . . .
404(20) . . .
371(19) . . .
384(20) . . .
362(19) . . .
356(19) . . .
328(18) . . .
320(18) . . .
341(18) . . .
332(18) . . .
343(19) . . .
341(18) . . .
295(17) . . .
325(18) . . .
348(19) . . .
343(19) . . .
289(17) . . .
294(17) . . .
309(18) . . .
263(16) . . .
274(17) . . .
296(17) . . .
288(17) . . .
295(17) . . .
291(17) . . .
300(17) . . .
310(18) . . .
284(17) . . .
296(17) . . .
300(17) . . .
264(16) . . .
299(17) . . .
280(17) . . .
270(16) . . .
287(17) . . .
268(16) . . .
259(16) . . .
269(16) . . .
246(16) . . .
253(16) . . .
277(17) . . .
258(16) . . .
263(16) . . .
265(16) . . .
261(16) . . .
246(16) . . .
255(16) . . .
250(16) . . .
250(16) . . .
272(16) . . .
271(16) . . .
266(16) . . .
245(16) . . .
266(16) . . .
250(16) . . .
209(14) . . .
247(16) . . .
253(16) . . .
254(16) . . .
249(16) . . .
251(16) . . .
278(17) . . .
253(16) . . .
243(16) . . .
232(15) . . .
244(16) . . .
248(16) . . .
260(16) . . .
243(16) . . .
219(15) . . .
209(14) . . .
256(16) . . .
248(16) . . .
258(16) . . .
239(15) . . .
243(16) . . .
241(16) . . .
251(16) . . .
237(15) . . .
237(15) . . .
229(15) . . .
226(15) . . .
239(15) . . .
245(16) . . .
224(15) . . .
213(15) . . .
234(15) . . .
246(16) . . .
220(15) . . .
246(16) . . .
260(16) . . .
243(16) . . .
253(16) . . .
243(16) . . .
241(16) . . .
235(15) . . .
232(15) . . .
261(16) . . .
267(16) . . .
220(15) . . .
236(15) . . .
215(15) . . .
231(15) . . .
233(15) . . .
218(15) . . .
238(15) . . .
273(17) . . .
246(16) . . .
229(15) . . .
234(15) . . .
243(16) . . .
215(15) . . .
229(15) . . .
195(14) . . .
220(15) . . .
226(15) . . .
241(16) . . .
222(15) . . .
222(15) . . .
227(15) . . .
236(15) . . .
222(15) . . .
229(15) . . .
235(15) . . .
240(15) . . .
236(15) . . .
204(14) . . .
243(16) . . .
210(14) . . .
243(16) . . .
217(15) . . .
227(15) . . .
254(16) . . .
218(15) . . .
260(16) . . .
214(15) . . .
198(14) . . .
228(15) . . .
228(15) . . .
223(15) . . .
230(15) . . .
217(15) . . .
218(15) . . .
231(15) . . .
217(15) . . .
205(14) . . .
239(15) . . .
209(14) . . .
233(15) . . .
211(15) . . .
217(15) . . .
241(16) . . .
229(15) . . .
228(15) . . .
222(15) . . .
217(15) . . .
215(15) . . .
225(15) . . .
239(15) . . .
208(14) . . .
245(16) . . .
224(15) . . .
203(14) . . .
228(15) . . .
221(15) . . .
211(15) . . .
233(15) . . .
214(15) . . .
205(14) . . .
227(15) . . .
229(15) . . .
213(15) . . .
236(15) . . .
232(15) . . .
232(15) . . .
200(14) . . .
225(15) . . .
206(14) . . .
194(14) . . .
207(14) . . .
222(15) . . .
222(15) . . .
214(15) . . .
242(16) . . .
222(15) . . .
214(15) . . .
217(15) . . .
209(14) . . .
217(15) . . .
215(15) . . .
220(15) . . .
213(15) . . .
218(15) . . .
201(14) . . .
202(14) . . .
211(15) . . .
231(15) . . .
205(14) . . .
230(15) . . .
212(15) . . .
239(15) . . .
237(15) . . .
229(15) . . .
208(14) . . .
237(15) . . .
230(15) . . .
212(15) . . .
223(15) . . .
218(15) . . .
215(15) . . .
204(14) . . .
207(14) . . .
222(15) . . .
203(14) . . .
200(14) . . .
221(15) . . .
205(14) . . .
224(15) . . .
218(15) . . .
225(15) . . .
259(16) . . .
205(14) . . .
203(14) . . .
235(15) . . .
242(16) . . .
214(15) . . .
239(15) . . .
219(15) . . .
211(15) . . .
216(15) . . .
232(15) . . .
225(15) . . .
210(14) . . .
224(15) . . .
221(15) . . .
232(15) . . .
232(15) . . .
233(15) . . .
225(15) . . .
215(15) . . .
227(15) . . .
211(15) . . .
229(15) . . .
230(15) . . .
218(15) . . .
190(14) . . .
218(15) . . .
222(15) . . .
210(14) . . .
222(15) . . .
209(14) . . .
230(15) . . .
203(14) . . .
200(14) . . .
220(15) . . .
216(15) . . .
230(15) . . .
225(15) . . .
229(15) . . .
230(15) . . .
226(15) . . .
234(15) . . .
213(15) . . .
216(15) . . .
218(15) . . .
226(15) . . .
216(15) . . .
227(15) . . .
202(14) . . .
209(14) . . .
218(15) . . .
237(15) . . .
209(14) . . .
213(15) . . .
241(16) . . .
229(15) . . .
210(14) . . .
211(15) . . .
205(14) . . .
211(15) . . .
220(15) . . .
240(15) . . .
233(15) . . .
226(15) . . .
216(15) . . .
231(15) . . .
214(15) . . .
226(15) . . .
240(15) . . .
238(15) . . .
220(15) . . .
221(15) . . .
232(15) . . .
218(15) . . .
248(16) . . .
216(15) . . .
218(15) . . .
213(15) . . .
192(14) . . .
244(16) . . .
218(15) . . .
202(14) . . .
243(16) . . .
213(15) . . .
239(15) . . .
224(15) . . .
233(15) . . .
234(15) . . .
216(15) . . .
228(15) . . .
223(15) . . .
190(14) . . .
207(14) . . .
234(15) . . .
225(15) . . .
228(15) . . .
203(14) . . .
224(15) . . .
222(15) . . .
203(14) . . .
212(15) . . .
237(15) . . .
231(15) . . .
204(14) . . .
247(16) . . .
206(14) . . .
205(14) . . .
221(15) . . .
205(14) . . .
228(15) . . .
217(15) . . .
205(14) . . .
236(15) . . .
211(15) . . .
213(15) . . .
233(15) . . .
225(15) . . .
219(15) . . .
252(16) . . .
228(15) . . .
228(15) . . .
223(15) . . .
217(15) . . .
212(15) . . .
209(14) . . .
228(15) . . .
199(14) . . .
236(15) . . .
212(15) . . .
212(15) . . .
191(14) . . .
223(15) . . .
224(15) . . .
217(15) . . .
234(15) . . .
241(16) . . .
216(15) . . .
203(14) . . .
195(14) . . .
215(15) . . .
212(15) . . .
227(15) . . .
241(16) . . .
239(15) . . .
237(15) . . .
218(15) . . .
237(15) . . .
219(15) . . .
231(15) . . .
229(15) . . .
220(15) . . .
231(15) . . .
227(15) . . .
229(15) . . .
267(16) . . .
199(14) . . .
218(15) . . .
222(15) . . .
230(15) . . .
220(15) . . .
234(15) . . .
219(15) . . .
207(14) . . .
235(15) . . .
229(15) . . .
215(15) . . .
223(15) . . .
218(15) . . .
204(14) . . .
190(14) . . .
214(15) . . .
211(15) . . .
240(15) . . .
225(15) . . .
213(15) . . .
220(15) . . .
230(15) . . .
216(15) . . .
222(15) . . .
222(15) . . .
215(15) . . .
215(15) . . .
230(15) . . .
219(15) . . .
246(16) . . .
225(15) . . .
219(15) . . .
219(15) . . .
224(15) . . .
230(15) . . .
217(15) . . .
225(15) . . .
221(15) . . .
242(16) . . .
211(15) . . .
206(14) . . .
216(15) . . .
219(15) . . .
210(14) . . .
207(14) . . .
229(15) . . .
245(16) . . .
212(15) . . .
218(15) . . .
234(15) . . .
210(14) . . .
200(14) . . .
223(15) . . .
202(14) . . .
219(15) . . .
229(15) . . .
224(15) . . .
230(15) . . .
217(15) . . .
223(15) . . .
229(15) . . .
225(15) . . .
208(14) . . .
240(15) . . .
203(14) . . .
195(14) . . .
220(15) . . .
206(14) . . .
212(15) . . .
225(15) . . .
223(15) . . .
203(14) . . .
216(15) . . .
202(14) . . .
207(14) . . .
207(14) . . .
232(15) . . .
239(15) . . .
213(15) . . .
210(14) . . .
215(15) . . .
212(15) . . .
208(14) . . .
222(15) . . .
233(15) . . .
232(15) . . .
223(15) . . .
226(15) . . .
225(15) . . .
231(15) . . .
232(15) . . .
225(15) . . .
217(15) . . .
212(15) . . .
218(15) . . .
228(15) . . .
226(15) . . .
240(15) . . .
235(15) . . .
231(15) . . .
241(16) . . .
216(15) . . .
251(16) . . .
219(15) . . .
235(15) . . .
228(15) . . .
241(16) . . .
221(15) . . .
235(15) . . .
217(15) . . .
226(15) . . .
204(14) . . .
232(15) . . .
235(15) . . .
230(15) . . .
217(15) . . .
231(15) . . .
236(15) . . .
231(15) . . .
232(15) . . .
216(15) . . .
237(15) . . .
219(15) . . .
213(15) . . .
236(15) . . .
232(15) . . .
253(16) . . .
227(15) . . .
232(15) . . .
234(15) . . .
223(15) . . .
239(15) . . .
225(15) . . .
206(14) . . .
225(15) . . .
225(15) . . .
221(15) . . .
238(15) . . .
223(15) . . .
247(16) . . .
225(15) . . .
237(15) . . .
247(16) . . .
227(15) . . .
249(16) . . .
246(16) . . .
236(15) . . .
223(15) . . .
211(15) . . .
226(15) . . .
230(15) . . .
263(16) . . .
230(15) . . .
238(15) . . .
250(16) . . .
217(15) . . .
242(16) . . .
236(15) . . .
218(15) . . .
217(15) . . .
242(16) . . .
246(16) . . .
256(16) . . .
242(16) . . .
232(15) . . .
248(16) . . .
249(16) . . .
235(15) . . .
224(15) . . .
237(15) . . .
266(16) . . .
236(15) . . .
242(16) . . .
245(16) . . .
239(15) . . .
237(15) . . .
248(16) . . .
227(15) . . .
263(16) . . .
253(16) . . .
239(15) . . .
234(15) . . .
248(16) . . .
215(15) . . .
249(16) . . .
240(15) . . .
240(15) . . .
222(15) . . .
247(16) . . .
246(16) . . .
245(16) . . .
249(16) . . .
244(16) . . .
249(16) . . .
254(16) . . .
243(16) . . .
248(16) . . .
229(15) . . .
252(16) . . .
229(15) . . .
240(15) . . .
242(16) . . .
235(15) . . .
244(16) . . .
248(16) . . .
245(16) . . .
224(15) . . .
224(15) . . .
228(15) . . .
226(15) . . .
239(15) . . .
224(15) . . .
263(16) . . .
204(14) . . .
238(15) . . .
227(15) . . .
242(16) . . .
235(15) . . .
229(15) . . .
241(16) . . .
250(16) . . .
227(15) . . .
233(15) . . .
222(15) . . .
219(15) . . .
245(16) . . .
266(16) . . .
227(15) . . .
221(15) . . .
238(15) . . .
249(16) . . .
245(16) . . .
223(15) . . .
216(15) . . .
237(15) . . .
228(15) . . .
246(16) . . .
224(15) . . .
228(15) . . .
229(15) . . .
255(16) . . .
209(14) . . .
227(15) . . .
230(15) . . .
231(15) . . .
251(16) . . .
264(16) . . .
246(16) . . .
253(16) . . .
236(15) . . .
235(15) . . .
241(16) . . .
237(15) . . .
231(15) . . .
190(14) . . .
231(15) . . .
246(16) . . .
234(15) . . .
230(15) . . .
215(15) . . .
245(16) . . .
224(15) . . .
217(15) . . .
221(15) . . .
226(15) . . .
230(15) . . .
226(15) . . .
245(16) . . .
234(15) . . .
235(15) . . .
239(15) . . .
234(15) . . .
247(16) . . .
236(15) . . .
258(16) . . .
239(15) . . .
234(15) . . .
236(15) . . .
224(15) . . .
245(16) . . .
244(16) . . .
228(15) . . .
242(16) . . .
236(15) . . .
254(16) . . .
237(15) . . .
224(15) . . .
234(15) . . .
216(15) . . .
244(16) . . .
216(15) . . .
227(15) . . .
263(16) . . .
214(15) . . .
221(15) . . .
222(15) . . .
222(15) . . .
250(16) . . .
226(15) . . .
272(16) . . .
239(15) . . .
252(16) . . .
235(15) . . .
243(16) . . .
248(16) . . .
208(14) . . .
242(16) . . .
219(15) . . .
214(15) . . .
258(16) . . .
210(14) . . .
237(15) . . .
243(16) . . .
218(15) . . .
224(15) . . .
232(15) . . .
238(15) . . .
236(15) . . .
229(15) . . .
214(15) . . .
274(17) . . .
235(15) . . .
257(16) . . .
241(16) . . .
253(16) . . .
261(16) . . .
241(16) . . .
235(15) . . .
224(15) . . .
210(14) . . .
231(15) . . .
245(16) . . .
255(16) . . .
251(16) . . .
225(15) . . .
227(15) . . .
257(16) . . .
236(15) . . .
239(15) . . .
269(16) . . .
247(16) . . .
240(15) . . .
227(15) . . .
231(15) . . .
243(16) . . .
256(16) . . .
234(15) . . .
232(15) . . .
218(15) . . .
228(15) . . .
252(16) . . .
252(16) . . .
241(16) . . .
226(15) . . .
251(16) . . .
250(16) . . .
270(16) . . .
232(15) . . .
232(15) . . .
240(15) . . .
227(15) . . .
235(15) . . .
254(16) . . .
255(16) . . .
243(16) . . .
246(16) . . .
253(16) . . .
249(16) . . .
236(15) . . .
255(16) . . .
257(16) . . .
224(15) . . .
259(16) . . .
249(16) . . .
247(16) . . .
238(15) . . .
239(15) . . .
249(16) . . .
240(15) . . .
258(16) . . .
254(16) . . .
269(16) . . .
247(16) . . .
223(15) . . .
234(15) . . .
249(16) . . .
259(16) . . .
247(16) . . .
248(16) . . .
232(15) . . .
241(16) . . .
256(16) . . .
224(15) . . .
242(16) . . .
270(16) . . .
238(15) . . .
261(16) . . .
240(15) . . .
250(16) . . .
242(16) . . .
252(16) . . .
236(15) . . .
259(16) . . .
240(15) . . .
254(16) . . .
243(16) . . .
234(15) . . .
238(15) . . .
269(16) . . .
271(16) . . .
267(16) . . .
273(17) . . .
265(16) . . .
240(15) . . .
273(17) . . .
247(16) . . .
249(16) . . .
263(16) . . .
262(16) . . .
255(16) . . .
244(16) . . .
257(16) . . .
282(17) . . .
243(16) . . .
255(16) . . .
251(16) . . .
270(16) . . .
244(16) . . .
276(17) . . .
268(16) . . .
279(17) . . .
264(16) . . .
266(16) . . .
266(16) . . .
271(16) . . .
277(17) . . .
288(17) . . .
286(17) . . .
264(16) . . .
256(16) . . .
257(16) . . .
279(17) . . .
279(17) . . .
289(17) . . .
271(16) . . .
287(17) . . .
259(16) . . .
265(16) . . .
325(18) . . .
277(17) . . .
263(16) . . .
295(17) . . .
306(17) . . .
285(17) . . .
280(17) . . .
307(18) . . .
293(17) . . .
298(17) . . .
306(17) . . .
295(17) . . .
303(17) . . .
308(18) . . .
298(17) . . .
313(18) . . .
316(18) . . .
327(18) . . .
355(19) . . .
319(18) . . .
334(18) . . .
320(18) . . .
346(19) . . .
344(19) . . .
331(18) . . .
327(18) . . .
352(19) . . .
337(18) . . .
361(19) . . .
361(19) . . .
333(18) . . .
357(19) . . .
369(19) . . .
400(20) . . .
376(19) . . .
392(20) . . .
421(21) . . .
416(20) . . .
406(20) . . .
411(20) . . .
466(22) . . .
460(21) . . .
485(22) . . .
487(22) . . .
522(23) . . .
514(23) . . .
529(23) . . .
578(24) . . .
569(24) . . .
612(25) . . .
644(25) . . .
670(26) . . .
681(26) . . .
741(27) . . .
792(28) . . .
776(28) . . .
837(29) . . .
947(31) . . .
957(31) . . .
1094(33) . . .
1182(34) . . .
1195(35) . . .
1302(36) . . .
1479(38) . . .
1592(40) . . .
1714(41) . . .
1901(44) . . .
2129(46) . . .
2381(49) . . .
2648(51) . . .
3057(55) . . .
3445(59) . . .
3862(62) . . .
4273(65) . . .
5135(72) . . .
5672(75) . . .
6518(81) . . .
7201(85) . . .
7910(89) . . .
8635(93) . . .
9115(95) . . .
9584(98) . . .
9669(98) . . .
9589(98) . . .
9356(97) . . .
9013(95) . . .
8460(92) . . .
7634(87) . . .
6874(83) . . .
6165(79) . . .
5461(74) . . .
4681(68) . . .
4279(65) . . .
3553(60) . . .
3078(55) . . .
2862(53) . . .
2525(50) . . .
2178(47) . . .
1985(45) . . .
1842(43) . . .
1633(40) . . .
1480(38) . . .
1353(37) . . .
1284(36) . . .
1204(35) . . .
1094(33) . . .
1022(32) . . .
942(31) . . .
853(29) . . .
838(29) . . .
793(28) . . .
721(27) . . .
706(27) . . .
691(26) . . .
637(25) . . .
581(24) . . .
595(24) . . .
577(24) . . .
498(22) . . .
521(23) . . .
523(23) . . .
474(22) . . .
470(22) . . .
479(22) . . .
450(21) . . .
403(20) . . .
432(21) . . .
423(21) . . .
408(20) . . .
412(20) . . .
379(19) . . .
397(20) . . .
372(19) . . .
399(20) . . .
377(19) . . .
359(19) . . .
337(18) . . .
354(19) . . .
343(19) . . .
328(18) . . .
343(19) . . .
351(19) . . .
317(18) . . .
353(19) . . .
303(17) . . .
328(18) . . .
335(18) . . .
347(19) . . .
331(18) . . .
329(18) . . .
333(18) . . .
310(18) . . .
285(17) . . .
336(18) . . .
297(17) . . .
292(17) . . .
284(17) . . .
293(17) . . .
277(17) . . .
293(17) . . .
294(17) . . .
284(17) . . .
288(17) . . .
307(18) . . .
278(17) . . .
282(17) . . .
299(17) . . .
271(16) . . .
277(17) . . .
277(17) . . .
290(17) . . .
260(16) . . .
291(17) . . .
284(17) . . .
270(16) . . .
268(16) . . .
250(16) . . .
250(16) . . .
282(17) . . .
273(17) . . .
286(17) . . .
270(16) . . .
271(16) . . .
270(16) . . .
262(16) . . .
279(17) . . .
234(15) . . .
278(17) . . .
266(16) . . .
293(17) . . .
255(16) . . .
263(16) . . .
266(16) . . .
267(16) . . .
272(16) . . .
260(16) . . .
244(16) . . .
250(16) . . .
269(16) . . .
266(16) . . .
276(17) . . .
278(17) . . .
272(16) . . .
260(16) . . .
230(15) . . .
250(16) . . .
235(15) . . .
254(16) . . .
257(16) . . .
249(16) . . .
288(17) . . .
268(16) . . .
273(17) . . .
268(16) . . .
269(16) . . .
262(16) . . .
251(16) . . .
248(16) . . .
236(15) . . .
272(16) . . .
249(16) . . .
229(15) . . .
262(16) . . .
231(15) . . .
236(15) . . .
264(16) . . .
247(16) . . .
253(16) . . .
264(16) . . .
228(15) . . .
223(15) . . .
238(15) . . .
234(15) . . .
229(15) . . .
235(15) . . .
247(16) . . .
258(16) . . .
251(16) . . .
247(16) . . .
238(15) . . .
239(15) . . .
267(16) . . .
250(16) . . .
270(16) . . .
252(16) . . .
254(16) . . .
231(15) . . .
262(16) . . .
257(16) . . .
252(16) . . .
242(16) . . .
251(16) . . .
260(16) . . .
255(16) . . .
256(16) . . .
228(15) . . .
257(16) . . .
240(15) . . .
240(15) . . .
232(15) . . .
249(16) . . .
247(16) . . .
236(15) . . .
261(16) . . .
253(16) . . .
220(15) . . .
222(15) . . .
258(16) . . .
240(15) . . .
273(17) . . .
236(15) . . .
243(16) . . .
258(16) . . .
239(15) . . .
232(15) . . .
234(15) . . .
243(16) . . .
267(16) . . .
252(16) . . .
273(17) . . .
250(16) . . .
273(17) . . .
241(16) . . .
235(15) . . .
221(15) . . .
246(16) . . .
232(15) . . .
235(15) . . .
222(15) . . .
245(16) . . .
259(16) . . .
233(15) . . .
238(15) . . .
242(16) . . .
249(16) . . .
245(16) . . .
235(15) . . .
264(16) . . .
242(16) . . .
236(15) . . .
234(15) . . .
270(16) . . .
253(16) . . .
266(16) . . .
236(15) . . .
238(15) . . .
230(15) . . .
268(16) . . .
225(15) . . .
238(15) . . .
262(16) . . .
246(16) . . .
244(16) . . .
228(15) . . .
280(17) . . .
232(15) . . .
258(16) . . .
252(16) . . .
256(16) . . .
263(16) . . .
242(16) . . .
268(16) . . .
273(17) . . .
265(16) . . .
296(17) . . .
243(16) . . .
259(16) . . .
287(17) . . .
263(16) . . .
266(16) . . .
261(16) . . .
244(16) . . .
257(16) . . .
261(16) . . .
270(16) . . .
265(16) . . .
292(17) . . .
303(17) . . .
274(17) . . .
309(18) . . .
261(16) . . .
296(17) . . .
312(18) . . .
314(18) . . .
301(17) . . .
290(17) . . .
289(17) . . .
296(17) . . .
307(18) . . .
327(18) . . .
304(17) . . .
304(17) . . .
328(18) . . .
325(18) . . .
350(19) . . .
332(18) . . .
347(19) . . .
375(19) . . .
403(20) . . .
387(20) . . .
395(20) . . .
426(21) . . .
450(21) . . .
425(21) . . .
483(22) . . .
461(21) . . .
512(23) . . .
532(23) . . .
589(24) . . .
576(24) . . .
609(25) . . .
652(26) . . .
683(26) . . .
757(28) . . .
841(29) . . .
906(30) . . .
975(31) . . .
1062(33) . . .
1177(34) . . .
1316(36) . . .
1424(38) . . .
1641(41) . . .
1839(43) . . .
1997(45) . . .
2210(47) . . .
2458(50) . . .
2987(55) . . .
3243(57) . . .
3531(59) . . .
3896(62) . . .
4232(65) . . .
4434(67) . . .
4633(68) . . .
4778(69) . . .
4817(69) . . .
4482(67) . . .
4384(66) . . .
3930(63) . . .
3613(60) . . .
3261(57) . . .
2931(54) . . .
2569(51) . . .
2286(48) . . .
2049(45) . . .
1785(42) . . .
1561(40) . . .
1407(38) . . .
1204(35) . . .
1086(33) . . .
995(32) . . .
947(31) . . .
879(30) . . .
787(28) . . .
703(27) . . .
652(26) . . .
615(25) . . .
570(24) . . .
565(24) . . .
521(23) . . .
487(22) . . .
463(22) . . .
463(22) . . .
419(20) . . .
426(21) . . .
404(20) . . .
391(20) . . .
371(19) . . .
377(19) . . .
328(18) . . .
363(19) . . .
334(18) . . .
330(18) . . .
312(18) . . .
360(19) . . .
306(17) . . .
322(18) . . .
309(18) . . .
309(18) . . .
292(17) . . .
307(18) . . .
326(18) . . .
279(17) . . .
289(17) . . .
293(17) . . .
278(17) . . .
260(16) . . .
251(16) . . .
262(16) . . .
289(17) . . .
283(17) . . .
290(17) . . .
278(17) . . .
259(16) . . .
251(16) . . .
261(16) . . .
244(16) . . .
249(16) . . .
274(17) . . .
274(17) . . .
250(16) . . .
235(15) . . .
241(16) . . .
263(16) . . .
255(16) . . .
234(15) . . .
220(15) . . .
241(16) . . .
242(16) . . .
248(16) . . .
241(16) . . .
221(15) . . .
214(15) . . .
240(15) . . .
263(16) . . .
233(15) . . .
238(15) . . .
262(16) . . .
224(15) . . .
223(15) . . .
242(16) . . .
239(15) . . .
257(16) . . .
219(15) . . .
218(15) . . .
242(16) . . .
246(16) . . .
231(15) . . .
214(15) . . .
225(15) . . .
242(16) . . .
252(16) . . .
223(15) . . .
233(15) . . .
259(16) . . .
219(15) . . .
246(16) . . .
222(15) . . .
254(16) . . .
200(14) . . .
217(15) . . .
215(15) . . .
212(15) . . .
221(15) . . .
229(15) . . .
233(15) . . .
210(14) . . .
224(15) . . .
216(15) . . .
220(15) . . .
219(15) . . .
220(15) . . .
235(15) . . .
229(15) . . .
230(15) . . .
210(14) . . .
235(15) . . .
257(16) . . .
223(15) . . .
221(15) . . .
195(14) . . .
228(15) . . .
226(15) . . .
197(14) . . .
234(15) . . .
232(15) . . .
186(14) . . .
224(15) . . .
229(15) . . .
214(15) . . .
238(15) . . .
223(15) . . .
210(14) . . .
226(15) . . .
232(15) . . .
227(15) . . .
217(15) . . .
224(15) . . .
230(15) . . .
233(15) . . .
218(15) . . .
201(14) . . .
218(15) . . .
223(15) . . .
218(15) . . .
229(15) . . .
240(15) . . .
198(14) . . .
213(15) . . .
209(14) . . .
206(14) . . .
212(15) . . .
217(15) . . .
200(14) . . .
224(15) . . .
223(15) . . .
188(14) . . .
198(14) . . .
218(15) . . .
222(15) . . .
220(15) . . .
230(15) . . .
229(15) . . .
205(14) . . .
201(14) . . .
218(15) . . .
216(15) . . .
227(15) . . .
189(14) . . .
190(14) . . .
207(14) . . .
201(14) . . .
206(14) . . .
227(15) . . .
218(15) . . .
176(13) . . .
201(14) . . .
209(14) . . .
231(15) . . .
196(14) . . .
200(14) . . .
206(14) . . .
205(14) . . .
230(15) . . .
219(15) . . .
202(14) . . .
203(14) . . .
212(15) . . .
194(14) . . .
203(14) . . .
228(15) . . .
193(14) . . .
197(14) . . .
191(14) . . .
211(15) . . .
195(14) . . .
179(13) . . .
191(14) . . .
198(14) . . .
231(15) . . .
190(14) . . .
216(15) . . .
213(15) . . .
204(14) . . .
204(14) . . .
208(14) . . .
204(14) . . .
192(14) . . .
202(14) . . .
220(15) . . .
214(15) . . .
200(14) . . .
210(14) . . .
186(14) . . .
201(14) . . .
201(14) . . .
202(14) . . .
217(15) . . .
213(15) . . .
211(15) . . .
207(14) . . .
210(14) . . .
192(14) . . .
197(14) . . .
217(15) . . .
185(14) . . .
202(14) . . .
205(14) . . .
212(15) . . .
235(15) . . .
183(14) . . .
198(14) . . .
237(15) . . .
215(15) . . .
215(15) . . .
227(15) . . .
220(15) . . .
198(14) . . .
176(13) . . .
201(14) . . .
203(14) . . .
198(14) . . .
193(14) . . .
204(14) . . .
199(14) . . .
214(15) . . .
203(14) . . .
239(15) . . .
210(14) . . .
187(14) . . .
172(13) . . .
191(14) . . .
170(13) . . .
195(14) . . .
206(14) . . .
194(14) . . .
185(14) . . .
207(14) . . .
196(14) . . .
229(15) . . .
193(14) . . .
206(14) . . .
191(14) . . .
205(14) . . .
209(14) . . .
224(15) . . .
193(14) . . .
181(13) . . .
193(14) . . .
199(14) . . .
199(14) . . .
211(15) . . .
200(14) . . .
206(14) . . .
188(14) . . .
213(15) . . .
199(14) . . .
221(15) . . .
226(15) . . .
211(15) . . .
204(14) . . .
176(13) . . .
182(13) . . .
193(14) . . .
215(15) . . .
202(14) . . .
192(14) . . .
189(14) . . .
199(14) . . .
201(14) . . .
207(14) . . .
185(14) . . .
195(14) . . .
203(14) . . .
203(14) . . .
182(13) . . .
184(14) . . .
218(15) . . .
193(14) . . .
209(14) . . .
194(14) . . .
207(14) . . .
216(15) . . .
209(14) . . .
207(14) . . .
218(15) . . .
194(14) . . .
198(14) . . .
187(14) . . .
209(14) . . .
194(14) . . .
193(14) . . .
203(14) . . .
188(14) . . .
218(15) . . .
191(14) . . .
209(14) . . .
199(14) . . .
189(14) . . .
219(15) . . .
192(14) . . .
195(14) . . .
217(15) . . .
183(14) . . .
172(13) . . .
186(14) . . .
205(14) . . .
185(14) . . .
192(14) . . .
201(14) . . .
205(14) . . .
201(14) . . .
202(14) . . .
191(14) . . .
205(14) . . .
204(14) . . .
186(14) . . .
168(13) . . .
192(14) . . .
174(13) . . .
189(14) . . .
182(13) . . .
203(14) . . .
190(14) . . .
190(14) . . .
196(14) . . .
191(14) . . .
176(13) . . .
183(14) . . .
195(14) . . .
187(14) . . .
201(14) . . .
214(15) . . .
206(14) . . .
196(14) . . .
206(14) . . .
217(15) . . .
204(14) . . .
199(14) . . .
178(13) . . .
173(13) . . .
170(13) . . .
183(14) . . .
196(14) . . .
190(14) . . .
208(14) . . .
192(14) . . .
198(14) . . .
153(12) . . .
218(15) . . .
198(14) . . .
177(13) . . .
197(14) . . .
195(14) . . .
187(14) . . .
178(13) . . .
207(14) . . .
196(14) . . .
195(14) . . .
188(14) . . .
201(14) . . .
199(14) . . .
196(14) . . .
204(14) . . .
184(14) . . .
180(13) . . .
192(14) . . .
176(13) . . .
176(13) . . .
187(14) . . .
189(14) . . .
189(14) . . .
185(14) . . .
173(13) . . .
214(15) . . .
184(14) . . .
183(14) . . .
174(13) . . .
200(14) . . .
210(14) . . .
193(14) . . .
189(14) . . .
187(14) . . .
180(13) . . .
179(13) . . .
196(14) . . .
220(15) . . .
193(14) . . .
186(14) . . .
189(14) . . .
197(14) . . .
197(14) . . .
189(14) . . .
194(14) . . .
174(13) . . .
182(13) . . .
174(13) . . .
208(14) . . .
178(13) . . .
184(14) . . .
181(13) . . .
200(14) . . .
200(14) . . .
177(13) . . .
201(14) . . .
182(13) . . .
185(14) . . .
193(14) . . .
179(13) . . .
167(13) . . .
201(14) . . .
214(15) . . .
195(14) . . .
196(14) . . .
183(14) . . .
189(14) . . .
194(14) . . .
191(14) . . .
185(14) . . .
170(13) . . .
180(13) . . .
179(13) . . .
187(14) . . .
181(13) . . .
164(13) . . .
191(14) . . .
182(13) . . .
172(13) . . .
171(13) . . .
205(14) . . .
196(14) . . .
193(14) . . .
201(14) . . .
192(14) . . .
174(13) . . .
218(15) . . .
172(13) . . .
188(14) . . .
171(13) . . .
172(13) . . .
157(13) . . .
180(13) . . .
172(13) . . .
181(13) . . .
176(13) . . .
183(14) . . .
187(14) . . .
200(14) . . .
164(13) . . .
210(14) . . .
207(14) . . .
171(13) . . .
189(14) . . .
168(13) . . .
183(14) . . .
180(13) . . .
163(13) . . .
176(13) . . .
192(14) . . .
171(13) . . .
190(14) . . .
180(13) . . .
178(13) . . .
187(14) . . .
182(13) . . .
193(14) . . .
178(13) . . .
183(14) . . .
180(13) . . .
172(13) . . .
178(13) . . .
185(14) . . .
179(13) . . .
182(13) . . .
179(13) . . .
189(14) . . .
184(14) . . .
185(14) . . .
174(13) . . .
193(14) . . .
195(14) . . .
189(14) . . .
183(14) . . .
190(14) . . .
161(13) . . .
176(13) . . .
176(13) . . .
183(14) . . .
175(13) . . .
184(14) . . .
197(14) . . .
197(14) . . .
185(14) . . .
169(13) . . .
178(13) . . .
182(13) . . .
176(13) . . .
189(14) . . .
193(14) . . .
185(14) . . .
195(14) . . .
196(14) . . .
180(13) . . .
178(13) . . .
188(14) . . .
206(14) . . .
205(14) . . .
174(13) . . .
189(14) . . .
170(13) . . .
169(13) . . .
197(14) . . .
170(13) . . .
176(13) . . .
171(13) . . .
185(14) . . .
191(14) . . .
183(14) . . .
190(14) . . .
195(14) . . .
216(15) . . .
186(14) . . .
202(14) . . .
199(14) . . .
147(12) . . .
189(14) . . .
202(14) . . .
195(14) . . .
169(13) . . .
167(13) . . .
185(14) . . .
177(13) . . .
181(13) . . .
168(13) . . .
181(13) . . .
181(13) . . .
202(14) . . .
176(13) . . .
194(14) . . .
182(13) . . .
191(14) . . .
193(14) . . .
200(14) . . .
175(13) . . .
181(13) . . .
180(13) . . .
181(13) . . .
170(13) . . .
178(13) . . .
186(14) . . .
164(13) . . .
183(14) . . .
190(14) . . .
197(14) . . .
195(14) . . .
177(13) . . .
178(13) . . .
178(13) . . .
195(14) . . .
180(13) . . .
179(13) . . .
176(13) . . .
178(13) . . .
179(13) . . .
194(14) . . .
188(14) . . .
170(13) . . .
159(13) . . .
190(14) . . .
168(13) . . .
181(13) . . .
193(14) . . .
195(14) . . .
176(13) . . .
173(13) . . .
192(14) . . .
192(14) . . .
182(13) . . .
185(14) . . .
200(14) . . .
171(13) . . .
214(15) . . .
197(14) . . .
169(13) . . .
179(13) . . .
188(14) . . .
195(14) . . .
171(13) . . .
200(14) . . .
186(14) . . .
183(14) . . .
193(14) . . .
177(13) . . .
153(12) . . .
187(14) . . .
182(13) . . .
187(14) . . .
194(14) . . .
199(14) . . .
199(14) . . .
195(14) . . .
191(14) . . .
199(14) . . .
184(14) . . .
182(13) . . .
170(13) . . .
199(14) . . .
178(13) . . .
179(13) . . .
180(13) . . .
185(14) . . .
198(14) . . .
174(13) . . .
187(14) . . .
181(13) . . .
190(14) . . .
185(14) . . .
182(13) . . .
185(14) . . .
179(13) . . .
166(13) . . .
186(14) . . .
187(14) . . .
172(13) . . .
192(14) . . .
179(13) . . .
183(14) . . .
201(14) . . .
196(14) . . .
199(14) . . .
183(14) . . .
170(13) . . .
181(13) . . .
193(14) . . .
178(13) . . .
167(13) . . .
174(13) . . .
196(14) . . .
169(13) . . .
196(14) . . .
183(14) . . .
175(13) . . .
169(13) . . .
181(13) . . .
180(13) . . .
161(13) . . .
170(13) . . .
176(13) . . .
192(14) . . .
205(14) . . .
182(13) . . .
173(13) . . .
177(13) . . .
172(13) . . .
176(13) . . .
212(15) . . .
191(14) . . .
185(14) . . .
174(13) . . .
177(13) . . .
169(13) . . .
172(13) . . .
182(13) . . .
186(14) . . .
190(14) . . .
182(13) . . .
185(14) . . .
185(14) . . .
181(13) . . .
165(13) . . .
180(13) . . .
169(13) . . .
165(13) . . .
190(14) . . .
199(14) . . .
186(14) . . .
171(13) . . .
172(13) . . .
176(13) . . .
201(14) . . .
186(14) . . .
179(13) . . .
176(13) . . .
173(13) . . .
175(13) . . .
175(13) . . .
168(13) . . .
160(13) . . .
178(13) . . .
188(14) . . .
155(12) . . .
178(13) . . .
174(13) . . .
182(13) . . .
174(13) . . .
180(13) . . .
178(13) . . .
188(14) . . .
188(14) . . .
197(14) . . .
175(13) . . .
176(13) . . .
169(13) . . .
180(13) . . .
181(13) . . .
189(14) . . .
165(13) . . .
180(13) . . .
163(13) . . .
172(13) . . .
177(13) . . .
188(14) . . .
151(12) . . .
195(14) . . .
173(13) . . .
168(13) . . .
208(14) . . .
161(13) . . .
173(13) . . .
175(13) . . .
165(13) . . .
163(13) . . .
185(14) . . .
183(14) . . .
176(13) . . .
186(14) . . .
198(14) . . .
189(14) . . .
179(13) . . .
172(13) . . .
184(14) . . .
190(14) . . .
193(14) . . .
196(14) . . .
162(13) . . .
204(14) . . .
168(13) . . .
193(14) . . .
175(13) . . .
185(14) . . .
173(13) . . .
195(14) . . .
194(14) . . .
211(15) . . .
178(13) . . .
184(14) . . .
176(13) . . .
167(13) . . .
197(14) . . .
198(14) . . .
154(12) . . .
210(14) . . .
179(13) . . .
175(13) . . .
178(13) . . .
180(13) . . .
183(14) . . .
190(14) . . .
161(13) . . .
199(14) . . .
144(12) . . .
184(14) . . .
192(14) . . .
178(13) . . .
192(14) . . .
202(14) . . .
178(13) . . .
189(14) . . .
192(14) . . .
200(14) . . .
184(14) . . .
181(13) . . .
177(13) . . .
194(14) . . .
209(14) . . .
197(14) . . .
185(14) . . .
194(14) . . .
175(13) . . .
171(13) . . .
182(13) . . .
200(14) . . .
173(13) . . .
195(14) . . .
188(14) . . .
180(13) . . .
182(13) . . .
191(14) . . .
189(14) . . .
200(14) . . .
207(14) . . .
185(14) . . .
195(14) . . .
198(14) . . .
186(14) . . .
183(14) . . .
190(14) . . .
183(14) . . .
181(13) . . .
182(13) . . .
188(14) . . .
194(14) . . .
183(14) . . .
182(13) . . .
194(14) . . .
176(13) . . .
191(14) . . .
176(13) . . .
186(14) . . .
181(13) . . .
172(13) . . .
176(13) . . .
180(13) . . .
160(13) . . .
201(14) . . .
177(13) . . .
186(14) . . .
190(14) . . .
178(13) . . .
178(13) . . .
188(14) . . .
193(14) . . .
183(14) . . .
200(14) . . .
172(13) . . .
199(14) . . .
184(14) . . .
151(12) . . .
180(13) . . .
176(13) . . .
188(14) . . .
180(13) . . .
206(14) . . .
185(14) . . .
186(14) . . .
178(13) . . .
182(13) . . .
191(14) . . .
179(13) . . .
191(14) . . .
162(13) . . .
200(14) . . .
196(14) . . .
181(13) . . .
186(14) . . .
198(14) . . .
185(14) . . .
174(13) . . .
203(14) . . .
178(13) . . .
177(13) . . .
184(14) . . .
166(13) . . .
193(14) . . .
157(13) . . .
200(14) . . .
202(14) . . .
197(14) . . .
195(14) . . .
184(14) . . .
176(13) . . .
164(13) . . .
189(14) . . .
186(14) . . .
174(13) . . .
170(13) . . .
174(13) . . .
180(13) . . .
170(13) . . .
193(14) . . .
198(14) . . .
180(13) . . .
190(14) . . .
177(13) . . .
170(13) . . .
176(13) . . .
177(13) . . .
179(13) . . .
198(14) . . .
184(14) . . .
186(14) . . .
181(13) . . .
199(14) . . .
185(14) . . .
174(13) . . .
196(14) . . .
170(13) . . .
176(13) . . .
159(13) . . .
185(14) . . .
170(13) . . .
189(14) . . .
183(14) . . .
182(13) . . .
169(13) . . .
164(13) . . .
187(14) . . .
172(13) . . .
164(13) . . .
182(13) . . .
181(13) . . .
171(13) . . .
166(13) . . .
186(14) . . .
203(14) . . .
194(14) . . .
175(13) . . .
174(13) . . .
186(14) . . .
186(14) . . .
208(14) . . .
198(14) . . .
181(13) . . .
161(13) . . .
191(14) . . .
160(13) . . .
200(14) . . .
188(14) . . .
166(13) . . .
177(13) . . .
171(13) . . .
209(14) . . .
164(13) . . .
183(14) . . .
183(14) . . .
195(14) . . .
155(12) . . .
179(13) . . .
200(14) . . .
185(14) . . .
178(13) . . .
182(13) . . .
174(13) . . .
195(14) . . .
194(14) . . .
196(14) . . .
182(13) . . .
171(13) . . .
167(13) . . .
185(14) . . .
158(13) . . .
162(13) . . .
183(14) . . .
194(14) . . .
194(14) . . .
188(14) . . .
173(13) . . .
183(14) . . .
201(14) . . .
203(14) . . .
188(14) . . .
177(13) . . .
177(13) . . .
198(14) . . .
185(14) . . .
193(14) . . .
171(13) . . .
173(13) . . .
185(14) . . .
178(13) . . .
183(14) . . .
173(13) . . .
194(14) . . .
177(13) . . .
170(13) . . .
200(14) . . .
199(14) . . .
180(13) . . .
175(13) . . .
167(13) . . .
172(13) . . .
195(14) . . .
181(13) . . .
158(13) . . .
195(14) . . .
186(14) . . .
181(13) . . .
193(14) . . .
174(13) . . .
165(13) . . .
176(13) . . .
163(13) . . .
192(14) . . .
179(13) . . .
181(13) . . .
177(13) . . .
178(13) . . .
194(14) . . .
197(14) . . .
175(13) . . .
198(14) . . .
169(13) . . .
186(14) . . .
183(14) . . .
165(13) . . .
179(13) . . .
176(13) . . .
193(14) . . .
188(14) . . .
189(14) . . .
166(13) . . .
193(14) . . .
167(13) . . .
186(14) . . .
181(13) . . .
195(14) . . .
192(14) . . .
184(14) . . .
213(15) . . .
178(13) . . .
176(13) . . .
174(13) . . .
193(14) . . .
201(14) . . .
199(14) . . .
191(14) . . .
183(14) . . .
193(14) . . .
197(14) . . .
188(14) . . .
175(13) . . .
205(14) . . .
171(13) . . .
194(14) . . .
179(13) . . .
172(13) . . .
178(13) . . .
196(14) . . .
185(14) . . .
179(13) . . .
217(15) . . .
187(14) . . .
191(14) . . .
185(14) . . .
190(14) . . .
186(14) . . .
170(13) . . .
168(13) . . .
187(14) . . .
180(13) . . .
183(14) . . .
168(13) . . .
195(14) . . .
192(14) . . .
167(13) . . .
199(14) . . .
195(14) . . .
188(14) . . .
188(14) . . .
179(13) . . .
194(14) . . .
171(13) . . .
180(13) . . .
182(13) . . .
201(14) . . .
215(15) . . .
190(14) . . .
200(14) . . .
193(14) . . .
180(13) . . .
206(14) . . .
184(14) . . .
185(14) . . .
178(13) . . .
197(14) . . .
208(14) . . .
183(14) . . .
171(13) . . .
186(14) . . .
201(14) . . .
179(13) . . .
191(14) . . .
181(13) . . .
196(14) . . .
182(13) . . .
184(14) . . .
194(14) . . .
176(13) . . .
182(13) . . .
197(14) . . .
194(14) . . .
184(14) . . .
189(14) . . .
202(14) . . .
171(13) . . .
179(13) . . .
187(14) . . .
185(14) . . .
176(13) . . .
213(15) . . .
192(14) . . .
180(13) . . .
205(14) . . .
198(14) . . .
184(14) . . .
194(14) . . .
214(15) . . .
162(13) . . .
202(14) . . .
175(13) . . .
176(13) . . .
181(13) . . .
193(14) . . .
201(14) . . .
181(13) . . .
185(14) . . .
207(14) . . .
219(15) . . .
205(14) . . .
199(14) . . .
207(14) . . .
209(14) . . .
195(14) . . .
168(13) . . .
188(14) . . .
208(14) . . .
206(14) . . .
184(14) . . .
190(14) . . .
192(14) . . .
192(14) . . .
188(14) . . .
199(14) . . .
210(14) . . .
220(15) . . .
221(15) . . .
208(14) . . .
213(15) . . .
186(14) . . .
236(15) . . .
206(14) . . .
204(14) . . .
181(13) . . .
202(14) . . .
184(14) . . .
202(14) . . .
199(14) . . .
209(14) . . .
199(14) . . .
231(15) . . .
212(15) . . .
234(15) . . .
208(14) . . .
220(15) . . .
224(15) . . .
217(15) . . .
210(14) . . .
212(15) . . .
220(15) . . .
226(15) . . .
227(15) . . .
231(15) . . .
232(15) . . .
240(15) . . .
277(17) . . .
264(16) . . .
258(16) . . .
263(16) . . .
264(16) . . .
273(17) . . .
253(16) . . .
272(16) . . .
277(17) . . .
275(17) . . .
291(17) . . .
270(16) . . .
310(18) . . .
329(18) . . .
336(18) . . .
352(19) . . .
345(19) . . .
386(20) . . .
378(19) . . .
377(19) . . .
447(21) . . .
484(22) . . .
469(22) . . .
534(23) . . .
487(22) . . .
587(24) . . .
576(24) . . .
652(26) . . .
658(26) . . .
755(27) . . .
825(29) . . .
880(30) . . .
1015(32) . . .
1057(33) . . .
1218(35) . . .
1394(37) . . .
1552(39) . . .
1778(42) . . .
1983(45) . . .
2258(48) . . .
2431(49) . . .
2618(51) . . .
2980(55) . . .
3211(57) . . .
3332(58) . . .
3336(58) . . .
3532(59) . . .
3451(59) . . .
3379(58) . . .
3195(57) . . .
3000(55) . . .
2789(53) . . .
2526(50) . . .
2273(48) . . .
2082(46) . . .
1824(43) . . .
1566(40) . . .
1419(38) . . .
1333(37) . . .
1154(34) . . .
1042(32) . . .
924(30) . . .
839(29) . . .
813(29) . . .
719(27) . . .
670(26) . . .
605(25) . . .
533(23) . . .
534(23) . . .
508(23) . . .
479(22) . . .
452(21) . . .
439(21) . . .
404(20) . . .
410(20) . . .
373(19) . . .
379(19) . . .
334(18) . . .
305(17) . . .
333(18) . . .
320(18) . . .
290(17) . . .
298(17) . . .
246(16) . . .
312(18) . . .
252(16) . . .
294(17) . . .
271(16) . . .
255(16) . . .
294(17) . . .
276(17) . . .
247(16) . . .
249(16) . . .
236(15) . . .
217(15) . . .
263(16) . . .
248(16) . . .
263(16) . . .
224(15) . . .
207(14) . . .
242(16) . . .
220(15) . . .
225(15) . . .
201(14) . . .
218(15) . . .
211(15) . . .
208(14) . . .
210(14) . . .
208(14) . . .
203(14) . . .
208(14) . . .
196(14) . . .
200(14) . . .
211(15) . . .
199(14) . . .
218(15) . . .
198(14) . . .
215(15) . . .
211(15) . . .
186(14) . . .
214(15) . . .
187(14) . . .
207(14) . . .
199(14) . . .
196(14) . . .
220(15) . . .
234(15) . . .
212(15) . . .
213(15) . . .
181(13) . . .
202(14) . . .
195(14) . . .
200(14) . . .
211(15) . . .
197(14) . . .
195(14) . . .
184(14) . . .
199(14) . . .
184(14) . . .
186(14) . . .
177(13) . . .
184(14) . . .
199(14) . . .
208(14) . . .
193(14) . . .
189(14) . . .
201(14) . . .
200(14) . . .
176(13) . . .
184(14) . . .
176(13) . . .
188(14) . . .
201(14) . . .
189(14) . . .
186(14) . . .
182(13) . . .
181(13) . . .
193(14) . . .
184(14) . . .
172(13) . . .
169(13) . . .
195(14) . . .
204(14) . . .
194(14) . . .
176(13) . . .
177(13) . . .
193(14) . . .
184(14) . . .
192(14) . . .
176(13) . . .
160(13) . . .
187(14) . . .
186(14) . . .
178(13) . . .
179(13) . . .
204(14) . . .
181(13) . . .
187(14) . . .
196(14) . . .
163(13) . . .
175(13) . . .
194(14) . . .
189(14) . . .
181(13) . . .
193(14) . . .
180(13) . . .
196(14) . . .
188(14) . . .
175(13) . . .
174(13) . . .
185(14) . . .
180(13) . . .
179(13) . . .
184(14) . . .
165(13) . . .
196(14) . . .
159(13) . . .
172(13) . . .
157(13) . . .
197(14) . . .
182(13) . . .
166(13) . . .
176(13) . . .
185(14) . . .
193(14) . . .
177(13) . . .
170(13) . . .
160(13) . . .
169(13) . . .
160(13) . . .
174(13) . . .
182(13) . . .
173(13) . . .
180(13) . . .
200(14) . . .
153(12) . . .
181(13) . . .
199(14) . . .
153(12) . . .
178(13) . . .
157(13) . . .
166(13) . . .
198(14) . . .
183(14) . . .
167(13) . . .
175(13) . . .
174(13) . . .
163(13) . . .
184(14) . . .
172(13) . . .
155(12) . . .
169(13) . . .
158(13) . . .
184(14) . . .
165(13) . . .
191(14) . . .
182(13) . . .
206(14) . . .
190(14) . . .
165(13) . . .
166(13) . . .
172(13) . . .
181(13) . . .
182(13) . . .
170(13) . . .
156(12) . . .
167(13) . . .
171(13) . . .
163(13) . . .
151(12) . . .
183(14) . . .
162(13) . . .
182(13) . . .
163(13) . . .
174(13) . . .
174(13) . . .
168(13) . . .
155(12) . . .
156(12) . . .
173(13) . . .
169(13) . . .
179(13) . . .
177(13) . . .
176(13) . . .
159(13) . . .
170(13) . . .
164(13) . . .
184(14) . . .
164(13) . . .
153(12) . . .
193(14) . . .
169(13) . . .
162(13) . . .
165(13) . . .
187(14) . . .
185(14) . . .
168(13) . . .
165(13) . . .
175(13) . . .
156(12) . . .
161(13) . . .
168(13) . . .
182(13) . . .
159(13) . . .
176(13) . . .
162(13) . . .
155(12) . . .
161(13) . . .
183(14) . . .
162(13) . . .
161(13) . . .
160(13) . . .
187(14) . . .
147(12) . . .
165(13) . . .
154(12) . . .
169(13) . . .
168(13) . . .
183(14) . . .
174(13) . . .
147(12) . . .
167(13) . . .
164(13) . . .
173(13) . . .
170(13) . . .
151(12) . . .
157(13) . . .
168(13) . . .
161(13) . . .
166(13) . . .
145(12) . . .
172(13) . . .
154(12) . . .
161(13) . . .
179(13) . . .
156(12) . . .
163(13) . . .
175(13) . . .
182(13) . . .
152(12) . . .
164(13) . . .
137(12) . . .
171(13) . . .
153(12) . . .
177(13) . . .
175(13) . . .
193(14) . . .
169(13) . . .
152(12) . . .
140(12) . . .
187(14) . . .
173(13) . . .
173(13) . . .
170(13) . . .
162(13) . . .
157(13) . . .
160(13) . . .
181(13) . . .
181(13) . . .
151(12) . . .
181(13) . . .
174(13) . . .
167(13) . . .
175(13) . . .
158(13) . . .
155(12) . . .
168(13) . . .
184(14) . . .
161(13) . . .
167(13) . . .
150(12) . . .
176(13) . . .
159(13) . . .
149(12) . . .
177(13) . . .
171(13) . . .
149(12) . . .
163(13) . . .
170(13) . . .
174(13) . . .
176(13) . . .
177(13) . . .
164(13) . . .
159(13) . . .
147(12) . . .
162(13) . . .
147(12) . . .
157(13) . . .
183(14) . . .
154(12) . . .
154(12) . . .
168(13) . . .
160(13) . . .
151(12) . . .
166(13) . . .
146(12) . . .
161(13) . . .
167(13) . . .
178(13) . . .
157(13) . . .
154(12) . . .
156(12) . . .
161(13) . . .
141(12) . . .
161(13) . . .
144(12) . . .
158(13) . . .
167(13) . . .
165(13) . . .
156(12) . . .
139(12) . . .
153(12) . . .
162(13) . . .
178(13) . . .
157(13) . . .
180(13) . . .
164(13) . . .
159(13) . . .
158(13) . . .
180(13) . . .
160(13) . . .
160(13) . . .
168(13) . . .
150(12) . . .
161(13) . . .
164(13) . . .
144(12) . . .
186(14) . . .
158(13) . . .
150(12) . . .
180(13) . . .
154(12) . . .
153(12) . . .
181(13) . . .
150(12) . . .
165(13) . . .
164(13) . . .
161(13) . . .
183(14) . . .
175(13) . . .
176(13) . . .
186(14) . . .
157(13) . . .
169(13) . . .
161(13) . . .
157(13) . . .
149(12) . . .
167(13) . . .
157(13) . . .
153(12) . . .
163(13) . . .
170(13) . . .
162(13) . . .
176(13) . . .
136(12) . . .
163(13) . . .
167(13) . . .
178(13) . . .
175(13) . . .
159(13) . . .
170(13) . . .
152(12) . . .
175(13) . . .
150(12) . . .
166(13) . . .
148(12) . . .
178(13) . . .
172(13) . . .
148(12) . . .
151(12) . . .
156(12) . . .
186(14) . . .
181(13) . . .
162(13) . . .
139(12) . . .
144(12) . . .
148(12) . . .
171(13) . . .
167(13) . . .
165(13) . . .
180(13) . . .
164(13) . . .
157(13) . . .
157(13) . . .
159(13) . . .
158(13) . . .
159(13) . . .
161(13) . . .
173(13) . . .
162(13) . . .
177(13) . . .
147(12) . . .
179(13) . . .
171(13) . . .
155(12) . . .
165(13) . . .
158(13) . . .
161(13) . . .
181(13) . . .
150(12) . . .
140(12) . . .
142(12) . . .
178(13) . . .
146(12) . . .
171(13) . . .
170(13) . . .
148(12) . . .
158(13) . . .
180(13) . . .
163(13) . . .
160(13) . . .
177(13) . . .
157(13) . . .
164(13) . . .
161(13) . . .
165(13) . . .
166(13) . . .
188(14) . . .
144(12) . . .
150(12) . . .
157(13) . . .
162(13) . . .
144(12) . . .
163(13) . . .
167(13) . . .
160(13) . . .
160(13) . . .
153(12) . . .
141(12) . . .
150(12) . . .
163(13) . . .
169(13) . . .
158(13) . . .
160(13) . . .
165(13) . . .
160(13) . . .
142(12) . . .
164(13) . . .
151(12) . . .
138(12) . . .
181(13) . . .
155(12) . . .
157(13) . . .
145(12) . . .
169(13) . . .
162(13) . . .
188(14) . . .
147(12) . . .
170(13) . . .
159(13) . . .
139(12) . . .
148(12) . . .
174(13) . . .
161(13) . . .
146(12) . . .
156(12) . . .
143(12) . . .
175(13) . . .
144(12) . . .
161(13) . . .
149(12) . . .
162(13) . . .
162(13) . . .
173(13) . . .
146(12) . . .
155(12) . . .
170(13) . . .
163(13) . . .
148(12) . . .
135(12) . . .
159(13) . . .
156(12) . . .
176(13) . . .
148(12) . . .
152(12) . . .
166(13) . . .
149(12) . . .
154(12) . . .
150(12) . . .
163(13) . . .
176(13) . . .
149(12) . . .
154(12) . . .
134(12) . . .
144(12) . . .
154(12) . . .
182(13) . . .
160(13) . . .
147(12) . . .
142(12) . . .
153(12) . . .
169(13) . . .
152(12) . . .
151(12) . . .
159(13) . . .
169(13) . . .
175(13) . . .
154(12) . . .
149(12) . . .
161(13) . . .
148(12) . . .
142(12) . . .
153(12) . . .
155(12) . . .
154(12) . . .
158(13) . . .
165(13) . . .
160(13) . . .
141(12) . . .
152(12) . . .
151(12) . . .
160(13) . . .
155(12) . . .
144(12) . . .
137(12) . . .
144(12) . . .
170(13) . . .
138(12) . . .
152(12) . . .
175(13) . . .
158(13) . . .
144(12) . . .
157(13) . . .
171(13) . . .
164(13) . . .
151(12) . . .
143(12) . . .
155(12) . . .
170(13) . . .
158(13) . . .
137(12) . . .
141(12) . . .
167(13) . . .
148(12) . . .
149(12) . . .
150(12) . . .
148(12) . . .
159(13) . . .
175(13) . . .
168(13) . . .
166(13) . . .
144(12) . . .
165(13) . . .
175(13) . . .
153(12) . . .
151(12) . . .
151(12) . . .
132(11) . . .
145(12) . . .
147(12) . . .
164(13) . . .
153(12) . . .
157(13) . . .
150(12) . . .
138(12) . . .
169(13) . . .
164(13) . . .
163(13) . . .
166(13) . . .
149(12) . . .
153(12) . . .
162(13) . . .
163(13) . . .
152(12) . . .
165(13) . . .
152(12) . . .
149(12) . . .
163(13) . . .
148(12) . . .
154(12) . . .
179(13) . . .
133(12) . . .
138(12) . . .
151(12) . . .
135(12) . . .
176(13) . . .
163(13) . . .
156(12) . . .
153(12) . . .
145(12) . . .
155(12) . . .
162(13) . . .
149(12) . . .
165(13) . . .
147(12) . . .
155(12) . . .
158(13) . . .
145(12) . . .
154(12) . . .
152(12) . . .
143(12) . . .
132(11) . . .
159(13) . . .
152(12) . . .
155(12) . . .
173(13) . . .
153(12) . . .
164(13) . . .
132(11) . . .
163(13) . . .
154(12) . . .
162(13) . . .
164(13) . . .
154(12) . . .
154(12) . . .
145(12) . . .
173(13) . . .
158(13) . . .
161(13) . . .
180(13) . . .
144(12) . . .
159(13) . . .
168(13) . . .
153(12) . . .
153(12) . . .
147(12) . . .
169(13) . . .
140(12) . . .
157(13) . . .
186(14) . . .
153(12) . . .
164(13) . . .
150(12) . . .
141(12) . . .
142(12) . . .
151(12) . . .
160(13) . . .
149(12) . . .
158(13) . . .
168(13) . . .
156(12) . . .
168(13) . . .
173(13) . . .
158(13) . . .
154(12) . . .
142(12) . . .
182(13) . . .
151(12) . . .
153(12) . . .
155(12) . . .
151(12) . . .
164(13) . . .
147(12) . . .
158(13) . . .
155(12) . . .
131(11) . . .
153(12) . . .
166(13) . . .
139(12) . . .
164(13) . . .
159(13) . . .
156(12) . . .
156(12) . . .
151(12) . . .
148(12) . . .
153(12) . . .
141(12) . . .
161(13) . . .
157(13) . . .
163(13) . . .
157(13) . . .
164(13) . . .
140(12) . . .
140(12) . . .
151(12) . . .
144(12) . . .
161(13) . . .
176(13) . . .
144(12) . . .
147(12) . . .
148(12) . . .
167(13) . . .
164(13) . . .
139(12) . . .
149(12) . . .
151(12) . . .
157(13) . . .
154(12) . . .
164(13) . . .
137(12) . . .
163(13) . . .
175(13) . . .
145(12) . . .
171(13) . . .
154(12) . . .
149(12) . . .
157(13) . . .
173(13) . . .
147(12) . . .
157(13) . . .
172(13) . . .
161(13) . . .
176(13) . . .
169(13) . . .
150(12) . . .
159(13) . . .
167(13) . . .
160(13) . . .
148(12) . . .
157(13) . . .
152(12) . . .
151(12) . . .
157(13) . . .
146(12) . . .
169(13) . . .
159(13) . . .
170(13) . . .
170(13) . . .
167(13) . . .
145(12) . . .
171(13) . . .
174(13) . . .
146(12) . . .
166(13) . . .
168(13) . . .
171(13) . . .
136(12) . . .
179(13) . . .
166(13) . . .
146(12) . . .
156(12) . . .
172(13) . . .
155(12) . . .
141(12) . . .
158(13) . . .
158(13) . . .
167(13) . . .
170(13) . . .
171(13) . . .
147(12) . . .
178(13) . . .
148(12) . . .
179(13) . . .
169(13) . . .
170(13) . . .
159(13) . . .
175(13) . . .
169(13) . . .
159(13) . . .
184(14) . . .
176(13) . . .
155(12) . . .
161(13) . . .
170(13) . . .
170(13) . . .
173(13) . . .
150(12) . . .
163(13) . . .
171(13) . . .
169(13) . . .
162(13) . . .
169(13) . . .
162(13) . . .
164(13) . . .
172(13) . . .
144(12) . . .
160(13) . . .
156(12) . . .
153(12) . . .
182(13) . . .
170(13) . . .
173(13) . . .
171(13) . . .
162(13) . . .
174(13) . . .
175(13) . . .
154(12) . . .
173(13) . . .
155(12) . . .
170(13) . . .
168(13) . . .
146(12) . . .
182(13) . . .
169(13) . . .
170(13) . . .
182(13) . . .
170(13) . . .
158(13) . . .
183(14) . . .
183(14) . . .
168(13) . . .
173(13) . . .
177(13) . . .
181(13) . . .
183(14) . . .
180(13) . . .
173(13) . . .
176(13) . . .
174(13) . . .
163(13) . . .
185(14) . . .
179(13) . . .
201(14) . . .
149(12) . . .
176(13) . . .
168(13) . . .
181(13) . . .
159(13) . . .
153(12) . . .
170(13) . . .
171(13) . . .
157(13) . . .
166(13) . . .
195(14) . . .
166(13) . . .
166(13) . . .
176(13) . . .
164(13) . . .
166(13) . . .
187(14) . . .
185(14) . . .
181(13) . . .
168(13) . . .
180(13) . . .
205(14) . . .
183(14) . . .
175(13) . . .
170(13) . . .
178(13) . . .
184(14) . . .
176(13) . . .
180(13) . . .
187(14) . . .
180(13) . . .
182(13) . . .
183(14) . . .
228(15) . . .
193(14) . . .
206(14) . . .
212(15) . . .
212(15) . . .
199(14) . . .
238(15) . . .
221(15) . . .
229(15) . . .
225(15) . . .
234(15) . . .
228(15) . . .
225(15) . . .
234(15) . . .
269(16) . . .
241(16) . . .
243(16) . . .
246(16) . . .
283(17) . . .
252(16) . . .
309(18) . . .
318(18) . . .
343(19) . . .
324(18) . . .
350(19) . . .
373(19) . . .
393(20) . . .
433(21) . . .
425(21) . . .
490(22) . . .
519(23) . . .
563(24) . . .
586(24) . . .
641(25) . . .
658(26) . . .
750(27) . . .
846(29) . . .
914(30) . . .
1028(32) . . .
1090(33) . . .
1168(34) . . .
1321(36) . . .
1378(37) . . .
1523(39) . . .
1613(40) . . .
1691(41) . . .
1759(42) . . .
1862(43) . . .
1868(43) . . .
1855(43) . . .
1797(42) . . .
1738(42) . . .
1658(41) . . .
1634(40) . . .
1502(39) . . .
1390(37) . . .
1302(36) . . .
1182(34) . . .
1088(33) . . .
952(31) . . .
884(30) . . .
822(29) . . .
735(27) . . .
650(25) . . .
621(25) . . .
552(23) . . .
516(23) . . .
492(22) . . .
431(21) . . .
446(21) . . .
406(20) . . .
397(20) . . .
349(19) . . .
355(19) . . .
333(18) . . .
310(18) . . .
283(17) . . .
285(17) . . .
286(17) . . .
270(16) . . .
273(17) . . .
247(16) . . .
255(16) . . .
231(15) . . .
237(15) . . .
232(15) . . .
237(15) . . .
229(15) . . .
218(15) . . .
233(15) . . .
216(15) . . .
211(15) . . .
192(14) . . .
195(14) . . .
193(14) . . .
210(14) . . .
188(14) . . .
206(14) . . .
180(13) . . .
216(15) . . .
201(14) . . .
187(14) . . .
183(14) . . .
195(14) . . .
187(14) . . .
189(14) . . .
172(13) . . .
195(14) . . .
157(13) . . .
193(14) . . .
159(13) . . .
183(14) . . .
177(13) . . .
159(13) . . .
170(13) . . .
169(13) . . .
157(13) . . .
170(13) . . .
185(14) . . .
169(13) . . .
154(12) . . .
159(13) . . .
178(13) . . .
173(13) . . .
175(13) . . .
172(13) . . .
152(12) . . .
170(13) . . .
185(14) . . .
186(14) . . .
177(13) . . .
197(14) . . .
187(14) . . .
164(13) . . .
160(13) . . .
150(12) . . .
160(13) . . .
150(12) . . .
163(13) . . .
162(13) . . .
174(13) . . .
173(13) . . .
171(13) . . .
174(13) . . .
167(13) . . .
177(13) . . .
167(13) . . .
146(12) . . .
159(13) . . .
202(14) . . .
163(13) . . .
173(13) . . .
154(12) . . .
175(13) . . .
180(13) . . .
168(13) . . .
173(13) . . .
161(13) . . .
164(13) . . .
158(13) . . .
149(12) . . .
147(12) . . .
161(13) . . .
135(12) . . .
158(13) . . .
181(13) . . .
178(13) . . .
163(13) . . .
162(13) . . .
161(13) . . .
173(13) . . .
151(12) . . .
157(13) . . .
185(14) . . .
176(13) . . .
156(12) . . .
179(13) . . .
143(12) . . .
178(13) . . .
162(13) . . .
158(13) . . .
173(13) . . .
151(12) . . .
165(13) . . .
176(13) . . .
162(13) . . .
162(13) . . .
168(13) . . .
156(12) . . .
166(13) . . .
151(12) . . .
155(12) . . .
160(13) . . .
152(12) . . .
149(12) . . .
135(12) . . .
146(12) . . .
159(13) . . .
156(12) . . .
154(12) . . .
163(13) . . .
150(12) . . .
142(12) . . .
156(12) . . .
154(12) . . .
153(12) . . .
138(12) . . .
154(12) . . .
178(13) . . .
161(13) . . .
167(13) . . .
164(13) . . .
160(13) . . .
164(13) . . .
162(13) . . .
167(13) . . .
170(13) . . .
157(13) . . .
143(12) . . .
157(13) . . .
155(12) . . .
142(12) . . .
156(12) . . .
137(12) . . .
167(13) . . .
165(13) . . .
146(12) . . .
168(13) . . .
162(13) . . .
143(12) . . .
130(11) . . .
163(13) . . .
155(12) . . .
150(12) . . .
165(13) . . .
161(13) . . .
162(13) . . .
161(13) . . .
168(13) . . .
157(13) . . .
163(13) . . .
153(12) . . .
165(13) . . .
165(13) . . .
154(12) . . .
158(13) . . .
155(12) . . .
171(13) . . .
186(14) . . .
176(13) . . .
158(13) . . .
142(12) . . .
177(13) . . .
152(12) . . .
164(13) . . .
156(12) . . .
130(11) . . .
176(13) . . .
142(12) . . .
163(13) . . .
177(13) . . .
150(12) . . .
149(12) . . .
167(13) . . .
173(13) . . .
150(12) . . .
157(13) . . .
159(13) . . .
167(13) . . .
164(13) . . .
152(12) . . .
164(13) . . .
155(12) . . .
151(12) . . .
171(13) . . .
168(13) . . .
164(13) . . .
165(13) . . .
144(12) . . .
166(13) . . .
173(13) . . .
168(13) . . .
170(13) . . .
145(12) . . .
154(12) . . .
149(12) . . .
165(13) . . .
163(13) . . .
183(14) . . .
166(13) . . .
159(13) . . .
168(13) . . .
160(13) . . .
191(14) . . .
174(13) . . .
181(13) . . .
181(13) . . .
173(13) . . .
182(13) . . .
158(13) . . .
192(14) . . .
204(14) . . .
203(14) . . .
169(13) . . .
198(14) . . .
187(14) . . .
187(14) . . .
205(14) . . .
229(15) . . .
218(15) . . .
230(15) . . .
243(16) . . .
236(15) . . .
214(15) . . .
230(15) . . .
242(16) . . .
240(15) . . .
229(15) . . .
229(15) . . .
237(15) . . .
247(16) . . .
254(16) . . .
272(16) . . .
247(16) . . .
260(16) . . .
296(17) . . .
296(17) . . .
330(18) . . .
314(18) . . .
325(18) . . .
412(20) . . .
401(20) . . .
434(21) . . .
447(21) . . .
453(21) . . .
511(23) . . .
554(24) . . .
622(25) . . .
655(26) . . .
687(26) . . .
751(27) . . .
771(28) . . .
863(29) . . .
993(32) . . .
1082(33) . . .
1074(33) . . .
1253(35) . . .
1189(34) . . .
1302(36) . . .
1341(37) . . .
1378(37) . . .
1245(35) . . .
1236(35) . . .
1239(35) . . .
1191(35) . . .
1118(33) . . .
1005(32) . . .
890(30) . . .
777(28) . . .
756(27) . . .
666(26) . . .
622(25) . . .
556(24) . . .
540(23) . . .
482(22) . . .
439(21) . . .
420(20) . . .
421(21) . . .
382(20) . . .
356(19) . . .
313(18) . . .
331(18) . . .
322(18) . . .
293(17) . . .
279(17) . . .
277(17) . . .
259(16) . . .
247(16) . . .
257(16) . . .
229(15) . . .
254(16) . . .
224(15) . . .
234(15) . . .
213(15) . . .
214(15) . . .
216(15) . . .
219(15) . . .
211(15) . . .
245(16) . . .
196(14) . . .
201(14) . . .
207(14) . . .
175(13) . . .
196(14) . . .
190(14) . . .
206(14) . . .
195(14) . . .
187(14) . . .
161(13) . . .
207(14) . . .
175(13) . . .
166(13) . . .
190(14) . . .
163(13) . . .
182(13) . . .
155(12) . . .
173(13) . . .
166(13) . . .
154(12) . . .
171(13) . . .
159(13) . . .
144(12) . . .
172(13) . . .
152(12) . . .
181(13) . . .
170(13) . . .
162(13) . . .
162(13) . . .
165(13) . . .
148(12) . . .
189(14) . . .
165(13) . . .
166(13) . . .
149(12) . . .
163(13) . . .
153(12) . . .
175(13) . . .
159(13) . . .
133(12) . . .
165(13) . . .
187(14) . . .
136(12) . . .
151(12) . . .
144(12) . . .
164(13) . . .
155(12) . . .
144(12) . . .
157(13) . . .
150(12) . . .
154(12) . . .
151(12) . . .
143(12) . . .
138(12) . . .
149(12) . . .
156(12) . . .
158(13) . . .
169(13) . . .
162(13) . . .
154(12) . . .
152(12) . . .
152(12) . . .
149(12) . . .
155(12) . . .
155(12) . . .
139(12) . . .
141(12) . . .
163(13) . . .
137(12) . . .
163(13) . . .
155(12) . . .
139(12) . . .
158(13) . . .
153(12) . . .
141(12) . . .
143(12) . . .
133(12) . . .
139(12) . . .
159(13) . . .
132(11) . . .
133(12) . . .
153(12) . . .
151(12) . . .
169(13) . . .
161(13) . . .
139(12) . . .
141(12) . . .
149(12) . . .
154(12) . . .
152(12) . . .
157(13) . . .
141(12) . . .
128(11) . . .
155(12) . . .
127(11) . . .
120(11) . . .
141(12) . . .
154(12) . . .
157(13) . . .
186(14) . . .
145(12) . . .
158(13) . . .
155(12) . . .
143(12) . . .
131(11) . . .
152(12) . . .
146(12) . . .
124(11) . . .
146(12) . . .
154(12) . . .
147(12) . . .
134(12) . . .
134(12) . . .
135(12) . . .
155(12) . . .
141(12) . . .
141(12) . . .
136(12) . . .
132(11) . . .
141(12) . . .
147(12) . . .
138(12) . . .
138(12) . . .
150(12) . . .
162(13) . . .
148(12) . . .
142(12) . . .
166(13) . . .
154(12) . . .
123(11) . . .
139(12) . . .
152(12) . . .
156(12) . . .
137(12) . . .
144(12) . . .
137(12) . . .
151(12) . . .
132(11) . . .
137(12) . . .
143(12) . . .
152(12) . . .
146(12) . . .
151(12) . . .
127(11) . . .
153(12) . . .
136(12) . . .
143(12) . . .
154(12) . . .
147(12) . . .
150(12) . . .
137(12) . . .
155(12) . . .
145(12) . . .
144(12) . . .
143(12) . . .
155(12) . . .
144(12) . . .
132(11) . . .
137(12) . . .
153(12) . . .
159(13) . . .
152(12) . . .
147(12) . . .
144(12) . . .
129(11) . . .
161(13) . . .
146(12) . . .
143(12) . . .
153(12) . . .
160(13) . . .
159(13) . . .
145(12) . . .
139(12) . . .
139(12) . . .
145(12) . . .
129(11) . . .
151(12) . . .
142(12) . . .
136(12) . . .
154(12) . . .
136(12) . . .
153(12) . . .
146(12) . . .
137(12) . . .
155(12) . . .
144(12) . . .
150(12) . . .
157(13) . . .
128(11) . . .
157(13) . . .
125(11) . . .
140(12) . . .
158(13) . . .
158(13) . . .
139(12) . . .
147(12) . . .
142(12) . . .
145(12) . . .
138(12) . . .
132(11) . . .
150(12) . . .
166(13) . . .
156(12) . . .
140(12) . . .
148(12) . . .
143(12) . . .
138(12) . . .
147(12) . . .
148(12) . . .
141(12) . . .
137(12) . . .
165(13) . . .
160(13) . . .
143(12) . . .
144(12) . . .
141(12) . . .
143(12) . . .
138(12) . . .
153(12) . . .
134(12) . . .
135(12) . . .
154(12) . . .
133(12) . . .
140(12) . . .
152(12) . . .
159(13) . . .
147(12) . . .
152(12) . . .
139(12) . . .
162(13) . . .
138(12) . . .
139(12) . . .
131(11) . . .
162(13) . . .
161(13) . . .
149(12) . . .
142(12) . . .
150(12) . . .
142(12) . . .
161(13) . . .
149(12) . . .
157(13) . . .
151(12) . . .
155(12) . . .
139(12) . . .
154(12) . . .
144(12) . . .
141(12) . . .
143(12) . . .
132(11) . . .
159(13) . . .
139(12) . . .
156(12) . . .
162(13) . . .
171(13) . . .
147(12) . . .
140(12) . . .
156(12) . . .
138(12) . . .
149(12) . . .
133(12) . . .
138(12) . . .
140(12) . . .
139(12) . . .
136(12) . . .
141(12) . . .
144(12) . . .
132(11) . . .
151(12) . . .
145(12) . . .
140(12) . . .
162(13) . . .
143(12) . . .
147(12) . . .
131(11) . . .
140(12) . . .
139(12) . . .
145(12) . . .
154(12) . . .
150(12) . . .
133(12) . . .
139(12) . . .
137(12) . . .
138(12) . . .
150(12) . . .
165(13) . . .
167(13) . . .
154(12) . . .
132(11) . . .
149(12) . . .
148(12) . . .
160(13) . . .
144(12) . . .
133(12) . . .
136(12) . . .
126(11) . . .
128(11) . . .
145(12) . . .
129(11) . . .
128(11) . . .
150(12) . . .
128(11) . . .
138(12) . . .
157(13) . . .
134(12) . . .
162(13) . . .
133(12) . . .
131(11) . . .
139(12) . . .
142(12) . . .
156(12) . . .
136(12) . . .
126(11) . . .
142(12) . . .
141(12) . . .
132(11) . . .
167(13) . . .
149(12) . . .
133(12) . . .
122(11) . . .
134(12) . . .
138(12) . . .
159(13) . . .
119(11) . . .
156(12) . . .
143(12) . . .
133(12) . . .
143(12) . . .
142(12) . . .
146(12) . . .
140(12) . . .
135(12) . . .
157(13) . . .
130(11) . . .
124(11) . . .
137(12) . . .
155(12) . . .
144(12) . . .
141(12) . . .
144(12) . . .
153(12) . . .
150(12) . . .
140(12) . . .
138(12) . . .
123(11) . . .
127(11) . . .
135(12) . . .
156(12) . . .
135(12) . . .
150(12) . . .
146(12) . . .
137(12) . . .
134(12) . . .
139(12) . . .
140(12) . . .
150(12) . . .
138(12) . . .
132(11) . . .
125(11) . . .
125(11) . . .
127(11) . . .
139(12) . . .
140(12) . . .
140(12) . . .
143(12) . . .
138(12) . . .
125(11) . . .
146(12) . . .
142(12) . . .
141(12) . . .
128(11) . . .
127(11) . . .
112(11) . . .
133(12) . . .
150(12) . . .
128(11) . . .
147(12) . . .
135(12) . . .
147(12) . . .
111(11) . . .
136(12) . . .
132(11) . . .
124(11) . . .
153(12) . . .
144(12) . . .
146(12) . . .
153(12) . . .
151(12) . . .
130(11) . . .
148(12) . . .
139(12) . . .
129(11) . . .
151(12) . . .
135(12) . . .
151(12) . . .
142(12) . . .
148(12) . . .
147(12) . . .
139(12) . . .
153(12) . . .
129(11) . . .
137(12) . . .
137(12) . . .
125(11) . . .
133(12) . . .
127(11) . . .
134(12) . . .
140(12) . . .
149(12) . . .
127(11) . . .
137(12) . . .
144(12) . . .
129(11) . . .
135(12) . . .
150(12) . . .
149(12) . . .
132(11) . . .
131(11) . . .
121(11) . . .
151(12) . . .
142(12) . . .
150(12) . . .
129(11) . . .
139(12) . . .
142(12) . . .
147(12) . . .
137(12) . . .
143(12) . . .
156(12) . . .
137(12) . . .
145(12) . . .
135(12) . . .
143(12) . . .
133(12) . . .
145(12) . . .
127(11) . . .
137(12) . . .
127(11) . . .
152(12) . . .
139(12) . . .
143(12) . . .
135(12) . . .
138(12) . . .
166(13) . . .
138(12) . . .
139(12) . . .
134(12) . . .
136(12) . . .
139(12) . . .
134(12) . . .
142(12) . . .
150(12) . . .
143(12) . . .
117(11) . . .
136(12) . . .
154(12) . . .
131(11) . . .
125(11) . . .
145(12) . . .
152(12) . . .
148(12) . . .
120(11) . . .
133(12) . . .
143(12) . . .
147(12) . . .
142(12) . . .
133(12) . . .
143(12) . . .
142(12) . . .
125(11) . . .
132(11) . . .
124(11) . . .
131(11) . . .
123(11) . . .
117(11) . . .
143(12) . . .
162(13) . . .
139(12) . . .
129(11) . . .
116(11) . . .
143(12) . . .
137(12) . . .
153(12) . . .
129(11) . . .
150(12) . . .
127(11) . . .
138(12) . . .
130(11) . . .
143(12) . . .
140(12) . . .
122(11) . . .
136(12) . . .
169(13) . . .
139(12) . . .
131(11) . . .
141(12) . . .
151(12) . . .
129(11) . . .
137(12) . . .
136(12) . . .
149(12) . . .
119(11) . . .
128(11) . . .
157(13) . . .
149(12) . . .
140(12) . . .
147(12) . . .
148(12) . . .
143(12) . . .
138(12) . . .
154(12) . . .
146(12) . . .
141(12) . . .
128(11) . . .
154(12) . . .
162(13) . . .
135(12) . . .
120(11) . . .
127(11) . . .
117(11) . . .
135(12) . . .
139(12) . . .
137(12) . . .
141(12) . . .
143(12) . . .
131(11) . . .
141(12) . . .
164(13) . . .
134(12) . . .
122(11) . . .
122(11) . . .
126(11) . . .
138(12) . . .
139(12) . . .
149(12) . . .
128(11) . . .
145(12) . . .
149(12) . . .
142(12) . . .
133(12) . . .
139(12) . . .
155(12) . . .
138(12) . . .
143(12) . . .
134(12) . . .
143(12) . . .
128(11) . . .
143(12) . . .
129(11) . . .
150(12) . . .
149(12) . . .
128(11) . . .
138(12) . . .
140(12) . . .
124(11) . . .
135(12) . . .
146(12) . . .
135(12) . . .
136(12) . . .
152(12) . . .
145(12) . . .
147(12) . . .
158(13) . . .
140(12) . . .
127(11) . . .
139(12) . . .
116(11) . . .
140(12) . . .
128(11) . . .
143(12) . . .
149(12) . . .
138(12) . . .
123(11) . . .
137(12) . . .
152(12) . . .
154(12) . . .
142(12) . . .
136(12) . . .
132(11) . . .
124(11) . . .
156(12) . . .
148(12) . . .
160(13) . . .
139(12) . . .
156(12) . . .
135(12) . . .
131(11) . . .
148(12) . . .
120(11) . . .
136(12) . . .
143(12) . . .
147(12) . . .
140(12) . . .
150(12) . . .
152(12) . . .
138(12) . . .
153(12) . . .
137(12) . . .
147(12) . . .
131(11) . . .
137(12) . . .
152(12) . . .
140(12) . . .
120(11) . . .
143(12) . . .
137(12) . . .
133(12) . . .
135(12) . . .
141(12) . . .
136(12) . . .
146(12) . . .
133(12) . . .
142(12) . . .
142(12) . . .
137(12) . . .
147(12) . . .
140(12) . . .
135(12) . . .
136(12) . . .
141(12) . . .
128(11) . . .
146(12) . . .
141(12) . . .
166(13) . . .
141(12) . . .
130(11) . . .
140(12) . . .
135(12) . . .
147(12) . . .
132(11) . . .
159(13) . . .
140(12) . . .
119(11) . . .
138(12) . . .
145(12) . . .
129(11) . . .
141(12) . . .
145(12) . . .
144(12) . . .
143(12) . . .
141(12) . . .
141(12) . . .
149(12) . . .
119(11) . . .
131(11) . . .
131(11) . . .
141(12) . . .
147(12) . . .
140(12) . . .
158(13) . . .
128(11) . . .
142(12) . . .
140(12) . . .
122(11) . . .
143(12) . . .
145(12) . . .
136(12) . . .
148(12) . . .
135(12) . . .
142(12) . . .
133(12) . . .
137(12) . . .
126(11) . . .
121(11) . . .
113(11) . . .
138(12) . . .
140(12) . . .
146(12) . . .
135(12) . . .
124(11) . . .
135(12) . . .
151(12) . . .
120(11) . . .
130(11) . . .
148(12) . . .
141(12) . . .
156(12) . . .
124(11) . . .
132(11) . . .
148(12) . . .
132(11) . . .
133(12) . . .
123(11) . . .
135(12) . . .
133(12) . . .
121(11) . . .
142(12) . . .
134(12) . . .
147(12) . . .
150(12) . . .
125(11) . . .
112(11) . . .
155(12) . . .
128(11) . . .
139(12) . . .
121(11) . . .
153(12) . . .
146(12) . . .
144(12) . . .
120(11) . . .
140(12) . . .
124(11) . . .
118(11) . . .
158(13) . . .
142(12) . . .
135(12) . . .
133(12) . . .
122(11) . . .
158(13) . . .
133(12) . . .
118(11) . . .
150(12) . . .
128(11) . . .
126(11) . . .
136(12) . . .
140(12) . . .
132(11) . . .
142(12) . . .
155(12) . . .
121(11) . . .
142(12) . . .
127(11) . . .
135(12) . . .
129(11) . . .
139(12) . . .
130(11) . . .
159(13) . . .
130(11) . . .
150(12) . . .
154(12) . . .
120(11) . . .
136(12) . . .
133(12) . . .
129(11) . . .
121(11) . . .
125(11) . . .
144(12) . . .
109(10) . . .
141(12) . . .
127(11) . . .
131(11) . . .
145(12) . . .
143(12) . . .
126(11) . . .
122(11) . . .
140(12) . . .
132(11) . . .
112(11) . . .
147(12) . . .
157(13) . . .
159(13) . . .
138(12) . . .
130(11) . . .
161(13) . . .
150(12) . . .
122(11) . . .
126(11) . . .
145(12) . . .
143(12) . . .
133(12) . . .
127(11) . . .
143(12) . . .
138(12) . . .
137(12) . . .
138(12) . . .
140(12) . . .
137(12) . . .
140(12) . . .
140(12) . . .
140(12) . . .
109(10) . . .
132(11) . . .
127(11) . . .
127(11) . . .
142(12) . . .
143(12) . . .
166(13) . . .
140(12) . . .
143(12) . . .
142(12) . . .
145(12) . . .
142(12) . . .
134(12) . . .
138(12) . . .
156(12) . . .
130(11) . . .
138(12) . . .
140(12) . . .
144(12) . . .
149(12) . . .
138(12) . . .
152(12) . . .
156(12) . . .
164(13) . . .
157(13) . . .
142(12) . . .
153(12) . . .
136(12) . . .
138(12) . . .
166(13) . . .
150(12) . . .
164(13) . . .
162(13) . . .
140(12) . . .
151(12) . . .
157(13) . . .
144(12) . . .
131(11) . . .
157(13) . . .
145(12) . . .
155(12) . . .
140(12) . . .
140(12) . . .
144(12) . . .
131(11) . . .
157(13) . . .
145(12) . . .
137(12) . . .
126(11) . . .
156(12) . . .
154(12) . . .
127(11) . . .
140(12) . . .
157(13) . . .
142(12) . . .
148(12) . . .
138(12) . . .
152(12) . . .
173(13) . . .
143(12) . . .
113(11) . . .
152(12) . . .
144(12) . . .
151(12) . . .
158(13) . . .
147(12) . . .
145(12) . . .
164(13) . . .
131(11) . . .
141(12) . . .
126(11) . . .
141(12) . . .
138(12) . . .
136(12) . . .
155(12) . . .
163(13) . . .
149(12) . . .
132(11) . . .
158(13) . . .
121(11) . . .
151(12) . . .
145(12) . . .
136(12) . . .
138(12) . . .
123(11) . . .
140(12) . . .
136(12) . . .
146(12) . . .
147(12) . . .
141(12) . . .
135(12) . . .
148(12) . . .
135(12) . . .
134(12) . . .
152(12) . . .
147(12) . . .
134(12) . . .
159(13) . . .
144(12) . . .
141(12) . . .
136(12) . . .
153(12) . . .
139(12) . . .
144(12) . . .
128(11) . . .
151(12) . . .
148(12) . . .
129(11) . . .
145(12) . . .
128(11) . . .
144(12) . . .
136(12) . . .
125(11) . . .
127(11) . . .
148(12) . . .
146(12) . . .
146(12) . . .
134(12) . . .
132(11) . . .
153(12) . . .
139(12) . . .
135(12) . . .
133(12) . . .
139(12) . . .
131(11) . . .
136(12) . . .
135(12) . . .
145(12) . . .
127(11) . . .
126(11) . . .
133(12) . . .
146(12) . . .
121(11) . . .
154(12) . . .
123(11) . . .
133(12) . . .
129(11) . . .
130(11) . . .
144(12) . . .
158(13) . . .
142(12) . . .
138(12) . . .
128(11) . . .
145(12) . . .
145(12) . . .
133(12) . . .
156(12) . . .
138(12) . . .
134(12) . . .
158(13) . . .
145(12) . . .
144(12) . . .
128(11) . . .
135(12) . . .
147(12) . . .
149(12) . . .
131(11) . . .
155(12) . . .
150(12) . . .
145(12) . . .
132(11) . . .
151(12) . . .
145(12) . . .
148(12) . . .
142(12) . . .
137(12) . . .
138(12) . . .
147(12) . . .
151(12) . . .
126(11) . . .
152(12) . . .
160(13) . . .
147(12) . . .
152(12) . . .
150(12) . . .
149(12) . . .
153(12) . . .
153(12) . . .
133(12) . . .
135(12) . . .
135(12) . . .
146(12) . . .
147(12) . . .
142(12) . . .
134(12) . . .
121(11) . . .
129(11) . . .
150(12) . . .
136(12) . . .
136(12) . . .
136(12) . . .
142(12) . . .
132(11) . . .
126(11) . . .
129(11) . . .
150(12) . . .
141(12) . . .
130(11) . . .
141(12) . . .
125(11) . . .
157(13) . . .
133(12) . . .
125(11) . . .
147(12) . . .
145(12) . . .
138(12) . . .
153(12) . . .
138(12) . . .
161(13) . . .
146(12) . . .
122(11) . . .
143(12) . . .
149(12) . . .
129(11) . . .
144(12) . . .
129(11) . . .
142(12) . . .
142(12) . . .
155(12) . . .
133(12) . . .
133(12) . . .
161(13) . . .
152(12) . . .
123(11) . . .
119(11) . . .
145(12) . . .
152(12) . . .
147(12) . . .
146(12) . . .
136(12) . . .
127(11) . . .
134(12) . . .
140(12) . . .
141(12) . . .
134(12) . . .
142(12) . . .
145(12) . . .
125(11) . . .
150(12) . . .
151(12) . . .
137(12) . . .
157(13) . . .
148(12) . . .
130(11) . . .
129(11) . . .
127(11) . . .
154(12) . . .
154(12) . . .
159(13) . . .
139(12) . . .
135(12) . . .
134(12) . . .
129(11) . . .
150(12) . . .
139(12) . . .
131(11) . . .
156(12) . . .
143(12) . . .
143(12) . . .
146(12) . . .
153(12) . . .
128(11) . . .
134(12) . . .
166(13) . . .
131(11) . . .
131(11) . . .
134(12) . . .
145(12) . . .
145(12) . . .
148(12) . . .
137(12) . . .
140(12) . . .
147(12) . . .
136(12) . . .
136(12) . . .
138(12) . . .
120(11) . . .
143(12) . . .
125(11) . . .
136(12) . . .
125(11) . . .
149(12) . . .
130(11) . . .
149(12) . . .
133(12) . . .
145(12) . . .
140(12) . . .
130(11) . . .
120(11) . . .
128(11) . . .
135(12) . . .
159(13) . . .
160(13) . . .
150(12) . . .
127(11) . . .
172(13) . . .
144(12) . . .
149(12) . . .
128(11) . . .
144(12) . . .
147(12) . . .
157(13) . . .
147(12) . . .
162(13) . . .
135(12) . . .
140(12) . . .
126(11) . . .
142(12) . . .
145(12) . . .
146(12) . . .
144(12) . . .
140(12) . . .
142(12) . . .
128(11) . . .
139(12) . . .
138(12) . . .
151(12) . . .
129(11) . . .
133(12) . . .
135(12) . . .
140(12) . . .
140(12) . . .
138(12) . . .
143(12) . . .
161(13) . . .
143(12) . . .
118(11) . . .
147(12) . . .
135(12) . . .
129(11) . . .
153(12) . . .
148(12) . . .
135(12) . . .
148(12) . . .
127(11) . . .
112(11) . . .
129(11) . . .
120(11) . . .
154(12) . . .
144(12) . . .
133(12) . . .
124(11) . . .
129(11) . . .
148(12) . . .
159(13) . . .
137(12) . . .
139(12) . . .
146(12) . . .
137(12) . . .
127(11) . . .
137(12) . . .
140(12) . . .
133(12) . . .
143(12) . . .
139(12) . . .
134(12) . . .
145(12) . . .
151(12) . . .
159(13) . . .
145(12) . . .
136(12) . . .
159(13) . . .
155(12) . . .
143(12) . . .
131(11) . . .
139(12) . . .
163(13) . . .
158(13) . . .
146(12) . . .
172(13) . . .
176(13) . . .
154(12) . . .
166(13) . . .
135(12) . . .
176(13) . . .
160(13) . . .
176(13) . . .
170(13) . . .
180(13) . . .
157(13) . . .
191(14) . . .
203(14) . . .
181(13) . . .
196(14) . . .
214(15) . . .
220(15) . . .
230(15) . . .
230(15) . . .
246(16) . . .
240(15) . . .
222(15) . . .
265(16) . . .
245(16) . . .
252(16) . . .
228(15) . . .
237(15) . . .
254(16) . . .
217(15) . . .
225(15) . . .
210(14) . . .
215(15) . . .
183(14) . . .
193(14) . . .
202(14) . . .
209(14) . . .
174(13) . . .
189(14) . . .
161(13) . . .
170(13) . . .
173(13) . . .
173(13) . . .
167(13) . . .
162(13) . . .
155(12) . . .
152(12) . . .
164(13) . . .
137(12) . . .
151(12) . . .
140(12) . . .
136(12) . . .
172(13) . . .
163(13) . . .
155(12) . . .
164(13) . . .
133(12) . . .
146(12) . . .
134(12) . . .
141(12) . . .
130(11) . . .
148(12) . . .
148(12) . . .
146(12) . . .
149(12) . . .
136(12) . . .
158(13) . . .
137(12) . . .
127(11) . . .
148(12) . . .
140(12) . . .
125(11) . . .
130(11) . . .
137(12) . . .
132(11) . . .
132(11) . . .
127(11) . . .
139(12) . . .
124(11) . . .
152(12) . . .
138(12) . . .
136(12) . . .
137(12) . . .
141(12) . . .
135(12) . . .
150(12) . . .
146(12) . . .
128(11) . . .
134(12) . . .
134(12) . . .
131(11) . . .
124(11) . . .
135(12) . . .
143(12) . . .
146(12) . . .
140(12) . . .
143(12) . . .
141(12) . . .
132(11) . . .
128(11) . . .
142(12) . . .
139(12) . . .
143(12) . . .
139(12) . . .
140(12) . . .
118(11) . . .
143(12) . . .
129(11) . . .
152(12) . . .
129(11) . . .
133(12) . . .
125(11) . . .
146(12) . . .
121(11) . . .
144(12) . . .
131(11) . . .
144(12) . . .
132(11) . . .
131(11) . . .
138(12) . . .
136(12) . . .
139(12) . . .
144(12) . . .
136(12) . . .
143(12) . . .
141(12) . . .
142(12) . . .
134(12) . . .
127(11) . . .
127(11) . . .
140(12) . . .
140(12) . . .
147(12) . . .
135(12) . . .
130(11) . . .
131(11) . . .
135(12) . . .
146(12) . . .
135(12) . . .
135(12) . . .
139(12) . . .
127(11) . . .
128(11) . . .
118(11) . . .
150(12) . . .
147(12) . . .
127(11) . . .
135(12) . . .
125(11) . . .
153(12) . . .
143(12) . . .
128(11) . . .
137(12) . . .
122(11) . . .
136(12) . . .
123(11) . . .
133(12) . . .
134(12) . . .
138(12) . . .
141(12) . . .
138(12) . . .
133(12) . . .
132(11) . . .
144(12) . . .
158(13) . . .
140(12) . . .
143(12) . . .
131(11) . . .
119(11) . . .
129(11) . . .
137(12) . . .
146(12) . . .
132(11) . . .
147(12) . . .
120(11) . . .
125(11) . . .
154(12) . . .
135(12) . . .
139(12) . . .
143(12) . . .
156(12) . . .
144(12) . . .
124(11) . . .
157(13) . . .
136(12) . . .
123(11) . . .
119(11) . . .
143(12) . . .
145(12) . . .
130(11) . . .
149(12) . . .
128(11) . . .
135(12) . . .
155(12) . . .
150(12) . . .
133(12) . . .
151(12) . . .
125(11) . . .
126(11) . . .
121(11) . . .
147(12) . . .
139(12) . . .
122(11) . . .
123(11) . . .
134(12) . . .
122(11) . . .
148(12) . . .
143(12) . . .
134(12) . . .
154(12) . . .
153(12) . . .
135(12) . . .
121(11) . . .
130(11) . . .
139(12) . . .
133(12) . . .
132(11) . . .
132(11) . . .
118(11) . . .
135(12) . . .
158(13) . . .
131(11) . . .
139(12) . . .
139(12) . . .
135(12) . . .
150(12) . . .
125(11) . . .
140(12) . . .
144(12) . . .
140(12) . . .
144(12) . . .
130(11) . . .
148(12) . . .
150(12) . . .
140(12) . . .
135(12) . . .
130(11) . . .
137(12) . . .
142(12) . . .
149(12) . . .
149(12) . . .
147(12) . . .
136(12) . . .
152(12) . . .
140(12) . . .
141(12) . . .
151(12) . . .
144(12) . . .
149(12) . . .
122(11) . . .
134(12) . . .
148(12) . . .
143(12) . . .
132(11) . . .
123(11) . . .
146(12) . . .
148(12) . . .
140(12) . . .
130(11) . . .
141(12) . . .
125(11) . . .
141(12) . . .
178(13) . . .
136(12) . . .
148(12) . . .
117(11) . . .
141(12) . . .
145(12) . . .
145(12) . . .
154(12) . . .
136(12) . . .
135(12) . . .
148(12) . . .
138(12) . . .
144(12) . . .
148(12) . . .
138(12) . . .
138(12) . . .
152(12) . . .
152(12) . . .
162(13) . . .
145(12) . . .
148(12) . . .
162(13) . . .
143(12) . . .
142(12) . . .
128(11) . . .
152(12) . . .
137(12) . . .
132(11) . . .
128(11) . . .
133(12) . . .
136(12) . . .
139(12) . . .
158(13) . . .
142(12) . . .
127(11) . . .
126(11) . . .
149(12) . . .
136(12) . . .
149(12) . . .
138(12) . . .
140(12) . . .
122(11) . . .
141(12) . . .
158(13) . . .
122(11) . . .
153(12) . . .
150(12) . . .
157(13) . . .
140(12) . . .
152(12) . . .
142(12) . . .
133(12) . . .
144(12) . . .
126(11) . . .
137(12) . . .
138(12) . . .
145(12) . . .
146(12) . . .
129(11) . . .
129(11) . . .
159(13) . . .
155(12) . . .
126(11) . . .
150(12) . . .
136(12) . . .
137(12) . . .
130(11) . . .
140(12) . . .
159(13) . . .
143(12) . . .
144(12) . . .
154(12) . . .
140(12) . . .
133(12) . . .
134(12) . . .
151(12) . . .
146(12) . . .
140(12) . . .
141(12) . . .
132(11) . . .
150(12) . . .
151(12) . . .
136(12) . . .
141(12) . . .
144(12) . . .
154(12) . . .
147(12) . . .
155(12) . . .
141(12) . . .
149(12) . . .
152(12) . . .
140(12) . . .
146(12) . . .
136(12) . . .
135(12) . . .
133(12) . . .
147(12) . . .
146(12) . . .
157(13) . . .
134(12) . . .
144(12) . . .
145(12) . . .
141(12) . . .
145(12) . . .
147(12) . . .
139(12) . . .
118(11) . . .
136(12) . . .
134(12) . . .
153(12) . . .
154(12) . . .
133(12) . . .
119(11) . . .
127(11) . . .
137(12) . . .
135(12) . . .
142(12) . . .
126(11) . . .
144(12) . . .
145(12) . . .
148(12) . . .
145(12) . . .
129(11) . . .
123(11) . . .
150(12) . . .
139(12) . . .
164(13) . . .
147(12) . . .
150(12) . . .
121(11) . . .
139(12) . . .
139(12) . . .
141(12) . . .
156(12) . . .
144(12) . . .
149(12) . . .
135(12) . . .
146(12) . . .
147(12) . . .
147(12) . . .
151(12) . . .
135(12) . . .
151(12) . . .
144(12) . . .
140(12) . . .
140(12) . . .
140(12) . . .
138(12) . . .
141(12) . . .
136(12) . . .
144(12) . . .
150(12) . . .
121(11) . . .
149(12) . . .
141(12) . . .
177(13) . . .
143(12) . . .
170(13) . . .
159(13) . . .
129(11) . . .
137(12) . . .
134(12) . . .
152(12) . . .
138(12) . . .
144(12) . . .
163(13) . . .
149(12) . . .
132(11) . . .
143(12) . . .
130(11) . . .
146(12) . . .
148(12) . . .
134(12) . . .
157(13) . . .
135(12) . . .
141(12) . . .
131(11) . . .
145(12) . . .
143(12) . . .
164(13) . . .
137(12) . . .
134(12) . . .
147(12) . . .
131(11) . . .
142(12) . . .
149(12) . . .
135(12) . . .
142(12) . . .
138(12) . . .
140(12) . . .
144(12) . . .
123(11) . . .
144(12) . . .
151(12) . . .
143(12) . . .
141(12) . . .
145(12) . . .
130(11) . . .
135(12) . . .
132(11) . . .
135(12) . . .
136(12) . . .
144(12) . . .
156(12) . . .
138(12) . . .
146(12) . . .
153(12) . . .
155(12) . . .
144(12) . . .
146(12) . . .
138(12) . . .
136(12) . . .
123(11) . . .
125(11) . . .
143(12) . . .
141(12) . . .
134(12) . . .
145(12) . . .
147(12) . . .
153(12) . . .
153(12) . . .
141(12) . . .
150(12) . . .
136(12) . . .
150(12) . . .
131(11) . . .
134(12) . . .
148(12) . . .
147(12) . . .
152(12) . . .
134(12) . . .
133(12) . . .
142(12) . . .
144(12) . . .
140(12) . . .
145(12) . . .
144(12) . . .
134(12) . . .
155(12) . . .
140(12) . . .
151(12) . . .
164(13) . . .
160(13) . . .
144(12) . . .
129(11) . . .
143(12) . . .
158(13) . . .
145(12) . . .
142(12) . . .
128(11) . . .
156(12) . . .
131(11) . . .
137(12) . . .
138(12) . . .
144(12) . . .
149(12) . . .
145(12) . . .
140(12) . . .
164(13) . . .
131(11) . . .
146(12) . . .
142(12) . . .
131(11) . . .
143(12) . . .
154(12) . . .
148(12) . . .
155(12) . . .
154(12) . . .
164(13) . . .
144(12) . . .
148(12) . . .
151(12) . . .
149(12) . . .
169(13) . . .
132(11) . . .
146(12) . . .
146(12) . . .
140(12) . . .
134(12) . . .
131(11) . . .
148(12) . . .
139(12) . . .
143(12) . . .
141(12) . . .
155(12) . . .
152(12) . . .
147(12) . . .
146(12) . . .
135(12) . . .
132(11) . . .
136(12) . . .
138(12) . . .
140(12) . . .
130(11) . . .
141(12) . . .
147(12) . . .
149(12) . . .
150(12) . . .
148(12) . . .
129(11) . . .
149(12) . . .
149(12) . . .
148(12) . . .
151(12) . . .
157(13) . . .
144(12) . . .
143(12) . . .
142(12) . . .
145(12) . . .
134(12) . . .
163(13) . . .
170(13) . . .
145(12) . . .
143(12) . . .
143(12) . . .
146(12) . . .
142(12) . . .
145(12) . . .
155(12) . . .
151(12) . . .
166(13) . . .
146(12) . . .
162(13) . . .
165(13) . . .
166(13) . . .
143(12) . . .
145(12) . . .
130(11) . . .
146(12) . . .
147(12) . . .
146(12) . . .
152(12) . . .
145(12) . . .
151(12) . . .
147(12) . . .
160(13) . . .
149(12) . . .
162(13) . . .
157(13) . . .
144(12) . . .
148(12) . . .
132(11) . . .
145(12) . . .
147(12) . . .
160(13) . . .
145(12) . . .
143(12) . . .
158(13) . . .
146(12) . . .
147(12) . . .
149(12) . . .
157(13) . . .
141(12) . . .
157(13) . . .
148(12) . . .
160(13) . . .
164(13) . . .
137(12) . . .
165(13) . . .
143(12) . . .
146(12) . . .
131(11) . . .
153(12) . . .
156(12) . . .
174(13) . . .
164(13) . . .
152(12) . . .
146(12) . . .
147(12) . . .
133(12) . . .
153(12) . . .
160(13) . . .
152(12) . . .
134(12) . . .
150(12) . . .
128(11) . . .
146(12) . . .
153(12) . . .
155(12) . . .
138(12) . . .
139(12) . . .
164(13) . . .
140(12) . . .
147(12) . . .
142(12) . . .
132(11) . . .
168(13) . . .
164(13) . . .
148(12) . . .
160(13) . . .
158(13) . . .
137(12) . . .
169(13) . . .
161(13) . . .
136(12) . . .
155(12) . . .
154(12) . . .
157(13) . . .
161(13) . . .
147(12) . . .
135(12) . . .
150(12) . . .
145(12) . . .
173(13) . . .
153(12) . . .
160(13) . . .
167(13) . . .
166(13) . . .
142(12) . . .
160(13) . . .
160(13) . . .
142(12) . . .
150(12) . . .
147(12) . . .
152(12) . . .
177(13) . . .
158(13) . . .
151(12) . . .
161(13) . . .
160(13) . . .
148(12) . . .
135(12) . . .
154(12) . . .
160(13) . . .
171(13) . . .
173(13) . . .
163(13) . . .
135(12) . . .
146(12) . . .
142(12) . . .
145(12) . . .
168(13) . . .
145(12) . . .
145(12) . . .
152(12) . . .
150(12) . . .
132(11) . . .
148(12) . . .
162(13) . . .
146(12) . . .
160(13) . . .
169(13) . . .
168(13) . . .
164(13) . . .
148(12) . . .
151(12) . . .
143(12) . . .
160(13) . . .
163(13) . . .
166(13) . . .
158(13) . . .
148(12) . . .
148(12) . . .
142(12) . . .
163(13) . . .
155(12) . . .
160(13) . . .
149(12) . . .
165(13) . . .
172(13) . . .
158(13) . . .
159(13) . . .
151(12) . . .
161(13) . . .
151(12) . . .
147(12) . . .
170(13) . . .
174(13) . . .
151(12) . . .
157(13) . . .
158(13) . . .
155(12) . . .
150(12) . . .
163(13) . . .
168(13) . . .
135(12) . . .
163(13) . . .
152(12) . . .
166(13) . . .
155(12) . . .
165(13) . . .
154(12) . . .
168(13) . . .
165(13) . . .
179(13) . . .
148(12) . . .
171(13) . . .
152(12) . . .
163(13) . . .
161(13) . . .
176(13) . . .
158(13) . . .
151(12) . . .
170(13) . . .
167(13) . . .
162(13) . . .
198(14) . . .
164(13) . . .
176(13) . . .
172(13) . . .
156(12) . . .
150(12) . . .
151(12) . . .
175(13) . . .
161(13) . . .
168(13) . . .
160(13) . . .
157(13) . . .
183(14) . . .
183(14) . . .
166(13) . . .
151(12) . . .
165(13) . . .
171(13) . . .
153(12) . . .
159(13) . . .
161(13) . . .
185(14) . . .
189(14) . . .
155(12) . . .
164(13) . . .
169(13) . . .
144(12) . . .
170(13) . . .
173(13) . . .
199(14) . . .
172(13) . . .
172(13) . . .
186(14) . . .
152(12) . . .
142(12) . . .
160(13) . . .
160(13) . . .
174(13) . . .
161(13) . . .
175(13) . . .
181(13) . . .
156(12) . . .
161(13) . . .
171(13) . . .
174(13) . . .
156(12) . . .
160(13) . . .
164(13) . . .
173(13) . . .
171(13) . . .
171(13) . . .
152(12) . . .
181(13) . . .
189(14) . . .
198(14) . . .
184(14) . . .
165(13) . . .
189(14) . . .
150(12) . . .
197(14) . . .
172(13) . . .
174(13) . . .
173(13) . . .
179(13) . . .
178(13) . . .
175(13) . . .
162(13) . . .
171(13) . . .
188(14) . . .
184(14) . . .
189(14) . . .
157(13) . . .
199(14) . . .
179(13) . . .
189(14) . . .
194(14) . . .
201(14) . . .
190(14) . . .
208(14) . . .
188(14) . . .
186(14) . . .
182(13) . . .
185(14) . . .
181(13) . . .
190(14) . . .
210(14) . . .
219(15) . . .
218(15) . . .
197(14) . . .
200(14) . . .
207(14) . . .
223(15) . . .
194(14) . . .
187(14) . . .
203(14) . . .
192(14) . . .
208(14) . . .
208(14) . . .
241(16) . . .
202(14) . . .
188(14) . . .
216(15) . . .
212(15) . . .
211(15) . . .
242(16) . . .
260(16) . . .
226(15) . . .
242(16) . . .
240(15) . . .
238(15) . . .
257(16) . . .
259(16) . . .
245(16) . . .
255(16) . . .
262(16) . . .
259(16) . . .
251(16) . . .
261(16) . . .
286(17) . . .
275(17) . . .
300(17) . . .
285(17) . . .
315(18) . . .
325(18) . . .
316(18) . . .
329(18) . . .
334(18) . . .
354(19) . . .
383(20) . . .
362(19) . . .
418(20) . . .
410(20) . . .
400(20) . . .
426(21) . . .
439(21) . . .
481(22) . . .
499(22) . . .
480(22) . . .
517(23) . . .
578(24) . . .
584(24) . . .
604(25) . . .
624(25) . . .
677(26) . . .
752(27) . . .
781(28) . . .
864(29) . . .
920(30) . . .
903(30) . . .
993(32) . . .
1104(33) . . .
1276(36) . . .
1361(37) . . .
1432(38) . . .
1605(40) . . .
1735(42) . . .
1946(44) . . .
2080(46) . . .
2270(48) . . .
2459(50) . . .
2648(51) . . .
2843(53) . . .
3026(55) . . .
3223(57) . . .
3460(59) . . .
3585(60) . . .
3634(60) . . .
3644(60) . . .
3701(61) . . .
3739(61) . . .
3671(61) . . .
3571(60) . . .
3529(59) . . .
3396(58) . . .
3096(56) . . .
2930(54) . . .
2637(51) . . .
2448(49) . . .
2308(48) . . .
2059(45) . . .
1870(43) . . .
1686(41) . . .
1562(40) . . .
1430(38) . . .
1318(36) . . .
1213(35) . . .
1054(32) . . .
1025(32) . . .
957(31) . . .
920(30) . . .
832(29) . . .
738(27) . . .
734(27) . . .
659(26) . . .
603(25) . . .
575(24) . . .
530(23) . . .
543(23) . . .
512(23) . . .
470(22) . . .
493(22) . . .
439(21) . . .
422(21) . . .
400(20) . . .
401(20) . . .
379(19) . . .
372(19) . . .
377(19) . . .
355(19) . . .
371(19) . . .
357(19) . . .
328(18) . . .
316(18) . . .
296(17) . . .
309(18) . . .
280(17) . . .
262(16) . . .
282(17) . . .
267(16) . . .
255(16) . . .
252(16) . . .
266(16) . . .
248(16) . . .
262(16) . . .
274(17) . . .
258(16) . . .
248(16) . . .
229(15) . . .
231(15) . . .
238(15) . . .
236(15) . . .
243(16) . . .
221(15) . . .
214(15) . . .
200(14) . . .
238(15) . . .
217(15) . . .
234(15) . . .
210(14) . . .
203(14) . . .
188(14) . . .
196(14) . . .
227(15) . . .
205(14) . . .
200(14) . . .
206(14) . . .
201(14) . . .
206(14) . . .
215(15) . . .
207(14) . . .
179(13) . . .
190(14) . . .
208(14) . . .
187(14) . . .
172(13) . . .
198(14) . . .
202(14) . . .
210(14) . . .
202(14) . . .
198(14) . . .
182(13) . . .
192(14) . . .
197(14) . . .
182(13) . . .
213(15) . . .
196(14) . . .
198(14) . . .
185(14) . . .
166(13) . . .
169(13) . . .
172(13) . . .
168(13) . . .
177(13) . . .
176(13) . . .
179(13) . . .
177(13) . . .
176(13) . . .
181(13) . . .
173(13) . . .
169(13) . . .
156(12) . . .
178(13) . . .
189(14) . . .
183(14) . . .
170(13) . . .
207(14) . . .
158(13) . . .
166(13) . . .
169(13) . . .
172(13) . . .
172(13) . . .
173(13) . . .
176(13) . . .
180(13) . . .
149(12) . . .
175(13) . . .
178(13) . . .
175(13) . . .
158(13) . . .
178(13) . . .
162(13) . . .
176(13) . . .
176(13) . . .
171(13) . . .
162(13) . . .
184(14) . . .
196(14) . . .
182(13) . . .
175(13) . . .
166(13) . . .
159(13) . . .
167(13) . . .
167(13) . . .
156(12) . . .
172(13) . . .
170(13) . . .
175(13) . . .
166(13) . . .
167(13) . . .
172(13) . . .
176(13) . . .
153(12) . . .
161(13) . . .
155(12) . . .
153(12) . . .
177(13) . . .
175(13) . . .
159(13) . . .
162(13) . . .
172(13) . . .
173(13) . . .
162(13) . . .
150(12) . . .
189(14) . . .
189(14) . . .
157(13) . . .
178(13) . . .
178(13) . . .
192(14) . . .
159(13) . . .
165(13) . . .
166(13) . . .
169(13) . . .
156(12) . . .
156(12) . . .
152(12) . . .
158(13) . . .
169(13) . . .
149(12) . . .
170(13) . . .
188(14) . . .
169(13) . . .
157(13) . . .
176(13) . . .
165(13) . . .
173(13) . . .
166(13) . . .
172(13) . . .
165(13) . . .
166(13) . . .
168(13) . . .
175(13) . . .
167(13) . . .
162(13) . . .
169(13) . . .
154(12) . . .
185(14) . . .
160(13) . . .
167(13) . . .
162(13) . . .
182(13) . . .
160(13) . . .
185(14) . . .
166(13) . . .
182(13) . . .
183(14) . . .
168(13) . . .
168(13) . . .
167(13) . . .
159(13) . . .
178(13) . . .
177(13) . . .
183(14) . . .
176(13) . . .
160(13) . . .
190(14) . . .
187(14) . . .
182(13) . . .
165(13) . . .
193(14) . . .
177(13) . . .
191(14) . . .
184(14) . . .
172(13) . . .
172(13) . . .
182(13) . . .
174(13) . . .
191(14) . . .
168(13) . . .
170(13) . . .
186(14) . . .
176(13) . . .
193(14) . . .
195(14) . . .
178(13) . . .
151(12) . . .
164(13) . . .
195(14) . . .
196(14) . . .
176(13) . . .
208(14) . . .
164(13) . . .
170(13) . . .
203(14) . . .
192(14) . . .
220(15) . . .
191(14) . . .
208(14) . . .
206(14) . . .
202(14) . . .
206(14) . . .
204(14) . . .
229(15) . . .
235(15) . . .
243(16) . . .
215(15) . . .
228(15) . . .
221(15) . . .
244(16) . . .
199(14) . . .
282(17) . . .
251(16) . . .
266(16) . . .
280(17) . . .
273(17) . . .
289(17) . . .
290(17) . . .
301(17) . . .
315(18) . . .
346(19) . . .
341(18) . . .
324(18) . . .
341(18) . . .
379(19) . . .
361(19) . . .
396(20) . . .
443(21) . . .
466(22) . . .
461(21) . . .
517(23) . . .
563(24) . . .
571(24) . . .
673(26) . . .
657(26) . . .
754(27) . . .
800(28) . . .
840(29) . . .
928(30) . . .
965(31) . . .
1058(33) . . .
1129(34) . . .
1247(35) . . .
1376(37) . . .
1459(38) . . .
1570(40) . . .
1572(40) . . .
1657(41) . . .
1712(41) . . .
1680(41) . . .
1721(41) . . .
1784(42) . . .
1719(41) . . .
1732(42) . . .
1658(41) . . .
1532(39) . . .
1484(39) . . .
1334(37) . . .
1259(35) . . .
1161(34) . . .
1131(34) . . .
955(31) . . .
886(30) . . .
852(29) . . .
772(28) . . .
727(27) . . .
670(26) . . .
615(25) . . .
560(24) . . .
517(23) . . .
471(22) . . .
425(21) . . .
436(21) . . .
403(20) . . .
409(20) . . .
363(19) . . .
356(19) . . .
354(19) . . .
350(19) . . .
296(17) . . .
312(18) . . .
295(17) . . .
278(17) . . .
276(17) . . .
273(17) . . .
286(17) . . .
266(16) . . .
254(16) . . .
255(16) . . .
242(16) . . .
247(16) . . .
207(14) . . .
229(15) . . .
207(14) . . .
218(15) . . .
211(15) . . .
194(14) . . .
204(14) . . .
194(14) . . .
218(15) . . .
200(14) . . .
187(14) . . .
185(14) . . .
180(13) . . .
198(14) . . .
176(13) . . .
185(14) . . .
176(13) . . .
182(13) . . .
189(14) . . .
161(13) . . .
172(13) . . .
178(13) . . .
185(14) . . .
206(14) . . .
174(13) . . .
200(14) . . .
183(14) . . .
182(13) . . .
172(13) . . .
164(13) . . .
166(13) . . .
161(13) . . .
171(13) . . .
159(13) . . .
160(13) . . .
161(13) . . .
180(13) . . .
188(14) . . .
174(13) . . .
169(13) . . .
175(13) . . .
168(13) . . .
170(13) . . .
182(13) . . .
162(13) . . .
168(13) . . .
164(13) . . .
156(12) . . .
158(13) . . .
173(13) . . .
165(13) . . .
164(13) . . .
163(13) . . .
153(12) . . .
159(13) . . .
144(12) . . .
152(12) . . .
154(12) . . .
143(12) . . .
157(13) . . .
156(12) . . .
162(13) . . .
141(12) . . .
139(12) . . .
159(13) . . .
163(13) . . .
150(12) . . .
163(13) . . .
146(12) . . .
157(13) . . .
155(12) . . .
160(13) . . .
169(13) . . .
154(12) . . .
171(13) . . .
158(13) . . .
142(12) . . .
146(12) . . .
158(13) . . .
148(12) . . .
133(12) . . .
142(12) . . .
147(12) . . .
162(13) . . .
142(12) . . .
165(13) . . .
151(12) . . .
137(12) . . .
163(13) . . .
148(12) . . .
154(12) . . .
162(13) . . .
151(12) . . .
167(13) . . .
157(13) . . .
158(13) . . .
142(12) . . .
147(12) . . .
158(13) . . .
139(12) . . .
135(12) . . .
145(12) . . .
139(12) . . .
151(12) . . .
129(11) . . .
159(13) . . .
173(13) . . .
145(12) . . .
139(12) . . .
165(13) . . .
165(13) . . .
146(12) . . .
147(12) . . .
169(13) . . .
138(12) . . .
143(12) . . .
155(12) . . .
160(13) . . .
159(13) . . .
134(12) . . .
154(12) . . .
143(12) . . .
152(12) . . .
147(12) . . .
136(12) . . .
152(12) . . .
134(12) . . .
163(13) . . .
149(12) . . .
160(13) . . .
147(12) . . .
148(12) . . .
142(12) . . .
144(12) . . .
182(13) . . .
157(13) . . .
164(13) . . .
146(12) . . .
160(13) . . .
142(12) . . .
144(12) . . .
142(12) . . .
156(12) . . .
128(11) . . .
157(13) . . .
147(12) . . .
157(13) . . .
147(12) . . .
155(12) . . .
157(13) . . .
138(12) . . .
134(12) . . .
146(12) . . .
163(13) . . .
136(12) . . .
127(11) . . .
129(11) . . .
147(12) . . .
166(13) . . .
127(11) . . .
124(11) . . .
141(12) . . .
129(11) . . .
142(12) . . .
148(12) . . .
142(12) . . .
158(13) . . .
146(12) . . .
157(13) . . .
135(12) . . .
160(13) . . .
150(12) . . .
148(12) . . .
151(12) . . .
128(11) . . .
142(12) . . .
152(12) . . .
133(12) . . .
148(12) . . .
138(12) . . .
124(11) . . .
116(11) . . .
140(12) . . .
144(12) . . .
144(12) . . .
156(12) . . .
155(12) . . .
132(11) . . .
133(12) . . .
138(12) . . .
153(12) . . .
147(12) . . .
133(12) . . .
156(12) . . .
147(12) . . .
149(12) . . .
155(12) . . .
135(12) . . .
123(11) . . .
138(12) . . .
150(12) . . .
147(12) . . .
144(12) . . .
147(12) . . .
150(12) . . .
145(12) . . .
137(12) . . .
149(12) . . .
133(12) . . .
150(12) . . .
150(12) . . .
127(11) . . .
146(12) . . .
127(11) . . .
147(12) . . .
132(11) . . .
163(13) . . .
156(12) . . .
145(12) . . .
168(13) . . .
138(12) . . .
148(12) . . .
138(12) . . .
152(12) . . .
126(11) . . .
161(13) . . .
148(12) . . .
155(12) . . .
146(12) . . .
123(11) . . .
129(11) . . .
133(12) . . .
153(12) . . .
116(11) . . .
153(12) . . .
133(12) . . .
163(13) . . .
154(12) . . .
132(11) . . .
165(13) . . .
140(12) . . .
159(13) . . .
148(12) . . .
104(10) . . .
129(11) . . .
132(11) . . .
157(13) . . .
154(12) . . .
147(12) . . .
133(12) . . .
136(12) . . .
159(13) . . .
149(12) . . .
137(12) . . .
153(12) . . .
135(12) . . .
130(11) . . .
131(11) . . .
139(12) . . .
131(11) . . .
142(12) . . .
134(12) . . .
132(11) . . .
146(12) . . .
154(12) . . .
135(12) . . .
148(12) . . .
134(12) . . .
149(12) . . .
147(12) . . .
154(12) . . .
138(12) . . .
141(12) . . .
134(12) . . .
130(11) . . .
135(12) . . .
140(12) . . .
157(13) . . .
163(13) . . .
144(12) . . .
135(12) . . .
141(12) . . .
125(11) . . .
146(12) . . .
150(12) . . .
149(12) . . .
136(12) . . .
147(12) . . .
143(12) . . .
147(12) . . .
143(12) . . .
151(12) . . .
143(12) . . .
148(12) . . .
137(12) . . .
158(13) . . .
137(12) . . .
130(11) . . .
143(12) . . .
140(12) . . .
125(11) . . .
133(12) . . .
145(12) . . .
136(12) . . .
142(12) . . .
138(12) . . .
138(12) . . .
155(12) . . .
145(12) . . .
130(11) . . .
160(13) . . .
143(12) . . .
150(12) . . .
130(11) . . .
121(11) . . .
131(11) . . .
136(12) . . .
129(11) . . .
140(12) . . .
144(12) . . .
143(12) . . .
141(12) . . .
150(12) . . .
142(12) . . .
126(11) . . .
145(12) . . .
150(12) . . .
137(12) . . .
138(12) . . .
155(12) . . .
145(12) . . .
162(13) . . .
156(12) . . .
137(12) . . .
133(12) . . .
138(12) . . .
139(12) . . .
139(12) . . .
137(12) . . .
140(12) . . .
126(11) . . .
139(12) . . .
151(12) . . .
139(12) . . .
144(12) . . .
144(12) . . .
139(12) . . .
143(12) . . .
151(12) . . .
140(12) . . .
126(11) . . .
154(12) . . .
145(12) . . .
138(12) . . .
153(12) . . .
142(12) . . .
148(12) . . .
138(12) . . .
147(12) . . .
152(12) . . .
154(12) . . .
154(12) . . .
153(12) . . .
150(12) . . .
140(12) . . .
140(12) . . .
147(12) . . .
140(12) . . .
135(12) . . .
137(12) . . .
127(11) . . .
138(12) . . .
166(13) . . .
127(11) . . .
122(11) . . .
118(11) . . .
140(12) . . .
149(12) . . .
146(12) . . .
143(12) . . .
145(12) . . .
138(12) . . .
145(12) . . .
132(11) . . .
140(12) . . .
147(12) . . .
134(12) . . .
152(12) . . .
147(12) . . .
154(12) . . .
147(12) . . .
134(12) . . .
137(12) . . .
135(12) . . .
140(12) . . .
138(12) . . .
136(12) . . .
146(12) . . .
137(12) . . .
138(12) . . .
133(12) . . .
135(12) . . .
128(11) . . .
126(11) . . .
137(12) . . .
137(12) . . .
152(12) . . .
141(12) . . .
124(11) . . .
140(12) . . .
152(12) . . .
130(11) . . .
156(12) . . .
147(12) . . .
140(12) . . .
139(12) . . .
151(12) . . .
135(12) . . .
155(12) . . .
160(13) . . .
141(12) . . .
138(12) . . .
147(12) . . .
162(13) . . .
124(11) . . .
144(12) . . .
133(12) . . .
135(12) . . .
132(11) . . .
137(12) . . .
131(11) . . .
124(11) . . .
124(11) . . .
133(12) . . .
128(11) . . .
130(11) . . .
136(12) . . .
140(12) . . .
127(11) . . .
115(11) . . .
120(11) . . .
148(12) . . .
141(12) . . .
135(12) . . .
139(12) . . .
132(11) . . .
125(11) . . .
127(11) . . .
141(12) . . .
124(11) . . .
123(11) . . .
135(12) . . .
124(11) . . .
130(11) . . .
156(12) . . .
150(12) . . .
131(11) . . .
124(11) . . .
121(11) . . .
143(12) . . .
134(12) . . .
135(12) . . .
139(12) . . .
148(12) . . .
145(12) . . .
125(11) . . .
124(11) . . .
138(12) . . .
135(12) . . .
122(11) . . .
118(11) . . .
139(12) . . .
132(11) . . .
143(12) . . .
151(12) . . .
143(12) . . .
119(11) . . .
129(11) . . .
114(11) . . .
144(12) . . .
124(11) . . .
140(12) . . .
122(11) . . .
132(11) . . .
142(12) . . .
143(12) . . .
133(12) . . .
143(12) . . .
120(11) . . .
140(12) . . .
148(12) . . .
127(11) . . .
142(12) . . .
138(12) . . .
138(12) . . .
135(12) . . .
156(12) . . .
136(12) . . .
143(12) . . .
133(12) . . .
145(12) . . .
119(11) . . .
129(11) . . .
145(12) . . .
120(11) . . .
120(11) . . .
150(12) . . .
123(11) . . .
152(12) . . .
130(11) . . .
123(11) . . .
142(12) . . .
128(11) . . .
147(12) . . .
144(12) . . .
131(11) . . .
128(11) . . .
133(12) . . .
126(11) . . .
153(12) . . .
140(12) . . .
131(11) . . .
138(12) . . .
134(12) . . .
141(12) . . .
131(11) . . .
140(12) . . .
129(11) . . .
144(12) . . .
153(12) . . .
128(11) . . .
156(12) . . .
137(12) . . .
140(12) . . .
131(11) . . .
128(11) . . .
154(12) . . .
143(12) . . .
125(11) . . .
144(12) . . .
142(12) . . .
124(11) . . .
159(13) . . .
136(12) . . .
149(12) . . .
138(12) . . .
132(11) . . .
140(12) . . .
140(12) . . .
113(11) . . .
131(11) . . .
149(12) . . .
133(12) . . .
143(12) . . .
140(12) . . .
129(11) . . .
140(12) . . .
138(12) . . .
135(12) . . .
136(12) . . .
136(12) . . .
125(11) . . .
135(12) . . .
128(11) . . .
136(12) . . .
133(12) . . .
126(11) . . .
147(12) . . .
139(12) . . .
154(12) . . .
144(12) . . .
127(11) . . .
130(11) . . .
142(12) . . .
135(12) . . .
121(11) . . .
115(11) . . .
147(12) . . .
125(11) . . .
132(11) . . .
131(11) . . .
130(11) . . .
139(12) . . .
118(11) . . .
138(12) . . .
134(12) . . .
149(12) . . .
141(12) . . .
132(11) . . .
128(11) . . .
155(12) . . .
135(12) . . .
145(12) . . .
133(12) . . .
135(12) . . .
156(12) . . .
144(12) . . .
123(11) . . .
139(12) . . .
137(12) . . .
143(12) . . .
135(12) . . .
144(12) . . .
129(11) . . .
141(12) . . .
143(12) . . .
125(11) . . .
141(12) . . .
132(11) . . .
122(11) . . .
132(11) . . .
138(12) . . .
117(11) . . .
137(12) . . .
125(11) . . .
132(11) . . .
134(12) . . .
106(10) . . .
127(11) . . .
147(12) . . .
140(12) . . .
145(12) . . .
126(11) . . .
144(12) . . .
125(11) . . .
134(12) . . .
137(12) . . .
127(11) . . .
122(11) . . .
116(11) . . .
123(11) . . .
157(13) . . .
128(11) . . .
122(11) . . .
134(12) . . .
127(11) . . .
137(12) . . .
114(11) . . .
130(11) . . .
137(12) . . .
130(11) . . .
132(11) . . .
135(12) . . .
136(12) . . .
155(12) . . .
127(11) . . .
154(12) . . .
144(12) . . .
148(12) . . .
111(11) . . .
149(12) . . .
138(12) . . .
141(12) . . .
143(12) . . .
129(11) . . .
122(11) . . .
136(12) . . .
132(11) . . .
129(11) . . .
127(11) . . .
130(11) . . .
117(11) . . .
133(12) . . .
138(12) . . .
121(11) . . .
130(11) . . .
131(11) . . .
137(12) . . .
124(11) . . .
118(11) . . .
135(12) . . .
140(12) . . .
138(12) . . .
138(12) . . .
140(12) . . .
141(12) . . .
130(11) . . .
136(12) . . .
140(12) . . .
145(12) . . .
121(11) . . .
120(11) . . .
146(12) . . .
133(12) . . .
135(12) . . .
127(11) . . .
146(12) . . .
137(12) . . .
125(11) . . .
152(12) . . .
124(11) . . .
134(12) . . .
140(12) . . .
140(12) . . .
158(13) . . .
134(12) . . .
136(12) . . .
118(11) . . .
144(12) . . .
143(12) . . .
124(11) . . .
128(11) . . .
130(11) . . .
132(11) . . .
136(12) . . .
129(11) . . .
139(12) . . .
139(12) . . .
130(11) . . .
130(11) . . .
123(11) . . .
133(12) . . .
126(11) . . .
129(11) . . .
145(12) . . .
125(11) . . .
129(11) . . .
145(12) . . .
125(11) . . .
128(11) . . .
141(12) . . .
132(11) . . .
143(12) . . .
130(11) . . .
139(12) . . .
139(12) . . .
155(12) . . .
138(12) . . .
133(12) . . .
127(11) . . .
133(12) . . .
137(12) . . .
123(11) . . .
132(11) . . .
123(11) . . .
142(12) . . .
137(12) . . .
138(12) . . .
128(11) . . .
117(11) . . .
129(11) . . .
144(12) . . .
126(11) . . .
146(12) . . .
142(12) . . .
141(12) . . .
130(11) . . .
146(12) . . .
142(12) . . .
125(11) . . .
139(12) . . .
154(12) . . .
128(11) . . .
153(12) . . .
140(12) . . .
126(11) . . .
141(12) . . .
143(12) . . .
123(11) . . .
132(11) . . .
133(12) . . .
107(10) . . .
132(11) . . .
145(12) . . .
112(11) . . .
109(10) . . .
151(12) . . .
148(12) . . .
137(12) . . .
139(12) . . .
151(12) . . .
139(12) . . .
135(12) . . .
139(12) . . .
144(12) . . .
113(11) . . .
135(12) . . .
136(12) . . .
127(11) . . .
132(11) . . .
127(11) . . .
145(12) . . .
151(12) . . .
131(11) . . .
143(12) . . .
127(11) . . .
140(12) . . .
117(11) . . .
144(12) . . .
134(12) . . .
118(11) . . .
139(12) . . .
143(12) . . .
127(11) . . .
139(12) . . .
138(12) . . .
123(11) . . .
117(11) . . .
138(12) . . .
130(11) . . .
144(12) . . .
129(11) . . .
125(11) . . .
143(12) . . .
125(11) . . .
135(12) . . .
133(12) . . .
136(12) . . .
128(11) . . .
126(11) . . .
132(11) . . .
126(11) . . .
150(12) . . .
148(12) . . .
139(12) . . .
141(12) . . .
125(11) . . .
134(12) . . .
132(11) . . .
140(12) . . .
118(11) . . .
127(11) . . .
126(11) . . .
136(12) . . .
126(11) . . .
140(12) . . .
149(12) . . .
137(12) . . .
134(12) . . .
140(12) . . .
116(11) . . .
140(12) . . .
123(11) . . .
131(11) . . .
138(12) . . .
118(11) . . .
141(12) . . .
127(11) . . .
131(11) . . .
121(11) . . .
155(12) . . .
122(11) . . .
147(12) . . .
129(11) . . .
118(11) . . .
126(11) . . .
142(12) . . .
131(11) . . .
135(12) . . .
144(12) . . .
140(12) . . .
151(12) . . .
133(12) . . .
139(12) . . .
125(11) . . .
125(11) . . .
137(12) . . .
143(12) . . .
147(12) . . .
135(12) . . .
137(12) . . .
137(12) . . .
125(11) . . .
111(11) . . .
118(11) . . .
133(12) . . .
134(12) . . .
118(11) . . .
138(12) . . .
143(12) . . .
139(12) . . .
130(11) . . .
131(11) . . .
126(11) . . .
142(12) . . .
130(11) . . .
124(11) . . .
127(11) . . .
129(11) . . .
122(11) . . .
147(12) . . .
147(12) . . .
149(12) . . .
125(11) . . .
137(12) . . .
147(12) . . .
128(11) . . .
135(12) . . .
137(12) . . .
140(12) . . .
149(12) . . .
123(11) . . .
106(10) . . .
106(10) . . .
130(11) . . .
142(12) . . .
123(11) . . .
133(12) . . .
143(12) . . .
126(11) . . .
135(12) . . .
136(12) . . .
115(11) . . .
129(11) . . .
154(12) . . .
140(12) . . .
136(12) . . .
131(11) . . .
143(12) . . .
140(12) . . .
126(11) . . .
145(12) . . .
138(12) . . .
134(12) . . .
131(11) . . .
138(12) . . .
137(12) . . .
145(12) . . .
142(12) . . .
138(12) . . .
141(12) . . .
143(12) . . .
141(12) . . .
134(12) . . .
143(12) . . .
139(12) . . .
130(11) . . .
131(11) . . .
137(12) . . .
139(12) . . .
128(11) . . .
133(12) . . .
145(12) . . .
121(11) . . .
133(12) . . .
134(12) . . .
121(11) . . .
149(12) . . .
114(11) . . .
138(12) . . .
140(12) . . .
135(12) . . .
151(12) . . .
129(11) . . .
137(12) . . .
125(11) . . .
124(11) . . .
142(12) . . .
138(12) . . .
136(12) . . .
164(13) . . .
130(11) . . .
139(12) . . .
132(11) . . .
121(11) . . .
124(11) . . .
141(12) . . .
132(11) . . .
125(11) . . .
148(12) . . .
141(12) . . .
124(11) . . .
131(11) . . .
128(11) . . .
151(12) . . .
140(12) . . .
149(12) . . .
129(11) . . .
131(11) . . .
135(12) . . .
131(11) . . .
141(12) . . .
136(12) . . .
138(12) . . .
134(12) . . .
137(12) . . .
140(12) . . .
137(12) . . .
126(11) . . .
123(11) . . .
128(11) . . .
136(12) . . .
152(12) . . .
133(12) . . .
147(12) . . .
139(12) . . .
124(11) . . .
140(12) . . .
134(12) . . .
137(12) . . .
140(12) . . .
130(11) . . .
116(11) . . .
156(12) . . .
151(12) . . .
135(12) . . .
129(11) . . .
128(11) . . .
141(12) . . .
140(12) . . .
121(11) . . .
136(12) . . .
121(11) . . .
148(12) . . .
126(11) . . .
156(12) . . .
145(12) . . .
138(12) . . .
157(13) . . .
142(12) . . .
115(11) . . .
143(12) . . .
137(12) . . .
148(12) . . .
134(12) . . .
128(11) . . .
146(12) . . .
128(11) . . .
136(12) . . .
149(12) . . .
151(12) . . .
108(10) . . .
127(11) . . .
124(11) . . .
136(12) . . .
131(11) . . .
133(12) . . .
151(12) . . .
158(13) . . .
136(12) . . .
122(11) . . .
124(11) . . .
137(12) . . .
129(11) . . .
142(12) . . .
128(11) . . .
133(12) . . .
153(12) . . .
136(12) . . .
147(12) . . .
131(11) . . .
147(12) . . .
127(11) . . .
137(12) . . .
145(12) . . .
123(11) . . .
141(12) . . .
141(12) . . .
135(12) . . .
148(12) . . .
138(12) . . .
152(12) . . .
143(12) . . .
135(12) . . .
140(12) . . .
150(12) . . .
154(12) . . .
147(12) . . .
134(12) . . .
160(13) . . .
130(11) . . .
152(12) . . .
158(13) . . .
157(13) . . .
142(12) . . .
143(12) . . .
160(13) . . .
155(12) . . .
161(13) . . .
132(11) . . .
153(12) . . .
133(12) . . .
135(12) . . .
154(12) . . .
165(13) . . .
152(12) . . .
172(13) . . .
156(12) . . .
151(12) . . .
165(13) . . .
162(13) . . .
161(13) . . .
134(12) . . .
137(12) . . .
167(13) . . .
177(13) . . .
167(13) . . .
156(12) . . .
160(13) . . .
163(13) . . .
170(13) . . .
150(12) . . .
161(13) . . .
161(13) . . .
166(13) . . .
157(13) . . .
163(13) . . .
160(13) . . .
178(13) . . .
178(13) . . .
173(13) . . .
180(13) . . .
172(13) . . .
190(14) . . .
177(13) . . .
215(15) . . .
174(13) . . .
174(13) . . .
185(14) . . .
166(13) . . .
177(13) . . .
191(14) . . .
171(13) . . .
211(15) . . .
183(14) . . .
172(13) . . .
186(14) . . .
188(14) . . .
202(14) . . .
212(15) . . .
209(14) . . .
218(15) . . .
223(15) . . .
216(15) . . .
203(14) . . .
234(15) . . .
225(15) . . .
254(16) . . .
250(16) . . .
263(16) . . .
278(17) . . .
247(16) . . .
260(16) . . .
304(17) . . .
280(17) . . .
319(18) . . .
322(18) . . .
350(19) . . .
306(17) . . .
346(19) . . .
382(20) . . .
373(19) . . .
413(20) . . .
413(20) . . .
435(21) . . .
475(22) . . .
511(23) . . .
535(23) . . .
571(24) . . .
582(24) . . .
624(25) . . .
653(26) . . .
721(27) . . .
800(28) . . .
823(29) . . .
892(30) . . .
967(31) . . .
1036(32) . . .
1141(34) . . .
1182(34) . . .
1327(36) . . .
1379(37) . . .
1453(38) . . .
1483(39) . . .
1629(40) . . .
1691(41) . . .
1775(42) . . .
1786(42) . . .
1768(42) . . .
1930(44) . . .
1852(43) . . .
1842(43) . . .
1867(43) . . .
1857(43) . . .
1748(42) . . .
1704(41) . . .
1688(41) . . .
1505(39) . . .
1559(39) . . .
1347(37) . . .
1256(35) . . .
1199(35) . . .
1112(33) . . .
1023(32) . . .
947(31) . . .
876(30) . . .
842(29) . . .
780(28) . . .
704(27) . . .
647(25) . . .
625(25) . . .
571(24) . . .
563(24) . . .
469(22) . . .
479(22) . . .
473(22) . . .
427(21) . . .
400(20) . . .
384(20) . . .
395(20) . . .
379(19) . . .
350(19) . . .
343(19) . . .
313(18) . . .
304(17) . . .
269(16) . . .
297(17) . . .
271(16) . . .
282(17) . . .
276(17) . . .
249(16) . . .
246(16) . . .
261(16) . . .
228(15) . . .
235(15) . . .
219(15) . . .
213(15) . . .
232(15) . . .
222(15) . . .
199(14) . . .
201(14) . . .
184(14) . . .
183(14) . . .
201(14) . . .
191(14) . . .
206(14) . . .
185(14) . . .
183(14) . . .
193(14) . . .
194(14) . . .
187(14) . . .
188(14) . . .
170(13) . . .
180(13) . . .
188(14) . . .
157(13) . . .
188(14) . . .
160(13) . . .
165(13) . . .
176(13) . . .
175(13) . . .
169(13) . . .
166(13) . . .
165(13) . . .
171(13) . . .
173(13) . . .
171(13) . . .
164(13) . . .
157(13) . . .
159(13) . . .
142(12) . . .
139(12) . . .
173(13) . . .
165(13) . . .
165(13) . . .
148(12) . . .
164(13) . . .
143(12) . . .
156(12) . . .
163(13) . . .
155(12) . . .
144(12) . . .
155(12) . . .
163(13) . . .
144(12) . . .
144(12) . . .
158(13) . . .
153(12) . . .
147(12) . . .
149(12) . . .
142(12) . . .
150(12) . . .
135(12) . . .
141(12) . . .
136(12) . . .
151(12) . . .
134(12) . . .
161(13) . . .
138(12) . . .
147(12) . . .
141(12) . . .
155(12) . . .
146(12) . . .
145(12) . . .
138(12) . . .
140(12) . . .
137(12) . . .
122(11) . . .
131(11) . . .
141(12) . . .
139(12) . . .
118(11) . . .
148(12) . . .
134(12) . . .
133(12) . . .
139(12) . . .
140(12) . . .
124(11) . . .
155(12) . . .
141(12) . . .
140(12) . . .
132(11) . . .
135(12) . . .
128(11) . . .
109(10) . . .
144(12) . . .
123(11) . . .
118(11) . . .
138(12) . . .
141(12) . . .
137(12) . . .
147(12) . . .
137(12) . . .
153(12) . . .
145(12) . . .
147(12) . . .
144(12) . . .
131(11) . . .
129(11) . . .
117(11) . . .
126(11) . . .
126(11) . . .
139(12) . . .
143(12) . . .
152(12) . . .
149(12) . . .
131(11) . . .
136(12) . . .
124(11) . . .
147(12) . . .
155(12) . . .
132(11) . . .
137(12) . . .
139(12) . . .
138(12) . . .
151(12) . . .
126(11) . . .
127(11) . . .
120(11) . . .
123(11) . . .
136(12) . . .
138(12) . . .
129(11) . . .
139(12) . . .
151(12) . . .
136(12) . . .
119(11) . . .
128(11) . . .
122(11) . . .
124(11) . . .
146(12) . . .
115(11) . . .
127(11) . . .
122(11) . . .
117(11) . . .
125(11) . . .
152(12) . . .
119(11) . . .
131(11) . . .
134(12) . . .
117(11) . . .
140(12) . . .
139(12) . . .
134(12) . . .
127(11) . . .
116(11) . . .
122(11) . . .
128(11) . . .
135(12) . . .
129(11) . . .
117(11) . . .
130(11) . . .
133(12) . . .
124(11) . . .
127(11) . . .
126(11) . . .
124(11) . . .
127(11) . . .
121(11) . . .
131(11) . . .
123(11) . . .
136(12) . . .
128(11) . . .
114(11) . . .
124(11) . . .
145(12) . . .
124(11) . . .
117(11) . . .
120(11) . . .
128(11) . . .
140(12) . . .
151(12) . . .
125(11) . . .
146(12) . . .
118(11) . . .
114(11) . . .
118(11) . . .
137(12) . . .
130(11) . . .
140(12) . . .
134(12) . . .
132(11) . . .
130(11) . . .
125(11) . . .
128(11) . . .
131(11) . . .
132(11) . . .
115(11) . . .
111(11) . . .
142(12) . . .
144(12) . . .
140(12) . . .
147(12) . . .
110(10) . . .
124(11) . . .
130(11) . . .
130(11) . . .
128(11) . . .
126(11) . . .
125(11) . . .
147(12) . . .
126(11) . . .
124(11) . . .
136(12) . . .
139(12) . . .
126(11) . . .
135(12) . . .
132(11) . . .
117(11) . . .
112(11) . . .
115(11) . . .
136(12) . . .
120(11) . . .
117(11) . . .
141(12) . . .
134(12) . . .
123(11) . . .
134(12) . . .
135(12) . . .
149(12) . . .
140(12) . . .
142(12) . . .
126(11) . . .
135(12) . . .
127(11) . . .
143(12) . . .
122(11) . . .
113(11) . . .
140(12) . . .
111(11) . . .
123(11) . . .
146(12) . . .
129(11) . . .
128(11) . . .
132(11) . . .
128(11) . . .
137(12) . . .
134(12) . . .
138(12) . . .
129(11) . . .
119(11) . . .
108(10) . . .
142(12) . . .
145(12) . . .
129(11) . . .
126(11) . . .
119(11) . . .
122(11) . . .
129(11) . . .
138(12) . . .
139(12) . . .
123(11) . . .
122(11) . . .
125(11) . . .
120(11) . . .
124(11) . . .
118(11) . . .
126(11) . . .
124(11) . . .
115(11) . . .
128(11) . . .
112(11) . . .
113(11) . . .
133(12) . . .
126(11) . . .
112(11) . . .
114(11) . . .
132(11) . . .
125(11) . . .
131(11) . . .
127(11) . . .
124(11) . . .
135(12) . . .
123(11) . . .
118(11) . . .
123(11) . . .
130(11) . . .
118(11) . . .
119(11) . . .
137(12) . . .
137(12) . . .
118(11) . . .
119(11) . . .
137(12) . . .
119(11) . . .
123(11) . . .
119(11) . . .
136(12) . . .
131(11) . . .
113(11) . . .
149(12) . . .
113(11) . . .
119(11) . . .
126(11) . . .
128(11) . . .
130(11) . . .
139(12) . . .
150(12) . . .
107(10) . . .
116(11) . . .
123(11) . . .
119(11) . . .
117(11) . . .
111(11) . . .
115(11) . . .
115(11) . . .
122(11) . . .
128(11) . . .
123(11) . . .
129(11) . . .
105(10) . . .
125(11) . . .
124(11) . . .
126(11) . . .
128(11) . . .
108(10) . . .
124(11) . . .
105(10) . . .
134(12) . . .
137(12) . . .
132(11) . . .
137(12) . . .
140(12) . . .
119(11) . . .
119(11) . . .
119(11) . . .
133(12) . . .
135(12) . . .
114(11) . . .
132(11) . . .
132(11) . . .
118(11) . . .
113(11) . . .
121(11) . . .
122(11) . . .
133(12) . . .
144(12) . . .
125(11) . . .
135(12) . . .
117(11) . . .
131(11) . . .
129(11) . . .
120(11) . . .
110(10) . . .
126(11) . . .
131(11) . . .
121(11) . . .
122(11) . . .
122(11) . . .
134(12) . . .
131(11) . . .
119(11) . . .
129(11) . . .
123(11) . . .
120(11) . . .
125(11) . . .
131(11) . . .
97(10) . . .
117(11) . . .
131(11) . . .
116(11) . . .
99(10) . . .
113(11) . . .
117(11) . . .
127(11) . . .
121(11) . . .
130(11) . . .
114(11) . . .
129(11) . . .
129(11) . . .
101(10) . . .
115(11) . . .
128(11) . . .
127(11) . . .
122(11) . . .
130(11) . . .
111(11) . . .
113(11) . . .
120(11) . . .
121(11) . . .
108(10) . . .
115(11) . . .
120(11) . . .
115(11) . . .
135(12) . . .
138(12) . . .
133(12) . . .
127(11) . . .
103(10) . . .
125(11) . . .
113(11) . . .
122(11) . . .
102(10) . . .
115(11) . . .
134(12) . . .
125(11) . . .
117(11) . . .
122(11) . . .
125(11) . . .
115(11) . . .
118(11) . . .
108(10) . . .
127(11) . . .
116(11) . . .
110(10) . . .
128(11) . . .
132(11) . . .
112(11) . . .
109(10) . . .
126(11) . . .
125(11) . . .
111(11) . . .
121(11) . . .
133(12) . . .
120(11) . . .
108(10) . . .
127(11) . . .
118(11) . . .
128(11) . . .
115(11) . . .
127(11) . . .
114(11) . . .
128(11) . . .
134(12) . . .
126(11) . . .
122(11) . . .
124(11) . . .
116(11) . . .
108(10) . . .
138(12) . . .
112(11) . . .
140(12) . . .
129(11) . . .
112(11) . . .
111(11) . . .
115(11) . . .
131(11) . . .
125(11) . . .
119(11) . . .
109(10) . . .
113(11) . . .
119(11) . . .
118(11) . . .
123(11) . . .
114(11) . . .
140(12) . . .
116(11) . . .
115(11) . . .
121(11) . . .
112(11) . . .
131(11) . . .
148(12) . . .
109(10) . . .
109(10) . . .
99(10) . . .
127(11) . . .
118(11) . . .
124(11) . . .
117(11) . . .
127(11) . . .
122(11) . . .
116(11) . . .
120(11) . . .
130(11) . . .
128(11) . . .
123(11) . . .
108(10) . . .
130(11) . . .
120(11) . . .
130(11) . . .
120(11) . . .
125(11) . . .
109(10) . . .
127(11) . . .
128(11) . . .
120(11) . . .
117(11) . . .
116(11) . . .
124(11) . . .
108(10) . . .
133(12) . . .
118(11) . . .
120(11) . . .
115(11) . . .
124(11) . . .
126(11) . . .
125(11) . . .
135(12) . . .
119(11) . . .
118(11) . . .
139(12) . . .
105(10) . . .
119(11) . . .
120(11) . . .
128(11) . . .
130(11) . . .
114(11) . . .
127(11) . . .
126(11) . . .
137(12) . . .
127(11) . . .
106(10) . . .
121(11) . . .
126(11) . . .
108(10) . . .
125(11) . . .
120(11) . . .
134(12) . . .
113(11) . . .
116(11) . . .
116(11) . . .
122(11) . . .
120(11) . . .
125(11) . . .
137(12) . . .
120(11) . . .
119(11) . . .
122(11) . . .
126(11) . . .
132(11) . . .
122(11) . . .
104(10) . . .
123(11) . . .
114(11) . . .
129(11) . . .
111(11) . . .
123(11) . . .
129(11) . . .
119(11) . . .
115(11) . . .
111(11) . . .
124(11) . . .
120(11) . . .
121(11) . . .
131(11) . . .
115(11) . . .
128(11) . . .
99(10) . . .
116(11) . . .
119(11) . . .
113(11) . . .
112(11) . . .
126(11) . . .
122(11) . . .
119(11) . . .
113(11) . . .
109(10) . . .
119(11) . . .
110(10) . . .
121(11) . . .
130(11) . . .
122(11) . . .
126(11) . . .
122(11) . . .
117(11) . . .
108(10) . . .
101(10) . . .
118(11) . . .
120(11) . . .
127(11) . . .
123(11) . . .
112(11) . . .
118(11) . . .
117(11) . . .
122(11) . . .
124(11) . . .
124(11) . . .
114(11) . . .
132(11) . . .
129(11) . . .
120(11) . . .
110(10) . . .
103(10) . . .
114(11) . . .
111(11) . . .
117(11) . . .
111(11) . . .
117(11) . . .
103(10) . . .
134(12) . . .
127(11) . . .
111(11) . . .
128(11) . . .
134(12) . . .
128(11) . . .
119(11) . . .
112(11) . . .
111(11) . . .
107(10) . . .
121(11) . . .
121(11) . . .
109(10) . . .
143(12) . . .
118(11) . . .
121(11) . . .
119(11) . . .
134(12) . . .
118(11) . . .
128(11) . . .
125(11) . . .
111(11) . . .
134(12) . . .
123(11) . . .
130(11) . . .
122(11) . . .
121(11) . . .
122(11) . . .
119(11) . . .
141(12) . . .
129(11) . . .
131(11) . . .
117(11) . . .
131(11) . . .
141(12) . . .
128(11) . . .
144(12) . . .
113(11) . . .
123(11) . . .
120(11) . . .
107(10) . . .
116(11) . . .
99(10) . . .
127(11) . . .
116(11) . . .
111(11) . . .
116(11) . . .
127(11) . . .
127(11) . . .
106(10) . . .
98(10) . . .
107(10) . . .
132(11) . . .
109(10) . . .
131(11) . . .
138(12) . . .
134(12) . . .
121(11) . . .
128(11) . . .
110(10) . . .
119(11) . . .
117(11) . . .
141(12) . . .
118(11) . . .
133(12) . . .
124(11) . . .
130(11) . . .
121(11) . . .
117(11) . . .
118(11) . . .
117(11) . . .
125(11) . . .
126(11) . . .
118(11) . . .
127(11) . . .
131(11) . . .
119(11) . . .
108(10) . . .
130(11) . . .
118(11) . . .
121(11) . . .
113(11) . . .
123(11) . . .
112(11) . . .
132(11) . . .
125(11) . . .
127(11) . . .
152(12) . . .
127(11) . . .
115(11) . . .
125(11) . . .
140(12) . . .
120(11) . . .
124(11) . . .
113(11) . . .
122(11) . . .
125(11) . . .
122(11) . . .
111(11) . . .
114(11) . . .
127(11) . . .
121(11) . . .
117(11) . . .
119(11) . . .
138(12) . . .
126(11) . . .
107(10) . . .
124(11) . . .
134(12) . . .
118(11) . . .
110(10) . . .
101(10) . . .
123(11) . . .
134(12) . . .
126(11) . . .
122(11) . . .
113(11) . . .
121(11) . . .
122(11) . . .
122(11) . . .
127(11) . . .
122(11) . . .
133(12) . . .
131(11) . . .
131(11) . . .
116(11) . . .
129(11) . . .
109(10) . . .
118(11) . . .
130(11) . . .
120(11) . . .
126(11) . . .
110(10) . . .
116(11) . . .
122(11) . . .
126(11) . . .
130(11) . . .
113(11) . . .
130(11) . . .
106(10) . . .
120(11) . . .
129(11) . . .
127(11) . . .
147(12) . . .
103(10) . . .
152(12) . . .
133(12) . . .
146(12) . . .
113(11) . . .
122(11) . . .
142(12) . . .
131(11) . . .
119(11) . . .
118(11) . . .
112(11) . . .
116(11) . . .
120(11) . . .
140(12) . . .
132(11) . . .
131(11) . . .
126(11) . . .
114(11) . . .
118(11) . . .
122(11) . . .
126(11) . . .
127(11) . . .
118(11) . . .
137(12) . . .
117(11) . . .
142(12) . . .
131(11) . . .
148(12) . . .
139(12) . . .
138(12) . . .
118(11) . . .
125(11) . . .
128(11) . . .
123(11) . . .
138(12) . . .
122(11) . . .
123(11) . . .
133(12) . . .
134(12) . . .
142(12) . . .
121(11) . . .
127(11) . . .
120(11) . . .
133(12) . . .
136(12) . . .
124(11) . . .
133(12) . . .
142(12) . . .
128(11) . . .
123(11) . . .
146(12) . . .
128(11) . . .
129(11) . . .
121(11) . . .
125(11) . . .
127(11) . . .
141(12) . . .
149(12) . . .
144(12) . . .
139(12) . . .
144(12) . . .
134(12) . . .
155(12) . . .
134(12) . . .
149(12) . . .
142(12) . . .
120(11) . . .
141(12) . . .
148(12) . . .
134(12) . . .
148(12) . . .
143(12) . . .
131(11) . . .
131(11) . . .
143(12) . . .
141(12) . . .
144(12) . . .
146(12) . . .
145(12) . . .
143(12) . . .
153(12) . . .
146(12) . . .
148(12) . . .
159(13) . . .
149(12) . . .
160(13) . . .
159(13) . . .
154(12) . . .
161(13) . . .
144(12) . . .
165(13) . . .
192(14) . . .
184(14) . . .
154(12) . . .
169(13) . . .
157(13) . . .
149(12) . . .
177(13) . . .
185(14) . . .
172(13) . . .
180(13) . . .
182(13) . . .
216(15) . . .
193(14) . . .
202(14) . . .
203(14) . . .
206(14) . . .
210(14) . . .
190(14) . . .
208(14) . . .
208(14) . . .
227(15) . . .
256(16) . . .
252(16) . . .
247(16) . . .
270(16) . . .
279(17) . . .
311(18) . . .
303(17) . . .
282(17) . . .
329(18) . . .
351(19) . . .
376(19) . . .
382(20) . . .
380(19) . . .
380(19) . . .
471(22) . . .
469(22) . . .
500(22) . . .
544(23) . . .
545(23) . . .
600(24) . . .
646(25) . . .
703(27) . . .
725(27) . . .
781(28) . . .
835(29) . . .
895(30) . . .
934(31) . . .
1055(32) . . .
1064(33) . . .
1153(34) . . .
1211(35) . . .
1241(35) . . .
1293(36) . . .
1336(37) . . .
1300(36) . . .
1428(38) . . .
1362(37) . . .
1293(36) . . .
1315(36) . . .
1251(35) . . .
1281(36) . . .
1242(35) . . .
1120(33) . . .
1083(33) . . .
1035(32) . . .
963(31) . . .
875(30) . . .
822(29) . . .
749(27) . . .
719(27) . . .
686(26) . . .
585(24) . . .
550(23) . . .
556(24) . . .
495(22) . . .
485(22) . . .
452(21) . . .
428(21) . . .
398(20) . . .
373(19) . . .
328(18) . . .
322(18) . . .
323(18) . . .
293(17) . . .
272(16) . . .
283(17) . . .
279(17) . . .
270(16) . . .
226(15) . . .
241(16) . . .
235(15) . . .
219(15) . . .
211(15) . . .
207(14) . . .
206(14) . . .
207(14) . . .
210(14) . . .
202(14) . . .
204(14) . . .
156(12) . . .
177(13) . . .
203(14) . . .
178(13) . . .
177(13) . . .
161(13) . . .
166(13) . . .
166(13) . . .
173(13) . . .
188(14) . . .
157(13) . . .
172(13) . . .
160(13) . . .
164(13) . . .
164(13) . . .
160(13) . . .
166(13) . . .
150(12) . . .
150(12) . . .
153(12) . . .
135(12) . . .
161(13) . . .
154(12) . . .
154(12) . . .
147(12) . . .
132(11) . . .
151(12) . . .
136(12) . . .
119(11) . . .
141(12) . . .
138(12) . . .
137(12) . . .
121(11) . . .
140(12) . . .
155(12) . . .
139(12) . . .
153(12) . . .
140(12) . . .
140(12) . . .
128(11) . . .
138(12) . . .
141(12) . . .
121(11) . . .
128(11) . . .
126(11) . . .
145(12) . . .
130(11) . . .
132(11) . . .
115(11) . . .
131(11) . . .
123(11) . . .
134(12) . . .
130(11) . . .
138(12) . . .
124(11) . . .
139(12) . . .
114(11) . . .
130(11) . . .
146(12) . . .
127(11) . . .
116(11) . . .
135(12) . . .
135(12) . . .
126(11) . . .
135(12) . . .
131(11) . . .
143(12) . . .
146(12) . . .
123(11) . . .
118(11) . . .
127(11) . . .
116(11) . . .
131(11) . . .
119(11) . . .
120(11) . . .
136(12) . . .
112(11) . . .
120(11) . . .
125(11) . . .
120(11) . . .
121(11) . . .
122(11) . . .
136(12) . . .
117(11) . . .
124(11) . . .
117(11) . . .
129(11) . . .
110(10) . . .
120(11) . . .
121(11) . . .
127(11) . . .
111(11) . . .
113(11) . . .
117(11) . . .
118(11) . . .
116(11) . . .
113(11) . . .
110(10) . . .
113(11) . . .
102(10) . . .
127(11) . . .
130(11) . . .
133(12) . . .
109(10) . . .
121(11) . . .
138(12) . . .
120(11) . . .
141(12) . . .
125(11) . . .
101(10) . . .
121(11) . . .
102(10) . . .
124(11) . . .
129(11) . . .
124(11) . . .
123(11) . . .
118(11) . . .
120(11) . . .
108(10) . . .
121(11) . . .
135(12) . . .
121(11) . . .
116(11) . . .
113(11) . . .
96(10) . . .
121(11) . . .
119(11) . . .
117(11) . . .
111(11) . . .
113(11) . . .
126(11) . . .
116(11) . . .
125(11) . . .
114(11) . . .
133(12) . . .
121(11) . . .
128(11) . . .
118(11) . . .
130(11) . . .
124(11) . . .
128(11) . . .
121(11) . . .
115(11) . . .
120(11) . . .
113(11) . . .
123(11) . . .
104(10) . . .
123(11) . . .
113(11) . . .
110(10) . . .
97(10) . . .
119(11) . . .
130(11) . . .
106(10) . . .
124(11) . . .
128(11) . . .
114(11) . . .
105(10) . . .
105(10) . . .
104(10) . . .
133(12) . . .
119(11) . . .
114(11) . . .
115(11) . . .
128(11) . . .
118(11) . . .
101(10) . . .
102(10) . . .
131(11) . . .
114(11) . . .
118(11) . . .
147(12) . . .
134(12) . . .
101(10) . . .
120(11) . . .
103(10) . . .
101(10) . . .
126(11) . . .
113(11) . . .
106(10) . . .
110(10) . . .
101(10) . . .
104(10) . . .
103(10) . . .
117(11) . . .
103(10) . . .
108(10) . . .
104(10) . . .
108(10) . . .
113(11) . . .
101(10) . . .
97(10) . . .
121(11) . . .
114(11) . . .
116(11) . . .
111(11) . . .
117(11) . . .
117(11) . . .
115(11) . . .
118(11) . . .
117(11) . . .
112(11) . . .
114(11) . . .
129(11) . . .
130(11) . . .
124(11) . . .
99(10) . . .
114(11) . . .
119(11) . . .
115(11) . . .
103(10) . . .
100(10) . . .
111(11) . . .
106(10) . . .
110(10) . . .
119(11) . . .
129(11) . . .
120(11) . . .
121(11) . . .
109(10) . . .
125(11) . . .
111(11) . . .
99(10) . . .
103(10) . . .
119(11) . . .
117(11) . . .
112(11) . . .
115(11) . . .
112(11) . . .
116(11) . . .
125(11) . . .
132(11) . . .
122(11) . . .
118(11) . . .
105(10) . . .
101(10) . . .
112(11) . . .
116(11) . . .
107(10) . . .
114(11) . . .
135(12) . . .
93(10) . . .
115(11) . . .
117(11) . . .
114(11) . . .
126(11) . . .
123(11) . . .
133(12) . . .
105(10) . . .
116(11) . . .
110(10) . . .
121(11) . . .
122(11) . . .
104(10) . . .
102(10) . . .
123(11) . . .
124(11) . . .
132(11) . . .
118(11) . . .
91(10) . . .
101(10) . . .
102(10) . . .
113(11) . . .
109(10) . . .
99(10) . . .
124(11) . . .
114(11) . . .
117(11) . . .
107(10) . . .
122(11) . . .
108(10) . . .
116(11) . . .
116(11) . . .
119(11) . . .
115(11) . . .
114(11) . . .
103(10) . . .
124(11) . . .
103(10) . . .
102(10) . . .
121(11) . . .
113(11) . . .
109(10) . . .
105(10) . . .
99(10) . . .
113(11) . . .
120(11) . . .
109(10) . . .
128(11) . . .
122(11) . . .
110(10) . . .
123(11) . . .
125(11) . . .
103(10) . . .
118(11) . . .
122(11) . . .
113(11) . . .
106(10) . . .
97(10) . . .
115(11) . . .
94(10) . . .
114(11) . . .
90(9) . . .
106(10) . . .
111(11) . . .
115(11) . . .
110(10) . . .
106(10) . . .
97(10) . . .
102(10) . . .
108(10) . . .
99(10) . . .
116(11) . . .
112(11) . . .
119(11) . . .
115(11) . . .
119(11) . . .
109(10) . . .
99(10) . . .
107(10) . . .
114(11) . . .
112(11) . . .
113(11) . . .
115(11) . . .
101(10) . . .
118(11) . . .
109(10) . . .
89(9) . . .
114(11) . . .
115(11) . . .
84(9) . . .
121(11) . . .
111(11) . . .
102(10) . . .
122(11) . . .
105(10) . . .
131(11) . . .
118(11) . . .
99(10) . . .
97(10) . . .
100(10) . . .
104(10) . . .
105(10) . . .
112(11) . . .
102(10) . . .
113(11) . . .
113(11) . . .
97(10) . . .
97(10) . . .
100(10) . . .
98(10) . . .
106(10) . . .
98(10) . . .
93(10) . . .
100(10) . . .
109(10) . . .
108(10) . . .
119(11) . . .
112(11) . . .
105(10) . . .
85(9) . . .
98(10) . . .
109(10) . . .
108(10) . . .
90(9) . . .
99(10) . . .
120(11) . . .
107(10) . . .
111(11) . . .
96(10) . . .
106(10) . . .
109(10) . . .
104(10) . . .
118(11) . . .
117(11) . . .
110(10) . . .
103(10) . . .
105(10) . . .
110(10) . . .
92(10) . . .
97(10) . . .
99(10) . . .
124(11) . . .
99(10) . . .
113(11) . . .
102(10) . . .
115(11) . . .
105(10) . . .
109(10) . . .
112(11) . . .
116(11) . . .
90(9) . . .
106(10) . . .
115(11) . . .
123(11) . . .
116(11) . . .
98(10) . . .
103(10) . . .
105(10) . . .
111(11) . . .
124(11) . . .
116(11) . . .
98(10) . . .
115(11) . . .
114(11) . . .
107(10) . . .
100(10) . . .
104(10) . . .
114(11) . . .
115(11) . . .
120(11) . . .
115(11) . . .
101(10) . . .
106(10) . . .
107(10) . . .
99(10) . . .
116(11) . . .
103(10) . . .
109(10) . . .
101(10) . . .
94(10) . . .
117(11) . . .
89(9) . . .
110(10) . . .
119(11) . . .
107(10) . . .
103(10) . . .
100(10) . . .
105(10) . . .
108(10) . . .
109(10) . . .
104(10) . . .
116(11) . . .
120(11) . . .
109(10) . . .
122(11) . . .
105(10) . . .
119(11) . . .
104(10) . . .
103(10) . . .
113(11) . . .
120(11) . . .
115(11) . . .
115(11) . . .
100(10) . . .
92(10) . . .
113(11) . . .
122(11) . . .
101(10) . . .
96(10) . . .
124(11) . . .
92(10) . . .
121(11) . . .
92(10) . . .
100(10) . . .
105(10) . . .
106(10) . . .
107(10) . . .
119(11) . . .
114(11) . . .
104(10) . . .
108(10) . . .
97(10) . . .
111(11) . . .
102(10) . . .
106(10) . . .
95(10) . . .
115(11) . . .
121(11) . . .
97(10) . . .
110(10) . . .
104(10) . . .
102(10) . . .
98(10) . . .
108(10) . . .
95(10) . . .
102(10) . . .
101(10) . . .
99(10) . . .
101(10) . . .
98(10) . . .
116(11) . . .
105(10) . . .
111(11) . . .
103(10) . . .
115(11) . . .
98(10) . . .
117(11) . . .
115(11) . . .
105(10) . . .
106(10) . . .
113(11) . . .
112(11) . . .
104(10) . . .
89(9) . . .
91(10) . . .
100(10) . . .
103(10) . . .
94(10) . . .
106(10) . . .
114(11) . . .
111(11) . . .
100(10) . . .
103(10) . . .
92(10) . . .
95(10) . . .
103(10) . . .
105(10) . . .
111(11) . . .
94(10) . . .
91(10) . . .
119(11) . . .
108(10) . . .
99(10) . . .
107(10) . . .
113(11) . . .
99(10) . . .
119(11) . . .
108(10) . . .
111(11) . . .
103(10) . . .
104(10) . . .
98(10) . . .
97(10) . . .
112(11) . . .
107(10) . . .
101(10) . . .
101(10) . . .
103(10) . . .
104(10) . . .
88(9) . . .
103(10) . . .
106(10) . . .
107(10) . . .
103(10) . . .
98(10) . . .
102(10) . . .
109(10) . . .
98(10) . . .
115(11) . . .
105(10) . . .
111(11) . . .
107(10) . . .
124(11) . . .
107(10) . . .
98(10) . . .
110(10) . . .
103(10) . . .
108(10) . . .
114(11) . . .
94(10) . . .
105(10) . . .
96(10) . . .
109(10) . . .
112(11) . . .
99(10) . . .
90(9) . . .
107(10) . . .
104(10) . . .
99(10) . . .
117(11) . . .
107(10) . . .
96(10) . . .
101(10) . . .
111(11) . . .
114(11) . . .
101(10) . . .
91(10) . . .
101(10) . . .
112(11) . . .
111(11) . . .
110(10) . . .
107(10) . . .
105(10) . . .
118(11) . . .
103(10) . . .
102(10) . . .
103(10) . . .
106(10) . . .
108(10) . . .
114(11) . . .
101(10) . . .
93(10) . . .
104(10) . . .
102(10) . . .
90(9) . . .
106(10) . . .
100(10) . . .
105(10) . . .
100(10) . . .
107(10) . . .
110(10) . . .
111(11) . . .
111(11) . . .
91(10) . . .
85(9) . . .
95(10) . . .
87(9) . . .
106(10) . . .
98(10) . . .
95(10) . . .
98(10) . . .
109(10) . . .
109(10) . . .
96(10) . . .
97(10) . . .
109(10) . . .
116(11) . . .
114(11) . . .
80(9) . . .
91(10) . . .
97(10) . . .
97(10) . . .
96(10) . . .
102(10) . . .
90(9) . . .
95(10) . . .
93(10) . . .
98(10) . . .
100(10) . . .
94(10) . . .
113(11) . . .
110(10) . . .
111(11) . . .
107(10) . . .
114(11) . . .
92(10) . . .
94(10) . . .
105(10) . . .
97(10) . . .
101(10) . . .
92(10) . . .
95(10) . . .
114(11) . . .
91(10) . . .
97(10) . . .
110(10) . . .
103(10) . . .
108(10) . . .
117(11) . . .
98(10) . . .
100(10) . . .
124(11) . . .
112(11) . . .
94(10) . . .
104(10) . . .
106(10) . . .
103(10) . . .
106(10) . . .
100(10) . . .
107(10) . . .
105(10) . . .
85(9) . . .
100(10) . . .
114(11) . . .
106(10) . . .
86(9) . . .
84(9) . . .
92(10) . . .
97(10) . . .
113(11) . . .
111(11) . . .
98(10) . . .
86(9) . . .
81(9) . . .
105(10) . . .
97(10) . . .
106(10) . . .
96(10) . . .
99(10) . . .
99(10) . . .
99(10) . . .
109(10) . . .
123(11) . . .
95(10) . . .
111(11) . . .
102(10) . . .
101(10) . . .
105(10) . . .
99(10) . . .
98(10) . . .
116(11) . . .
99(10) . . .
98(10) . . .
100(10) . . .
114(11) . . .
98(10) . . .
96(10) . . .
117(11) . . .
108(10) . . .
113(11) . . .
101(10) . . .
112(11) . . .
101(10) . . .
91(10) . . .
77(9) . . .
112(11) . . .
97(10) . . .
112(11) . . .
98(10) . . .
111(11) . . .
111(11) . . .
100(10) . . .
98(10) . . .
112(11) . . .
95(10) . . .
95(10) . . .
90(9) . . .
111(11) . . .
95(10) . . .
100(10) . . .
106(10) . . .
97(10) . . .
99(10) . . .
100(10) . . .
96(10) . . .
105(10) . . .
99(10) . . .
93(10) . . .
95(10) . . .
94(10) . . .
107(10) . . .
106(10) . . .
98(10) . . .
103(10) . . .
90(9) . . .
105(10) . . .
93(10) . . .
107(10) . . .
107(10) . . .
92(10) . . .
117(11) . . .
103(10) . . .
98(10) . . .
96(10) . . .
114(11) . . .
106(10) . . .
93(10) . . .
85(9) . . .
92(10) . . .
100(10) . . .
113(11) . . .
112(11) . . .
96(10) . . .
104(10) . . .
108(10) . . .
89(9) . . .
111(11) . . .
105(10) . . .
99(10) . . .
106(10) . . .
107(10) . . .
110(10) . . .
114(11) . . .
114(11) . . .
109(10) . . .
108(10) . . .
91(10) . . .
108(10) . . .
100(10) . . .
96(10) . . .
95(10) . . .
99(10) . . .
101(10) . . .
106(10) . . .
115(11) . . .
99(10) . . .
107(10) . . .
96(10) . . .
104(10) . . .
98(10) . . .
105(10) . . .
98(10) . . .
102(10) . . .
99(10) . . .
113(11) . . .
97(10) . . .
97(10) . . .
103(10) . . .
115(11) . . .
108(10) . . .
106(10) . . .
116(11) . . .
103(10) . . .
112(11) . . .
110(10) . . .
91(10) . . .
96(10) . . .
112(11) . . .
104(10) . . .
99(10) . . .
104(10) . . .
102(10) . . .
106(10) . . .
111(11) . . .
98(10) . . .
119(11) . . .
110(10) . . .
92(10) . . .
91(10) . . .
110(10) . . .
101(10) . . .
111(11) . . .
88(9) . . .
94(10) . . .
88(9) . . .
79(9) . . .
108(10) . . .
100(10) . . .
106(10) . . .
74(9) . . .
92(10) . . .
99(10) . . .
98(10) . . .
94(10) . . .
98(10) . . .
84(9) . . .
84(9) . . .
98(10) . . .
100(10) . . .
94(10) . . .
107(10) . . .
107(10) . . .
111(11) . . .
94(10) . . .
91(10) . . .
94(10) . . .
102(10) . . .
86(9) . . .
97(10) . . .
99(10) . . .
80(9) . . .
88(9) . . .
105(10) . . .
87(9) . . .
106(10) . . .
102(10) . . .
87(9) . . .
91(10) . . .
112(11) . . .
96(10) . . .
88(9) . . .
118(11) . . .
86(9) . . .
94(10) . . .
95(10) . . .
100(10) . . .
104(10) . . .
101(10) . . .
101(10) . . .
109(10) . . .
92(10) . . .
94(10) . . .
105(10) . . .
98(10) . . .
95(10) . . .
98(10) . . .
98(10) . . .
103(10) . . .
98(10) . . .
86(9) . . .
93(10) . . .
98(10) . . .
91(10) . . .
94(10) . . .
92(10) . . .
104(10) . . .
111(11) . . .
111(11) . . .
114(11) . . .
98(10) . . .
101(10) . . .
100(10) . . .
93(10) . . .
96(10) . . .
95(10) . . .
93(10) . . .
104(10) . . .
103(10) . . .
94(10) . . .
92(10) . . .
92(10) . . .
95(10) . . .
110(10) . . .
102(10) . . .
101(10) . . .
102(10) . . .
95(10) . . .
83(9) . . .
92(10) . . .
90(9) . . .
101(10) . . .
98(10) . . .
99(10) . . .
93(10) . . .
97(10) . . .
99(10) . . .
110(10) . . .
115(11) . . .
94(10) . . .
113(11) . . .
83(9) . . .
95(10) . . .
94(10) . . .
93(10) . . .
92(10) . . .
105(10) . . .
88(9) . . .
105(10) . . .
104(10) . . .
101(10) . . .
100(10) . . .
95(10) . . .
100(10) . . .
100(10) . . .
96(10) . . .
89(9) . . .
93(10) . . .
103(10) . . .
90(9) . . .
104(10) . . .
103(10) . . .
98(10) . . .
106(10) . . .
99(10) . . .
81(9) . . .
104(10) . . .
103(10) . . .
111(11) . . .
97(10) . . .
101(10) . . .
82(9) . . .
98(10) . . .
102(10) . . .
102(10) . . .
92(10) . . .
120(11) . . .
94(10) . . .
101(10) . . .
101(10) . . .
104(10) . . .
84(9) . . .
96(10) . . .
111(11) . . .
101(10) . . .
90(9) . . .
93(10) . . .
104(10) . . .
100(10) . . .
93(10) . . .
100(10) . . .
100(10) . . .
93(10) . . .
110(10) . . .
101(10) . . .
101(10) . . .
95(10) . . .
111(11) . . .
118(11) . . .
96(10) . . .
121(11) . . .
78(9) . . .
106(10) . . .
101(10) . . .
107(10) . . .
88(9) . . .
94(10) . . .
87(9) . . .
89(9) . . .
104(10) . . .
105(10) . . .
105(10) . . .
110(10) . . .
103(10) . . .
82(9) . . .
90(9) . . .
104(10) . . .
104(10) . . .
89(9) . . .
92(10) . . .
110(10) . . .
92(10) . . .
103(10) . . .
102(10) . . .
108(10) . . .
95(10) . . .
82(9) . . .
102(10) . . .
94(10) . . .
105(10) . . .
91(10) . . .
86(9) . . .
109(10) . . .
104(10) . . .
101(10) . . .
101(10) . . .
119(11) . . .
105(10) . . .
107(10) . . .
88(9) . . .
93(10) . . .
107(10) . . .
92(10) . . .
97(10) . . .
101(10) . . .
105(10) . . .
97(10) . . .
104(10) . . .
99(10) . . .
99(10) . . .
113(11) . . .
88(9) . . .
106(10) . . .
115(11) . . .
90(9) . . .
88(9) . . .
93(10) . . .
90(9) . . .
91(10) . . .
105(10) . . .
93(10) . . .
110(10) . . .
110(10) . . .
111(11) . . .
90(9) . . .
101(10) . . .
96(10) . . .
88(9) . . .
110(10) . . .
100(10) . . .
94(10) . . .
121(11) . . .
91(10) . . .
95(10) . . .
82(9) . . .
82(9) . . .
103(10) . . .
85(9) . . .
87(9) . . .
99(10) . . .
102(10) . . .
87(9) . . .
93(10) . . .
89(9) . . .
83(9) . . .
99(10) . . .
114(11) . . .
100(10) . . .
94(10) . . .
110(10) . . .
94(10) . . .
104(10) . . .
96(10) . . .
112(11) . . .
97(10) . . .
81(9) . . .
93(10) . . .
86(9) . . .
89(9) . . .
97(10) . . .
93(10) . . .
104(10) . . .
92(10) . . .
104(10) . . .
85(9) . . .
106(10) . . .
98(10) . . .
109(10) . . .
105(10) . . .
90(9) . . .
92(10) . . .
102(10) . . .
97(10) . . .
108(10) . . .
92(10) . . .
90(9) . . .
111(11) . . .
100(10) . . .
96(10) . . .
108(10) . . .
103(10) . . .
92(10) . . .
107(10) . . .
98(10) . . .
104(10) . . .
94(10) . . .
99(10) . . .
91(10) . . .
95(10) . . .
97(10) . . .
95(10) . . .
93(10) . . .
95(10) . . .
89(9) . . .
99(10) . . .
109(10) . . .
115(11) . . .
117(11) . . .
94(10) . . .
104(10) . . .
94(10) . . .
115(11) . . .
118(11) . . .
104(10) . . .
89(9) . . .
88(9) . . .
80(9) . . .
87(9) . . .
99(10) . . .
93(10) . . .
103(10) . . .
94(10) . . .
112(11) . . .
101(10) . . .
96(10) . . .
98(10) . . .
103(10) . . .
102(10) . . .
96(10) . . .
105(10) . . .
91(10) . . .
95(10) . . .
109(10) . . .
89(9) . . .
87(9) . . .
103(10) . . .
94(10) . . .
95(10) . . .
101(10) . . .
99(10) . . .
91(10) . . .
91(10) . . .
100(10) . . .
93(10) . . .
96(10) . . .
83(9) . . .
102(10) . . .
104(10) . . .
100(10) . . .
105(10) . . .
100(10) . . .
91(10) . . .
100(10) . . .
118(11) . . .
87(9) . . .
93(10) . . .
100(10) . . .
94(10) . . .
97(10) . . .
85(9) . . .
91(10) . . .
99(10) . . .
91(10) . . .
89(9) . . .
98(10) . . .
100(10) . . .
94(10) . . .
103(10) . . .
98(10) . . .
79(9) . . .
113(11) . . .
82(9) . . .
88(9) . . .
88(9) . . .
96(10) . . .
85(9) . . .
90(9) . . .
100(10) . . .
85(9) . . .
112(11) . . .
99(10) . . .
114(11) . . .
106(10) . . .
102(10) . . .
115(11) . . .
91(10) . . .
86(9) . . .
91(10) . . .
108(10) . . .
97(10) . . .
94(10) . . .
96(10) . . .
92(10) . . .
94(10) . . .
85(9) . . .
92(10) . . .
96(10) . . .
94(10) . . .
91(10) . . .
92(10) . . .
93(10) . . .
95(10) . . .
87(9) . . .
98(10) . . .
88(9) . . .
100(10) . . .
98(10) . . .
97(10) . . .
99(10) . . .
99(10) . . .
92(10) . . .
103(10) . . .
87(9) . . .
113(11) . . .
89(9) . . .
94(10) . . .
102(10) . . .
89(9) . . .
93(10) . . .
98(10) . . .
89(9) . . .
97(10) . . .
96(10) . . .
105(10) . . .
94(10) . . .
96(10) . . .
106(10) . . .
97(10) . . .
94(10) . . .
104(10) . . .
98(10) . . .
100(10) . . .
92(10) . . .
93(10) . . .
90(9) . . .
99(10) . . .
101(10) . . .
92(10) . . .
98(10) . . .
94(10) . . .
103(10) . . .
91(10) . . .
95(10) . . .
91(10) . . .
88(9) . . .
89(9) . . .
97(10) . . .
103(10) . . .
94(10) . . .
84(9) . . .
111(11) . . .
92(10) . . .
93(10) . . .
95(10) . . .
91(10) . . .
116(11) . . .
98(10) . . .
105(10) . . .
94(10) . . .
95(10) . . .
102(10) . . .
98(10) . . .
95(10) . . .
89(9) . . .
96(10) . . .
82(9) . . .
104(10) . . .
95(10) . . .
97(10) . . .
118(11) . . .
77(9) . . .
115(11) . . .
87(9) . . .
96(10) . . .
89(9) . . .
91(10) . . .
83(9) . . .
90(9) . . .
118(11) . . .
90(9) . . .
94(10) . . .
108(10) . . .
108(10) . . .
95(10) . . .
96(10) . . .
80(9) . . .
95(10) . . .
98(10) . . .
86(9) . . .
86(9) . . .
110(10) . . .
96(10) . . .
105(10) . . .
99(10) . . .
92(10) . . .
99(10) . . .
86(9) . . .
84(9) . . .
105(10) . . .
102(10) . . .
92(10) . . .
102(10) . . .
91(10) . . .
92(10) . . .
98(10) . . .
113(11) . . .
87(9) . . .
102(10) . . .
87(9) . . .
102(10) . . .
98(10) . . .
98(10) . . .
103(10) . . .
73(9) . . .
75(9) . . .
101(10) . . .
73(9) . . .
82(9) . . .
99(10) . . .
99(10) . . .
108(10) . . .
105(10) . . .
103(10) . . .
114(11) . . .
101(10) . . .
94(10) . . .
88(9) . . .
84(9) . . .
95(10) . . .
100(10) . . .
92(10) . . .
89(9) . . .
87(9) . . .
92(10) . . .
110(10) . . .
102(10) . . .
103(10) . . .
107(10) . . .
93(10) . . .
104(10) . . .
95(10) . . .
86(9) . . .
104(10) . . .
101(10) . . .
89(9) . . .
98(10) . . .
80(9) . . .
94(10) . . .
102(10) . . .
96(10) . . .
101(10) . . .
84(9) . . .
97(10) . . .
99(10) . . .
93(10) . . .
106(10) . . .
105(10) . . .
113(11) . . .
87(9) . . .
109(10) . . .
94(10) . . .
95(10) . . .
91(10) . . .
90(9) . . .
103(10) . . .
109(10) . . .
106(10) . . .
97(10) . . .
102(10) . . .
87(9) . . .
116(11) . . .
88(9) . . .
87(9) . . .
75(9) . . .
88(9) . . .
95(10) . . .
96(10) . . .
101(10) . . .
96(10) . . .
90(9) . . .
92(10) . . .
100(10) . . .
98(10) . . .
118(11) . . .
97(10) . . .
101(10) . . .
100(10) . . .
101(10) . . .
83(9) . . .
90(9) . . .
88(9) . . .
102(10) . . .
100(10) . . .
113(11) . . .
94(10) . . .
103(10) . . .
105(10) . . .
94(10) . . .
99(10) . . .
95(10) . . .
104(10) . . .
92(10) . . .
109(10) . . .
102(10) . . .
108(10) . . .
104(10) . . .
104(10) . . .
100(10) . . .
99(10) . . .
105(10) . . .
97(10) . . .
99(10) . . .
117(11) . . .
110(10) . . .
103(10) . . .
106(10) . . .
115(11) . . .
107(10) . . .
97(10) . . .
94(10) . . .
91(10) . . .
105(10) . . .
112(11) . . .
95(10) . . .
92(10) . . .
90(9) . . .
98(10) . . .
97(10) . . .
95(10) . . .
103(10) . . .
102(10) . . .
99(10) . . .
92(10) . . .
97(10) . . .
101(10) . . .
90(9) . . .
95(10) . . .
103(10) . . .
87(9) . . .
91(10) . . .
88(9) . . .
89(9) . . .
88(9) . . .
92(10) . . .
101(10) . . .
101(10) . . .
91(10) . . .
81(9) . . .
91(10) . . .
101(10) . . .
96(10) . . .
106(10) . . .
94(10) . . .
114(11) . . .
88(9) . . .
100(10) . . .
108(10) . . .
98(10) . . .
95(10) . . .
81(9) . . .
106(10) . . .
88(9) . . .
121(11) . . .
107(10) . . .
110(10) . . .
100(10) . . .
110(10) . . .
106(10) . . .
110(10) . . .
93(10) . . .
100(10) . . .
109(10) . . .
110(10) . . .
99(10) . . .
92(10) . . .
117(11) . . .
85(9) . . .
103(10) . . .
121(11) . . .
113(11) . . .
121(11) . . .
116(11) . . .
95(10) . . .
98(10) . . .
102(10) . . .
105(10) . . .
111(11) . . .
109(10) . . .
105(10) . . .
109(10) . . .
111(11) . . .
118(11) . . .
113(11) . . .
140(12) . . .
114(11) . . .
120(11) . . .
123(11) . . .
128(11) . . .
124(11) . . .
125(11) . . .
124(11) . . .
131(11) . . .
133(12) . . .
134(12) . . .
169(13) . . .
130(11) . . .
134(12) . . .
147(12) . . .
146(12) . . .
158(13) . . .
175(13) . . .
157(13) . . .
172(13) . . .
184(14) . . .
184(14) . . .
170(13) . . .
197(14) . . .
212(15) . . .
185(14) . . .
220(15) . . .
219(15) . . .
234(15) . . .
251(16) . . .
247(16) . . .
278(17) . . .
268(16) . . .
287(17) . . .
262(16) . . .
327(18) . . .
304(17) . . .
309(18) . . .
338(18) . . .
323(18) . . .
334(18) . . .
334(18) . . .
347(19) . . .
319(18) . . .
330(18) . . .
334(18) . . .
345(19) . . .
340(18) . . .
302(17) . . .
271(16) . . .
272(16) . . .
282(17) . . .
277(17) . . .
227(15) . . .
237(15) . . .
213(15) . . .
214(15) . . .
190(14) . . .
207(14) . . .
190(14) . . .
177(13) . . .
175(13) . . .
170(13) . . .
163(13) . . .
167(13) . . .
170(13) . . .
173(13) . . .
144(12) . . .
143(12) . . .
146(12) . . .
136(12) . . .
134(12) . . .
126(11) . . .
129(11) . . .
145(12) . . .
119(11) . . .
132(11) . . .
138(12) . . .
133(12) . . .
120(11) . . .
123(11) . . .
120(11) . . .
98(10) . . .
110(10) . . .
127(11) . . .
128(11) . . .
101(10) . . .
119(11) . . .
130(11) . . .
104(10) . . .
107(10) . . .
98(10) . . .
108(10) . . .
112(11) . . .
107(10) . . .
105(10) . . .
101(10) . . .
103(10) . . .
101(10) . . .
105(10) . . .
102(10) . . .
91(10) . . .
98(10) . . .
94(10) . . .
97(10) . . .
98(10) . . .
104(10) . . .
92(10) . . .
93(10) . . .
97(10) . . .
100(10) . . .
82(9) . . .
97(10) . . .
85(9) . . .
109(10) . . .
106(10) . . .
92(10) . . .
98(10) . . .
102(10) . . .
95(10) . . .
108(10) . . .
93(10) . . .
91(10) . . .
96(10) . . .
110(10) . . .
107(10) . . .
94(10) . . .
102(10) . . .
102(10) . . .
93(10) . . .
109(10) . . .
98(10) . . .
118(11) . . .
98(10) . . .
100(10) . . .
94(10) . . .
103(10) . . .
99(10) . . .
96(10) . . .
86(9) . . .
101(10) . . .
90(9) . . .
95(10) . . .
101(10) . . .
95(10) . . .
92(10) . . .
96(10) . . .
91(10) . . .
95(10) . . .
98(10) . . .
97(10) . . .
94(10) . . .
109(10) . . .
95(10) . . .
88(9) . . .
92(10) . . .
82(9) . . .
87(9) . . .
93(10) . . .
100(10) . . .
96(10) . . .
95(10) . . .
91(10) . . .
99(10) . . .
105(10) . . .
100(10) . . .
101(10) . . .
85(9) . . .
92(10) . . .
98(10) . . .
99(10) . . .
101(10) . . .
106(10) . . .
103(10) . . .
81(9) . . .
91(10) . . .
110(10) . . .
93(10) . . .
104(10) . . .
92(10) . . .
88(9) . . .
108(10) . . .
91(10) . . .
101(10) . . .
92(10) . . .
102(10) . . .
81(9) . . .
82(9) . . .
93(10) . . .
101(10) . . .
113(11) . . .
95(10) . . .
98(10) . . .
94(10) . . .
83(9) . . .
93(10) . . .
86(9) . . .
101(10) . . .
101(10) . . .
85(9) . . .
106(10) . . .
103(10) . . .
110(10) . . .
95(10) . . .
99(10) . . .
93(10) . . .
92(10) . . .
86(9) . . .
91(10) . . .
81(9) . . .
97(10) . . .
86(9) . . .
106(10) . . .
96(10) . . .
93(10) . . .
94(10) . . .
89(9) . . .
88(9) . . .
78(9) . . .
102(10) . . .
90(9) . . .
91(10) . . .
86(9) . . .
104(10) . . .
99(10) . . .
109(10) . . .
95(10) . . .
109(10) . . .
108(10) . . .
81(9) . . .
82(9) . . .
99(10) . . .
84(9) . . .
94(10) . . .
81(9) . . .
94(10) . . .
85(9) . . .
127(11) . . .
90(9) . . .
89(9) . . .
89(9) . . .
87(9) . . .
86(9) . . .
95(10) . . .
103(10) . . .
98(10) . . .
90(9) . . .
99(10) . . .
89(9) . . .
103(10) . . .
99(10) . . .
104(10) . . .
96(10) . . .
88(9) . . .
98(10) . . .
97(10) . . .
99(10) . . .
96(10) . . .
96(10) . . .
79(9) . . .
88(9) . . .
97(10) . . .
103(10) . . .
90(9) . . .
102(10) . . .
87(9) . . .
108(10) . . .
93(10) . . .
93(10) . . .
98(10) . . .
96(10) . . .
95(10) . . .
102(10) . . .
102(10) . . .
81(9) . . .
104(10) . . .
85(9) . . .
87(9) . . .
90(9) . . .
106(10) . . .
93(10) . . .
109(10) . . .
93(10) . . .
106(10) . . .
108(10) . . .
82(9) . . .
97(10) . . .
109(10) . . .
98(10) . . .
106(10) . . .
99(10) . . .
80(9) . . .
92(10) . . .
90(9) . . .
94(10) . . .
75(9) . . .
90(9) . . .
100(10) . . .
90(9) . . .
85(9) . . .
109(10) . . .
95(10) . . .
96(10) . . .
93(10) . . .
82(9) . . .
101(10) . . .
91(10) . . .
93(10) . . .
93(10) . . .
84(9) . . .
92(10) . . .
91(10) . . .
88(9) . . .
78(9) . . .
101(10) . . .
96(10) . . .
91(10) . . .
86(9) . . .
106(10) . . .
113(11) . . .
103(10) . . .
91(10) . . .
99(10) . . .
101(10) . . .
97(10) . . .
91(10) . . .
89(9) . . .
80(9) . . .
89(9) . . .
109(10) . . .
92(10) . . .
101(10) . . .
100(10) . . .
101(10) . . .
90(9) . . .
88(9) . . .
107(10) . . .
99(10) . . .
85(9) . . .
100(10) . . .
97(10) . . .
100(10) . . .
84(9) . . .
82(9) . . .
103(10) . . .
91(10) . . .
97(10) . . .
94(10) . . .
103(10) . . .
114(11) . . .
98(10) . . .
81(9) . . .
96(10) . . .
102(10) . . .
103(10) . . .
90(9) . . .
80(9) . . .
89(9) . . .
99(10) . . .
83(9) . . .
92(10) . . .
105(10) . . .
103(10) . . .
89(9) . . .
105(10) . . .
87(9) . . .
83(9) . . .
84(9) . . .
94(10) . . .
95(10) . . .
101(10) . . .
92(10) . . .
99(10) . . .
94(10) . . .
89(9) . . .
95(10) . . .
90(9) . . .
108(10) . . .
95(10) . . .
86(9) . . .
87(9) . . .
107(10) . . .
75(9) . . .
93(10) . . .
93(10) . . .
84(9) . . .
98(10) . . .
94(10) . . .
87(9) . . .
96(10) . . .
91(10) . . .
88(9) . . .
106(10) . . .
98(10) . . .
94(10) . . .
107(10) . . .
89(9) . . .
82(9) . . .
88(9) . . .
94(10) . . .
86(9) . . .
112(11) . . .
110(10) . . .
102(10) . . .
92(10) . . .
93(10) . . .
100(10) . . .
91(10) . . .
73(9) . . .
97(10) . . .
109(10) . . .
89(9) . . .
102(10) . . .
94(10) . . .
104(10) . . .
98(10) . . .
102(10) . . .
91(10) . . .
103(10) . . .
104(10) . . .
86(9) . . .
94(10) . . .
95(10) . . .
102(10) . . .
86(9) . . .
83(9) . . .
88(9) . . .
104(10) . . .
100(10) . . .
91(10) . . .
88(9) . . .
81(9) . . .
101(10) . . .
100(10) . . .
82(9) . . .
84(9) . . .
107(10) . . .
82(9) . . .
98(10) . . .
101(10) . . .
101(10) . . .
86(9) . . .
98(10) . . .
91(10) . . .
98(10) . . .
77(9) . . .
96(10) . . .
86(9) . . .
91(10) . . .
106(10) . . .
97(10) . . .
97(10) . . .
94(10) . . .
88(9) . . .
103(10) . . .
94(10) . . .
90(9) . . .
96(10) . . .
89(9) . . .
98(10) . . .
89(9) . . .
91(10) . . .
94(10) . . .
98(10) . . .
98(10) . . .
96(10) . . .
86(9) . . .
99(10) . . .
86(9) . . .
100(10) . . .
80(9) . . .
99(10) . . .
92(10) . . .
85(9) . . .
82(9) . . .
100(10) . . .
96(10) . . .
97(10) . . .
91(10) . . .
93(10) . . .
101(10) . . .
107(10) . . .
108(10) . . .
96(10) . . .
87(9) . . .
105(10) . . .
101(10) . . .
114(11) . . .
97(10) . . .
103(10) . . .
105(10) . . .
96(10) . . .
99(10) . . .
93(10) . . .
95(10) . . .
79(9) . . .
90(9) . . .
90(9) . . .
103(10) . . .
87(9) . . .
82(9) . . .
96(10) . . .
96(10) . . .
100(10) . . .
85(9) . . .
82(9) . . .
96(10) . . .
77(9) . . .
90(9) . . .
79(9) . . .
91(10) . . .
99(10) . . .
95(10) . . .
92(10) . . .
91(10) . . .
90(9) . . .
90(9) . . .
99(10) . . .
95(10) . . .
108(10) . . .
91(10) . . .
102(10) . . .
86(9) . . .
93(10) . . .
98(10) . . .
83(9) . . .
112(11) . . .
82(9) . . .
90(9) . . .
91(10) . . .
106(10) . . .
101(10) . . .
68(8) . . .
90(9) . . .
96(10) . . .
93(10) . . .
90(9) . . .
77(9) . . .
111(11) . . .
97(10) . . .
101(10) . . .
88(9) . . .
100(10) . . .
99(10) . . .
77(9) . . .
100(10) . . .
102(10) . . .
73(9) . . .
89(9) . . .
85(9) . . .
91(10) . . .
74(9) . . .
108(10) . . .
99(10) . . .
97(10) . . .
89(9) . . .
94(10) . . .
99(10) . . .
99(10) . . .
112(11) . . .
81(9) . . .
87(9) . . .
95(10) . . .
96(10) . . .
97(10) . . .
98(10) . . .
98(10) . . .
94(10) . . .
78(9) . . .
87(9) . . .
92(10) . . .
89(9) . . .
99(10) . . .
83(9) . . .
98(10) . . .
77(9) . . .
91(10) . . .
96(10) . . .
93(10) . . .
96(10) . . .
92(10) . . .
84(9) . . .
91(10) . . .
93(10) . . .
103(10) . . .
95(10) . . .
92(10) . . .
97(10) . . .
85(9) . . .
96(10) . . .
93(10) . . .
105(10) . . .
94(10) . . .
84(9) . . .
95(10) . . .
105(10) . . .
96(10) . . .
88(9) . . .
94(10) . . .
92(10) . . .
113(11) . . .
89(9) . . .
97(10) . . .
93(10) . . .
95(10) . . .
98(10) . . .
92(10) . . .
84(9) . . .
95(10) . . .
82(9) . . .
79(9) . . .
100(10) . . .
92(10) . . .
86(9) . . .
83(9) . . .
93(10) . . .
84(9) . . .
94(10) . . .
89(9) . . .
75(9) . . .
92(10) . . .
90(9) . . .
105(10) . . .
97(10) . . .
80(9) . . .
88(9) . . .
100(10) . . .
85(9) . . .
101(10) . . .
95(10) . . .
102(10) . . .
93(10) . . .
100(10) . . .
87(9) . . .
87(9) . . .
91(10) . . .
110(10) . . .
94(10) . . .
98(10) . . .
89(9) . . .
99(10) . . .
85(9) . . .
84(9) . . .
86(9) . . .
99(10) . . .
99(10) . . .
85(9) . . .
94(10) . . .
101(10) . . .
81(9) . . .
101(10) . . .
109(10) . . .
100(10) . . .
105(10) . . .
98(10) . . .
91(10) . . .
89(9) . . .
71(8) . . .
85(9) . . .
96(10) . . .
93(10) . . .
108(10) . . .
93(10) . . .
90(9) . . .
96(10) . . .
101(10) . . .
87(9) . . .
97(10) . . .
78(9) . . .
86(9) . . .
101(10) . . .
90(9) . . .
89(9) . . .
92(10) . . .
99(10) . . .
117(11) . . .
95(10) . . .
93(10) . . .
85(9) . . .
89(9) . . .
105(10) . . .
99(10) . . .
108(10) . . .
97(10) . . .
95(10) . . .
91(10) . . .
90(9) . . .
97(10) . . .
97(10) . . .
93(10) . . .
91(10) . . .
99(10) . . .
109(10) . . .
89(9) . . .
90(9) . . .
84(9) . . .
81(9) . . .
92(10) . . .
110(10) . . .
99(10) . . .
96(10) . . .
83(9) . . .
99(10) . . .
102(10) . . .
81(9) . . .
77(9) . . .
89(9) . . .
87(9) . . .
101(10) . . .
99(10) . . .
105(10) . . .
94(10) . . .
90(9) . . .
92(10) . . .
77(9) . . .
94(10) . . .
103(10) . . .
89(9) . . .
94(10) . . .
98(10) . . .
99(10) . . .
90(9) . . .
95(10) . . .
90(9) . . .
100(10) . . .
90(9) . . .
87(9) . . .
92(10) . . .
85(9) . . .
103(10) . . .
79(9) . . .
92(10) . . .
89(9) . . .
98(10) . . .
91(10) . . .
83(9) . . .
88(9) . . .
99(10) . . .
94(10) . . .
91(10) . . .
87(9) . . .
101(10) . . .
101(10) . . .
96(10) . . .
92(10) . . .
95(10) . . .
95(10) . . .
88(9) . . .
99(10) . . .
100(10) . . .
82(9) . . .
108(10) . . .
99(10) . . .
109(10) . . .
113(11) . . .
99(10) . . .
82(9) . . .
97(10) . . .
87(9) . . .
104(10) . . .
100(10) . . .
86(9) . . .
86(9) . . .
94(10) . . .
100(10) . . .
83(9) . . .
101(10) . . .
85(9) . . .
94(10) . . .
95(10) . . .
99(10) . . .
93(10) . . .
91(10) . . .
85(9) . . .
88(9) . . .
97(10) . . .
100(10) . . .
99(10) . . .
92(10) . . .
95(10) . . .
96(10) . . .
98(10) . . .
86(9) . . .
100(10) . . .
78(9) . . .
86(9) . . .
102(10) . . .
81(9) . . .
104(10) . . .
82(9) . . .
97(10) . . .
96(10) . . .
107(10) . . .
87(9) . . .
96(10) . . .
95(10) . . .
85(9) . . .
95(10) . . .
84(9) . . .
101(10) . . .
85(9) . . .
105(10) . . .
79(9) . . .
110(10) . . .
93(10) . . .
93(10) . . .
90(9) . . .
105(10) . . .
102(10) . . .
96(10) . . .
96(10) . . .
93(10) . . .
96(10) . . .
98(10) . . .
104(10) . . .
103(10) . . .
107(10) . . .
95(10) . . .
98(10) . . .
96(10) . . .
103(10) . . .
99(10) . . .
91(10) . . .
107(10) . . .
88(9) . . .
98(10) . . .
102(10) . . .
89(9) . . .
95(10) . . .
92(10) . . .
95(10) . . .
92(10) . . .
92(10) . . .
97(10) . . .
95(10) . . .
96(10) . . .
96(10) . . .
82(9) . . .
111(11) . . .
104(10) . . .
96(10) . . .
92(10) . . .
98(10) . . .
92(10) . . .
108(10) . . .
92(10) . . .
88(9) . . .
113(11) . . .
87(9) . . .
107(10) . . .
96(10) . . .
94(10) . . .
90(9) . . .
85(9) . . .
91(10) . . .
97(10) . . .
93(10) . . .
107(10) . . .
96(10) . . .
89(9) . . .
96(10) . . .
99(10) . . .
102(10) . . .
96(10) . . .
95(10) . . .
92(10) . . .
94(10) . . .
90(9) . . .
84(9) . . .
94(10) . . .
108(10) . . .
108(10) . . .
93(10) . . .
87(9) . . .
94(10) . . .
116(11) . . .
90(9) . . .
100(10) . . .
89(9) . . .
95(10) . . .
102(10) . . .
97(10) . . .
102(10) . . .
86(9) . . .
101(10) . . .
95(10) . . .
100(10) . . .
92(10) . . .
107(10) . . .
90(9) . . .
117(11) . . .
116(11) . . .
108(10) . . .
99(10) . . .
93(10) . . .
88(9) . . .
110(10) . . .
106(10) . . .
112(11) . . .
99(10) . . .
107(10) . . .
120(11) . . .
101(10) . . .
109(10) . . .
109(10) . . .
92(10) . . .
108(10) . . .
105(10) . . .
101(10) . . .
105(10) . . .
98(10) . . .
97(10) . . .
105(10) . . .
103(10) . . .
101(10) . . .
106(10) . . .
114(11) . . .
103(10) . . .
104(10) . . .
105(10) . . .
111(11) . . .
106(10) . . .
99(10) . . .
105(10) . . .
105(10) . . .
105(10) . . .
90(9) . . .
100(10) . . .
73(9) . . .
101(10) . . .
100(10) . . .
97(10) . . .
101(10) . . .
104(10) . . .
115(11) . . .
91(10) . . .
111(11) . . .
103(10) . . .
106(10) . . .
95(10) . . .
113(11) . . .
98(10) . . .
95(10) . . .
101(10) . . .
109(10) . . .
106(10) . . .
105(10) . . .
109(10) . . .
98(10) . . .
108(10) . . .
117(11) . . .
97(10) . . .
124(11) . . .
99(10) . . .
111(11) . . .
116(11) . . .
128(11) . . .
122(11) . . .
120(11) . . .
129(11) . . .
113(11) . . .
122(11) . . .
110(10) . . .
130(11) . . .
124(11) . . .
131(11) . . .
123(11) . . .
134(12) . . .
122(11) . . .
138(12) . . .
137(12) . . .
128(11) . . .
117(11) . . .
144(12) . . .
145(12) . . .
136(12) . . .
135(12) . . .
158(13) . . .
159(13) . . .
158(13) . . .
146(12) . . .
161(13) . . .
169(13) . . .
168(13) . . .
185(14) . . .
161(13) . . .
190(14) . . .
197(14) . . .
216(15) . . .
202(14) . . .
192(14) . . .
220(15) . . .
210(14) . . .
226(15) . . .
257(16) . . .
236(15) . . .
251(16) . . .
274(17) . . .
275(17) . . .
288(17) . . .
316(18) . . .
307(18) . . .
310(18) . . .
304(17) . . .
330(18) . . .
345(19) . . .
387(20) . . .
379(19) . . .
361(19) . . .
380(19) . . .
387(20) . . .
365(19) . . .
382(20) . . .
406(20) . . .
366(19) . . .
375(19) . . .
361(19) . . .
392(20) . . .
380(19) . . .
349(19) . . .
323(18) . . .
327(18) . . .
331(18) . . .
301(17) . . .
294(17) . . .
299(17) . . .
249(16) . . .
254(16) . . .
248(16) . . .
227(15) . . .
215(15) . . .
206(14) . . .
195(14) . . .
203(14) . . .
184(14) . . .
164(13) . . .
189(14) . . .
177(13) . . .
168(13) . . .
165(13) . . .
178(13) . . .
150(12) . . .
160(13) . . .
148(12) . . .
150(12) . . .
149(12) . . .
162(13) . . .
137(12) . . .
133(12) . . .
124(11) . . .
133(12) . . .
136(12) . . .
133(12) . . .
134(12) . . .
136(12) . . .
137(12) . . .
124(11) . . .
130(11) . . .
116(11) . . .
119(11) . . .
114(11) . . .
112(11) . . .
103(10) . . .
116(11) . . .
117(11) . . .
123(11) . . .
126(11) . . .
126(11) . . .
119(11) . . .
105(10) . . .
104(10) . . .
111(11) . . .
113(11) . . .
119(11) . . .
120(11) . . .
101(10) . . .
124(11) . . .
107(10) . . .
112(11) . . .
98(10) . . .
109(10) . . .
106(10) . . .
96(10) . . .
125(11) . . .
102(10) . . .
116(11) . . .
104(10) . . .
92(10) . . .
106(10) . . .
90(9) . . .
96(10) . . .
88(9) . . .
106(10) . . .
103(10) . . .
101(10) . . .
103(10) . . .
101(10) . . .
102(10) . . .
116(11) . . .
105(10) . . .
112(11) . . .
103(10) . . .
105(10) . . .
113(11) . . .
111(11) . . .
117(11) . . .
82(9) . . .
109(10) . . .
96(10) . . .
106(10) . . .
103(10) . . .
115(11) . . .
98(10) . . .
100(10) . . .
90(9) . . .
101(10) . . .
112(11) . . .
107(10) . . .
105(10) . . .
97(10) . . .
96(10) . . .
97(10) . . .
95(10) . . .
97(10) . . .
96(10) . . .
87(9) . . .
107(10) . . .
111(11) . . .
90(9) . . .
85(9) . . .
77(9) . . .
103(10) . . .
96(10) . . .
97(10) . . .
100(10) . . .
112(11) . . .
95(10) . . .
106(10) . . .
106(10) . . .
112(11) . . .
100(10) . . .
108(10) . . .
92(10) . . .
113(11) . . .
100(10) . . .
115(11) . . .
97(10) . . .
97(10) . . .
102(10) . . .
113(11) . . .
105(10) . . .
105(10) . . .
84(9) . . .
104(10) . . .
107(10) . . .
94(10) . . .
105(10) . . .
90(9) . . .
117(11) . . .
104(10) . . .
105(10) . . .
102(10) . . .
104(10) . . .
108(10) . . .
92(10) . . .
104(10) . . .
100(10) . . .
101(10) . . .
100(10) . . .
102(10) . . .
106(10) . . .
98(10) . . .
95(10) . . .
114(11) . . .
118(11) . . .
93(10) . . .
94(10) . . .
100(10) . . .
91(10) . . .
98(10) . . .
82(9) . . .
84(9) . . .
98(10) . . .
96(10) . . .
105(10) . . .
82(9) . . .
90(9) . . .
93(10) . . .
108(10) . . .
96(10) . . .
109(10) . . .
113(11) . . .
99(10) . . .
101(10) . . .
100(10) . . .
94(10) . . .
109(10) . . .
93(10) . . .
105(10) . . .
104(10) . . .
100(10) . . .
108(10) . . .
102(10) . . .
100(10) . . .
99(10) . . .
98(10) . . .
114(11) . . .
106(10) . . .
108(10) . . .
109(10) . . .
85(9) . . .
103(10) . . .
107(10) . . .
98(10) . . .
97(10) . . .
100(10) . . .
107(10) . . .
115(11) . . .
99(10) . . .
101(10) . . .
108(10) . . .
108(10) . . .
107(10) . . .
116(11) . . .
115(11) . . .
106(10) . . .
102(10) . . .
112(11) . . .
93(10) . . .
93(10) . . .
100(10) . . .
97(10) . . .
103(10) . . .
103(10) . . .
102(10) . . .
96(10) . . .
102(10) . . .
106(10) . . .
101(10) . . .
102(10) . . .
106(10) . . .
104(10) . . .
90(9) . . .
104(10) . . .
94(10) . . .
101(10) . . .
101(10) . . .
96(10) . . .
102(10) . . .
106(10) . . .
100(10) . . .
118(11) . . .
114(11) . . .
105(10) . . .
110(10) . . .
112(11) . . .
104(10) . . .
102(10) . . .
98(10) . . .
120(11) . . .
108(10) . . .
102(10) . . .
106(10) . . .
126(11) . . .
118(11) . . .
123(11) . . .
129(11) . . .
106(10) . . .
101(10) . . .
122(11) . . .
133(12) . . .
120(11) . . .
113(11) . . .
100(10) . . .
120(11) . . .
123(11) . . .
109(10) . . .
129(11) . . .
109(10) . . .
139(12) . . .
121(11) . . .
128(11) . . .
148(12) . . .
127(11) . . .
140(12) . . .
140(12) . . .
129(11) . . .
134(12) . . .
122(11) . . .
147(12) . . .
127(11) . . .
142(12) . . .
147(12) . . .
150(12) . . .
157(13) . . .
164(13) . . .
156(12) . . .
164(13) . . .
162(13) . . .
156(12) . . .
143(12) . . .
165(13) . . .
161(13) . . .
181(13) . . .
184(14) . . .
183(14) . . .
200(14) . . .
187(14) . . .
217(15) . . .
225(15) . . .
221(15) . . .
206(14) . . .
230(15) . . .
201(14) . . .
254(16) . . .
265(16) . . .
272(16) . . .
280(17) . . .
305(17) . . .
333(18) . . .
337(18) . . .
348(19) . . .
386(20) . . .
369(19) . . .
406(20) . . .
421(21) . . .
439(21) . . .
470(22) . . .
477(22) . . .
489(22) . . .
486(22) . . .
544(23) . . .
569(24) . . .
612(25) . . .
637(25) . . .
658(26) . . .
616(25) . . .
676(26) . . .
698(26) . . .
687(26) . . .
712(27) . . .
692(26) . . .
663(26) . . .
736(27) . . .
696(26) . . .
692(26) . . .
652(26) . . .
631(25) . . .
610(25) . . .
605(25) . . .
573(24) . . .
550(23) . . .
554(24) . . .
494(22) . . .
493(22) . . .
480(22) . . .
445(21) . . .
432(21) . . .
438(21) . . .
378(19) . . .
367(19) . . .
360(19) . . .
353(19) . . .
318(18) . . .
324(18) . . .
301(17) . . .
285(17) . . .
246(16) . . .
269(16) . . .
241(16) . . .
232(15) . . .
260(16) . . .
233(15) . . .
205(14) . . .
193(14) . . .
209(14) . . .
186(14) . . .
198(14) . . .
197(14) . . .
169(13) . . .
177(13) . . .
156(12) . . .
156(12) . . .
162(13) . . .
162(13) . . .
181(13) . . .
152(12) . . .
166(13) . . .
137(12) . . .
151(12) . . .
137(12) . . .
147(12) . . .
132(11) . . .
118(11) . . .
138(12) . . .
142(12) . . .
132(11) . . .
127(11) . . .
128(11) . . .
130(11) . . .
128(11) . . .
117(11) . . .
138(12) . . .
121(11) . . .
136(12) . . .
129(11) . . .
108(10) . . .
109(10) . . .
111(11) . . .
112(11) . . .
113(11) . . .
117(11) . . .
120(11) . . .
123(11) . . .
111(11) . . .
126(11) . . .
109(10) . . .
121(11) . . .
93(10) . . .
108(10) . . .
110(10) . . .
112(11) . . .
95(10) . . .
106(10) . . .
114(11) . . .
112(11) . . .
113(11) . . .
110(10) . . .
105(10) . . .
107(10) . . .
103(10) . . .
110(10) . . .
102(10) . . .
103(10) . . .
98(10) . . .
112(11) . . .
109(10) . . .
97(10) . . .
96(10) . . .
104(10) . . .
96(10) . . .
92(10) . . .
100(10) . . .
104(10) . . .
101(10) . . .
102(10) . . .
106(10) . . .
110(10) . . .
94(10) . . .
102(10) . . .
100(10) . . .
100(10) . . .
104(10) . . .
118(11) . . .
108(10) . . .
101(10) . . .
111(11) . . .
115(11) . . .
105(10) . . .
116(11) . . .
105(10) . . .
100(10) . . .
97(10) . . .
93(10) . . .
103(10) . . .
97(10) . . .
119(11) . . .
92(10) . . .
118(11) . . .
96(10) . . .
107(10) . . .
89(9) . . .
104(10) . . .
89(9) . . .
92(10) . . .
100(10) . . .
92(10) . . .
100(10) . . .
107(10) . . .
111(11) . . .
88(9) . . .
93(10) . . .
106(10) . . .
98(10) . . .
116(11) . . .
86(9) . . .
107(10) . . .
93(10) . . .
97(10) . . .
96(10) . . .
100(10) . . .
91(10) . . .
101(10) . . .
106(10) . . .
97(10) . . .
98(10) . . .
91(10) . . .
90(9) . . .
99(10) . . .
92(10) . . .
96(10) . . .
82(9) . . .
101(10) . . .
101(10) . . .
90(9) . . .
94(10) . . .
101(10) . . .
102(10) . . .
109(10) . . .
94(10) . . .
90(9) . . .
96(10) . . .
113(11) . . .
102(10) . . .
99(10) . . .
91(10) . . .
96(10) . . .
88(9) . . .
109(10) . . .
89(9) . . .
115(11) . . .
93(10) . . .
93(10) . . .
111(11) . . .
99(10) . . .
104(10) . . .
95(10) . . .
95(10) . . .
110(10) . . .
103(10) . . .
99(10) . . .
88(9) . . .
93(10) . . .
103(10) . . .
101(10) . . .
104(10) . . .
87(9) . . .
101(10) . . .
94(10) . . .
110(10) . . .
96(10) . . .
101(10) . . .
100(10) . . .
107(10) . . .
84(9) . . .
103(10) . . .
90(9) . . .
107(10) . . .
112(11) . . .
88(9) . . .
89(9) . . .
98(10) . . .
90(9) . . .
93(10) . . .
87(9) . . .
87(9) . . .
100(10) . . .
100(10) . . .
105(10) . . .
94(10) . . .
92(10) . . .
107(10) . . .
100(10) . . .
86(9) . . .
99(10) . . .
89(9) . . .
98(10) . . .
86(9) . . .
82(9) . . .
91(10) . . .
93(10) . . .
101(10) . . .
99(10) . . .
85(9) . . .
97(10) . . .
105(10) . . .
107(10) . . .
85(9) . . .
92(10) . . .
83(9) . . .
92(10) . . .
91(10) . . .
105(10) . . .
82(9) . . .
76(9) . . .
97(10) . . .
83(9) . . .
89(9) . . .
101(10) . . .
112(11) . . .
97(10) . . .
101(10) . . .
95(10) . . .
92(10) . . .
94(10) . . .
102(10) . . .
89(9) . . .
103(10) . . .
91(10) . . .
92(10) . . .
101(10) . . .
80(9) . . .
85(9) . . .
104(10) . . .
89(9) . . .
94(10) . . .
100(10) . . .
84(9) . . .
100(10) . . .
89(9) . . .
99(10) . . .
77(9) . . .
86(9) . . .
107(10) . . .
102(10) . . .
109(10) . . .
84(9) . . .
105(10) . . .
97(10) . . .
88(9) . . .
92(10) . . .
112(11) . . .
97(10) . . .
97(10) . . .
105(10) . . .
88(9) . . .
98(10) . . .
89(9) . . .
84(9) . . .
95(10) . . .
105(10) . . .
84(9) . . .
92(10) . . .
86(9) . . .
90(9) . . .
97(10) . . .
104(10) . . .
100(10) . . .
111(11) . . .
96(10) . . .
85(9) . . .
108(10) . . .
88(9) . . .
95(10) . . .
79(9) . . .
102(10) . . .
99(10) . . .
85(9) . . .
111(11) . . .
99(10) . . .
90(9) . . .
95(10) . . .
96(10) . . .
97(10) . . .
93(10) . . .
91(10) . . .
95(10) . . .
91(10) . . .
95(10) . . .
101(10) . . .
102(10) . . .
102(10) . . .
99(10) . . .
98(10) . . .
95(10) . . .
92(10) . . .
91(10) . . .
79(9) . . .
89(9) . . .
89(9) . . .
92(10) . . .
94(10) . . .
101(10) . . .
105(10) . . .
94(10) . . .
79(9) . . .
109(10) . . .
91(10) . . .
93(10) . . .
83(9) . . .
74(9) . . .
84(9) . . .
86(9) . . .
87(9) . . .
89(9) . . .
80(9) . . .
103(10) . . .
96(10) . . .
89(9) . . .
98(10) . . .
102(10) . . .
99(10) . . .
106(10) . . .
81(9) . . .
84(9) . . .
88(9) . . .
92(10) . . .
82(9) . . .
74(9) . . .
108(10) . . .
102(10) . . .
93(10) . . .
108(10) . . .
98(10) . . .
89(9) . . .
94(10) . . .
109(10) . . .
99(10) . . .
98(10) . . .
82(9) . . .
81(9) . . .
99(10) . . .
94(10) . . .
85(9) . . .
102(10) . . .
102(10) . . .
85(9) . . .
101(10) . . .
96(10) . . .
99(10) . . .
82(9) . . .
106(10) . . .
96(10) . . .
93(10) . . .
93(10) . . .
93(10) . . .
104(10) . . .
98(10) . . .
98(10) . . .
90(9) . . .
80(9) . . .
83(9) . . .
83(9) . . .
91(10) . . .
91(10) . . .
104(10) . . .
83(9) . . .
83(9) . . .
116(11) . . .
90(9) . . .
95(10) . . .
99(10) . . .
93(10) . . .
97(10) . . .
102(10) . . .
92(10) . . .
82(9) . . .
108(10) . . .
103(10) . . .
85(9) . . .
92(10) . . .
86(9) . . .
100(10) . . .
89(9) . . .
86(9) . . .
92(10) . . .
98(10) . . .
98(10) . . .
91(10) . . .
83(9) . . .
95(10) . . .
108(10) . . .
95(10) . . .
79(9) . . .
95(10) . . .
93(10) . . .
76(9) . . .
90(9) . . .
78(9) . . .
100(10) . . .
111(11) . . .
93(10) . . .
87(9) . . .
101(10) . . .
98(10) . . .
106(10) . . .
88(9) . . .
112(11) . . .
84(9) . . .
89(9) . . .
81(9) . . .
92(10) . . .
85(9) . . .
82(9) . . .
97(10) . . .
101(10) . . .
78(9) . . .
97(10) . . .
89(9) . . .
89(9) . . .
91(10) . . .
97(10) . . .
98(10) . . .
101(10) . . .
101(10) . . .
89(9) . . .
96(10) . . .
110(10) . . .
90(9) . . .
91(10) . . .
93(10) . . .
94(10) . . .
102(10) . . .
86(9) . . .
98(10) . . .
94(10) . . .
90(9) . . .
107(10) . . .
87(9) . . .
103(10) . . .
85(9) . . .
87(9) . . .
90(9) . . .
82(9) . . .
88(9) . . .
87(9) . . .
98(10) . . .
90(9) . . .
89(9) . . .
100(10) . . .
92(10) . . .
81(9) . . .
92(10) . . .
90(9) . . .
102(10) . . .
93(10) . . .
83(9) . . .
79(9) . . .
91(10) . . .
88(9) . . .
94(10) . . .
97(10) . . .
78(9) . . .
82(9) . . .
95(10) . . .
91(10) . . .
91(10) . . .
85(9) . . .
79(9) . . .
102(10) . . .
92(10) . . .
101(10) . . .
85(9) . . .
77(9) . . .
83(9) . . .
97(10) . . .
90(9) . . .
83(9) . . .
91(10) . . .
96(10) . . .
86(9) . . .
89(9) . . .
98(10) . . .
87(9) . . .
97(10) . . .
99(10) . . .
94(10) . . .
91(10) . . .
92(10) . . .
85(9) . . .
88(9) . . .
69(8) . . .
93(10) . . .
97(10) . . .
87(9) . . .
88(9) . . .
84(9) . . .
80(9) . . .
87(9) . . .
96(10) . . .
88(9) . . .
79(9) . . .
89(9) . . .
96(10) . . .
100(10) . . .
95(10) . . .
95(10) . . .
94(10) . . .
89(9) . . .
91(10) . . .
95(10) . . .
99(10) . . .
89(9) . . .
82(9) . . .
92(10) . . .
101(10) . . .
83(9) . . .
95(10) . . .
81(9) . . .
84(9) . . .
97(10) . . .
75(9) . . .
79(9) . . .
115(11) . . .
101(10) . . .
95(10) . . .
93(10) . . .
99(10) . . .
102(10) . . .
88(9) . . .
70(8) . . .
87(9) . . .
88(9) . . .
95(10) . . .
93(10) . . .
83(9) . . .
96(10) . . .
83(9) . . .
95(10) . . .
89(9) . . .
97(10) . . .
88(9) . . .
85(9) . . .
98(10) . . .
80(9) . . .
100(10) . . .
98(10) . . .
88(9) . . .
94(10) . . .
93(10) . . .
92(10) . . .
94(10) . . .
80(9) . . .
86(9) . . .
86(9) . . .
100(10) . . .
102(10) . . .
90(9) . . .
93(10) . . .
87(9) . . .
102(10) . . .
94(10) . . .
92(10) . . .
90(9) . . .
98(10) . . .
83(9) . . .
93(10) . . .
96(10) . . .
85(9) . . .
97(10) . . .
91(10) . . .
96(10) . . .
76(9) . . .
78(9) . . .
100(10) . . .
108(10) . . .
102(10) . . .
75(9) . . .
93(10) . . .
89(9) . . .
100(10) . . .
84(9) . . .
94(10) . . .
86(9) . . .
98(10) . . .
91(10) . . .
74(9) . . .
99(10) . . .
101(10) . . .
92(10) . . .
88(9) . . .
101(10) . . .
87(9) . . .
90(9) . . .
103(10) . . .
90(9) . . .
85(9) . . .
96(10) . . .
104(10) . . .
99(10) . . .
89(9) . . .
102(10) . . .
95(10) . . .
90(9) . . .
108(10) . . .
74(9) . . .
101(10) . . .
89(9) . . .
87(9) . . .
84(9) . . .
70(8) . . .
91(10) . . .
95(10) . . .
93(10) . . .
83(9) . . .
96(10) . . .
88(9) . . .
76(9) . . .
84(9) . . .
87(9) . . .
90(9) . . .
97(10) . . .
114(11) . . .
91(10) . . .
94(10) . . .
87(9) . . .
101(10) . . .
83(9) . . .
77(9) . . .
101(10) . . .
77(9) . . .
88(9) . . .
101(10) . . .
99(10) . . .
97(10) . . .
89(9) . . .
90(9) . . .
98(10) . . .
94(10) . . .
90(9) . . .
95(10) . . .
95(10) . . .
90(9) . . .
83(9) . . .
102(10) . . .
97(10) . . .
91(10) . . .
102(10) . . .
86(9) . . .
88(9) . . .
89(9) . . .
104(10) . . .
99(10) . . .
98(10) . . .
98(10) . . .
113(11) . . .
77(9) . . .
98(10) . . .
86(9) . . .
100(10) . . .
91(10) . . .
98(10) . . .
123(11) . . .
81(9) . . .
93(10) . . .
93(10) . . .
80(9) . . .
97(10) . . .
84(9) . . .
93(10) . . .
83(9) . . .
90(9) . . .
89(9) . . .
86(9) . . .
94(10) . . .
84(9) . . .
97(10) . . .
97(10) . . .
85(9) . . .
90(9) . . .
85(9) . . .
80(9) . . .
91(10) . . .
88(9) . . .
104(10) . . .
106(10) . . .
102(10) . . .
95(10) . . .
95(10) . . .
92(10) . . .
96(10) . . .
94(10) . . .
98(10) . . .
90(9) . . .
89(9) . . .
92(10) . . .
97(10) . . .
86(9) . . .
89(9) . . .
98(10) . . .
95(10) . . .
93(10) . . .
106(10) . . .
101(10) . . .
71(8) . . .
96(10) . . .
87(9) . . .
92(10) . . .
73(9) . . .
96(10) . . .
103(10) . . .
96(10) . . .
97(10) . . .
105(10) . . .
96(10) . . .
101(10) . . .
82(9) . . .
104(10) . . .
92(10) . . .
82(9) . . .
84(9) . . .
90(9) . . .
90(9) . . .
88(9) . . .
82(9) . . .
86(9) . . .
77(9) . . .
103(10) . . .
87(9) . . .
103(10) . . .
96(10) . . .
89(9) . . .
95(10) . . .
84(9) . . .
100(10) . . .
91(10) . . .
89(9) . . .
92(10) . . .
100(10) . . .
90(9) . . .
106(10) . . .
116(11) . . .
106(10) . . .
95(10) . . .
92(10) . . .
96(10) . . .
89(9) . . .
89(9) . . .
101(10) . . .
112(11) . . .
104(10) . . .
94(10) . . .
86(9) . . .
95(10) . . .
92(10) . . .
81(9) . . .
86(9) . . .
109(10) . . .
87(9) . . .
106(10) . . .
100(10) . . .
89(9) . . .
99(10) . . .
91(10) . . .
93(10) . . .
110(10) . . .
104(10) . . .
106(10) . . .
88(9) . . .
91(10) . . .
82(9) . . .
96(10) . . .
96(10) . . .
89(9) . . .
106(10) . . .
88(9) . . .
90(9) . . .
98(10) . . .
91(10) . . .
92(10) . . .
94(10) . . .
94(10) . . .
92(10) . . .
78(9) . . .
85(9) . . .
86(9) . . .
74(9) . . .
94(10) . . .
95(10) . . .
84(9) . . .
83(9) . . .
88(9) . . .
91(10) . . .
80(9) . . .
80(9) . . .
89(9) . . .
98(10) . . .
83(9) . . .
88(9) . . .
99(10) . . .
95(10) . . .
89(9) . . .
72(8) . . .
82(9) . . .
82(9) . . .
94(10) . . .
97(10) . . .
102(10) . . .
84(9) . . .
94(10) . . .
104(10) . . .
100(10) . . .
100(10) . . .
116(11) . . .
87(9) . . .
89(9) . . .
84(9) . . .
92(10) . . .
112(11) . . .
94(10) . . .
97(10) . . .
85(9) . . .
91(10) . . .
89(9) . . .
98(10) . . .
91(10) . . .
105(10) . . .
101(10) . . .
95(10) . . .
102(10) . . .
97(10) . . .
85(9) . . .
89(9) . . .
80(9) . . .
85(9) . . .
89(9) . . .
100(10) . . .
98(10) . . .
89(9) . . .
80(9) . . .
94(10) . . .
103(10) . . .
88(9) . . .
85(9) . . .
95(10) . . .
81(9) . . .
87(9) . . .
99(10) . . .
101(10) . . .
90(9) . . .
89(9) . . .
98(10) . . .
94(10) . . .
109(10) . . .
89(9) . . .
90(9) . . .
86(9) . . .
97(10) . . .
104(10) . . .
91(10) . . .
103(10) . . .
93(10) . . .
100(10) . . .
73(9) . . .
82(9) . . .
97(10) . . .
91(10) . . .
103(10) . . .
97(10) . . .
88(9) . . .
93(10) . . .
79(9) . . .
80(9) . . .
95(10) . . .
112(11) . . .
98(10) . . .
101(10) . . .
98(10) . . .
86(9) . . .
96(10) . . .
93(10) . . .
89(9) . . .
98(10) . . .
93(10) . . .
99(10) . . .
107(10) . . .
95(10) . . .
104(10) . . .
105(10) . . .
105(10) . . .
103(10) . . .
85(9) . . .
106(10) . . .
96(10) . . .
82(9) . . .
88(9) . . .
83(9) . . .
74(9) . . .
94(10) . . .
90(9) . . .
94(10) . . .
87(9) . . .
98(10) . . .
92(10) . . .
108(10) . . .
78(9) . . .
105(10) . . .
86(9) . . .
99(10) . . .
82(9) . . .
108(10) . . .
96(10) . . .
94(10) . . .
88(9) . . .
91(10) . . .
92(10) . . .
82(9) . . .
104(10) . . .
110(10) . . .
98(10) . . .
102(10) . . .
99(10) . . .
109(10) . . .
82(9) . . .
83(9) . . .
103(10) . . .
89(9) . . .
94(10) . . .
108(10) . . .
83(9) . . .
95(10) . . .
98(10) . . .
89(9) . . .
84(9) . . .
93(10) . . .
98(10) . . .
99(10) . . .
78(9) . . .
87(9) . . .
91(10) . . .
80(9) . . .
98(10) . . .
83(9) . . .
105(10) . . .
101(10) . . .
100(10) . . .
76(9) . . .
87(9) . . .
99(10) . . .
103(10) . . .
95(10) . . .
98(10) . . .
83(9) . . .
96(10) . . .
95(10) . . .
89(9) . . .
92(10) . . .
100(10) . . .
82(9) . . .
104(10) . . .
104(10) . . .
97(10) . . .
112(11) . . .
82(9) . . .
99(10) . . .
100(10) . . .
83(9) . . .
86(9) . . .
98(10) . . .
98(10) . . .
80(9) . . .
95(10) . . .
83(9) . . .
93(10) . . .
88(9) . . .
95(10) . . .
95(10) . . .
98(10) . . .
97(10) . . .
83(9) . . .
92(10) . . .
91(10) . . .
91(10) . . .
88(9) . . .
109(10) . . .
90(9) . . .
84(9) . . .
99(10) . . .
91(10) . . .
94(10) . . .
113(11) . . .
114(11) . . .
84(9) . . .
104(10) . . .
94(10) . . .
100(10) . . .
93(10) . . .
87(9) . . .
99(10) . . .
99(10) . . .
94(10) . . .
97(10) . . .
96(10) . . .
83(9) . . .
107(10) . . .
98(10) . . .
88(9) . . .
90(9) . . .
88(9) . . .
102(10) . . .
93(10) . . .
93(10) . . .
95(10) . . .
101(10) . . .
96(10) . . .
86(9) . . .
93(10) . . .
94(10) . . .
92(10) . . .
92(10) . . .
89(9) . . .
98(10) . . .
95(10) . . .
104(10) . . .
89(9) . . .
105(10) . . .
107(10) . . .
94(10) . . .
84(9) . . .
96(10) . . .
96(10) . . .
87(9) . . .
97(10) . . .
89(9) . . .
108(10) . . .
112(11) . . .
110(10) . . .
77(9) . . .
99(10) . . .
111(11) . . .
81(9) . . .
96(10) . . .
98(10) . . .
92(10) . . .
77(9) . . .
107(10) . . .
95(10) . . .
89(9) . . .
95(10) . . .
101(10) . . .
102(10) . . .
97(10) . . .
82(9) . . .
87(9) . . .
94(10) . . .
100(10) . . .
85(9) . . .
101(10) . . .
109(10) . . .
88(9) . . .
102(10) . . .
95(10) . . .
103(10) . . .
126(11) . . .
97(10) . . .
103(10) . . .
99(10) . . .
82(9) . . .
108(10) . . .
104(10) . . .
103(10) . . .
98(10) . . .
109(10) . . .
106(10) . . .
96(10) . . .
93(10) . . .
97(10) . . .
92(10) . . .
88(9) . . .
100(10) . . .
86(9) . . .
87(9) . . .
114(11) . . .
104(10) . . .
98(10) . . .
115(11) . . .
89(9) . . .
86(9) . . .
100(10) . . .
105(10) . . .
92(10) . . .
103(10) . . .
84(9) . . .
89(9) . . .
107(10) . . .
93(10) . . .
84(9) . . .
88(9) . . .
84(9) . . .
92(10) . . .
81(9) . . .
99(10) . . .
90(9) . . .
110(10) . . .
102(10) . . .
123(11) . . .
104(10) . . .
93(10) . . .
105(10) . . .
90(9) . . .
100(10) . . .
103(10) . . .
97(10) . . .
73(9) . . .
91(10) . . .
87(9) . . .
98(10) . . .
115(11) . . .
102(10) . . .
87(9) . . .
93(10) . . .
89(9) . . .
99(10) . . .
105(10) . . .
102(10) . . .
91(10) . . .
101(10) . . .
100(10) . . .
90(9) . . .
102(10) . . .
102(10) . . .
107(10) . . .
88(9) . . .
98(10) . . .
97(10) . . .
90(9) . . .
102(10) . . .
89(9) . . .
90(9) . . .
97(10) . . .
99(10) . . .
103(10) . . .
110(10) . . .
105(10) . . .
97(10) . . .
103(10) . . .
109(10) . . .
118(11) . . .
88(9) . . .
114(11) . . .
98(10) . . .
105(10) . . .
92(10) . . .
103(10) . . .
96(10) . . .
91(10) . . .
110(10) . . .
109(10) . . .
113(11) . . .
94(10) . . .
95(10) . . .
98(10) . . .
111(11) . . .
90(9) . . .
104(10) . . .
88(9) . . .
94(10) . . .
98(10) . . .
109(10) . . .
102(10) . . .
106(10) . . .
107(10) . . .
108(10) . . .
110(10) . . .
96(10) . . .
104(10) . . .
94(10) . . .
102(10) . . .
116(11) . . .
102(10) . . .
105(10) . . .
103(10) . . .
100(10) . . .
115(11) . . .
101(10) . . .
104(10) . . .
107(10) . . .
94(10) . . .
94(10) . . .
90(9) . . .
106(10) . . .
103(10) . . .
102(10) . . .
85(9) . . .
92(10) . . .
107(10) . . .
94(10) . . .
96(10) . . .
110(10) . . .
99(10) . . .
106(10) . . .
91(10) . . .
108(10) . . .
97(10) . . .
113(11) . . .
91(10) . . .
118(11) . . .
79(9) . . .
111(11) . . .
103(10) . . .
101(10) . . .
110(10) . . .
109(10) . . .
106(10) . . .
100(10) . . .
91(10) . . .
99(10) . . .
112(11) . . .
108(10) . . .
114(11) . . .
91(10) . . .
117(11) . . .
111(11) . . .
93(10) . . .
118(11) . . .
109(10) . . .
95(10) . . .
112(11) . . .
108(10) . . .
104(10) . . .
98(10) . . .
113(11) . . .
108(10) . . .
102(10) . . .
126(11) . . .
111(11) . . .
104(10) . . .
99(10) . . .
101(10) . . .
111(11) . . .
101(10) . . .
116(11) . . .
111(11) . . .
107(10) . . .
112(11) . . .
121(11) . . .
118(11) . . .
123(11) . . .
125(11) . . .
101(10) . . .
115(11) . . .
125(11) . . .
104(10) . . .
108(10) . . .
119(11) . . .
121(11) . . .
117(11) . . .
127(11) . . .
146(12) . . .
116(11) . . .
120(11) . . .
125(11) . . .
130(11) . . .
153(12) . . .
128(11) . . .
130(11) . . .
120(11) . . .
127(11) . . .
132(11) . . .
139(12) . . .
130(11) . . .
148(12) . . .
136(12) . . .
157(13) . . .
143(12) . . .
139(12) . . .
144(12) . . .
147(12) . . .
162(13) . . .
141(12) . . .
134(12) . . .
147(12) . . .
148(12) . . .
165(13) . . .
162(13) . . .
164(13) . . .
172(13) . . .
184(14) . . .
173(13) . . .
169(13) . . .
185(14) . . .
185(14) . . .
191(14) . . .
192(14) . . .
179(13) . . .
212(15) . . .
206(14) . . .
224(15) . . .
245(16) . . .
221(15) . . .
258(16) . . .
271(16) . . .
244(16) . . .
271(16) . . .
296(17) . . .
277(17) . . .
272(16) . . .
294(17) . . .
321(18) . . .
337(18) . . .
369(19) . . .
367(19) . . .
419(20) . . .
420(20) . . .
450(21) . . .
426(21) . . .
462(21) . . .
479(22) . . .
493(22) . . .
521(23) . . .
523(23) . . .
570(24) . . .
553(24) . . .
581(24) . . .
604(25) . . .
660(26) . . .
642(25) . . .
705(27) . . .
650(25) . . .
689(26) . . .
654(26) . . .
712(27) . . .
714(27) . . .
676(26) . . .
638(25) . . .
684(26) . . .
669(26) . . .
630(25) . . .
628(25) . . .
601(25) . . .
560(24) . . .
584(24) . . .
571(24) . . .
510(23) . . .
500(22) . . .
491(22) . . .
419(20) . . .
470(22) . . .
460(21) . . .
381(20) . . .
401(20) . . .
399(20) . . .
351(19) . . .
346(19) . . .
302(17) . . .
339(18) . . .
322(18) . . .
271(16) . . .
294(17) . . .
264(16) . . .
270(16) . . .
251(16) . . .
254(16) . . .
248(16) . . .
214(15) . . .
242(16) . . .
221(15) . . .
187(14) . . .
211(15) . . .
171(13) . . .
198(14) . . .
158(13) . . .
181(13) . . .
180(13) . . .
174(13) . . .
201(14) . . .
161(13) . . .
181(13) . . .
144(12) . . .
170(13) . . .
152(12) . . .
160(13) . . .
135(12) . . .
155(12) . . .
155(12) . . .
147(12) . . .
145(12) . . .
148(12) . . .
144(12) . . .
139(12) . . .
135(12) . . .
137(12) . . .
145(12) . . .
128(11) . . .
145(12) . . .
130(11) . . .
124(11) . . .
132(11) . . .
113(11) . . .
124(11) . . .
116(11) . . .
124(11) . . .
129(11) . . .
128(11) . . .
122(11) . . .
145(12) . . .
109(10) . . .
114(11) . . .
133(12) . . .
119(11) . . .
123(11) . . .
127(11) . . .
127(11) . . .
111(11) . . .
103(10) . . .
132(11) . . .
114(11) . . .
105(10) . . .
125(11) . . .
109(10) . . .
113(11) . . .
102(10) . . .
120(11) . . .
102(10) . . .
112(11) . . .
113(11) . . .
122(11) . . .
98(10) . . .
104(10) . . .
111(11) . . .
108(10) . . .
120(11) . . .
118(11) . . .
112(11) . . .
110(10) . . .
104(10) . . .
113(11) . . .
119(11) . . .
115(11) . . .
103(10) . . .
97(10) . . .
112(11) . . .
117(11) . . .
110(10) . . .
114(11) . . .
103(10) . . .
109(10) . . .
107(10) . . .
96(10) . . .
101(10) . . .
101(10) . . .
93(10) . . .
107(10) . . .
121(11) . . .
113(11) . . .
102(10) . . .
103(10) . . .
102(10) . . .
113(11) . . .
112(11) . . .
100(10) . . .
108(10) . . .
117(11) . . .
103(10) . . .
113(11) . . .
100(10) . . .
101(10) . . .
91(10) . . .
101(10) . . .
93(10) . . .
98(10) . . .
109(10) . . .
114(11) . . .
99(10) . . .
109(10) . . .
110(10) . . .
103(10) . . .
122(11) . . .
111(11) . . .
105(10) . . .
112(11) . . .
99(10) . . .
90(9) . . .
92(10) . . .
95(10) . . .
103(10) . . .
112(11) . . .
95(10) . . .
105(10) . . .
103(10) . . .
95(10) . . .
110(10) . . .
98(10) . . .
119(11) . . .
107(10) . . .
117(11) . . .
106(10) . . .
108(10) . . .
105(10) . . .
106(10) . . .
105(10) . . .
114(11) . . .
132(11) . . .
116(11) . . .
95(10) . . .
119(11) . . .
108(10) . . .
108(10) . . .
104(10) . . .
118(11) . . .
120(11) . . .
104(10) . . .
114(11) . . .
98(10) . . .
111(11) . . .
91(10) . . .
107(10) . . .
103(10) . . .
104(10) . . .
94(10) . . .
105(10) . . .
101(10) . . .
107(10) . . .
105(10) . . .
88(9) . . .
106(10) . . .
93(10) . . .
106(10) . . .
101(10) . . .
100(10) . . .
93(10) . . .
111(11) . . .
99(10) . . .
95(10) . . .
95(10) . . .
90(9) . . .
107(10) . . .
104(10) . . .
105(10) . . .
107(10) . . .
109(10) . . .
95(10) . . .
91(10) . . .
101(10) . . .
94(10) . . .
82(9) . . .
88(9) . . .
103(10) . . .
95(10) . . .
93(10) . . .
103(10) . . .
99(10) . . .
103(10) . . .
119(11) . . .
93(10) . . .
92(10) . . .
95(10) . . .
95(10) . . .
98(10) . . .
89(9) . . .
90(9) . . .
101(10) . . .
104(10) . . .
112(11) . . .
113(11) . . .
106(10) . . .
103(10) . . .
107(10) . . .
88(9) . . .
101(10) . . .
98(10) . . .
98(10) . . .
98(10) . . .
111(11) . . .
104(10) . . .
95(10) . . .
109(10) . . .
106(10) . . .
100(10) . . .
105(10) . . .
106(10) . . .
93(10) . . .
102(10) . . .
117(11) . . .
101(10) . . .
114(11) . . .
96(10) . . .
90(9) . . .
98(10) . . .
86(9) . . .
107(10) . . .
96(10) . . .
92(10) . . .
100(10) . . .
95(10) . . .
99(10) . . .
105(10) . . .
106(10) . . .
92(10) . . .
104(10) . . .
89(9) . . .
115(11) . . .
106(10) . . .
113(11) . . .
108(10) . . .
95(10) . . .
104(10) . . .
104(10) . . .
112(11) . . .
111(11) . . .
94(10) . . .
92(10) . . .
98(10) . . .
109(10) . . .
96(10) . . .
89(9) . . .
105(10) . . .
92(10) . . .
109(10) . . .
90(9) . . .
120(11) . . .
123(11) . . .
98(10) . . .
100(10) . . .
88(9) . . .
100(10) . . .
105(10) . . .
114(11) . . .
94(10) . . .
91(10) . . .
105(10) . . .
104(10) . . .
92(10) . . .
117(11) . . .
109(10) . . .
103(10) . . .
115(11) . . .
105(10) . . .
115(11) . . .
102(10) . . .
94(10) . . .
81(9) . . .
107(10) . . .
107(10) . . .
87(9) . . .
100(10) . . .
104(10) . . .
109(10) . . .
98(10) . . .
106(10) . . .
98(10) . . .
102(10) . . .
100(10) . . .
101(10) . . .
111(11) . . .
102(10) . . .
108(10) . . .
92(10) . . .
90(9) . . .
113(11) . . .
96(10) . . .
95(10) . . .
107(10) . . .
83(9) . . .
100(10) . . .
116(11) . . .
98(10) . . .
104(10) . . .
97(10) . . .
78(9) . . .
101(10) . . .
97(10) . . .
113(11) . . .
91(10) . . .
116(11) . . .
99(10) . . .
97(10) . . .
92(10) . . .
101(10) . . .
93(10) . . .
97(10) . . .
90(9) . . .
114(11) . . .
106(10) . . .
114(11) . . .
87(9) . . .
85(9) . . .
108(10) . . .
81(9) . . .
94(10) . . .
106(10) . . .
97(10) . . .
85(9) . . .
116(11) . . .
86(9) . . .
94(10) . . .
110(10) . . .
103(10) . . .
121(11) . . .
88(9) . . .
99(10) . . .
120(11) . . .
96(10) . . .
80(9) . . .
95(10) . . .
115(11) . . .
101(10) . . .
107(10) . . .
90(9) . . .
84(9) . . .
96(10) . . .
97(10) . . .
84(9) . . .
88(9) . . .
100(10) . . .
102(10) . . .
99(10) . . .
105(10) . . .
90(9) . . .
103(10) . . .
102(10) . . .
101(10) . . .
89(9) . . .
106(10) . . .
121(11) . . .
111(11) . . .
119(11) . . .
87(9) . . .
118(11) . . .
107(10) . . .
94(10) . . .
102(10) . . .
93(10) . . .
105(10) . . .
97(10) . . .
94(10) . . .
93(10) . . .
76(9) . . .
99(10) . . .
97(10) . . .
98(10) . . .
113(11) . . .
82(9) . . .
101(10) . . .
103(10) . . .
110(10) . . .
88(9) . . .
106(10) . . .
95(10) . . .
99(10) . . .
91(10) . . .
102(10) . . .
108(10) . . .
96(10) . . .
98(10) . . .
112(11) . . .
118(11) . . .
101(10) . . .
123(11) . . .
105(10) . . .
98(10) . . .
100(10) . . .
110(10) . . .
100(10) . . .
86(9) . . .
115(11) . . .
90(9) . . .
103(10) . . .
95(10) . . .
94(10) . . .
98(10) . . .
99(10) . . .
103(10) . . .
110(10) . . .
99(10) . . .
103(10) . . .
104(10) . . .
93(10) . . .
109(10) . . .
90(9) . . .
108(10) . . .
102(10) . . .
93(10) . . .
90(9) . . .
92(10) . . .
99(10) . . .
89(9) . . .
88(9) . . .
109(10) . . .
87(9) . . .
102(10) . . .
105(10) . . .
102(10) . . .
114(11) . . .
95(10) . . .
111(11) . . .
101(10) . . .
114(11) . . .
84(9) . . .
90(9) . . .
89(9) . . .
87(9) . . .
108(10) . . .
90(9) . . .
104(10) . . .
106(10) . . .
101(10) . . .
85(9) . . .
105(10) . . .
73(9) . . .
106(10) . . .
107(10) . . .
102(10) . . .
105(10) . . .
99(10) . . .
99(10) . . .
96(10) . . .
83(9) . . .
88(9) . . .
92(10) . . .
120(11) . . .
105(10) . . .
104(10) . . .
108(10) . . .
109(10) . . .
107(10) . . .
127(11) . . .
102(10) . . .
89(9) . . .
87(9) . . .
110(10) . . .
105(10) . . .
102(10) . . .
93(10) . . .
92(10) . . .
108(10) . . .
105(10) . . .
109(10) . . .
111(11) . . .
106(10) . . .
105(10) . . .
89(9) . . .
99(10) . . .
117(11) . . .
96(10) . . .
118(11) . . .
100(10) . . .
93(10) . . .
93(10) . . .
96(10) . . .
105(10) . . .
94(10) . . .
107(10) . . .
109(10) . . .
103(10) . . .
109(10) . . .
94(10) . . .
100(10) . . .
101(10) . . .
101(10) . . .
106(10) . . .
99(10) . . .
88(9) . . .
92(10) . . .
97(10) . . .
109(10) . . .
104(10) . . .
116(11) . . .
90(9) . . .
84(9) . . .
109(10) . . .
95(10) . . .
95(10) . . .
110(10) . . .
108(10) . . .
96(10) . . .
109(10) . . .
108(10) . . .
103(10) . . .
93(10) . . .
111(11) . . .
116(11) . . .
111(11) . . .
102(10) . . .
112(11) . . .
103(10) . . .
112(11) . . .
96(10) . . .
113(11) . . .
85(9) . . .
74(9) . . .
96(10) . . .
99(10) . . .
113(11) . . .
111(11) . . .
110(10) . . .
87(9) . . .
89(9) . . .
101(10) . . .
98(10) . . .
101(10) . . .
101(10) . . .
91(10) . . .
108(10) . . .
103(10) . . .
110(10) . . .
100(10) . . .
102(10) . . .
99(10) . . .
99(10) . . .
103(10) . . .
86(9) . . .
100(10) . . .
110(10) . . .
96(10) . . .
112(11) . . .
114(11) . . .
95(10) . . .
99(10) . . .
101(10) . . .
88(9) . . .
114(11) . . .
111(11) . . .
95(10) . . .
91(10) . . .
108(10) . . .
103(10) . . .
104(10) . . .
87(9) . . .
116(11) . . .
105(10) . . .
100(10) . . .
87(9) . . .
100(10) . . .
129(11) . . .
110(10) . . .
93(10) . . .
93(10) . . .
98(10) . . .
117(11) . . .
101(10) . . .
100(10) . . .
94(10) . . .
91(10) . . .
95(10) . . .
105(10) . . .
107(10) . . .
123(11) . . .
106(10) . . .
93(10) . . .
100(10) . . .
106(10) . . .
87(9) . . .
106(10) . . .
99(10) . . .
85(9) . . .
102(10) . . .
121(11) . . .
104(10) . . .
88(9) . . .
115(11) . . .
95(10) . . .
92(10) . . .
110(10) . . .
94(10) . . .
80(9) . . .
103(10) . . .
105(10) . . .
95(10) . . .
109(10) . . .
95(10) . . .
106(10) . . .
92(10) . . .
88(9) . . .
87(9) . . .
92(10) . . .
95(10) . . .
75(9) . . .
103(10) . . .
117(11) . . .
97(10) . . .
92(10) . . .
102(10) . . .
94(10) . . .
107(10) . . .
96(10) . . .
116(11) . . .
96(10) . . .
95(10) . . .
103(10) . . .
101(10) . . .
105(10) . . .
99(10) . . .
100(10) . . .
84(9) . . .
117(11) . . .
93(10) . . .
98(10) . . .
94(10) . . .
89(9) . . .
111(11) . . .
96(10) . . .
104(10) . . .
118(11) . . .
95(10) . . .
107(10) . . .
107(10) . . .
98(10) . . .
107(10) . . .
116(11) . . .
91(10) . . .
103(10) . . .
104(10) . . .
101(10) . . .
112(11) . . .
100(10) . . .
106(10) . . .
93(10) . . .
104(10) . . .
100(10) . . .
113(11) . . .
113(11) . . .
117(11) . . .
101(10) . . .
117(11) . . .
109(10) . . .
91(10) . . .
113(11) . . .
104(10) . . .
112(11) . . .
98(10) . . .
104(10) . . .
110(10) . . .
91(10) . . .
114(11) . . .
98(10) . . .
94(10) . . .
88(9) . . .
97(10) . . .
92(10) . . .
105(10) . . .
114(11) . . .
105(10) . . .
104(10) . . .
110(10) . . .
99(10) . . .
97(10) . . .
97(10) . . .
105(10) . . .
97(10) . . .
121(11) . . .
91(10) . . .
96(10) . . .
111(11) . . .
108(10) . . .
96(10) . . .
91(10) . . .
99(10) . . .
104(10) . . .
98(10) . . .
103(10) . . .
82(9) . . .
94(10) . . .
92(10) . . .
111(11) . . .
123(11) . . .
101(10) . . .
97(10) . . .
108(10) . . .
104(10) . . .
111(11) . . .
108(10) . . .
108(10) . . .
102(10) . . .
112(11) . . .
129(11) . . .
121(11) . . .
118(11) . . .
107(10) . . .
102(10) . . .
109(10) . . .
109(10) . . .
92(10) . . .
103(10) . . .
104(10) . . .
99(10) . . .
97(10) . . .
89(9) . . .
103(10) . . .
104(10) . . .
101(10) . . .
106(10) . . .
108(10) . . .
97(10) . . .
117(11) . . .
94(10) . . .
96(10) . . .
92(10) . . .
93(10) . . .
94(10) . . .
102(10) . . .
104(10) . . .
99(10) . . .
114(11) . . .
94(10) . . .
107(10) . . .
94(10) . . .
109(10) . . .
103(10) . . .
106(10) . . .
94(10) . . .
122(11) . . .
94(10) . . .
107(10) . . .
107(10) . . .
110(10) . . .
88(9) . . .
113(11) . . .
106(10) . . .
103(10) . . .
116(11) . . .
99(10) . . .
114(11) . . .
101(10) . . .
114(11) . . .
105(10) . . .
97(10) . . .
104(10) . . .
91(10) . . .
97(10) . . .
126(11) . . .
113(11) . . .
98(10) . . .
93(10) . . .
94(10) . . .
96(10) . . .
112(11) . . .
98(10) . . .
102(10) . . .
111(11) . . .
99(10) . . .
102(10) . . .
111(11) . . .
97(10) . . .
100(10) . . .
113(11) . . .
111(11) . . .
108(10) . . .
101(10) . . .
114(11) . . .
113(11) . . .
99(10) . . .
114(11) . . .
100(10) . . .
100(10) . . .
95(10) . . .
96(10) . . .
101(10) . . .
100(10) . . .
100(10) . . .
105(10) . . .
121(11) . . .
109(10) . . .
102(10) . . .
110(10) . . .
100(10) . . .
117(11) . . .
112(11) . . .
116(11) . . .
100(10) . . .
103(10) . . .
106(10) . . .
103(10) . . .
111(11) . . .
107(10) . . .
98(10) . . .
104(10) . . .
125(11) . . .
104(10) . . .
104(10) . . .
100(10) . . .
123(11) . . .
93(10) . . .
112(11) . . .
102(10) . . .
112(11) . . .
100(10) . . .
105(10) . . .
98(10) . . .
99(10) . . .
114(11) . . .
108(10) . . .
103(10) . . .
114(11) . . .
116(11) . . .
135(12) . . .
96(10) . . .
111(11) . . .
99(10) . . .
109(10) . . .
101(10) . . .
110(10) . . .
108(10) . . .
118(11) . . .
117(11) . . .
102(10) . . .
129(11) . . .
113(11) . . .
100(10) . . .
92(10) . . .
114(11) . . .
105(10) . . .
104(10) . . .
104(10) . . .
113(11) . . .
112(11) . . .
113(11) . . .
115(11) . . .
100(10) . . .
101(10) . . .
96(10) . . .
104(10) . . .
95(10) . . .
114(11) . . .
94(10) . . .
92(10) . . .
112(11) . . .
99(10) . . .
99(10) . . .
103(10) . . .
104(10) . . .
128(11) . . .
110(10) . . .
100(10) . . .
108(10) . . .
117(11) . . .
110(10) . . .
105(10) . . .
120(11) . . .
95(10) . . .
97(10) . . .
101(10) . . .
98(10) . . .
94(10) . . .
104(10) . . .
121(11) . . .
98(10) . . .
111(11) . . .
110(10) . . .
122(11) . . .
110(10) . . .
110(10) . . .
103(10) . . .
114(11) . . .
105(10) . . .
101(10) . . .
117(11) . . .
101(10) . . .
106(10) . . .
108(10) . . .
123(11) . . .
118(11) . . .
115(11) . . .
99(10) . . .
113(11) . . .
112(11) . . .
110(10) . . .
106(10) . . .
112(11) . . .
100(10) . . .
118(11) . . .
121(11) . . .
117(11) . . .
125(11) . . .
122(11) . . .
128(11) . . .
125(11) . . .
101(10) . . .
107(10) . . .
125(11) . . .
133(12) . . .
112(11) . . .
122(11) . . .
113(11) . . .
102(10) . . .
123(11) . . .
128(11) . . .
119(11) . . .
121(11) . . .
114(11) . . .
129(11) . . .
106(10) . . .
114(11) . . .
125(11) . . .
126(11) . . .
115(11) . . .
110(10) . . .
130(11) . . .
117(11) . . .
137(12) . . .
126(11) . . .
128(11) . . .
122(11) . . .
132(11) . . .
121(11) . . .
108(10) . . .
114(11) . . .
115(11) . . .
142(12) . . .
139(12) . . .
138(12) . . .
141(12) . . .
133(12) . . .
123(11) . . .
126(11) . . .
142(12) . . .
138(12) . . .
140(12) . . .
136(12) . . .
125(11) . . .
141(12) . . .
139(12) . . .
146(12) . . .
140(12) . . .
145(12) . . .
151(12) . . .
158(13) . . .
133(12) . . .
160(13) . . .
141(12) . . .
140(12) . . .
149(12) . . .
151(12) . . .
157(13) . . .
168(13) . . .
163(13) . . .
171(13) . . .
176(13) . . .
171(13) . . .
163(13) . . .
178(13) . . .
165(13) . . .
161(13) . . .
168(13) . . .
157(13) . . .
177(13) . . .
184(14) . . .
191(14) . . .
191(14) . . .
183(14) . . .
223(15) . . .
203(14) . . .
211(15) . . .
225(15) . . .
200(14) . . .
220(15) . . .
218(15) . . .
231(15) . . .
223(15) . . .
223(15) . . .
233(15) . . .
243(16) . . .
275(17) . . .
271(16) . . .
267(16) . . .
281(17) . . .
291(17) . . .
280(17) . . .
303(17) . . .
307(18) . . .
322(18) . . .
335(18) . . .
353(19) . . .
368(19) . . .
387(20) . . .
405(20) . . .
431(21) . . .
436(21) . . .
472(22) . . .
465(22) . . .
504(22) . . .
514(23) . . .
554(24) . . .
554(24) . . .
636(25) . . .
616(25) . . .
654(26) . . .
700(26) . . .
738(27) . . .
758(28) . . .
763(28) . . .
771(28) . . .
817(29) . . .
861(29) . . .
882(30) . . .
848(29) . . .
882(30) . . .
837(29) . . .
886(30) . . .
927(30) . . .
908(30) . . .
901(30) . . .
920(30) . . .
920(30) . . .
926(30) . . .
868(29) . . .
904(30) . . .
831(29) . . .
851(29) . . .
778(28) . . .
813(29) . . .
796(28) . . .
765(28) . . .
749(27) . . .
677(26) . . .
664(26) . . .
595(24) . . .
576(24) . . .
559(24) . . .
544(23) . . .
560(24) . . .
501(22) . . .
483(22) . . .
478(22) . . .
451(21) . . .
405(20) . . .
385(20) . . .
346(19) . . .
370(19) . . .
362(19) . . .
329(18) . . .
348(19) . . .
338(18) . . .
294(17) . . .
285(17) . . .
311(18) . . .
296(17) . . .
270(16) . . .
251(16) . . .
247(16) . . .
213(15) . . .
206(14) . . .
282(17) . . .
228(15) . . .
202(14) . . .
215(15) . . .
212(15) . . .
224(15) . . .
199(14) . . .
206(14) . . .
223(15) . . .
200(14) . . .
212(15) . . .
195(14) . . .
181(13) . . .
178(13) . . .
178(13) . . .
189(14) . . .
187(14) . . .
181(13) . . .
159(13) . . .
194(14) . . .
172(13) . . .
171(13) . . .
169(13) . . .
143(12) . . .
166(13) . . .
151(12) . . .
138(12) . . .
152(12) . . .
143(12) . . .
143(12) . . .
149(12) . . .
136(12) . . .
148(12) . . .
140(12) . . .
137(12) . . .
131(11) . . .
160(13) . . .
153(12) . . .
135(12) . . .
122(11) . . .
151(12) . . .
148(12) . . .
138(12) . . .
137(12) . . .
138(12) . . .
147(12) . . .
133(12) . . .
135(12) . . .
134(12) . . .
128(11) . . .
125(11) . . .
118(11) . . .
142(12) . . .
121(11) . . .
138(12) . . .
134(12) . . .
135(12) . . .
115(11) . . .
129(11) . . .
126(11) . . .
122(11) . . .
133(12) . . .
102(10) . . .
106(10) . . .
103(10) . . .
124(11) . . .
126(11) . . .
110(10) . . .
130(11) . . .
107(10) . . .
127(11) . . .
101(10) . . .
98(10) . . .
118(11) . . .
108(10) . . .
135(12) . . .
116(11) . . .
121(11) . . .
127(11) . . .
114(11) . . .
109(10) . . .
117(11) . . .
133(12) . . .
129(11) . . .
120(11) . . .
131(11) . . .
114(11) . . .
116(11) . . .
116(11) . . .
118(11) . . .
123(11) . . .
131(11) . . .
117(11) . . .
111(11) . . .
94(10) . . .
104(10) . . .
105(10) . . .
102(10) . . .
117(11) . . .
114(11) . . .
122(11) . . .
119(11) . . .
107(10) . . .
115(11) . . .
122(11) . . .
91(10) . . .
117(11) . . .
98(10) . . .
106(10) . . .
102(10) . . .
118(11) . . .
133(12) . . .
105(10) . . .
115(11) . . .
113(11) . . .
111(11) . . .
97(10) . . .
111(11) . . .
108(10) . . .
122(11) . . .
99(10) . . .
113(11) . . .
110(10) . . .
130(11) . . .
112(11) . . .
104(10) . . .
100(10) . . .
103(10) . . .
113(11) . . .
95(10) . . .
88(9) . . .
116(11) . . .
105(10) . . .
117(11) . . .
112(11) . . .
102(10) . . .
95(10) . . .
98(10) . . .
122(11) . . .
101(10) . . .
102(10) . . .
111(11) . . .
129(11) . . .
126(11) . . .
112(11) . . .
116(11) . . .
98(10) . . .
101(10) . . .
101(10) . . .
101(10) . . .
107(10) . . .
105(10) . . .
107(10) . . .
109(10) . . .
118(11) . . .
108(10) . . .
102(10) . . .
100(10) . . .
102(10) . . .
115(11) . . .
118(11) . . .
113(11) . . .
123(11) . . .
117(11) . . .
109(10) . . .
108(10) . . .
115(11) . . .
111(11) . . .
111(11) . . .
119(11) . . .
106(10) . . .
113(11) . . .
103(10) . . .
89(9) . . .
106(10) . . .
105(10) . . .
110(10) . . .
124(11) . . .
111(11) . . .
93(10) . . .
112(11) . . .
100(10) . . .
98(10) . . .
103(10) . . .
99(10) . . .
106(10) . . .
106(10) . . .
87(9) . . .
106(10) . . .
109(10) . . .
111(11) . . .
117(11) . . .
111(11) . . .
108(10) . . .
124(11) . . .
123(11) . . .
115(11) . . .
123(11) . . .
110(10) . . .
113(11) . . .
104(10) . . .
109(10) . . .
111(11) . . .
113(11) . . .
121(11) . . .
114(11) . . .
102(10) . . .
115(11) . . .
96(10) . . .
127(11) . . .
107(10) . . .
103(10) . . .
103(10) . . .
102(10) . . .
104(10) . . .
102(10) . . .
110(10) . . .
104(10) . . .
117(11) . . .
107(10) . . .
109(10) . . .
103(10) . . .
108(10) . . .
105(10) . . .
107(10) . . .
115(11) . . .
116(11) . . .
104(10) . . .
116(11) . . .
127(11) . . .
93(10) . . .
135(12) . . .
104(10) . . .
106(10) . . .
102(10) . . .
123(11) . . .
122(11) . . .
118(11) . . .
111(11) . . .
106(10) . . .
117(11) . . .
101(10) . . .
109(10) . . .
138(12) . . .
110(10) . . .
119(11) . . .
126(11) . . .
109(10) . . .
113(11) . . .
111(11) . . .
136(12) . . .
118(11) . . .
120(11) . . .
110(10) . . .
126(11) . . .
119(11) . . .
116(11) . . .
107(10) . . .
103(10) . . .
146(12) . . .
129(11) . . .
106(10) . . .
120(11) . . .
121(11) . . .
127(11) . . .
128(11) . . .
113(11) . . .
125(11) . . .
121(11) . . .
125(11) . . .
129(11) . . .
122(11) . . .
142(12) . . .
128(11) . . .
146(12) . . .
128(11) . . .
148(12) . . .
143(12) . . .
131(11) . . .
123(11) . . .
134(12) . . .
128(11) . . .
136(12) . . .
127(11) . . .
133(12) . . .
145(12) . . .
150(12) . . .
149(12) . . .
168(13) . . .
154(12) . . .
155(12) . . .
169(13) . . .
149(12) . . .
169(13) . . .
160(13) . . .
184(14) . . .
189(14) . . .
171(13) . . .
171(13) . . .
185(14) . . .
213(15) . . .
206(14) . . .
172(13) . . .
209(14) . . .
227(15) . . .
218(15) . . .
246(16) . . .
237(15) . . .
226(15) . . .
232(15) . . .
293(17) . . .
247(16) . . .
252(16) . . .
269(16) . . .
307(18) . . .
270(16) . . .
323(18) . . .
302(17) . . .
308(18) . . .
323(18) . . .
332(18) . . .
324(18) . . .
351(19) . . .
344(19) . . .
335(18) . . .
329(18) . . .
334(18) . . .
342(18) . . .
347(19) . . .
369(19) . . .
361(19) . . .
330(18) . . .
349(19) . . .
339(18) . . .
304(17) . . .
339(18) . . .
319(18) . . .
336(18) . . .
328(18) . . .
291(17) . . .
298(17) . . .
299(17) . . .
287(17) . . .
297(17) . . .
263(16) . . .
243(16) . . .
242(16) . . .
227(15) . . .
257(16) . . .
210(14) . . .
217(15) . . .
213(15) . . .
209(14) . . .
195(14) . . .
207(14) . . .
193(14) . . .
203(14) . . .
181(13) . . .
207(14) . . .
164(13) . . .
157(13) . . .
161(13) . . .
158(13) . . .
170(13) . . .
158(13) . . .
161(13) . . .
134(12) . . .
143(12) . . .
138(12) . . .
154(12) . . .
147(12) . . .
136(12) . . .
118(11) . . .
133(12) . . .
130(11) . . .
137(12) . . .
128(11) . . .
147(12) . . .
130(11) . . .
132(11) . . .
133(12) . . .
140(12) . . .
133(12) . . .
130(11) . . .
121(11) . . .
121(11) . . .
123(11) . . .
124(11) . . .
132(11) . . .
124(11) . . .
114(11) . . .
109(10) . . .
116(11) . . .
116(11) . . .
119(11) . . .
134(12) . . .
115(11) . . .
127(11) . . .
117(11) . . .
135(12) . . .
110(10) . . .
111(11) . . .
123(11) . . .
113(11) . . .
122(11) . . .
116(11) . . .
119(11) . . .
123(11) . . .
123(11) . . .
125(11) . . .
107(10) . . .
132(11) . . .
97(10) . . .
99(10) . . .
113(11) . . .
115(11) . . .
129(11) . . .
113(11) . . .
108(10) . . .
106(10) . . .
117(11) . . .
116(11) . . .
106(10) . . .
102(10) . . .
120(11) . . .
109(10) . . .
110(10) . . .
95(10) . . .
107(10) . . .
104(10) . . .
112(11) . . .
96(10) . . .
108(10) . . .
123(11) . . .
94(10) . . .
107(10) . . .
100(10) . . .
117(11) . . .
99(10) . . .
99(10) . . .
99(10) . . .
109(10) . . .
101(10) . . .
104(10) . . .
95(10) . . .
100(10) . . .
96(10) . . .
105(10) . . .
95(10) . . .
120(11) . . .
105(10) . . .
101(10) . . .
99(10) . . .
98(10) . . .
98(10) . . .
111(11) . . .
95(10) . . .
126(11) . . .
116(11) . . .
103(10) . . .
105(10) . . .
101(10) . . .
119(11) . . .
98(10) . . .
96(10) . . .
85(9) . . .
91(10) . . .
105(10) . . .
95(10) . . .
93(10) . . .
93(10) . . .
87(9) . . .
84(9) . . .
120(11) . . .
108(10) . . .
115(11) . . .
92(10) . . .
87(9) . . .
100(10) . . .
99(10) . . .
84(9) . . .
111(11) . . .
103(10) . . .
88(9) . . .
92(10) . . .
91(10) . . .
95(10) . . .
100(10) . . .
94(10) . . .
102(10) . . .
105(10) . . .
104(10) . . .
97(10) . . .
101(10) . . .
98(10) . . .
107(10) . . .
87(9) . . .
99(10) . . .
102(10) . . .
101(10) . . .
99(10) . . .
88(9) . . .
101(10) . . .
97(10) . . .
93(10) . . .
95(10) . . .
108(10) . . .
89(9) . . .
94(10) . . .
97(10) . . .
93(10) . . .
93(10) . . .
103(10) . . .
90(9) . . .
93(10) . . .
109(10) . . .
103(10) . . .
109(10) . . .
89(9) . . .
93(10) . . .
97(10) . . .
84(9) . . .
99(10) . . .
115(11) . . .
96(10) . . .
94(10) . . .
118(11) . . .
100(10) . . .
92(10) . . .
106(10) . . .
108(10) . . .
102(10) . . .
104(10) . . .
101(10) . . .
100(10) . . .
108(10) . . .
103(10) . . .
111(11) . . .
94(10) . . .
92(10) . . .
94(10) . . .
105(10) . . .
94(10) . . .
101(10) . . .
101(10) . . .
94(10) . . .
101(10) . . .
95(10) . . .
106(10) . . .
84(9) . . .
117(11) . . .
100(10) . . .
92(10) . . .
86(9) . . .
93(10) . . .
109(10) . . .
102(10) . . .
97(10) . . .
87(9) . . .
82(9) . . .
91(10) . . .
107(10) . . .
106(10) . . .
104(10) . . .
105(10) . . .
103(10) . . .
105(10) . . .
92(10) . . .
93(10) . . .
94(10) . . .
101(10) . . .
91(10) . . .
101(10) . . .
97(10) . . .
106(10) . . .
100(10) . . .
101(10) . . .
112(11) . . .
103(10) . . .
81(9) . . .
111(11) . . .
109(10) . . .
83(9) . . .
112(11) . . .
96(10) . . .
103(10) . . .
111(11) . . .
99(10) . . .
86(9) . . .
92(10) . . .
90(9) . . .
98(10) . . .
95(10) . . .
113(11) . . .
104(10) . . .
97(10) . . .
106(10) . . .
99(10) . . .
99(10) . . .
108(10) . . .
104(10) . . .
93(10) . . .
94(10) . . .
106(10) . . .
97(10) . . .
102(10) . . .
102(10) . . .
102(10) . . .
92(10) . . .
110(10) . . .
100(10) . . .
83(9) . . .
81(9) . . .
75(9) . . .
82(9) . . .
105(10) . . .
91(10) . . .
89(9) . . .
100(10) . . .
94(10) . . .
87(9) . . .
94(10) . . .
101(10) . . .
87(9) . . .
96(10) . . .
96(10) . . .
90(9) . . .
92(10) . . .
99(10) . . .
96(10) . . .
101(10) . . .
109(10) . . .
92(10) . . .
102(10) . . .
89(9) . . .
105(10) . . .
93(10) . . .
94(10) . . .
87(9) . . .
90(9) . . .
110(10) . . .
100(10) . . .
84(9) . . .
98(10) . . .
94(10) . . .
94(10) . . .
108(10) . . .
87(9) . . .
95(10) . . .
113(11) . . .
102(10) . . .
98(10) . . .
84(9) . . .
91(10) . . .
89(9) . . .
101(10) . . .
102(10) . . .
92(10) . . .
109(10) . . .
96(10) . . .
100(10) . . .
94(10) . . .
98(10) . . .
75(9) . . .
84(9) . . .
98(10) . . .
95(10) . . .
102(10) . . .
101(10) . . .
109(10) . . .
90(9) . . .
100(10) . . .
102(10) . . .
89(9) . . .
114(11) . . .
104(10) . . .
109(10) . . .
113(11) . . .
102(10) . . .
98(10) . . .
99(10) . . .
107(10) . . .
87(9) . . .
79(9) . . .
91(10) . . .
90(9) . . .
96(10) . . .
99(10) . . .
99(10) . . .
102(10) . . .
85(9) . . .
102(10) . . .
104(10) . . .
101(10) . . .
95(10) . . .
114(11) . . .
91(10) . . .
95(10) . . .
98(10) . . .
92(10) . . .
93(10) . . .
97(10) . . .
101(10) . . .
82(9) . . .
92(10) . . .
93(10) . . .
104(10) . . .
111(11) . . .
89(9) . . .
91(10) . . .
91(10) . . .
93(10) . . .
99(10) . . .
105(10) . . .
88(9) . . .
92(10) . . .
101(10) . . .
85(9) . . .
94(10) . . .
84(9) . . .
96(10) . . .
94(10) . . .
92(10) . . .
102(10) . . .
102(10) . . .
93(10) . . .
107(10) . . .
92(10) . . .
92(10) . . .
99(10) . . .
98(10) . . .
78(9) . . .
85(9) . . .
104(10) . . .
92(10) . . .
94(10) . . .
105(10) . . .
85(9) . . .
90(9) . . .
91(10) . . .
93(10) . . .
97(10) . . .
94(10) . . .
95(10) . . .
91(10) . . .
96(10) . . .
100(10) . . .
98(10) . . .
94(10) . . .
95(10) . . .
104(10) . . .
96(10) . . .
97(10) . . .
104(10) . . .
80(9) . . .
94(10) . . .
85(9) . . .
94(10) . . .
98(10) . . .
95(10) . . .
101(10) . . .
94(10) . . .
102(10) . . .
91(10) . . .
94(10) . . .
83(9) . . .
80(9) . . .
109(10) . . .
90(9) . . .
86(9) . . .
90(9) . . .
96(10) . . .
80(9) . . .
91(10) . . .
101(10) . . .
92(10) . . .
88(9) . . .
84(9) . . .
103(10) . . .
98(10) . . .
98(10) . . .
96(10) . . .
97(10) . . .
90(9) . . .
95(10) . . .
90(9) . . .
109(10) . . .
103(10) . . .
80(9) . . .
105(10) . . .
88(9) . . .
107(10) . . .
107(10) . . .
94(10) . . .
96(10) . . .
92(10) . . .
86(9) . . .
86(9) . . .
102(10) . . .
94(10) . . .
103(10) . . .
110(10) . . .
94(10) . . .
102(10) . . .
80(9) . . .
89(9) . . .
93(10) . . .
91(10) . . .
99(10) . . .
92(10) . . .
110(10) . . .
98(10) . . .
88(9) . . .
106(10) . . .
86(9) . . .
85(9) . . .
90(9) . . .
94(10) . . .
87(9) . . .
87(9) . . .
105(10) . . .
91(10) . . .
87(9) . . .
98(10) . . .
98(10) . . .
95(10) . . .
88(9) . . .
111(11) . . .
96(10) . . .
87(9) . . .
79(9) . . .
92(10) . . .
96(10) . . .
97(10) . . .
78(9) . . .
112(11) . . .
108(10) . . .
91(10) . . .
113(11) . . .
91(10) . . .
87(9) . . .
107(10) . . .
90(9) . . .
78(9) . . .
100(10) . . .
79(9) . . .
105(10) . . .
103(10) . . .
82(9) . . .
88(9) . . .
96(10) . . .
106(10) . . .
90(9) . . .
92(10) . . .
95(10) . . .
95(10) . . .
86(9) . . .
83(9) . . .
90(9) . . .
92(10) . . .
103(10) . . .
85(9) . . .
91(10) . . .
98(10) . . .
96(10) . . .
99(10) . . .
100(10) . . .
84(9) . . .
105(10) . . .
115(11) . . .
94(10) . . .
98(10) . . .
81(9) . . .
96(10) . . .
100(10) . . .
94(10) . . .
97(10) . . .
107(10) . . .
116(11) . . .
100(10) . . .
116(11) . . .
102(10) . . .
79(9) . . .
99(10) . . .
96(10) . . .
96(10) . . .
99(10) . . .
96(10) . . .
86(9) . . .
97(10) . . .
107(10) . . .
90(9) . . .
100(10) . . .
99(10) . . .
97(10) . . .
96(10) . . .
91(10) . . .
99(10) . . .
88(9) . . .
103(10) . . .
95(10) . . .
75(9) . . .
87(9) . . .
89(9) . . .
88(9) . . .
87(9) . . .
93(10) . . .
99(10) . . .
103(10) . . .
91(10) . . .
92(10) . . .
96(10) . . .
98(10) . . .
81(9) . . .
102(10) . . .
97(10) . . .
104(10) . . .
92(10) . . .
108(10) . . .
98(10) . . .
101(10) . . .
88(9) . . .
101(10) . . .
97(10) . . .
113(11) . . .
97(10) . . .
101(10) . . .
105(10) . . .
93(10) . . .
105(10) . . .
98(10) . . .
101(10) . . .
107(10) . . .
98(10) . . .
101(10) . . .
89(9) . . .
104(10) . . .
89(9) . . .
100(10) . . .
101(10) . . .
102(10) . . .
84(9) . . .
86(9) . . .
102(10) . . .
88(9) . . .
94(10) . . .
97(10) . . .
97(10) . . .
102(10) . . .
99(10) . . .
90(9) . . .
78(9) . . .
109(10) . . .
97(10) . . .
109(10) . . .
109(10) . . .
91(10) . . .
87(9) . . .
105(10) . . .
91(10) . . .
102(10) . . .
107(10) . . .
105(10) . . .
106(10) . . .
87(9) . . .
98(10) . . .
95(10) . . .
111(11) . . .
108(10) . . .
110(10) . . .
107(10) . . .
107(10) . . .
89(9) . . .
99(10) . . .
94(10) . . .
87(9) . . .
87(9) . . .
102(10) . . .
93(10) . . .
111(11) . . .
91(10) . . .
96(10) . . .
93(10) . . .
96(10) . . .
96(10) . . .
91(10) . . .
86(9) . . .
84(9) . . .
107(10) . . .
99(10) . . .
106(10) . . .
108(10) . . .
82(9) . . .
96(10) . . .
115(11) . . .
91(10) . . .
96(10) . . .
87(9) . . .
87(9) . . .
96(10) . . .
90(9) . . .
94(10) . . .
76(9) . . .
89(9) . . .
88(9) . . .
90(9) . . .
99(10) . . .
99(10) . . .
112(11) . . .
96(10) . . .
79(9) . . .
89(9) . . .
93(10) . . .
90(9) . . .
85(9) . . .
87(9) . . .
105(10) . . .
90(9) . . .
79(9) . . .
76(9) . . .
83(9) . . .
81(9) . . .
90(9) . . .
82(9) . . .
94(10) . . .
97(10) . . .
91(10) . . .
98(10) . . .
77(9) . . .
88(9) . . .
99(10) . . .
102(10) . . .
87(9) . . .
103(10) . . .
100(10) . . .
98(10) . . .
85(9) . . .
90(9) . . .
107(10) . . .
87(9) . . .
88(9) . . .
103(10) . . .
99(10) . . .
88(9) . . .
104(10) . . .
93(10) . . .
94(10) . . .
98(10) . . .
91(10) . . .
106(10) . . .
87(9) . . .
98(10) . . .
107(10) . . .
92(10) . . .
92(10) . . .
94(10) . . .
86(9) . . .
84(9) . . .
90(9) . . .
99(10) . . .
97(10) . . .
107(10) . . .
103(10) . . .
94(10) . . .
105(10) . . .
100(10) . . .
90(9) . . .
100(10) . . .
106(10) . . .
99(10) . . .
97(10) . . .
102(10) . . .
101(10) . . .
96(10) . . .
94(10) . . .
92(10) . . .
96(10) . . .
110(10) . . .
72(8) . . .
99(10) . . .
111(11) . . .
103(10) . . .
90(9) . . .
87(9) . . .
88(9) . . .
92(10) . . .
99(10) . . .
98(10) . . .
91(10) . . .
82(9) . . .
94(10) . . .
95(10) . . .
99(10) . . .
87(9) . . .
103(10) . . .
106(10) . . .
78(9) . . .
103(10) . . .
84(9) . . .
94(10) . . .
108(10) . . .
92(10) . . .
92(10) . . .
91(10) . . .
94(10) . . .
99(10) . . .
81(9) . . .
93(10) . . .
85(9) . . .
101(10) . . .
101(10) . . .
85(9) . . .
91(10) . . .
109(10) . . .
99(10) . . .
101(10) . . .
101(10) . . .
90(9) . . .
75(9) . . .
93(10) . . .
102(10) . . .
89(9) . . .
96(10) . . .
106(10) . . .
87(9) . . .
102(10) . . .
79(9) . . .
108(10) . . .
91(10) . . .
95(10) . . .
99(10) . . .
95(10) . . .
95(10) . . .
78(9) . . .
80(9) . . .
99(10) . . .
88(9) . . .
70(8) . . .
99(10) . . .
98(10) . . .
109(10) . . .
92(10) . . .
90(9) . . .
109(10) . . .
118(11) . . .
107(10) . . .
90(9) . . .
90(9) . . .
88(9) . . .
94(10) . . .
92(10) . . .
81(9) . . .
93(10) . . .
95(10) . . .
96(10) . . .
90(9) . . .
90(9) . . .
94(10) . . .
88(9) . . .
103(10) . . .
86(9) . . .
109(10) . . .
106(10) . . .
95(10) . . .
91(10) . . .
91(10) . . .
92(10) . . .
88(9) . . .
93(10) . . .
101(10) . . .
106(10) . . .
97(10) . . .
77(9) . . .
96(10) . . .
96(10) . . .
107(10) . . .
83(9) . . .
101(10) . . .
89(9) . . .
82(9) . . .
85(9) . . .
87(9) . . .
91(10) . . .
114(11) . . .
101(10) . . .
89(9) . . .
106(10) . . .
96(10) . . .
91(10) . . .
79(9) . . .
93(10) . . .
89(9) . . .
100(10) . . .
108(10) . . .
83(9) . . .
86(9) . . .
98(10) . . .
99(10) . . .
90(9) . . .
96(10) . . .
83(9) . . .
94(10) . . .
95(10) . . .
84(9) . . .
91(10) . . .
114(11) . . .
93(10) . . .
106(10) . . .
88(9) . . .
91(10) . . .
97(10) . . .
83(9) . . .
98(10) . . .
82(9) . . .
79(9) . . .
98(10) . . .
110(10) . . .
88(9) . . .
88(9) . . .
96(10) . . .
88(9) . . .
96(10) . . .
101(10) . . .
99(10) . . .
97(10) . . .
103(10) . . .
89(9) . . .
101(10) . . .
99(10) . . .
95(10) . . .
92(10) . . .
99(10) . . .
99(10) . . .
96(10) . . .
99(10) . . .
101(10) . . .
91(10) . . .
104(10) . . .
109(10) . . .
80(9) . . .
95(10) . . .
94(10) . . .
113(11) . . .
100(10) . . .
84(9) . . .
99(10) . . .
104(10) . . .
99(10) . . .
88(9) . . .
94(10) . . .
90(9) . . .
95(10) . . .
95(10) . . .
102(10) . . .
104(10) . . .
90(9) . . .
99(10) . . .
95(10) . . .
102(10) . . .
86(9) . . .
100(10) . . .
80(9) . . .
84(9) . . .
91(10) . . .
84(9) . . .
98(10) . . .
75(9) . . .
101(10) . . .
102(10) . . .
85(9) . . .
72(8) . . .
90(9) . . .
84(9) . . .
93(10) . . .
82(9) . . .
92(10) . . .
92(10) . . .
89(9) . . .
105(10) . . .
82(9) . . .
84(9) . . .
78(9) . . .
87(9) . . .
95(10) . . .
96(10) . . .
88(9) . . .
105(10) . . .
93(10) . . .
109(10) . . .
89(9) . . .
84(9) . . .
98(10) . . .
122(11) . . .
92(10) . . .
79(9) . . .
88(9) . . .
88(9) . . .
99(10) . . .
91(10) . . .
93(10) . . .
103(10) . . .
84(9) . . .
97(10) . . .
106(10) . . .
106(10) . . .
87(9) . . .
99(10) . . .
99(10) . . .
99(10) . . .
99(10) . . .
103(10) . . .
80(9) . . .
79(9) . . .
109(10) . . .
93(10) . . .
93(10) . . .
108(10) . . .
102(10) . . .
85(9) . . .
67(8) . . .
95(10) . . .
101(10) . . .
93(10) . . .
84(9) . . .
100(10) . . .
89(9) . . .
83(9) . . .
102(10) . . .
83(9) . . .
89(9) . . .
96(10) . . .
76(9) . . .
101(10) . . .
91(10) . . .
101(10) . . .
89(9) . . .
90(9) . . .
88(9) . . .
88(9) . . .
84(9) . . .
96(10) . . .
78(9) . . .
115(11) . . .
103(10) . . .
92(10) . . .
78(9) . . .
88(9) . . .
98(10) . . .
87(9) . . .
90(9) . . .
95(10) . . .
102(10) . . .
85(9) . . .
86(9) . . .
81(9) . . .
88(9) . . .
83(9) . . .
87(9) . . .
105(10) . . .
78(9) . . .
95(10) . . .
94(10) . . .
116(11) . . .
89(9) . . .
83(9) . . .
82(9) . . .
84(9) . . .
86(9) . . .
82(9) . . .
105(10) . . .
100(10) . . .
71(8) . . .
102(10) . . .
101(10) . . .
84(9) . . .
86(9) . . .
82(9) . . .
101(10) . . .
109(10) . . .
103(10) . . .
83(9) . . .
93(10) . . .
100(10) . . .
91(10) . . .
95(10) . . .
105(10) . . .
86(9) . . .
93(10) . . .
91(10) . . .
83(9) . . .
96(10) . . .
101(10) . . .
98(10) . . .
92(10) . . .
89(9) . . .
83(9) . . .
91(10) . . .
96(10) . . .
120(11) . . .
97(10) . . .
93(10) . . .
90(9) . . .
99(10) . . .
89(9) . . .
85(9) . . .
103(10) . . .
86(9) . . .
84(9) . . .
88(9) . . .
93(10) . . .
100(10) . . .
96(10) . . .
87(9) . . .
102(10) . . .
84(9) . . .
94(10) . . .
77(9) . . .
99(10) . . .
88(9) . . .
92(10) . . .
86(9) . . .
97(10) . . .
108(10) . . .
101(10) . . .
103(10) . . .
97(10) . . .
93(10) . . .
87(9) . . .
103(10) . . .
84(9) . . .
95(10) . . .
92(10) . . .
98(10) . . .
105(10) . . .
93(10) . . .
98(10) . . .
92(10) . . .
93(10) . . .
86(9) . . .
91(10) . . .
78(9) . . .
104(10) . . .
85(9) . . .
82(9) . . .
93(10) . . .
84(9) . . .
94(10) . . .
107(10) . . .
91(10) . . .
106(10) . . .
91(10) . . .
98(10) . . .
108(10) . . .
103(10) . . .
103(10) . . .
88(9) . . .
99(10) . . .
104(10) . . .
92(10) . . .
96(10) . . .
88(9) . . .
94(10) . . .
93(10) . . .
91(10) . . .
92(10) . . .
97(10) . . .
94(10) . . .
101(10) . . .
94(10) . . .
82(9) . . .
89(9) . . .
93(10) . . .
82(9) . . .
85(9) . . .
80(9) . . .
105(10) . . .
102(10) . . .
88(9) . . .
92(10) . . .
96(10) . . .
94(10) . . .
93(10) . . .
101(10) . . .
95(10) . . .
72(8) . . .
95(10) . . .
67(8) . . .
102(10) . . .
93(10) . . .
96(10) . . .
98(10) . . .
94(10) . . .
77(9) . . .
94(10) . . .
94(10) . . .
86(9) . . .
101(10) . . .
94(10) . . .
97(10) . . .
101(10) . . .
90(9) . . .
106(10) . . .
95(10) . . .
96(10) . . .
94(10) . . .
82(9) . . .
86(9) . . .
96(10) . . .
91(10) . . .
96(10) . . .
90(9) . . .
85(9) . . .
99(10) . . .
93(10) . . .
96(10) . . .
84(9) . . .
98(10) . . .
84(9) . . .
94(10) . . .
90(9) . . .
92(10) . . .
93(10) . . .
91(10) . . .
83(9) . . .
85(9) . . .
78(9) . . .
107(10) . . .
89(9) . . .
83(9) . . .
77(9) . . .
107(10) . . .
96(10) . . .
100(10) . . .
94(10) . . .
98(10) . . .
106(10) . . .
83(9) . . .
101(10) . . .
96(10) . . .
92(10) . . .
102(10) . . .
92(10) . . .
95(10) . . .
87(9) . . .
99(10) . . .
99(10) . . .
83(9) . . .
98(10) . . .
87(9) . . .
79(9) . . .
102(10) . . .
80(9) . . .
96(10) . . .
90(9) . . .
97(10) . . .
89(9) . . .
100(10) . . .
76(9) . . .
92(10) . . .
115(11) . . .
83(9) . . .
91(10) . . .
103(10) . . .
92(10) . . .
90(9) . . .
87(9) . . .
98(10) . . .
92(10) . . .
104(10) . . .
89(9) . . .
98(10) . . .
72(8) . . .
94(10) . . .
94(10) . . .
94(10) . . .
96(10) . . .
88(9) . . .
97(10) . . .
85(9) . . .
93(10) . . .
97(10) . . .
83(9) . . .
84(9) . . .
69(8) . . .
90(9) . . .
95(10) . . .
88(9) . . .
102(10) . . .
100(10) . . .
102(10) . . .
88(9) . . .
102(10) . . .
105(10) . . .
84(9) . . .
93(10) . . .
88(9) . . .
99(10) . . .
96(10) . . .
87(9) . . .
91(10) . . .
107(10) . . .
82(9) . . .
82(9) . . .
107(10) . . .
106(10) . . .
100(10) . . .
92(10) . . .
98(10) . . .
100(10) . . .
92(10) . . .
89(9) . . .
80(9) . . .
86(9) . . .
92(10) . . .
76(9) . . .
77(9) . . .
89(9) . . .
97(10) . . .
82(9) . . .
95(10) . . .
75(9) . . .
78(9) . . .
95(10) . . .
108(10) . . .
91(10) . . .
87(9) . . .
92(10) . . .
93(10) . . .
95(10) . . .
80(9) . . .
84(9) . . .
94(10) . . .
108(10) . . .
83(9) . . .
94(10) . . .
84(9) . . .
94(10) . . .
84(9) . . .
98(10) . . .
88(9) . . .
93(10) . . .
103(10) . . .
95(10) . . .
94(10) . . .
88(9) . . .
95(10) . . .
81(9) . . .
100(10) . . .
84(9) . . .
79(9) . . .
106(10) . . .
74(9) . . .
94(10) . . .
99(10) . . .
90(9) . . .
101(10) . . .
116(11) . . .
80(9) . . .
83(9) . . .
98(10) . . .
92(10) . . .
102(10) . . .
113(11) . . .
100(10) . . .
82(9) . . .
96(10) . . .
81(9) . . .
95(10) . . .
83(9) . . .
82(9) . . .
95(10) . . .
93(10) . . .
110(10) . . .
95(10) . . .
103(10) . . .
100(10) . . .
93(10) . . .
102(10) . . .
84(9) . . .
97(10) . . .
92(10) . . .
79(9) . . .
110(10) . . .
102(10) . . .
111(11) . . .
98(10) . . .
90(9) . . .
80(9) . . .
92(10) . . .
102(10) . . .
89(9) . . .
100(10) . . .
84(9) . . .
75(9) . . .
70(8) . . .
111(11) . . .
97(10) . . .
90(9) . . .
86(9) . . .
84(9) . . .
94(10) . . .
102(10) . . .
107(10) . . .
115(11) . . .
90(9) . . .
91(10) . . .
94(10) . . .
84(9) . . .
92(10) . . .
95(10) . . .
94(10) . . .
100(10) . . .
80(9) . . .
88(9) . . .
97(10) . . .
98(10) . . .
92(10) . . .
93(10) . . .
104(10) . . .
75(9) . . .
102(10) . . .
105(10) . . .
107(10) . . .
96(10) . . .
99(10) . . .
104(10) . . .
89(9) . . .
99(10) . . .
104(10) . . .
102(10) . . .
96(10) . . .
107(10) . . .
89(9) . . .
92(10) . . .
102(10) . . .
102(10) . . .
102(10) . . .
98(10) . . .
101(10) . . .
89(9) . . .
101(10) . . .
84(9) . . .
90(9) . . .
82(9) . . .
96(10) . . .
92(10) . . .
88(9) . . .
101(10) . . .
101(10) . . .
96(10) . . .
97(10) . . .
96(10) . . .
95(10) . . .
107(10) . . .
105(10) . . .
94(10) . . .
108(10) . . .
101(10) . . .
96(10) . . .
94(10) . . .
97(10) . . .
97(10) . . .
98(10) . . .
99(10) . . .
99(10) . . .
95(10) . . .
90(9) . . .
107(10) . . .
91(10) . . .
90(9) . . .
83(9) . . .
97(10) . . .
104(10) . . .
95(10) . . .
94(10) . . .
89(9) . . .
94(10) . . .
91(10) . . .
97(10) . . .
117(11) . . .
95(10) . . .
98(10) . . .
94(10) . . .
104(10) . . .
93(10) . . .
103(10) . . .
108(10) . . .
107(10) . . .
102(10) . . .
100(10) . . .
98(10) . . .
115(11) . . .
101(10) . . .
101(10) . . .
120(11) . . .
117(11) . . .
106(10) . . .
109(10) . . .
105(10) . . .
102(10) . . .
99(10) . . .
112(11) . . .
118(11) . . .
106(10) . . .
118(11) . . .
112(11) . . .
104(10) . . .
96(10) . . .
117(11) . . .
95(10) . . .
100(10) . . .
108(10) . . .
98(10) . . .
92(10) . . .
98(10) . . .
113(11) . . .
114(11) . . .
119(11) . . .
102(10) . . .
115(11) . . .
91(10) . . .
104(10) . . .
109(10) . . .
128(11) . . .
106(10) . . .
111(11) . . .
114(11) . . .
110(10) . . .
105(10) . . .
126(11) . . .
110(10) . . .
123(11) . . .
119(11) . . .
119(11) . . .
148(12) . . .
125(11) . . .
124(11) . . .
119(11) . . .
142(12) . . .
122(11) . . .
126(11) . . .
145(12) . . .
131(11) . . .
152(12) . . .
146(12) . . .
155(12) . . .
117(11) . . .
147(12) . . .
173(13) . . .
155(12) . . .
156(12) . . .
154(12) . . .
150(12) . . .
169(13) . . .
171(13) . . .
189(14) . . .
191(14) . . .
191(14) . . .
201(14) . . .
223(15) . . .
224(15) . . .
215(15) . . .
229(15) . . .
226(15) . . .
238(15) . . .
234(15) . . .
239(15) . . .
265(16) . . .
226(15) . . .
244(16) . . .
296(17) . . .
279(17) . . .
299(17) . . .
292(17) . . .
318(18) . . .
292(17) . . .
314(18) . . .
277(17) . . .
297(17) . . .
303(17) . . .
306(17) . . .
289(17) . . .
302(17) . . .
315(18) . . .
294(17) . . .
295(17) . . .
305(17) . . .
323(18) . . .
331(18) . . .
278(17) . . .
284(17) . . .
312(18) . . .
275(17) . . .
269(16) . . .
275(17) . . .
277(17) . . .
265(16) . . .
238(15) . . .
249(16) . . .
240(15) . . .
229(15) . . .
213(15) . . .
210(14) . . .
199(14) . . .
199(14) . . .
198(14) . . .
222(15) . . .
198(14) . . .
186(14) . . .
167(13) . . .
180(13) . . .
181(13) . . .
181(13) . . .
165(13) . . .
148(12) . . .
164(13) . . .
169(13) . . .
155(12) . . .
152(12) . . .
142(12) . . .
169(13) . . .
153(12) . . .
126(11) . . .
131(11) . . .
137(12) . . .
114(11) . . .
123(11) . . .
141(12) . . .
132(11) . . .
134(12) . . .
125(11) . . .
121(11) . . .
121(11) . . .
120(11) . . .
109(10) . . .
113(11) . . .
129(11) . . .
112(11) . . .
116(11) . . .
114(11) . . .
126(11) . . .
107(10) . . .
112(11) . . .
119(11) . . .
108(10) . . .
118(11) . . .
96(10) . . .
107(10) . . .
121(11) . . .
109(10) . . .
109(10) . . .
109(10) . . .
111(11) . . .
104(10) . . .
93(10) . . .
119(11) . . .
130(11) . . .
111(11) . . .
118(11) . . .
103(10) . . .
104(10) . . .
102(10) . . .
102(10) . . .
121(11) . . .
105(10) . . .
111(11) . . .
84(9) . . .
108(10) . . .
109(10) . . .
104(10) . . .
112(11) . . .
114(11) . . .
119(11) . . .
92(10) . . .
88(9) . . .
109(10) . . .
97(10) . . .
99(10) . . .
84(9) . . .
84(9) . . .
103(10) . . .
101(10) . . .
90(9) . . .
108(10) . . .
89(9) . . .
105(10) . . .
92(10) . . .
94(10) . . .
95(10) . . .
100(10) . . .
94(10) . . .
76(9) . . .
100(10) . . .
92(10) . . .
88(9) . . .
98(10) . . .
79(9) . . .
102(10) . . .
95(10) . . .
105(10) . . .
98(10) . . .
104(10) . . .
92(10) . . .
102(10) . . .
93(10) . . .
99(10) . . .
88(9) . . .
83(9) . . .
106(10) . . .
100(10) . . .
96(10) . . .
93(10) . . .
97(10) . . .
101(10) . . .
92(10) . . .
85(9) . . .
94(10) . . .
96(10) . . .
98(10) . . .
103(10) . . .
91(10) . . .
94(10) . . .
85(9) . . .
89(9) . . .
79(9) . . .
87(9) . . .
105(10) . . .
107(10) . . .
99(10) . . .
92(10) . . .
100(10) . . .
94(10) . . .
89(9) . . .
104(10) . . .
100(10) . . .
101(10) . . .
113(11) . . .
81(9) . . .
97(10) . . .
97(10) . . .
108(10) . . .
89(9) . . .
91(10) . . .
98(10) . . .
109(10) . . .
98(10) . . .
97(10) . . .
99(10) . . .
90(9) . . .
86(9) . . .
79(9) . . .
90(9) . . .
90(9) . . .
91(10) . . .
84(9) . . .
96(10) . . .
86(9) . . .
90(9) . . .
72(8) . . .
92(10) . . .
91(10) . . .
87(9) . . .
87(9) . . .
103(10) . . .
95(10) . . .
94(10) . . .
98(10) . . .
86(9) . . .
102(10) . . .
87(9) . . .
103(10) . . .
89(9) . . .
93(10) . . .
78(9) . . .
107(10) . . .
91(10) . . .
89(9) . . .
84(9) . . .
89(9) . . .
108(10) . . .
96(10) . . .
98(10) . . .
95(10) . . .
95(10) . . .
92(10) . . .
85(9) . . .
109(10) . . .
95(10) . . .
91(10) . . .
85(9) . . .
94(10) . . .
97(10) . . .
88(9) . . .
75(9) . . .
80(9) . . .
88(9) . . .
87(9) . . .
86(9) . . .
92(10) . . .
95(10) . . .
96(10) . . .
91(10) . . .
99(10) . . .
93(10) . . .
83(9) . . .
96(10) . . .
85(9) . . .
110(10) . . .
78(9) . . .
74(9) . . .
69(8) . . .
77(9) . . .
102(10) . . .
91(10) . . .
94(10) . . .
92(10) . . .
85(9) . . .
95(10) . . .
86(9) . . .
90(9) . . .
90(9) . . .
82(9) . . .
96(10) . . .
96(10) . . .
89(9) . . .
84(9) . . .
95(10) . . .
100(10) . . .
102(10) . . .
91(10) . . .
101(10) . . .
103(10) . . .
104(10) . . .
82(9) . . .
95(10) . . .
77(9) . . .
90(9) . . .
86(9) . . .
84(9) . . .
74(9) . . .
90(9) . . .
88(9) . . .
95(10) . . .
98(10) . . .
75(9) . . .
93(10) . . .
80(9) . . .
91(10) . . .
96(10) . . .
98(10) . . .
83(9) . . .
80(9) . . .
95(10) . . .
100(10) . . .
91(10) . . .
84(9) . . .
96(10) . . .
100(10) . . .
92(10) . . .
87(9) . . .
93(10) . . .
93(10) . . .
103(10) . . .
74(9) . . .
107(10) . . .
92(10) . . .
85(9) . . .
91(10) . . .
101(10) . . .
93(10) . . .
92(10) . . .
76(9) . . .
83(9) . . .
105(10) . . .
92(10) . . .
83(9) . . .
86(9) . . .
109(10) . . .
92(10) . . .
106(10) . . .
87(9) . . .
92(10) . . .
83(9) . . .
88(9) . . .
103(10) . . .
100(10) . . .
77(9) . . .
102(10) . . .
114(11) . . .
91(10) . . .
99(10) . . .
92(10) . . .
82(9) . . .
77(9) . . .
90(9) . . .
86(9) . . .
83(9) . . .
82(9) . . .
100(10) . . .
84(9) . . .
86(9) . . .
79(9) . . .
94(10) . . .
99(10) . . .
95(10) . . .
88(9) . . .
86(9) . . .
120(11) . . .
92(10) . . .
92(10) . . .
101(10) . . .
109(10) . . .
96(10) . . .
92(10) . . .
82(9) . . .
96(10) . . .
87(9) . . .
87(9) . . .
93(10) . . .
90(9) . . .
92(10) . . .
96(10) . . .
87(9) . . .
85(9) . . .
105(10) . . .
84(9) . . .
97(10) . . .
93(10) . . .
84(9) . . .
103(10) . . .
95(10) . . .
89(9) . . .
99(10) . . .
95(10) . . .
87(9) . . .
86(9) . . .
89(9) . . .
92(10) . . .
88(9) . . .
100(10) . . .
87(9) . . .
100(10) . . .
114(11) . . .
91(10) . . .
91(10) . . .
92(10) . . .
80(9) . . .
81(9) . . .
86(9) . . .
97(10) . . .
97(10) . . .
86(9) . . .
87(9) . . .
93(10) . . .
101(10) . . .
96(10) . . .
101(10) . . .
97(10) . . .
93(10) . . .
87(9) . . .
87(9) . . .
72(8) . . .
85(9) . . .
114(11) . . .
110(10) . . .
102(10) . . .
82(9) . . .
96(10) . . .
91(10) . . .
82(9) . . .
91(10) . . .
97(10) . . .
88(9) . . .
102(10) . . .
97(10) . . .
86(9) . . .
91(10) . . .
94(10) . . .
89(9) . . .
80(9) . . .
96(10) . . .
81(9) . . .
89(9) . . .
97(10) . . .
86(9) . . .
95(10) . . .
85(9) . . .
88(9) . . .
78(9) . . .
98(10) . . .
89(9) . . .
83(9) . . .
102(10) . . .
79(9) . . .
87(9) . . .
78(9) . . .
95(10) . . .
82(9) . . .
71(8) . . .
80(9) . . .
101(10) . . .
100(10) . . .
74(9) . . .
93(10) . . .
94(10) . . .
91(10) . . .
88(9) . . .
96(10) . . .
82(9) . . .
80(9) . . .
74(9) . . .
80(9) . . .
86(9) . . .
93(10) . . .
82(9) . . .
91(10) . . .
93(10) . . .
85(9) . . .
94(10) . . .
96(10) . . .
95(10) . . .
90(9) . . .
94(10) . . .
93(10) . . .
79(9) . . .
97(10) . . .
77(9) . . .
88(9) . . .
83(9) . . .
96(10) . . .
79(9) . . .
92(10) . . .
92(10) . . .
87(9) . . .
86(9) . . .
92(10) . . .
78(9) . . .
92(10) . . .
93(10) . . .
87(9) . . .
87(9) . . .
91(10) . . .
90(9) . . .
89(9) . . .
76(9) . . .
84(9) . . .
77(9) . . .
89(9) . . .
83(9) . . .
96(10) . . .
84(9) . . .
86(9) . . .
78(9) . . .
85(9) . . .
110(10) . . .
95(10) . . .
88(9) . . .
83(9) . . .
90(9) . . .
91(10) . . .
99(10) . . .
102(10) . . .
93(10) . . .
109(10) . . .
91(10) . . .
89(9) . . .
89(9) . . .
80(9) . . .
80(9) . . .
111(11) . . .
111(11) . . .
85(9) . . .
93(10) . . .
85(9) . . .
91(10) . . .
82(9) . . .
107(10) . . .
87(9) . . .
98(10) . . .
106(10) . . .
84(9) . . .
82(9) . . .
73(9) . . .
93(10) . . .
84(9) . . .
86(9) . . .
98(10) . . .
79(9) . . .
94(10) . . .
93(10) . . .
93(10) . . .
84(9) . . .
108(10) . . .
91(10) . . .
88(9) . . .
88(9) . . .
90(9) . . .
90(9) . . .
83(9) . . .
90(9) . . .
88(9) . . .
91(10) . . .
82(9) . . .
106(10) . . .
103(10) . . .
110(10) . . .
95(10) . . .
83(9) . . .
88(9) . . .
90(9) . . .
91(10) . . .
90(9) . . .
102(10) . . .
94(10) . . .
85(9) . . .
94(10) . . .
97(10) . . .
85(9) . . .
92(10) . . .
111(11) . . .
80(9) . . .
73(9) . . .
79(9) . . .
94(10) . . .
83(9) . . .
97(10) . . .
101(10) . . .
107(10) . . .
95(10) . . .
93(10) . . .
101(10) . . .
86(9) . . .
90(9) . . .
87(9) . . .
84(9) . . .
85(9) . . .
90(9) . . .
98(10) . . .
85(9) . . .
107(10) . . .
91(10) . . .
89(9) . . .
82(9) . . .
91(10) . . .
86(9) . . .
95(10) . . .
89(9) . . .
91(10) . . .
83(9) . . .
92(10) . . .
102(10) . . .
86(9) . . .
84(9) . . .
102(10) . . .
89(9) . . .
82(9) . . .
93(10) . . .
74(9) . . .
83(9) . . .
95(10) . . .
87(9) . . .
89(9) . . .
85(9) . . .
101(10) . . .
75(9) . . .
99(10) . . .
87(9) . . .
85(9) . . .
90(9) . . .
75(9) . . .
91(10) . . .
96(10) . . .
86(9) . . .
94(10) . . .
81(9) . . .
78(9) . . .
91(10) . . .
88(9) . . .
80(9) . . .
93(10) . . .
90(9) . . .
91(10) . . .
91(10) . . .
93(10) . . .
87(9) . . .
94(10) . . .
101(10) . . .
86(9) . . .
90(9) . . .
91(10) . . .
85(9) . . .
90(9) . . .
87(9) . . .
84(9) . . .
93(10) . . .
93(10) . . .
95(10) . . .
86(9) . . .
94(10) . . .
86(9) . . .
96(10) . . .
82(9) . . .
89(9) . . .
89(9) . . .
84(9) . . .
92(10) . . .
90(9) . . .
91(10) . . .
94(10) . . .
95(10) . . .
92(10) . . .
79(9) . . .
103(10) . . .
108(10) . . .
88(9) . . .
89(9) . . .
94(10) . . .
89(9) . . .
76(9) . . .
79(9) . . .
87(9) . . .
98(10) . . .
96(10) . . .
112(11) . . .
91(10) . . .
87(9) . . .
93(10) . . .
89(9) . . .
96(10) . . .
99(10) . . .
94(10) . . .
85(9) . . .
93(10) . . .
85(9) . . .
92(10) . . .
101(10) . . .
98(10) . . .
87(9) . . .
91(10) . . .
79(9) . . .
90(9) . . .
97(10) . . .
82(9) . . .
90(9) . . .
76(9) . . .
82(9) . . .
73(9) . . .
92(10) . . .
92(10) . . .
94(10) . . .
84(9) . . .
87(9) . . .
96(10) . . .
110(10) . . .
84(9) . . .
81(9) . . .
95(10) . . .
71(8) . . .
78(9) . . .
99(10) . . .
87(9) . . .
102(10) . . .
92(10) . . .
89(9) . . .
80(9) . . .
96(10) . . .
90(9) . . .
92(10) . . .
98(10) . . .
113(11) . . .
94(10) . . .
79(9) . . .
83(9) . . .
97(10) . . .
92(10) . . .
73(9) . . .
103(10) . . .
78(9) . . .
99(10) . . .
87(9) . . .
88(9) . . .
89(9) . . .
82(9) . . .
73(9) . . .
78(9) . . .
89(9) . . .
96(10) . . .
91(10) . . .
84(9) . . .
91(10) . . .
82(9) . . .
95(10) . . .
94(10) . . .
94(10) . . .
87(9) . . .
100(10) . . .
84(9) . . .
96(10) . . .
99(10) . . .
89(9) . . .
87(9) . . .
78(9) . . .
78(9) . . .
82(9) . . .
83(9) . . .
94(10) . . .
83(9) . . .
92(10) . . .
98(10) . . .
107(10) . . .
101(10) . . .
95(10) . . .
78(9) . . .
65(8) . . .
83(9) . . .
81(9) . . .
89(9) . . .
82(9) . . .
107(10) . . .
91(10) . . .
85(9) . . .
89(9) . . .
99(10) . . .
97(10) . . .
100(10) . . .
81(9) . . .
91(10) . . .
95(10) . . .
99(10) . . .
98(10) . . .
95(10) . . .
102(10) . . .
75(9) . . .
88(9) . . .
81(9) . . .
84(9) . . .
95(10) . . .
105(10) . . .
87(9) . . .
88(9) . . .
89(9) . . .
92(10) . . .
91(10) . . .
84(9) . . .
84(9) . . .
84(9) . . .
89(9) . . .
99(10) . . .
101(10) . . .
101(10) . . .
101(10) . . .
90(9) . . .
91(10) . . .
81(9) . . .
100(10) . . .
88(9) . . .
98(10) . . .
88(9) . . .
94(10) . . .
98(10) . . .
86(9) . . .
94(10) . . .
95(10) . . .
76(9) . . .
82(9) . . .
96(10) . . .
107(10) . . .
94(10) . . .
105(10) . . .
91(10) . . .
102(10) . . .
92(10) . . .
92(10) . . .
91(10) . . .
98(10) . . .
94(10) . . .
84(9) . . .
91(10) . . .
102(10) . . .
92(10) . . .
86(9) . . .
83(9) . . .
90(9) . . .
93(10) . . .
91(10) . . .
100(10) . . .
90(9) . . .
87(9) . . .
95(10) . . .
101(10) . . .
89(9) . . .
89(9) . . .
90(9) . . .
87(9) . . .
90(9) . . .
93(10) . . .
89(9) . . .
83(9) . . .
83(9) . . .
91(10) . . .
79(9) . . .
92(10) . . .
96(10) . . .
86(9) . . .
75(9) . . .
101(10) . . .
85(9) . . .
93(10) . . .
108(10) . . .
87(9) . . .
100(10) . . .
74(9) . . .
104(10) . . .
95(10) . . .
78(9) . . .
83(9) . . .
83(9) . . .
97(10) . . .
86(9) . . .
89(9) . . .
78(9) . . .
96(10) . . .
97(10) . . .
81(9) . . .
83(9) . . .
84(9) . . .
87(9) . . .
91(10) . . .
87(9) . . .
97(10) . . .
80(9) . . .
77(9) . . .
100(10) . . .
96(10) . . .
86(9) . . .
83(9) . . .
79(9) . . .
85(9) . . .
92(10) . . .
102(10) . . .
105(10) . . .
87(9) . . .
119(11) . . .
91(10) . . .
90(9) . . .
85(9) . . .
103(10) . . .
85(9) . . .
89(9) . . .
96(10) . . .
89(9) . . .
89(9) . . .
92(10) . . .
94(10) . . .
95(10) . . .
98(10) . . .
104(10) . . .
79(9) . . .
88(9) . . .
94(10) . . .
91(10) . . .
98(10) . . .
109(10) . . .
97(10) . . .
86(9) . . .
92(10) . . .
95(10) . . .
98(10) . . .
84(9) . . .
86(9) . . .
88(9) . . .
90(9) . . .
90(9) . . .
84(9) . . .
94(10) . . .
101(10) . . .
82(9) . . .
96(10) . . .
86(9) . . .
86(9) . . .
81(9) . . .
97(10) . . .
88(9) . . .
87(9) . . .
76(9) . . .
102(10) . . .
94(10) . . .
81(9) . . .
90(9) . . .
96(10) . . .
93(10) . . .
89(9) . . .
90(9) . . .
96(10) . . .
86(9) . . .
88(9) . . .
96(10) . . .
88(9) . . .
86(9) . . .
95(10) . . .
91(10) . . .
102(10) . . .
75(9) . . .
102(10) . . .
98(10) . . .
102(10) . . .
79(9) . . .
87(9) . . .
94(10) . . .
91(10) . . .
90(9) . . .
77(9) . . .
79(9) . . .
96(10) . . .
95(10) . . .
97(10) . . .
89(9) . . .
96(10) . . .
87(9) . . .
89(9) . . .
77(9) . . .
89(9) . . .
82(9) . . .
102(10) . . .
107(10) . . .
102(10) . . .
80(9) . . .
87(9) . . .
98(10) . . .
98(10) . . .
85(9) . . .
98(10) . . .
82(9) . . .
90(9) . . .
87(9) . . .
91(10) . . .
99(10) . . .
91(10) . . .
93(10) . . .
89(9) . . .
83(9) . . .
104(10) . . .
94(10) . . .
88(9) . . .
93(10) . . .
89(9) . . .
84(9) . . .
89(9) . . .
100(10) . . .
88(9) . . .
95(10) . . .
94(10) . . .
90(9) . . .
93(10) . . .
105(10) . . .
92(10) . . .
87(9) . . .
97(10) . . .
96(10) . . .
94(10) . . .
105(10) . . .
91(10) . . .
90(9) . . .
92(10) . . .
97(10) . . .
96(10) . . .
99(10) . . .
94(10) . . .
97(10) . . .
99(10) . . .
97(10) . . .
92(10) . . .
91(10) . . .
85(9) . . .
76(9) . . .
87(9) . . .
88(9) . . .
83(9) . . .
88(9) . . .
85(9) . . .
99(10) . . .
82(9) . . .
87(9) . . .
98(10) . . .
91(10) . . .
88(9) . . .
90(9) . . .
90(9) . . .
90(9) . . .
102(10) . . .
89(9) . . .
91(10) . . .
100(10) . . .
95(10) . . .
101(10) . . .
98(10) . . .
103(10) . . .
95(10) . . .
97(10) . . .
91(10) . . .
91(10) . . .
98(10) . . .
97(10) . . .
107(10) . . .
89(9) . . .
77(9) . . .
96(10) . . .
97(10) . . .
89(9) . . .
88(9) . . .
88(9) . . .
107(10) . . .
95(10) . . .
83(9) . . .
89(9) . . .
95(10) . . .
91(10) . . .
101(10) . . .
88(9) . . .
94(10) . . .
104(10) . . .
87(9) . . .
97(10) . . .
95(10) . . .
96(10) . . .
94(10) . . .
98(10) . . .
88(9) . . .
95(10) . . .
84(9) . . .
96(10) . . .
98(10) . . .
84(9) . . .
93(10) . . .
84(9) . . .
98(10) . . .
85(9) . . .
106(10) . . .
99(10) . . .
96(10) . . .
86(9) . . .
85(9) . . .
94(10) . . .
113(11) . . .
96(10) . . .
98(10) . . .
96(10) . . .
105(10) . . .
105(10) . . .
106(10) . . .
65(8) . . .
106(10) . . .
101(10) . . .
83(9) . . .
86(9) . . .
105(10) . . .
92(10) . . .
91(10) . . .
88(9) . . .
100(10) . . .
77(9) . . .
93(10) . . .
88(9) . . .
104(10) . . .
105(10) . . .
107(10) . . .
89(9) . . .
82(9) . . .
79(9) . . .
99(10) . . .
106(10) . . .
96(10) . . .
93(10) . . .
105(10) . . .
101(10) . . .
87(9) . . .
81(9) . . .
99(10) . . .
102(10) . . .
94(10) . . .
86(9) . . .
103(10) . . .
97(10) . . .
95(10) . . .
96(10) . . .
91(10) . . .
107(10) . . .
112(11) . . .
112(11) . . .
79(9) . . .
100(10) . . .
93(10) . . .
98(10) . . .
98(10) . . .
103(10) . . .
101(10) . . .
116(11) . . .
110(10) . . .
99(10) . . .
104(10) . . .
95(10) . . .
101(10) . . .
89(9) . . .
109(10) . . .
98(10) . . .
102(10) . . .
98(10) . . .
95(10) . . .
94(10) . . .
96(10) . . .
105(10) . . .
92(10) . . .
105(10) . . .
100(10) . . .
103(10) . . .
115(11) . . .
88(9) . . .
91(10) . . .
101(10) . . .
104(10) . . .
99(10) . . .
114(11) . . .
96(10) . . .
106(10) . . .
105(10) . . .
101(10) . . .
93(10) . . .
97(10) . . .
110(10) . . .
106(10) . . .
127(11) . . .
106(10) . . .
115(11) . . .
106(10) . . .
102(10) . . .
96(10) . . .
121(11) . . .
112(11) . . .
103(10) . . .
118(11) . . .
96(10) . . .
112(11) . . .
97(10) . . .
103(10) . . .
120(11) . . .
110(10) . . .
125(11) . . .
112(11) . . .
109(10) . . .
119(11) . . .
109(10) . . .
98(10) . . .
96(10) . . .
116(11) . . .
111(11) . . .
114(11) . . .
115(11) . . .
118(11) . . .
126(11) . . .
99(10) . . .
138(12) . . .
132(11) . . .
117(11) . . .
128(11) . . .
123(11) . . .
140(12) . . .
142(12) . . .
105(10) . . .
109(10) . . .
116(11) . . .
117(11) . . .
114(11) . . .
117(11) . . .
124(11) . . .
126(11) . . .
129(11) . . .
121(11) . . .
114(11) . . .
137(12) . . .
124(11) . . .
125(11) . . .
141(12) . . .
138(12) . . .
140(12) . . .
126(11) . . .
133(12) . . .
140(12) . . .
134(12) . . .
140(12) . . .
136(12) . . .
144(12) . . .
151(12) . . .
152(12) . . .
156(12) . . .
171(13) . . .
166(13) . . .
144(12) . . .
154(12) . . .
159(13) . . .
164(13) . . .
174(13) . . .
172(13) . . .
147(12) . . .
169(13) . . .
169(13) . . .
191(14) . . .
193(14) . . .
190(14) . . .
180(13) . . .
192(14) . . .
200(14) . . .
209(14) . . .
204(14) . . .
199(14) . . .
227(15) . . .
207(14) . . .
221(15) . . .
238(15) . . .
236(15) . . .
263(16) . . .
247(16) . . .
247(16) . . .
255(16) . . .
299(17) . . .
282(17) . . .
275(17) . . .
317(18) . . .
317(18) . . .
307(18) . . .
317(18) . . .
336(18) . . .
314(18) . . .
335(18) . . .
364(19) . . .
328(18) . . .
364(19) . . .
392(20) . . .
400(20) . . .
378(19) . . .
418(20) . . .
435(21) . . .
429(21) . . .
449(21) . . .
413(20) . . .
459(21) . . .
440(21) . . .
502(22) . . .
510(23) . . .
523(23) . . .
527(23) . . .
504(22) . . .
528(23) . . .
536(23) . . .
520(23) . . .
548(23) . . .
543(23) . . .
537(23) . . .
517(23) . . .
510(23) . . .
477(22) . . .
569(24) . . .
505(22) . . .
554(24) . . .
546(23) . . .
542(23) . . .
484(22) . . .
504(22) . . .
526(23) . . .
499(22) . . .
489(22) . . .
467(22) . . .
496(22) . . .
471(22) . . .
474(22) . . .
463(22) . . .
424(21) . . .
413(20) . . .
442(21) . . .
433(21) . . .
403(20) . . .
368(19) . . .
365(19) . . .
346(19) . . .
355(19) . . .
333(18) . . .
334(18) . . .
302(17) . . .
316(18) . . .
298(17) . . .
309(18) . . .
276(17) . . .
298(17) . . .
282(17) . . .
242(16) . . .
259(16) . . .
259(16) . . .
250(16) . . .
227(15) . . .
230(15) . . .
231(15) . . .
205(14) . . .
240(15) . . .
211(15) . . .
224(15) . . .
196(14) . . .
195(14) . . .
200(14) . . .
203(14) . . .
191(14) . . .
191(14) . . .
180(13) . . .
188(14) . . .
193(14) . . .
183(14) . . .
154(12) . . .
177(13) . . .
153(12) . . .
167(13) . . .
154(12) . . .
177(13) . . .
157(13) . . .
132(11) . . .
154(12) . . .
142(12) . . .
147(12) . . .
145(12) . . .
144(12) . . .
139(12) . . .
139(12) . . .
150(12) . . .
133(12) . . .
146(12) . . .
134(12) . . .
134(12) . . .
128(11) . . .
125(11) . . .
124(11) . . .
121(11) . . .
134(12) . . .
113(11) . . .
118(11) . . .
119(11) . . .
111(11) . . .
110(10) . . .
151(12) . . .
125(11) . . .
122(11) . . .
115(11) . . .
109(10) . . .
115(11) . . .
118(11) . . .
117(11) . . .
113(11) . . .
116(11) . . .
115(11) . . .
105(10) . . .
112(11) . . .
118(11) . . .
115(11) . . .
128(11) . . .
118(11) . . .
133(12) . . .
121(11) . . .
106(10) . . .
113(11) . . .
113(11) . . .
114(11) . . .
121(11) . . .
92(10) . . .
107(10) . . .
119(11) . . .
98(10) . . .
111(11) . . .
107(10) . . .
121(11) . . .
117(11) . . .
98(10) . . .
114(11) . . .
115(11) . . .
98(10) . . .
105(10) . . .
108(10) . . .
103(10) . . .
98(10) . . .
100(10) . . .
122(11) . . .
103(10) . . .
114(11) . . .
100(10) . . .
107(10) . . .
101(10) . . .
107(10) . . .
101(10) . . .
104(10) . . .
110(10) . . .
119(11) . . .
101(10) . . .
104(10) . . .
93(10) . . .
99(10) . . .
107(10) . . .
104(10) . . .
102(10) . . .
114(11) . . .
104(10) . . .
100(10) . . .
97(10) . . .
92(10) . . .
99(10) . . .
96(10) . . .
104(10) . . .
100(10) . . .
89(9) . . .
91(10) . . .
98(10) . . .
98(10) . . .
100(10) . . .
100(10) . . .
101(10) . . .
104(10) . . .
92(10) . . .
89(9) . . .
115(11) . . .
90(9) . . .
101(10) . . .
85(9) . . .
111(11) . . .
113(11) . . .
104(10) . . .
93(10) . . .
101(10) . . .
100(10) . . .
99(10) . . .
92(10) . . .
109(10) . . .
90(9) . . .
88(9) . . .
92(10) . . .
86(9) . . .
99(10) . . .
87(9) . . .
94(10) . . .
129(11) . . .
94(10) . . .
102(10) . . .
93(10) . . .
103(10) . . .
107(10) . . .
103(10) . . .
93(10) . . .
83(9) . . .
92(10) . . .
107(10) . . .
99(10) . . .
106(10) . . .
107(10) . . .
101(10) . . .
92(10) . . .
88(9) . . .
101(10) . . .
98(10) . . .
93(10) . . .
104(10) . . .
97(10) . . .
85(9) . . .
103(10) . . .
99(10) . . .
87(9) . . .
96(10) . . .
93(10) . . .
89(9) . . .
88(9) . . .
100(10) . . .
92(10) . . .
115(11) . . .
78(9) . . .
78(9) . . .
96(10) . . .
110(10) . . .
104(10) . . .
94(10) . . .
87(9) . . .
100(10) . . .
99(10) . . .
102(10) . . .
100(10) . . .
112(11) . . .
91(10) . . .
84(9) . . .
105(10) . . .
98(10) . . .
101(10) . . .
88(9) . . .
96(10) . . .
111(11) . . .
111(11) . . .
96(10) . . .
98(10) . . .
87(9) . . .
95(10) . . .
119(11) . . .
100(10) . . .
98(10) . . .
87(9) . . .
104(10) . . .
113(11) . . .
110(10) . . .
98(10) . . .
93(10) . . .
106(10) . . .
104(10) . . .
96(10) . . .
103(10) . . .
99(10) . . .
101(10) . . .
101(10) . . .
103(10) . . .
98(10) . . .
99(10) . . .
83(9) . . .
96(10) . . .
93(10) . . .
93(10) . . .
76(9) . . .
95(10) . . .
86(9) . . .
90(9) . . .
93(10) . . .
85(9) . . .
109(10) . . .
96(10) . . .
89(9) . . .
96(10) . . .
95(10) . . .
87(9) . . .
83(9) . . .
84(9) . . .
91(10) . . .
86(9) . . .
102(10) . . .
106(10) . . .
95(10) . . .
91(10) . . .
87(9) . . .
102(10) . . .
101(10) . . .
104(10) . . .
103(10) . . .
86(9) . . .
102(10) . . .
95(10) . . .
91(10) . . .
96(10) . . .
89(9) . . .
97(10) . . .
99(10) . . .
86(9) . . .
90(9) . . .
108(10) . . .
87(9) . . .
82(9) . . .
103(10) . . .
104(10) . . .
100(10) . . .
89(9) . . .
101(10) . . .
91(10) . . .
103(10) . . .
95(10) . . .
98(10) . . .
84(9) . . .
84(9) . . .
97(10) . . .
97(10) . . .
94(10) . . .
87(9) . . .
88(9) . . .
95(10) . . .
102(10) . . .
96(10) . . .
111(11) . . .
94(10) . . .
104(10) . . .
104(10) . . .
98(10) . . .
105(10) . . .
104(10) . . .
87(9) . . .
115(11) . . .
96(10) . . .
98(10) . . .
110(10) . . .
95(10) . . .
99(10) . . .
92(10) . . .
99(10) . . .
105(10) . . .
108(10) . . .
105(10) . . .
107(10) . . .
105(10) . . .
101(10) . . .
117(11) . . .
103(10) . . .
115(11) . . .
94(10) . . .
108(10) . . .
98(10) . . .
110(10) . . .
105(10) . . .
102(10) . . .
113(11) . . .
127(11) . . .
108(10) . . .
119(11) . . .
107(10) . . .
97(10) . . .
111(11) . . .
115(11) . . .
110(10) . . .
132(11) . . .
103(10) . . .
125(11) . . .
113(11) . . .
106(10) . . .
113(11) . . .
118(11) . . .
121(11) . . .
115(11) . . .
113(11) . . .
130(11) . . .
108(10) . . .
110(10) . . .
106(10) . . .
123(11) . . .
101(10) . . .
121(11) . . .
121(11) . . .
111(11) . . .
113(11) . . .
136(12) . . .
130(11) . . .
128(11) . . .
126(11) . . .
142(12) . . .
130(11) . . .
123(11) . . .
125(11) . . .
146(12) . . .
135(12) . . .
113(11) . . .
121(11) . . .
143(12) . . .
144(12) . . .
141(12) . . .
155(12) . . .
139(12) . . .
130(11) . . .
143(12) . . .
138(12) . . .
144(12) . . .
157(13) . . .
162(13) . . .
158(13) . . .
156(12) . . .
186(14) . . .
162(13) . . .
180(13) . . .
195(14) . . .
171(13) . . .
182(13) . . .
165(13) . . .
181(13) . . .
188(14) . . .
154(12) . . .
160(13) . . .
194(14) . . .
217(15) . . .
228(15) . . .
221(15) . . .
218(15) . . .
205(14) . . .
238(15) . . .
235(15) . . .
213(15) . . .
239(15) . . .
231(15) . . .
241(16) . . .
233(15) . . .
216(15) . . .
248(16) . . .
285(17) . . .
261(16) . . .
280(17) . . .
256(16) . . .
306(17) . . .
279(17) . . .
319(18) . . .
292(17) . . .
300(17) . . .
314(18) . . .
332(18) . . .
334(18) . . .
345(19) . . .
342(18) . . .
346(19) . . .
362(19) . . .
368(19) . . .
375(19) . . .
345(19) . . .
349(19) . . .
364(19) . . .
369(19) . . .
341(18) . . .
367(19) . . .
345(19) . . .
395(20) . . .
344(19) . . .
354(19) . . .
339(18) . . .
346(19) . . .
323(18) . . .
331(18) . . .
321(18) . . .
345(19) . . .
328(18) . . .
345(19) . . .
305(17) . . .
329(18) . . .
296(17) . . .
301(17) . . .
267(16) . . .
288(17) . . .
291(17) . . .
292(17) . . .
252(16) . . .
251(16) . . .
234(15) . . .
245(16) . . .
244(16) . . .
238(15) . . .
208(14) . . .
208(14) . . .
241(16) . . .
206(14) . . .
212(15) . . .
207(14) . . .
186(14) . . .
173(13) . . .
202(14) . . .
169(13) . . .
174(13) . . .
169(13) . . .
155(12) . . .
146(12) . . .
149(12) . . .
157(13) . . .
152(12) . . .
151(12) . . .
151(12) . . .
156(12) . . .
152(12) . . .
137(12) . . .
151(12) . . .
131(11) . . .
155(12) . . .
137(12) . . .
141(12) . . .
119(11) . . .
155(12) . . .
137(12) . . .
120(11) . . .
129(11) . . .
128(11) . . .
111(11) . . .
120(11) . . .
121(11) . . .
138(12) . . .
123(11) . . .
142(12) . . .
137(12) . . .
125(11) . . .
126(11) . . .
121(11) . . .
136(12) . . .
125(11) . . .
117(11) . . .
107(10) . . .
123(11) . . .
118(11) . . .
113(11) . . .
95(10) . . .
113(11) . . .
125(11) . . .
119(11) . . .
103(10) . . .
126(11) . . .
94(10) . . .
124(11) . . .
99(10) . . .
97(10) . . .
91(10) . . .
122(11) . . .
110(10) . . .
97(10) . . .
109(10) . . .
117(11) . . .
107(10) . . .
106(10) . . .
104(10) . . .
98(10) . . .
91(10) . . .
111(11) . . .
102(10) . . .
92(10) . . .
96(10) . . .
112(11) . . .
116(11) . . .
102(10) . . .
100(10) . . .
94(10) . . .
104(10) . . .
95(10) . . .
126(11) . . .
87(9) . . .
83(9) . . .
96(10) . . .
130(11) . . .
96(10) . . .
109(10) . . .
114(11) . . .
96(10) . . .
110(10) . . .
101(10) . . .
97(10) . . .
88(9) . . .
102(10) . . .
88(9) . . .
91(10) . . .
97(10) . . .
94(10) . . .
91(10) . . .
98(10) . . .
85(9) . . .
105(10) . . .
109(10) . . .
88(9) . . .
103(10) . . .
100(10) . . .
100(10) . . .
92(10) . . .
99(10) . . .
109(10) . . .
100(10) . . .
92(10) . . .
114(11) . . .
97(10) . . .
78(9) . . .
93(10) . . .
94(10) . . .
100(10) . . .
102(10) . . .
105(10) . . .
78(9) . . .
67(8) . . .
106(10) . . .
96(10) . . .
89(9) . . .
89(9) . . .
88(9) . . .
95(10) . . .
99(10) . . .
94(10) . . .
91(10) . . .
95(10) . . .
100(10) . . .
94(10) . . .
78(9) . . .
99(10) . . .
99(10) . . .
101(10) . . .
98(10) . . .
96(10) . . .
86(9) . . .
106(10) . . .
86(9) . . .
90(9) . . .
98(10) . . .
83(9) . . .
99(10) . . .
107(10) . . .
89(9) . . .
91(10) . . .
82(9) . . .
88(9) . . .
70(8) . . .
83(9) . . .
86(9) . . .
99(10) . . .
85(9) . . .
97(10) . . .
87(9) . . .
96(10) . . .
98(10) . . .
86(9) . . .
96(10) . . .
90(9) . . .
84(9) . . .
95(10) . . .
88(9) . . .
86(9) . . .
103(10) . . .
87(9) . . .
94(10) . . .
89(9) . . .
89(9) . . .
92(10) . . .
92(10) . . .
92(10) . . .
83(9) . . .
104(10) . . .
89(9) . . .
86(9) . . .
91(10) . . .
100(10) . . .
100(10) . . .
83(9) . . .
91(10) . . .
85(9) . . .
80(9) . . .
89(9) . . .
77(9) . . .
84(9) . . .
85(9) . . .
92(10) . . .
79(9) . . .
81(9) . . .
104(10) . . .
95(10) . . .
94(10) . . .
79(9) . . .
81(9) . . .
89(9) . . .
94(10) . . .
87(9) . . .
91(10) . . .
82(9) . . .
78(9) . . .
110(10) . . .
89(9) . . .
93(10) . . .
92(10) . . .
83(9) . . .
92(10) . . .
91(10) . . .
88(9) . . .
85(9) . . .
81(9) . . .
99(10) . . .
108(10) . . .
90(9) . . .
86(9) . . .
79(9) . . .
87(9) . . .
102(10) . . .
76(9) . . .
99(10) . . .
86(9) . . .
91(10) . . .
97(10) . . .
80(9) . . .
92(10) . . .
76(9) . . .
86(9) . . .
96(10) . . .
64(8) . . .
83(9) . . .
86(9) . . .
67(8) . . .
90(9) . . .
104(10) . . .
81(9) . . .
98(10) . . .
103(10) . . .
93(10) . . .
101(10) . . .
92(10) . . .
95(10) . . .
93(10) . . .
81(9) . . .
93(10) . . .
85(9) . . .
91(10) . . .
92(10) . . .
84(9) . . .
89(9) . . .
88(9) . . .
96(10) . . .
103(10) . . .
88(9) . . .
80(9) . . .
109(10) . . .
86(9) . . .
90(9) . . .
92(10) . . .
86(9) . . .
91(10) . . .
86(9) . . .
72(8) . . .
66(8) . . .
84(9) . . .
75(9) . . .
95(10) . . .
77(9) . . .
88(9) . . .
89(9) . . .
80(9) . . .
92(10) . . .
77(9) . . .
89(9) . . .
92(10) . . .
91(10) . . .
95(10) . . .
86(9) . . .
83(9) . . .
97(10) . . .
84(9) . . .
103(10) . . .
83(9) . . .
74(9) . . .
87(9) . . .
90(9) . . .
77(9) . . .
91(10) . . .
88(9) . . .
94(10) . . .
89(9) . . .
95(10) . . .
90(9) . . .
90(9) . . .
84(9) . . .
87(9) . . .
72(8) . . .
87(9) . . .
93(10) . . .
80(9) . . .
84(9) . . .
90(9) . . .
78(9) . . .
80(9) . . .
94(10) . . .
79(9) . . .
96(10) . . .
105(10) . . .
84(9) . . .
79(9) . . .
78(9) . . .
99(10) . . .
70(8) . . .
90(9) . . .
84(9) . . .
113(11) . . .
65(8) . . .
79(9) . . .
86(9) . . .
94(10) . . .
97(10) . . .
73(9) . . .
89(9) . . .
99(10) . . .
83(9) . . .
94(10) . . .
94(10) . . .
91(10) . . .
89(9) . . .
74(9) . . .
77(9) . . .
84(9) . . .
92(10) . . .
82(9) . . .
97(10) . . .
83(9) . . .
88(9) . . .
69(8) . . .
88(9) . . .
86(9) . . .
91(10) . . .
80(9) . . .
92(10) . . .
87(9) . . .
87(9) . . .
88(9) . . .
89(9) . . .
82(9) . . .
93(10) . . .
74(9) . . .
84(9) . . .
88(9) . . .
80(9) . . .
88(9) . . .
77(9) . . .
92(10) . . .
87(9) . . .
88(9) . . .
87(9) . . .
87(9) . . .
89(9) . . .
83(9) . . .
94(10) . . .
78(9) . . .
80(9) . . .
86(9) . . .
101(10) . . .
93(10) . . .
78(9) . . .
78(9) . . .
84(9) . . .
88(9) . . .
82(9) . . .
90(9) . . .
91(10) . . .
84(9) . . .
67(8) . . .
90(9) . . .
103(10) . . .
79(9) . . .
94(10) . . .
71(8) . . .
83(9) . . .
88(9) . . .
83(9) . . .
97(10) . . .
87(9) . . .
76(9) . . .
71(8) . . .
82(9) . . .
89(9) . . .
72(8) . . .
82(9) . . .
92(10) . . .
97(10) . . .
87(9) . . .
90(9) . . .
97(10) . . .
81(9) . . .
108(10) . . .
89(9) . . .
82(9) . . .
81(9) . . .
93(10) . . .
69(8) . . .
94(10) . . .
71(8) . . .
75(9) . . .
84(9) . . .
74(9) . . .
73(9) . . .
80(9) . . .
94(10) . . .
90(9) . . .
75(9) . . .
75(9) . . .
108(10) . . .
94(10) . . .
99(10) . . .
98(10) . . .
75(9) . . .
72(8) . . .
89(9) . . .
80(9) . . .
90(9) . . .
93(10) . . .
79(9) . . .
82(9) . . .
96(10) . . .
81(9) . . .
97(10) . . .
88(9) . . .
85(9) . . .
88(9) . . .
72(8) . . .
84(9) . . .
79(9) . . .
85(9) . . .
77(9) . . .
86(9) . . .
87(9) . . .
67(8) . . .
84(9) . . .
74(9) . . .
80(9) . . .
86(9) . . .
84(9) . . .
79(9) . . .
68(8) . . .
91(10) . . .
98(10) . . .
86(9) . . .
83(9) . . .
90(9) . . .
86(9) . . .
77(9) . . .
78(9) . . .
85(9) . . .
89(9) . . .
82(9) . . .
94(10) . . .
90(9) . . .
72(8) . . .
97(10) . . .
85(9) . . .
87(9) . . .
81(9) . . .
88(9) . . .
87(9) . . .
82(9) . . .
80(9) . . .
86(9) . . .
97(10) . . .
95(10) . . .
82(9) . . .
74(9) . . .
82(9) . . .
91(10) . . .
63(8) . . .
83(9) . . .
91(10) . . .
86(9) . . .
87(9) . . .
98(10) . . .
92(10) . . .
81(9) . . .
79(9) . . .
87(9) . . .
82(9) . . .
103(10) . . .
77(9) . . .
94(10) . . .
90(9) . . .
90(9) . . .
83(9) . . .
91(10) . . .
82(9) . . .
79(9) . . .
97(10) . . .
88(9) . . .
99(10) . . .
97(10) . . .
93(10) . . .
74(9) . . .
95(10) . . .
94(10) . . .
76(9) . . .
83(9) . . .
74(9) . . .
89(9) . . .
74(9) . . .
74(9) . . .
92(10) . . .
79(9) . . .
79(9) . . .
91(10) . . .
68(8) . . .
80(9) . . .
88(9) . . .
86(9) . . .
92(10) . . .
98(10) . . .
74(9) . . .
73(9) . . .
76(9) . . .
92(10) . . .
83(9) . . .
91(10) . . .
75(9) . . .
81(9) . . .
81(9) . . .
90(9) . . .
76(9) . . .
91(10) . . .
83(9) . . .
70(8) . . .
77(9) . . .
93(10) . . .
96(10) . . .
80(9) . . .
83(9) . . .
83(9) . . .
90(9) . . .
99(10) . . .
84(9) . . .
81(9) . . .
80(9) . . .
91(10) . . .
82(9) . . .
83(9) . . .
82(9) . . .
100(10) . . .
89(9) . . .
76(9) . . .
92(10) . . .
88(9) . . .
94(10) . . .
81(9) . . .
76(9) . . .
82(9) . . .
86(9) . . .
86(9) . . .
83(9) . . .
83(9) . . .
97(10) . . .
91(10) . . .
97(10) . . .
90(9) . . .
93(10) . . .
99(10) . . .
99(10) . . .
72(8) . . .
92(10) . . .
95(10) . . .
85(9) . . .
83(9) . . .
87(9) . . .
92(10) . . .
79(9) . . .
99(10) . . .
81(9) . . .
77(9) . . .
84(9) . . .
88(9) . . .
81(9) . . .
99(10) . . .
79(9) . . .
83(9) . . .
89(9) . . .
87(9) . . .
74(9) . . .
65(8) . . .
90(9) . . .
68(8) . . .
96(10) . . .
62(8) . . .
83(9) . . .
93(10) . . .
75(9) . . .
68(8) . . .
79(9) . . .
77(9) . . .
82(9) . . .
91(10) . . .
96(10) . . .
85(9) . . .
86(9) . . .
90(9) . . .
80(9) . . .
83(9) . . .
79(9) . . .
74(9) . . .
80(9) . . .
73(9) . . .
84(9) . . .
84(9) . . .
81(9) . . .
85(9) . . .
84(9) . . .
73(9) . . .
80(9) . . .
78(9) . . .
71(8) . . .
93(10) . . .
90(9) . . .
70(8) . . .
94(10) . . .
82(9) . . .
73(9) . . .
90(9) . . .
94(10) . . .
73(9) . . .
100(10) . . .
83(9) . . .
87(9) . . .
95(10) . . .
78(9) . . .
83(9) . . .
94(10) . . .
80(9) . . .
94(10) . . .
86(9) . . .
98(10) . . .
85(9) . . .
85(9) . . .
84(9) . . .
91(10) . . .
91(10) . . .
69(8) . . .
93(10) . . .
75(9) . . .
91(10) . . .
71(8) . . .
89(9) . . .
101(10) . . .
90(9) . . .
89(9) . . .
91(10) . . .
86(9) . . .
87(9) . . .
82(9) . . .
81(9) . . .
78(9) . . .
72(8) . . .
97(10) . . .
101(10) . . .
75(9) . . .
77(9) . . .
72(8) . . .
86(9) . . .
78(9) . . .
86(9) . . .
74(9) . . .
82(9) . . .
76(9) . . .
81(9) . . .
83(9) . . .
80(9) . . .
82(9) . . .
103(10) . . .
88(9) . . .
88(9) . . .
86(9) . . .
86(9) . . .
84(9) . . .
82(9) . . .
74(9) . . .
66(8) . . .
85(9) . . .
86(9) . . .
80(9) . . .
67(8) . . .
78(9) . . .
88(9) . . .
74(9) . . .
81(9) . . .
89(9) . . .
74(9) . . .
76(9) . . .
66(8) . . .
65(8) . . .
78(9) . . .
80(9) . . .
93(10) . . .
81(9) . . .
71(8) . . .
87(9) . . .
103(10) . . .
70(8) . . .
87(9) . . .
99(10) . . .
82(9) . . .
82(9) . . .
82(9) . . .
84(9) . . .
90(9) . . .
91(10) . . .
80(9) . . .
73(9) . . .
62(8) . . .
79(9) . . .
77(9) . . .
82(9) . . .
72(8) . . .
86(9) . . .
80(9) . . .
87(9) . . .
89(9) . . .
94(10) . . .
78(9) . . .
89(9) . . .
90(9) . . .
79(9) . . .
82(9) . . .
80(9) . . .
88(9) . . .
92(10) . . .
80(9) . . .
80(9) . . .
77(9) . . .
77(9) . . .
89(9) . . .
86(9) . . .
78(9) . . .
84(9) . . .
77(9) . . .
88(9) . . .
91(10) . . .
70(8) . . .
85(9) . . .
86(9) . . .
79(9) . . .
81(9) . . .
97(10) . . .
88(9) . . .
88(9) . . .
71(8) . . .
75(9) . . .
75(9) . . .
87(9) . . .
91(10) . . .
77(9) . . .
95(10) . . .
94(10) . . .
86(9) . . .
77(9) . . .
90(9) . . .
72(8) . . .
90(9) . . .
84(9) . . .
74(9) . . .
95(10) . . .
97(10) . . .
89(9) . . .
74(9) . . .
93(10) . . .
82(9) . . .
80(9) . . .
83(9) . . .
82(9) . . .
89(9) . . .
81(9) . . .
92(10) . . .
83(9) . . .
70(8) . . .
83(9) . . .
80(9) . . .
88(9) . . .
71(8) . . .
78(9) . . .
73(9) . . .
81(9) . . .
87(9) . . .
87(9) . . .
80(9) . . .
72(8) . . .
68(8) . . .
80(9) . . .
81(9) . . .
93(10) . . .
88(9) . . .
80(9) . . .
74(9) . . .
79(9) . . .
83(9) . . .
77(9) . . .
76(9) . . .
87(9) . . .
73(9) . . .
93(10) . . .
94(10) . . .
76(9) . . .
82(9) . . .
95(10) . . .
83(9) . . .
88(9) . . .
95(10) . . .
97(10) . . .
79(9) . . .
85(9) . . .
81(9) . . .
89(9) . . .
73(9) . . .
78(9) . . .
103(10) . . .
85(9) . . .
75(9) . . .
87(9) . . .
79(9) . . .
88(9) . . .
86(9) . . .
94(10) . . .
88(9) . . .
81(9) . . .
84(9) . . .
99(10) . . .
77(9) . . .
89(9) . . .
80(9) . . .
85(9) . . .
89(9) . . .
76(9) . . .
78(9) . . .
83(9) . . .
79(9) . . .
86(9) . . .
84(9) . . .
74(9) . . .
87(9) . . .
81(9) . . .
90(9) . . .
80(9) . . .
98(10) . . .
89(9) . . .
78(9) . . .
69(8) . . .
93(10) . . .
80(9) . . .
87(9) . . .
74(9) . . .
78(9) . . .
92(10) . . .
80(9) . . .
90(9) . . .
69(8) . . .
90(9) . . .
73(9) . . .
63(8) . . .
76(9) . . .
103(10) . . .
90(9) . . .
72(8) . . .
75(9) . . .
88(9) . . .
88(9) . . .
82(9) . . .
73(9) . . .
76(9) . . .
81(9) . . .
67(8) . . .
86(9) . . .
80(9) . . .
72(8) . . .
93(10) . . .
82(9) . . .
87(9) . . .
90(9) . . .
66(8) . . .
74(9) . . .
80(9) . . .
84(9) . . .
73(9) . . .
88(9) . . .
94(10) . . .
72(8) . . .
85(9) . . .
75(9) . . .
79(9) . . .
97(10) . . .
69(8) . . .
82(9) . . .
95(10) . . .
73(9) . . .
93(10) . . .
79(9) . . .
79(9) . . .
72(8) . . .
53(7) . . .
76(9) . . .
111(11) . . .
74(9) . . .
71(8) . . .
88(9) . . .
77(9) . . .
84(9) . . .
72(8) . . .
81(9) . . .
94(10) . . .
86(9) . . .
87(9) . . .
103(10) . . .
76(9) . . .
75(9) . . .
72(8) . . .
78(9) . . .
87(9) . . .
83(9) . . .
84(9) . . .
88(9) . . .
85(9) . . .
82(9) . . .
85(9) . . .
86(9) . . .
81(9) . . .
89(9) . . .
83(9) . . .
89(9) . . .
84(9) . . .
76(9) . . .
72(8) . . .
86(9) . . .
69(8) . . .
76(9) . . .
70(8) . . .
86(9) . . .
87(9) . . .
88(9) . . .
87(9) . . .
73(9) . . .
82(9) . . .
79(9) . . .
77(9) . . .
86(9) . . .
97(10) . . .
88(9) . . .
96(10) . . .
65(8) . . .
69(8) . . .
79(9) . . .
73(9) . . .
80(9) . . .
80(9) . . .
73(9) . . .
79(9) . . .
58(8) . . .
71(8) . . .
80(9) . . .
63(8) . . .
74(9) . . .
65(8) . . .
75(9) . . .
87(9) . . .
67(8) . . .
80(9) . . .
80(9) . . .
86(9) . . .
83(9) . . .
78(9) . . .
87(9) . . .
73(9) . . .
83(9) . . .
82(9) . . .
82(9) . . .
64(8) . . .
91(10) . . .
88(9) . . .
78(9) . . .
63(8) . . .
89(9) . . .
85(9) . . .
80(9) . . .
69(8) . . .
72(8) . . .
83(9) . . .
84(9) . . .
85(9) . . .
88(9) . . .
69(8) . . .
89(9) . . .
79(9) . . .
96(10) . . .
70(8) . . .
80(9) . . .
76(9) . . .
85(9) . . .
91(10) . . .
70(8) . . .
78(9) . . .
85(9) . . .
96(10) . . .
78(9) . . .
98(10) . . .
87(9) . . .
83(9) . . .
81(9) . . .
73(9) . . .
86(9) . . .
95(10) . . .
94(10) . . .
79(9) . . .
83(9) . . .
72(8) . . .
63(8) . . .
75(9) . . .
64(8) . . .
72(8) . . .
84(9) . . .
85(9) . . .
76(9) . . .
73(9) . . .
76(9) . . .
73(9) . . .
102(10) . . .
85(9) . . .
87(9) . . .
90(9) . . .
79(9) . . .
69(8) . . .
84(9) . . .
62(8) . . .
73(9) . . .
73(9) . . .
90(9) . . .
77(9) . . .
80(9) . . .
80(9) . . .
89(9) . . .
77(9) . . .
77(9) . . .
84(9) . . .
74(9) . . .
77(9) . . .
71(8) . . .
75(9) . . .
78(9) . . .
81(9) . . .
78(9) . . .
72(8) . . .
76(9) . . .
96(10) . . .
71(8) . . .
90(9) . . .
72(8) . . .
80(9) . . .
84(9) . . .
85(9) . . .
75(9) . . .
78(9) . . .
68(8) . . .
78(9) . . .
89(9) . . .
93(10) . . .
73(9) . . .
87(9) . . .
78(9) . . .
88(9) . . .
65(8) . . .
92(10) . . .
94(10) . . .
69(8) . . .
69(8) . . .
80(9) . . .
74(9) . . .
75(9) . . .
76(9) . . .
69(8) . . .
75(9) . . .
78(9) . . .
79(9) . . .
64(8) . . .
85(9) . . .
78(9) . . .
96(10) . . .
79(9) . . .
92(10) . . .
88(9) . . .
60(8) . . .
73(9) . . .
77(9) . . .
75(9) . . .
76(9) . . .
80(9) . . .
81(9) . . .
85(9) . . .
67(8) . . .
79(9) . . .
84(9) . . .
74(9) . . .
63(8) . . .
97(10) . . .
68(8) . . .
71(8) . . .
76(9) . . .
84(9) . . .
81(9) . . .
76(9) . . .
89(9) . . .
76(9) . . .
78(9) . . .
90(9) . . .
75(9) . . .
82(9) . . .
85(9) . . .
76(9) . . .
76(9) . . .
76(9) . . .
72(8) . . .
66(8) . . .
73(9) . . .
72(8) . . .
84(9) . . .
84(9) . . .
85(9) . . .
85(9) . . .
86(9) . . .
74(9) . . .
82(9) . . .
79(9) . . .
75(9) . . .
85(9) . . .
77(9) . . .
76(9) . . .
82(9) . . .
70(8) . . .
74(9) . . .
76(9) . . .
80(9) . . .
83(9) . . .
81(9) . . .
86(9) . . .
80(9) . . .
82(9) . . .
84(9) . . .
73(9) . . .
81(9) . . .
81(9) . . .
85(9) . . .
73(9) . . .
82(9) . . .
70(8) . . .
73(9) . . .
82(9) . . .
79(9) . . .
86(9) . . .
89(9) . . .
73(9) . . .
99(10) . . .
80(9) . . .
69(8) . . .
64(8) . . .
75(9) . . .
72(8) . . .
75(9) . . .
78(9) . . .
72(8) . . .
78(9) . . .
92(10) . . .
71(8) . . .
83(9) . . .
70(8) . . .
76(9) . . .
72(8) . . .
79(9) . . .
78(9) . . .
73(9) . . .
78(9) . . .
95(10) . . .
75(9) . . .
78(9) . . .
70(8) . . .
70(8) . . .
87(9) . . .
83(9) . . .
77(9) . . .
75(9) . . .
71(8) . . .
78(9) . . .
72(8) . . .
67(8) . . .
82(9) . . .
77(9) . . .
89(9) . . .
74(9) . . .
72(8) . . .
71(8) . . .
80(9) . . .
91(10) . . .
86(9) . . .
69(8) . . .
66(8) . . .
85(9) . . .
72(8) . . .
91(10) . . .
63(8) . . .
77(9) . . .
68(8) . . .
79(9) . . .
70(8) . . .
77(9) . . .
89(9) . . .
88(9) . . .
74(9) . . .
70(8) . . .
89(9) . . .
92(10) . . .
79(9) . . .
71(8) . . .
69(8) . . .
75(9) . . .
81(9) . . .
90(9) . . .
71(8) . . .
68(8) . . .
66(8) . . .
77(9) . . .
91(10) . . .
83(9) . . .
75(9) . . .
68(8) . . .
64(8) . . .
74(9) . . .
88(9) . . .
74(9) . . .
92(10) . . .
79(9) . . .
80(9) . . .
88(9) . . .
74(9) . . .
79(9) . . .
97(10) . . .
68(8) . . .
75(9) . . .
77(9) . . .
80(9) . . .
79(9) . . .
76(9) . . .
79(9) . . .
86(9) . . .
75(9) . . .
83(9) . . .
83(9) . . .
82(9) . . .
57(8) . . .
81(9) . . .
78(9) . . .
87(9) . . .
87(9) . . .
83(9) . . .
95(10) . . .
76(9) . . .
91(10) . . .
89(9) . . .
77(9) . . .
89(9) . . .
70(8) . . .
74(9) . . .
79(9) . . .
70(8) . . .
71(8) . . .
81(9) . . .
85(9) . . .
83(9) . . .
92(10) . . .
69(8) . . .
67(8) . . .
81(9) . . .
80(9) . . .
72(8) . . .
81(9) . . .
75(9) . . .
76(9) . . .
77(9) . . .
81(9) . . .
65(8) . . .
82(9) . . .
71(8) . . .
88(9) . . .
83(9) . . .
68(8) . . .
80(9) . . .
82(9) . . .
77(9) . . .
75(9) . . .
78(9) . . .
90(9) . . .
65(8) . . .
88(9) . . .
91(10) . . .
92(10) . . .
65(8) . . .
75(9) . . .
85(9) . . .
81(9) . . .
86(9) . . .
64(8) . . .
78(9) . . .
86(9) . . .
83(9) . . .
82(9) . . .
88(9) . . .
80(9) . . .
83(9) . . .
87(9) . . .
79(9) . . .
77(9) . . .
72(8) . . .
79(9) . . .
74(9) . . .
83(9) . . .
82(9) . . .
79(9) . . .
89(9) . . .
88(9) . . .
89(9) . . .
84(9) . . .
91(10) . . .
86(9) . . .
91(10) . . .
85(9) . . .
76(9) . . .
71(8) . . .
88(9) . . .
75(9) . . .
88(9) . . .
75(9) . . .
85(9) . . .
72(8) . . .
91(10) . . .
88(9) . . .
86(9) . . .
77(9) . . .
89(9) . . .
84(9) . . .
81(9) . . .
69(8) . . .
71(8) . . .
82(9) . . .
71(8) . . .
82(9) . . .
75(9) . . .
77(9) . . .
82(9) . . .
72(8) . . .
76(9) . . .
83(9) . . .
63(8) . . .
90(9) . . .
82(9) . . .
79(9) . . .
88(9) . . .
85(9) . . .
79(9) . . .
75(9) . . .
80(9) . . .
71(8) . . .
73(9) . . .
68(8) . . .
87(9) . . .
91(10) . . .
82(9) . . .
76(9) . . .
69(8) . . .
74(9) . . .
81(9) . . .
74(9) . . .
68(8) . . .
90(9) . . .
74(9) . . .
71(8) . . .
77(9) . . .
77(9) . . .
86(9) . . .
81(9) . . .
93(10) . . .
86(9) . . .
83(9) . . .
76(9) . . .
85(9) . . .
94(10) . . .
69(8) . . .
82(9) . . .
72(8) . . .
80(9) . . .
73(9) . . .
76(9) . . .
87(9) . . .
68(8) . . .
91(10) . . .
78(9) . . .
84(9) . . .
89(9) . . .
87(9) . . .
68(8) . . .
79(9) . . .
87(9) . . .
75(9) . . .
78(9) . . .
80(9) . . .
75(9) . . .
87(9) . . .
70(8) . . .
92(10) . . .
74(9) . . .
73(9) . . .
71(8) . . .
67(8) . . .
85(9) . . .
74(9) . . .
67(8) . . .
74(9) . . .
73(9) . . .
84(9) . . .
76(9) . . .
78(9) . . .
69(8) . . .
85(9) . . .
73(9) . . .
69(8) . . .
71(8) . . .
83(9) . . .
87(9) . . .
77(9) . . .
67(8) . . .
75(9) . . .
76(9) . . .
84(9) . . .
90(9) . . .
69(8) . . .
87(9) . . .
79(9) . . .
83(9) . . .
78(9) . . .
71(8) . . .
72(8) . . .
83(9) . . .
85(9) . . .
83(9) . . .
72(8) . . .
68(8) . . .
77(9) . . .
63(8) . . .
74(9) . . .
90(9) . . .
64(8) . . .
81(9) . . .
70(8) . . .
82(9) . . .
75(9) . . .
85(9) . . .
81(9) . . .
88(9) . . .
82(9) . . .
67(8) . . .
88(9) . . .
83(9) . . .
83(9) . . .
67(8) . . .
68(8) . . .
85(9) . . .
72(8) . . .
91(10) . . .
84(9) . . .
83(9) . . .
77(9) . . .
65(8) . . .
71(8) . . .
73(9) . . .
81(9) . . .
82(9) . . .
70(8) . . .
82(9) . . .
76(9) . . .
81(9) . . .
96(10) . . .
80(9) . . .
69(8) . . .
67(8) . . .
84(9) . . .
91(10) . . .
74(9) . . .
96(10) . . .
82(9) . . .
67(8) . . .
98(10) . . .
77(9) . . .
91(10) . . .
70(8) . . .
82(9) . . .
75(9) . . .
74(9) . . .
79(9) . . .
68(8) . . .
90(9) . . .
63(8) . . .
73(9) . . .
83(9) . . .
74(9) . . .
80(9) . . .
87(9) . . .
73(9) . . .
89(9) . . .
85(9) . . .
91(10) . . .
65(8) . . .
89(9) . . .
89(9) . . .
77(9) . . .
91(10) . . .
74(9) . . .
72(8) . . .
84(9) . . .
76(9) . . .
86(9) . . .
87(9) . . .
81(9) . . .
85(9) . . .
75(9) . . .
76(9) . . .
79(9) . . .
79(9) . . .
78(9) . . .
89(9) . . .
95(10) . . .
83(9) . . .
78(9) . . .
86(9) . . .
89(9) . . .
78(9) . . .
70(8) . . .
83(9) . . .
87(9) . . .
75(9) . . .
69(8) . . .
78(9) . . .
86(9) . . .
76(9) . . .
75(9) . . .
67(8) . . .
88(9) . . .
81(9) . . .
83(9) . . .
77(9) . . .
90(9) . . .
76(9) . . .
74(9) . . .
78(9) . . .
74(9) . . .
79(9) . . .
87(9) . . .
76(9) . . .
64(8) . . .
91(10) . . .
92(10) . . .
80(9) . . .
80(9) . . .
78(9) . . .
74(9) . . .
74(9) . . .
90(9) . . .
78(9) . . .
68(8) . . .
85(9) . . .
85(9) . . .
88(9) . . .
72(8) . . .
77(9) . . .
65(8) . . .
68(8) . . .
86(9) . . .
79(9) . . .
66(8) . . .
63(8) . . .
72(8) . . .
73(9) . . .
76(9) . . .
66(8) . . .
75(9) . . .
79(9) . . .
68(8) . . .
78(9) . . .
88(9) . . .
86(9) . . .
80(9) . . .
82(9) . . .
83(9) . . .
72(8) . . .
66(8) . . .
74(9) . . .
80(9) . . .
80(9) . . .
75(9) . . .
82(9) . . .
74(9) . . .
65(8) . . .
70(8) . . .
90(9) . . .
85(9) . . .
76(9) . . .
79(9) . . .
84(9) . . .
76(9) . . .
81(9) . . .
87(9) . . .
73(9) . . .
71(8) . . .
80(9) . . .
74(9) . . .
71(8) . . .
56(7) . . .
78(9) . . .
80(9) . . .
84(9) . . .
96(10) . . .
76(9) . . .
88(9) . . .
86(9) . . .
68(8) . . .
79(9) . . .
85(9) . . .
74(9) . . .
76(9) . . .
68(8) . . .
80(9) . . .
94(10) . . .
71(8) . . .
59(8) . . .
78(9) . . .
77(9) . . .
70(8) . . .
68(8) . . .
81(9) . . .
64(8) . . .
66(8) . . .
82(9) . . .
74(9) . . .
78(9) . . .
69(8) . . .
86(9) . . .
75(9) . . .
77(9) . . .
81(9) . . .
87(9) . . .
71(8) . . .
75(9) . . .
75(9) . . .
76(9) . . .
64(8) . . .
73(9) . . .
78(9) . . .
78(9) . . .
72(8) . . .
84(9) . . .
77(9) . . .
78(9) . . .
77(9) . . .
72(8) . . .
83(9) . . .
83(9) . . .
66(8) . . .
92(10) . . .
88(9) . . .
84(9) . . .
75(9) . . .
81(9) . . .
81(9) . . .
74(9) . . .
81(9) . . .
89(9) . . .
73(9) . . .
71(8) . . .
70(8) . . .
89(9) . . .
90(9) . . .
76(9) . . .
83(9) . . .
87(9) . . .
79(9) . . .
77(9) . . .
75(9) . . .
77(9) . . .
69(8) . . .
76(9) . . .
71(8) . . .
76(9) . . .
65(8) . . .
94(10) . . .
81(9) . . .
76(9) . . .
87(9) . . .
77(9) . . .
72(8) . . .
74(9) . . .
84(9) . . .
83(9) . . .
66(8) . . .
67(8) . . .
84(9) . . .
82(9) . . .
74(9) . . .
79(9) . . .
103(10) . . .
84(9) . . .
75(9) . . .
73(9) . . .
65(8) . . .
73(9) . . .
77(9) . . .
83(9) . . .
55(7) . . .
85(9) . . .
87(9) . . .
74(9) . . .
56(7) . . .
87(9) . . .
87(9) . . .
81(9) . . .
93(10) . . .
88(9) . . .
88(9) . . .
77(9) . . .
74(9) . . .
79(9) . . .
76(9) . . .
79(9) . . .
89(9) . . .
81(9) . . .
94(10) . . .
73(9) . . .
78(9) . . .
72(8) . . .
82(9) . . .
73(9) . . .
72(8) . . .
76(9) . . .
78(9) . . .
84(9) . . .
70(8) . . .
70(8) . . .
81(9) . . .
85(9) . . .
85(9) . . .
79(9) . . .
70(8) . . .
95(10) . . .
77(9) . . .
75(9) . . .
67(8) . . .
87(9) . . .
85(9) . . .
76(9) . . .
80(9) . . .
70(8) . . .
80(9) . . .
68(8) . . .
67(8) . . .
89(9) . . .
78(9) . . .
61(8) . . .
81(9) . . .
84(9) . . .
83(9) . . .
66(8) . . .
78(9) . . .
87(9) . . .
67(8) . . .
67(8) . . .
85(9) . . .
84(9) . . .
68(8) . . .
82(9) . . .
87(9) . . .
76(9) . . .
74(9) . . .
89(9) . . .
87(9) . . .
78(9) . . .
74(9) . . .
78(9) . . .
97(10) . . .
79(9) . . .
89(9) . . .
80(9) . . .
95(10) . . .
86(9) . . .
95(10) . . .
82(9) . . .
79(9) . . .
78(9) . . .
68(8) . . .
75(9) . . .
70(8) . . .
88(9) . . .
82(9) . . .
63(8) . . .
81(9) . . .
86(9) . . .
84(9) . . .
79(9) . . .
90(9) . . .
84(9) . . .
77(9) . . .
77(9) . . .
76(9) . . .
77(9) . . .
86(9) . . .
67(8) . . .
87(9) . . .
79(9) . . .
72(8) . . .
77(9) . . .
83(9) . . .
81(9) . . .
74(9) . . .
72(8) . . .
90(9) . . .
73(9) . . .
76(9) . . .
82(9) . . .
77(9) . . .
79(9) . . .
79(9) . . .
76(9) . . .
82(9) . . .
92(10) . . .
71(8) . . .
86(9) . . .
93(10) . . .
75(9) . . .
87(9) . . .
76(9) . . .
70(8) . . .
69(8) . . .
66(8) . . .
79(9) . . .
78(9) . . .
79(9) . . .
84(9) . . .
78(9) . . .
78(9) . . .
78(9) . . .
90(9) . . .
65(8) . . .
72(8) . . .
64(8) . . .
69(8) . . .
63(8) . . .
90(9) . . .
82(9) . . .
77(9) . . .
81(9) . . .
72(8) . . .
79(9) . . .
86(9) . . .
79(9) . . .
77(9) . . .
81(9) . . .
82(9) . . .
75(9) . . .
91(10) . . .
75(9) . . .
82(9) . . .
75(9) . . .
85(9) . . .
68(8) . . .
89(9) . . .
95(10) . . .
85(9) . . .
83(9) . . .
77(9) . . .
81(9) . . .
77(9) . . .
84(9) . . .
92(10) . . .
66(8) . . .
89(9) . . .
78(9) . . .
81(9) . . .
74(9) . . .
85(9) . . .
75(9) . . .
72(8) . . .
80(9) . . .
88(9) . . .
76(9) . . .
73(9) . . .
87(9) . . .
91(10) . . .
99(10) . . .
84(9) . . .
80(9) . . .
83(9) . . .
86(9) . . .
83(9) . . .
81(9) . . .
73(9) . . .
86(9) . . .
68(8) . . .
65(8) . . .
79(9) . . .
82(9) . . .
88(9) . . .
87(9) . . .
81(9) . . .
94(10) . . .
92(10) . . .
96(10) . . .
81(9) . . .
93(10) . . .
84(9) . . .
88(9) . . .
89(9) . . .
80(9) . . .
89(9) . . .
104(10) . . .
66(8) . . .
83(9) . . .
96(10) . . .
73(9) . . .
93(10) . . .
88(9) . . .
82(9) . . .
76(9) . . .
78(9) . . .
94(10) . . .
85(9) . . .
89(9) . . .
94(10) . . .
93(10) . . .
102(10) . . .
81(9) . . .
96(10) . . .
78(9) . . .
71(8) . . .
84(9) . . .
114(11) . . .
91(10) . . .
97(10) . . .
99(10) . . .
91(10) . . .
93(10) . . .
129(11) . . .
111(11) . . .
98(10) . . .
102(10) . . .
108(10) . . .
100(10) . . .
103(10) . . .
95(10) . . .
107(10) . . .
91(10) . . .
113(11) . . .
101(10) . . .
97(10) . . .
90(9) . . .
104(10) . . .
111(11) . . .
112(11) . . .
108(10) . . .
122(11) . . .
114(11) . . .
115(11) . . .
109(10) . . .
115(11) . . .
99(10) . . .
112(11) . . .
106(10) . . .
94(10) . . .
91(10) . . .
106(10) . . .
102(10) . . .
106(10) . . .
112(11) . . .
92(10) . . .
118(11) . . .
106(10) . . .
114(11) . . .
103(10) . . .
92(10) . . .
106(10) . . .
107(10) . . .
98(10) . . .
103(10) . . .
104(10) . . .
105(10) . . .
111(11) . . .
101(10) . . .
104(10) . . .
97(10) . . .
93(10) . . .
103(10) . . .
90(9) . . .
90(9) . . .
110(10) . . .
110(10) . . .
79(9) . . .
105(10) . . .
98(10) . . .
100(10) . . .
76(9) . . .
91(10) . . .
107(10) . . .
79(9) . . .
99(10) . . .
100(10) . . .
79(9) . . .
89(9) . . .
77(9) . . .
80(9) . . .
85(9) . . .
81(9) . . .
94(10) . . .
89(9) . . .
110(10) . . .
81(9) . . .
88(9) . . .
93(10) . . .
83(9) . . .
84(9) . . .
80(9) . . .
84(9) . . .
98(10) . . .
89(9) . . .
93(10) . . .
75(9) . . .
89(9) . . .
80(9) . . .
83(9) . . .
80(9) . . .
77(9) . . .
85(9) . . .
84(9) . . .
99(10) . . .
97(10) . . .
88(9) . . .
83(9) . . .
78(9) . . .
93(10) . . .
76(9) . . .
85(9) . . .
69(8) . . .
85(9) . . .
85(9) . . .
73(9) . . .
70(8) . . .
76(9) . . .
79(9) . . .
84(9) . . .
78(9) . . .
77(9) . . .
89(9) . . .
91(10) . . .
78(9) . . .
71(8) . . .
84(9) . . .
83(9) . . .
85(9) . . .
85(9) . . .
87(9) . . .
78(9) . . .
78(9) . . .
84(9) . . .
89(9) . . .
70(8) . . .
80(9) . . .
86(9) . . .
69(8) . . .
87(9) . . .
83(9) . . .
81(9) . . .
84(9) . . .
87(9) . . .
87(9) . . .
77(9) . . .
76(9) . . .
79(9) . . .
77(9) . . .
72(8) . . .
79(9) . . .
76(9) . . .
95(10) . . .
71(8) . . .
75(9) . . .
80(9) . . .
82(9) . . .
81(9) . . .
77(9) . . .
80(9) . . .
76(9) . . .
76(9) . . .
95(10) . . .
90(9) . . .
71(8) . . .
85(9) . . .
85(9) . . .
80(9) . . .
74(9) . . .
76(9) . . .
82(9) . . .
70(8) . . .
77(9) . . .
77(9) . . .
80(9) . . .
84(9) . . .
77(9) . . .
87(9) . . .
76(9) . . .
59(8) . . .
89(9) . . .
69(8) . . .
70(8) . . .
73(9) . . .
68(8) . . .
82(9) . . .
81(9) . . .
88(9) . . .
82(9) . . .
83(9) . . .
67(8) . . .
86(9) . . .
100(10) . . .
72(8) . . .
78(9) . . .
66(8) . . .
68(8) . . .
69(8) . . .
89(9) . . .
89(9) . . .
81(9) . . .
75(9) . . .
70(8) . . .
73(9) . . .
81(9) . . .
85(9) . . .
90(9) . . .
80(9) . . .
87(9) . . .
72(8) . . .
85(9) . . .
87(9) . . .
80(9) . . .
84(9) . . .
81(9) . . .
78(9) . . .
63(8) . . .
71(8) . . .
66(8) . . .
71(8) . . .
72(8) . . .
66(8) . . .
75(9) . . .
74(9) . . .
84(9) . . .
74(9) . . .
76(9) . . .
69(8) . . .
70(8) . . .
76(9) . . .
78(9) . . .
70(8) . . .
66(8) . . .
69(8) . . .
66(8) . . .
76(9) . . .
74(9) . . .
78(9) . . .
64(8) . . .
68(8) . . .
68(8) . . .
82(9) . . .
76(9) . . .
69(8) . . .
69(8) . . .
69(8) . . .
77(9) . . .
80(9) . . .
90(9) . . .
80(9) . . .
92(10) . . .
74(9) . . .
75(9) . . .
81(9) . . .
77(9) . . .
85(9) . . .
72(8) . . .
94(10) . . .
71(8) . . .
86(9) . . .
75(9) . . .
72(8) . . .
82(9) . . .
72(8) . . .
83(9) . . .
76(9) . . .
72(8) . . .
78(9) . . .
69(8) . . .
90(9) . . .
70(8) . . .
88(9) . . .
79(9) . . .
73(9) . . .
91(10) . . .
64(8) . . .
74(9) . . .
78(9) . . .
78(9) . . .
75(9) . . .
73(9) . . .
70(8) . . .
86(9) . . .
71(8) . . .
62(8) . . .
65(8) . . .
76(9) . . .
88(9) . . .
61(8) . . .
74(9) . . .
69(8) . . .
91(10) . . .
74(9) . . .
91(10) . . .
63(8) . . .
74(9) . . .
73(9) . . .
81(9) . . .
75(9) . . .
75(9) . . .
92(10) . . .
78(9) . . .
72(8) . . .
70(8) . . .
64(8) . . .
87(9) . . .
84(9) . . .
82(9) . . .
70(8) . . .
68(8) . . .
86(9) . . .
85(9) . . .
71(8) . . .
78(9) . . .
81(9) . . .
82(9) . . .
69(8) . . .
74(9) . . .
78(9) . . .
79(9) . . .
84(9) . . .
79(9) . . .
82(9) . . .
78(9) . . .
87(9) . . .
80(9) . . .
82(9) . . .
75(9) . . .
89(9) . . .
80(9) . . .
79(9) . . .
81(9) . . .
78(9) . . .
86(9) . . .
87(9) . . .
80(9) . . .
87(9) . . .
76(9) . . .
92(10) . . .
76(9) . . .
82(9) . . .
78(9) . . .
70(8) . . .
90(9) . . .
76(9) . . .
89(9) . . .
69(8) . . .
84(9) . . .
80(9) . . .
80(9) . . .
74(9) . . .
71(8) . . .
77(9) . . .
56(7) . . .
81(9) . . .
74(9) . . .
69(8) . . .
72(8) . . .
81(9) . . .
79(9) . . .
68(8) . . .
73(9) . . .
76(9) . . .
93(10) . . .
68(8) . . .
73(9) . . .
88(9) . . .
75(9) . . .
72(8) . . .
83(9) . . .
75(9) . . .
81(9) . . .
79(9) . . .
89(9) . . .
76(9) . . .
84(9) . . .
84(9) . . .
77(9) . . .
78(9) . . .
85(9) . . .
68(8) . . .
71(8) . . .
80(9) . . .
75(9) . . .
86(9) . . .
90(9) . . .
71(8) . . .
77(9) . . .
63(8) . . .
82(9) . . .
72(8) . . .
85(9) . . .
69(8) . . .
82(9) . . .
81(9) . . .
74(9) . . .
65(8) . . .
76(9) . . .
71(8) . . .
78(9) . . .
75(9) . . .
73(9) . . .
71(8) . . .
83(9) . . .
72(8) . . .
66(8) . . .
67(8) . . .
77(9) . . .
75(9) . . .
71(8) . . .
65(8) . . .
78(9) . . .
75(9) . . .
81(9) . . .
67(8) . . .
87(9) . . .
71(8) . . .
87(9) . . .
72(8) . . .
69(8) . . .
72(8) . . .
82(9) . . .
70(8) . . .
75(9) . . .
66(8) . . .
88(9) . . .
73(9) . . .
74(9) . . .
69(8) . . .
74(9) . . .
86(9) . . .
83(9) . . .
70(8) . . .
79(9) . . .
65(8) . . .
80(9) . . .
88(9) . . .
77(9) . . .
91(10) . . .
74(9) . . .
74(9) . . .
72(8) . . .
65(8) . . .
84(9) . . .
67(8) . . .
75(9) . . .
76(9) . . .
90(9) . . .
79(9) . . .
80(9) . . .
75(9) . . .
68(8) . . .
63(8) . . .
83(9) . . .
80(9) . . .
67(8) . . .
73(9) . . .
86(9) . . .
79(9) . . .
88(9) . . .
67(8) . . .
73(9) . . .
73(9) . . .
69(8) . . .
75(9) . . .
72(8) . . .
72(8) . . .
74(9) . . .
76(9) . . .
70(8) . . .
65(8) . . .
70(8) . . .
66(8) . . .
82(9) . . .
72(8) . . .
85(9) . . .
74(9) . . .
71(8) . . .
76(9) . . .
66(8) . . .
82(9) . . .
91(10) . . .
75(9) . . .
66(8) . . .
74(9) . . .
83(9) . . .
72(8) . . .
75(9) . . .
74(9) . . .
75(9) . . .
77(9) . . .
61(8) . . .
71(8) . . .
75(9) . . .
73(9) . . .
69(8) . . .
84(9) . . .
70(8) . . .
88(9) . . .
74(9) . . .
75(9) . . .
82(9) . . .
74(9) . . .
77(9) . . .
73(9) . . .
63(8) . . .
77(9) . . .
79(9) . . .
75(9) . . .
77(9) . . .
76(9) . . .
90(9) . . .
80(9) . . .
88(9) . . .
84(9) . . .
70(8) . . .
89(9) . . .
71(8) . . .
74(9) . . .
89(9) . . .
81(9) . . .
80(9) . . .
77(9) . . .
86(9) . . .
70(8) . . .
79(9) . . .
85(9) . . .
74(9) . . .
71(8) . . .
90(9) . . .
76(9) . . .
79(9) . . .
73(9) . . .
72(8) . . .
81(9) . . .
71(8) . . .
66(8) . . .
77(9) . . .
88(9) . . .
80(9) . . .
80(9) . . .
66(8) . . .
70(8) . . .
76(9) . . .
75(9) . . .
76(9) . . .
83(9) . . .
74(9) . . .
78(9) . . .
81(9) . . .
82(9) . . .
61(8) . . .
71(8) . . .
85(9) . . .
71(8) . . .
68(8) . . .
83(9) . . .
84(9) . . .
76(9) . . .
74(9) . . .
71(8) . . .
74(9) . . .
94(10) . . .
80(9) . . .
75(9) . . .
77(9) . . .
63(8) . . .
80(9) . . .
81(9) . . .
67(8) . . .
70(8) . . .
81(9) . . .
75(9) . . .
69(8) . . .
75(9) . . .
84(9) . . .
73(9) . . .
74(9) . . .
81(9) . . .
75(9) . . .
77(9) . . .
79(9) . . .
78(9) . . .
63(8) . . .
82(9) . . .
78(9) . . .
84(9) . . .
91(10) . . .
85(9) . . .
68(8) . . .
72(8) . . .
72(8) . . .
81(9) . . .
83(9) . . .
81(9) . . .
86(9) . . .
69(8) . . .
61(8) . . .
85(9) . . .
70(8) . . .
89(9) . . .
80(9) . . .
75(9) . . .
69(8) . . .
86(9) . . .
70(8) . . .
68(8) . . .
71(8) . . .
78(9) . . .
76(9) . . .
78(9) . . .
68(8) . . .
70(8) . . .
76(9) . . .
80(9) . . .
67(8) . . .
83(9) . . .
77(9) . . .
71(8) . . .
63(8) . . .
66(8) . . .
83(9) . . .
67(8) . . .
71(8) . . .
65(8) . . .
69(8) . . .
65(8) . . .
82(9) . . .
74(9) . . .
67(8) . . .
72(8) . . .
79(9) . . .
77(9) . . .
67(8) . . .
73(9) . . .
74(9) . . .
62(8) . . .
84(9) . . .
82(9) . . .
86(9) . . .
86(9) . . .
84(9) . . .
72(8) . . .
71(8) . . .
69(8) . . .
66(8) . . .
87(9) . . .
68(8) . . .
67(8) . . .
69(8) . . .
81(9) . . .
77(9) . . .
59(8) . . .
79(9) . . .
83(9) . . .
69(8) . . .
73(9) . . .
77(9) . . .
76(9) . . .
59(8) . . .
83(9) . . .
81(9) . . .
84(9) . . .
76(9) . . .
81(9) . . .
71(8) . . .
19(4) . . .
0.00(10) . . .
0.00(10) . . .
0.00(10) . . .
0.0(10) . . .
loop_
_refln_index_h
_refln_index_k
_refln_index_l
_refln_observed_status
_refln_F_squared_meas
_refln_F_squared_calc
_refln_phase_calc
_refln_d_spacing
_gsas_i100_meas
0 2 0 o 1465.093 1458.015 180.00 8.19953 5.58
0 0 2 o 66.248 158.862 180.00 6.59756 0.16
1 0 1 o 13258.011 13124.874 0.00 5.87777 51.91
0 3 1 o 1283.948 1383.361 180.00 5.05015 3.71
0 2 2 o 33379.547 32693.066 0.00 5.14021 100.00
0 1 3 o 0.059 0.063 0.00 4.24823 0.00
1 1 2 o 3978.338 3804.761 0.00 4.47689 18.09
1 2 1 o 1789.374 1834.292 0.00 4.77715 9.26
0 4 0 o 2451.060 1295.925 0.00 4.09976 2.34
1 0 3 o 122.644 189.267 180.00 3.65410 0.19
0 0 4 o 126.323 226.956 180.00 3.29878 0.08
0 3 3 o 12672.358 12895.871 0.00 3.42680 16.92
1 2 3 o 705.744 821.426 0.00 3.33766 1.79
1 3 2 o 3682.413 4105.927 0.00 3.54348 10.51
0 4 2 o 4.923 14.932 0.00 3.48221 0.01
1 4 1 o 801.132 864.336 180.00 3.36260 2.06
0 2 4 o 1340.114 1389.652 0.00 3.06039 1.43
0 5 1 o 6.397 34.141 180.00 3.18296 0.01
1 1 4 o 150.606 118.242 0.00 2.90111 0.29
2 0 0 o 2285.543 2316.287 180.00 3.28254 1.40
0 1 5 o 1747.925 1970.536 180.00 2.60550 1.35
2 1 1 o 957.428 875.160 180.00 3.12701 2.13
0 6 0 o 1862.138 1863.713 0.00 2.73318 0.79
2 2 0 o 65.484 68.573 0.00 3.04742 0.07
2 0 2 o 398.259 236.282 0.00 2.93888 0.39
1 0 5 o 584.625 804.834 180.00 2.44860 0.40
1 3 4 o 30.129 30.550 0.00 2.59445 0.05
2 2 2 o 2368.714 2115.947 180.00 2.76655 4.13
1 5 2 o 2912.598 2841.661 180.00 2.68089 4.77
2 3 1 o 662.762 598.441 0.00 2.75224 1.14
1 4 3 o 5675.939 5807.822 0.00 2.72785 9.63
2 1 3 o 1077.589 1061.019 0.00 2.59748 1.66
0 4 4 o 11485.155 12934.929 0.00 2.57010 8.65
0 6 2 o 133.917 407.343 0.00 2.52507 0.10
0 0 6 o 3567.261 3408.593 0.00 2.19919 0.99
1 6 1 o 571.362 849.520 0.00 2.47834 0.80
2 4 0 o 1317.954 1411.637 180.00 2.56240 0.99
0 5 3 o 374.452 546.473 180.00 2.62928 0.30
0 2 6 o 323.901 402.136 180.00 2.12411 0.17
1 1 6 o 1366.110 1179.099 180.00 2.06864 1.34
2 2 4 o 1.224 0.747 180.00 2.23844 0.00
2 4 2 o 218.206 304.084 180.00 2.38858 0.28
2 5 1 o 171.381 56.841 0.00 2.28509 0.20
0 8 0 o 74.403 57.489 0.00 2.04988 0.02
1 4 5 o 92.218 84.045 180.00 2.10220 0.09
0 1 7 o 509.314 857.759 0.00 1.87269 0.21
2 6 0 o 2836.542 2553.156 180.00 2.10040 1.43
1 7 2 o 3009.769 2627.121 0.00 2.09253 3.02
1 5 4 o 6803.294 6493.107 0.00 2.19234 7.48
1 6 3 o 5134.434 4694.965 180.00 2.18867 5.63
1 3 6 o 697.043 874.001 0.00 1.94834 0.61
1 0 7 o 1499.123 1222.055 0.00 1.81181 0.57
0 4 6 o 1613.372 1997.108 180.00 1.93797 0.70
0 5 5 o 25202.959 23112.990 0.00 2.05608 12.21
1 8 1 o 488.458 637.836 180.00 1.93555 0.42
3 0 1 o 3127.439 2667.181 180.00 2.15887 1.67
0 8 2 o 1674.560 2214.559 180.00 1.95757 0.74
0 7 3 o 7206.810 6604.180 0.00 2.06771 3.53
1 2 7 o 1339.844 1220.240 180.00 1.76914 0.97
2 0 6 o 94.290 76.003 180.00 1.82705 0.04
3 1 2 o 3115.140 3007.185 180.00 2.06062 3.03
0 3 7 o 1300.370 1167.229 0.00 1.78204 0.48
2 5 3 o 186.357 166.105 0.00 2.05213 0.18
0 6 4 o 8000.478 7224.186 180.00 2.10464 4.06
3 2 1 o 54.574 48.895 0.00 2.08772 0.05
2 3 5 o 369.055 765.981 0.00 1.92500 0.31
0 9 1 o 5054.032 3935.264 0.00 1.80499 1.90
2 7 1 o 228.995 642.431 180.00 1.88728 0.19
0 0 8 o 13.444 21.295 180.00 1.64939 0.00
3 0 3 o 2396.128 2991.838 0.00 1.95926 1.06
2 2 6 o 1393.897 1253.443 180.00 1.78331 1.02
0 2 8 o 478.393 592.956 180.00 1.61700 0.14
3 2 3 o 4816.480 4640.728 180.00 1.90561 4.02
3 3 2 o 891.747 833.849 0.00 1.94164 0.77
1 1 8 o 680.154 1036.034 0.00 1.59212 0.40
3 4 1 o 637.007 608.140 180.00 1.91022 0.53
3 1 4 o 4561.642 3780.695 0.00 1.81241 3.45
1 5 6 o 1066.651 1059.653 0.00 1.75974 0.76
1 8 3 o 205.780 180.871 0.00 1.78779 0.15
2 8 0 o 60.428 66.996 0.00 1.73870 0.02
1 4 7 o 131.737 203.886 180.00 1.65720 0.08
2 1 7 o 148.708 214.660 0.00 1.62660 0.09
1 9 2 o 21.095 20.388 0.00 1.69669 0.01
1 6 5 o 851.469 716.516 0.00 1.82376 0.65
0 10 0 o 8017.788 11557.631 180.00 1.63991 1.25
1 7 4 o 637.634 503.018 180.00 1.83401 0.49
2 4 6 o 1776.360 1967.236 0.00 1.66883 1.14
3 0 5 o 3444.838 3514.003 180.00 1.68454 1.13
0 9 3 o 62.263 65.293 180.00 1.68338 0.02
1 3 8 o 33.553 52.237 0.00 1.53529 0.02
0 5 7 o 10.064 15.793 0.00 1.63432 0.00
2 5 5 o 2574.651 2623.195 180.00 1.74248 1.80
0 6 6 o 6147.684 6874.150 0.00 1.71340 2.08
2 7 3 o 1452.670 1234.613 180.00 1.74954 1.02
3 3 4 o 210.910 313.943 180.00 1.72986 0.15
0 8 4 o 1019.427 1083.379 0.00 1.74110 0.36
2 8 2 o 48.695 54.891 180.00 1.68130 0.03
2 6 4 o 1361.532 1039.768 0.00 1.77174 0.98
2 3 7 o 1721.036 2274.901 180.00 1.56613 0.98
3 5 2 o 418.682 379.651 0.00 1.75479 0.30
3 4 3 o 316.502 280.155 180.00 1.76776 0.23
0 1 9 o 1573.781 1655.258 0.00 1.46030 0.39
1 10 1 o 217.235 538.414 180.00 1.57958 0.13
0 4 8 o 47.008 82.014 180.00 1.53020 0.01
0 10 2 o 504.617 763.036 0.00 1.59148 0.15
3 6 1 o 1797.381 1732.143 180.00 1.69413 1.19
3 2 5 o 71.170 142.505 0.00 1.65008 0.04
0 7 5 o 1379.802 1075.721 180.00 1.75199 0.49
2 0 8 o 674.874 949.315 180.00 1.47380 0.17
2 9 1 o 3.501 9.365 180.00 1.58164 0.00
1 2 9 o 114.083 43.073 180.00 1.40958 0.05
3 1 6 o 76.933 97.388 180.00 1.54433 0.04
0 11 1 o 4688.690 5480.192 180.00 1.48140 1.20
1 6 7 o 364.404 622.681 0.00 1.51014 0.19
0 0 10 o 4732.223 5576.569 180.00 1.31951 0.48
2 10 0 o 53.698 70.141 0.00 1.46702 0.01
4 0 0 o 2495.927 3305.431 0.00 1.64127 0.39
3 4 5 o 63.858 82.597 180.00 1.55814 0.04
4 1 1 o 1336.137 1262.446 0.00 1.62075 0.81
1 10 3 o 5.825 9.610 180.00 1.49614 0.00
3 5 4 o 305.015 387.404 180.00 1.59380 0.18
3 6 3 o 334.315 457.615 0.00 1.59238 0.20
3 3 6 o 3.065 6.276 0.00 1.49230 0.00
4 2 0 o 360.909 275.582 180.00 1.60935 0.11
0 2 10 o 43.122 43.134 0.00 1.30275 0.01
3 7 2 o 1304.843 1783.164 180.00 1.55419 0.73
4 0 2 o 113.056 148.308 180.00 1.59273 0.03
1 9 4 o 217.920 325.690 0.00 1.54989 0.12
2 5 7 o 1973.844 2145.254 0.00 1.46302 0.98
1 7 6 o 452.981 588.953 0.00 1.55762 0.25
2 1 9 o 1337.618 1537.832 180.00 1.33423 0.56
1 1 10 o 40.147 40.227 0.00 1.28963 0.02
2 6 6 o 1759.555 3027.856 180.00 1.51893 0.94
1 4 9 o 8.461 9.873 0.00 1.35096 0.00
2 9 3 o 37.903 51.198 0.00 1.49790 0.02
2 4 8 o 2041.618 2050.768 180.00 1.38691 0.92
2 8 4 o 1488.438 2022.084 180.00 1.53813 0.82
4 2 2 o 1598.345 1968.627 0.00 1.56350 0.91
1 8 5 o 351.623 554.519 180.00 1.57180 0.20
3 8 1 o 15.497 17.717 0.00 1.48652 0.01
0 6 8 o 19.581 5.344 0.00 1.41217 0.00
4 3 1 o 642.019 780.725 180.00 1.56091 0.36
3 2 7 o 4.915 1.891 0.00 1.40703 0.00
2 7 5 o 1518.182 1693.160 0.00 1.54562 0.84
4 1 3 o 244.436 428.455 180.00 1.53099 0.13
0 12 0 o 2589.247 2881.786 0.00 1.36659 0.28
0 7 7 o 3146.669 4667.855 0.00 1.46863 0.79
0 10 4 o 25.159 37.003 180.00 1.46846 0.01
0 5 9 o 17.208 18.058 180.00 1.33848 0.00
0 11 3 o 1984.580 518.167 0.00 1.41192 0.46
4 4 0 o 768.255 1581.538 0.00 1.52371 0.21
0 9 5 o 797.726 798.297 0.00 1.49943 0.21
4 0 4 o 496.033 792.737 0.00 1.46944 0.12
2 3 9 o 742.657 719.521 0.00 1.30025 0.29
1 3 10 o 5.347 6.020 180.00 1.25887 0.00
0 8 6 o 832.586 817.207 180.00 1.49949 0.22
0 4 10 o 8.572 9.586 0.00 1.25606 0.00
1 12 1 o 18.037 23.130 180.00 1.33108 0.01
4 3 3 o 2244.537 2241.816 0.00 1.48025 1.14
4 4 2 o 1325.733 1168.772 180.00 1.48463 0.68
0 12 2 o 4030.486 4148.084 180.00 1.33818 0.84
2 11 1 o 220.708 260.829 0.00 1.35026 0.09
3 1 8 o 1141.116 1266.937 180.00 1.31293 0.46
4 5 1 o 2248.791 2213.091 0.00 1.45876 1.11
0 1 11 o 1967.475 1517.113 180.00 1.19636 0.33
3 5 6 o 780.025 462.040 180.00 1.40229 0.36
3 4 7 o 178.333 211.138 0.00 1.34872 0.08
4 1 5 o 960.537 913.634 0.00 1.38871 0.43
3 9 2 o 46.381 64.700 180.00 1.36976 0.02
4 6 0 o 8013.510 3166.470 180.00 1.40707 1.85
1 0 11 o 1212.281 1007.172 180.00 1.18002 0.20
3 3 8 o 88.338 85.843 180.00 1.28051 0.03
2 2 10 o 2686.913 1132.410 180.00 1.21088 0.93
0 3 11 o 219.944 158.500 0.00 1.17168 0.04
1 7 8 o 478.188 578.495 0.00 1.32108 0.20
0 13 1 o 2317.099 2571.298 0.00 1.25574 0.43
1 2 11 o 3.202 2.323 0.00 1.16799 0.00
1 11 4 o 27.069 38.778 180.00 1.33035 0.01
1 6 9 o 89.675 103.687 180.00 1.26767 0.03
2 6 8 o 2570.240 2359.760 0.00 1.29722 1.01
2 12 0 o 402.669 474.183 180.00 1.26162 0.08
3 10 1 o 104.661 108.332 0.00 1.30588 0.04
4 4 4 o 826.934 894.866 0.00 1.38327 0.37
4 5 3 o 459.190 376.659 180.00 1.39228 0.21
1 8 7 o 221.528 295.086 0.00 1.35755 0.10
2 5 9 o 2549.681 1950.683 180.00 1.23941 0.92
4 0 6 o 858.594 993.484 180.00 1.31534 0.17
1 5 10 o 34.337 19.270 0.00 1.20341 0.01
2 7 7 o 3675.782 3489.281 180.00 1.34057 1.54
2 10 4 o 592.577 560.150 0.00 1.34044 0.25
4 6 2 o 676.730 1098.385 0.00 1.37612 0.30
2 11 3 o 930.068 845.712 180.00 1.29703 0.37
1 10 5 o 323.032 296.449 0.00 1.36255 0.14
4 3 5 o 58.298 67.458 180.00 1.35051 0.02
1 12 3 o 62.652 60.069 180.00 1.28000 0.02
4 2 6 o 247.093 224.755 0.00 1.29874 0.10
4 7 1 o 2085.938 2019.043 180.00 1.33729 0.87
3 2 9 o 780.921 407.109 180.00 1.20481 0.27
2 8 6 o 2963.865 2518.330 0.00 1.36392 1.29
2 9 5 o 3673.155 3134.003 180.00 1.36388 1.60
0 7 9 o 835.513 774.502 0.00 1.24281 0.15
1 9 6 o 233.541 368.100 180.00 1.37210 0.10
2 12 2 o 1090.691 826.818 0.00 1.23917 0.39
2 4 10 o 1006.300 707.787 0.00 1.17311 0.33
2 1 11 o 785.124 1329.241 0.00 1.12403 0.24
0 6 10 o 556.534 631.885 180.00 1.18828 0.09
0 12 4 o 123.937 151.317 180.00 1.26254 0.02
0 8 8 o 760.401 796.784 0.00 1.28505 0.15
1 4 11 o 7.097 11.794 180.00 1.13398 0.00
0 0 12 o 41.257 89.557 0.00 1.09959 0.00
4 1 7 o 510.629 297.590 180.00 1.23431 0.18
0 11 5 o 818.717 726.241 0.00 1.29802 0.16
0 14 0 o 3641.183 2531.240 180.00 1.17136 0.30
4 8 0 o 1412.670 1435.422 0.00 1.28120 0.27
0 13 3 o 1854.480 673.865 180.00 1.21258 0.32
3 6 7 o 724.085 781.125 180.00 1.26581 0.27
3 9 4 o 63.746 68.552 180.00 1.28895 0.02
3 7 6 o 93.913 88.151 0.00 1.29339 0.04
3 10 3 o 408.082 451.077 180.00 1.25754 0.15
0 9 7 o 29.712 30.618 0.00 1.31010 0.01
0 10 6 o 41.934 47.509 180.00 1.31464 0.01
4 4 6 o 16.171 18.804 180.00 1.25246 0.01
0 5 11 o 228.366 386.285 0.00 1.12657 0.03
4 5 5 o 523.359 545.598 0.00 1.28271 0.20
3 8 5 o 97.256 95.689 180.00 1.30147 0.04
1 14 1 o 24.614 26.325 0.00 1.14877 0.01
4 7 3 o 705.637 744.582 0.00 1.28552 0.27
4 6 4 o 225.975 202.419 180.00 1.29425 0.09
2 3 11 o 390.055 926.427 180.00 1.10349 0.11
5 0 1 o 2443.596 2650.410 0.00 1.30656 0.49
2 13 1 o 1579.182 1074.010 180.00 1.17285 0.51
3 11 2 o 1603.568 563.268 0.00 1.21115 0.55
4 8 2 o 1438.966 1599.089 180.00 1.25771 0.53
3 1 10 o 294.335 500.808 0.00 1.12732 0.09
4 3 7 o 315.517 137.533 0.00 1.20726 0.11
0 14 2 o 377.869 369.942 0.00 1.15332 0.06
4 0 8 o 47.989 32.407 0.00 1.16341 0.01
5 1 2 o 596.762 636.126 0.00 1.28381 0.23
5 2 1 o 515.568 606.494 0.00 1.29029 0.20
2 7 9 o 12.428 8.443 0.00 1.16230 0.00
3 3 10 o 54.267 149.064 180.00 1.10659 0.02
1 8 9 o 897.160 590.621 0.00 1.17331 0.29
5 0 3 o 0.502 0.574 0.00 1.25815 0.00
1 7 10 o 68.205 125.653 180.00 1.13246 0.02
2 6 10 o 0.012 0.023 180.00 1.11732 0.00
3 12 1 o 240.439 225.966 180.00 1.15469 0.08
2 12 4 o 165.198 121.907 0.00 1.17838 0.05
4 2 8 o 211.823 218.677 180.00 1.15188 0.07
5 3 2 o 708.330 687.488 0.00 1.25345 0.26
2 8 8 o 166.921 125.954 180.00 1.19662 0.06
2 11 5 o 646.066 279.518 180.00 1.20708 0.22
5 2 3 o 456.893 472.520 0.00 1.24360 0.17
1 13 4 o 41.077 31.052 180.00 1.15972 0.01
1 12 5 o 30.536 30.536 180.00 1.19332 0.01
1 9 8 o 153.649 98.931 0.00 1.20214 0.05
5 4 1 o 9.622 11.362 180.00 1.24488 0.00
2 13 3 o 73.406 114.315 180.00 1.13745 0.02
1 11 6 o 613.867 179.025 0.00 1.21277 0.21
2 14 0 o 760.838 1783.596 0.00 1.10322 0.11
1 14 3 o 40.160 86.686 180.00 1.11545 0.01
4 10 0 o 1813.243 1333.252 180.00 1.16007 0.29
4 5 7 o 249.168 202.829 0.00 1.15809 0.08
0 8 10 o 77.167 246.005 0.00 1.10952 0.01
4 6 6 o 0.687 0.811 0.00 1.18523 0.00
5 0 5 o 42.449 26.911 180.00 1.17555 0.01
4 8 4 o 11.824 9.825 0.00 1.19429 0.00
4 9 3 o 402.237 253.123 180.00 1.17516 0.13
5 3 4 o 24.939 42.063 0.00 1.19064 0.01
4 7 5 o 92.482 67.400 0.00 1.19778 0.03
0 13 5 o 63.887 94.005 180.00 1.13812 0.01
3 7 8 o 2127.255 2348.965 180.00 1.14814 0.66
5 4 3 o 2440.183 1658.410 0.00 1.20279 0.83
3 6 9 o 574.729 1479.665 0.00 1.11255 0.17
5 5 2 o 697.166 474.012 180.00 1.19868 0.24
3 11 4 o 2878.006 2759.463 180.00 1.15421 0.91
3 12 3 o 1912.970 3148.750 0.00 1.12087 0.57
4 10 2 o 212.452 218.591 0.00 1.14254 0.07
0 9 9 o 895.714 935.280 0.00 1.14227 0.14
4 4 8 o 14.502 25.912 180.00 1.11922 0.00
0 14 4 o 210.852 503.829 180.00 1.10384 0.03
3 10 5 o 987.206 611.494 0.00 1.17505 0.32
3 9 6 o 1905.117 1538.514 180.00 1.18116 0.63
5 6 1 o 523.232 403.407 0.00 1.17880 0.17
0 12 6 o 584.974 410.117 0.00 1.16074 0.09
0 10 8 o 6.730 3.552 180.00 1.16293 0.00
5 1 6 o 132.537 220.240 180.00 1.12471 0.04
4 11 1 o 141.359 322.110 180.00 1.09970 0.04
5 4 5 o 1.385 2.521 180.00 1.13002 0.00
5 5 4 o 2241.146 2216.905 0.00 1.14340 0.70
5 6 3 o 1035.056 1031.420 180.00 1.14288 0.32
5 3 6 o 177.587 424.787 0.00 1.10413 0.05
5 7 2 o 577.341 1061.802 0.00 1.12851 0.17
4 7 7 o 16.683 28.238 0.00 1.09444 0.00
4 10 4 o 130.366 217.112 180.00 1.09437 0.04
5 8 1 o 98.765 188.283 180.00 1.10179 0.03
4 8 6 o 4.575 19.448 0.00 1.10704 0.00
4 9 5 o 3.735 15.784 0.00 1.10701 0.00
2 12 6 o 19.365 31.621 0.00 1.09433 0.01
2 10 8 o 269.440 512.088 0.00 1.09617 0.08
2 11 7 o 513.689 872.260 180.00 1.10152 0.15
1 12 7 o 48.527 181.029 0.00 1.09103 0.01
6 0 0 o 2032.356 3023.739 0.00 1.09418 0.15
