#------------------------------------------------------------------------------
#$Date: 2016-03-21 01:21:50 +0200 (Mon, 21 Mar 2016) $
#$Revision: 178377 $
#$URL: svn://www.crystallography.net/cod/cif/4/00/21/4002124.cif $
#------------------------------------------------------------------------------
#
# This file is available in the Crystallography Open Database (COD),
# http://www.crystallography.net/
#
# All data on this site have been placed in the public domain by the
# contributors.
#
data_4002124
loop_
_publ_author_name
'Nanthamathee, Chompoonoot'
'Ling, Sanliang'
'Slater, Ben'
'Attfield, Martin P.'
_publ_section_title
;
 Contradistinct Thermoresponsive Behavior of Isostructural MIL-53 Type
 Metal--Organic Frameworks by Modifying the Framework Inorganic Anion
;
_journal_name_full               'Chemistry of Materials'
_journal_page_first              141223143002002
_journal_paper_doi               10.1021/cm503311x
_journal_year                    2014
_chemical_formula_sum            'C8 Al F O4'
_chemical_formula_weight         206.06
_chemical_name_systematic        ' ?'
_space_group_IT_number           15
_symmetry_cell_setting           monoclinic
_symmetry_space_group_name_Hall  '-I 2b'
_symmetry_space_group_name_H-M   'I 1 1 2/b'
_audit_creation_date             2014-08-28T12:36
_audit_creation_method           'from EXP file using GSAS2CIF'
_audit_update_record
' 2014-08-28T12:36  Initial CIF as created by GSAS2CIF'
_cell_angle_alpha                90.0
_cell_angle_beta                 90.0
_cell_angle_gamma                90.5819(16)
_cell_formula_units_Z            4
_cell_length_a                   6.55253(14)
_cell_length_b                   16.4362(4)
_cell_length_c                   13.1417(5)
_cell_volume                     1415.27(7)
_computing_structure_refinement  GSAS
_diffrn_radiation_polarisn_ratio 0.95
_diffrn_radiation_probe          x-ray
_diffrn_radiation_wavelength     0.827154
_exptl_absorpt_correction_T_max  1.00000
_exptl_absorpt_correction_T_min  1.00000
_exptl_absorpt_process_details
;   GSAS Absorption/surface roughness correction: function number 0
 No correction is applied.
;
_pd_block_id                     2014-08-28T12:36|11K||
_pd_calc_method                  'Rietveld Refinement'
_pd_instr_location               ' ?'
_pd_meas_2theta_range_inc        0.004
_pd_meas_2theta_range_max        150.01401
_pd_meas_2theta_range_min        0.002
_pd_meas_number_of_points        37504
_pd_phase_name                   11K
_pd_proc_2theta_range_inc        0.004
_pd_proc_2theta_range_max        150.06987
_pd_proc_2theta_range_min        0.05787
_pd_proc_info_datetime           2014-08-28T12:36:00
_pd_proc_info_excluded_regions   ' ?'
_pd_proc_ls_background_function
;   GSAS Background function number 1 with  2 terms.
 Shifted Chebyshev function of 1st kind
      1:    0.00000     2:    0.00000    
;
_pd_proc_ls_peak_cutoff          0.00050
_pd_proc_ls_profile_function
;
 CW Profile function number 4 with  21 terms
 Pseudovoigt profile coefficients as parameterized in
 P. Thompson, D.E. Cox & J.B. Hastings (1987). J. Appl. Cryst.,20,79-83.
 Asymmetry correction of L.W. Finger, D.E. Cox & A. P. Jephcoat (1994).
 J. Appl. Cryst.,27,892-900.
 Microstrain broadening by P.W. Stephens,  (1999). J. Appl. Cryst.,32,281-289.
 Peak tails are ignored  where the intensity is below 0.0005 times the peak
   Aniso. broadening axis   0.0   2.0   2.0
;
_pd_proc_ls_prof_R_factor        0.0784
_pd_proc_ls_prof_wR_expected     0.0337
_pd_proc_ls_prof_wR_factor       0.1117
_pd_proc_number_of_points        37504
_pd_spec_mounting                ' ?'
_refine_ls_goodness_of_fit_all   3.32
_refine_ls_matrix_type           full
_refine_ls_number_parameters     39
_refine_ls_number_restraints     0
_refine_ls_R_Fsqd_factor         0.25215
_refine_ls_shift/su_max          0.02
_refine_ls_shift/su_mean         0.00
_reflns_d_resolution_high        1.080
_reflns_d_resolution_low         8.218
_reflns_limit_h_max              6
_reflns_limit_h_min              -6
_reflns_limit_k_max              15
_reflns_limit_k_min              0
_reflns_limit_l_max              12
_reflns_limit_l_min              0
_reflns_number_total             531
_cod_data_source_file            alf11K.cif
_cod_data_source_block           11K_publ
_cod_depositor_comments
;
The following automatic conversions were performed:

'_geom_bond_publ_flag' value 'N' changed to 'n' according to
/home/saulius/struct/COD-crude-data--automatic-downloads/rss-feeds/ACS/lib/dictionaries/cif_core.dic
dictionary named 'cif_core.dic' version 2.4.2 from 2011-04-26 (22
times).

'_geom_angle_publ_flag' value 'N' changed to 'n' according
to
/home/saulius/struct/COD-crude-data--automatic-downloads/rss-feeds/ACS/lib/dictionaries/cif_core.dic
dictionary named 'cif_core.dic' version 2.4.2 from 2011-04-26 (26
times).

Automatic conversion script
Id: cif_fix_values 2935 2014-11-11 08:27:57Z andrius 
;
_cod_database_code               4002124
#BEGIN Tags that were not found in dictionaries:
_gsas_exptl_extinct_corr_t_min   1.00000
_gsas_exptl_extinct_corr_t_max   1.00000
#END Tags that were not found in dictionaries
loop_
_symmetry_equiv_pos_site_id
_symmetry_equiv_pos_as_xyz
1 +x,+y,+z
2 -x,-y+1/2,+z
-1 -x,-y,-z
-2 +x,+y+1/2,-z
101 +x+1/2,+y+1/2,+z+1/2
102 -x+1/2,-y,+z+1/2
-101 -x+1/2,-y+1/2,-z+1/2
-102 +x+1/2,+y,-z+1/2
loop_
_atom_site_type_symbol
_atom_site_label
_atom_site_fract_x
_atom_site_fract_y
_atom_site_fract_z
_atom_site_occupancy
_atom_site_thermal_displace_type
_atom_site_U_iso_or_equiv
_atom_site_symmetry_multiplicity
Al Al1 0.25 0.25 0.75 1.0 Uiso 0.0219(12) 4
F F 0.0 0.25 0.6902(4) 1.0 Uiso 0.0147(9) 4
O O1 0.1568(7) 0.17440(28) 0.8548(4) 1.0 Uiso 0.0147(9) 8
O O2 -0.1817(7) 0.65761(28) -0.8322(5) 1.0 Uiso 0.0147(9) 8
C C3 -0.2030(13) 0.0237(6) -0.0502(7) 1.0 Uiso 0.0144(13) 8
C C2 0.0028(17) 0.0632(5) 0.9455(7) 1.0 Uiso 0.0144(13) 8
C C1 0.0005(13) 0.1372(5) 0.8659(6) 1.0 Uiso 0.0144(13) 8
C C4 0.1946(14) 0.5403(5) -0.9746(8) 1.0 Uiso 0.0144(13) 8
loop_
_atom_type_symbol
_atom_type_number_in_cell
_atom_type_scat_dispersion_real
_atom_type_scat_dispersion_imag
_atom_type_scat_Cromer_Mann_a1
_atom_type_scat_Cromer_Mann_a2
_atom_type_scat_Cromer_Mann_a3
_atom_type_scat_Cromer_Mann_a4
_atom_type_scat_Cromer_Mann_b1
_atom_type_scat_Cromer_Mann_b2
_atom_type_scat_Cromer_Mann_b3
_atom_type_scat_Cromer_Mann_b4
_atom_type_scat_Cromer_Mann_c
_atom_type_scat_source
Al 4.0 0.000 0.000 6.42020 3.03870 1.90020 0.74260 1.59360 31.5472 1.96460
85.0886 1.11510 International_Tables_Vol_C
F 4.0 0.000 0.000 3.53920 10.2825 2.64120 4.29440 1.51700 0.26150 1.02430
26.1476 0.27760 International_Tables_Vol_C
O 16.0 0.000 0.000 3.04850 13.2771 2.28680 5.70110 1.54630 0.32390 0.86700
32.9089 0.25080 International_Tables_Vol_C
C 32.0 0.000 0.000 2.31000 20.8439 1.02000 10.2075 1.58860 0.56870 0.86500
51.6512 0.21560 International_Tables_Vol_C
loop_
_geom_angle_atom_site_label_1
_geom_angle_atom_site_label_2
_geom_angle_atom_site_label_3
_geom_angle
_geom_angle_site_symmetry_1
_geom_angle_site_symmetry_3
_geom_angle_publ_flag
F Al1 F 180.0 1_555 -101_566 n
F Al1 O1 91.66(16) 1_555 1_555 n
F Al1 O1 88.34(16) 1_555 -101_445 n
F Al1 O2 91.49(17) 1_555 -1_565 n
F Al1 O2 88.51(17) 1_555 101_546 n
F Al1 O1 88.34(16) -101_445 1_555 n
F Al1 O1 91.66(16) -101_445 -101_445 n
F Al1 O2 88.51(17) -101_445 -1_565 n
F Al1 O2 91.49(17) -101_445 101_546 n
O1 Al1 O1 180.0 1_555 -101_445 n
O1 Al1 O2 91.85(21) 1_555 -1_565 n
O1 Al1 O2 88.15(21) 1_555 101_546 n
O1 Al1 O2 88.15(21) -101_445 -1_565 n
O1 Al1 O2 91.85(21) -101_445 101_546 n
O2 Al1 O2 180.0 -1_565 101_546 n
Al1 F Al1 128.75(30) 1_555 2_555 n
Al1 O1 C1 132.3(6) 1_555 1_555 n
Al1 O2 C1 127.5(5) -1_565 -2_565 n
C2 C3 C4 107.5(8) 1_554 2_556 n
C3 C2 C1 109.8(9) 1_556 1_555 n
C3 C2 C4 134.2(7) 1_556 -2_555 n
C1 C2 C4 114.0(9) 1_555 -2_555 n
O1 C1 O2 127.0(8) 1_555 -2_444 n
O1 C1 C2 116.8(8) 1_555 1_555 n
O2 C1 C2 115.3(7) -2_555 1_555 n
C3 C4 C2 115.7(8) 2_554 -2_565 n
loop_
_geom_bond_atom_site_label_1
_geom_bond_atom_site_label_2
_geom_bond_distance
_geom_bond_site_symmetry_2
_geom_bond_publ_flag
Al1 F 1.8168(23) 1_555 n
Al1 F 1.8168(23) -101_445 n
Al1 O1 1.949(5) 1_555 n
Al1 O1 1.949(5) -101_445 n
Al1 O2 1.920(5) -1_565 n
Al1 O2 1.920(5) 101_546 n
F Al1 1.8168(23) 1_555 n
F Al1 1.8168(23) 2_555 n
O1 Al1 1.949(5) 1_555 n
O1 C1 1.196(9) 1_555 n
O2 Al1 1.920(5) -1_565 n
O2 C1 1.320(8) -2_555 n
C3 C2 1.492(10) 1_554 n
C3 C4 1.448(8) 2_556 n
C2 C3 1.492(10) 1_556 n
C2 C1 1.605(7) 1_555 n
C2 C4 1.370(10) -2_545 n
C1 O1 1.196(9) 1_555 n
C1 O2 1.320(8) -2_545 n
C1 C2 1.605(7) 1_555 n
C4 C3 1.448(8) 2_554 n
C4 C2 1.370(10) -2_555 n
loop_
_pd_meas_intensity_total
_pd_proc_ls_weight
_pd_proc_intensity_bkg_calc
_pd_calc_intensity_total
30(5) 0.0 0.0 .
28(5) 0.0 0.0 .
28(5) 0.0 0.0 .
19(4) 0.0 0.0 .
17(4) 0.0 0.0 .
23(5) 0.0 0.0 .
32(6) 0.0 0.0 .
27(5) 0.0 0.0 .
23(5) 0.0 0.0 .
32(6) 0.0 0.0 .
29(5) 0.0 0.0 .
33(6) 0.0 0.0 .
25(5) 0.0 0.0 .
38(6) 0.0 0.0 .
24(5) 0.0 0.0 .
38(6) 0.0 0.0 .
35(6) 0.0 0.0 .
23(5) 0.0 0.0 .
28(5) 0.0 0.0 .
28(5) 0.0 0.0 .
28(5) 0.0 0.0 .
29(5) 0.0 0.0 .
24(5) 0.0 0.0 .
34(6) 0.0 0.0 .
29(5) 0.0 0.0 .
25(5) 0.0 0.0 .
29(5) 0.0 0.0 .
21(5) 0.0 0.0 .
29(5) 0.0 0.0 .
35(6) 0.0 0.0 .
25(5) 0.0 0.0 .
29(5) 0.0 0.0 .
27(5) 0.0 0.0 .
28(5) 0.0 0.0 .
18(4) 0.0 0.0 .
29(5) 0.0 0.0 .
32(6) 0.0 0.0 .
29(5) 0.0 0.0 .
28(5) 0.0 0.0 .
38(6) 0.0 0.0 .
28(5) 0.0 0.0 .
32(6) 0.0 0.0 .
33(6) 0.0 0.0 .
23(5) 0.0 0.0 .
29(5) 0.0 0.0 .
21(5) 0.0 0.0 .
29(5) 0.0 0.0 .
24(5) 0.0 0.0 .
28(5) 0.0 0.0 .
29(5) 0.0 0.0 .
31(6) 0.0 0.0 .
26(5) 0.0 0.0 .
27(5) 0.0 0.0 .
24(5) 0.0 0.0 .
20(4) 0.0 0.0 .
28(5) 0.0 0.0 .
33(6) 0.0 0.0 .
30(5) 0.0 0.0 .
24(5) 0.0 0.0 .
32(6) 0.0 0.0 .
30(5) 0.0 0.0 .
35(6) 0.0 0.0 .
30(5) 0.0 0.0 .
19(4) 0.0 0.0 .
24(5) 0.0 0.0 .
27(5) 0.0 0.0 .
26(5) 0.0 0.0 .
27(5) 0.0 0.0 .
28(5) 0.0 0.0 .
30(5) 0.0 0.0 .
32(6) 0.0 0.0 .
27(5) 0.0 0.0 .
29(5) 0.0 0.0 .
23(5) 0.0 0.0 .
35(6) 0.0 0.0 .
33(6) 0.0 0.0 .
32(6) 0.0 0.0 .
26(5) 0.0 0.0 .
38(6) 0.0 0.0 .
35(6) 0.0 0.0 .
24(5) 0.0 0.0 .
25(5) 0.0 0.0 .
35(6) 0.0 0.0 .
29(5) 0.0 0.0 .
29(5) 0.0 0.0 .
21(5) 0.0 0.0 .
36(6) 0.0 0.0 .
28(5) 0.0 0.0 .
30(5) 0.0 0.0 .
31(6) 0.0 0.0 .
39(6) 0.0 0.0 .
31(6) 0.0 0.0 .
24(5) 0.0 0.0 .
30(5) 0.0 0.0 .
25(5) 0.0 0.0 .
28(5) 0.0 0.0 .
44(7) 0.0 0.0 .
43(7) 0.0 0.0 .
29(5) 0.0 0.0 .
44(7) 0.0 0.0 .
32(6) 0.0 0.0 .
42(6) 0.0 0.0 .
31(6) 0.0 0.0 .
31(6) 0.0 0.0 .
49(7) 0.0 0.0 .
29(5) 0.0 0.0 .
51(7) 0.0 0.0 .
76(9) 0.0 0.0 .
97(10) 0.0 0.0 .
107(10) 0.0 0.0 .
154(12) 0.0 0.0 .
214(15) 0.0 0.0 .
281(17) 0.0 0.0 .
349(19) 0.0 0.0 .
415(20) 0.0 0.0 .
587(24) 0.0 0.0 .
696(26) 0.0 0.0 .
915(30) 0.0 0.0 .
1123(34) 0.0 0.0 .
1365(37) 0.0 0. .
1674(41) 0.0 0. .
1963(44) 0.0 0. .
2087(46) 0.0 0. .
2104(46) 0.0 0. .
2083(46) 0.0 0. .
2031(45) 0.0 0. .
1957(44) 0.0 0. .
1981(45) 0.0 0. .
1919(44) 0.0 0. .
1968(44) 0.0 0. .
1925(44) 0.0 0. .
1858(43) 0.0 0. .
1870(43) 0.0 0. .
1839(43) 0.0 0. .
1704(41) 0.0 0. .
1709(41) 0.0 0. .
1730(42) 0.0 0. .
1656(41) 0.0 0. .
1586(40) 0.0 0. .
1510(39) 0.0 0. .
1426(38) 0.0 0. .
1369(37) 0.0 0. .
1320(36) 0.0 0. .
1207(35) 0.0 0.0 .
1115(33) 0.0 0.0 .
1064(33) 0.0 0.0 .
998(32) 0.0 0.0 .
963(31) 0.0 0.0 .
940(31) 0.0 0.0 .
925(30) 0.0 0.0 .
855(29) 0.0 0.0 .
812(28) 0.0 0.0 .
749(27) 0.0 0.0 .
734(27) 0.0 0.0 .
755(27) 0.0 0.0 .
760(28) 0.0 0.0 .
741(27) 0.0 0.0 .
703(27) 0.0 0.0 .
686(26) 0.0 0.0 .
645(25) 0.0 0.0 .
670(26) 0.0 0.0 .
661(26) 0.0 0.0 .
645(25) 0.0 0.0 .
663(26) 0.0 0.0 .
702(26) 0.0 0.0 .
701(26) 0.0 0.0 .
692(26) 0.0 0.0 .
733(27) 0.0 0.0 .
698(26) 0.0 0.0 .
710(27) 0.0 0.0 .
715(27) 0.0 0.0 .
680(26) 0.0 0.0 .
746(27) 0.0 0.0 .
669(26) 0.0 0.0 .
732(27) 0.0 0.0 .
679(26) 0.0 0.0 .
738(27) 0.0 0.0 .
721(27) 0.0 0.0 .
749(27) 0.0 0.0 .
729(27) 0.0 0.0 .
753(27) 0.0 0.0 .
763(28) 0.0 0.0 .
705(27) 0.0 0.0 .
734(27) 0.0 0.0 .
718(27) 0.0 0.0 .
738(27) 0.0 0.0 .
755(27) 0.0 0.0 .
708(27) 0.0 0.0 .
736(27) 0.0 0.0 .
801(28) 0.0 0.0 .
776(28) 0.0 0.0 .
765(28) 0.0 0.0 .
800(28) 0.0 0.0 .
795(28) 0.0 0.0 .
794(28) 0.0 0.0 .
810(28) 0.0 0.0 .
799(28) 0.0 0.0 .
864(29) 0.0 0.0 .
847(29) 0.0 0.0 .
809(28) 0.0 0.0 .
850(29) 0.0 0.0 .
819(29) 0.0 0.0 .
891(30) 0.0 0.0 .
813(29) 0.0 0.0 .
931(31) 0.0 0.0 .
880(30) 0.0 0.0 .
932(31) 0.0 0.0 .
918(30) 0.0 0.0 .
915(30) 0.0 0.0 .
886(30) 0.0 0.0 .
925(30) 0.0 0.0 .
929(30) 0.0 0.0 .
989(31) 0.0 0.0 .
896(30) 0.0 0.0 .
958(31) 0.0 0.0 .
955(31) 0.0 0.0 .
987(31) 0.0 0.0 .
986(31) 0.0 0.0 .
1036(32) 0.0 0.0 .
1022(32) 0.0 0.0 .
1025(32) 0.0 0.0 .
1003(32) 0.0 0.0 .
1036(32) 0.0 0.0 .
1133(34) 0.0 0.0 .
1013(32) 0.0 0.0 .
1126(34) 0.0 0.0 .
1108(33) 0.0 0.0 .
1101(33) 0.0 0.0 .
1120(33) 0.0 0.0 .
1158(34) 0.0 0.0 .
1164(34) 0.0 0.0 .
1197(35) 0.0 0.0 .
1255(35) 0.0 0. .
1393(37) 0.0 0. .
1557(39) 0.0 0. .
1765(42) 0.0 0. .
2018(45) 0.0 0. .
2233(47) 0.0 0. .
2575(51) 0.0 0. .
2894(54) 0.0 0. .
3233(57) 0.0 0. .
3682(61) 0.0 0. .
4089(64) 0.0 0. .
4621(68) 0.0 0. .
5252(72) 0.0 0. .
5741(76) 0.0 0. .
6417(80) 0.0 0. .
7062(84) 0.0 0. .
7596(87) 0.0 0. .
8492(92) 0.0 0. .
9313(97) 0.0 0. .
10470(100) 0.0 0. .
11440(110) 0.0 0. .
12740(110) 0.0 0. .
13760(120) 0.0 0. .
15900(130) 0.0 0. .
16930(130) 0.0 0. .
19050(140) 0.0 0. .
21080(150) 0.0 0. .
22570(150) 0.0 0. .
24520(160) 0.0 0. .
25870(160) 0.0 0. .
27710(170) 0.0 0. .
28480(170) 0.0 0. .
30380(170) 0.0 0. .
30750(180) 0.0 0. .
31130(180) 0.0 0. .
32880(180) 0.0 0. .
32490(180) 0.0 0. .
32810(180) 0.0 0. .
32840(180) 0.0 0. .
31800(180) 0.0 0. .
32490(180) 0.0 0. .
31900(180) 0.0 0. .
32990(180) 0.0 0. .
32350(180) 0.0 0. .
33680(180) 0.0 0. .
33850(180) 0.0 0. .
34770(190) 0.0 0. .
35150(190) 0.0 0. .
35070(190) 0.0 0. .
35020(190) 0.0 0. .
34970(190) 0.0 0. .
34490(190) 0.0 0. .
35040(190) 0.0 0. .
34520(190) 0.0 0. .
34960(190) 0.0 0. .
34810(190) 0.0 0. .
35160(190) 0.0 0. .
35190(190) 0.0 0. .
35130(190) 0.0 0. .
35070(190) 0.0 0. .
34990(190) 0.0 0. .
34230(190) 0.0 0. .
34290(190) 0.0 0. .
33720(180) 0.0 0. .
33260(180) 0.0 0. .
32950(180) 0.0 0. .
33120(180) 0.0 0. .
32860(180) 0.0 0. .
32080(180) 0.0 0. .
32180(180) 0.0 0. .
31870(180) 0.0 0. .
32190(180) 0.0 0. .
32200(180) 0.0 0. .
31270(180) 0.0 0. .
31360(180) 0.0 0. .
31010(180) 0.0 0. .
30540(180) 0.0 0. .
29690(170) 0.0 0. .
28670(170) 0.0 0. .
28240(170) 0.0 0. .
27980(170) 0.0 0. .
27650(170) 0.0 0. .
26980(160) 0.0 0. .
27810(170) 0.0 0. .
27650(170) 0.0 0. .
28270(170) 0.0 0. .
27660(170) 0.0 0. .
27250(170) 0.0 0. .
26840(160) 0.0 0. .
26760(160) 0.0 0. .
25960(160) 0.0 0. .
25840(160) 0.0 0. .
25620(160) 0.0 0. .
25270(160) 0.0 0. .
25480(160) 0.0 0. .
25820(160) 0.0 0. .
25010(160) 0.0 0. .
25060(160) 0.0 0. .
24750(160) 0.0 0. .
24610(160) 0.0 0. .
23760(150) 0.0 0. .
24120(160) 0.0 0. .
23320(150) 0.0 0. .
23600(150) 0.0 0. .
22820(150) 0.0 0. .
23220(150) 0.0 0. .
22840(150) 0.0 0. .
22640(150) 0.0 0. .
22090(150) 0.0 0. .
22330(150) 0.0 0. .
21880(150) 0.0 0. .
21850(150) 0.0 0. .
21090(150) 0.0 0. .
21430(150) 0.0 0. .
21820(150) 0.0 0. .
21300(150) 0.0 0. .
20840(140) 0.0 0. .
20680(140) 0.0 0. .
20160(140) 0.0 0. .
20190(140) 0.0 0. .
19600(140) 0.0 0. .
19760(140) 0.0 0. .
19930(140) 0.0 0. .
19790(140) 0.0 0. .
19990(140) 0.0 0. .
19580(140) 0.0 0. .
19230(140) 0.0 0. .
19210(140) 0.0 0. .
19250(140) 0.0 0. .
18780(140) 0.0 0. .
18680(140) 0.0 0. .
18290(140) 0.0 0. .
17820(130) 0.0 0. .
17250(130) 0.0 0. .
17670(130) 0.0 0. .
17390(130) 0.0 0. .
17470(130) 0.0 0. .
16950(130) 0.0 0. .
17170(130) 0.0 0. .
16500(130) 0.0 0. .
16650(130) 0.0 0. .
16470(130) 0.0 0. .
16350(130) 0.0 0. .
16400(130) 0.0 0. .
16430(130) 0.0 0. .
16160(130) 0.0 0. .
16770(130) 0.0 0. .
16070(130) 0.0 0. .
16090(130) 0.0 0. .
15970(130) 0.0 0. .
15840(130) 0.0 0. .
15550(130) 0.0 0. .
15440(120) 0.0 0. .
15520(130) 0.0 0. .
15250(120) 0.0 0. .
15620(130) 0.0 0. .
14870(120) 0.0 0. .
14420(120) 0.0 0. .
14570(120) 0.0 0. .
14280(120) 0.0 0. .
14010(120) 0.0 0. .
14590(120) 0.0 0. .
14490(120) 0.0 0. .
14550(120) 0.0 0. .
14780(120) 0.0 0. .
14850(120) 0.0 0. .
14940(120) 0.0 0. .
14420(120) 0.0 0. .
13740(120) 0.0 0. .
14150(120) 0.0 0. .
13910(120) 0.0 0. .
13700(120) 0.0 0. .
13690(120) 0.0 0. .
13790(120) 0.0 0. .
13800(120) 0.0 0. .
13610(120) 0.0 0. .
13550(120) 0.0 0. .
13450(120) 0.0 0. .
13260(120) 0.0 0. .
13240(120) 0.0 0. .
13080(110) 0.0 0. .
13060(110) 0.0 0. .
12920(110) 0.0 0. .
12910(110) 0.0 0. .
13140(120) 0.0 0. .
12850(110) 0.0 0. .
12780(110) 0.0 0. .
12500(110) 0.0 0. .
12560(110) 0.0 0. .
12640(110) 0.0 0. .
12600(110) 0.0 0. .
12650(110) 0.0 0. .
12850(110) 0.0 0. .
12420(110) 0.0 0. .
12480(110) 0.0 0. .
12200(110) 0.0 0. .
11660(110) 0.0 0. .
11580(110) 0.0 0. .
11460(110) 0.0 0. .
11250(110) 0.0 0. .
11440(110) 0.0 0. .
11590(110) 0.0 0. .
11400(110) 0.0 0. .
11860(110) 0.0 0. .
12100(110) 0.0 0. .
11870(110) 0.0 0. .
11830(110) 0.0 0. .
11060(110) 0.0 0. .
11310(110) 0.0 0. .
11340(110) 0.0 0. .
11240(110) 0.0 0. .
11180(110) 0.0 0. .
11160(110) 0.0 0. .
11160(110) 0.0 0. .
11040(110) 0.0 0. .
10960(110) 0.0 0. .
11140(110) 0.0 0. .
10920(100) 0.0 0. .
10690(100) 0.0 0. .
10900(100) 0.0 0. .
10850(100) 0.0 0. .
10540(100) 0.0 0. .
10600(100) 0.0 0. .
10710(100) 0.0 0. .
10660(100) 0.0 0. .
10780(100) 0.0 0. .
10600(100) 0.0 0. .
10270(100) 0.0 0. .
10510(100) 0.0 0. .
10640(100) 0.0 0. .
9920(100) 0.0 0. .
10470(100) 0.0 0. .
10230(100) 0.0 0. .
10290(100) 0.0 0. .
10140(100) 0.0 0. .
9517(98) 0.0 0. .
9593(98) 0.0 0. .
9429(97) 0.0 0. .
9432(97) 0.0 0. .
9366(97) 0.0 0. .
9362(97) 0.0 0. .
9368(97) 0.0 0. .
9190(96) 0.0 0. .
9529(98) 0.0 0. .
9774(99) 0.0 0. .
9798(99) 0.0 0. .
9780(99) 0.0 0. .
9372(97) 0.0 0. .
9130(96) 0.0 0. .
9352(97) 0.0 0. .
9231(96) 0.0 0. .
9064(95) 0.0 0. .
8912(94) 0.0 0. .
9010(95) 0.0 0. .
8988(95) 0.0 0. .
9007(95) 0.0 0. .
8947(95) 0.0 0. .
8805(94) 0.0 0. .
8913(94) 0.0 0. .
8609(93) 0.0 0. .
8480(92) 0.0 0. .
8530(92) 0.0 0. .
8242(91) 0.0 0. .
8452(92) 0.0 0. .
8446(92) 0.0 0. .
8423(92) 0.0 0. .
8363(91) 0.0 0. .
8186(90) 0.0 0. .
8142(90) 0.0 0. .
8261(91) 0.0 0. .
8342(91) 0.0 0. .
8041(90) 0.0 0. .
8399(92) 0.0 0. .
8092(90) 0.0 0. .
8136(90) 0.0 0. .
7804(88) 0.0 0. .
7682(88) 0.0 0. .
7507(87) 0.0 0. .
7466(86) 0.0 0. .
7365(86) 0.0 0. .
7246(85) 0.0 0. .
7291(85) 0.0 0. .
7339(86) 0.0 0. .
7591(87) 0.0 0. .
7455(86) 0.0 0. .
7675(88) 0.0 0. .
7262(85) 0.0 0. .
6936(83) 0.0 0. .
6860(83) 0.0 0. .
6688(82) 0.0 0. .
6687(82) 0.0 0. .
6518(81) 0.0 0. .
6570(81) 0.0 0. .
6440(80) 0.0 0. .
6407(80) 0.0 0. .
6478(80) 0.0 0. .
6256(79) 0.0 0. .
6391(80) 0.0 0. .
6246(79) 0.0 0. .
6200(79) 0.0 0. .
5976(77) 0.0 0. .
5828(76) 0.0 0. .
5766(76) 0.0 0. .
5574(75) 0.0 0. .
5416(74) 0.0 0. .
5256(72) 0.0 0. .
5172(72) 0.0 0. .
5285(73) 0.0 0. .
5228(72) 0.0 0. .
5297(73) 0.0 0. .
5308(73) 0.0 0. .
5470(74) 0.0 0. .
5458(74) 0.0 0. .
5304(73) 0.0 0. .
5218(72) 0.0 0. .
5117(72) 0.0 0. .
4846(70) 0.0 0. .
4926(70) 0.0 0. .
4802(69) 0.0 0. .
4695(69) 0.0 0. .
4777(69) 0.0 0. .
4637(68) 0.0 0. .
4752(69) 0.0 0. .
4765(69) 0.0 0. .
4763(69) 0.0 0. .
4761(69) 0.0 0. .
4720(69) 0.0 0. .
4746(69) 0.0 0. .
4426(67) 0.0 0. .
4318(66) 0.0 0. .
4231(65) 0.0 0. .
4037(64) 0.0 0. .
3970(63) 0.0 0. .
3839(62) 0.0 0. .
3889(62) 0.0 0. .
3608(60) 0.0 0. .
3713(61) 0.0 0. .
3514(59) 0.0 0. .
3416(58) 0.0 0. .
3333(58) 0.0 0. .
3287(57) 0.0 0. .
3101(56) 0.0 0. .
3108(56) 0.0 0. .
3064(55) 0.0 0. .
2941(54) 0.0 0. .
2932(54) 0.0 0. .
2918(54) 0.0 0. .
2897(54) 0.0 0. .
2864(54) 0.0 0. .
2805(53) 0.0 0. .
2945(54) 0.0 0. .
3002(55) 0.0 0. .
3067(55) 0.0 0. .
3035(55) 0.0 0. .
2839(53) 0.0 0. .
2724(52) 0.0 0. .
2874(54) 0.0 0. .
2840(53) 0.0 0. .
2784(53) 0.0 0. .
2723(52) 0.0 0. .
2655(52) 0.0 0. .
2696(52) 0.0 0. .
2664(52) 0.0 0. .
2752(52) 0.0 0. .
2727(52) 0.0 0. .
2812(53) 0.0 0. .
2700(52) 0.0 0. .
2628(51) 0.0 0. .
2636(51) 0.0 0. .
2606(51) 0.0 0. .
2562(51) 0.0 0. .
2605(51) 0.0 0. .
2518(50) 0.0 0. .
2481(50) 0.0 0. .
2382(49) 0.0 0. .
2351(48) 0.0 0. .
2330(48) 0.0 0. .
2266(48) 0.0 0. .
2348(48) 0.0 0. .
2277(48) 0.0 0. .
2151(46) 0.0 0. .
2150(46) 0.0 0. .
2083(46) 0.0 0. .
2059(45) 0.0 0. .
1965(44) 0.0 0. .
1981(45) 0.0 0. .
2004(45) 0.0 0. .
2002(45) 0.0 0. .
1898(44) 0.0 0. .
1925(44) 0.0 0. .
2131(46) 0.0 0. .
2157(46) 0.0 0. .
2068(45) 0.0 0. .
2041(45) 0.0 0. .
1837(43) 0.0 0. .
1942(44) 0.0 0. .
1909(44) 0.0 0. .
1804(42) 0.0 0. .
1814(43) 0.0 0. .
1867(43) 0.0 0. .
1828(43) 0.0 0. .
1815(43) 0.0 0. .
1765(42) 0.0 0. .
1844(43) 0.0 0. .
1871(43) 0.0 0. .
1818(43) 0.0 0. .
1791(42) 0.0 0. .
1700(41) 0.0 0. .
1707(41) 0.0 0. .
1660(41) 0.0 0. .
1708(41) 0.0 0. .
1640(40) 0.0 0. .
1607(40) 0.0 0. .
1552(39) 0.0 0. .
1623(40) 0.0 0. .
1550(39) 0.0 0. .
1582(40) 0.0 0. .
1562(40) 0.0 0. .
1528(39) 0.0 0. .
1545(39) 0.0 0. .
1417(38) 0.0 0. .
1451(38) 0.0 0. .
1412(38) 0.0 0. .
1424(38) 0.0 0. .
1358(37) 0.0 0. .
1438(38) 0.0 0. .
1465(38) 0.0 0. .
1399(37) 0.0 0. .
1434(38) 0.0 0. .
1583(40) 0.0 0. .
1538(39) 0.0 0. .
1549(39) 0.0 0. .
1379(37) 0.0 0. .
1343(37) 0.0 0. .
1393(37) 0.0 0. .
1245(35) 0.0 0. .
1295(36) 0.0 0. .
1227(35) 0.0 0.0 .
1267(36) 0.0 0. .
1244(35) 0.0 0. .
1249(35) 0.0 0. .
1206(35) 0.0 0.0 .
1154(34) 0.0 0.0 .
1126(34) 0.0 0.0 .
1116(33) 0.0 0.0 .
952(31) 0.0 0.0 .
894(30) 0.0 0.0 .
832(29) 0.0 0.0 .
871(30) 0.0 0.0 .
846(29) 0.0 0.0 .
784(28) 0.0 0.0 .
773(28) 0.0 0.0 .
789(28) 0.0 0.0 .
827(29) 0.0 0.0 .
827(29) 0.0 0.0 .
870(29) 0.0 0.0 .
956(31) 0.0 0.0 .
931(31) 0.0 0.0 .
968(31) 0.0 0.0 .
966(31) 0.0 0.0 .
919(30) 0.0 0.0 .
948(31) 0.0 0.0 .
904(30) 0.0 0.0 .
902(30) 0.0 0.0 .
913(30) 0.0 0.0 .
922(30) 0.0 0.0 .
869(29) 0.0 0.0 .
971(31) 0.0 0.0 .
987(31) 0.0 0.0 .
979(31) 0.0 0.0 .
941(31) 0.0 0.0 .
831(29) 0.0 0.0 .
817(29) 0.0 0.0 .
776(28) 0.0 0.0 .
728(27) 0.0 0.0 .
707(27) 0.0 0.0 .
699(26) 0.0 0.0 .
715(27) 0.0 0.0 .
647(25) 0.0 0.0 .
664(26) 0.0 0.0 .
621(25) 0.0 0.0 .
628(25) 0.0 0.0 .
549(23) 0.0 0.0 .
558(24) 0.0 0.0 .
540(23) 0.0 0.0 .
523(23) 0.0 0.0 .
482(22) 0.0 0.0 .
520(23) 0.0 0.0 .
494(22) 0.0 0.0 .
486(22) 0.0 0.0 .
507(23) 0.0 0.0 .
443(21) 0.0 0.0 .
519(23) 0.0 0.0 .
531(23) 0.0 0.0 .
535(23) 0.0 0.0 .
577(24) 0.0 0.0 .
569(24) 0.0 0.0 .
574(24) 0.0 0.0 .
617(25) 0.0 0.0 .
624(25) 0.0 0.0 .
601(25) 0.0 0.0 .
656(26) 0.0 0.0 .
631(25) 0.0 0.0 .
663(26) 0.0 0.0 .
660(26) 0.0 0.0 .
660(26) 0.0 0.0 .
691(26) 0.0 0.0 .
670(26) 0.0 0.0 .
706(27) 0.0 0.0 .
647(25) 0.0 0.0 .
607(25) 0.0 0.0 .
553(24) 0.0 0.0 .
564(24) 0.0 0.0 .
548(23) 0.0 0.0 .
495(22) 0.0 0.0 .
485(22) 0.0 0.0 .
496(22) 0.0 0.0 .
473(22) 0.0 0.0 .
477(22) 0.0 0.0 .
469(22) 0.0 0.0 .
377(19) 0.0 0.0 .
425(21) 0.0 0.0 .
400(20) 0.0 0.0 .
413(20) 0.0 0.0 .
385(20) 0.0 0.0 .
389(20) 0.0 0.0 .
361(19) 0.0 0.0 .
340(18) 0.0 0.0 .
354(19) 0.0 0.0 .
333(18) 0.0 0.0 .
373(19) 0.0 0.0 .
344(19) 0.0 0.0 .
352(19) 0.0 0.0 .
343(19) 0.0 0.0 .
369(19) 0.0 0.0 .
357(19) 0.0 0.0 .
371(19) 0.0 0.0 .
423(21) 0.0 0.0 .
400(20) 0.0 0.0 .
389(20) 0.0 0.0 .
362(19) 0.0 0.0 .
392(20) 0.0 0.0 .
413(20) 0.0 0.0 .
386(20) 0.0 0.0 .
365(19) 0.0 0.0 .
409(20) 0.0 0.0 .
406(20) 0.0 0.0 .
371(19) 0.0 0.0 .
377(19) 0.0 0.0 .
368(19) 0.0 0.0 .
362(19) 0.0 0.0 .
347(19) 0.0 0.0 .
362(19) 0.0 0.0 .
350(19) 0.0 0.0 .
331(18) 0.0 0.0 .
325(18) 0.0 0.0 .
338(18) 0.0 0.0 .
346(19) 0.0 0.0 .
314(18) 0.0 0.0 .
337(18) 0.0 0.0 .
316(18) 0.0 0.0 .
320(18) 0.0 0.0 .
325(18) 0.0 0.0 .
320(18) 0.0 0.0 .
321(18) 0.0 0.0 .
305(17) 0.0 0.0 .
318(18) 0.0 0.0 .
291(17) 0.0 0.0 .
326(18) 0.0 0.0 .
335(18) 0.0 0.0 .
335(18) 0.0 0.0 .
326(18) 0.0 0.0 .
279(17) 0.0 0.0 .
295(17) 0.0 0.0 .
319(18) 0.0 0.0 .
326(18) 0.0 0.0 .
314(18) 0.0 0.0 .
328(18) 0.0 0.0 .
323(18) 0.0 0.0 .
331(18) 0.0 0.0 .
317(18) 0.0 0.0 .
324(18) 0.0 0.0 .
319(18) 0.0 0.0 .
292(17) 0.0 0.0 .
322(18) 0.0 0.0 .
308(18) 0.0 0.0 .
302(17) 0.0 0.0 .
329(18) 0.0 0.0 .
330(18) 0.0 0.0 .
316(18) 0.0 0.0 .
328(18) 0.0 0.0 .
299(17) 0.0 0.0 .
320(18) 0.0 0.0 .
306(17) 0.0 0.0 .
306(17) 0.0 0.0 .
291(17) 0.0 0.0 .
310(18) 0.0 0.0 .
294(17) 0.0 0.0 .
308(18) 0.0 0.0 .
282(17) 0.0 0.0 .
304(17) 0.0 0.0 .
312(18) 0.0 0.0 .
312(18) 0.0 0.0 .
289(17) 0.0 0.0 .
336(18) 0.0 0.0 .
315(18) 0.0 0.0 .
308(18) 0.0 0.0 .
305(17) 0.0 0.0 .
266(16) 0.0 0.0 .
319(18) 0.0 0.0 .
322(18) 0.0 0.0 .
304(17) 0.0 0.0 .
300(17) 0.0 0.0 .
309(18) 0.0 0.0 .
289(17) 0.0 0.0 .
324(18) 0.0 0.0 .
297(17) 0.0 0.0 .
296(17) 0.0 0.0 .
300(17) 0.0 0.0 .
303(17) 0.0 0.0 .
313(18) 0.0 0.0 .
303(17) 0.0 0.0 .
271(16) 0.0 0.0 .
282(17) 0.0 0.0 .
278(17) 0.0 0.0 .
308(18) 0.0 0.0 .
302(17) 0.0 0.0 .
287(17) 0.0 0.0 .
271(16) 0.0 0.0 .
317(18) 0.0 0.0 .
299(17) 0.0 0.0 .
286(17) 0.0 0.0 .
316(18) 0.0 0.0 .
322(18) 0.0 0.0 .
309(18) 0.0 0.0 .
265(16) 0.0 0.0 .
278(17) 0.0 0.0 .
269(16) 0.0 0.0 .
302(17) 0.0 0.0 .
299(17) 0.0 0.0 .
280(17) 0.0 0.0 .
301(17) 0.0 0.0 .
315(18) 0.0 0.0 .
313(18) 0.0 0.0 .
305(17) 0.0 0.0 .
278(17) 0.0 0.0 .
314(18) 0.0 0.0 .
309(18) 0.0 0.0 .
290(17) 0.0 0.0 .
272(16) 0.0 0.0 .
310(18) 0.0 0.0 .
305(17) 0.0 0.0 .
299(17) 0.0 0.0 .
287(17) 0.0 0.0 .
275(17) 0.0 0.0 .
296(17) 0.0 0.0 .
291(17) 0.0 0.0 .
300(17) 0.0 0.0 .
312(18) 0.0 0.0 .
283(17) 0.0 0.0 .
279(17) 0.0 0.0 .
299(17) 0.0 0.0 .
299(17) 0.0 0.0 .
276(17) 0.0 0.0 .
301(17) 0.0 0.0 .
302(17) 0.0 0.0 .
288(17) 0.0 0.0 .
287(17) 0.0 0.0 .
298(17) 0.0 0.0 .
278(17) 0.0 0.0 .
296(17) 0.0 0.0 .
298(17) 0.0 0.0 .
271(16) 0.0 0.0 .
282(17) 0.0 0.0 .
315(18) 0.0 0.0 .
281(17) 0.0 0.0 .
286(17) 0.0 0.0 .
290(17) 0.0 0.0 .
304(17) 0.0 0.0 .
260(16) 0.0 0.0 .
306(17) 0.0 0.0 .
273(17) 0.0 0.0 .
303(17) 0.0 0.0 .
297(17) 0.0 0.0 .
308(18) 0.0 0.0 .
306(17) 0.0 0.0 .
279(17) 0.0 0.0 .
299(17) 0.0 0.0 .
289(17) 0.0 0.0 .
302(17) 0.0 0.0 .
288(17) 0.0 0.0 .
266(16) 0.0 0.0 .
253(16) 0.0 0.0 .
286(17) 0.0 0.0 .
271(16) 0.0 0.0 .
282(17) 0.0 0.0 .
291(17) 0.0 0.0 .
273(17) 0.0 0.0 .
282(17) 0.0 0.0 .
285(17) 0.0 0.0 .
285(17) 0.0 0.0 .
274(17) 0.0 0.0 .
293(17) 0.0 0.0 .
254(16) 0.0 0.0 .
272(16) 0.0 0.0 .
277(17) 0.0 0.0 .
278(17) 0.0 0.0 .
275(17) 0.0 0.0 .
294(17) 0.0 0.0 .
288(17) 0.0 0.0 .
305(17) 0.0 0.0 .
270(16) 0.0 0.0 .
277(17) 0.0 0.0 .
291(17) 0.0 0.0 .
274(17) 0.0 0.0 .
272(16) 0.0 0.0 .
276(17) 0.0 0.0 .
319(18) 0.0 0.0 .
290(17) 0.0 0.0 .
279(17) 0.0 0.0 .
311(18) 0.0 0.0 .
268(16) 0.0 0.0 .
292(17) 0.0 0.0 .
262(16) 0.0 0.0 .
264(16) 0.0 0.0 .
247(16) 0.0 0.0 .
258(16) 0.0 0.0 .
300(17) 0.0 0.0 .
282(17) 0.0 0.0 .
296(17) 0.0 0.0 .
282(17) 0.0 0.0 .
310(18) 0.0 0.0 .
281(17) 0.0 0.0 .
295(17) 0.0 0.0 .
308(18) 0.0 0.0 .
283(17) 0.0 0.0 .
308(18) 0.0 0.0 .
288(17) 0.0 0.0 .
286(17) 0.0 0.0 .
290(17) 0.0 0.0 .
323(18) 0.0 0.0 .
293(17) 0.0 0.0 .
313(18) 0.0 0.0 .
297(17) 0.0 0.0 .
299(17) 0.0 0.0 .
273(17) 0.0 0.0 .
313(18) 0.0 0.0 .
298(17) 0.0 0.0 .
324(18) 0.0 0.0 .
285(17) 0.0 0.0 .
307(18) 0.0 0.0 .
279(17) 0.0 0.0 .
304(17) 0.0 0.0 .
309(18) 0.0 0.0 .
303(17) 0.0 0.0 .
321(18) 0.0 0.0 .
295(17) 0.0 0.0 .
328(18) 0.0 0.0 .
317(18) 0.0 0.0 .
344(19) 0.0 0.0 .
333(18) 0.0 0.0 .
322(18) 0.0 0.0 .
329(18) 0.0 0.0 .
291(17) 0.0 0.0 .
320(18) 0.0 0.0 .
329(18) 0.0 0.0 .
322(18) 0.0 0.0 .
339(18) 0.0 0.0 .
333(18) 0.0 0.0 .
310(18) 0.0 0.0 .
341(18) 0.0 0.0 .
312(18) 0.0 0.0 .
320(18) 0.0 0.0 .
345(19) 0.0 0.0 .
336(18) 0.0 0.0 .
367(19) 0.0 0.0 .
321(18) 0.0 0.0 .
378(19) 0.0 0.0 .
339(18) 0.0 0.0 .
342(18) 0.0 0.0 .
362(19) 0.0 0.0 .
328(18) 0.0 0.0 .
349(19) 0.0 0.0 .
359(19) 0.0 0.0 .
344(19) 0.0 0.0 .
377(19) 0.0 0.0 .
363(19) 0.0 0.0 .
387(20) 0.0 0.0 .
382(20) 0.0 0.0 .
388(20) 0.0 0.0 .
398(20) 0.0 0.0 .
397(20) 0.0 0.0 .
391(20) 0.0 0.0 .
372(19) 0.0 0.0 .
377(19) 0.0 0.0 .
392(20) 0.0 0.0 .
436(21) 0.0 0.0 .
408(20) 0.0 0.0 .
412(20) 0.0 0.0 .
419(20) 0.0 0.0 .
433(21) 0.0 0.0 .
450(21) 0.0 0.0 .
416(20) 0.0 0.0 .
438(21) 0.0 0.0 .
446(21) 0.0 0.0 .
465(22) 0.0 0.0 .
466(22) 0.0 0.0 .
462(21) 0.0 0.0 .
455(21) 0.0 0.0 .
498(22) 0.0 0.0 .
475(22) 0.0 0.0 .
494(22) 0.0 0.0 .
507(23) 0.0 0.0 .
566(24) 0.0 0.0 .
531(23) 0.0 0.0 .
544(23) 0.0 0.0 .
552(23) 0.0 0.0 .
594(24) 0.0 0.0 .
587(24) 0.0 0.0 .
578(24) 0.0 0.0 .
607(25) 0.0 0.0 .
585(24) 0.0 0.0 .
599(24) 0.0 0.0 .
617(25) 0.0 0.0 .
641(25) 0.0 0.0 .
646(25) 0.0 0.0 .
615(25) 0.0 0.0 .
636(25) 0.0 0.0 .
638(25) 0.0 0.0 .
702(26) 0.0 0.0 .
705(27) 0.0 0.0 .
729(27) 0.0 0.0 .
672(26) 0.0 0.0 .
720(27) 0.0 0.0 .
776(28) 0.0 0.0 .
719(27) 0.0 0.0 .
798(28) 0.0 0.0 .
811(28) 0.0 0.0 .
807(28) 0.0 0.0 .
852(29) 0.0 0.0 .
850(29) 0.0 0.0 .
868(29) 0.0 0.0 .
880(30) 0.0 0.0 .
894(30) 0.0 0.0 .
939(31) 0.0 0.0 .
919(30) 0.0 0.0 .
941(31) 0.0 0.0 .
1011(32) 0.0 0.0 .
974(31) 0.0 0.0 .
1055(32) 0.0 0.0 .
1087(33) 0.0 0.0 .
1093(33) 0.0 0.0 .
1108(33) 0.0 0.0 .
1168(34) 0.0 0.0 .
1214(35) 0.0 0.0 .
1249(35) 0.0 0. .
1294(36) 0.0 0. .
1371(37) 0.0 0. .
1312(36) 0.0 0. .
1425(38) 0.0 0. .
1434(38) 0.0 0. .
1455(38) 0.0 0. .
1561(40) 0.0 0. .
1619(40) 0.0 0. .
1720(41) 0.0 0. .
1831(43) 0.0 0. .
1889(43) 0.0 0. .
1956(44) 0.0 0. .
2110(46) 0.0 0. .
2085(46) 0.0 0. .
2319(48) 0.0 0. .
2485(50) 0.0 0. .
2717(52) 0.0 0. .
2906(54) 0.0 0. .
3213(57) 0.0 0. .
3496(59) 0.0 0. .
3893(62) 0.0 0. .
4438(67) 0.0 0. .
4954(70) 0.0 0. .
5489(74) 0.0 0. .
6083(78) 0.0 0. .
6623(81) 0.0 0. .
7077(84) 0.0 0. .
7469(86) 0.0 0. .
7932(89) 0.0 0. .
8295(91) 0.0 0. .
8983(95) 0.0 0. .
9582(98) 0.0 0. .
10650(100) 0.0 0. .
11800(110) 0.0 0. .
13040(110) 0.0 0. .
14810(120) 0.0 0. .
16730(130) 0.0 0. .
18760(140) 0.0 0. .
21930(150) 0.0 0. .
25920(160) 0.0 0. .
31420(180) 0.0 0. .
37960(200) 0.0 0. .
48380(220) 0.0 0. .
61790(250) 0.0 0. .
80660(280) 0.0 0. .
106900(330) 0.0 0. .
140160(370) 0.0 0. .
180880(430) 0.0 0. .
229900(480) 0.0 0. .
284810(530) 0.0 0. .
343470(590) 0.0 0. .
399360(630) 0.0 0. .
440690(660) 0.0 0. .
429080(660) 0.0 0. .
346360(590) 0.0 0. .
255330(510) 0.0 0. .
187910(430) 0.0 0. .
140030(370) 0.0 0. .
107190(330) 0.0 0. .
82830(290) 0.0 0. .
65270(260) 0.0 0. .
51990(230) 0.0 0. .
42490(210) 0.0 0. .
35270(190) 0.0 0. .
29230(170) 0.0 0. .
24440(160) 0.0 0. .
21120(150) 0.0 0. .
18250(140) 0.0 0. .
15730(130) 0.0 0. .
13980(120) 0.0 0. .
12370(110) 0.0 0. .
10980(110) 0.0 0. .
9897(99) 0.0 0. .
9013(95) 0.0 0. .
7984(89) 0.0 0. .
7397(86) 0.0 0. .
6712(82) 0.0 0. .
6034(78) 0.0 0. .
5692(75) 0.0 0. .
5326(73) 0.0 0. .
4940(70) 0.0 0. .
4764(69) 0.0 0. .
4263(65) 0.0 0. .
4088(64) 0.0 0. .
3826(62) 0.0 0. .
3557(60) 0.0 0. .
3472(59) 0.0 0. .
3195(57) 0.0 0. .
3162(56) 0.0 0. .
2906(54) 0.0 0. .
2768(53) 0.0 0. .
2697(52) 0.0 0. .
2611(51) 0.0 0. .
2398(49) 0.0 0. .
2338(48) 0.0 0. .
2254(47) 0.0 0. .
2269(48) 0.0 0. .
2059(45) 0.0 0. .
2018(45) 0.0 0. .
1940(44) 0.0 0. .
1917(44) 0.0 0. .
1820(43) 0.0 0. .
1766(42) 0.0 0. .
1709(41) 0.0 0. .
1666(41) 0.0 0. .
1620(40) 0.0 0. .
1565(40) 0.0 0. .
1494(39) 0.0 0. .
1454(38) 0.0 0. .
1478(38) 0.0 0. .
1387(37) 0.0 0. .
1356(37) 0.0 0. .
1354(37) 0.0 0. .
1311(36) 0.0 0. .
1331(36) 0.0 0. .
1295(36) 0.0 0. .
1248(35) 0.0 0. .
1252(35) 0.0 0. .
1191(35) 0.0 0.0 .
1176(34) 0.0 0.0 .
1179(34) 0.0 0.0 .
1135(34) 0.0 0.0 .
1125(34) 0.0 0.0 .
1099(33) 0.0 0.0 .
1031(32) 0.0 0.0 .
1086(33) 0.0 0.0 .
1059(33) 0.0 0.0 .
1062(33) 0.0 0.0 .
1057(33) 0.0 0.0 .
1075(33) 0.0 0.0 .
1063(33) 0.0 0.0 .
1039(32) 0.0 0.0 .
985(31) 0.0 0.0 .
991(31) 0.0 0.0 .
950(31) 0.0 0.0 .
1010(32) 0.0 0.0 .
1003(32) 0.0 0.0 .
970(31) 0.0 0.0 .
949(31) 0.0 0.0 .
1016(32) 0.0 0.0 .
1017(32) 0.0 0.0 .
976(31) 0.0 0.0 .
983(31) 0.0 0.0 .
1024(32) 0.0 0.0 .
998(32) 0.0 0.0 .
1047(32) 0.0 0.0 .
983(31) 0.0 0.0 .
986(31) 0.0 0.0 .
1032(32) 0.0 0.0 .
977(31) 0.0 0.0 .
1033(32) 0.0 0.0 .
1069(33) 0.0 0.0 .
1164(34) 0.0 0.0 .
1125(34) 0.0 0.0 .
1099(33) 0.0 0.0 .
1173(34) 0.0 0.0 .
1145(34) 0.0 0.0 .
1204(35) 0.0 0.0 .
1230(35) 0.0 0.0 .
1245(35) 0.0 0. .
1242(35) 0.0 0. .
1341(37) 0.0 0. .
1335(37) 0.0 0. .
1394(37) 0.0 0. .
1368(37) 0.0 0. .
1388(37) 0.0 0. .
1359(37) 0.0 0. .
1457(38) 0.0 0. .
1458(38) 0.0 0. .
1399(37) 0.0 0. .
1475(38) 0.0 0. .
1409(38) 0.0 0. .
1442(38) 0.0 0. .
1380(37) 0.0 0. .
1294(36) 0.0 0. .
1331(36) 0.0 0. .
1288(36) 0.0 0. .
1224(35) 0.0 0.0 .
1156(34) 0.0 0.0 .
1166(34) 0.0 0.0 .
1092(33) 0.0 0.0 .
1013(32) 0.0 0.0 .
1043(32) 0.0 0.0 .
984(31) 0.0 0.0 .
1019(32) 0.0 0.0 .
987(31) 0.0 0.0 .
905(30) 0.0 0.0 .
855(29) 0.0 0.0 .
856(29) 0.0 0.0 .
785(28) 0.0 0.0 .
810(28) 0.0 0.0 .
747(27) 0.0 0.0 .
737(27) 0.0 0.0 .
776(28) 0.0 0.0 .
707(27) 0.0 0.0 .
693(26) 0.0 0.0 .
696(26) 0.0 0.0 .
701(26) 0.0 0.0 .
632(25) 0.0 0.0 .
594(24) 0.0 0.0 .
577(24) 0.0 0.0 .
545(23) 0.0 0.0 .
562(24) 0.0 0.0 .
574(24) 0.0 0.0 .
556(24) 0.0 0.0 .
569(24) 0.0 0.0 .
521(23) 0.0 0.0 .
577(24) 0.0 0.0 .
539(23) 0.0 0.0 .
497(22) 0.0 0.0 .
495(22) 0.0 0.0 .
527(23) 0.0 0.0 .
490(22) 0.0 0.0 .
499(22) 0.0 0.0 .
492(22) 0.0 0.0 .
495(22) 0.0 0.0 .
485(22) 0.0 0.0 .
534(23) 0.0 0.0 .
498(22) 0.0 0.0 .
525(23) 0.0 0.0 .
506(22) 0.0 0.0 .
548(23) 0.0 0.0 .
511(23) 0.0 0.0 .
501(22) 0.0 0.0 .
570(24) 0.0 0.0 .
558(24) 0.0 0.0 .
553(24) 0.0 0.0 .
548(23) 0.001825 547.3 6.3
554(24) 0.001805 547.3 6.4
573(24) 0.001745 542.2 6.5
575(24) 0.001739 537.1 6.6
539(23) 0.001855 532.0 6.7
559(24) 0.001789 526.9 6.9
536(23) 0.001866 521.7 7.0
536(23) 0.001866 516.6 7.1
504(22) 0.001984 511.5 7.3
510(23) 0.001961 506.4 7.4
530(23) 0.001887 501.2 7.6
486(22) 0.002058 496.1 7.7
483(22) 0.002070 491.0 7.9
504(22) 0.001984 485.9 8.0
476(22) 0.002101 480.7 8.2
448(21) 0.002232 475.6 8.3
482(22) 0.002075 470.5 8.5
459(21) 0.002179 465.4 8.7
419(20) 0.002387 460.3 8.9
449(21) 0.002227 455.1 9.1
415(20) 0.002410 450.0 9.3
411(20) 0.002433 444.9 9.5
442(21) 0.002262 439.8 9.7
415(20) 0.002410 434.6 9.9
406(20) 0.002463 429.5 10.1
413(20) 0.002421 424.4 10.3
420(20) 0.002381 419.3 10.6
408(20) 0.002451 414.1 10.8
398(20) 0.002513 409.0 11.1
390(20) 0.002564 403.9 11.3
385(20) 0.002597 398.8 11.6
405(20) 0.002469 393.7 11.9
396(20) 0.002525 388.5 12.2
350(19) 0.002857 383.4 12.5
390(20) 0.002564 378.3 12.8
389(20) 0.002571 373.2 13.1
367(19) 0.002725 368.0 13.5
390(20) 0.002564 362.9 13.8
351(19) 0.002849 357.8 14.2
352(19) 0.002841 354.2 14.6
356(19) 0.002809 355.0 15.0
379(19) 0.002639 355.8 15.4
364(19) 0.002747 356.7 15.9
358(19) 0.002793 357.5 16.3
349(19) 0.002865 358.4 16.8
362(19) 0.002762 359.2 17.3
363(19) 0.002755 360.0 17.8
359(19) 0.002786 360.9 18.3
344(19) 0.002907 361.7 18.9
384(20) 0.002604 362.6 19.5
366(19) 0.002732 363.4 20.1
354(19) 0.002825 364.3 20.8
357(19) 0.002801 365.1 21.4
355(19) 0.002817 365.9 22.2
351(19) 0.002849 366.8 22.9
317(18) 0.003155 367.6 23.7
367(19) 0.002725 368.5 24.5
378(19) 0.002646 369.3 25.4
374(19) 0.002674 370.1 26.3
382(20) 0.002618 371.0 27.3
350(19) 0.002857 371.8 28.3
386(20) 0.002591 372.7 29.5
343(19) 0.002915 373.5 30.7
376(19) 0.002660 374.3 31.9
337(18) 0.002967 375.2 33.2
340(18) 0.002941 376.0 34.6
364(19) 0.002747 376.9 36.0
367(19) 0.002725 377.7 37.6
378(19) 0.002646 378.5 39.2
384(20) 0.002604 379.4 41.0
364(19) 0.002747 380.2 42.9
375(19) 0.002667 381.1 45.0
387(20) 0.002584 381.9 47.1
418(20) 0.002392 382.7 49.5
355(19) 0.002817 383.1 52.0
396(20) 0.002525 381.8 54.7
380(19) 0.002632 380.4 57.7
408(20) 0.002451 379.1 60.8
407(20) 0.002457 377.8 64.3
401(20) 0.002494 376.5 68.0
399(20) 0.002506 375.2 72.1
436(21) 0.002294 373.9 76.5
425(21) 0.002353 372.6 81.4
447(21) 0.002237 371.3 86.8
404(20) 0.002475 370.0 92.6
417(20) 0.002398 368.7 99.1
445(21) 0.002247 367.4 106.3
495(22) 0.002020 366.1 114.3
507(23) 0.001972 364.8 123.3
518(23) 0.001931 363.5 133.2
478(22) 0.002092 362.2 144.5
526(23) 0.001901 360.9 157.1
512(23) 0.001953 359.6 171.5
515(23) 0.001942 358.3 187.9
621(25) 0.001610 357.0 206.8
648(25) 0.001543 355.7 228.6
672(26) 0.001488 354.4 254.1
708(27) 0.001412 353.1 284.3
748(27) 0.001337 351.8 320.3
799(28) 0.001252 350.5 364.0
859(29) 0.001164 349.2 417.7
904(30) 0.001106 347.8 484.6
1006(32) 0.000994 346.5 568.5
1078(33) 0.000928 345.2 674.4
1226(35) 0.000816 343.9 808.0
1351(37) 0.000740 343. 975.
1537(39) 0.000651 341. 1183.
1620(40) 0.000617 340. 1435.
1870(43) 0.000535 339. 1732.
2069(45) 0.000483 337. 2069.
2239(47) 0.000447 336. 2423.
2442(49) 0.000410 335. 2748.
2599(51) 0.000385 334. 2979.
2683(52) 0.000373 332. 3052.
2705(52) 0.000370 331. 2944.
2440(49) 0.000410 330. 2688.
2209(47) 0.000453 328. 2352.
1901(44) 0.000526 327. 1999.
1624(40) 0.000616 326. 1669.
1349(37) 0.000741 324. 1380.
1171(34) 0.000854 323.1 1137.4
1013(32) 0.000987 321.8 938.6
896(30) 0.001116 320.5 778.6
880(30) 0.001136 319.2 651.1
714(27) 0.001401 317.9 550.0
689(26) 0.001451 316.6 469.9
672(26) 0.001488 315.3 406.0
619(25) 0.001616 313.9 354.5
568(24) 0.001761 312.6 312.5
574(24) 0.001742 311.3 277.8
530(23) 0.001887 310.0 248.7
507(23) 0.001972 308.7 224.0
479(22) 0.002088 307.4 202.8
466(22) 0.002146 306.1 184.5
526(23) 0.001901 304.8 168.5
492(22) 0.002033 303.5 154.5
446(21) 0.002242 302.2 142.1
474(22) 0.002110 300.9 131.2
475(22) 0.002105 299.6 121.4
507(23) 0.001972 298.3 112.7
448(21) 0.002232 297.0 104.9
469(22) 0.002132 295.7 97.8
452(21) 0.002212 294.4 91.4
468(22) 0.002137 293.1 85.7
470(22) 0.002128 291.8 80.4
439(21) 0.002278 290.5 75.6
470(22) 0.002128 289.2 71.3
456(21) 0.002193 287.9 67.3
467(22) 0.002141 286.6 63.6
428(21) 0.002336 285.3 60.2
456(21) 0.002193 284.0 57.1
445(21) 0.002247 282.7 54.2
438(21) 0.002283 281.4 51.5
442(21) 0.002262 280.0 49.0
424(21) 0.002358 278.7 46.7
445(21) 0.002247 277.4 44.6
430(21) 0.002326 276.1 42.6
474(22) 0.002110 274.8 40.7
445(21) 0.002247 273.5 38.9
456(21) 0.002193 272.2 37.3
410(20) 0.002439 270.9 35.8
416(20) 0.002404 269.6 34.3
444(21) 0.002252 268.3 33.0
384(20) 0.002604 267.0 31.7
382(20) 0.002618 265.7 30.5
392(20) 0.002551 264.4 29.3
409(20) 0.002445 263.1 28.2
351(19) 0.002849 261.8 27.2
403(20) 0.002481 260.5 26.3
362(19) 0.002762 259.2 25.3
365(19) 0.002740 257.9 24.5
386(20) 0.002591 256.6 23.7
357(19) 0.002801 255.3 22.9
358(19) 0.002793 254.0 22.1
349(19) 0.002865 252.7 21.4
343(19) 0.002915 251.4 20.7
323(18) 0.003096 250.1 20.1
329(18) 0.003039 248.8 19.5
353(19) 0.002833 247.5 18.9
309(18) 0.003236 246.1 18.3
297(17) 0.003367 244.8 17.8
299(17) 0.003344 243.5 17.3
305(17) 0.003279 242.2 16.8
299(17) 0.003344 240.9 16.3
293(17) 0.003413 239.6 15.9
277(17) 0.00361 238.3 15.5
277(17) 0.00361 237.0 15.0
262(16) 0.00382 235.7 14.7
301(17) 0.003322 234.4 14.3
245(16) 0.00408 233.1 13.9
238(15) 0.00420 231.8 13.6
257(16) 0.00389 230.5 13.2
248(16) 0.00403 229.2 12.9
279(17) 0.00358 227.9 12.6
254(16) 0.00394 226.6 12.3
241(16) 0.00415 225.3 12.0
233(15) 0.00429 224.0 11.7
230(15) 0.00435 222.7 11.4
232(15) 0.00431 221.4 11.2
230(15) 0.00435 220.1 10.9
221(15) 0.00452 219.2 10.7
214(15) 0.00467 218.7 10.4
228(15) 0.00439 218.2 10.2
219(15) 0.00457 217.8 10.0
228(15) 0.00439 217.3 9.8
201(14) 0.00498 216.8 9.6
200(14) 0.00500 216.4 9.4
210(14) 0.00476 215.9 9.2
191(14) 0.00524 215.4 9.0
215(15) 0.00465 215.0 8.8
220(15) 0.00455 214.5 8.6
210(14) 0.00476 214.0 8.5
172(13) 0.00581 213.6 8.3
210(14) 0.00476 213.1 8.1
210(14) 0.00476 212.6 8.0
229(15) 0.00437 212.2 7.8
201(14) 0.00498 211.7 7.7
201(14) 0.00498 211.2 7.5
205(14) 0.00488 210.8 7.4
216(15) 0.00463 210.3 7.3
206(14) 0.00485 209.8 7.1
190(14) 0.00526 209.3 7.0
194(14) 0.00515 208.9 6.9
181(13) 0.00552 208.4 6.8
183(14) 0.00546 207.9 6.7
185(14) 0.00541 207.5 6.5
186(14) 0.00538 207.0 6.4
215(15) 0.00465 206.5 6.3
195(14) 0.00513 206.1 6.2
173(13) 0.00578 205.6 6.1
182(13) 0.00549 205.1 6.0
183(14) 0.00546 204.7 5.9
186(14) 0.00538 204.2 5.8
186(14) 0.00538 203.7 5.7
184(14) 0.00543 203.3 5.6
234(15) 0.00427 202.8 5.6
210(14) 0.00476 202.3 5.5
174(13) 0.00575 201.9 5.4
190(14) 0.00526 201.4 5.3
181(13) 0.00552 200.9 5.2
193(14) 0.00518 200.4 5.1
191(14) 0.00524 200.0 5.1
196(14) 0.00510 199.5 5.0
194(14) 0.00515 199.0 4.9
181(13) 0.00552 198.6 4.9
175(13) 0.00571 198.1 4.8
203(14) 0.00493 197.6 4.7
203(14) 0.00493 197.2 4.7
188(14) 0.00532 196.7 4.6
182(13) 0.00549 196.2 4.5
208(14) 0.00481 195.8 4.5
190(14) 0.00526 195.3 4.4
220(15) 0.00455 194.8 4.4
220(15) 0.00455 194.4 4.3
185(14) 0.00541 193.9 4.2
177(13) 0.00565 193.4 4.2
211(15) 0.00474 192.9 4.1
185(14) 0.00541 192.5 4.1
197(14) 0.00508 192.0 4.0
192(14) 0.00521 191.5 4.0
189(14) 0.00529 191.1 3.9
200(14) 0.00500 190.6 3.9
184(14) 0.00543 190.1 3.8
190(14) 0.00526 189.7 3.8
204(14) 0.00490 189.2 3.7
160(13) 0.00625 188.7 3.7
183(14) 0.00546 188.3 3.7
175(13) 0.00571 187.8 3.6
171(13) 0.00585 187.3 3.6
170(13) 0.00588 186.9 3.5
164(13) 0.00610 186.4 3.5
196(14) 0.00510 185.9 3.5
179(13) 0.00559 185.5 3.4
171(13) 0.00585 185.0 3.4
168(13) 0.00595 184.5 3.4
211(15) 0.00474 184.0 3.3
186(14) 0.00538 183.6 3.3
189(14) 0.00529 183.1 3.2
172(13) 0.00581 182.6 3.2
192(14) 0.00521 182.2 3.2
189(14) 0.00529 181.7 3.2
174(13) 0.00575 181.2 3.1
181(13) 0.00552 180.8 3.1
189(14) 0.00529 180.3 3.1
184(14) 0.00543 179.8 3.0
188(14) 0.00532 179.4 3.0
181(13) 0.00552 178.9 3.0
180(13) 0.00556 178.4 2.9
178(13) 0.00562 178.0 2.9
187(14) 0.00535 177.5 2.9
194(14) 0.00515 177.3 2.9
186(14) 0.00538 177.2 2.8
180(13) 0.00556 177.0 2.8
175(13) 0.00571 176.9 2.8
179(13) 0.00559 176.8 2.8
188(14) 0.00532 176.7 2.7
183(14) 0.00546 176.5 2.7
176(13) 0.00568 176.4 2.7
178(13) 0.00562 176.3 2.7
159(13) 0.00629 176.2 2.7
181(13) 0.00552 176.0 2.6
173(13) 0.00578 175.9 2.6
183(14) 0.00546 175.8 2.6
152(12) 0.00658 175.7 2.6
188(14) 0.00532 175.5 2.6
168(13) 0.00595 175.4 2.5
164(13) 0.00610 175.3 2.5
167(13) 0.00599 175.2 2.5
187(14) 0.00535 175.0 2.5
170(13) 0.00588 174.9 2.5
176(13) 0.00568 174.8 2.5
159(13) 0.00629 174.7 2.4
186(14) 0.00538 174.6 2.4
189(14) 0.00529 174.4 2.4
152(12) 0.00658 174.3 2.4
177(13) 0.00565 174.2 2.4
162(13) 0.00617 174.1 2.4
173(13) 0.00578 173.9 2.4
158(13) 0.00633 173.8 2.3
162(13) 0.00617 173.7 2.3
167(13) 0.00599 173.6 2.3
172(13) 0.00581 173.4 2.3
170(13) 0.00588 173.3 2.3
179(13) 0.00559 173.2 2.3
168(13) 0.00595 173.1 2.3
184(14) 0.00543 172.9 2.3
183(14) 0.00546 172.8 2.2
166(13) 0.00602 172.7 2.2
175(13) 0.00571 172.6 2.2
182(13) 0.00549 172.4 2.2
189(14) 0.00529 172.3 2.2
150(12) 0.00667 172.2 2.2
189(14) 0.00529 172.1 2.2
164(13) 0.00610 171.9 2.2
165(13) 0.00606 171.8 2.2
172(13) 0.00581 171.7 2.2
177(13) 0.00565 171.6 2.2
167(13) 0.00599 171.5 2.2
175(13) 0.00571 171.3 2.2
176(13) 0.00568 171.2 2.1
187(14) 0.00535 171.1 2.1
190(14) 0.00526 171.0 2.1
181(13) 0.00552 170.8 2.1
170(13) 0.00588 170.7 2.1
178(13) 0.00562 170.6 2.1
168(13) 0.00595 170.5 2.1
185(14) 0.00541 170.3 2.1
180(13) 0.00556 170.2 2.1
163(13) 0.00614 170.1 2.1
158(13) 0.00633 170.0 2.1
157(13) 0.00637 169.8 2.1
172(13) 0.00581 169.7 2.1
168(13) 0.00595 169.6 2.1
179(13) 0.00559 169.5 2.1
175(13) 0.00571 169.3 2.1
163(13) 0.00614 169.2 2.1
160(13) 0.00625 169.1 2.1
178(13) 0.00562 169.0 2.1
132(11) 0.00758 168.9 2.1
158(13) 0.00633 168.7 2.1
182(13) 0.00549 168.6 2.1
196(14) 0.00510 168.5 2.1
167(13) 0.00599 168.4 2.1
165(13) 0.00606 168.2 2.1
166(13) 0.00602 168.1 2.1
166(13) 0.00602 168.0 2.1
157(13) 0.00637 167.9 2.2
159(13) 0.00629 167.7 2.2
160(13) 0.00625 167.6 2.2
170(13) 0.00588 167.5 2.2
186(14) 0.00538 167.4 2.2
164(13) 0.00610 167.2 2.2
159(13) 0.00629 167.1 2.2
172(13) 0.00581 167.0 2.2
167(13) 0.00599 166.9 2.2
167(13) 0.00599 166.7 2.2
201(14) 0.00498 166.6 2.3
176(13) 0.00568 166.5 2.3
168(13) 0.00595 166.4 2.3
181(13) 0.00552 166.2 2.3
193(14) 0.00518 166.1 2.3
167(13) 0.00599 166.0 2.3
170(13) 0.00588 165.9 2.3
169(13) 0.00592 165.8 2.4
176(13) 0.00568 165.6 2.4
171(13) 0.00585 165.5 2.4
179(13) 0.00559 165.4 2.4
172(13) 0.00581 165.3 2.4
171(13) 0.00585 165.1 2.5
156(12) 0.00641 165.0 2.5
172(13) 0.00581 164.9 2.5
164(13) 0.00610 164.8 2.5
170(13) 0.00588 164.6 2.6
153(12) 0.00654 164.5 2.6
190(14) 0.00526 164.4 2.6
181(13) 0.00552 164.3 1.7
165(13) 0.00606 164.1 1.7
177(13) 0.00565 164.0 1.8
160(13) 0.00625 163.9 1.8
184(14) 0.00543 163.8 1.8
176(13) 0.00568 163.6 1.9
183(14) 0.00546 163.5 1.9
190(14) 0.00526 163.4 2.0
151(12) 0.00662 163.3 2.1
157(13) 0.00637 163.2 2.1
169(13) 0.00592 163.0 2.2
174(13) 0.00575 162.9 2.2
175(13) 0.00571 162.8 2.3
154(12) 0.00649 162.7 2.4
199(14) 0.00503 162.5 2.4
171(13) 0.00585 162.4 2.5
171(13) 0.00585 162.3 2.6
151(12) 0.00662 162.2 2.7
183(14) 0.00546 162.0 2.8
181(13) 0.00552 161.9 2.8
172(13) 0.00581 161.8 2.9
187(14) 0.00535 161.7 3.0
171(13) 0.00585 161.5 3.1
162(13) 0.00617 161.4 3.2
196(14) 0.00510 161.3 3.4
173(13) 0.00578 161.2 3.5
180(13) 0.00556 161.0 3.6
177(13) 0.00565 160.9 3.7
167(13) 0.00599 160.8 3.9
167(13) 0.00599 160.7 4.0
171(13) 0.00585 160.6 4.2
148(12) 0.00676 160.9 4.3
169(13) 0.00592 161.3 4.5
165(13) 0.00606 161.7 4.7
183(14) 0.00546 162.0 4.9
193(14) 0.00518 162.4 5.1
170(13) 0.00588 162.8 5.3
169(13) 0.00592 163.1 5.6
161(13) 0.00621 163.5 5.8
187(14) 0.00535 163.9 6.1
178(13) 0.00562 164.2 6.4
190(14) 0.00526 164.6 6.7
176(13) 0.00568 165.0 7.1
186(14) 0.00538 165.3 7.4
189(14) 0.00529 165.7 7.8
197(14) 0.00508 166.1 8.3
176(13) 0.00568 166.5 8.7
195(14) 0.00513 166.8 9.2
176(13) 0.00568 167.2 9.8
201(14) 0.00498 167.6 10.3
210(14) 0.00476 167.9 11.0
187(14) 0.00535 168.3 11.7
212(15) 0.00472 168.7 12.5
184(14) 0.00543 169.0 13.4
182(13) 0.00549 169.4 14.3
177(13) 0.00565 169.8 15.4
183(14) 0.00546 170.1 16.7
181(13) 0.00552 170.5 18.0
199(14) 0.00503 170.9 19.6
198(14) 0.00505 171.2 21.4
216(15) 0.00463 171.6 23.5
188(14) 0.00532 172.0 25.8
195(14) 0.00513 172.4 28.5
195(14) 0.00513 172.7 31.6
195(14) 0.00513 173.1 35.1
210(14) 0.00476 173.5 39.2
192(14) 0.00521 173.8 43.8
201(14) 0.00498 174.2 49.0
188(14) 0.00532 174.6 54.9
200(14) 0.00500 174.9 61.4
195(14) 0.00513 175.3 68.7
205(14) 0.00488 175.7 76.7
194(14) 0.00515 176.0 85.3
233(15) 0.00429 176.4 94.4
199(14) 0.00503 176.8 103.8
209(14) 0.00478 177.1 113.1
210(14) 0.00476 177.5 121.9
220(15) 0.00455 177.9 129.6
209(14) 0.00478 178.3 135.6
206(14) 0.00485 178.6 139.3
220(15) 0.00455 179.0 140.2
207(14) 0.00483 179.4 138.4
220(15) 0.00455 179.7 133.9
211(15) 0.00474 180.1 127.3
220(15) 0.00455 180.5 119.2
216(15) 0.00463 180.8 110.1
218(15) 0.00459 181.2 100.7
212(15) 0.00472 181.6 91.4
214(15) 0.00467 181.9 82.4
237(15) 0.00422 182.3 74.0
222(15) 0.00450 182.7 66.3
234(15) 0.00427 183.1 59.2
213(15) 0.00469 183.4 52.9
172(13) 0.00581 183.8 47.2
201(14) 0.00498 184.2 42.2
210(14) 0.00476 184.5 37.8
212(15) 0.00472 184.9 33.9
208(14) 0.00481 185.3 30.5
211(15) 0.00474 185.6 27.6
196(14) 0.00510 186.0 25.0
193(14) 0.00518 186.4 22.8
205(14) 0.00488 186.7 20.8
193(14) 0.00518 187.1 19.1
194(14) 0.00515 187.5 17.6
208(14) 0.00481 187.8 16.2
201(14) 0.00498 188.2 15.1
221(15) 0.00452 188.6 14.0
193(14) 0.00518 189.0 13.1
201(14) 0.00498 189.3 12.2
206(14) 0.00485 189.7 11.5
182(13) 0.00549 190.1 10.8
192(14) 0.00521 190.4 10.1
208(14) 0.00481 190.8 9.6
188(14) 0.00532 191.2 9.0
182(13) 0.00549 191.5 8.6
206(14) 0.00485 191.9 8.1
183(14) 0.00546 192.3 7.7
168(13) 0.00595 192.6 7.3
214(15) 0.00467 193.0 7.0
197(14) 0.00508 193.4 6.6
180(13) 0.00556 193.7 6.3
224(15) 0.00446 194.1 6.0
195(14) 0.00513 194.5 22.4
190(14) 0.00526 194.9 22.4
190(14) 0.00526 195.2 22.3
178(13) 0.00562 195.6 22.3
188(14) 0.00532 196.0 22.3
216(15) 0.00463 196.3 22.3
200(14) 0.00500 196.7 22.3
208(14) 0.00481 197.1 22.4
203(14) 0.00493 197.4 22.4
202(14) 0.00495 197.8 22.5
183(14) 0.00546 198.2 22.6
210(14) 0.00476 198.5 22.6
209(14) 0.00478 198.9 22.8
182(13) 0.00549 199.3 22.9
194(14) 0.00515 199.6 23.0
223(15) 0.00448 200.0 23.1
218(15) 0.00459 200.4 23.3
208(14) 0.00481 200.8 23.4
212(15) 0.00472 201.1 23.6
220(15) 0.00455 201.5 23.8
202(14) 0.00495 201.9 23.9
200(14) 0.00500 202.2 24.1
208(14) 0.00481 202.6 24.3
219(15) 0.00457 203.0 24.5
190(14) 0.00526 203.3 24.8
183(14) 0.00546 203.7 25.0
169(13) 0.00592 204.1 25.2
199(14) 0.00503 204.4 25.5
191(14) 0.00524 204.8 25.7
206(14) 0.00485 205.2 26.0
201(14) 0.00498 205.6 26.3
186(14) 0.00538 205.9 26.5
197(14) 0.00508 206.3 26.8
223(15) 0.00448 206.7 27.1
179(13) 0.00559 207.0 27.4
200(14) 0.00500 207.4 27.8
200(14) 0.00500 207.8 28.1
196(14) 0.00510 208.1 28.4
207(14) 0.00483 208.5 28.8
210(14) 0.00476 208.9 29.1
201(14) 0.00498 209.2 29.5
209(14) 0.00478 209.6 29.9
218(15) 0.00459 210.0 30.3
223(15) 0.00448 210.3 30.7
221(15) 0.00452 210.7 31.1
241(16) 0.00415 211.1 31.5
240(15) 0.00417 211.5 31.9
246(16) 0.00407 211.8 32.4
270(16) 0.00370 212.2 32.8
267(16) 0.00375 212.6 33.3
261(16) 0.00383 212.9 33.8
226(15) 0.00442 213.3 34.3
273(17) 0.00366 213.7 34.8
252(16) 0.00397 214.0 35.3
265(16) 0.00377 214.4 35.9
246(16) 0.00407 214.8 36.4
260(16) 0.00385 215.1 37.0
254(16) 0.00394 215.5 37.6
261(16) 0.00383 215.9 38.2
274(17) 0.00365 216.2 38.8
238(15) 0.00420 216.6 39.4
252(16) 0.00397 217.0 40.1
248(16) 0.00403 217.4 40.7
272(16) 0.00368 217.7 41.4
236(15) 0.00424 218.1 42.1
251(16) 0.00398 218.5 42.9
244(16) 0.00410 218.8 43.6
242(16) 0.00413 219.2 44.4
222(15) 0.00450 219.6 45.2
247(16) 0.00405 219.9 46.0
204(14) 0.00490 220.3 46.8
269(16) 0.00372 220.7 47.7
232(15) 0.00431 221.0 48.6
237(15) 0.00422 221.4 49.5
230(15) 0.00435 221.8 50.5
247(16) 0.00405 222.2 51.4
229(15) 0.00437 222.5 52.4
244(16) 0.00410 222.9 53.5
274(17) 0.00365 223.3 54.5
244(16) 0.00410 223.6 55.7
227(15) 0.00441 224.0 56.8
244(16) 0.00410 224.4 58.0
239(15) 0.00418 224.7 59.2
260(16) 0.00385 225.1 60.4
218(15) 0.00459 225.5 61.7
245(16) 0.00408 225.8 63.1
240(15) 0.00417 226.2 64.5
248(16) 0.00403 226.6 65.9
243(16) 0.00412 226.9 67.4
224(15) 0.00446 227.3 68.9
262(16) 0.00382 227.7 70.5
266(16) 0.00376 228.1 72.2
229(15) 0.00437 228.4 73.9
236(15) 0.00424 228.8 75.6
222(15) 0.00450 229.0 77.5
255(16) 0.00392 229.3 79.4
220(15) 0.00455 229.5 81.3
274(17) 0.00365 229.8 83.4
219(15) 0.00457 230.0 85.5
255(16) 0.00392 230.2 87.7
249(16) 0.00402 230.5 90.0
265(16) 0.00377 230.7 92.4
275(17) 0.00364 231.0 94.9
250(16) 0.00400 231.2 97.5
253(16) 0.00395 231.4 100.3
253(16) 0.00395 231.7 103.1
248(16) 0.00403 231.9 106.0
257(16) 0.00389 232.2 109.1
279(17) 0.00358 232.4 112.3
300(17) 0.003333 232.6 115.7
268(16) 0.00373 232.9 119.2
270(16) 0.00370 233.1 122.9
274(17) 0.00365 233.4 126.7
275(17) 0.00364 233.6 130.8
268(16) 0.00373 233.8 135.0
290(17) 0.003448 234.1 139.4
281(17) 0.00356 234.3 144.1
291(17) 0.003436 234.6 149.0
343(19) 0.002915 234.8 154.2
296(17) 0.003378 235.0 159.6
295(17) 0.003390 235.3 165.4
306(17) 0.003268 235.5 171.4
291(17) 0.003436 235.8 177.8
346(19) 0.002890 236.0 184.6
313(18) 0.003195 236.2 191.7
320(18) 0.003125 236.5 199.3
339(18) 0.002950 236.7 207.3
346(19) 0.002890 237.0 215.8
354(19) 0.002825 237.2 224.9
363(19) 0.002755 237.4 234.5
350(19) 0.002857 237.7 244.8
340(18) 0.002941 237.9 255.8
394(20) 0.002538 238.2 267.5
352(19) 0.002841 238.4 280.1
409(20) 0.002445 238.6 293.5
442(21) 0.002262 238.9 308.0
428(21) 0.002336 239.1 323.5
455(21) 0.002198 239.4 340.3
454(21) 0.002203 239.6 358.3
508(23) 0.001968 239.8 377.9
470(22) 0.002128 240.1 399.1
497(22) 0.002012 240.3 422.1
530(23) 0.001887 240.6 447.2
545(23) 0.001835 240.8 474.6
555(24) 0.001802 241.0 504.6
572(24) 0.001748 241.3 537.4
591(24) 0.001692 241.5 573.6
659(26) 0.001517 241.8 613.6
694(26) 0.001441 242.0 657.8
692(26) 0.001445 242.2 707.0
787(28) 0.001271 242.5 761.9
767(28) 0.001304 242.7 823.4
840(29) 0.001190 243.0 892.6
946(31) 0.001057 243.2 970.8
1034(32) 0.000967 243.4 1059.7
1148(34) 0.000871 243.7 1161.2
1231(35) 0.000812 244. 1278.
1310(36) 0.000763 244. 1413.
1508(39) 0.000663 244. 1570.
1689(41) 0.000592 245. 1755.
1820(43) 0.000549 245. 1973.
2170(47) 0.000461 245. 2234.
2450(49) 0.000408 245. 2550.
2877(54) 0.0003476 246. 2936.
3257(57) 0.0003070 246. 3415.
3990(63) 0.0002506 246. 4021.
4923(70) 0.0002031 246. 4806.
6043(78) 0.0001655 247. 5853.
7442(86) 0.0001344 247. 7292.
9788(99) 0.0001022 247. 9320.
12750(110) 0.0000784 247. 12209.
17180(130) 0.0000582 248. 16294.
22440(150) 0.0000446 248. 21908.
29480(170) 0.0000339 248. 29171.
36310(190) 0.0000275 248. 37395.
42740(210) 0.0000234 248. 44164.
44680(210) 0.0000224 249. 45815.
39650(200) 0.0000252 249. 41205.
31760(180) 0.0000315 249. 33279.
24420(160) 0.0000409 249. 25361.
18970(140) 0.0000527 250. 18903.
14870(120) 0.0000673 250. 14086.
11790(110) 0.0000848 250. 10642.
9304(96) 0.0001075 250. 8221.
7637(87) 0.0001309 251. 6515.
6157(78) 0.0001624 251. 5291.
5223(72) 0.0001915 251. 4388.
4351(66) 0.0002298 251. 3700.
3693(61) 0.0002708 252. 3163.
3131(56) 0.0003194 252. 2734.
2739(52) 0.000365 252. 2385.
2464(50) 0.000406 252. 2098.
2126(46) 0.000470 253. 1860.
1907(44) 0.000524 253. 1659.
1724(42) 0.000580 253. 1489.
1559(39) 0.000641 253. 1343.
1398(37) 0.000715 254. 1218.
1349(37) 0.000741 254. 1109.
1233(35) 0.000811 254. 1014.
1173(34) 0.000853 254.2 930.5
1110(33) 0.000901 254.5 857.0
1011(32) 0.000989 254.7 791.8
946(31) 0.001057 255.0 733.7
847(29) 0.001181 255.2 681.7
833(29) 0.001200 255.4 635.1
773(28) 0.001294 255.7 593.0
764(28) 0.001309 255.9 555.0
703(27) 0.001422 256.2 520.5
719(27) 0.001391 256.4 489.1
665(26) 0.001504 256.6 460.5
580(24) 0.001724 256.9 434.3
658(26) 0.001520 257.1 410.3
578(24) 0.001730 257.4 388.2
573(24) 0.001745 257.6 367.8
577(24) 0.001733 257.8 349.0
522(23) 0.001916 258.1 331.6
514(23) 0.001946 258.3 315.4
529(23) 0.001890 258.6 301.2
503(22) 0.001988 258.8 287.2
499(22) 0.002004 259.0 274.2
505(22) 0.001980 259.3 262.1
456(21) 0.002193 259.5 250.7
468(22) 0.002137 259.8 240.1
437(21) 0.002288 260.0 230.2
439(21) 0.002278 260.2 220.8
457(21) 0.002188 260.5 212.0
441(21) 0.002268 260.7 203.8
461(21) 0.002169 261.0 196.0
434(21) 0.002304 261.2 188.6
418(20) 0.002392 261.4 181.7
420(20) 0.002381 261.7 175.1
438(21) 0.002283 261.9 168.9
373(19) 0.002681 262.2 163.0
411(20) 0.002433 262.4 157.4
425(21) 0.002353 262.6 152.1
382(20) 0.002618 262.9 147.1
433(21) 0.002309 263.1 142.3
423(21) 0.002364 263.4 137.7
399(20) 0.002506 263.6 133.4
400(20) 0.002500 263.8 154.0
399(20) 0.002506 264.1 150.3
402(20) 0.002488 264.3 146.7
425(21) 0.002353 264.6 143.4
412(20) 0.002427 264.8 140.2
397(20) 0.002519 265.0 137.1
380(19) 0.002632 265.3 134.2
395(20) 0.002532 265.5 131.4
364(19) 0.002747 265.8 128.8
362(19) 0.002762 266.0 126.3
381(20) 0.002625 266.2 123.9
355(19) 0.002817 266.5 121.6
373(19) 0.002681 266.7 119.4
391(20) 0.002558 267.0 117.3
396(20) 0.002525 267.2 115.3
398(20) 0.002513 267.4 113.4
395(20) 0.002532 267.7 111.5
383(20) 0.002611 267.9 109.8
389(20) 0.002571 268.2 108.1
404(20) 0.002475 268.4 106.6
355(19) 0.002817 268.6 105.0
440(21) 0.002273 268.9 103.6
378(19) 0.002646 269.1 102.2
424(21) 0.002358 269.4 100.9
427(21) 0.002342 269.6 99.6
410(20) 0.002439 269.8 98.4
408(20) 0.002451 270.1 97.3
365(19) 0.002740 270.3 96.2
397(20) 0.002519 270.6 95.2
404(20) 0.002475 270.8 94.2
405(20) 0.002469 271.0 93.2
382(20) 0.002618 271.3 92.3
376(19) 0.002660 271.5 91.5
399(20) 0.002506 271.8 90.7
377(19) 0.002653 272.0 89.9
364(19) 0.002747 272.2 89.2
375(19) 0.002667 272.5 88.5
384(20) 0.002604 272.7 87.8
370(19) 0.002703 273.0 87.2
349(19) 0.002865 273.2 86.6
366(19) 0.002732 273.4 86.1
384(20) 0.002604 273.7 85.6
367(19) 0.002725 273.9 85.1
349(19) 0.002865 274.2 84.6
307(18) 0.003257 274.4 84.2
331(18) 0.003021 274.6 83.8
328(18) 0.003049 274.9 83.5
317(18) 0.003155 275.1 83.1
338(18) 0.002959 275.4 82.8
331(18) 0.003021 275.6 82.6
290(17) 0.003448 275.8 82.3
312(18) 0.003205 276.1 82.1
310(18) 0.003226 276.3 81.9
283(17) 0.00353 276.6 81.7
299(17) 0.003344 276.8 81.6
326(18) 0.003067 277.0 81.5
283(17) 0.00353 277.3 81.4
315(18) 0.003175 277.5 81.3
308(18) 0.003247 277.8 81.3
283(17) 0.00353 278.0 81.3
311(18) 0.003215 278.2 81.3
292(17) 0.003425 278.5 81.3
299(17) 0.003344 278.7 81.4
317(18) 0.003155 279.0 81.4
296(17) 0.003378 279.2 81.5
293(17) 0.003413 279.4 81.7
305(17) 0.003279 279.7 81.8
271(16) 0.00369 279.9 82.0
313(18) 0.003195 280.2 82.2
284(17) 0.00352 280.6 82.4
275(17) 0.00364 281.2 82.6
282(17) 0.00355 281.7 82.9
290(17) 0.003448 282.3 83.2
306(17) 0.003268 282.8 83.5
275(17) 0.00364 283.3 83.8
266(16) 0.00376 283.9 84.1
278(17) 0.00360 284.4 84.5
275(17) 0.00364 285.0 84.9
272(16) 0.00368 285.5 85.3
258(16) 0.00388 286.0 85.8
291(17) 0.003436 286.6 86.3
290(17) 0.003448 287.1 86.8
297(17) 0.003367 287.7 87.3
283(17) 0.00353 288.2 87.8
295(17) 0.003390 288.8 88.4
296(17) 0.003378 289.3 89.0
299(17) 0.003344 289.8 89.6
276(17) 0.00362 290.4 90.3
292(17) 0.003425 290.9 90.9
306(17) 0.003268 291.5 91.6
299(17) 0.003344 292.0 92.4
280(17) 0.00357 292.6 93.1
302(17) 0.003311 293.1 93.9
295(17) 0.003390 293.6 94.7
278(17) 0.00360 294.2 95.6
283(17) 0.00353 294.7 96.5
285(17) 0.00351 295.3 97.4
286(17) 0.003497 295.8 98.3
310(18) 0.003226 296.3 99.3
313(18) 0.003195 296.9 100.3
312(18) 0.003205 297.4 101.3
289(17) 0.003460 298.0 102.4
308(18) 0.003247 298.5 103.5
330(18) 0.003030 299.1 104.6
333(18) 0.003003 299.6 105.8
323(18) 0.003096 300.1 107.1
314(18) 0.003185 300.7 108.3
329(18) 0.003039 301.2 109.6
308(18) 0.003247 301.8 111.0
339(18) 0.002950 302.3 112.4
310(18) 0.003226 302.9 113.8
339(18) 0.002950 303.4 115.3
307(18) 0.003257 303.9 116.8
329(18) 0.003039 304.5 118.4
344(19) 0.002907 305.0 120.0
318(18) 0.003145 305.6 121.7
335(18) 0.002985 306.1 123.4
326(18) 0.003067 306.6 125.2
333(18) 0.003003 307.2 127.1
366(19) 0.002732 307.7 129.0
353(19) 0.002833 308.3 131.0
343(19) 0.002915 308.8 133.0
334(18) 0.002994 309.4 135.1
320(18) 0.003125 309.9 137.3
336(18) 0.002976 310.4 139.5
357(19) 0.002801 311.0 141.8
356(19) 0.002809 311.5 144.2
366(19) 0.002732 312.1 146.7
341(18) 0.002933 312.6 149.2
354(19) 0.002825 313.2 151.9
365(19) 0.002740 313.7 154.6
354(19) 0.002825 314.2 157.4
377(19) 0.002653 314.8 146.8
365(19) 0.002740 315.3 149.9
404(20) 0.002475 315.9 153.2
374(19) 0.002674 316.4 156.5
419(20) 0.002387 316.9 160.0
393(20) 0.002545 317.5 163.6
411(20) 0.002433 318.0 167.3
405(20) 0.002469 318.6 171.2
416(20) 0.002404 319.1 175.1
419(20) 0.002387 319.7 179.3
409(20) 0.002445 320.2 183.5
445(21) 0.002247 320.7 188.0
479(22) 0.002088 321.3 192.5
447(21) 0.002237 321.8 197.3
473(22) 0.002114 322.4 202.2
451(21) 0.002217 322.9 207.3
483(22) 0.002070 323.5 212.7
468(22) 0.002137 324.0 218.2
463(22) 0.002160 324.5 223.9
489(22) 0.002045 325.1 229.9
505(22) 0.001980 325.6 236.1
533(23) 0.001876 326.2 242.6
524(23) 0.001908 326.7 249.3
560(24) 0.001786 327.2 256.3
567(24) 0.001764 327.8 263.7
584(24) 0.001712 328.3 271.3
602(25) 0.001661 328.9 279.3
577(24) 0.001733 329.4 287.6
613(25) 0.001631 330.0 296.3
613(25) 0.001631 330.5 305.4
683(26) 0.001464 331.0 315.0
654(26) 0.001529 331.6 325.0
686(26) 0.001458 332.1 335.5
696(26) 0.001437 332.7 346.5
786(28) 0.001272 333.2 358.0
841(29) 0.001189 333.8 370.2
852(29) 0.001174 334.3 382.9
945(31) 0.001058 334.8 396.4
1026(32) 0.000975 335.4 410.5
922(30) 0.001085 335.9 425.5
1019(32) 0.000981 336.5 441.2
956(31) 0.001046 337.0 457.9
908(30) 0.001101 337.5 475.5
1003(32) 0.000997 338.1 494.2
950(31) 0.001053 338.6 513.9
909(30) 0.001100 339.2 534.9
1021(32) 0.000979 339.7 557.2
971(31) 0.001030 340.3 580.9
1008(32) 0.000992 340.8 606.2
1022(32) 0.000978 341.3 633.1
1050(32) 0.000952 341.9 661.9
1018(32) 0.000982 342.4 692.6
1042(32) 0.000960 343.0 725.6
1086(33) 0.000921 343.5 761.0
1117(33) 0.000895 344.1 799.0
1112(33) 0.000899 344.6 839.9
1133(34) 0.000883 345.1 884.1
1224(35) 0.000817 345.7 931.8
1178(34) 0.000849 346.2 983.5
1211(35) 0.000826 346.8 1039.6
1271(36) 0.000787 347. 1101.
1255(35) 0.000797 348. 1167.
1389(37) 0.000720 348. 1240.
1459(38) 0.000685 349. 1319.
1512(39) 0.000661 349. 1407.
1500(39) 0.000667 350. 1504.
1645(41) 0.000608 351. 1610.
1781(42) 0.000561 351. 1729.
1872(43) 0.000534 352. 1860.
2031(45) 0.000492 352. 2008.
2159(46) 0.000463 353. 2173.
2327(48) 0.000430 353. 2360.
2517(50) 0.000397 354. 2571.
2763(53) 0.000362 354. 2811.
3043(55) 0.0003286 355. 3086.
3352(58) 0.0002983 355. 3403.
3714(61) 0.0002693 356. 3770.
4170(65) 0.0002398 357. 4199.
4766(69) 0.0002098 357. 4705.
5393(73) 0.0001854 358. 5308.
6138(78) 0.0001629 358. 6038.
7146(85) 0.0001399 359. 6938.
8400(92) 0.0001190 359. 8061.
9825(99) 0.0001018 360. 9491.
11830(110) 0.0000845 360. 11341.
14410(120) 0.0000694 361. 13756.
17590(130) 0.0000568 361. 16912.
21790(150) 0.0000459 362. 21012.
27130(170) 0.0000369 362. 26254.
34080(190) 0.0000293 363. 32784.
42700(210) 0.0000234 364. 40565.
52200(230) 0.0000192 364. 49138.
61070(250) 0.0000164 365. 57285.
66320(260) 0.0000151 365. 62934.
65690(260) 0.0000152 366. 64028.
58770(240) 0.0000170 366. 60104.
49470(220) 0.0000202 367. 52728.
41360(200) 0.0000242 367. 44135.
34510(190) 0.0000290 368. 35936.
28720(170) 0.0000348 368. 28865.
24120(160) 0.0000415 369. 23100.
20500(140) 0.0000488 370. 18550.
17590(130) 0.0000569 370. 15030.
15050(120) 0.0000664 371. 12334.
12870(110) 0.0000777 371. 10275.
11190(110) 0.0000894 372. 8693.
9859(99) 0.0001014 372. 7462.
8570(93) 0.0001167 373. 6489.
7539(87) 0.0001326 373. 5706.
6731(82) 0.0001486 374. 5067.
6062(78) 0.0001650 374. 4538.
5414(74) 0.0001847 375. 4097.
4916(70) 0.0002034 375. 3726.
4305(66) 0.0002323 376. 3414.
4149(64) 0.0002410 377. 3151.
3816(62) 0.0002621 377. 2933.
3424(59) 0.0002921 378. 2754.
3344(58) 0.0002990 378. 2613.
3123(56) 0.0003202 379. 2507.
2940(54) 0.0003401 379. 2437.
2922(54) 0.0003422 380. 2404.
2821(53) 0.000354 380. 2410.
2877(54) 0.0003476 381. 2454.
2863(54) 0.0003493 381. 2537.
2965(54) 0.0003373 382. 2653.
2987(55) 0.0003348 383. 2790.
3224(57) 0.0003102 383. 2924.
3259(57) 0.0003068 384. 3017.
3334(58) 0.0002999 384. 3031.
3432(59) 0.0002914 385. 2941.
3233(57) 0.0003093 385. 2758.
3005(55) 0.0003328 386. 2515.
2701(52) 0.000370 386. 2252.
2261(48) 0.000442 387. 1996.
1997(45) 0.000501 387. 1763.
1740(42) 0.000575 388. 1560.
1527(39) 0.000655 389. 1387.
1460(38) 0.000685 389. 1241.
1303(36) 0.000767 390. 1119.
1201(35) 0.000833 390.1 1017.6
1144(34) 0.000874 390.7 932.6
1114(33) 0.000898 391.2 861.1
995(32) 0.001005 391.8 800.3
939(31) 0.001065 392.3 748.0
903(30) 0.001107 392.8 702.4
892(30) 0.001121 393.4 662.3
904(30) 0.001106 393.9 626.5
834(29) 0.001199 394.5 594.4
771(28) 0.001297 395.0 565.3
780(28) 0.001282 395.5 538.8
698(26) 0.001433 396.1 514.5
697(26) 0.001435 396.6 492.1
697(26) 0.001435 397.2 474.4
646(25) 0.001548 397.7 455.3
618(25) 0.001618 398.3 437.5
674(26) 0.001484 398.8 421.0
628(25) 0.001592 399.3 405.5
626(25) 0.001597 399.9 391.1
586(24) 0.001706 400.4 377.5
610(25) 0.001639 401.0 364.8
579(24) 0.001727 401.5 352.8
574(24) 0.001742 402.1 341.5
566(24) 0.001767 402.6 330.8
569(24) 0.001757 403.1 320.7
541(23) 0.001848 403.7 311.2
548(23) 0.001825 404.2 302.2
505(22) 0.001980 404.8 293.6
533(23) 0.001876 405.3 285.4
482(22) 0.002075 405.8 277.7
505(22) 0.001980 406.4 270.3
489(22) 0.002045 406.9 263.3
536(23) 0.001866 407.5 256.6
486(22) 0.002058 408.0 250.3
494(22) 0.002024 408.6 244.2
471(22) 0.002123 409.1 238.4
462(21) 0.002164 409.6 232.9
488(22) 0.002049 410.2 227.6
484(22) 0.002066 410.7 222.5
495(22) 0.002020 411.3 217.7
465(22) 0.002151 411.8 213.1
460(21) 0.002174 412.4 208.7
462(21) 0.002164 412.9 204.5
397(20) 0.002519 413.4 200.6
440(21) 0.002273 414.0 196.8
437(21) 0.002288 414.5 193.1
428(21) 0.002336 415.1 189.6
395(20) 0.002532 415.6 186.2
415(20) 0.002410 416.1 183.0
423(21) 0.002364 416.7 179.9
426(21) 0.002347 416.4 177.0
440(21) 0.002273 416.2 174.2
391(20) 0.002558 415.9 171.6
412(20) 0.002427 415.7 169.0
411(20) 0.002433 415.4 166.6
430(21) 0.002326 415.2 164.4
450(21) 0.002222 414.9 162.2
408(20) 0.002451 414.7 160.2
410(20) 0.002439 414.4 158.3
422(21) 0.002370 414.2 156.5
427(21) 0.002342 413.9 154.8
428(21) 0.002336 413.7 153.2
390(20) 0.002564 413.4 151.7
437(21) 0.002288 413.2 150.4
409(20) 0.002445 412.9 149.1
419(20) 0.002387 412.7 148.0
400(20) 0.002500 412.4 147.0
438(21) 0.002283 412.2 146.1
414(20) 0.002415 411.9 145.4
439(21) 0.002278 411.7 144.7
434(21) 0.002304 411.4 144.2
479(22) 0.002088 411.2 143.8
542(23) 0.001845 410.9 143.6
630(25) 0.001587 410.7 143.5
707(27) 0.001414 410.4 143.5
672(26) 0.001488 410.1 143.7
531(23) 0.001883 409.9 144.1
487(22) 0.002053 409.6 144.6
521(23) 0.001919 409.4 145.4
428(21) 0.002336 409.1 146.3
440(21) 0.002273 408.9 147.5
435(21) 0.002299 408.6 148.8
393(20) 0.002545 408.4 150.5
453(21) 0.002208 408.1 152.4
418(20) 0.002392 407.9 154.6
475(22) 0.002105 407.6 157.1
437(21) 0.002288 407.4 160.1
427(21) 0.002342 407.1 163.4
447(21) 0.002237 406.9 167.2
432(21) 0.002315 406.6 171.5
455(21) 0.002198 406.4 176.4
456(21) 0.002193 406.1 181.9
467(22) 0.002141 405.9 188.2
463(22) 0.002160 405.6 195.4
467(22) 0.002141 405.4 203.5
481(22) 0.002079 405.1 212.8
523(23) 0.001912 404.9 223.5
508(23) 0.001968 404.6 235.7
504(22) 0.001984 404.4 249.9
546(23) 0.001832 404.1 266.3
594(24) 0.001684 403.9 285.5
599(24) 0.001669 403.6 307.9
645(25) 0.001550 403.4 334.5
703(27) 0.001422 403.1 366.2
723(27) 0.001383 402.9 404.3
746(27) 0.001340 402.6 450.6
849(29) 0.001178 402.4 507.9
969(31) 0.001032 402.1 579.8
1113(33) 0.000898 401.8 672.2
1180(34) 0.000847 401.6 794.2
1410(38) 0.000709 401. 960.
1635(40) 0.000612 401. 1188.
2003(45) 0.000499 401. 1507.
2508(50) 0.000399 401. 1949.
3160(56) 0.0003165 400. 2546.
3958(63) 0.0002527 400. 3313.
4762(69) 0.0002100 400. 4203.
5575(75) 0.0001794 400. 5025.
5942(77) 0.0001683 399. 5432.
5532(74) 0.0001808 399. 5183.
4784(69) 0.0002090 399. 4436.
3873(62) 0.0002582 399. 3548.
3073(55) 0.0003254 398. 2754.
2575(51) 0.000388 398. 2128.
2129(46) 0.000470 398. 1665.
1832(43) 0.000546 398. 1335.
1651(41) 0.000606 397. 1106.
1512(39) 0.000661 397. 949.
1395(37) 0.000717 397. 845.
1304(36) 0.000767 397. 781.
1302(36) 0.000768 396. 749.
1288(36) 0.000776 396. 747.
1361(37) 0.000735 396. 779.
1457(38) 0.000686 396. 855.
1586(40) 0.000631 395. 988.
1695(41) 0.000590 395. 1199.
1873(43) 0.000534 395. 1509.
2149(46) 0.000465 395. 1922.
2575(51) 0.000388 394. 2388.
2801(53) 0.000357 394. 2733.
3045(55) 0.0003284 394. 2734.
2806(53) 0.000356 394. 2380.
2321(48) 0.000431 393. 1888.
1825(43) 0.000548 393. 1439.
1454(38) 0.000688 393. 1091.
1162(34) 0.000861 392.5 838.7
947(31) 0.001056 392.3 661.3
796(28) 0.001256 392.0 537.3
759(28) 0.001318 391.8 449.1
684(26) 0.001462 391.5 384.7
641(25) 0.001560 391.3 336.0
595(24) 0.001681 391.0 298.0
546(23) 0.001832 390.8 267.6
530(23) 0.001887 390.5 242.8
539(23) 0.001855 390.3 222.2
554(24) 0.001805 390.0 205.0
493(22) 0.002028 389.8 190.4
507(23) 0.001972 389.5 177.9
488(22) 0.002049 389.3 167.1
498(22) 0.002008 389.0 157.7
470(22) 0.002128 388.8 149.4
493(22) 0.002028 388.5 142.2
497(22) 0.002012 388.3 135.7
453(21) 0.002208 388.0 129.9
497(22) 0.002012 387.8 124.8
487(22) 0.002053 387.5 120.1
448(21) 0.002232 387.3 115.9
469(22) 0.002132 387.0 112.2
482(22) 0.002075 386.8 108.7
449(21) 0.002227 386.5 105.6
450(21) 0.002222 386.3 102.7
467(22) 0.002141 386.0 100.1
445(21) 0.002247 385.7 97.7
481(22) 0.002079 385.5 95.5
421(21) 0.002375 385.2 93.4
468(22) 0.002137 385.0 91.6
492(22) 0.002033 384.7 89.8
456(21) 0.002193 384.5 88.3
473(22) 0.002114 384.2 86.8
511(23) 0.001957 384.0 85.5
464(22) 0.002155 383.7 84.2
461(21) 0.002169 383.5 83.1
441(21) 0.002268 383.2 82.0
494(22) 0.002024 383.0 81.1
466(22) 0.002146 382.7 80.2
515(23) 0.001942 382.5 79.4
463(22) 0.002160 382.2 78.7
473(22) 0.002114 382.0 78.0
506(22) 0.001976 381.7 77.4
503(22) 0.001988 381.5 76.9
517(23) 0.001934 381.2 76.4
483(22) 0.002070 381.0 76.0
475(22) 0.002105 380.7 75.6
491(22) 0.002037 380.5 75.3
450(21) 0.002222 380.2 75.0
454(21) 0.002203 380.0 74.8
462(21) 0.002164 379.7 74.6
479(22) 0.002088 379.5 74.5
483(22) 0.002070 379.2 74.4
443(21) 0.002257 379.0 74.4
470(22) 0.002128 378.7 74.4
499(22) 0.002004 378.5 74.5
433(21) 0.002309 378.2 74.6
473(22) 0.002114 378.0 74.7
472(22) 0.002119 377.7 74.9
480(22) 0.002083 377.4 75.2
470(22) 0.002128 377.2 75.4
450(21) 0.002222 376.9 75.8
455(21) 0.002198 376.7 76.1
507(23) 0.001972 376.4 76.5
463(22) 0.002160 376.2 77.0
438(21) 0.002283 375.9 77.5
427(21) 0.002342 375.7 78.1
444(21) 0.002252 375.4 78.7
421(21) 0.002375 375.2 79.3
422(21) 0.002370 374.9 80.0
444(21) 0.002252 374.7 80.8
422(21) 0.002370 374.4 81.6
425(21) 0.002353 374.2 82.4
431(21) 0.002320 373.9 83.4
435(21) 0.002299 373.7 84.3
432(21) 0.002315 373.4 85.4
400(20) 0.002500 373.2 86.5
435(21) 0.002299 372.9 87.7
399(20) 0.002506 372.7 88.9
409(20) 0.002445 372.4 90.2
414(20) 0.002415 372.2 91.6
454(21) 0.002203 371.9 93.1
416(20) 0.002404 371.7 94.7
427(21) 0.002342 371.4 96.3
400(20) 0.002500 371.2 98.0
457(21) 0.002188 370.9 99.9
428(21) 0.002336 370.7 101.8
398(20) 0.002513 370.4 103.9
413(20) 0.002421 370.2 106.0
410(20) 0.002439 369.9 108.3
417(20) 0.002398 369.7 110.7
450(21) 0.002222 369.4 113.2
444(21) 0.002252 369.1 115.9
402(20) 0.002488 368.9 118.8
427(21) 0.002342 368.6 121.8
438(21) 0.002283 368.4 125.0
446(21) 0.002242 368.1 128.3
443(21) 0.002257 367.9 131.9
456(21) 0.002193 367.6 135.7
446(21) 0.002242 367.4 139.7
444(21) 0.002252 367.1 143.9
442(21) 0.002262 366.9 148.5
464(22) 0.002155 366.6 153.3
443(21) 0.002257 366.4 158.4
438(21) 0.002283 366.1 163.9
479(22) 0.002088 365.9 169.7
473(22) 0.002114 365.6 175.9
481(22) 0.002079 365.4 182.5
480(22) 0.002083 365.1 189.6
505(22) 0.001980 364.9 197.2
479(22) 0.002088 364.6 205.4
545(23) 0.001835 364.4 214.2
537(23) 0.001862 364.1 223.6
532(23) 0.001880 363.9 233.8
531(23) 0.001883 363.6 244.8
539(23) 0.001855 363.4 256.7
539(23) 0.001855 363.1 269.6
561(24) 0.001783 362.9 283.6
570(24) 0.001754 362.6 298.8
580(24) 0.001724 362.4 315.5
618(25) 0.001618 362.1 333.7
652(26) 0.001534 361.9 353.6
685(26) 0.001460 361.6 375.5
658(26) 0.001520 361.3 399.7
784(28) 0.001276 361.1 426.4
738(27) 0.001355 360.8 442.7
748(27) 0.001337 360.6 475.8
742(27) 0.001348 360.3 512.9
864(29) 0.001157 360.1 554.4
922(30) 0.001085 359.8 601.4
988(31) 0.001012 359.6 654.8
1044(32) 0.000958 359.3 716.0
1175(34) 0.000851 359.1 786.8
1247(35) 0.000802 359. 869.
1395(37) 0.000717 359. 967.
1473(38) 0.000679 358. 1082.
1564(40) 0.000639 358. 1222.
1779(42) 0.000562 358. 1391.
1976(44) 0.000506 358. 1597.
2306(48) 0.000434 357. 1848.
2475(50) 0.000404 357. 2155.
2912(54) 0.0003434 357. 2527.
3332(58) 0.0003001 357. 2973.
3747(61) 0.0002669 356. 3501.
4434(67) 0.0002255 356. 4115.
5206(72) 0.0001921 356. 4806.
6153(78) 0.0001625 356. 5550.
6993(84) 0.0001430 355. 6293.
7777(88) 0.0001286 355. 6951.
8275(91) 0.0001208 355. 7421.
8313(91) 0.0001203 355. 7618.
7904(89) 0.0001265 354. 7525.
7248(85) 0.0001380 354. 7197.
6805(82) 0.0001470 354. 6737.
6483(81) 0.0001542 354. 6240.
5912(77) 0.0001691 353. 5774.
5657(75) 0.0001768 353. 5370.
5348(73) 0.0001870 353. 5027.
5181(72) 0.0001930 353. 4728.
4966(70) 0.0002014 352. 4444.
4626(68) 0.0002162 352. 4151.
4261(65) 0.0002347 352. 3834.
3974(63) 0.0002516 352. 3496.
3529(59) 0.0002834 351. 3147.
3187(56) 0.0003138 351. 2805.
2855(53) 0.0003503 351. 2481.
2639(51) 0.000379 351. 2185.
2413(49) 0.000414 350. 1921.
2197(47) 0.000455 350. 1688.
2022(45) 0.000495 350. 1485.
1892(43) 0.000529 350. 1310.
1674(41) 0.000597 349. 1159.
1527(39) 0.000655 349. 1031.
1473(38) 0.000679 349. 921.
1459(38) 0.000685 349. 827.
1324(36) 0.000755 348. 747.
1273(36) 0.000786 348. 678.
1133(34) 0.000883 347.8 618.4
1114(33) 0.000898 347.5 566.9
987(31) 0.001013 347.3 522.0
968(31) 0.001033 347.0 482.5
915(30) 0.001093 346.8 447.6
852(29) 0.001174 346.5 416.5
781(28) 0.001280 346.3 388.7
770(28) 0.001299 346.0 363.6
753(27) 0.001328 345.8 341.0
722(27) 0.001385 345.5 320.4
663(26) 0.001508 345.3 301.7
666(26) 0.001501 345.0 284.7
655(26) 0.001527 344.7 269.0
601(25) 0.001664 344.5 254.6
576(24) 0.001736 344.2 241.4
624(25) 0.001603 344.0 229.1
605(25) 0.001653 343.7 217.8
592(24) 0.001689 343.5 207.3
609(25) 0.001642 343.2 197.6
547(23) 0.001828 343.0 188.5
565(24) 0.001770 342.7 180.1
525(23) 0.001905 342.5 172.2
532(23) 0.001880 342.2 164.9
545(23) 0.001835 342.0 158.0
500(22) 0.002000 341.7 151.5
504(22) 0.001984 341.5 145.4
505(22) 0.001980 341.2 139.7
495(22) 0.002020 341.0 134.4
458(21) 0.002183 340.7 129.3
431(21) 0.002320 340.5 124.5
420(20) 0.002381 340.2 120.0
416(20) 0.002404 340.0 115.8
413(20) 0.002421 339.7 111.7
403(20) 0.002481 339.5 107.9
407(20) 0.002457 339.2 104.3
407(20) 0.002457 339.0 100.8
416(20) 0.002404 338.7 97.6
421(21) 0.002375 338.5 94.5
389(20) 0.002571 338.2 91.5
409(20) 0.002445 338.0 88.7
380(19) 0.002632 337.7 86.0
386(20) 0.002591 337.5 83.5
385(20) 0.002597 337.2 81.0
383(20) 0.002611 336.9 78.7
365(19) 0.002740 336.7 76.5
366(19) 0.002732 336.4 74.3
394(20) 0.002538 336.2 72.3
370(19) 0.002703 335.9 70.3
392(20) 0.002551 335.7 68.5
368(19) 0.002717 335.4 66.7
400(20) 0.002500 335.2 65.0
382(20) 0.002618 334.9 63.3
377(19) 0.002653 334.7 61.7
392(20) 0.002551 334.4 60.2
363(19) 0.002755 334.2 58.7
345(19) 0.002899 333.9 57.3
339(18) 0.002950 333.7 56.0
363(19) 0.002755 333.4 54.7
385(20) 0.002597 333.2 53.4
350(19) 0.002857 332.9 52.2
395(20) 0.002532 332.7 51.0
360(19) 0.002778 332.4 49.9
370(19) 0.002703 332.2 48.8
387(20) 0.002584 331.9 47.8
354(19) 0.002825 331.7 46.8
364(19) 0.002747 331.4 45.8
346(19) 0.002890 331.2 44.8
333(18) 0.003003 330.9 43.9
369(19) 0.002710 330.7 43.1
361(19) 0.002770 330.4 42.2
335(18) 0.002985 330.2 41.4
332(18) 0.003012 329.9 40.6
323(18) 0.003096 329.7 39.8
341(18) 0.002933 329.4 39.1
329(18) 0.003039 329.2 38.4
337(18) 0.002967 328.9 37.7
373(19) 0.002681 328.6 37.0
369(19) 0.002710 328.4 36.3
339(18) 0.002950 328.1 35.7
321(18) 0.003115 327.9 35.1
367(19) 0.002725 327.6 34.5
371(19) 0.002695 327.4 33.9
344(19) 0.002907 327.1 33.3
334(18) 0.002994 327.0 32.8
355(19) 0.002817 327.0 32.3
344(19) 0.002907 327.1 31.8
334(18) 0.002994 327.1 31.3
339(18) 0.002950 327.2 30.8
342(18) 0.002924 327.2 30.3
338(18) 0.002959 327.3 29.9
354(19) 0.002825 327.3 29.5
349(19) 0.002865 327.4 29.0
344(19) 0.002907 327.4 28.6
321(18) 0.003115 327.5 28.2
326(18) 0.003067 327.6 27.8
367(19) 0.002725 327.6 27.5
353(19) 0.002833 327.7 27.1
360(19) 0.002778 327.7 26.7
316(18) 0.003165 327.8 26.4
352(19) 0.002841 327.8 26.1
366(19) 0.002732 327.9 25.8
386(20) 0.002591 327.9 25.4
330(18) 0.003030 328.0 25.1
365(19) 0.002740 328.0 24.9
324(18) 0.003086 328.1 24.6
349(19) 0.002865 328.1 24.3
353(19) 0.002833 328.2 24.0
319(18) 0.003135 328.2 23.8
305(17) 0.003279 328.3 23.6
334(18) 0.002994 328.4 23.3
337(18) 0.002967 328.4 23.1
341(18) 0.002933 328.5 22.9
342(18) 0.002924 328.5 22.7
344(19) 0.002907 328.6 22.5
348(19) 0.002874 328.6 22.3
366(19) 0.002732 328.7 22.1
389(20) 0.002571 328.7 22.0
350(19) 0.002857 328.8 21.8
347(19) 0.002882 328.8 21.6
363(19) 0.002755 328.9 21.5
350(19) 0.0 0.0 .
349(19) 0.0 0.0 .
348(19) 0.0 0.0 .
340(18) 0.0 0.0 .
373(19) 0.0 0.0 .
518(23) 0.0 0.0 .
608(25) 0.0 0.0 .
714(27) 0.0 0.0 .
779(28) 0.0 0.0 .
807(28) 0.0 0.0 .
580(24) 0.0 0.0 .
373(19) 0.0 0.0 .
372(19) 0.0 0.0 .
387(20) 0.0 0.0 .
379(19) 0.0 0.0 .
452(21) 0.0 0.0 .
594(24) 0.0 0.0 .
645(25) 0.0 0.0 .
553(24) 0.0 0.0 .
596(24) 0.0 0.0 .
1062(33) 0.0 0.0 .
968(31) 0.0 0.0 .
877(30) 0.0 0.0 .
474(22) 0.0 0.0 .
380(19) 0.0 0.0 .
401(20) 0.0 0.0 .
402(20) 0.0 0.0 .
374(19) 0.0 0.0 .
377(19) 0.0 0.0 .
340(18) 0.002941 330.5 20.3
363(19) 0.002755 330.6 20.4
336(18) 0.002976 330.6 20.5
367(19) 0.002725 330.7 20.7
356(19) 0.002809 330.7 20.9
344(19) 0.002907 330.8 21.1
345(19) 0.002899 330.8 21.3
367(19) 0.002725 330.9 21.5
336(18) 0.002976 330.9 21.8
330(18) 0.003030 331.0 22.1
358(19) 0.002793 331.0 22.4
366(19) 0.002732 331.1 22.7
330(18) 0.003030 331.1 23.1
380(19) 0.002632 331.2 23.5
350(19) 0.002857 331.2 23.9
380(19) 0.002632 331.3 24.4
353(19) 0.002833 331.4 24.9
355(19) 0.002817 331.4 25.4
400(20) 0.002500 331.5 26.0
376(19) 0.002660 331.5 26.6
394(20) 0.002538 331.6 27.3
406(20) 0.002463 331.6 28.1
392(20) 0.002551 331.7 28.9
388(20) 0.002577 331.7 29.7
424(21) 0.002358 331.8 30.7
385(20) 0.002597 331.8 31.7
407(20) 0.002457 331.9 32.9
408(20) 0.002451 331.9 34.1
372(19) 0.002688 332.0 35.5
426(21) 0.002347 332.0 37.0
417(20) 0.002398 332.1 38.7
403(20) 0.002481 332.2 40.5
391(20) 0.002558 332.2 42.5
420(20) 0.002381 332.3 44.8
425(21) 0.002353 332.3 47.4
422(21) 0.002370 332.4 50.2
447(21) 0.002237 332.4 53.4
432(21) 0.002315 332.5 57.1
457(21) 0.002188 332.5 61.2
428(21) 0.002336 332.6 65.9
440(21) 0.002273 332.6 71.3
409(20) 0.002445 332.7 77.3
454(21) 0.002203 332.7 84.2
426(21) 0.002347 332.8 92.0
476(22) 0.002101 332.9 100.9
497(22) 0.002012 332.9 110.8
488(22) 0.002049 333.0 122.0
513(23) 0.001949 333.0 134.5
495(22) 0.002020 333.1 148.4
552(23) 0.001812 333.1 163.6
540(23) 0.001852 333.2 180.3
558(24) 0.001792 333.2 198.2
570(24) 0.001754 333.3 217.3
551(23) 0.001815 333.3 237.2
576(24) 0.001736 333.4 257.4
584(24) 0.001712 333.4 277.2
636(25) 0.001572 333.5 295.7
655(26) 0.001527 333.5 311.8
684(26) 0.001462 333.6 324.4
742(27) 0.001348 333.7 332.4
761(28) 0.001314 333.7 335.0
749(27) 0.001335 333.8 332.1
746(27) 0.001340 333.8 323.8
744(27) 0.001344 333.9 311.0
704(27) 0.001420 333.9 294.7
650(25) 0.001538 334.0 276.0
591(24) 0.001692 334.0 256.0
654(26) 0.001529 334.1 235.7
577(24) 0.001733 334.1 215.7
572(24) 0.001748 334.2 196.6
538(23) 0.001859 334.2 178.5
545(23) 0.001835 334.3 161.8
538(23) 0.001859 334.4 146.5
547(23) 0.001828 334.4 132.6
498(22) 0.002008 334.5 120.0
537(23) 0.001862 334.5 108.8
497(22) 0.002012 334.6 98.7
493(22) 0.002028 334.6 89.8
512(23) 0.001953 334.7 81.9
480(22) 0.002083 334.7 74.9
478(22) 0.002092 334.8 68.8
462(21) 0.002164 334.8 63.4
467(22) 0.002141 334.9 58.6
497(22) 0.002012 334.9 54.3
480(22) 0.002083 335.0 50.6
449(21) 0.002227 335.0 47.2
466(22) 0.002146 335.1 44.3
492(22) 0.002033 335.2 41.6
471(22) 0.002123 335.2 39.2
464(22) 0.002155 335.3 37.1
454(21) 0.002203 335.3 35.1
443(21) 0.002257 335.4 33.3
449(21) 0.002227 335.4 31.7
437(21) 0.002288 335.5 30.2
447(21) 0.002237 335.5 28.9
450(21) 0.002222 335.6 27.6
456(21) 0.002193 335.6 26.4
502(22) 0.001992 335.7 25.3
492(22) 0.002033 335.7 24.3
483(22) 0.002070 335.8 23.4
472(22) 0.002119 335.9 22.5
465(22) 0.002151 335.9 21.7
498(22) 0.002008 336.0 20.9
483(22) 0.002070 336.0 20.2
460(21) 0.002174 336.1 19.5
454(21) 0.002203 336.1 18.9
503(22) 0.001988 336.2 18.3
496(22) 0.002016 336.2 17.7
504(22) 0.001984 336.3 17.2
471(22) 0.002123 336.3 16.7
520(23) 0.001923 336.4 16.2
549(23) 0.001822 336.4 15.7
500(22) 0.002000 336.5 15.3
541(23) 0.001848 336.5 14.9
518(23) 0.001931 336.6 14.5
499(22) 0.002004 336.7 14.1
518(23) 0.001931 336.7 13.8
501(22) 0.001996 336.8 13.4
514(23) 0.001946 336.8 13.1
527(23) 0.001898 336.9 12.8
525(23) 0.001905 336.9 12.5
559(24) 0.001789 337.0 12.2
546(23) 0.001832 337.0 12.0
552(23) 0.001812 337.1 11.7
550(23) 0.001818 337.1 11.5
598(24) 0.001672 337.2 11.2
541(23) 0.001848 337.2 11.0
566(24) 0.001767 337.3 10.8
547(23) 0.001828 337.3 10.6
530(23) 0.001887 337.4 10.4
528(23) 0.001894 337.5 10.2
559(24) 0.001789 337.5 10.0
586(24) 0.001706 337.6 9.8
587(24) 0.001704 337.6 9.6
556(24) 0.001799 337.7 9.5
539(23) 0.001855 337.7 9.3
577(24) 0.001733 337.8 9.2
536(23) 0.001866 337.8 9.0
620(25) 0.001613 337.9 8.9
607(25) 0.001647 337.9 8.7
563(24) 0.001776 338.0 8.6
567(24) 0.001764 338.0 8.4
567(24) 0.001764 338.1 8.3
621(25) 0.001610 338.2 8.2
570(24) 0.001754 338.2 8.1
609(25) 0.001642 338.3 7.9
624(25) 0.001603 338.3 7.8
597(24) 0.001675 338.4 7.7
627(25) 0.001595 338.4 7.6
639(25) 0.001565 338.5 7.5
610(25) 0.001639 338.5 7.4
626(25) 0.001597 338.6 7.3
596(24) 0.001678 338.6 7.2
622(25) 0.001608 338.7 7.1
641(25) 0.001560 338.7 7.0
650(25) 0.001538 338.8 6.9
615(25) 0.001626 338.8 6.9
619(25) 0.001616 338.9 6.8
634(25) 0.001577 339.0 6.7
603(25) 0.001658 339.0 6.6
615(25) 0.001626 339.1 6.5
615(25) 0.001626 339.1 6.5
682(26) 0.001466 339.2 6.4
674(26) 0.001484 339.2 6.3
689(26) 0.001451 339.3 6.2
729(27) 0.001372 339.3 6.2
751(27) 0.001332 339.4 6.1
799(28) 0.001252 339.4 6.0
789(28) 0.001267 339.5 6.0
792(28) 0.001263 339.5 5.9
750(27) 0.001333 339.6 5.9
736(27) 0.001359 339.7 5.8
663(26) 0.001508 339.7 5.7
689(26) 0.001451 339.8 5.7
606(25) 0.001650 339.8 5.6
583(24) 0.001715 339.9 5.6
585(24) 0.001709 339.9 5.5
537(23) 0.001862 340.0 5.5
557(24) 0.001795 340.0 5.4
532(23) 0.001880 340.1 5.4
521(23) 0.001919 340.1 5.3
563(24) 0.001776 340.2 5.3
538(23) 0.001859 340.2 5.2
535(23) 0.001869 340.3 5.2
537(23) 0.001862 340.3 5.1
534(23) 0.001873 340.4 5.1
470(22) 0.002128 340.5 5.0
488(22) 0.002049 340.5 5.0
482(22) 0.002075 340.6 4.9
465(22) 0.002151 340.6 4.9
487(22) 0.002053 340.7 4.9
481(22) 0.002079 340.7 4.8
491(22) 0.002037 340.8 4.8
463(22) 0.002160 340.8 4.7
445(21) 0.002247 340.9 4.7
457(21) 0.002188 340.9 4.7
464(22) 0.002155 341.0 4.6
437(21) 0.002288 341.0 4.6
451(21) 0.002217 341.1 4.6
450(21) 0.002222 341.2 4.5
458(21) 0.002183 341.2 4.5
418(20) 0.002392 341.3 4.5
475(22) 0.002105 341.3 4.4
474(22) 0.002110 341.4 4.4
426(21) 0.002347 341.4 4.4
437(21) 0.002288 341.5 4.3
427(21) 0.002342 341.5 4.3
436(21) 0.002294 341.6 4.3
443(21) 0.002257 341.6 4.2
403(20) 0.002481 341.7 4.2
455(21) 0.002198 341.7 4.2
469(22) 0.002132 341.8 4.2
425(21) 0.002353 341.8 4.1
437(21) 0.002288 341.9 4.1
439(21) 0.002278 342.0 4.1
448(21) 0.002232 342.0 4.0
422(21) 0.002370 342.1 4.0
403(20) 0.002481 342.1 4.0
441(21) 0.002268 342.2 4.0
384(20) 0.002604 342.2 3.9
417(20) 0.002398 342.3 3.9
413(20) 0.002421 342.3 3.9
429(21) 0.002331 342.4 3.9
397(20) 0.002519 342.4 3.8
443(21) 0.002257 342.5 3.8
432(21) 0.002315 342.5 3.8
421(21) 0.002375 342.6 3.8
409(20) 0.002445 342.6 3.8
435(21) 0.002299 342.7 3.7
391(20) 0.002558 342.8 3.7
434(21) 0.002304 342.8 3.7
436(21) 0.002294 342.9 3.7
420(20) 0.002381 342.9 3.7
387(20) 0.002584 343.0 3.6
371(19) 0.002695 343.0 3.6
388(20) 0.002577 343.1 3.6
415(20) 0.002410 343.1 3.6
425(21) 0.002353 343.2 3.6
447(21) 0.002237 343.2 3.5
425(21) 0.002353 343.3 3.5
422(21) 0.002370 343.3 3.5
400(20) 0.002500 343.4 3.5
420(20) 0.002381 343.5 3.5
430(21) 0.002326 343.5 3.5
407(20) 0.002457 343.6 3.4
398(20) 0.002513 343.6 3.4
404(20) 0.002475 343.7 3.4
360(19) 0.002778 343.7 3.4
427(21) 0.002342 343.8 3.4
430(21) 0.002326 343.8 3.4
396(20) 0.002525 343.9 3.3
444(21) 0.002252 343.9 3.3
435(21) 0.002299 344.0 3.3
411(20) 0.002433 344.0 3.3
406(20) 0.002463 344.1 3.3
389(20) 0.002571 344.1 3.3
408(20) 0.002451 344.2 3.3
431(21) 0.002320 344.3 3.2
415(20) 0.002410 344.3 3.2
397(20) 0.002519 344.4 3.2
380(19) 0.002632 344.4 3.2
375(19) 0.002667 344.5 3.2
376(19) 0.002660 344.5 3.2
395(20) 0.002532 344.6 3.2
397(20) 0.002519 344.6 3.2
420(20) 0.002381 344.7 3.2
403(20) 0.002481 344.7 3.2
385(20) 0.002597 344.8 3.1
396(20) 0.002525 344.8 3.1
395(20) 0.002532 344.9 3.1
378(19) 0.002646 345.0 3.1
385(20) 0.002597 345.0 3.1
353(19) 0.002833 345.1 3.1
383(20) 0.002611 345.1 3.3
378(19) 0.002646 345.2 3.3
394(20) 0.002538 345.2 3.2
416(20) 0.002404 345.3 3.2
386(20) 0.002591 345.3 3.2
392(20) 0.002551 345.4 3.2
398(20) 0.002513 345.4 3.2
385(20) 0.002597 345.5 3.2
375(19) 0.002667 345.5 3.2
391(20) 0.002558 345.6 3.2
379(19) 0.002639 345.6 3.2
414(20) 0.002415 345.7 3.2
412(20) 0.002427 345.8 3.2
403(20) 0.002481 345.8 3.2
393(20) 0.002545 345.9 3.2
409(20) 0.002445 345.9 3.2
384(20) 0.002604 346.0 3.2
374(19) 0.002674 346.0 3.2
405(20) 0.002469 346.1 3.2
373(19) 0.002681 346.1 3.2
383(20) 0.002611 346.2 3.2
378(19) 0.002646 346.2 3.2
354(19) 0.002825 346.3 3.1
362(19) 0.002762 346.3 3.1
381(20) 0.002625 346.4 3.1
420(20) 0.002381 346.5 5.7
376(19) 0.002660 346.5 5.7
397(20) 0.002519 346.6 5.7
388(20) 0.002577 346.6 5.7
393(20) 0.002545 346.7 5.7
393(20) 0.002545 346.7 5.7
370(19) 0.002703 346.8 5.8
396(20) 0.002525 346.8 5.8
374(19) 0.002674 346.9 5.8
406(20) 0.002463 346.9 5.8
384(20) 0.002604 347.0 5.8
403(20) 0.002481 347.0 5.9
383(20) 0.002611 347.1 5.9
368(19) 0.002717 347.1 6.8
371(19) 0.002695 347.2 6.8
399(20) 0.002506 347.3 6.8
380(19) 0.002632 347.3 6.9
386(20) 0.002591 347.4 6.9
379(19) 0.002639 347.4 6.9
368(19) 0.002717 347.5 7.0
368(19) 0.002717 347.5 7.4
409(20) 0.002445 347.6 7.4
372(19) 0.002688 347.6 7.4
386(20) 0.002591 347.7 7.5
401(20) 0.002494 347.7 7.5
380(19) 0.002632 347.8 7.6
361(19) 0.002770 347.8 7.6
365(19) 0.002740 347.9 7.6
342(18) 0.002924 347.9 7.7
384(20) 0.002604 348.0 7.7
373(19) 0.002681 348.1 7.8
349(19) 0.002865 348.1 7.8
380(19) 0.002632 348.2 7.9
398(20) 0.002513 348.2 7.9
381(20) 0.002625 348.3 7.9
399(20) 0.002506 348.3 8.0
383(20) 0.002611 348.4 8.0
398(20) 0.002513 348.4 8.1
386(20) 0.002591 348.5 8.1
371(19) 0.002695 348.5 8.2
334(18) 0.002994 348.6 11.1
359(19) 0.002786 348.6 11.2
359(19) 0.002786 348.7 11.3
362(19) 0.002762 348.8 11.4
371(19) 0.002695 348.8 11.5
339(18) 0.002950 348.9 11.5
368(19) 0.002717 348.9 11.6
371(19) 0.002695 349.0 11.7
337(18) 0.002967 349.0 11.8
371(19) 0.002695 349.1 12.0
352(19) 0.002841 349.1 12.1
363(19) 0.002755 349.2 12.2
372(19) 0.002688 349.2 12.3
363(19) 0.002755 349.3 12.4
377(19) 0.002653 349.3 12.5
358(19) 0.002793 349.4 12.6
351(19) 0.002849 349.4 12.8
361(19) 0.002770 349.5 12.9
347(19) 0.002882 349.6 13.0
354(19) 0.002825 349.6 13.1
332(18) 0.003012 349.7 13.3
338(18) 0.002959 349.7 13.4
392(20) 0.002551 349.8 13.6
345(19) 0.002899 349.8 13.7
353(19) 0.002833 349.9 13.9
376(19) 0.002660 349.9 14.0
367(19) 0.002725 350.0 14.2
371(19) 0.002695 350.0 14.3
388(20) 0.002577 350.1 14.5
417(20) 0.002398 350.1 14.7
421(21) 0.002375 350.2 14.9
405(20) 0.002469 350.3 15.1
415(20) 0.002410 350.3 15.2
350(19) 0.002857 350.4 15.4
382(20) 0.002618 350.4 15.6
377(19) 0.002653 350.5 15.8
383(20) 0.002611 350.5 16.1
381(20) 0.002625 350.6 16.3
343(19) 0.002915 350.6 16.5
369(19) 0.002710 350.7 16.8
346(19) 0.002890 350.7 17.0
372(19) 0.002688 350.8 17.3
358(19) 0.002793 350.8 17.5
366(19) 0.002732 350.9 17.8
363(19) 0.002755 351.0 18.1
338(18) 0.002959 351.1 18.4
345(19) 0.002899 351.2 18.7
377(19) 0.002653 351.3 19.0
364(19) 0.002747 351.4 19.4
339(18) 0.002950 351.5 19.7
336(18) 0.002976 351.6 20.1
349(19) 0.002865 351.7 20.5
399(20) 0.002506 351.8 20.9
384(20) 0.002604 351.8 21.3
373(19) 0.002681 351.9 21.8
356(19) 0.002809 352.0 22.2
359(19) 0.002786 352.1 22.7
343(19) 0.002915 352.2 23.3
384(20) 0.002604 352.3 23.8
369(19) 0.002710 352.4 24.4
369(19) 0.002710 352.5 25.0
374(19) 0.002674 352.6 25.7
379(19) 0.002639 352.7 26.5
393(20) 0.002545 352.8 27.2
409(20) 0.002445 352.9 28.1
396(20) 0.002525 353.0 29.0
416(20) 0.002404 353.1 30.0
411(20) 0.002433 353.2 31.1
363(19) 0.002755 353.3 32.3
386(20) 0.002591 353.4 33.6
394(20) 0.002538 353.4 35.0
364(19) 0.002747 353.5 36.6
382(20) 0.002618 353.6 38.5
351(19) 0.002849 353.7 40.4
368(19) 0.002717 353.8 42.5
383(20) 0.002611 353.9 44.7
382(20) 0.002618 354.0 47.3
411(20) 0.002433 354.1 50.0
403(20) 0.002481 354.2 53.0
379(19) 0.002639 354.3 56.3
394(20) 0.002538 354.4 59.8
361(19) 0.002770 354.5 63.7
405(20) 0.002469 354.6 67.8
394(20) 0.002538 354.7 72.1
416(20) 0.002404 354.8 76.7
419(20) 0.002387 354.9 81.5
451(21) 0.002217 355.0 86.5
453(21) 0.002208 355.1 91.5
421(21) 0.002375 355.1 96.4
438(21) 0.002283 355.2 101.1
442(21) 0.002262 355.3 105.4
450(21) 0.002222 355.4 109.2
478(22) 0.002092 355.5 112.2
470(22) 0.002128 355.6 114.2
465(22) 0.002151 355.7 115.3
447(21) 0.002237 355.8 115.3
444(21) 0.002252 355.9 114.6
458(21) 0.002183 356.0 112.6
425(21) 0.002353 356.1 109.9
420(20) 0.002381 356.2 106.6
435(21) 0.002299 356.3 102.9
456(21) 0.002193 356.4 98.9
435(21) 0.002299 356.5 94.9
414(20) 0.002415 356.6 91.0
428(21) 0.002336 356.7 87.1
436(21) 0.002294 356.7 83.5
438(21) 0.002283 356.8 80.2
426(21) 0.002347 356.9 77.1
393(20) 0.002545 357.0 74.3
443(21) 0.002257 357.1 71.8
400(20) 0.002500 357.2 69.7
409(20) 0.002445 357.3 67.8
457(21) 0.002188 357.4 66.2
474(22) 0.002110 357.5 64.8
439(21) 0.002278 357.6 63.7
456(21) 0.002193 357.7 62.9
460(21) 0.002174 357.8 62.3
473(22) 0.002114 357.9 61.9
462(21) 0.002164 358.0 61.7
470(22) 0.002128 358.1 61.7
452(21) 0.002212 358.2 61.9
454(21) 0.002203 358.3 62.2
426(21) 0.002347 358.4 62.8
442(21) 0.002262 358.4 63.4
460(21) 0.002174 358.5 64.3
432(21) 0.002315 358.6 65.3
429(21) 0.002331 358.7 66.4
416(20) 0.002404 358.8 67.7
429(21) 0.002331 358.9 69.1
440(21) 0.002273 359.0 70.7
445(21) 0.002247 359.1 72.4
412(20) 0.002427 359.2 74.3
439(21) 0.002278 359.3 76.4
424(21) 0.002358 359.4 78.7
395(20) 0.002532 359.5 81.1
470(22) 0.002128 359.6 83.8
443(21) 0.002257 359.7 86.7
403(20) 0.002481 359.8 89.8
437(21) 0.002288 359.9 93.2
419(20) 0.002387 360.0 96.9
412(20) 0.002427 360.0 100.9
466(22) 0.002146 360.1 105.3
472(22) 0.002119 360.2 110.1
449(21) 0.002227 360.3 115.2
438(21) 0.002283 360.4 120.9
475(22) 0.002105 360.5 127.1
480(22) 0.002083 360.6 134.0
486(22) 0.002058 360.7 141.5
509(23) 0.001965 360.8 149.8
505(22) 0.001980 360.9 159.0
501(22) 0.001996 361.0 169.3
490(22) 0.002041 361.1 180.8
492(22) 0.002033 361.2 193.6
537(23) 0.001862 361.3 208.1
545(23) 0.001835 361.4 224.5
545(23) 0.001835 361.5 243.2
582(24) 0.001718 361.6 264.5
590(24) 0.001695 361.7 289.1
642(25) 0.001558 361.7 317.7
700(26) 0.001429 361.8 351.1
683(26) 0.001464 361.9 390.5
673(26) 0.001486 362.0 437.5
795(28) 0.001258 362.1 494.0
815(29) 0.001227 362.2 563.0
984(31) 0.001016 362.3 648.6
971(31) 0.001030 362.4 757.0
1145(34) 0.000873 362.5 897.8
1284(36) 0.000779 363. 1086.
1546(39) 0.000647 363. 1344.
1775(42) 0.000563 363. 1703.
2222(47) 0.000450 363. 2204.
2731(52) 0.000366 363. 2893.
3656(60) 0.0002735 363. 3808.
4608(68) 0.0002170 363. 4936.
6277(79) 0.0001593 363. 6131.
7310(85) 0.0001368 363. 7008.
7567(87) 0.0001322 363. 7100.
6460(80) 0.0001548 364. 6353.
5147(72) 0.0001943 364. 5194.
4026(63) 0.0002484 364. 4050.
3347(58) 0.0002988 364. 3107.
2738(52) 0.000365 364. 2395.
2291(48) 0.000436 364. 1880.
2003(45) 0.000499 364. 1518.
1801(42) 0.000555 364. 1266.
1604(40) 0.000623 364. 1093.
1485(39) 0.000673 364. 976.
1357(37) 0.000737 364. 900.
1364(37) 0.000733 365. 856.
1257(35) 0.000796 365. 842.
1348(37) 0.000742 365. 859.
1355(37) 0.000738 365. 909.
1385(37) 0.000722 365. 1001.
1451(38) 0.000689 365. 1145.
1657(41) 0.000603 365. 1352.
1809(43) 0.000553 365. 1635.
2015(45) 0.000496 365. 1997.
2268(48) 0.000441 365. 2417.
2563(51) 0.000390 366. 2824.
3033(55) 0.0003297 366. 3084.
3136(56) 0.0003189 366. 3071.
3004(55) 0.0003329 366. 2785.
2549(50) 0.000392 366. 2353.
2248(47) 0.000445 366. 1908.
1771(42) 0.000565 366. 1519.
1483(39) 0.000674 366. 1207.
1221(35) 0.000819 366.3 966.6
1091(33) 0.000917 366.4 784.9
912(30) 0.001096 366.5 650.2
866(29) 0.001155 366.6 549.6
759(28) 0.001318 366.6 473.5
698(26) 0.001433 366.7 414.9
687(26) 0.001456 366.8 368.7
660(26) 0.001515 366.9 331.6
632(25) 0.001582 367.0 301.2
619(25) 0.001616 367.1 275.9
610(25) 0.001639 367.2 254.6
606(25) 0.001650 367.3 236.6
542(23) 0.001845 367.4 221.2
521(23) 0.001919 367.5 208.0
568(24) 0.001761 367.6 196.5
490(22) 0.002041 367.7 186.7
552(23) 0.001812 367.8 178.1
512(23) 0.001953 367.9 170.6
505(22) 0.001980 368.0 164.1
480(22) 0.002083 368.1 158.4
496(22) 0.002016 368.2 153.5
465(22) 0.002151 368.2 149.2
488(22) 0.002049 368.3 145.5
442(21) 0.002262 368.4 142.4
509(23) 0.001965 368.5 139.8
474(22) 0.002110 368.6 137.6
482(22) 0.002075 368.7 136.0
453(21) 0.002208 368.8 134.8
463(22) 0.002160 368.9 134.1
452(21) 0.002212 369.0 134.0
464(22) 0.002155 369.1 134.5
454(21) 0.002203 369.2 135.7
446(21) 0.002242 369.3 137.7
441(21) 0.002268 369.4 140.3
463(22) 0.002160 369.5 143.5
448(21) 0.002232 369.6 146.7
472(22) 0.002119 369.7 149.1
455(21) 0.002198 369.8 149.9
471(22) 0.002123 369.9 149.0
439(21) 0.002278 369.9 147.4
432(21) 0.002315 370.0 145.8
459(21) 0.002179 370.1 144.8
443(21) 0.002257 370.2 144.5
475(22) 0.002105 370.3 144.8
491(22) 0.002037 370.4 145.9
507(23) 0.001972 370.5 147.5
484(22) 0.002066 370.6 149.6
480(22) 0.002083 370.7 152.2
469(22) 0.002132 370.8 155.2
508(23) 0.001968 370.9 158.6
493(22) 0.002028 371.0 162.4
496(22) 0.002016 371.1 166.6
487(22) 0.002053 371.2 171.2
493(22) 0.002028 371.3 176.2
511(23) 0.001957 371.4 181.6
575(24) 0.001739 371.5 187.5
525(23) 0.001905 371.5 193.9
532(23) 0.001880 371.6 200.8
522(23) 0.001916 371.7 208.3
541(23) 0.001848 371.8 216.4
537(23) 0.001862 371.9 225.2
555(24) 0.001802 372.0 234.8
558(24) 0.001792 372.1 245.1
613(25) 0.001631 372.2 256.3
612(25) 0.001634 372.3 268.5
637(25) 0.001570 372.4 281.8
631(25) 0.001585 372.5 296.4
645(25) 0.001550 372.6 312.2
652(26) 0.001534 372.7 329.6
681(26) 0.001468 372.8 348.6
754(27) 0.001326 372.9 369.6
743(27) 0.001346 373.0 392.7
779(28) 0.001284 373.1 418.3
793(28) 0.001261 373.2 446.6
836(29) 0.001196 373.2 478.2
946(31) 0.001057 373.3 513.4
913(30) 0.001095 373.4 553.0
982(31) 0.001018 373.5 597.7
1027(32) 0.000974 373.6 648.4
1134(34) 0.000882 373.7 706.4
1185(34) 0.000844 373.8 773.3
1327(36) 0.000754 374. 851.
1404(37) 0.000712 374. 942.
1551(39) 0.000645 374. 1051.
1657(41) 0.000603 374. 1180.
1857(43) 0.000539 374. 1335.
2014(45) 0.000497 374. 1523.
2322(48) 0.000431 374. 1751.
2466(50) 0.000406 375. 2025.
2951(54) 0.0003389 375. 2355.
3279(57) 0.0003050 375. 2749.
3852(62) 0.0002596 375. 3215.
4384(66) 0.0002281 375. 3756.
5228(72) 0.0001913 375. 4371.
6018(78) 0.0001662 375. 5052.
6890(83) 0.0001451 375. 5770.
7819(88) 0.0001279 375. 6476.
8697(93) 0.0001150 375. 7091.
9232(96) 0.0001083 376. 7522.
8740(93) 0.0001144 376. 7687.
8593(93) 0.0001164 376. 7549.
7565(87) 0.0001322 376. 7140.
6763(82) 0.0001479 376. 6538.
6127(78) 0.0001632 376. 5839.
5240(72) 0.0001908 376. 5121.
4762(69) 0.0002100 376. 4438.
4193(65) 0.0002385 376. 3817.
3664(61) 0.0002729 376. 3272.
3295(57) 0.0003035 376. 2802.
3105(56) 0.0003221 377. 2404.
2717(52) 0.000368 377. 2072.
2554(51) 0.000392 377. 1795.
2343(48) 0.000427 377. 1566.
2121(46) 0.000471 377. 1378.
1961(44) 0.000510 377. 1223.
1809(43) 0.000553 377. 1095.
1626(40) 0.000615 377. 988.
1611(40) 0.000621 377. 899.
1484(39) 0.000674 377. 824.
1365(37) 0.000733 377. 761.
1295(36) 0.000772 378. 707.
1202(35) 0.000832 377.7 662.4
1114(33) 0.000898 377.8 623.5
1118(33) 0.000894 377.9 590.6
1055(32) 0.000948 378.0 563.0
1092(33) 0.000916 378.1 540.2
998(32) 0.001002 378.1 521.9
975(31) 0.001026 378.2 507.8
903(30) 0.001107 378.3 497.8
914(30) 0.001094 378.4 491.6
911(30) 0.001098 378.5 489.2
891(30) 0.001122 378.6 490.6
866(29) 0.001155 378.7 495.5
855(29) 0.001170 378.8 503.8
858(29) 0.001166 378.9 515.4
949(31) 0.001054 379.0 529.8
890(30) 0.001124 379.1 546.4
904(30) 0.001106 379.2 564.4
927(30) 0.001079 379.3 582.5
938(31) 0.001066 379.4 599.1
947(31) 0.001056 379.5 612.4
930(30) 0.001075 379.6 620.6
887(30) 0.001127 379.7 622.3
856(29) 0.001168 379.8 616.7
905(30) 0.001105 379.8 604.0
896(30) 0.001116 379.9 585.3
905(30) 0.001105 380.0 562.1
831(29) 0.001203 380.1 536.3
845(29) 0.001183 380.2 509.6
794(28) 0.001259 380.3 483.4
770(28) 0.001299 380.4 458.8
790(28) 0.001266 380.5 436.4
746(27) 0.001340 380.6 416.9
750(27) 0.001333 380.7 400.4
723(27) 0.001383 380.8 387.3
755(27) 0.001324 380.9 377.7
747(27) 0.001339 381.0 371.7
727(27) 0.001376 381.1 369.6
761(28) 0.001314 381.2 371.8
774(28) 0.001292 381.3 378.5
744(27) 0.001344 381.4 390.5
801(28) 0.001248 381.4 408.2
824(29) 0.001214 381.5 432.4
826(29) 0.001211 381.6 464.0
915(30) 0.001093 381.7 503.9
877(30) 0.001140 381.8 552.6
966(31) 0.001035 381.9 610.9
1091(33) 0.000917 382.0 678.5
1071(33) 0.000934 382.1 754.1
1153(34) 0.000867 382.2 834.7
1246(35) 0.000803 382. 914.
1318(36) 0.000759 382. 985.
1427(38) 0.000701 382. 1036.
1506(39) 0.000664 383. 1062.
1585(40) 0.000631 383. 1063.
1515(39) 0.000660 383. 1046.
1485(39) 0.000673 383. 1019.
1536(39) 0.000651 383. 992.
1539(39) 0.000650 383. 974.
1475(38) 0.000678 383. 967.
1504(39) 0.000665 383. 973.
1552(39) 0.000644 383. 992.
1516(39) 0.000660 383. 1023.
1582(40) 0.000632 384. 1061.
1627(40) 0.000615 384. 1103.
1738(42) 0.000575 384. 1143.
1810(43) 0.000552 384. 1174.
1801(42) 0.000555 384. 1190.
1834(43) 0.000545 384. 1186.
1643(41) 0.000609 384. 1160.
1586(40) 0.000631 384. 1113.
1483(39) 0.000674 384. 1051.
1491(39) 0.000671 384. 978.
1372(37) 0.000729 384. 901.
1315(36) 0.000760 385. 822.
1194(35) 0.000838 384.7 746.6
1125(34) 0.000889 384.7 675.7
1084(33) 0.000923 384.8 610.8
1016(32) 0.000984 384.9 552.2
1029(32) 0.000972 385.0 499.8
921(30) 0.001086 385.1 453.5
921(30) 0.001086 385.2 412.6
869(29) 0.001151 385.3 376.6
841(29) 0.001189 385.4 344.9
849(29) 0.001178 385.5 317.0
805(28) 0.001242 385.6 292.3
735(27) 0.001361 385.7 270.4
717(27) 0.001395 385.8 251.0
719(27) 0.001391 385.9 233.8
670(26) 0.001493 386.0 218.5
705(27) 0.001418 386.1 204.9
642(25) 0.001558 386.2 192.8
603(25) 0.001658 386.3 182.1
615(25) 0.001626 386.3 172.5
608(25) 0.001645 386.4 163.9
568(24) 0.001761 386.5 156.3
574(24) 0.001742 386.6 149.8
549(23) 0.001822 386.7 143.8
538(23) 0.001859 386.8 138.4
534(23) 0.001873 386.9 133.7
526(23) 0.001901 387.0 129.6
528(23) 0.001894 387.1 125.9
512(23) 0.001953 387.2 122.8
510(23) 0.001961 387.3 120.1
513(23) 0.001949 387.4 117.9
478(22) 0.002092 387.5 116.0
497(22) 0.002012 387.6 114.6
504(22) 0.001984 387.7 113.5
497(22) 0.002012 387.8 112.9
485(22) 0.002062 387.9 112.6
502(22) 0.001992 388.0 112.7
459(21) 0.002179 388.0 113.1
464(22) 0.002155 388.1 114.1
442(21) 0.002262 388.2 115.4
475(22) 0.002105 388.3 117.2
475(22) 0.002105 388.4 119.6
509(23) 0.001965 388.5 122.6
458(21) 0.002183 388.6 126.3
492(22) 0.002033 388.7 130.9
493(22) 0.002028 388.8 136.5
505(22) 0.001980 388.9 143.5
519(23) 0.001927 389.0 152.3
564(24) 0.001773 389.1 163.3
591(24) 0.001692 389.2 177.5
568(24) 0.001761 389.3 196.1
636(25) 0.001572 389.4 221.1
674(26) 0.001484 389.5 255.8
782(28) 0.001279 389.6 306.0
893(30) 0.001120 389.6 380.9
1092(33) 0.000916 389.7 494.2
1256(35) 0.000796 390. 663.
1514(39) 0.000661 390. 903.
1755(42) 0.000570 390. 1203.
2094(46) 0.000478 390. 1474.
2114(46) 0.000473 390. 1539.
1885(43) 0.000531 390. 1339.
1518(39) 0.000659 390. 1030.
1226(35) 0.000816 390.5 754.5
937(31) 0.001067 390.6 550.6
799(28) 0.001252 390.7 410.3
717(27) 0.001395 390.8 316.3
617(25) 0.001621 390.9 252.9
548(23) 0.001825 391.0 208.9
515(23) 0.001942 391.1 177.2
472(22) 0.002119 391.2 153.3
467(22) 0.002141 391.3 134.9
458(21) 0.002183 391.3 120.2
437(21) 0.002288 391.4 108.3
435(21) 0.002299 391.5 98.5
435(21) 0.002299 391.6 90.3
430(21) 0.002326 391.7 83.4
424(21) 0.002358 391.8 77.4
435(21) 0.002299 391.9 72.3
411(20) 0.002433 392.0 67.9
399(20) 0.002506 392.1 64.0
416(20) 0.002404 392.2 60.5
429(21) 0.002331 392.3 57.5
385(20) 0.002597 392.4 54.7
414(20) 0.002415 392.5 52.2
390(20) 0.002564 392.6 50.0
406(20) 0.002463 392.7 48.0
421(21) 0.002375 392.8 46.1
426(21) 0.002347 392.5 44.4
394(20) 0.002538 392.2 42.9
413(20) 0.002421 392.0 41.4
452(21) 0.002212 391.7 40.1
374(19) 0.002674 391.4 38.9
397(20) 0.002519 391.2 37.7
410(20) 0.002439 390.9 36.7
405(20) 0.002469 390.6 35.7
405(20) 0.002469 390.4 34.8
415(20) 0.002410 390.1 33.9
391(20) 0.002558 389.8 33.1
379(19) 0.002639 389.6 32.3
475(22) 0.002105 389.3 31.6
444(21) 0.002252 389.0 30.9
437(21) 0.002288 388.8 30.3
444(21) 0.002252 388.5 29.7
450(21) 0.002222 388.2 29.1
452(21) 0.002212 388.0 28.5
443(21) 0.002257 387.7 28.0
407(20) 0.002457 387.4 27.5
394(20) 0.002538 387.2 27.1
423(21) 0.002364 386.9 26.6
402(20) 0.002488 386.6 26.2
413(20) 0.002421 386.4 25.8
359(19) 0.002786 386.1 25.4
431(21) 0.002320 385.8 25.0
416(20) 0.002404 385.6 24.7
393(20) 0.002545 385.3 24.3
387(20) 0.002584 385.0 24.0
396(20) 0.002525 384.8 23.7
413(20) 0.002421 384.5 23.5
421(21) 0.002375 384.2 23.2
400(20) 0.002500 384.0 22.9
405(20) 0.002469 383.7 22.7
395(20) 0.002532 383.4 22.4
418(20) 0.002392 383.2 22.2
424(21) 0.002358 382.9 22.0
387(20) 0.002584 382.6 21.8
427(21) 0.002342 382.4 21.6
442(21) 0.002262 382.1 21.4
413(20) 0.002421 381.8 21.3
395(20) 0.002532 381.6 21.1
419(20) 0.002387 381.3 21.0
408(20) 0.002451 381.0 20.9
433(21) 0.002309 380.8 20.8
392(20) 0.002551 380.5 20.7
394(20) 0.002538 380.2 20.6
419(20) 0.002387 380.0 20.6
409(20) 0.002445 379.7 20.5
389(20) 0.002571 379.4 20.5
366(19) 0.002732 379.2 20.6
413(20) 0.002421 378.9 20.6
387(20) 0.002584 378.6 20.7
381(20) 0.002625 378.4 20.8
427(21) 0.002342 378.1 20.9
401(20) 0.002494 377.8 21.1
422(21) 0.002370 377.6 21.3
398(20) 0.002513 377.3 21.5
418(20) 0.002392 377.0 21.8
443(21) 0.002257 376.8 22.1
412(20) 0.002427 376.5 22.5
409(20) 0.002445 376.2 22.9
384(20) 0.002604 376.0 23.4
378(19) 0.002646 375.7 23.8
399(20) 0.002506 375.4 24.3
404(20) 0.002475 375.2 24.8
428(21) 0.002336 374.9 25.4
392(20) 0.002551 374.6 25.8
380(19) 0.002632 374.4 26.3
422(21) 0.002370 374.1 26.6
409(20) 0.002445 373.8 26.8
399(20) 0.002506 373.6 26.9
395(20) 0.002532 373.3 26.9
430(21) 0.002326 373.0 26.7
355(19) 0.002817 372.8 26.4
362(19) 0.002762 372.5 26.0
405(20) 0.002469 372.2 25.6
392(20) 0.002551 372.0 25.0
413(20) 0.002421 371.7 24.5
391(20) 0.002558 371.4 23.9
386(20) 0.002591 371.2 23.3
440(21) 0.002273 370.9 22.8
439(21) 0.002278 370.6 22.3
454(21) 0.002203 370.4 21.8
452(21) 0.002212 370.1 21.4
418(20) 0.002392 369.8 21.0
420(20) 0.002381 369.6 20.7
433(21) 0.002309 369.3 20.4
398(20) 0.002513 369.0 20.1
379(19) 0.002639 368.8 19.9
391(20) 0.002558 368.5 19.7
376(19) 0.002660 368.2 19.6
402(20) 0.002488 368.0 19.5
367(19) 0.002725 367.7 19.4
380(19) 0.002632 367.4 19.4
382(20) 0.002618 367.2 19.3
382(20) 0.002618 366.9 19.4
400(20) 0.002500 366.6 19.4
379(19) 0.002639 366.4 19.5
378(19) 0.002646 366.1 19.6
382(20) 0.002618 365.8 19.7
429(21) 0.002331 365.6 19.8
398(20) 0.002513 365.3 20.0
388(20) 0.002577 365.0 20.2
373(19) 0.002681 364.8 20.4
383(20) 0.002611 364.5 20.6
383(20) 0.002611 364.2 20.9
354(19) 0.002825 364.0 21.2
396(20) 0.002525 363.7 21.5
394(20) 0.002538 363.4 21.9
368(19) 0.002717 363.2 22.3
383(20) 0.002611 362.9 22.7
382(20) 0.002618 362.9 23.2
342(18) 0.002924 363.0 23.7
345(19) 0.002899 363.1 24.3
429(21) 0.002331 363.1 24.9
386(20) 0.002591 363.2 25.6
413(20) 0.002421 363.3 26.4
412(20) 0.002427 363.4 27.2
355(19) 0.002817 363.5 28.1
390(20) 0.002564 363.5 29.2
404(20) 0.002475 363.6 30.3
389(20) 0.002571 363.7 31.5
401(20) 0.002494 363.8 32.9
389(20) 0.002571 363.9 34.5
392(20) 0.002551 363.9 36.2
390(20) 0.002564 364.0 38.2
390(20) 0.002564 364.1 40.5
361(19) 0.002770 364.2 43.0
401(20) 0.002494 364.3 46.0
425(21) 0.002353 364.3 49.5
414(20) 0.002415 364.4 53.5
402(20) 0.002488 364.5 58.2
430(21) 0.002326 364.6 63.9
449(21) 0.002227 364.7 70.8
430(21) 0.002326 364.7 79.3
438(21) 0.002283 364.8 90.0
485(22) 0.002062 364.9 103.7
531(23) 0.001883 365.0 122.0
559(24) 0.001789 365.1 147.3
574(24) 0.001742 365.1 183.3
588(24) 0.001701 365.2 235.4
698(26) 0.001433 365.3 310.0
769(28) 0.001300 365.4 412.7
885(30) 0.001130 365.5 541.2
1003(32) 0.000997 365.5 666.7
1105(33) 0.000905 365.6 725.3
1005(32) 0.000995 365.7 677.4
998(32) 0.001002 365.8 567.6
904(30) 0.001106 365.9 459.3
902(30) 0.001109 365.9 380.8
881(30) 0.001135 366.0 335.2
891(30) 0.001122 366.1 318.9
920(30) 0.001087 366.2 328.1
936(31) 0.001068 366.3 360.2
1050(32) 0.000952 366.3 414.2
1113(33) 0.000898 366.4 489.0
1244(35) 0.000804 367. 581.
1386(37) 0.000722 367. 678.
1447(38) 0.000691 367. 757.
1500(39) 0.000667 367. 789.
1468(38) 0.000681 367. 755.
1387(37) 0.000721 367. 671.
1122(33) 0.000891 367.0 565.7
1005(32) 0.000995 367.1 462.3
876(30) 0.001142 367.1 372.9
797(28) 0.001255 367.2 300.4
688(26) 0.001453 367.3 243.6
694(26) 0.001441 367.4 200.1
588(24) 0.001701 367.5 167.1
543(23) 0.001842 367.5 142.2
521(23) 0.001919 367.6 123.1
494(22) 0.002024 367.7 108.3
484(22) 0.002066 367.8 96.7
482(22) 0.002075 367.9 87.4
472(22) 0.002119 367.9 79.7
439(21) 0.002278 368.0 73.4
441(21) 0.002268 368.1 68.1
477(22) 0.002096 368.2 63.7
422(21) 0.002370 368.3 60.0
414(20) 0.002415 368.3 56.8
398(20) 0.002513 368.4 54.1
426(21) 0.002347 368.5 51.8
438(21) 0.002283 368.6 49.8
411(20) 0.002433 368.7 48.2
422(21) 0.002370 368.7 46.8
430(21) 0.002326 368.8 45.6
461(21) 0.002169 368.9 44.6
382(20) 0.002618 369.0 43.8
402(20) 0.002488 369.1 43.2
429(21) 0.002331 369.1 42.8
422(21) 0.002370 369.2 42.4
407(20) 0.002457 369.3 42.2
416(20) 0.002404 369.4 42.2
413(20) 0.002421 369.5 42.2
424(21) 0.002358 369.5 42.4
404(20) 0.002475 369.6 42.7
427(21) 0.002342 369.7 43.1
423(21) 0.002364 369.8 43.6
408(20) 0.002451 369.9 44.3
440(21) 0.002273 369.9 45.1
388(20) 0.002577 370.0 46.0
432(21) 0.002315 370.1 47.0
436(21) 0.002294 370.2 48.2
434(21) 0.002304 370.3 49.6
429(21) 0.002331 370.3 51.1
419(20) 0.002387 370.4 52.8
435(21) 0.002299 370.5 54.7
444(21) 0.002252 370.6 56.8
434(21) 0.002304 370.7 59.2
461(21) 0.002169 370.7 61.8
487(22) 0.002053 370.8 64.6
442(21) 0.002262 370.9 67.8
447(21) 0.002237 371.0 71.3
458(21) 0.002183 371.1 75.1
451(21) 0.002217 371.1 79.3
443(21) 0.002257 371.2 83.9
436(21) 0.002294 371.3 88.9
470(22) 0.002128 371.4 94.4
497(22) 0.002012 371.5 100.3
468(22) 0.002137 371.5 106.8
476(22) 0.002101 371.6 113.8
467(22) 0.002141 371.7 121.5
541(23) 0.001848 371.8 129.7
524(23) 0.001908 371.9 138.5
532(23) 0.001880 371.9 148.1
532(23) 0.001880 372.0 158.4
518(23) 0.001931 372.1 169.4
582(24) 0.001718 372.2 181.3
592(24) 0.001689 372.3 194.2
579(24) 0.001727 372.3 208.0
618(25) 0.001618 372.4 223.1
612(25) 0.001634 372.5 239.3
648(25) 0.001543 372.6 256.7
650(25) 0.001538 372.7 274.9
696(26) 0.001437 372.7 293.2
743(27) 0.001346 372.8 309.6
738(27) 0.001355 372.9 321.5
761(28) 0.001314 373.0 327.3
788(28) 0.001269 373.1 327.3
738(27) 0.001355 373.1 323.5
753(27) 0.001328 373.2 317.6
720(27) 0.001389 373.3 310.7
739(27) 0.001353 373.4 302.9
748(27) 0.001337 373.5 294.3
694(26) 0.001441 373.5 284.9
678(26) 0.001475 373.6 274.7
664(26) 0.001506 373.7 263.8
612(25) 0.001634 373.8 252.3
611(25) 0.001637 373.9 240.4
612(25) 0.001634 373.9 228.3
600(24) 0.001667 374.0 216.2
615(25) 0.001626 374.1 204.2
600(24) 0.001667 374.2 192.5
632(25) 0.001582 374.3 181.2
610(25) 0.001639 374.3 170.4
541(23) 0.001848 374.4 160.1
554(24) 0.001805 374.5 150.4
528(23) 0.001894 374.6 141.5
535(23) 0.001869 374.7 133.3
504(22) 0.001984 374.7 125.8
544(23) 0.001838 374.8 119.0
528(23) 0.001894 374.9 113.0
550(23) 0.001818 375.0 107.4
538(23) 0.001859 375.0 101.9
498(22) 0.002008 375.1 96.1
542(23) 0.001845 375.2 90.1
551(23) 0.001815 375.3 84.0
514(23) 0.001946 375.4 78.1
518(23) 0.001931 375.4 72.7
499(22) 0.002004 375.5 67.8
532(23) 0.001880 375.6 63.4
449(21) 0.002227 375.7 59.5
516(23) 0.001938 375.8 56.0
482(22) 0.002075 375.8 52.9
460(21) 0.002174 375.9 50.0
470(22) 0.002128 376.0 47.5
469(22) 0.002132 376.1 45.1
447(21) 0.002237 376.2 43.0
468(22) 0.002137 376.2 41.0
463(22) 0.002160 376.3 39.2
452(21) 0.002212 376.4 37.6
459(21) 0.002179 376.5 36.1
440(21) 0.002273 376.6 34.6
418(20) 0.002392 376.6 33.3
445(21) 0.002247 376.7 32.1
430(21) 0.002326 376.8 30.9
426(21) 0.002347 376.9 29.8
421(21) 0.002375 377.0 28.8
438(21) 0.002283 377.0 27.9
431(21) 0.002320 377.1 27.0
427(21) 0.002342 377.2 26.2
427(21) 0.002342 377.3 25.4
439(21) 0.002278 377.4 24.6
442(21) 0.002262 377.4 23.9
432(21) 0.002315 377.5 23.2
410(20) 0.002439 377.6 22.6
409(20) 0.002445 377.7 22.0
408(20) 0.002451 377.8 21.4
399(20) 0.002506 377.8 20.9
425(21) 0.002353 377.9 20.3
425(21) 0.002353 378.0 19.8
435(21) 0.002299 378.1 19.4
446(21) 0.002242 378.2 18.9
420(20) 0.002381 378.2 18.5
421(21) 0.002375 378.3 18.1
440(21) 0.002273 378.4 17.7
433(21) 0.002309 378.5 17.3
401(20) 0.002494 378.6 16.9
379(19) 0.002639 378.6 16.6
412(20) 0.002427 378.7 16.2
389(20) 0.002571 378.8 15.9
443(21) 0.002257 378.9 15.6
442(21) 0.002262 379.0 15.3
427(21) 0.002342 379.0 15.0
411(20) 0.002433 379.1 14.8
430(21) 0.002326 379.2 14.5
416(20) 0.002404 379.3 14.3
407(20) 0.002457 379.4 14.0
442(21) 0.002262 379.4 13.8
446(21) 0.002242 379.5 13.6
442(21) 0.002262 379.6 13.4
430(21) 0.002326 379.7 13.2
374(19) 0.002674 379.8 13.0
398(20) 0.002513 379.8 12.8
410(20) 0.002439 379.9 12.6
388(20) 0.002577 380.0 12.4
386(20) 0.002591 380.1 12.3
401(20) 0.002494 380.2 12.1
407(20) 0.002457 380.2 12.0
423(21) 0.002364 380.3 11.8
408(20) 0.002451 380.4 11.7
388(20) 0.002577 380.5 11.6
430(21) 0.002326 380.6 11.4
398(20) 0.002513 380.6 11.3
391(20) 0.002558 380.7 11.2
420(20) 0.002381 380.8 11.1
416(20) 0.002404 380.9 11.0
399(20) 0.002506 381.0 10.9
365(19) 0.002740 381.2 10.8
433(21) 0.002309 381.3 10.7
414(20) 0.002415 381.4 10.6
368(19) 0.002717 381.5 10.6
427(21) 0.002342 381.6 10.5
408(20) 0.002451 381.7 10.4
400(20) 0.002500 381.9 10.4
380(19) 0.002632 382.0 10.3
423(21) 0.002364 382.1 10.3
391(20) 0.002558 382.2 10.2
424(21) 0.002358 382.3 10.2
413(20) 0.002421 382.5 10.1
419(20) 0.002387 382.6 10.1
407(20) 0.002457 382.7 10.6
409(20) 0.002445 382.8 10.6
431(21) 0.002320 382.9 10.6
400(20) 0.002500 383.0 10.6
429(21) 0.002331 383.2 10.6
425(21) 0.002353 383.3 10.6
426(21) 0.002347 383.4 10.6
429(21) 0.002331 383.5 10.7
402(20) 0.002488 383.6 10.7
403(20) 0.002481 383.8 10.8
421(21) 0.002375 383.9 10.8
412(20) 0.002427 384.0 10.9
435(21) 0.002299 384.1 11.0
447(21) 0.002237 384.2 11.1
397(20) 0.002519 384.3 11.2
459(21) 0.002179 384.5 11.3
433(21) 0.002309 384.6 11.5
412(20) 0.002427 384.7 11.6
414(20) 0.002415 384.8 12.0
466(22) 0.002146 384.9 12.2
457(21) 0.002188 385.1 12.4
395(20) 0.002532 385.2 12.7
444(21) 0.002252 385.3 13.0
413(20) 0.002421 385.4 13.4
424(21) 0.002358 385.5 13.8
420(20) 0.002381 385.7 14.2
410(20) 0.002439 385.8 14.7
414(20) 0.002415 385.9 15.3
446(21) 0.002242 386.0 15.9
423(21) 0.002364 386.1 16.7
424(21) 0.002358 386.2 18.3
419(20) 0.002387 386.4 19.3
436(21) 0.002294 386.5 20.6
433(21) 0.002309 386.6 22.0
444(21) 0.002252 386.7 23.8
417(20) 0.002398 386.8 25.9
499(22) 0.002004 387.0 28.6
462(21) 0.002164 387.1 31.8
497(22) 0.002012 387.2 35.7
439(21) 0.002278 387.3 40.4
460(21) 0.002174 387.4 46.1
507(23) 0.001972 387.5 52.9
513(23) 0.001949 387.7 60.7
498(22) 0.002008 387.8 69.6
512(23) 0.001953 387.9 79.2
552(23) 0.001812 388.0 89.0
570(24) 0.001754 388.1 97.8
607(25) 0.001647 388.3 104.4
592(24) 0.001689 388.4 107.3
583(24) 0.001715 388.5 105.9
547(23) 0.001828 388.6 100.6
550(23) 0.001818 388.7 92.5
530(23) 0.001887 388.8 83.0
508(23) 0.001968 389.0 73.4
523(23) 0.001912 389.1 64.4
467(22) 0.002141 389.2 56.4
482(22) 0.002075 389.3 49.5
477(22) 0.002096 389.4 43.6
493(22) 0.002028 389.6 38.7
485(22) 0.002062 389.7 34.7
481(22) 0.002079 389.8 31.5
438(21) 0.002283 389.9 28.9
446(21) 0.002242 390.0 27.1
451(21) 0.002217 390.1 25.4
463(22) 0.002160 390.3 24.1
447(21) 0.002237 390.4 23.0
426(21) 0.002347 390.5 22.2
432(21) 0.002315 390.6 21.6
452(21) 0.002212 390.7 21.1
460(21) 0.002174 390.9 20.7
445(21) 0.002247 391.0 20.5
445(21) 0.002247 391.1 20.3
426(21) 0.002347 391.2 20.3
448(21) 0.002232 391.3 20.3
477(22) 0.002096 391.4 20.5
449(21) 0.002227 391.6 20.7
460(21) 0.002174 391.7 20.9
432(21) 0.002315 391.8 21.3
455(21) 0.002198 391.9 21.7
460(21) 0.002174 392.0 22.3
475(22) 0.002105 392.2 22.8
484(22) 0.002066 392.3 23.5
467(22) 0.002141 392.4 24.3
462(21) 0.002164 392.5 25.1
491(22) 0.002037 392.6 26.0
472(22) 0.002119 392.8 27.1
475(22) 0.002105 392.9 28.1
473(22) 0.002114 393.0 29.3
446(21) 0.002242 393.1 31.2
463(22) 0.002160 393.2 32.6
464(22) 0.002155 393.3 34.0
488(22) 0.002049 393.5 35.5
506(22) 0.001976 393.6 37.1
475(22) 0.002105 393.7 38.9
499(22) 0.002004 393.8 40.5
480(22) 0.002083 393.9 42.3
510(23) 0.001961 394.1 44.0
483(22) 0.002070 394.2 45.7
478(22) 0.002092 394.3 47.3
501(22) 0.001996 394.4 48.9
494(22) 0.002024 394.5 50.4
489(22) 0.002045 394.6 51.7
487(22) 0.002053 394.8 52.9
476(22) 0.002101 394.9 53.9
511(23) 0.001957 395.0 54.7
484(22) 0.002066 395.1 55.2
519(23) 0.001927 395.2 55.5
475(22) 0.002105 395.4 55.5
496(22) 0.002016 395.5 55.2
456(21) 0.002193 395.6 54.7
481(22) 0.002079 395.7 53.9
474(22) 0.002110 395.8 52.9
486(22) 0.002058 395.9 51.7
432(21) 0.002315 396.1 50.3
497(22) 0.002012 396.2 48.8
469(22) 0.002132 396.3 47.2
478(22) 0.002092 396.4 45.6
504(22) 0.001984 396.5 43.9
484(22) 0.002066 396.7 42.1
486(22) 0.002058 396.8 40.4
534(23) 0.001873 396.9 38.7
438(21) 0.002283 397.0 37.0
464(22) 0.002155 397.1 35.4
468(22) 0.002137 397.2 33.8
492(22) 0.002033 397.4 32.3
452(21) 0.002212 397.5 30.9
485(22) 0.002062 397.6 29.6
480(22) 0.002083 397.7 28.3
489(22) 0.002045 397.8 27.1
460(21) 0.002174 398.0 26.0
472(22) 0.002119 398.1 25.0
459(21) 0.002179 398.2 24.0
437(21) 0.002288 398.3 23.1
452(21) 0.002212 398.4 22.3
449(21) 0.002227 398.5 21.5
428(21) 0.002336 398.7 20.8
441(21) 0.002268 398.8 20.2
426(21) 0.002347 398.9 19.6
417(20) 0.002398 399.0 19.0
430(21) 0.002326 399.1 18.5
427(21) 0.002342 399.3 18.1
442(21) 0.002262 399.4 17.6
451(21) 0.002217 399.5 17.2
397(20) 0.002519 399.6 16.9
429(21) 0.002331 399.7 16.6
453(21) 0.002208 399.8 16.3
419(20) 0.002387 400.0 16.0
432(21) 0.002315 400.1 15.8
427(21) 0.002342 400.2 15.5
409(20) 0.002445 400.3 15.3
442(21) 0.002262 400.4 15.2
421(21) 0.002375 400.6 15.0
432(21) 0.002315 400.7 14.8
443(21) 0.002257 400.8 14.7
443(21) 0.002257 400.9 14.6
425(21) 0.002353 401.0 14.5
476(22) 0.002101 401.2 14.4
410(20) 0.002439 401.3 14.3
430(21) 0.002326 401.4 14.2
440(21) 0.002273 401.5 14.2
412(20) 0.002427 401.6 14.1
449(21) 0.002227 401.7 14.5
426(21) 0.002347 401.9 14.4
443(21) 0.002257 402.0 14.4
418(20) 0.002392 402.1 14.4
413(20) 0.002421 402.2 14.4
412(20) 0.002427 402.3 14.3
420(20) 0.002381 402.5 14.4
429(21) 0.002331 402.6 14.4
417(20) 0.002398 402.7 17.1
433(21) 0.002309 402.8 17.1
456(21) 0.002193 402.9 17.2
434(21) 0.002304 403.0 17.3
443(21) 0.002257 403.2 17.3
439(21) 0.002278 403.3 17.4
430(21) 0.002326 403.4 17.5
427(21) 0.002342 403.5 17.5
440(21) 0.002273 403.6 17.6
449(21) 0.002227 403.8 17.7
439(21) 0.002278 403.9 17.8
421(21) 0.002375 404.0 17.9
408(20) 0.002451 404.1 18.0
440(21) 0.002273 404.2 18.1
394(20) 0.002538 404.3 18.3
426(21) 0.002347 404.5 18.4
411(20) 0.002433 404.6 18.5
399(20) 0.002506 404.7 18.7
416(20) 0.002404 404.9 18.8
409(20) 0.002445 405.1 18.9
447(21) 0.002237 405.3 19.1
419(20) 0.002387 405.5 19.3
429(21) 0.002331 405.7 19.4
386(20) 0.002591 406.0 19.6
439(21) 0.002278 406.2 19.8
431(21) 0.002320 406.4 19.9
430(21) 0.002326 406.6 20.1
426(21) 0.002347 406.8 20.3
419(20) 0.002387 407.0 20.5
444(21) 0.002252 407.2 20.7
412(20) 0.002427 407.4 21.0
436(21) 0.002294 407.7 21.2
436(21) 0.002294 407.9 21.4
419(20) 0.002387 408.1 21.8
448(21) 0.002232 408.3 22.0
439(21) 0.002278 408.5 22.3
419(20) 0.002387 408.7 22.5
417(20) 0.002398 408.9 22.8
394(20) 0.002538 409.1 23.1
426(21) 0.002347 409.4 23.4
448(21) 0.002232 409.6 23.7
443(21) 0.002257 409.8 24.0
424(21) 0.002358 410.0 24.3
438(21) 0.002283 410.2 24.6
418(20) 0.002392 410.4 25.0
432(21) 0.002315 410.6 25.3
427(21) 0.002342 410.8 25.7
418(20) 0.002392 411.1 26.0
451(21) 0.002217 411.3 27.7
410(20) 0.002439 411.5 28.1
469(22) 0.002132 411.7 28.5
451(21) 0.002217 411.9 28.9
428(21) 0.002336 412.1 29.3
447(21) 0.002237 412.3 29.8
419(20) 0.002387 412.5 30.2
443(21) 0.002257 412.8 30.7
462(21) 0.002164 413.0 31.2
451(21) 0.002217 413.2 31.7
458(21) 0.002183 413.4 32.3
480(22) 0.002083 413.6 32.8
460(21) 0.002174 413.8 33.4
486(22) 0.002058 414.0 34.0
473(22) 0.002114 414.2 34.6
511(23) 0.001957 414.5 35.3
535(23) 0.001869 414.7 35.9
471(22) 0.002123 414.9 36.6
471(22) 0.002123 415.1 37.3
488(22) 0.002049 415.3 38.1
512(23) 0.001953 415.5 38.9
534(23) 0.001873 415.7 39.7
526(23) 0.001901 415.9 40.5
482(22) 0.002075 416.2 41.4
512(23) 0.001953 416.4 42.4
506(22) 0.001976 416.6 43.4
478(22) 0.002092 416.8 44.4
506(22) 0.001976 417.0 45.4
493(22) 0.002028 417.2 46.5
501(22) 0.001996 417.4 47.6
456(21) 0.002193 417.6 48.9
498(22) 0.002008 417.9 50.2
468(22) 0.002137 418.1 51.5
481(22) 0.002079 418.3 52.9
504(22) 0.001984 418.5 54.4
502(22) 0.001992 418.7 56.0
475(22) 0.002105 418.9 57.6
508(23) 0.001968 419.1 59.4
474(22) 0.002110 419.3 61.2
498(22) 0.002008 419.6 63.2
484(22) 0.002066 419.8 65.3
414(20) 0.002415 420.0 67.6
461(21) 0.002169 420.2 70.0
432(21) 0.002315 420.4 72.6
501(22) 0.001996 420.6 75.3
459(21) 0.002179 420.8 78.3
469(22) 0.002132 421.0 81.6
458(21) 0.002183 421.3 85.1
470(22) 0.002128 421.5 88.9
474(22) 0.002110 421.7 93.1
465(22) 0.002151 421.9 97.7
497(22) 0.002012 422.1 102.8
527(23) 0.001898 422.3 108.5
496(22) 0.002016 422.5 114.8
541(23) 0.001848 422.8 121.9
530(23) 0.001887 423.0 129.9
531(23) 0.001883 423.2 139.1
557(24) 0.001795 423.4 149.7
587(24) 0.001704 423.6 162.1
584(24) 0.001712 423.8 177.0
602(25) 0.001661 424.0 195.0
678(26) 0.001475 424.2 217.5
698(26) 0.001433 424.5 245.9
723(27) 0.001383 424.7 282.3
794(28) 0.001259 424.9 329.2
843(29) 0.001186 425.1 389.5
946(31) 0.001057 425.3 465.5
1056(32) 0.000947 425.5 558.3
1236(35) 0.000809 426. 665.
1382(37) 0.000724 426. 774.
1413(38) 0.000708 426. 861.
1581(40) 0.000633 426. 899.
1483(39) 0.000674 427. 879.
1320(36) 0.000758 427. 818.
1245(35) 0.000803 427. 747.
1211(35) 0.000826 427.2 686.9
1252(35) 0.000799 427. 647.
1230(35) 0.000813 427.6 628.4
1218(35) 0.000821 427.9 631.4
1190(34) 0.000840 428.1 652.6
1315(36) 0.000760 428. 688.
1286(36) 0.000778 428. 734.
1354(37) 0.000739 429. 782.
1408(38) 0.000710 429. 826.
1445(38) 0.000692 429. 864.
1402(37) 0.000713 429. 895.
1377(37) 0.000726 430. 926.
1354(37) 0.000739 430. 964.
1423(38) 0.000703 430. 1016.
1470(38) 0.000680 430. 1087.
1531(39) 0.000653 430. 1177.
1682(41) 0.000595 431. 1286.
1771(42) 0.000565 431. 1406.
1979(44) 0.000505 431. 1526.
2123(46) 0.000471 431. 1630.
2246(47) 0.000445 431. 1697.
2249(47) 0.000445 432. 1711.
2278(48) 0.000439 432. 1668.
2110(46) 0.000474 432. 1576.
1939(44) 0.000516 432. 1454.
1759(42) 0.000569 433. 1319.
1557(39) 0.000642 433. 1186.
1468(38) 0.000681 433. 1064.
1307(36) 0.000765 433. 959.
1259(35) 0.000794 433. 870.
1165(34) 0.000858 433.6 798.6
1150(34) 0.000870 433.8 743.3
1071(33) 0.000934 434.0 702.9
1114(33) 0.000898 434.2 676.0
1038(32) 0.000963 434.4 661.5
1085(33) 0.000922 434.7 658.3
1056(32) 0.000947 434.9 665.9
1161(34) 0.000861 435.1 684.3
1187(34) 0.000842 435.3 713.7
1203(35) 0.000831 435.5 754.9
1246(35) 0.000803 436. 809.
1357(37) 0.000737 436. 880.
1500(39) 0.000667 436. 969.
1577(40) 0.000634 436. 1081.
1748(42) 0.000572 437. 1224.
1922(44) 0.000520 437. 1405.
2102(46) 0.000476 437. 1641.
2425(49) 0.000412 437. 1954.
2784(53) 0.000359 437. 2374.
3163(56) 0.0003162 438. 2930.
3879(62) 0.0002578 438. 3639.
4633(68) 0.0002158 438. 4467.
5468(74) 0.0001829 438. 5280.
6192(79) 0.0001615 438. 5807.
5873(77) 0.0001703 439. 5786.
5074(71) 0.0001971 439. 5221.
4235(65) 0.0002361 439. 4381.
3700(61) 0.0002703 439. 3532.
3076(55) 0.0003251 440. 2805.
2694(52) 0.000371 440. 2233.
2416(49) 0.000414 440. 1802.
2266(48) 0.000441 440. 1488.
1937(44) 0.000516 440. 1263.
1762(42) 0.000568 441. 1104.
1642(41) 0.000609 441. 995.
1590(40) 0.000629 441. 922.
1549(39) 0.000646 441. 879.
1543(39) 0.000648 441. 863.
1446(38) 0.000692 442. 871.
1487(39) 0.000672 442. 904.
1465(38) 0.000683 442. 964.
1485(39) 0.000673 442. 1054.
1605(40) 0.000623 443. 1175.
1652(41) 0.000605 443. 1329.
1764(42) 0.000567 443. 1511.
1889(43) 0.000529 443. 1710.
2094(46) 0.000478 443. 1902.
2254(47) 0.000444 444. 2048.
2409(49) 0.000415 444. 2106.
2343(48) 0.000427 444. 2055.
2152(46) 0.000465 444. 1908.
1962(44) 0.000510 444. 1703.
1830(43) 0.000546 445. 1480.
1549(39) 0.000646 445. 1268.
1435(38) 0.000697 445. 1080.
1299(36) 0.000770 445. 921.
1195(35) 0.000837 445.5 790.0
1083(33) 0.000923 445.7 684.4
1025(32) 0.000976 445.9 600.5
985(31) 0.001015 446.1 534.3
915(30) 0.001093 446.4 482.4
876(30) 0.001142 446.6 441.8
874(30) 0.001144 446.8 410.2
835(29) 0.001198 447.0 385.6
771(28) 0.001297 447.2 366.6
793(28) 0.001261 447.4 352.2
760(28) 0.001316 447.6 341.6
762(28) 0.001312 447.8 334.5
794(28) 0.001259 448.1 330.5
750(27) 0.001333 448.3 329.6
796(28) 0.001256 448.5 331.5
774(28) 0.001292 448.7 336.5
821(29) 0.001218 448.9 344.6
777(28) 0.001287 449.1 356.2
834(29) 0.001199 449.3 371.4
850(29) 0.001176 449.5 390.7
840(29) 0.001190 449.8 414.4
867(29) 0.001153 450.0 442.9
908(30) 0.001101 450.2 476.8
968(31) 0.001033 450.4 516.4
971(31) 0.001030 450.6 562.1
987(31) 0.001013 450.8 614.3
1078(33) 0.000928 451.0 673.0
1112(33) 0.000899 451.2 738.1
1215(35) 0.000823 451.5 808.9
1279(36) 0.000782 452. 884.
1301(36) 0.000769 452. 962.
1420(38) 0.000704 452. 1038.
1499(39) 0.000667 452. 1110.
1586(40) 0.000631 453. 1170.
1663(41) 0.000601 453. 1213.
1648(41) 0.000607 453. 1235.
1676(41) 0.000597 453. 1234.
1667(41) 0.000600 453. 1208.
1563(40) 0.000640 454. 1162.
1484(39) 0.000674 454. 1100.
1386(37) 0.000722 454. 1029.
1349(37) 0.000741 454. 953.
1273(36) 0.000786 454. 876.
1129(34) 0.000886 454.6 803.3
1079(33) 0.000927 454.9 735.2
1033(32) 0.000968 455.1 673.5
978(31) 0.001022 455.3 618.8
983(31) 0.001017 455.5 571.3
953(31) 0.001049 455.7 531.1
932(31) 0.001073 455.9 498.2
924(30) 0.001082 456.1 472.4
867(29) 0.001153 456.3 453.9
904(30) 0.001106 456.6 442.8
897(30) 0.001115 456.8 439.3
923(30) 0.001083 457.0 444.1
944(31) 0.001059 457.2 457.8
981(31) 0.001019 457.4 481.1
1037(32) 0.000964 457.6 515.1
1028(32) 0.000973 457.8 560.5
1113(33) 0.000898 458.0 618.0
1144(34) 0.000874 458.3 687.3
1245(35) 0.000803 458. 767.
1289(36) 0.000776 459. 853.
1340(37) 0.000746 459. 938.
1425(38) 0.000702 459. 1010.
1463(38) 0.000684 459. 1054.
1520(39) 0.000658 460. 1059.
1530(39) 0.000654 460. 1023.
1484(39) 0.000674 460. 952.
1422(38) 0.000703 460. 861.
1278(36) 0.000782 460. 763.
1203(35) 0.000831 460.6 667.4
1024(32) 0.000977 460.8 579.9
1017(32) 0.000983 461.0 503.0
908(30) 0.001101 461.2 436.9
824(29) 0.001214 461.5 381.2
776(28) 0.001289 461.7 334.8
751(27) 0.001332 461.9 296.4
729(27) 0.001372 462.1 264.8
661(26) 0.001513 462.3 238.7
640(25) 0.001563 462.5 217.2
600(24) 0.001667 462.7 199.4
629(25) 0.001590 462.9 183.8
593(24) 0.001686 463.2 171.2
576(24) 0.001736 463.4 160.3
562(24) 0.001779 463.6 150.9
542(23) 0.001845 463.8 142.8
540(23) 0.001852 464.0 135.6
591(24) 0.001692 464.2 129.2
558(24) 0.001792 464.4 123.6
531(23) 0.001883 464.6 118.5
548(23) 0.001825 464.9 114.0
538(23) 0.001859 465.1 109.9
555(24) 0.001802 465.3 106.4
543(23) 0.001842 465.5 103.1
531(23) 0.001883 465.7 100.1
498(22) 0.002008 465.9 97.4
528(23) 0.001894 466.1 94.9
502(22) 0.001992 466.3 92.7
478(22) 0.002092 466.6 90.6
522(23) 0.001916 466.8 88.8
507(23) 0.001972 467.0 87.2
543(23) 0.001842 467.2 85.7
502(22) 0.001992 467.4 84.3
526(23) 0.001901 467.6 83.1
488(22) 0.002049 467.8 82.1
493(22) 0.002028 468.0 81.1
478(22) 0.002092 468.3 80.3
499(22) 0.002004 468.5 79.6
474(22) 0.002110 468.7 79.0
525(23) 0.001905 468.9 78.5
536(23) 0.001866 469.1 78.1
478(22) 0.002092 469.3 77.8
485(22) 0.002062 469.5 77.6
511(23) 0.001957 469.7 77.6
490(22) 0.002041 470.0 77.6
502(22) 0.001992 470.2 77.8
516(23) 0.001938 470.4 78.1
498(22) 0.002008 470.5 78.5
495(22) 0.002020 470.4 79.0
469(22) 0.002132 470.3 79.7
507(23) 0.001972 470.2 80.6
488(22) 0.002049 470.1 81.6
499(22) 0.002004 470.0 82.9
500(22) 0.002000 469.9 84.5
463(22) 0.002160 469.8 86.4
467(22) 0.002141 469.8 88.6
496(22) 0.002016 469.7 91.3
523(23) 0.001912 469.6 94.7
495(22) 0.002020 469.5 98.8
492(22) 0.002033 469.4 103.9
460(21) 0.002174 469.3 110.5
527(23) 0.001898 469.2 119.1
542(23) 0.001845 469.1 130.8
585(24) 0.001709 469.0 147.3
620(25) 0.001613 468.9 171.2
583(24) 0.001715 468.8 205.9
617(25) 0.001621 468.7 255.8
645(25) 0.001550 468.6 323.4
687(26) 0.001456 468.5 404.3
784(28) 0.001276 468.4 474.0
858(29) 0.001166 468.3 490.0
849(29) 0.001178 468.2 440.5
767(28) 0.001304 468.1 362.2
661(26) 0.001513 468.0 289.9
591(24) 0.001692 467.9 235.1
574(24) 0.001742 467.8 196.9
558(24) 0.001792 467.8 171.4
611(25) 0.001637 467.7 154.7
533(23) 0.001876 467.6 143.8
547(23) 0.001828 467.5 136.7
509(23) 0.001965 467.4 132.1
512(23) 0.001953 467.3 129.2
535(23) 0.001869 467.2 127.5
545(23) 0.001835 467.1 126.8
572(24) 0.001748 467.0 126.9
518(23) 0.001931 466.9 127.7
538(23) 0.001859 466.8 128.9
583(24) 0.001715 466.7 130.7
593(24) 0.001686 466.6 132.9
573(24) 0.001745 466.5 135.5
543(23) 0.001842 466.4 138.4
605(25) 0.001653 466.3 141.7
567(24) 0.001764 466.2 145.4
568(24) 0.001761 466.1 149.4
560(24) 0.001786 466.0 153.8
583(24) 0.001715 465.9 158.6
578(24) 0.001730 465.8 163.7
605(25) 0.001653 465.7 169.1
607(25) 0.001647 465.7 175.0
581(24) 0.001721 465.6 181.3
658(26) 0.001520 465.5 188.2
623(25) 0.001605 465.4 195.4
618(25) 0.001618 465.3 203.2
656(26) 0.001524 465.2 211.6
666(26) 0.001501 465.1 220.5
641(25) 0.001560 465.0 230.1
652(26) 0.001534 464.9 240.3
689(26) 0.001451 464.8 251.3
676(26) 0.001479 464.7 263.2
756(27) 0.001323 464.6 275.9
773(28) 0.001294 464.5 289.7
725(27) 0.001379 464.4 304.6
736(27) 0.001359 464.3 320.7
782(28) 0.001279 464.2 338.2
795(28) 0.001258 464.1 357.2
831(29) 0.001203 464.0 377.9
845(29) 0.001183 463.9 400.4
896(30) 0.001116 463.8 425.0
978(31) 0.001022 463.7 451.7
948(31) 0.001055 463.7 480.8
1009(32) 0.000991 463.6 512.3
1029(32) 0.000972 463.5 546.5
1117(33) 0.000895 463.4 583.4
1236(35) 0.000809 463. 623.
1226(35) 0.000816 463.2 664.8
1318(36) 0.000759 463. 709.
1373(37) 0.000728 463. 754.
1444(38) 0.000693 463. 801.
1562(40) 0.000640 463. 846.
1565(40) 0.000639 463. 889.
1611(40) 0.000621 463. 928.
1692(41) 0.000591 463. 961.
1719(41) 0.000582 462. 987.
1733(42) 0.000577 462. 1006.
1627(40) 0.000615 462. 1018.
1608(40) 0.000622 462. 1025.
1627(40) 0.000615 462. 1028.
1624(40) 0.000616 462. 1028.
1483(39) 0.000674 462. 1027.
1542(39) 0.000649 462. 1025.
1509(39) 0.000663 462. 1022.
1455(38) 0.000687 462. 1018.
1521(39) 0.000657 461. 1011.
1479(38) 0.000676 461. 1002.
1437(38) 0.000696 461. 990.
1436(38) 0.000696 461. 974.
1418(38) 0.000705 461. 956.
1330(36) 0.000752 461. 936.
1278(36) 0.000782 461. 915.
1310(36) 0.000763 461. 895.
1283(36) 0.000779 461. 876.
1251(35) 0.000799 461. 859.
1259(35) 0.000794 461. 844.
1232(35) 0.000812 460. 833.
1212(35) 0.000825 460.3 825.8
1206(35) 0.000829 460.2 822.9
1229(35) 0.000814 460.1 824.8
1195(35) 0.000837 460.0 832.2
1249(35) 0.000801 460. 845.
1292(36) 0.000774 460. 865.
1380(37) 0.000725 460. 890.
1264(36) 0.000791 460. 923.
1440(38) 0.000694 460. 962.
1427(38) 0.000701 459. 1007.
1484(39) 0.000674 459. 1060.
1569(40) 0.000637 459. 1118.
1605(40) 0.000623 459. 1184.
1661(41) 0.000602 459. 1256.
1699(41) 0.000589 459. 1337.
1774(42) 0.000564 459. 1427.
1862(43) 0.000537 459. 1530.
1982(45) 0.000505 459. 1648.
2034(45) 0.000492 459. 1782.
2260(48) 0.000442 459. 1936.
2400(49) 0.000417 458. 2108.
2580(51) 0.000388 458. 2298.
2844(53) 0.000352 458. 2502.
3012(55) 0.0003320 458. 2714.
3331(58) 0.0003002 458. 2923.
3549(60) 0.0002818 458. 3113.
3729(61) 0.0002682 458. 3268.
3772(61) 0.0002651 458. 3370.
3721(61) 0.0002687 458. 3405.
3595(60) 0.0002782 458. 3365.
3369(58) 0.0002968 457. 3256.
3062(55) 0.0003266 457. 3089.
2897(54) 0.0003452 457. 2881.
2707(52) 0.000369 457. 2650.
2448(49) 0.000408 457. 2412.
2320(48) 0.000431 457. 2177.
2065(45) 0.000484 457. 1954.
1982(45) 0.000505 457. 1748.
1901(44) 0.000526 457. 1561.
1715(41) 0.000583 457. 1393.
1636(40) 0.000611 457. 1244.
1518(39) 0.000659 456. 1114.
1467(38) 0.000682 456. 1000.
1367(37) 0.000732 456. 902.
1277(36) 0.000783 456. 818.
1290(36) 0.000775 456. 746.
1238(35) 0.000808 456. 685.
1114(33) 0.000898 455.8 633.7
1112(33) 0.000899 455.7 591.4
1114(33) 0.000898 455.6 556.9
1046(32) 0.000956 455.5 529.6
1044(32) 0.000958 455.5 508.8
1077(33) 0.000929 455.4 494.0
1006(32) 0.000994 455.3 484.7
1018(32) 0.000982 455.2 480.2
979(31) 0.001021 455.1 479.5
971(31) 0.001030 455.0 481.2
950(31) 0.001053 454.9 483.1
969(31) 0.001032 454.8 482.3
898(30) 0.001114 454.7 476.1
949(31) 0.001054 454.6 462.5
886(30) 0.001129 454.5 441.7
949(31) 0.001054 454.4 415.5
868(29) 0.001152 454.3 386.5
857(29) 0.001167 454.2 357.1
800(28) 0.001250 454.1 329.0
843(29) 0.001186 454.0 303.1
737(27) 0.001357 453.9 280.0
709(27) 0.001410 453.8 259.6
644(25) 0.001553 453.7 241.8
669(26) 0.001495 453.6 226.4
659(26) 0.001517 453.5 213.2
649(25) 0.001541 453.4 201.8
621(25) 0.001610 453.4 192.0
619(25) 0.001616 453.3 183.7
590(24) 0.001695 453.2 176.5
608(25) 0.001645 453.1 170.4
580(24) 0.001724 453.0 165.2
552(23) 0.001812 452.9 160.8
548(23) 0.001825 452.8 157.2
558(24) 0.001792 452.7 154.3
601(25) 0.001664 452.6 152.0
581(24) 0.001721 452.5 150.4
588(24) 0.001701 452.4 149.4
591(24) 0.001692 452.3 148.9
558(24) 0.001792 452.2 149.1
534(23) 0.001873 452.1 149.9
525(23) 0.001905 452.0 151.2
503(22) 0.001988 451.9 153.1
520(23) 0.001923 451.8 155.4
523(23) 0.001912 451.7 158.2
517(23) 0.001934 451.6 161.3
504(22) 0.001984 451.5 164.4
530(23) 0.001887 451.4 167.6
541(23) 0.001848 451.4 170.4
531(23) 0.001883 451.3 172.6
535(23) 0.001869 451.2 174.0
540(23) 0.001852 451.1 174.2
531(23) 0.001883 451.0 173.1
563(24) 0.001776 450.9 170.7
529(23) 0.001890 450.8 167.1
543(23) 0.001842 450.7 162.4
512(23) 0.001953 450.6 156.9
519(23) 0.001927 450.5 150.8
463(22) 0.002160 450.4 144.5
526(23) 0.001901 450.3 138.1
492(22) 0.002033 450.2 131.9
480(22) 0.002083 450.1 125.9
526(23) 0.001901 450.0 120.2
516(23) 0.001938 449.9 115.0
498(22) 0.002008 449.8 110.1
489(22) 0.002045 449.7 105.7
488(22) 0.002049 449.6 101.7
523(23) 0.001912 449.5 98.1
494(22) 0.002024 449.4 94.8
488(22) 0.002049 449.3 92.0
477(22) 0.002096 449.3 89.4
453(21) 0.002208 449.2 87.2
463(22) 0.002160 449.1 85.3
464(22) 0.002155 449.0 83.7
509(23) 0.001965 448.9 82.3
500(22) 0.002000 448.8 81.1
497(22) 0.002012 448.7 80.2
512(23) 0.001953 448.6 79.4
508(23) 0.001968 448.5 78.9
471(22) 0.002123 448.4 78.5
476(22) 0.002101 448.3 78.3
498(22) 0.002008 448.2 78.3
524(23) 0.001908 448.1 78.4
500(22) 0.002000 448.0 78.7
546(23) 0.001832 447.9 79.1
491(22) 0.002037 447.8 79.8
529(23) 0.001890 447.7 80.6
502(22) 0.001992 447.6 81.6
478(22) 0.002092 447.5 82.8
498(22) 0.002008 447.4 84.2
559(24) 0.001789 447.3 85.8
508(23) 0.001968 447.3 87.7
492(22) 0.002033 447.2 89.9
526(23) 0.001901 447.1 92.3
527(23) 0.001898 447.0 95.0
538(23) 0.001859 446.9 98.1
533(23) 0.001876 446.8 101.6
510(23) 0.001961 446.7 105.4
538(23) 0.001859 446.6 109.6
545(23) 0.001835 446.5 114.3
496(22) 0.002016 446.4 119.4
515(23) 0.001942 446.3 125.1
527(23) 0.001898 446.2 131.3
566(24) 0.001767 446.1 138.0
542(23) 0.001845 446.0 145.3
523(23) 0.001912 445.9 153.2
593(24) 0.001686 445.8 161.8
573(24) 0.001745 445.7 170.9
585(24) 0.001709 445.6 180.7
630(25) 0.001587 445.5 191.2
616(25) 0.001623 445.4 202.2
657(26) 0.001522 445.3 213.8
589(24) 0.001698 445.2 225.8
671(26) 0.001490 445.2 238.3
619(25) 0.001616 445.1 251.1
669(26) 0.001495 445.0 263.9
686(26) 0.001458 444.9 276.6
670(26) 0.001493 444.8 289.0
677(26) 0.001477 444.7 300.7
689(26) 0.001451 444.6 311.5
691(26) 0.001447 444.5 320.9
759(28) 0.001318 444.4 328.6
731(27) 0.001368 444.3 334.4
744(27) 0.001344 444.2 337.9
733(27) 0.001364 444.1 339.0
702(26) 0.001424 444.0 337.7
769(28) 0.001300 443.9 334.0
682(26) 0.001466 443.8 328.0
719(27) 0.001391 443.7 320.1
708(27) 0.001412 443.6 310.4
757(28) 0.001321 443.5 299.5
691(26) 0.001447 443.4 287.5
657(26) 0.001522 443.3 274.9
685(26) 0.001460 443.2 261.8
643(25) 0.001555 443.2 248.7
623(25) 0.001605 443.1 235.7
594(24) 0.001684 443.0 222.9
588(24) 0.001701 442.9 210.6
556(24) 0.001799 442.8 198.7
581(24) 0.001721 442.7 187.5
558(24) 0.001792 442.6 176.8
553(24) 0.001808 442.5 166.8
579(24) 0.001727 442.4 157.5
534(23) 0.001873 442.3 148.8
513(23) 0.001949 442.2 140.7
519(23) 0.001927 442.1 133.3
483(22) 0.002070 442.0 126.5
568(24) 0.001761 441.9 120.3
491(22) 0.002037 441.8 114.6
543(23) 0.001842 441.7 109.4
510(23) 0.001961 441.6 104.7
523(23) 0.001912 441.5 100.5
535(23) 0.001869 441.4 96.7
495(22) 0.002020 441.3 93.2
482(22) 0.002075 441.2 89.9
489(22) 0.002045 441.2 87.0
502(22) 0.001992 441.1 84.2
505(22) 0.001980 441.0 81.5
531(23) 0.001883 440.9 79.0
479(22) 0.002088 440.8 76.5
511(23) 0.001957 440.7 74.1
504(22) 0.001984 440.6 71.8
517(23) 0.001934 440.5 69.5
511(23) 0.001957 440.4 67.4
496(22) 0.002016 440.3 65.3
514(23) 0.001946 440.2 63.4
458(21) 0.002183 440.1 61.5
472(22) 0.002119 440.0 59.8
476(22) 0.002101 439.9 58.2
468(22) 0.002137 439.8 56.8
493(22) 0.002028 439.7 55.4
479(22) 0.002088 439.6 54.2
468(22) 0.002137 439.5 53.1
471(22) 0.002123 439.4 52.1
486(22) 0.002058 439.3 51.3
470(22) 0.002128 439.2 50.5
475(22) 0.002105 439.1 49.8
463(22) 0.002160 439.1 49.2
469(22) 0.002132 439.0 48.7
483(22) 0.002070 438.9 48.3
449(21) 0.002227 438.8 48.0
438(21) 0.002283 438.7 47.8
467(22) 0.002141 438.6 47.6
485(22) 0.002062 438.5 47.6
481(22) 0.002079 438.4 47.6
520(23) 0.001923 438.3 47.7
482(22) 0.002075 438.2 47.9
505(22) 0.001980 438.1 48.2
522(23) 0.001916 438.0 48.5
497(22) 0.002012 437.9 48.9
482(22) 0.002075 437.8 49.4
516(23) 0.001938 437.7 50.0
520(23) 0.001923 437.6 50.7
514(23) 0.001946 437.5 51.5
485(22) 0.002062 437.4 52.3
505(22) 0.001980 437.3 53.3
499(22) 0.002004 437.2 54.3
516(23) 0.001938 437.1 55.4
486(22) 0.002058 437.1 56.6
516(23) 0.001938 437.0 58.0
477(22) 0.002096 436.9 59.4
493(22) 0.002028 436.8 60.9
521(23) 0.001919 436.7 62.4
470(22) 0.002128 436.6 64.1
476(22) 0.002101 436.5 65.9
512(23) 0.001953 436.4 67.7
499(22) 0.002004 436.3 69.7
504(22) 0.001984 436.2 71.7
532(23) 0.001880 436.1 73.8
508(23) 0.001968 436.0 75.9
496(22) 0.002016 435.9 78.1
501(22) 0.001996 435.8 80.2
538(23) 0.001859 435.7 82.5
547(23) 0.001828 435.6 84.7
527(23) 0.001898 435.5 86.9
476(22) 0.002101 435.4 89.0
533(23) 0.001876 435.3 91.1
522(23) 0.001916 435.2 93.0
546(23) 0.001832 435.1 94.8
541(23) 0.001848 435.0 96.5
508(23) 0.001968 435.0 97.9
530(23) 0.001887 434.9 99.1
586(24) 0.001706 434.8 100.0
524(23) 0.001908 434.7 100.7
552(23) 0.001812 434.6 101.1
511(23) 0.001957 434.5 101.1
537(23) 0.001862 434.4 100.9
550(23) 0.001818 434.3 100.3
528(23) 0.001894 434.2 99.4
508(23) 0.001968 434.1 98.2
519(23) 0.001927 434.0 96.8
536(23) 0.001866 433.9 95.1
494(22) 0.002024 433.8 93.2
502(22) 0.001992 433.7 91.2
511(23) 0.001957 433.6 89.0
529(23) 0.001890 433.5 86.6
514(23) 0.001946 433.4 84.2
520(23) 0.001923 433.3 81.7
454(21) 0.002203 433.2 79.2
515(23) 0.001942 433.1 76.7
475(22) 0.002105 433.0 74.2
532(23) 0.001880 433.0 71.7
508(23) 0.001968 432.9 69.3
544(23) 0.001838 432.8 66.9
483(22) 0.002070 432.7 64.5
555(24) 0.001802 432.6 62.2
488(22) 0.002049 432.5 60.0
526(23) 0.001901 432.4 57.9
525(23) 0.001905 432.3 55.9
515(23) 0.001942 432.2 53.9
518(23) 0.001931 432.1 52.0
541(23) 0.001848 432.0 50.2
511(23) 0.001957 431.9 48.5
489(22) 0.002045 431.8 46.9
488(22) 0.002049 431.7 45.3
499(22) 0.002004 431.6 43.9
462(21) 0.002164 431.5 42.5
481(22) 0.002079 431.4 41.2
518(23) 0.001931 431.3 39.9
511(23) 0.001957 431.2 38.7
463(22) 0.002160 431.1 37.6
463(22) 0.002160 431.0 36.6
494(22) 0.002024 430.9 35.6
494(22) 0.002024 430.9 34.7
477(22) 0.002096 430.8 33.9
480(22) 0.002083 430.7 33.1
463(22) 0.002160 430.6 32.3
487(22) 0.002053 430.5 31.6
462(21) 0.002164 430.4 31.0
506(22) 0.001976 430.3 30.4
469(22) 0.002132 430.2 29.8
461(21) 0.002169 430.1 29.3
463(22) 0.002160 430.0 28.8
460(21) 0.002174 429.9 28.4
489(22) 0.002045 429.8 28.0
461(21) 0.002169 429.7 27.6
471(22) 0.002123 429.6 27.3
453(21) 0.002208 429.5 27.0
464(22) 0.002155 429.4 26.8
444(21) 0.002252 429.3 26.5
487(22) 0.002053 429.2 26.3
464(22) 0.002155 429.1 26.2
480(22) 0.002083 429.0 26.0
476(22) 0.002101 428.9 25.9
449(21) 0.002227 428.9 25.8
451(21) 0.002217 428.8 25.8
456(21) 0.002193 428.7 25.8
468(22) 0.002137 428.7 25.8
460(21) 0.002174 428.8 25.9
446(21) 0.002242 428.9 26.0
433(21) 0.002309 429.0 26.2
474(22) 0.002110 429.1 26.4
440(21) 0.002273 429.2 26.7
442(21) 0.002262 429.3 27.0
423(21) 0.002364 429.4 27.4
464(22) 0.002155 429.5 27.9
488(22) 0.002049 429.6 28.6
432(21) 0.002315 429.6 29.4
454(21) 0.002203 429.7 30.3
439(21) 0.002278 429.8 31.5
454(21) 0.002203 429.9 32.9
444(21) 0.002252 430.0 34.7
465(22) 0.002151 430.1 36.8
494(22) 0.002024 430.2 39.3
453(21) 0.002208 430.3 42.2
466(22) 0.002146 430.4 45.7
447(21) 0.002237 430.4 49.7
462(21) 0.002164 430.5 54.1
452(21) 0.002212 430.6 58.9
471(22) 0.002123 430.7 63.7
489(22) 0.002045 430.8 68.2
476(22) 0.002101 430.9 71.7
511(23) 0.001957 431.0 73.7
482(22) 0.002075 431.1 73.8
467(22) 0.002141 431.2 71.9
464(22) 0.002155 431.3 68.7
464(22) 0.002155 431.3 64.5
449(21) 0.002227 431.4 60.1
438(21) 0.002283 431.5 55.7
481(22) 0.002079 431.6 51.7
480(22) 0.002083 431.7 48.2
485(22) 0.002062 431.8 45.2
468(22) 0.002137 431.9 42.8
471(22) 0.002123 432.0 40.8
465(22) 0.002151 432.1 39.3
491(22) 0.002037 432.1 38.1
506(22) 0.001976 432.2 37.3
489(22) 0.002045 432.3 36.8
481(22) 0.002079 432.4 36.5
454(21) 0.002203 432.5 36.5
482(22) 0.002075 432.6 36.7
476(22) 0.002101 432.7 37.1
470(22) 0.002128 432.8 37.6
507(23) 0.001972 432.9 38.4
476(22) 0.002101 433.0 39.3
434(21) 0.002304 433.0 40.4
486(22) 0.002058 433.1 41.8
490(22) 0.002041 433.2 43.4
496(22) 0.002016 433.3 45.2
457(21) 0.002188 433.4 47.5
483(22) 0.002070 433.5 50.1
490(22) 0.002041 433.6 53.2
457(21) 0.002188 433.7 57.0
500(22) 0.002000 433.8 61.6
467(22) 0.002141 433.8 67.2
495(22) 0.002020 433.9 74.0
496(22) 0.002016 434.0 82.4
498(22) 0.002008 434.1 92.5
517(23) 0.001934 434.2 104.8
546(23) 0.001832 434.3 119.4
547(23) 0.001828 434.4 136.5
607(25) 0.001647 434.5 156.0
553(24) 0.001808 434.6 177.4
641(25) 0.001560 434.7 199.3
627(25) 0.001595 434.7 219.5
647(25) 0.001546 434.8 235.1
656(26) 0.001524 434.9 243.8
696(26) 0.001437 435.0 244.9
685(26) 0.001460 435.1 239.6
674(26) 0.001484 435.2 230.1
704(27) 0.001420 435.3 218.1
657(26) 0.001522 435.4 204.6
631(25) 0.001585 435.5 189.7
618(25) 0.001618 435.5 174.3
627(25) 0.001595 435.6 158.6
623(25) 0.001605 435.7 143.9
568(24) 0.001761 435.8 130.8
575(24) 0.001739 435.9 119.6
602(25) 0.001661 436.0 110.5
594(24) 0.001684 436.1 103.3
583(24) 0.001715 436.2 97.7
563(24) 0.001776 436.3 93.5
559(24) 0.001789 436.3 90.6
591(24) 0.001692 436.4 88.7
562(24) 0.001779 436.5 87.9
568(24) 0.001761 436.6 87.9
567(24) 0.001764 436.7 88.7
561(24) 0.001783 436.8 90.4
590(24) 0.001695 436.9 92.9
567(24) 0.001764 437.0 96.3
598(24) 0.001672 437.1 100.6
599(24) 0.001669 437.2 105.9
582(24) 0.001718 437.2 112.3
589(24) 0.001698 437.3 119.8
576(24) 0.001736 437.4 128.4
604(25) 0.001656 437.5 138.2
596(24) 0.001678 437.6 149.0
609(25) 0.001642 437.7 160.7
642(25) 0.001558 437.8 173.1
667(26) 0.001499 437.9 185.6
638(25) 0.001567 438.0 197.6
695(26) 0.001439 438.0 208.2
718(27) 0.001393 438.1 216.3
698(26) 0.001433 438.2 221.3
699(26) 0.001431 438.3 222.3
694(26) 0.001441 438.4 219.5
710(27) 0.001408 438.5 213.2
725(27) 0.001379 438.6 204.2
718(27) 0.001393 438.7 193.6
708(27) 0.001412 438.8 182.1
669(26) 0.001495 438.9 170.7
710(27) 0.001408 438.9 159.7
707(27) 0.001414 439.0 149.7
723(27) 0.001383 439.1 140.7
693(26) 0.001443 439.2 132.8
697(26) 0.001435 439.3 126.1
681(26) 0.001468 439.4 120.5
683(26) 0.001464 439.5 116.0
710(27) 0.001408 439.6 112.5
703(27) 0.001422 439.7 109.9
722(27) 0.001385 439.7 108.2
794(28) 0.001259 439.8 107.2
727(27) 0.001376 439.9 106.9
775(28) 0.001290 440.0 107.3
737(27) 0.001357 440.1 108.3
741(27) 0.001350 440.2 109.8
763(28) 0.0 0.0 .
786(28) 0.0 0.0 .
779(28) 0.0 0.0 .
783(28) 0.0 0.0 .
815(29) 0.0 0.0 .
829(29) 0.0 0.0 .
881(30) 0.0 0.0 .
858(29) 0.0 0.0 .
938(31) 0.0 0.0 .
895(30) 0.0 0.0 .
939(31) 0.0 0.0 .
977(31) 0.0 0.0 .
985(31) 0.0 0.0 .
1005(32) 0.0 0.0 .
1103(33) 0.0 0.0 .
1060(33) 0.0 0.0 .
1160(34) 0.0 0.0 .
1204(35) 0.0 0.0 .
1254(35) 0.0 0. .
1337(37) 0.0 0. .
1411(38) 0.0 0. .
1493(39) 0.0 0. .
1571(40) 0.0 0. .
1663(41) 0.0 0. .
1736(42) 0.0 0. .
1954(44) 0.0 0. .
2128(46) 0.0 0. .
2232(47) 0.0 0. .
2510(50) 0.0 0. .
2733(52) 0.0 0. .
3191(56) 0.0 0. .
3697(61) 0.0 0. .
4243(65) 0.0 0. .
5129(72) 0.0 0. .
6294(79) 0.0 0. .
7405(86) 0.0 0. .
9194(96) 0.0 0. .
11770(110) 0.0 0. .
15460(120) 0.0 0. .
20950(150) 0.0 0. .
29960(170) 0.0 0. .
44870(210) 0.0 0. .
71140(270) 0.0 0. .
118960(350) 0.0 0. .
201640(450) 0.0 0. .
298210(550) 0.0 0. .
327060(570) 0.0 0. .
246260(500) 0.0 0. .
147540(380) 0.0 0. .
83150(290) 0.0 0. .
48790(220) 0.0 0. .
31190(180) 0.0 0. .
20970(150) 0.0 0. .
15270(120) 0.0 0. .
11520(110) 0.0 0. .
8981(95) 0.0 0. .
7189(85) 0.0 0. .
6014(78) 0.0 0. .
5193(72) 0.0 0. .
4568(68) 0.0 0. .
3978(63) 0.0 0. .
3468(59) 0.0 0. .
3041(55) 0.0 0. .
2790(53) 0.0 0. .
2542(50) 0.0 0. .
2330(48) 0.0 0. .
2177(47) 0.0 0. .
2062(45) 0.0 0. .
1818(43) 0.0 0. .
1738(42) 0.0 0. .
1668(41) 0.0 0. .
1595(40) 0.0 0. .
1552(39) 0.0 0. .
1461(38) 0.0 0. .
1364(37) 0.0 0. .
1267(36) 0.0 0. .
1328(36) 0.0 0. .
1193(35) 0.0 0.0 .
1164(34) 0.0 0.0 .
1084(33) 0.0 0.0 .
1048(32) 0.0 0.0 .
980(31) 0.0 0.0 .
1059(33) 0.0 0.0 .
1032(32) 0.0 0.0 .
958(31) 0.0 0.0 .
902(30) 0.0 0.0 .
887(30) 0.0 0.0 .
884(30) 0.0 0.0 .
831(29) 0.0 0.0 .
824(29) 0.0 0.0 .
865(29) 0.0 0.0 .
820(29) 0.0 0.0 .
781(28) 0.0 0.0 .
736(27) 0.0 0.0 .
802(28) 0.0 0.0 .
755(27) 0.001324 448.8 72.2
730(27) 0.001370 448.9 69.3
741(27) 0.001350 449.0 66.6
700(26) 0.001429 449.0 64.2
696(26) 0.001437 449.1 61.9
684(26) 0.001462 449.2 59.9
754(27) 0.001326 449.3 58.1
682(26) 0.001466 449.4 56.5
647(25) 0.001546 449.5 55.0
650(25) 0.001538 449.6 53.7
695(26) 0.001439 449.7 52.5
650(25) 0.001538 449.8 51.8
659(26) 0.001517 449.9 50.9
663(26) 0.001508 449.9 50.1
600(24) 0.001667 450.0 49.4
648(25) 0.001543 450.1 48.7
674(26) 0.001484 450.2 48.1
645(25) 0.001550 450.3 47.5
633(25) 0.001580 450.4 46.9
651(26) 0.001536 450.5 46.3
607(25) 0.001647 450.6 45.7
637(25) 0.001570 450.7 45.0
614(25) 0.001629 450.7 44.2
610(25) 0.001639 450.8 43.3
614(25) 0.001629 450.9 42.3
570(24) 0.001754 451.0 41.3
584(24) 0.001712 451.1 40.3
595(24) 0.001681 451.2 39.3
592(24) 0.001689 451.3 38.2
601(25) 0.001664 451.4 37.2
605(25) 0.001653 451.5 36.3
545(23) 0.001835 451.6 35.3
600(24) 0.001667 451.6 34.5
559(24) 0.001789 451.7 33.6
603(25) 0.001658 451.8 32.8
588(24) 0.001701 451.9 32.1
578(24) 0.001730 452.0 31.4
630(25) 0.001587 452.1 30.8
598(24) 0.001672 452.2 31.8
561(24) 0.001783 452.3 31.3
578(24) 0.001730 452.4 30.8
594(24) 0.001684 452.4 30.5
608(25) 0.001645 452.5 30.1
596(24) 0.001678 452.6 29.8
603(25) 0.001658 452.7 29.6
618(25) 0.001618 452.8 29.4
595(24) 0.001681 452.9 29.3
576(24) 0.001736 453.0 29.2
613(25) 0.001631 453.1 29.1
564(24) 0.001773 453.2 29.3
598(24) 0.001672 453.2 29.4
574(24) 0.001742 453.3 29.6
538(23) 0.001859 453.4 29.8
522(23) 0.001916 453.5 30.1
570(24) 0.001754 453.6 30.5
587(24) 0.001704 453.7 31.1
552(23) 0.001812 453.8 31.8
534(23) 0.001873 453.9 32.6
588(24) 0.001701 454.0 33.7
552(23) 0.001812 454.1 35.0
557(24) 0.001795 454.1 36.5
534(23) 0.001873 454.2 38.4
556(24) 0.001799 454.3 40.6
550(23) 0.001818 454.4 43.2
580(24) 0.001724 454.5 46.2
542(23) 0.001845 454.6 49.7
544(23) 0.001838 454.7 53.6
543(23) 0.001842 454.8 57.9
554(24) 0.001805 454.9 62.4
545(23) 0.001835 454.9 67.0
531(23) 0.001883 455.0 71.4
545(23) 0.001835 455.1 75.1
534(23) 0.001873 455.2 77.7
596(24) 0.001678 455.3 78.8
556(24) 0.001799 455.4 78.1
558(24) 0.001792 455.5 75.9
506(22) 0.001976 455.6 72.3
524(23) 0.001908 455.7 68.0
566(24) 0.001767 455.8 63.3
571(24) 0.001751 455.8 58.5
552(23) 0.001812 455.9 53.9
547(23) 0.001828 456.0 49.8
552(23) 0.001812 456.1 46.0
509(23) 0.001965 456.2 42.6
503(22) 0.001988 456.3 39.7
568(24) 0.001761 456.4 37.2
523(23) 0.001912 456.5 35.1
537(23) 0.001862 456.6 33.2
496(22) 0.002016 456.6 31.7
500(22) 0.002000 456.7 30.4
515(23) 0.001942 456.8 29.3
548(23) 0.001825 456.9 28.3
496(22) 0.002016 457.0 27.5
535(23) 0.001869 457.1 26.8
503(22) 0.001988 457.2 26.3
491(22) 0.002037 457.3 25.8
517(23) 0.001934 457.4 25.4
504(22) 0.001984 457.5 25.0
520(23) 0.001923 457.5 24.7
520(23) 0.001923 457.6 24.4
481(22) 0.002079 457.7 24.2
492(22) 0.002033 457.8 23.9
482(22) 0.002075 457.9 23.8
508(23) 0.001968 458.0 23.6
508(23) 0.001968 458.1 23.5
470(22) 0.002128 458.2 23.4
525(23) 0.001905 458.3 23.3
460(21) 0.002174 458.3 23.2
463(22) 0.002160 458.4 23.2
469(22) 0.002132 458.5 23.1
466(22) 0.002146 458.7 23.1
471(22) 0.002123 459.0 23.1
470(22) 0.002128 459.4 23.1
482(22) 0.002075 459.7 23.1
463(22) 0.002160 460.0 23.1
455(21) 0.002198 460.3 23.2
459(21) 0.002179 460.6 23.2
445(21) 0.002247 460.9 23.3
459(21) 0.002179 461.2 23.4
459(21) 0.002179 461.6 23.4
469(22) 0.002132 461.9 23.5
470(22) 0.002128 462.2 23.6
494(22) 0.002024 462.5 23.7
466(22) 0.002146 462.8 23.9
462(21) 0.002164 463.1 24.0
482(22) 0.002075 463.4 24.1
447(21) 0.002237 463.8 24.3
467(22) 0.002141 464.1 24.4
506(22) 0.001976 464.4 24.6
462(21) 0.002164 464.7 24.8
457(21) 0.002188 465.0 25.0
473(22) 0.002114 465.3 25.2
463(22) 0.002160 465.6 25.4
494(22) 0.002024 466.0 25.6
504(22) 0.001984 466.3 25.8
487(22) 0.002053 466.6 26.0
498(22) 0.002008 466.9 26.3
481(22) 0.002079 467.2 26.5
496(22) 0.002016 467.5 26.8
497(22) 0.002012 467.8 27.1
474(22) 0.002110 468.2 27.4
473(22) 0.002114 468.5 28.1
475(22) 0.002105 468.8 28.4
479(22) 0.002088 469.1 28.8
471(22) 0.002123 469.4 29.2
479(22) 0.002088 469.7 29.6
472(22) 0.002119 470.0 30.0
493(22) 0.002028 470.4 30.4
487(22) 0.002053 470.7 30.9
472(22) 0.002119 471.0 31.4
506(22) 0.001976 471.3 31.9
471(22) 0.002123 471.6 32.5
475(22) 0.002105 471.9 33.1
489(22) 0.002045 472.2 33.7
456(21) 0.002193 472.6 34.4
489(22) 0.002045 472.9 35.1
518(23) 0.001931 473.2 37.2
514(23) 0.001946 473.5 38.0
519(23) 0.001927 473.8 38.8
545(23) 0.001835 474.1 39.7
564(24) 0.001773 474.4 40.8
548(23) 0.001825 474.8 41.7
605(25) 0.001653 475.1 42.8
559(24) 0.001789 475.4 43.9
591(24) 0.001692 475.7 45.1
525(23) 0.001905 476.0 46.3
541(23) 0.001848 476.3 47.6
538(23) 0.001859 476.6 49.0
527(23) 0.001898 477.0 50.5
480(22) 0.002083 477.3 52.0
504(22) 0.001984 477.6 53.6
511(23) 0.001957 477.9 55.3
458(21) 0.002183 478.2 57.0
504(22) 0.001984 478.5 58.7
478(22) 0.002092 478.8 60.5
508(23) 0.001968 479.2 62.2
540(23) 0.001852 479.5 63.8
496(22) 0.002016 479.8 65.4
487(22) 0.002053 480.1 66.9
503(22) 0.001988 480.4 68.2
477(22) 0.002096 480.7 69.4
516(23) 0.001938 481.0 70.4
519(23) 0.001927 481.4 71.1
517(23) 0.001934 481.7 71.7
506(22) 0.001976 482.0 72.6
502(22) 0.001992 482.3 72.8
473(22) 0.002114 482.6 72.9
502(22) 0.001992 482.9 72.9
545(23) 0.001835 483.2 72.8
506(22) 0.001976 483.6 72.7
507(23) 0.001972 483.9 72.6
520(23) 0.001923 484.2 72.5
530(23) 0.001887 484.5 72.5
497(22) 0.002012 484.8 72.6
471(22) 0.002123 485.1 72.8
490(22) 0.002041 485.4 73.1
501(22) 0.001996 485.8 73.4
532(23) 0.001880 486.1 73.9
533(23) 0.001876 486.4 74.5
470(22) 0.002128 486.7 75.3
473(22) 0.002114 487.0 76.1
508(23) 0.001968 487.3 77.1
515(23) 0.001942 487.7 78.3
530(23) 0.001887 488.0 79.5
525(23) 0.001905 488.3 80.9
527(23) 0.001898 488.6 82.4
512(23) 0.001953 488.9 84.1
516(23) 0.001938 489.2 85.9
554(24) 0.001805 489.5 87.8
485(22) 0.002062 489.9 89.9
536(23) 0.001866 490.2 92.1
581(24) 0.001721 490.5 94.6
559(24) 0.001789 490.8 97.1
552(23) 0.001812 491.1 99.9
580(24) 0.001724 491.4 102.8
563(24) 0.001776 491.7 106.0
551(23) 0.001815 492.1 109.3
573(24) 0.001745 492.4 112.9
557(24) 0.001795 492.7 116.7
565(24) 0.001770 493.0 120.8
578(24) 0.001730 493.3 125.1
605(25) 0.001653 493.6 129.8
555(24) 0.001802 493.9 134.7
598(24) 0.001672 494.3 140.0
616(25) 0.001623 494.6 145.7
629(25) 0.001590 494.9 151.8
624(25) 0.001603 495.2 158.3
667(26) 0.001499 495.5 165.3
646(25) 0.001548 495.8 172.9
630(25) 0.001587 496.1 181.0
648(25) 0.001543 496.5 189.8
676(26) 0.001479 496.8 199.3
668(26) 0.001497 497.1 209.7
665(26) 0.001504 497.4 220.9
659(26) 0.001517 497.7 233.1
732(27) 0.001366 498.0 246.5
737(27) 0.001357 498.3 261.2
732(27) 0.001366 498.7 277.3
736(27) 0.001359 499.0 295.1
846(29) 0.001182 499.3 314.8
825(29) 0.001212 499.6 336.7
864(29) 0.001157 499.9 361.3
914(30) 0.001094 500.2 389.0
934(31) 0.001071 500.5 420.3
995(32) 0.001005 500.9 456.0
999(32) 0.001001 501.2 496.9
1086(33) 0.000921 501.5 544.1
1172(34) 0.000853 501.8 598.8
1250(35) 0.000800 502. 663.
1393(37) 0.000718 502. 738.
1456(38) 0.000687 503. 828.
1506(39) 0.000664 503. 934.
1681(41) 0.000595 503. 1063.
1790(42) 0.000559 504. 1219.
1990(45) 0.000503 504. 1407.
2256(47) 0.000443 504. 1636.
2571(51) 0.000389 505. 1913.
2806(53) 0.000356 505. 2244.
3226(57) 0.0003100 505. 2634.
3708(61) 0.0002697 506. 3079.
4214(65) 0.0002373 506. 3567.
4743(69) 0.0002108 506. 4061.
5368(73) 0.0001863 507. 4492.
5617(75) 0.0001780 507. 4771.
5594(75) 0.0001788 507. 4818.
5124(72) 0.0001952 507. 4623.
4579(68) 0.0002184 508. 4247.
4269(65) 0.0002342 508. 3784.
3735(61) 0.0002677 508. 3310.
3364(58) 0.0002973 509. 2870.
3008(55) 0.0003324 509. 2485.
2781(53) 0.000360 509. 2161.
2552(51) 0.000392 510. 1894.
2398(49) 0.000417 510. 1681.
2192(47) 0.000456 510. 1514.
2069(45) 0.000483 511. 1386.
2066(45) 0.000484 511. 1293.
1939(44) 0.000516 511. 1231.
1857(43) 0.000539 512. 1195.
1918(44) 0.000521 512. 1185.
1892(43) 0.000529 512. 1197.
1988(45) 0.000503 512. 1233.
1949(44) 0.000513 513. 1290.
2018(45) 0.000496 513. 1370.
2025(45) 0.000494 513. 1468.
2076(46) 0.000482 514. 1582.
2229(47) 0.000449 514. 1705.
2398(49) 0.000417 514. 1827.
2438(49) 0.000410 515. 1941.
2514(50) 0.000398 515. 2037.
2630(51) 0.000380 515. 2110.
2553(51) 0.000392 516. 2155.
2516(50) 0.000397 516. 2165.
2594(51) 0.000386 516. 2125.
2486(50) 0.000402 517. 2025.
2431(49) 0.000411 517. 1870.
2319(48) 0.000431 517. 1678.
2088(46) 0.000479 518. 1475.
1798(42) 0.000556 518. 1280.
1650(41) 0.000606 518. 1104.
1472(38) 0.000679 518. 952.
1347(37) 0.000742 519. 824.
1265(36) 0.000791 519. 717.
1173(34) 0.000853 519.4 628.5
1104(33) 0.000906 519.7 556.1
1082(33) 0.000924 520.0 496.6
959(31) 0.001043 520.3 447.6
940(31) 0.001064 520.7 406.8
910(30) 0.001099 521.0 372.5
843(29) 0.001186 521.3 343.5
828(29) 0.001208 521.6 318.4
801(28) 0.001248 521.9 296.6
774(28) 0.001292 522.2 277.5
731(27) 0.001368 522.5 260.6
757(28) 0.001321 522.9 245.5
751(27) 0.001332 523.2 232.1
739(27) 0.001353 523.5 219.9
718(27) 0.001393 523.8 209.0
694(26) 0.001441 524.1 199.0
669(26) 0.001495 524.4 189.9
667(26) 0.001499 524.7 181.7
667(26) 0.001499 525.1 174.1
695(26) 0.001439 525.4 167.2
687(26) 0.001456 525.7 160.9
694(26) 0.001441 526.0 155.1
651(26) 0.001536 526.3 149.8
627(25) 0.001595 526.6 146.1
605(25) 0.001653 526.9 141.6
654(26) 0.001529 527.3 137.5
608(25) 0.001645 527.6 133.8
620(25) 0.001613 527.9 130.4
619(25) 0.001616 528.2 127.3
632(25) 0.001582 528.5 124.5
655(26) 0.001527 528.8 121.9
633(25) 0.001580 529.1 119.7
649(25) 0.001541 529.5 117.7
651(26) 0.001536 529.8 116.0
635(25) 0.001575 530.1 114.5
612(25) 0.001634 530.4 113.3
651(26) 0.001536 530.7 112.4
646(25) 0.001548 531.0 111.8
580(24) 0.001724 531.3 111.5
562(24) 0.001779 531.7 111.4
587(24) 0.001704 532.0 111.8
595(24) 0.001681 532.3 112.4
593(24) 0.001686 532.6 113.6
643(25) 0.001555 532.9 115.5
599(24) 0.001669 533.2 117.7
658(26) 0.001520 533.6 120.4
652(26) 0.001534 533.9 123.8
617(25) 0.001621 534.2 128.1
622(25) 0.001608 534.5 133.5
688(26) 0.001453 534.8 140.1
637(25) 0.001570 535.1 148.4
695(26) 0.001439 535.4 158.9
723(27) 0.001383 535.8 172.2
745(27) 0.001342 536.1 189.3
777(28) 0.001287 536.4 211.7
851(29) 0.001175 536.7 241.1
978(31) 0.001022 537.0 279.8
990(31) 0.001010 537.3 330.4
1095(33) 0.000913 537.6 395.9
1156(34) 0.000865 538.0 478.4
1281(36) 0.000781 538. 579.
1285(36) 0.000778 539. 693.
1460(38) 0.000685 539. 809.
1605(40) 0.000623 539. 902.
1606(40) 0.000623 540. 942.
1526(39) 0.000655 540. 912.
1498(39) 0.000668 540. 825.
1322(36) 0.000756 540. 709.
1209(35) 0.000827 540.8 592.4
1139(34) 0.000878 541.1 488.4
1024(32) 0.000977 541.4 401.9
949(31) 0.001054 541.7 332.8
943(31) 0.001060 542.0 278.8
873(30) 0.001145 542.4 237.2
942(31) 0.001062 542.7 205.4
906(30) 0.001104 543.0 180.9
941(31) 0.001063 543.3 161.9
959(31) 0.001043 543.6 146.9
885(30) 0.001130 543.9 134.8
981(31) 0.001019 544.2 125.0
908(30) 0.001101 544.6 116.8
886(30) 0.001129 544.9 109.9
824(29) 0.001214 545.2 104.1
839(29) 0.001192 545.5 99.0
806(28) 0.001241 545.8 94.7
780(28) 0.001282 546.1 91.0
774(28) 0.001292 546.4 87.8
737(27) 0.001357 546.8 84.9
692(26) 0.001445 547.1 82.4
671(26) 0.001490 547.4 80.2
675(26) 0.001481 547.7 78.3
642(25) 0.001558 548.0 76.6
673(26) 0.001486 548.3 75.1
641(25) 0.001560 548.6 73.8
602(25) 0.001661 549.0 72.6
602(25) 0.001661 549.3 71.6
616(25) 0.001623 549.6 70.7
555(24) 0.001802 549.9 69.9
596(24) 0.001678 550.2 69.2
613(25) 0.001631 550.5 68.6
578(24) 0.001730 550.8 68.1
581(24) 0.001721 551.2 67.6
624(25) 0.001603 551.5 67.3
572(24) 0.001748 551.8 67.0
569(24) 0.001757 552.1 66.8
593(24) 0.001686 552.4 66.7
584(24) 0.001712 552.7 66.6
549(23) 0.001822 553.0 66.5
552(23) 0.001812 553.4 66.5
537(23) 0.001862 553.7 66.6
516(23) 0.001938 554.0 66.7
536(23) 0.001866 554.3 66.9
581(24) 0.001721 554.2 67.1
580(24) 0.001724 554.1 67.4
548(23) 0.001825 554.0 67.7
581(24) 0.001721 554.0 68.1
557(24) 0.001795 553.9 68.5
588(24) 0.001701 553.8 69.0
582(24) 0.001718 553.7 69.5
585(24) 0.001709 553.6 70.0
570(24) 0.001754 553.5 70.6
601(25) 0.001664 553.4 71.3
621(25) 0.001610 553.4 72.0
541(23) 0.001848 553.3 72.7
588(24) 0.001701 553.2 73.5
626(25) 0.001597 553.1 74.4
558(24) 0.001792 553.0 75.3
584(24) 0.001712 552.9 76.3
572(24) 0.001748 552.8 77.3
549(23) 0.001822 552.8 78.4
598(24) 0.001672 552.7 79.5
571(24) 0.001751 552.6 80.7
612(25) 0.001634 552.5 82.0
621(25) 0.001610 552.4 83.3
582(24) 0.001718 552.3 84.7
595(24) 0.001681 552.3 86.2
598(24) 0.001672 552.2 87.7
582(24) 0.001718 552.1 89.4
614(25) 0.001629 552.0 91.1
616(25) 0.001623 551.9 92.9
639(25) 0.001565 551.8 94.8
621(25) 0.001610 551.7 96.8
575(24) 0.001739 551.7 98.8
635(25) 0.001575 551.6 101.0
616(25) 0.001623 551.5 103.3
631(25) 0.001585 551.4 105.7
617(25) 0.001621 551.3 108.3
637(25) 0.001570 551.2 110.9
696(26) 0.001437 551.1 113.7
611(25) 0.001637 551.1 116.6
645(25) 0.001550 551.0 119.7
667(26) 0.001499 550.9 122.9
684(26) 0.001462 550.8 126.2
651(26) 0.001536 550.7 129.7
666(26) 0.001501 550.6 133.4
630(25) 0.001587 550.5 137.3
657(26) 0.001522 550.5 141.4
624(25) 0.001603 550.4 145.6
657(26) 0.001522 550.3 150.1
673(26) 0.001486 550.2 154.8
666(26) 0.001501 550.1 159.8
690(26) 0.001449 550.0 165.0
735(27) 0.001361 549.9 170.4
665(26) 0.001504 549.9 176.2
717(27) 0.001395 549.8 182.3
679(26) 0.001473 549.7 188.7
710(27) 0.001408 549.6 195.5
699(26) 0.001431 549.5 202.7
764(28) 0.001309 549.4 210.3
745(27) 0.001342 549.4 218.4
738(27) 0.001355 549.3 227.0
734(27) 0.001362 549.2 236.2
761(28) 0.001314 549.1 245.9
787(28) 0.001271 549.0 256.4
788(28) 0.001269 548.9 267.6
767(28) 0.001304 548.8 279.7
767(28) 0.001304 548.8 292.8
794(28) 0.001259 548.7 307.1
823(29) 0.001215 548.6 322.7
866(29) 0.001155 548.5 339.8
853(29) 0.001172 548.4 359.0
891(30) 0.001122 548.3 380.3
951(31) 0.001052 548.2 404.6
923(30) 0.001083 548.2 432.0
993(32) 0.001007 548.1 463.5
1008(32) 0.000992 548.0 499.9
1004(32) 0.000996 547.9 542.4
1123(34) 0.000890 547.8 592.8
1153(34) 0.000867 547.7 653.3
1254(35) 0.000797 548. 727.
1370(37) 0.000730 548. 820.
1512(39) 0.000661 547. 941.
1589(40) 0.000629 547. 1104.
1811(43) 0.000552 547. 1333.
2081(46) 0.000481 547. 1663.
2521(50) 0.000397 547. 2138.
3199(57) 0.0003126 547. 2799.
4029(63) 0.0002482 547. 3637.
5064(71) 0.0001975 547. 4462.
5749(76) 0.0001739 547. 4826.
5385(73) 0.0001857 547. 4454.
4621(68) 0.0002164 547. 3671.
3718(61) 0.0002690 547. 2905.
3190(56) 0.0003135 546. 2318.
2867(54) 0.0003488 546. 1911.
2572(51) 0.000389 546. 1639.
2327(48) 0.000430 546. 1458.
2237(47) 0.000447 546. 1334.
2101(46) 0.000476 546. 1246.
1972(44) 0.000507 546. 1178.
1937(44) 0.000516 546. 1123.
1797(42) 0.000556 546. 1077.
1669(41) 0.000599 546. 1038.
1684(41) 0.000594 546. 1003.
1595(40) 0.000627 546. 972.
1527(39) 0.000655 545. 945.
1500(39) 0.000667 545. 921.
1441(38) 0.000694 545. 901.
1402(37) 0.000713 545. 885.
1348(37) 0.000742 545. 872.
1374(37) 0.000728 545. 862.
1358(37) 0.000736 545. 856.
1309(36) 0.000764 545. 852.
1349(37) 0.000741 545. 852.
1280(36) 0.000781 545. 854.
1351(37) 0.000740 545. 859.
1302(36) 0.000768 544. 865.
1219(35) 0.000820 544.4 873.8
1291(36) 0.000775 544. 883.
1398(37) 0.000715 544. 893.
1349(37) 0.000741 544. 903.
1335(37) 0.000749 544. 912.
1363(37) 0.000734 544. 918.
1361(37) 0.000735 544. 921.
1363(37) 0.000734 544. 921.
1413(38) 0.000708 544. 915.
1392(37) 0.000718 544. 906.
1351(37) 0.000740 544. 892.
1421(38) 0.000704 543. 872.
1357(37) 0.000737 543. 844.
1328(36) 0.000753 543. 807.
1335(37) 0.000749 543. 761.
1265(36) 0.000791 543. 712.
1279(36) 0.000782 543. 664.
1217(35) 0.000822 543.0 618.4
1162(34) 0.000861 542.9 577.0
1083(33) 0.000923 542.8 539.7
1006(32) 0.000994 542.7 506.5
1008(32) 0.000992 542.6 477.0
1024(32) 0.000977 542.5 450.9
994(32) 0.001006 542.4 427.9
960(31) 0.001042 542.4 407.8
965(31) 0.001036 542.3 390.2
956(31) 0.001046 542.2 375.0
915(30) 0.001093 542.1 361.9
900(30) 0.001111 542.0 350.8
942(31) 0.001062 541.9 341.5
949(31) 0.001054 541.8 333.9
956(31) 0.001046 541.8 327.7
976(31) 0.001025 541.7 323.0
972(31) 0.001029 541.6 319.6
995(32) 0.001005 541.5 317.5
1074(33) 0.000931 541.4 316.6
1149(34) 0.000870 541.3 316.8
1294(36) 0.000773 541. 318.
1711(41) 0.000584 541. 321.
1317(36) 0.000759 541. 324.
1227(35) 0.000815 541.0 329.3
1084(33) 0.000923 540.9 335.5
1022(32) 0.000978 540.8 343.0
978(31) 0.001022 540.7 352.1
957(31) 0.001045 540.6 362.7
994(32) 0.001006 540.6 375.2
990(31) 0.001010 540.5 389.8
1022(32) 0.000978 540.4 406.7
1074(33) 0.000931 540.3 426.2
1095(33) 0.000913 540.2 448.8
1121(33) 0.000892 540.1 474.6
1128(34) 0.000887 540.1 504.3
1201(35) 0.000833 540.0 538.1
1219(35) 0.000820 539.9 576.7
1313(36) 0.000762 540. 620.
1312(36) 0.000762 540. 669.
1384(37) 0.000723 540. 725.
1420(38) 0.000704 540. 786.
1717(41) 0.000582 539. 853.
1685(41) 0.000593 539. 926.
1644(41) 0.000608 539. 1005.
1706(41) 0.000586 539. 1088.
1701(41) 0.000588 539. 1173.
1794(42) 0.000557 539. 1258.
1982(45) 0.000505 539. 1338.
1985(45) 0.000504 539. 1409.
2057(45) 0.000486 539. 1466.
2114(46) 0.000473 539. 1503.
2152(46) 0.000465 539. 1519.
2187(47) 0.000457 539. 1513.
2121(46) 0.000471 538. 1487.
2059(45) 0.000486 538. 1445.
1983(45) 0.000504 538. 1391.
1860(43) 0.000538 538. 1331.
1754(42) 0.000570 538. 1270.
1719(41) 0.000582 538. 1210.
1586(40) 0.000631 538. 1154.
1591(40) 0.000629 538. 1105.
1458(38) 0.000686 538. 1062.
1485(39) 0.000673 538. 1027.
1428(38) 0.000700 538. 1000.
1504(39) 0.000665 537. 982.
1391(37) 0.000719 537. 971.
1494(39) 0.000669 537. 970.
1477(38) 0.000677 537. 977.
1495(39) 0.000669 537. 994.
1520(39) 0.000658 537. 1023.
1593(40) 0.000628 537. 1063.
1670(41) 0.000599 537. 1118.
1728(42) 0.000579 537. 1189.
1863(43) 0.000537 537. 1278.
1941(44) 0.000515 537. 1390.
2114(46) 0.000473 537. 1524.
2187(47) 0.000457 536. 1682.
2368(49) 0.000422 536. 1863.
2546(50) 0.000393 536. 2056.
2714(52) 0.000368 536. 2248.
2830(53) 0.000353 536. 2412.
2934(54) 0.0003408 536. 2527.
2999(55) 0.0003334 536. 2583.
2978(55) 0.0003358 536. 2593.
2970(54) 0.0003367 536. 2582.
3014(55) 0.0003318 536. 2577.
3085(56) 0.0003241 536. 2594.
3188(56) 0.0003137 536. 2641.
3464(59) 0.0002887 535. 2721.
3589(60) 0.0002786 535. 2832.
3774(61) 0.0002650 535. 2970.
3998(63) 0.0002501 535. 3127.
4172(65) 0.0002397 535. 3295.
4566(68) 0.0002190 535. 3462.
4638(68) 0.0002156 535. 3616.
4870(70) 0.0002053 535. 3740.
5077(71) 0.0001970 535. 3825.
4820(69) 0.0002075 535. 3861.
4699(69) 0.0002128 535. 3845.
4528(67) 0.0002208 535. 3777.
4205(65) 0.0002378 534. 3662.
4031(63) 0.0002481 534. 3507.
3739(61) 0.0002675 534. 3323.
3579(60) 0.0002794 534. 3120.
3358(58) 0.0002978 534. 2906.
2966(54) 0.0003372 534. 2689.
2846(53) 0.000351 534. 2477.
2759(53) 0.000362 534. 2273.
2651(51) 0.000377 534. 2080.
2417(49) 0.000414 534. 1901.
2343(48) 0.000427 534. 1736.
2231(47) 0.000448 533. 1584.
2183(47) 0.000458 533. 1447.
2080(46) 0.000481 533. 1323.
1932(44) 0.000518 533. 1212.
1871(43) 0.000534 533. 1113.
1875(43) 0.000533 533. 1024.
1779(42) 0.000562 533. 946.
1799(42) 0.000556 533. 877.
1675(41) 0.000597 533. 817.
1613(40) 0.000620 533. 764.
1629(40) 0.000614 533. 718.
1608(40) 0.000622 533. 678.
1498(39) 0.000668 532. 643.
1485(39) 0.000673 532. 613.
1529(39) 0.000654 532. 587.
1476(38) 0.000678 532. 563.
1579(40) 0.000633 532. 540.
1486(39) 0.000673 532. 519.
1476(38) 0.000678 532. 496.
1459(38) 0.000685 532. 474.
1416(38) 0.000706 532. 453.
1361(37) 0.000735 532. 432.
1408(38) 0.000710 532. 412.
1307(36) 0.000765 532. 394.
1297(36) 0.000771 531. 378.
1288(36) 0.000776 531. 363.
1314(36) 0.000761 531. 350.
1292(36) 0.000774 531. 338.
1314(36) 0.000761 531. 327.
1332(36) 0.000751 531. 317.
1314(36) 0.000761 531. 309.
1242(35) 0.000805 531. 301.
1315(36) 0.000760 531. 294.
1343(37) 0.000745 531. 288.
1356(37) 0.000737 531. 282.
1372(37) 0.000729 530. 276.
1409(38) 0.000710 530. 271.
1392(37) 0.000718 530. 266.
1522(39) 0.000657 530. 261.
1544(39) 0.000648 530. 257.
1542(39) 0.000649 530. 252.
1670(41) 0.000599 530. 248.
1669(41) 0.000599 530. 244.
1731(42) 0.000578 530. 239.
1824(43) 0.000548 530. 235.
1866(43) 0.000536 530. 231.
1897(44) 0.000527 530. 227.
1905(44) 0.000525 529. 222.
1891(43) 0.000529 529. 218.
1909(44) 0.000524 529. 214.
1931(44) 0.000518 529. 210.
1876(43) 0.000533 529. 206.
1846(43) 0.000542 529. 202.
1796(42) 0.000557 529. 198.
1807(43) 0.000553 529. 194.
1927(44) 0.000519 529. 191.
1912(44) 0.000523 529. 188.
2004(45) 0.000499 529. 185.
2057(45) 0.0 0. .
1972(44) 0.0 0. .
2081(46) 0.0 0. .
2245(47) 0.0 0. .
2225(47) 0.0 0. .
2322(48) 0.0 0. .
2424(49) 0.0 0. .
2604(51) 0.0 0. .
2730(52) 0.0 0. .
2896(54) 0.0 0. .
3073(55) 0.0 0. .
3311(58) 0.0 0. .
3596(60) 0.0 0. .
3851(62) 0.0 0. .
4197(65) 0.0 0. .
4484(67) 0.0 0. .
4915(70) 0.0 0. .
5413(74) 0.0 0. .
5922(77) 0.0 0. .
7008(84) 0.0 0. .
7832(88) 0.0 0. .
8930(94) 0.0 0. .
10420(100) 0.0 0. .
12110(110) 0.0 0. .
14690(120) 0.0 0. .
17660(130) 0.0 0. .
21720(150) 0.0 0. .
27770(170) 0.0 0. .
35750(190) 0.0 0. .
47480(220) 0.0 0. .
65450(260) 0.0 0. .
92300(300) 0.0 0. .
135850(370) 0.0 0. .
208950(460) 0.0 0. .
335730(580) 0.0 0. .
536390(730) 0.0 0. .
747600(870) 0.0 0. .
823030(910) 0.0 0. .
694160(830) 0.0 0. .
462760(680) 0.0 0. .
279420(530) 0.0 0. .
172990(420) 0.0 0. .
112820(340) 0.0 0. .
76760(280) 0.0 0. .
54390(230) 0.0 0. .
40350(200) 0.0 0. .
31000(180) 0.0 0. .
24360(160) 0.0 0. .
19580(140) 0.0 0. .
16100(130) 0.0 0. .
13490(120) 0.0 0. .
11300(110) 0.0 0. .
9385(97) 0.0 0. .
8184(90) 0.0 0. .
7235(85) 0.0 0. .
6305(79) 0.0 0. .
5605(75) 0.0 0. .
4959(70) 0.0 0. .
4426(67) 0.0 0. .
4041(64) 0.0 0. .
3708(61) 0.0 0. .
3406(58) 0.0 0. .
3206(57) 0.0 0. .
2908(54) 0.0 0. .
2689(52) 0.0 0. .
2558(51) 0.0 0. .
2426(49) 0.0 0. .
2264(48) 0.0 0. .
2154(46) 0.0 0. .
2056(45) 0.0 0. .
1941(44) 0.0 0. .
1890(43) 0.0 0. .
1825(43) 0.0 0. .
1697(41) 0.0 0. .
1669(41) 0.0 0. .
1518(39) 0.0 0. .
1541(39) 0.0 0. .
1399(37) 0.0 0. .
1370(37) 0.0 0. .
1383(37) 0.0 0. .
1317(36) 0.0 0. .
1308(36) 0.0 0. .
1227(35) 0.0 0.0 .
1193(35) 0.0 0.0 .
1203(35) 0.0 0.0 .
1216(35) 0.0 0.0 .
1133(34) 0.0 0.0 .
1130(34) 0.0 0.0 .
1092(33) 0.0 0.0 .
1062(33) 0.0 0.0 .
1066(33) 0.000938 520.9 82.9
1038(32) 0.000963 520.8 83.5
1018(32) 0.000982 520.7 84.4
1008(32) 0.000992 520.6 85.8
953(31) 0.001049 520.5 87.6
970(31) 0.001031 520.4 90.0
960(31) 0.001042 520.3 93.0
954(31) 0.001048 520.3 96.5
951(31) 0.001052 520.2 100.7
1006(32) 0.000994 520.1 105.5
961(31) 0.001041 520.0 111.0
922(30) 0.001085 519.9 116.9
975(31) 0.001026 519.8 123.3
915(30) 0.001093 519.7 129.7
987(31) 0.001013 519.7 135.7
955(31) 0.001047 519.6 140.7
916(30) 0.001092 519.5 144.2
919(30) 0.001088 519.4 145.5
938(31) 0.001066 519.3 144.6
927(30) 0.001079 519.2 141.3
923(30) 0.001083 519.1 136.2
882(30) 0.001134 519.1 129.8
870(29) 0.001149 519.0 122.8
829(29) 0.001206 518.9 115.5
841(29) 0.001189 518.8 108.5
846(29) 0.001182 518.7 101.9
799(28) 0.001252 518.6 95.9
791(28) 0.001264 518.5 90.5
795(28) 0.001258 518.5 85.8
769(28) 0.001300 518.4 81.6
791(28) 0.001264 518.3 78.0
771(28) 0.001297 518.2 74.9
814(29) 0.001228 518.1 72.2
756(27) 0.001323 518.0 70.0
758(28) 0.001319 518.0 68.1
751(27) 0.001332 517.9 66.5
724(27) 0.001381 517.8 65.2
749(27) 0.001335 517.7 64.0
747(27) 0.001339 517.6 63.1
714(27) 0.001401 517.5 62.3
773(28) 0.001294 517.4 61.7
739(27) 0.001353 517.4 61.2
750(27) 0.001333 517.3 60.8
752(27) 0.001330 517.2 60.4
732(27) 0.001366 517.1 60.2
738(27) 0.001355 517.0 60.0
772(28) 0.001295 516.9 59.9
797(28) 0.001255 516.8 59.9
715(27) 0.001399 516.8 60.0
763(28) 0.001311 516.7 60.0
743(27) 0.001346 516.6 60.2
760(28) 0.001316 516.5 60.4
716(27) 0.001397 516.4 60.6
757(28) 0.001321 516.3 61.0
770(28) 0.001299 516.2 61.3
737(27) 0.001357 516.2 61.7
685(26) 0.001460 516.1 62.2
669(26) 0.001495 516.0 62.7
724(27) 0.001381 515.9 63.3
716(27) 0.001397 515.8 63.9
745(27) 0.001342 515.7 64.5
698(26) 0.001433 515.6 65.3
727(27) 0.001376 515.6 66.1
659(26) 0.001517 515.5 66.9
654(26) 0.001529 515.4 68.0
699(26) 0.001431 515.3 69.0
675(26) 0.001481 515.2 70.0
679(26) 0.001473 515.1 71.2
691(26) 0.001447 515.0 72.4
662(26) 0.001511 515.0 73.7
671(26) 0.001490 514.9 75.1
635(25) 0.001575 514.8 76.6
680(26) 0.001471 514.7 78.2
676(26) 0.001479 514.6 80.0
645(25) 0.001550 514.5 81.9
643(25) 0.001555 514.5 83.9
669(26) 0.001495 514.4 86.2
676(26) 0.001479 514.3 88.5
649(25) 0.001541 514.2 91.0
678(26) 0.001475 514.1 93.7
708(27) 0.001412 514.0 96.6
686(26) 0.001458 513.9 99.7
738(27) 0.001355 513.9 103.1
706(27) 0.001416 513.8 106.7
712(27) 0.001404 513.7 110.7
669(26) 0.001495 513.6 114.9
686(26) 0.001458 513.5 119.5
766(28) 0.001305 513.4 124.4
653(26) 0.001531 513.3 129.7
705(27) 0.001418 513.3 135.3
687(26) 0.001456 513.2 141.5
709(27) 0.001410 513.1 148.0
765(28) 0.001307 513.0 155.1
749(27) 0.001335 512.9 162.6
759(28) 0.001318 512.8 170.6
758(28) 0.001319 512.7 179.2
742(27) 0.001348 512.7 188.4
764(28) 0.001309 512.6 198.1
750(27) 0.001333 512.5 208.3
746(27) 0.001340 512.4 219.2
768(28) 0.001302 512.3 230.6
775(28) 0.001290 512.2 242.5
803(28) 0.001245 512.1 255.0
816(29) 0.001225 512.1 268.0
824(29) 0.001214 512.0 281.3
844(29) 0.001185 511.9 295.0
878(30) 0.001139 511.8 308.9
819(29) 0.001221 511.7 322.9
848(29) 0.001179 511.6 336.8
875(30) 0.001143 511.6 350.5
908(30) 0.001101 511.5 363.7
927(30) 0.001079 511.4 376.3
980(31) 0.001020 511.3 388.2
959(31) 0.001043 511.2 399.1
964(31) 0.001037 511.1 408.9
1003(32) 0.000997 511.0 417.7
1047(32) 0.000955 511.0 425.4
1017(32) 0.000983 510.9 432.2
1076(33) 0.000929 510.8 438.3
1026(32) 0.000975 510.7 443.9
997(32) 0.001003 510.6 449.5
1030(32) 0.000971 510.5 455.3
989(31) 0.001011 510.4 461.9
1064(33) 0.000940 510.4 469.5
1019(32) 0.000981 510.3 478.7
1061(33) 0.000943 510.2 489.7
1033(32) 0.000968 510.1 502.8
1028(32) 0.000973 510.0 518.1
1020(32) 0.000980 509.9 535.4
1062(33) 0.000942 509.8 554.4
1018(32) 0.000982 509.8 574.3
1092(33) 0.000916 509.7 594.2
1112(33) 0.000899 509.6 612.3
1100(33) 0.000909 509.5 626.9
1158(34) 0.000864 509.4 636.1
1212(35) 0.000825 509.3 638.2
1096(33) 0.000912 509.2 632.4
1175(34) 0.000851 509.2 618.9
1108(33) 0.000903 509.1 598.8
1005(32) 0.000995 509.0 573.7
1006(32) 0.000994 508.9 545.7
1001(32) 0.000999 508.8 516.7
949(31) 0.001054 508.7 488.0
956(31) 0.001046 508.7 460.9
907(30) 0.001103 508.6 436.1
924(30) 0.001082 508.5 413.9
838(29) 0.001193 508.4 394.6
892(30) 0.001121 508.3 378.3
840(29) 0.001190 508.2 364.9
908(30) 0.001101 508.1 354.5
873(30) 0.001145 508.1 346.8
881(30) 0.001135 508.0 341.9
856(29) 0.001168 507.9 339.8
862(29) 0.001160 507.8 340.4
912(30) 0.001096 507.7 343.9
938(31) 0.001066 507.6 350.5
953(31) 0.001049 507.5 360.6
998(32) 0.001002 507.5 374.6
977(31) 0.001024 507.4 393.2
1045(32) 0.000957 507.3 416.9
1082(33) 0.000924 507.2 446.6
1119(33) 0.000894 507.1 482.7
1154(34) 0.000867 507.0 525.3
1210(35) 0.000826 506.9 573.4
1230(35) 0.000813 506.9 624.1
1368(37) 0.000731 507. 671.
1390(37) 0.000719 507. 707.
1403(37) 0.000713 507. 721.
1307(36) 0.000765 507. 712.
1262(36) 0.000792 506. 682.
1241(35) 0.000806 506. 643.
1168(34) 0.000856 506.3 600.2
1082(33) 0.000924 506.2 560.5
1086(33) 0.000921 506.1 526.1
1017(32) 0.000983 506.0 497.6
1026(32) 0.000975 505.9 474.7
1029(32) 0.000972 505.8 456.8
948(31) 0.001055 505.7 443.0
962(31) 0.001040 505.7 432.5
932(31) 0.001073 505.6 424.7
904(30) 0.001106 505.5 418.8
897(30) 0.001115 505.4 414.5
834(29) 0.001199 505.3 411.4
854(29) 0.001171 505.2 409.1
885(30) 0.001130 505.2 407.5
892(30) 0.001121 505.1 406.6
885(30) 0.001130 505.0 406.2
845(29) 0.001183 504.9 406.2
844(29) 0.001185 504.8 406.7
856(29) 0.001168 504.7 407.7
855(29) 0.001170 504.6 409.1
850(29) 0.001176 504.6 411.1
856(29) 0.001168 504.5 413.5
856(29) 0.001168 504.4 416.4
892(30) 0.001121 504.3 419.8
931(31) 0.001074 504.2 423.8
941(31) 0.001063 504.1 428.1
925(30) 0.001081 504.0 432.9
908(30) 0.001101 504.0 438.1
933(31) 0.001072 503.9 443.5
946(31) 0.001057 503.8 449.1
1007(32) 0.000993 503.7 454.5
1018(32) 0.000982 503.6 459.7
1026(32) 0.000975 503.5 464.1
1031(32) 0.000970 503.4 467.2
1090(33) 0.000917 503.4 468.5
1076(33) 0.000929 503.3 467.2
1093(33) 0.000915 503.2 462.9
1027(32) 0.000974 503.1 455.6
1020(32) 0.000980 503.0 445.5
976(31) 0.001025 502.9 433.4
982(31) 0.001018 502.8 420.0
969(31) 0.001032 502.8 405.9
905(30) 0.001105 502.7 391.8
899(30) 0.001112 502.6 378.0
877(30) 0.001140 502.5 364.8
842(29) 0.001188 502.4 352.3
819(29) 0.001221 502.3 340.6
827(29) 0.001209 502.3 329.8
851(29) 0.001175 502.2 319.9
854(29) 0.001171 502.1 310.9
779(28) 0.001284 502.0 302.7
804(28) 0.001244 501.9 295.4
787(28) 0.001271 501.8 288.9
804(28) 0.001244 501.7 283.2
810(28) 0.001235 501.7 278.2
782(28) 0.001279 501.6 273.8
760(28) 0.001316 501.5 270.0
762(28) 0.001312 501.4 266.7
845(29) 0.001183 501.3 263.8
790(28) 0.001266 501.2 261.1
805(28) 0.001242 501.1 258.9
813(29) 0.001230 501.1 256.6
823(29) 0.001215 501.0 254.5
807(28) 0.001239 500.9 252.5
779(28) 0.001284 500.8 250.6
775(28) 0.001290 500.7 248.8
766(28) 0.001305 500.6 247.1
792(28) 0.001263 500.5 245.7
783(28) 0.001277 500.5 244.6
742(27) 0.001348 500.4 244.0
783(28) 0.001277 500.3 244.0
719(27) 0.001391 500.2 244.6
814(29) 0.001228 500.1 246.1
798(28) 0.001253 500.0 248.4
732(27) 0.001366 499.9 252.0
772(28) 0.001295 499.9 256.5
795(28) 0.001258 499.8 262.4
825(29) 0.001212 499.7 269.5
835(29) 0.001198 499.6 278.2
809(28) 0.001236 499.5 288.3
856(29) 0.001168 499.4 299.9
873(30) 0.001145 499.3 313.0
936(31) 0.001068 499.3 327.5
973(31) 0.001028 499.2 343.0
957(31) 0.001045 499.1 359.3
953(31) 0.001049 499.0 375.5
966(31) 0.001035 498.9 390.7
974(31) 0.001027 498.8 403.6
1011(32) 0.000989 498.8 412.9
1008(32) 0.000992 498.7 417.5
1017(32) 0.000983 498.6 416.7
922(30) 0.001085 498.5 410.7
950(31) 0.001053 498.4 400.4
943(31) 0.001060 498.3 387.1
924(30) 0.001082 498.2 372.1
873(30) 0.001145 498.2 356.6
856(29) 0.001168 498.1 341.6
809(28) 0.001236 498.0 327.6
810(28) 0.001235 497.9 315.1
798(28) 0.001253 497.8 304.3
791(28) 0.001264 497.7 295.4
785(28) 0.001274 497.6 288.4
818(29) 0.001222 497.6 283.6
793(28) 0.001261 497.5 280.9
789(28) 0.001267 497.4 280.5
780(28) 0.001282 497.3 282.5
833(29) 0.001200 497.2 287.1
862(29) 0.001160 497.1 294.7
837(29) 0.001195 497.0 305.7
905(30) 0.001105 497.0 320.6
896(30) 0.001116 496.9 340.0
950(31) 0.001053 496.8 364.8
961(31) 0.001041 496.7 395.7
1027(32) 0.000974 496.6 433.7
1038(32) 0.000963 496.5 479.9
1193(35) 0.000838 496.4 535.0
1217(35) 0.000822 496.4 600.1
1362(37) 0.000734 496. 675.
1435(38) 0.000697 496. 761.
1632(40) 0.000613 496. 855.
1673(41) 0.000598 496. 954.
1911(44) 0.000523 496. 1053.
2044(45) 0.000489 496. 1142.
2037(45) 0.000491 496. 1211.
2094(46) 0.000478 496. 1248.
1980(44) 0.000505 496. 1247.
1849(43) 0.000541 496. 1208.
1796(42) 0.000557 495. 1139.
1605(40) 0.000623 495. 1051.
1566(40) 0.000639 495. 955.
1408(38) 0.000710 495. 861.
1428(38) 0.000700 495. 773.
1292(36) 0.000774 495. 694.
1309(36) 0.000764 495. 627.
1264(36) 0.000791 495. 571.
1169(34) 0.000855 494.7 525.9
1202(35) 0.000832 494.7 491.0
1160(34) 0.000862 494.6 465.1
1161(34) 0.000861 494.5 447.1
1137(34) 0.000880 494.4 435.6
1178(34) 0.000849 494.3 429.4
1212(35) 0.000825 494.2 426.9
1204(35) 0.000831 494.1 427.1
1177(34) 0.000850 494.1 429.0
1246(35) 0.000803 494. 432.
1259(35) 0.000794 494. 436.
1336(37) 0.000749 494. 440.
1284(36) 0.000779 494. 444.
1299(36) 0.000770 494. 446.
1343(37) 0.000745 494. 445.
1321(36) 0.000757 493. 441.
1263(36) 0.000792 493. 432.
1242(35) 0.000805 493. 419.
1198(35) 0.000835 493.2 402.1
1140(34) 0.000877 493.1 381.8
1024(32) 0.000977 493.0 359.3
959(31) 0.001043 493.0 335.8
970(31) 0.001031 492.9 312.2
933(31) 0.001072 492.8 289.1
879(30) 0.001138 492.7 267.1
879(30) 0.001138 492.6 246.5
786(28) 0.001272 492.5 227.5
733(27) 0.001364 492.4 210.1
737(27) 0.001357 492.4 194.4
705(27) 0.001418 492.3 180.2
738(27) 0.001355 492.2 167.5
668(26) 0.001497 492.1 156.2
717(27) 0.001395 492.0 146.2
658(26) 0.001520 491.9 137.3
623(25) 0.001605 491.8 129.4
644(25) 0.001553 491.8 122.5
628(25) 0.001592 491.7 116.4
649(25) 0.001541 491.6 111.0
595(24) 0.001681 491.5 106.3
610(25) 0.001639 491.4 102.1
618(25) 0.001618 491.3 98.5
583(24) 0.001715 491.2 95.3
561(24) 0.001783 491.2 92.6
561(24) 0.001783 491.1 90.2
591(24) 0.001692 491.0 88.1
604(25) 0.001656 490.9 86.4
562(24) 0.001779 490.8 84.9
583(24) 0.001715 490.7 83.7
568(24) 0.001761 490.6 82.8
608(25) 0.001645 490.6 82.4
577(24) 0.001733 490.5 82.0
563(24) 0.001776 490.4 81.9
583(24) 0.001715 490.3 82.1
584(24) 0.001712 490.2 82.7
585(24) 0.001709 490.1 83.5
540(23) 0.001852 490.0 84.7
546(23) 0.001832 490.0 86.2
553(24) 0.001808 489.9 88.1
582(24) 0.001718 489.8 90.4
552(23) 0.001812 489.7 93.1
586(24) 0.001706 489.6 96.3
500(22) 0.002000 489.5 99.9
555(24) 0.001802 489.5 104.0
582(24) 0.001718 489.4 108.6
562(24) 0.001779 489.3 113.7
561(24) 0.001783 489.2 119.2
611(25) 0.001637 489.1 125.2
588(24) 0.001701 489.0 131.7
601(25) 0.001664 488.9 138.4
588(24) 0.001701 488.9 145.3
582(24) 0.001718 488.8 152.2
552(23) 0.001812 488.7 159.0
612(25) 0.001634 488.6 165.2
636(25) 0.001572 488.5 170.7
629(25) 0.001590 488.4 175.2
643(25) 0.001555 488.3 178.2
632(25) 0.001582 488.3 179.7
630(25) 0.001587 488.2 179.4
633(25) 0.001580 488.1 177.4
619(25) 0.001616 488.0 173.8
603(25) 0.001658 487.9 168.8
592(24) 0.001689 487.8 162.8
636(25) 0.001572 487.7 155.9
608(25) 0.001645 487.7 148.6
612(25) 0.001634 487.6 141.1
573(24) 0.001745 487.5 133.6
564(24) 0.001773 487.4 126.3
572(24) 0.001748 487.3 119.3
594(24) 0.001684 487.2 112.7
555(24) 0.001802 487.1 106.5
554(24) 0.001805 487.1 100.7
537(23) 0.001862 487.0 95.4
514(23) 0.001946 486.9 90.6
518(23) 0.001931 486.8 86.2
540(23) 0.001852 486.7 82.2
526(23) 0.001901 486.6 78.7
513(23) 0.001949 486.6 75.5
573(24) 0.001745 486.5 72.8
540(23) 0.001852 486.4 70.3
514(23) 0.001946 486.3 68.0
527(23) 0.001898 486.2 66.1
521(23) 0.001919 486.1 64.4
496(22) 0.002016 486.0 62.9
521(23) 0.001919 486.0 61.6
519(23) 0.001927 485.9 60.4
533(23) 0.001876 485.8 59.4
520(23) 0.001923 485.7 58.6
580(24) 0.001724 485.6 57.9
522(23) 0.001916 485.5 57.2
502(22) 0.001992 485.4 56.7
491(22) 0.002037 485.2 56.2
507(23) 0.001972 485.0 55.8
459(21) 0.002179 484.7 55.4
504(22) 0.001984 484.5 55.1
512(23) 0.001953 484.2 54.8
501(22) 0.001996 483.9 54.6
510(23) 0.001961 483.7 54.3
522(23) 0.001916 483.4 54.1
522(23) 0.001916 483.2 53.9
526(23) 0.001901 482.9 53.8
513(23) 0.001949 482.7 53.6
520(23) 0.001923 482.4 53.4
529(23) 0.001890 482.1 53.2
490(22) 0.002041 481.9 53.0
515(23) 0.001942 481.6 52.7
491(22) 0.002037 481.4 52.5
503(22) 0.001988 481.1 52.2
532(23) 0.001880 480.9 51.9
483(22) 0.002070 480.6 51.6
490(22) 0.002041 480.4 51.3
486(22) 0.002058 480.1 50.9
494(22) 0.002024 479.8 50.6
525(23) 0.001905 479.6 50.2
548(23) 0.001825 479.3 49.7
501(22) 0.001996 479.1 49.3
500(22) 0.002000 478.8 48.8
512(23) 0.001953 478.6 48.4
558(24) 0.001792 478.3 47.9
514(23) 0.001946 478.0 47.4
506(22) 0.001976 477.8 46.9
505(22) 0.001980 477.5 46.4
499(22) 0.002004 477.3 45.8
495(22) 0.002020 477.0 45.3
500(22) 0.002000 476.8 44.8
492(22) 0.002033 476.5 44.2
487(22) 0.002053 476.2 43.7
489(22) 0.002045 476.0 43.2
479(22) 0.002088 475.7 42.9
511(23) 0.001957 475.5 42.5
504(22) 0.001984 475.2 42.0
489(22) 0.002045 475.0 41.5
520(23) 0.001923 474.7 41.0
528(23) 0.001894 474.4 40.6
504(22) 0.001984 474.2 40.1
516(23) 0.001938 473.9 39.7
503(22) 0.001988 473.7 39.3
553(24) 0.001808 473.4 38.9
527(23) 0.001898 473.2 38.6
512(23) 0.001953 472.9 38.2
552(23) 0.001812 472.6 37.8
524(23) 0.001908 472.4 37.5
486(22) 0.002058 472.1 37.2
456(21) 0.002193 471.9 36.9
509(23) 0.001965 471.6 36.6
506(22) 0.001976 471.4 36.3
463(22) 0.002160 471.1 36.1
485(22) 0.002062 470.9 35.9
476(22) 0.002101 470.6 35.7
506(22) 0.001976 470.3 35.5
484(22) 0.002066 470.1 35.3
481(22) 0.002079 469.9 35.2
466(22) 0.002146 470.1 35.0
474(22) 0.002110 470.2 34.9
460(21) 0.002174 470.4 34.8
493(22) 0.002028 470.5 34.7
484(22) 0.002066 470.7 34.7
523(23) 0.001912 470.8 34.6
464(22) 0.002155 471.0 34.6
500(22) 0.002000 471.1 34.6
463(22) 0.002160 471.2 34.6
515(23) 0.001942 471.4 34.6
503(22) 0.001988 471.5 34.7
477(22) 0.002096 471.7 34.7
475(22) 0.002105 471.8 34.8
500(22) 0.002000 472.0 34.9
520(23) 0.001923 472.1 35.1
512(23) 0.001953 472.3 35.2
514(23) 0.001946 472.4 35.4
497(22) 0.002012 472.6 35.6
537(23) 0.001862 472.7 35.9
495(22) 0.002020 472.9 36.2
516(23) 0.001938 473.0 36.5
531(23) 0.001883 473.1 36.8
479(22) 0.002088 473.3 37.2
514(23) 0.001946 473.4 37.6
516(23) 0.001938 473.6 38.1
509(23) 0.001965 473.7 38.6
509(23) 0.001965 473.9 39.2
479(22) 0.002088 474.0 39.8
539(23) 0.001855 474.2 40.5
505(22) 0.001980 474.3 41.3
516(23) 0.001938 474.5 42.2
456(21) 0.002193 474.6 43.2
530(23) 0.001887 474.8 44.3
505(22) 0.001980 474.9 45.6
514(23) 0.001946 475.1 47.0
498(22) 0.002008 475.2 48.7
529(23) 0.001890 475.3 50.7
513(23) 0.001949 475.5 53.0
507(23) 0.001972 475.6 55.7
541(23) 0.001848 475.8 58.9
538(23) 0.001859 475.9 62.7
513(23) 0.001949 476.1 67.2
541(23) 0.001848 476.2 72.5
531(23) 0.001883 476.4 78.8
582(24) 0.001718 476.5 86.1
558(24) 0.001792 476.7 94.6
588(24) 0.001701 476.8 104.2
603(25) 0.001658 477.0 114.7
647(25) 0.001546 477.1 125.9
659(26) 0.001517 477.2 137.2
645(25) 0.001550 477.4 147.6
728(27) 0.001374 477.5 155.7
777(28) 0.001287 477.7 160.4
711(27) 0.001406 477.8 160.9
711(27) 0.001406 478.0 157.1
620(25) 0.001613 478.1 149.9
643(25) 0.001555 478.3 140.6
582(24) 0.001718 478.4 130.5
583(24) 0.001715 478.6 120.5
601(25) 0.001664 478.7 111.3
582(24) 0.001718 478.9 103.0
583(24) 0.001715 479.0 96.0
564(24) 0.001773 479.2 90.1
549(23) 0.001822 479.3 85.2
543(23) 0.001842 479.4 81.4
550(23) 0.001818 479.6 78.5
576(24) 0.001736 479.7 76.4
618(25) 0.001618 479.9 75.0
556(24) 0.001799 480.0 74.2
527(23) 0.001898 480.2 74.0
526(23) 0.001901 480.3 74.4
549(23) 0.001822 480.5 75.3
565(24) 0.001770 480.6 76.8
557(24) 0.001795 480.8 78.9
563(24) 0.001776 480.9 81.7
591(24) 0.001692 481.1 85.2
591(24) 0.001692 481.2 89.7
590(24) 0.001695 481.3 95.2
598(24) 0.001672 481.5 101.6
612(25) 0.001634 481.6 108.7
621(25) 0.001610 481.8 116.1
655(26) 0.001527 481.9 122.7
674(26) 0.001484 482.1 127.6
702(26) 0.001424 482.2 130.6
695(26) 0.001439 482.4 132.3
684(26) 0.001462 482.5 134.0
665(26) 0.001504 482.7 136.9
704(27) 0.001420 482.8 141.7
710(27) 0.001408 483.0 149.0
702(26) 0.001424 483.1 158.9
644(25) 0.001553 483.3 171.7
730(27) 0.001370 483.4 187.6
698(26) 0.001433 483.5 206.5
756(27) 0.001323 483.7 228.4
777(28) 0.001287 483.8 252.6
847(29) 0.001181 484.0 278.2
808(28) 0.001238 484.1 303.2
860(29) 0.001163 484.3 324.9
942(31) 0.001062 484.4 340.0
918(30) 0.001089 484.6 346.0
854(29) 0.001171 484.7 341.9
855(29) 0.001170 484.9 328.7
831(29) 0.001203 485.0 309.2
777(28) 0.001287 485.2 286.6
771(28) 0.001297 485.3 263.6
738(27) 0.001355 485.4 241.8
751(27) 0.001332 485.6 222.4
759(28) 0.001318 485.7 205.6
741(27) 0.001350 485.9 191.6
744(27) 0.001344 486.0 180.2
716(27) 0.001397 486.2 171.2
689(26) 0.001451 486.3 164.3
698(26) 0.001433 486.5 159.2
650(25) 0.001538 486.6 155.8
699(26) 0.001431 486.8 153.7
693(26) 0.001443 486.9 152.8
709(27) 0.001410 487.1 152.9
682(26) 0.001466 487.2 153.8
702(26) 0.001424 487.4 155.5
648(25) 0.001543 487.5 157.9
700(26) 0.001429 487.6 160.9
641(25) 0.001560 487.8 164.5
705(27) 0.001418 487.9 168.6
715(27) 0.001399 488.1 173.3
694(26) 0.001441 488.2 178.4
722(27) 0.001385 488.4 184.1
699(26) 0.001431 488.5 190.3
703(27) 0.001422 488.7 197.1
736(27) 0.001359 488.8 204.4
721(27) 0.001387 489.0 212.5
739(27) 0.001353 489.1 221.2
719(27) 0.001391 489.3 230.7
820(29) 0.001220 489.4 241.1
818(29) 0.001222 489.5 252.3
790(28) 0.001266 489.7 264.5
777(28) 0.001287 489.8 277.6
823(29) 0.001215 490.0 291.9
838(29) 0.001193 490.1 307.3
828(29) 0.001208 490.3 323.9
869(29) 0.001151 490.4 341.9
883(30) 0.001133 490.6 361.1
924(30) 0.001082 490.7 381.8
907(30) 0.001103 490.9 404.0
974(31) 0.001027 491.0 427.6
1022(32) 0.000978 491.2 452.8
1072(33) 0.000933 491.3 479.4
1112(33) 0.000899 491.5 507.4
1112(33) 0.000899 491.6 536.7
1137(34) 0.000880 491.7 567.2
1189(34) 0.000841 491.9 598.4
1254(35) 0.000797 492. 630.
1283(36) 0.000779 492. 662.
1418(38) 0.000705 492. 693.
1414(38) 0.000707 492. 722.
1467(38) 0.000682 493. 750.
1463(38) 0.000684 493. 774.
1539(39) 0.000650 493. 795.
1559(39) 0.000641 493. 813.
1530(39) 0.000654 493. 826.
1570(40) 0.000637 493. 835.
1527(39) 0.000655 494. 840.
1506(39) 0.000664 494. 842.
1498(39) 0.000668 494. 841.
1455(38) 0.000687 494. 838.
1538(39) 0.000650 494. 831.
1521(39) 0.000657 494. 823.
1512(39) 0.000661 494. 812.
1520(39) 0.000658 495. 799.
1437(38) 0.000696 495. 784.
1349(37) 0.000741 495. 766.
1442(38) 0.000693 495. 746.
1389(37) 0.000720 495. 723.
1313(36) 0.000762 495. 698.
1230(35) 0.000813 495.4 672.0
1113(33) 0.000898 495.6 644.6
1139(34) 0.000878 495.7 616.5
1152(34) 0.000868 495.8 588.3
1127(34) 0.000887 496.0 560.3
1069(33) 0.000935 496.1 532.9
1090(33) 0.000917 496.3 506.2
1032(32) 0.000969 496.4 480.6
1049(32) 0.000953 496.6 456.2
1056(32) 0.000947 496.7 433.0
960(31) 0.001042 496.9 411.1
1042(32) 0.000960 497.0 390.6
1179(34) 0.000848 497.2 371.4
1431(38) 0.000699 497. 353.
1458(38) 0.000686 497. 337.
1643(41) 0.000609 498. 321.
1140(34) 0.000877 497.7 306.9
1195(35) 0.000837 497.9 293.7
861(29) 0.001161 498.0 281.6
853(29) 0.001172 498.2 270.4
836(29) 0.001196 498.3 260.2
816(29) 0.001225 498.5 250.8
781(28) 0.001280 498.6 242.4
813(29) 0.001230 498.8 234.7
807(28) 0.001239 498.9 227.8
791(28) 0.001264 499.1 221.6
773(28) 0.001294 499.2 216.0
733(27) 0.001364 499.4 211.1
745(27) 0.001342 499.5 206.8
788(28) 0.001269 499.7 203.0
757(28) 0.001321 499.8 199.8
795(28) 0.001258 499.9 197.1
744(27) 0.001344 500.1 194.7
698(26) 0.001433 500.2 192.8
819(29) 0.001221 500.4 191.2
761(28) 0.001314 500.5 189.9
674(26) 0.001484 500.7 188.9
713(27) 0.001403 500.8 187.9
717(27) 0.001395 501.0 187.1
701(26) 0.001427 501.1 186.2
705(27) 0.001418 501.3 185.3
684(26) 0.001462 501.4 184.2
698(26) 0.001433 501.6 182.9
700(26) 0.001429 501.7 181.3
660(26) 0.001515 501.9 179.5
649(25) 0.001541 502.0 177.4
653(26) 0.001531 502.1 175.0
669(26) 0.001495 502.3 172.5
687(26) 0.001456 502.4 169.8
690(26) 0.001449 502.6 167.1
664(26) 0.001506 502.7 164.3
638(25) 0.001567 502.9 161.6
677(26) 0.001477 503.0 159.1
681(26) 0.001468 503.2 156.7
637(25) 0.001570 503.3 154.5
639(25) 0.001565 503.5 152.5
624(25) 0.001603 503.6 150.8
642(25) 0.001558 503.8 149.4
604(25) 0.001656 503.9 148.3
618(25) 0.001618 504.0 147.5
644(25) 0.001553 504.2 147.1
568(24) 0.001761 504.3 147.0
601(25) 0.001664 504.5 147.2
617(25) 0.001621 504.6 147.7
644(25) 0.001553 504.8 148.6
600(24) 0.001667 504.9 149.9
630(25) 0.001587 505.1 151.4
635(25) 0.001575 505.2 153.4
614(25) 0.001629 505.4 155.6
591(24) 0.001692 505.5 158.1
647(25) 0.001546 505.7 160.9
672(26) 0.001488 505.8 163.9
625(25) 0.001600 506.0 167.1
627(25) 0.001595 506.1 170.5
632(25) 0.001582 506.2 174.1
608(25) 0.001645 506.4 177.7
645(25) 0.001550 506.5 181.3
675(26) 0.001481 506.7 185.1
637(25) 0.001570 506.8 188.8
663(26) 0.001508 507.0 192.7
644(25) 0.001553 507.1 196.6
664(26) 0.001506 507.3 200.7
658(26) 0.001520 507.4 204.9
665(26) 0.001504 507.6 209.3
628(25) 0.001592 507.7 213.9
667(26) 0.001499 507.9 218.7
684(26) 0.001462 508.0 223.7
706(27) 0.001416 508.1 228.9
738(27) 0.001355 508.3 234.3
694(26) 0.001441 508.4 239.9
764(28) 0.001309 508.6 245.6
690(26) 0.001449 508.7 251.5
749(27) 0.001335 508.9 257.7
785(28) 0.001274 509.0 264.0
795(28) 0.001258 509.2 270.7
791(28) 0.001264 509.3 277.7
789(28) 0.001267 509.5 285.2
724(27) 0.001381 509.6 293.2
773(28) 0.001294 509.8 301.9
821(29) 0.001218 509.9 311.4
851(29) 0.001175 510.1 321.9
811(28) 0.001233 510.2 333.4
865(29) 0.001156 510.3 345.9
950(31) 0.001053 510.5 359.2
947(31) 0.001056 510.6 373.0
998(32) 0.001002 510.8 386.4
1047(32) 0.000955 510.9 398.3
1088(33) 0.000919 511.1 406.9
1008(32) 0.000992 511.2 410.9
1030(32) 0.000971 511.4 409.4
1031(32) 0.000970 511.5 402.6
985(31) 0.001015 511.7 391.8
939(31) 0.001065 511.8 378.6
877(30) 0.001140 512.0 364.5
895(30) 0.001117 512.1 350.5
881(30) 0.001135 512.2 337.3
830(29) 0.001205 512.4 325.1
800(28) 0.001250 512.5 314.1
781(28) 0.001280 512.7 304.3
781(28) 0.001280 512.8 295.6
808(28) 0.001238 513.0 287.9
805(28) 0.001242 513.1 281.0
807(28) 0.001239 513.3 275.0
781(28) 0.001280 513.4 269.7
783(28) 0.001277 513.6 265.0
759(28) 0.001318 513.7 260.8
739(27) 0.001353 513.9 257.2
743(27) 0.001346 514.0 253.9
777(28) 0.001287 514.2 251.0
765(28) 0.001307 514.3 248.5
756(27) 0.001323 514.4 246.2
769(28) 0.001300 514.6 244.3
759(28) 0.001318 514.7 242.8
740(27) 0.001351 514.9 241.7
781(28) 0.001280 515.0 241.0
782(28) 0.001279 515.2 240.9
710(27) 0.001408 515.3 241.3
721(27) 0.001387 515.5 242.3
733(27) 0.001364 515.6 244.0
710(27) 0.001408 515.8 246.4
738(27) 0.001355 515.9 249.5
761(28) 0.001314 516.1 253.5
783(28) 0.001277 516.2 258.5
739(27) 0.001353 516.3 264.5
804(28) 0.001244 516.5 271.8
761(28) 0.001314 516.6 280.4
800(28) 0.001250 516.8 290.4
803(28) 0.001245 516.9 302.1
840(29) 0.001190 517.1 315.5
830(29) 0.001205 517.2 330.6
848(29) 0.001179 517.4 347.6
929(30) 0.001076 517.5 366.1
927(30) 0.001079 517.7 386.0
946(31) 0.001057 517.8 406.5
1034(32) 0.000967 518.0 426.6
1078(33) 0.000928 518.1 445.0
1109(33) 0.000902 518.3 460.2
1118(33) 0.000894 518.4 471.0
1121(33) 0.000892 518.5 477.0
1139(34) 0.000878 518.7 478.4
1102(33) 0.000907 518.8 476.6
1051(32) 0.000951 519.0 472.9
1055(32) 0.000948 519.1 468.7
980(31) 0.001020 519.3 465.4
1079(33) 0.000927 519.4 463.4
1004(32) 0.000996 519.6 463.4
990(31) 0.001010 519.7 465.4
1041(32) 0.000961 519.9 469.5
974(31) 0.001027 520.0 475.5
1001(32) 0.000999 520.2 483.1
966(31) 0.001035 520.3 492.2
994(32) 0.001006 520.4 502.4
1047(32) 0.000955 520.6 513.3
1028(32) 0.000973 520.7 524.3
1041(32) 0.000961 520.9 535.0
1064(33) 0.000940 521.0 544.7
1084(33) 0.000923 521.2 552.9
1008(32) 0.000992 521.3 559.0
1078(33) 0.000928 521.5 562.7
1055(32) 0.000948 521.6 563.7
1046(32) 0.000956 521.8 561.9
1079(33) 0.000927 521.9 557.6
1043(32) 0.000959 522.1 550.8
996(32) 0.001004 522.2 541.8
1009(32) 0.000991 522.4 530.8
995(32) 0.001005 522.5 518.0
956(31) 0.001046 522.6 503.7
987(31) 0.001013 522.8 488.0
930(30) 0.001075 522.9 471.3
889(30) 0.001125 523.1 453.9
909(30) 0.001100 523.2 436.1
872(30) 0.001147 523.4 418.3
856(29) 0.001168 523.5 400.8
889(30) 0.001125 523.7 384.0
805(28) 0.001242 523.8 368.0
832(29) 0.001202 524.0 353.2
857(29) 0.001167 524.1 339.7
769(28) 0.001300 524.3 327.8
846(29) 0.001182 524.4 317.7
806(28) 0.001241 524.5 309.9
809(28) 0.001236 524.7 304.8
802(28) 0.001247 524.8 303.1
855(29) 0.001170 525.0 305.4
938(31) 0.001066 525.1 312.5
940(31) 0.001064 525.3 325.1
975(31) 0.001026 525.4 343.4
1018(32) 0.000982 525.6 365.6
1119(33) 0.000894 525.7 387.4
1122(33) 0.000891 525.9 400.6
1090(33) 0.000917 526.0 397.3
1057(33) 0.000946 526.2 377.1
987(31) 0.001013 526.3 347.3
1005(32) 0.000995 526.5 316.2
938(31) 0.001066 526.6 289.0
892(30) 0.001121 526.7 267.3
867(29) 0.001153 526.9 251.2
853(29) 0.001172 527.0 240.2
823(29) 0.001215 527.2 233.5
834(29) 0.001199 527.3 230.5
801(28) 0.001248 527.5 230.7
815(29) 0.001227 527.6 233.6
789(28) 0.001267 527.8 238.9
812(28) 0.001232 527.9 246.6
826(29) 0.001211 528.1 256.5
810(28) 0.001235 528.2 268.5
873(30) 0.001145 528.4 282.5
874(30) 0.001144 528.5 298.1
938(31) 0.001066 528.6 315.0
932(31) 0.001073 528.8 332.6
915(30) 0.001093 528.9 350.2
951(31) 0.001052 529.1 367.4
960(31) 0.001042 529.2 383.8
1033(32) 0.000968 529.4 399.3
983(31) 0.001017 529.5 414.1
1036(32) 0.000965 529.7 428.7
1051(32) 0.000951 529.8 443.5
1015(32) 0.000985 530.0 458.8
1057(33) 0.000946 530.1 474.6
1042(32) 0.000960 530.3 490.8
1057(33) 0.000946 530.4 506.4
1088(33) 0.000919 530.6 520.1
1111(33) 0.000900 530.7 530.1
1120(33) 0.000893 530.8 534.7
1112(33) 0.000899 531.0 532.5
1105(33) 0.000905 531.1 523.1
1144(34) 0.000874 531.3 507.0
1166(34) 0.000858 531.4 485.6
1074(33) 0.000931 531.6 460.8
1012(32) 0.000988 531.7 434.6
1005(32) 0.000995 531.9 408.6
956(31) 0.001046 532.0 384.2
942(31) 0.001062 532.2 362.3
884(30) 0.001131 532.3 343.4
827(29) 0.001209 532.5 327.8
837(29) 0.001195 532.6 315.6
797(28) 0.001255 532.7 306.7
803(28) 0.001245 532.9 301.0
843(29) 0.001186 533.0 298.2
821(29) 0.001218 533.2 298.3
780(28) 0.001282 533.3 301.0
794(28) 0.001259 533.5 306.1
804(28) 0.001244 533.6 313.5
820(29) 0.001220 533.8 322.9
835(29) 0.001198 533.9 334.1
834(29) 0.001199 534.1 346.9
877(30) 0.001140 534.2 361.0
839(29) 0.001192 534.4 376.1
957(31) 0.001045 534.5 391.8
907(30) 0.001103 534.7 407.6
939(31) 0.001065 534.8 423.1
932(31) 0.001073 534.9 437.6
1055(32) 0.000948 535.1 450.5
1008(32) 0.000992 535.2 461.2
1039(32) 0.000962 535.4 469.1
981(31) 0.001019 535.5 473.8
977(31) 0.001024 535.7 475.2
1000(32) 0.001000 535.8 473.3
1016(32) 0.000984 536.0 468.4
950(31) 0.001053 536.1 460.7
966(31) 0.001035 536.3 451.0
926(30) 0.001080 536.4 439.9
921(30) 0.001086 536.6 428.0
918(30) 0.001089 536.7 416.0
879(30) 0.001138 536.8 404.1
850(29) 0.001176 537.0 392.8
851(29) 0.001175 537.1 382.3
824(29) 0.001214 537.3 372.3
769(28) 0.001300 537.4 362.7
781(28) 0.001280 537.6 353.1
802(28) 0.001247 537.7 343.0
801(28) 0.001248 537.9 331.8
737(27) 0.001357 538.0 319.2
760(28) 0.001316 538.2 305.1
701(26) 0.001427 538.3 289.6
763(28) 0.001311 538.5 273.3
713(27) 0.001403 538.6 256.5
688(26) 0.001453 538.8 239.9
644(25) 0.001553 538.9 223.8
637(25) 0.001570 539.0 208.5
646(25) 0.001548 539.2 194.4
645(25) 0.001550 539.3 181.3
654(26) 0.001529 539.5 169.4
610(25) 0.001639 539.6 158.7
645(25) 0.001550 539.8 149.1
639(25) 0.001565 539.9 140.5
596(24) 0.001678 540.1 132.9
630(25) 0.001587 540.2 126.1
613(25) 0.001631 540.4 120.1
631(25) 0.001585 540.5 114.7
607(25) 0.001647 540.7 110.0
587(24) 0.001704 540.8 105.9
571(24) 0.001751 540.9 102.2
592(24) 0.001689 541.1 99.0
592(24) 0.001689 541.2 96.1
604(25) 0.001656 541.4 93.6
590(24) 0.001695 541.5 91.3
571(24) 0.001751 541.7 89.3
589(24) 0.001698 541.8 87.6
567(24) 0.001764 542.0 86.1
588(24) 0.001701 542.1 84.8
597(24) 0.001675 542.3 83.6
596(24) 0.001678 542.3 82.6
576(24) 0.001736 542.2 81.8
523(23) 0.001912 542.1 81.2
598(24) 0.001672 542.0 80.6
524(23) 0.001908 541.9 80.2
571(24) 0.001751 541.8 80.0
550(23) 0.001818 541.8 79.9
661(26) 0.001513 541.7 79.9
579(24) 0.001727 541.6 80.0
577(24) 0.001733 541.5 80.3
608(25) 0.001645 541.4 80.7
611(25) 0.001637 541.3 81.2
601(25) 0.001664 541.2 82.0
573(24) 0.001745 541.1 82.8
636(25) 0.001572 541.0 83.9
586(24) 0.001706 541.0 85.1
573(24) 0.001745 540.9 86.5
607(25) 0.001647 540.8 88.2
581(24) 0.001721 540.7 90.0
607(25) 0.001647 540.6 92.2
610(25) 0.001639 540.5 94.6
616(25) 0.001623 540.4 97.4
618(25) 0.001618 540.3 100.4
615(25) 0.001626 540.2 103.9
663(26) 0.001508 540.1 107.8
678(26) 0.001475 540.1 112.2
679(26) 0.001473 540.0 117.1
682(26) 0.001466 539.9 122.6
715(27) 0.001399 539.8 128.7
693(26) 0.001443 539.7 135.5
690(26) 0.001449 539.6 143.1
741(27) 0.001350 539.5 151.4
741(27) 0.001350 539.4 160.7
745(27) 0.001342 539.3 170.9
725(27) 0.001379 539.3 182.1
789(28) 0.001267 539.2 194.1
774(28) 0.001292 539.1 207.5
815(29) 0.001227 539.0 221.9
837(29) 0.001195 538.9 237.6
848(29) 0.001179 538.8 254.3
930(30) 0.001075 538.7 272.1
896(30) 0.001116 538.6 290.9
931(31) 0.001074 538.5 310.6
978(31) 0.001022 538.4 330.9
995(32) 0.001005 538.4 351.4
1003(32) 0.000997 538.3 371.9
1020(32) 0.000980 538.2 391.7
1092(33) 0.000916 538.1 410.2
1152(34) 0.000868 538.0 426.8
1099(33) 0.000910 537.9 440.7
1129(34) 0.000886 537.8 451.2
1205(35) 0.000830 537.7 457.9
1133(34) 0.000883 537.6 460.3
1131(34) 0.000884 537.6 458.3
1094(33) 0.000914 537.5 452.2
1083(33) 0.000923 537.4 442.3
1030(32) 0.000971 537.3 429.2
982(31) 0.001018 537.2 413.6
995(32) 0.001005 537.1 396.3
997(32) 0.001003 537.0 377.9
964(31) 0.001037 536.9 359.0
887(30) 0.001127 536.8 340.2
841(29) 0.001189 536.8 322.0
870(29) 0.001149 536.7 304.5
867(29) 0.001153 536.6 288.0
849(29) 0.001178 536.5 272.8
810(28) 0.001235 536.4 258.8
831(29) 0.001203 536.3 246.1
835(29) 0.001198 536.2 234.8
768(28) 0.001302 536.1 224.9
781(28) 0.001280 536.0 216.3
795(28) 0.001258 535.9 209.0
812(28) 0.001232 535.9 202.9
802(28) 0.001247 535.8 198.1
818(29) 0.001222 535.7 194.4
773(28) 0.001294 535.6 191.9
805(28) 0.001242 535.5 190.3
741(27) 0.001350 535.4 189.6
786(28) 0.001272 535.3 189.8
798(28) 0.001253 535.2 190.8
774(28) 0.001292 535.1 192.4
759(28) 0.001318 535.1 194.4
735(27) 0.001361 535.0 196.7
807(28) 0.001239 534.9 199.2
815(29) 0.001227 534.8 201.5
757(28) 0.001321 534.7 203.6
754(27) 0.001326 534.6 205.3
749(27) 0.001335 534.5 206.1
789(28) 0.001267 534.4 206.0
798(28) 0.001253 534.3 204.9
792(28) 0.001263 534.2 202.7
769(28) 0.001300 534.2 199.4
722(27) 0.001385 534.1 195.1
776(28) 0.001289 534.0 189.9
692(26) 0.001445 533.9 183.9
706(27) 0.001416 533.8 177.4
705(27) 0.001418 533.7 170.6
685(26) 0.001460 533.6 163.5
681(26) 0.001468 533.5 156.4
672(26) 0.001488 533.4 149.4
651(26) 0.001536 533.4 142.6
646(25) 0.001548 533.3 136.0
612(25) 0.001634 533.2 129.8
648(25) 0.001543 533.1 123.9
643(25) 0.001555 533.0 118.3
636(25) 0.001572 532.9 113.2
638(25) 0.001567 532.8 108.4
645(25) 0.001550 532.7 104.0
602(25) 0.001661 532.6 99.9
585(24) 0.001709 532.5 96.2
603(25) 0.001658 532.5 92.9
644(25) 0.001553 532.4 89.8
613(25) 0.001631 532.3 87.1
609(25) 0.001642 532.2 84.7
577(24) 0.001733 532.1 82.5
625(25) 0.001600 532.0 80.6
572(24) 0.001748 531.9 78.9
564(24) 0.001773 531.8 77.5
559(24) 0.001789 531.7 76.2
603(25) 0.001658 531.7 75.2
611(25) 0.001637 531.6 74.3
539(23) 0.001855 531.5 73.7
600(24) 0.001667 531.4 73.2
567(24) 0.001764 531.3 72.8
572(24) 0.001748 531.2 72.6
625(25) 0.001600 531.1 72.6
568(24) 0.001761 531.0 72.8
592(24) 0.001689 530.9 73.1
571(24) 0.001751 530.8 73.5
613(25) 0.001631 530.8 74.2
590(24) 0.001695 530.7 75.0
592(24) 0.001689 530.6 76.0
611(25) 0.001637 530.5 77.1
630(25) 0.001587 530.4 78.5
630(25) 0.001587 530.3 80.2
655(26) 0.001527 530.2 82.0
640(25) 0.001563 530.1 84.2
606(25) 0.001650 530.0 86.6
651(26) 0.001536 530.0 89.4
660(26) 0.001515 529.9 92.6
693(26) 0.001443 529.8 96.3
649(25) 0.001541 529.7 100.4
667(26) 0.001499 529.6 105.1
642(25) 0.001558 529.5 110.5
651(26) 0.001536 529.4 116.5
684(26) 0.001462 529.3 123.4
689(26) 0.001451 529.2 131.0
722(27) 0.001385 529.1 139.6
705(27) 0.001418 529.1 149.2
716(27) 0.001397 529.0 159.8
737(27) 0.001357 528.9 171.4
809(28) 0.001236 528.8 184.0
754(27) 0.001326 528.7 197.4
806(28) 0.001241 528.6 211.5
865(29) 0.001156 528.5 225.9
870(29) 0.001149 528.4 240.1
889(30) 0.001125 528.3 253.6
890(30) 0.001124 528.3 265.4
874(30) 0.001144 528.2 275.0
968(31) 0.001033 528.1 281.5
941(31) 0.001063 528.0 284.7
931(31) 0.001074 527.9 284.6
946(31) 0.001057 527.8 281.6
961(31) 0.001041 527.7 276.3
915(30) 0.001093 527.6 269.5
889(30) 0.001125 527.5 262.1
927(30) 0.001079 527.4 254.6
886(30) 0.001129 527.4 247.5
844(29) 0.001185 527.3 241.3
876(30) 0.001142 527.2 235.9
880(30) 0.001136 527.1 231.6
898(30) 0.001114 527.0 228.4
879(30) 0.001138 526.9 226.2
904(30) 0.001106 526.8 224.9
877(30) 0.001140 526.7 224.3
893(30) 0.001120 526.6 224.4
926(30) 0.001080 526.6 225.0
918(30) 0.001089 526.5 225.9
913(30) 0.001095 526.4 227.0
915(30) 0.001093 526.3 227.9
888(30) 0.001126 526.2 228.7
907(30) 0.001103 526.1 229.1
922(30) 0.001085 526.0 229.0
888(30) 0.001126 525.9 228.3
904(30) 0.001106 525.8 227.0
886(30) 0.001129 525.8 225.1
847(29) 0.001181 525.7 222.5
817(29) 0.001224 525.6 219.3
830(29) 0.001205 525.5 215.9
844(29) 0.001185 525.4 211.8
788(28) 0.001269 525.3 207.5
837(29) 0.001195 525.2 203.0
754(27) 0.001326 525.1 198.4
754(27) 0.001326 525.0 193.8
748(27) 0.001337 524.9 189.3
727(27) 0.001376 524.9 185.0
735(27) 0.001361 524.8 180.9
714(27) 0.001401 524.7 177.0
694(26) 0.001441 524.6 173.4
674(26) 0.001484 524.5 170.0
686(26) 0.001458 524.4 166.9
696(26) 0.001437 524.3 164.1
711(27) 0.001406 524.2 161.6
738(27) 0.001355 524.1 159.3
695(26) 0.001439 524.1 157.3
646(25) 0.001548 524.0 155.6
704(27) 0.001420 523.9 154.3
650(25) 0.001538 523.8 153.3
683(26) 0.001464 523.7 152.7
655(26) 0.001527 523.6 152.5
677(26) 0.001477 523.5 152.8
627(25) 0.001595 523.4 153.5
727(27) 0.001376 523.3 154.8
683(26) 0.001464 523.2 156.5
681(26) 0.001468 523.2 158.7
702(26) 0.001424 523.1 161.5
749(27) 0.001335 523.0 164.7
710(27) 0.001408 522.9 168.4
727(27) 0.001376 522.8 172.6
678(26) 0.001475 522.7 177.2
696(26) 0.001437 522.6 182.3
714(27) 0.001401 522.5 187.7
701(26) 0.001427 522.4 193.4
748(27) 0.001337 522.4 199.3
728(27) 0.001374 522.3 205.4
750(27) 0.001333 522.2 211.6
814(29) 0.001228 522.1 217.7
811(28) 0.001233 522.0 223.7
808(28) 0.001238 521.9 229.3
793(28) 0.001261 521.8 234.5
837(29) 0.001195 521.7 239.2
856(29) 0.001168 521.6 243.1
806(28) 0.001241 521.5 246.2
777(28) 0.001287 521.5 248.3
813(29) 0.001230 521.4 249.6
822(29) 0.001217 521.3 249.8
818(29) 0.001222 521.2 249.1
799(28) 0.001252 521.1 247.6
793(28) 0.001261 521.0 245.3
798(28) 0.001253 520.9 242.3
784(28) 0.001276 520.8 238.8
781(28) 0.001280 520.7 234.9
789(28) 0.001267 520.7 230.7
782(28) 0.001279 520.6 226.4
742(27) 0.001348 520.5 222.1
732(27) 0.001366 520.4 217.9
793(28) 0.001261 520.3 213.8
771(28) 0.001297 520.2 209.9
730(27) 0.001370 520.1 206.3
748(27) 0.001337 520.0 203.0
763(28) 0.001311 519.9 200.0
784(28) 0.001276 519.8 197.3
790(28) 0.001266 519.8 195.0
810(28) 0.001235 519.7 192.9
785(28) 0.001274 519.6 191.1
799(28) 0.001252 519.5 189.5
716(27) 0.001397 519.4 188.2
802(28) 0.001247 519.3 186.9
808(28) 0.001238 519.2 185.9
723(27) 0.001383 519.1 184.9
758(28) 0.001319 519.0 183.8
800(28) 0.001250 519.0 182.7
757(28) 0.001321 518.9 181.5
799(28) 0.001252 518.8 180.1
783(28) 0.001277 518.7 178.6
798(28) 0.001253 518.6 176.9
794(28) 0.001259 518.5 175.1
730(27) 0.001370 518.4 173.0
721(27) 0.001387 518.3 170.7
714(27) 0.001401 518.2 168.3
736(27) 0.001359 518.1 165.7
740(27) 0.001351 518.1 163.0
706(27) 0.001416 518.0 160.2
701(26) 0.001427 517.9 157.4
660(26) 0.001515 517.8 154.6
664(26) 0.001506 517.7 151.8
692(26) 0.001445 517.6 149.0
661(26) 0.001513 517.5 146.4
632(25) 0.001582 517.4 143.8
701(26) 0.001427 517.3 141.4
642(25) 0.001558 517.3 139.1
644(25) 0.001553 517.2 136.9
686(26) 0.001458 517.1 135.0
672(26) 0.001488 517.0 133.2
639(25) 0.001565 516.9 131.5
688(26) 0.001453 516.8 130.1
672(26) 0.001488 516.7 128.8
638(25) 0.001567 516.6 127.8
641(25) 0.001560 516.5 126.9
658(26) 0.001520 516.4 126.1
642(25) 0.001558 516.4 125.6
601(25) 0.001664 516.3 125.2
615(25) 0.001626 516.2 125.0
622(25) 0.001608 516.1 125.0
626(25) 0.001597 516.0 125.1
630(25) 0.001587 515.9 125.4
619(25) 0.001616 515.8 125.8
621(25) 0.001610 515.7 126.4
638(25) 0.001567 515.6 127.2
637(25) 0.001570 515.6 128.1
634(25) 0.001577 515.5 129.2
613(25) 0.001631 515.4 130.5
624(25) 0.001603 515.3 131.9
637(25) 0.001570 515.2 133.5
610(25) 0.001639 515.1 135.3
614(25) 0.001629 515.0 137.2
699(26) 0.001431 514.9 139.3
624(25) 0.001603 514.8 141.7
632(25) 0.001582 514.8 144.2
641(25) 0.001560 514.7 146.9
653(26) 0.001531 514.6 149.8
650(25) 0.001538 514.5 152.9
612(25) 0.001634 514.4 156.2
667(26) 0.001499 514.3 159.7
642(25) 0.001558 514.2 163.3
671(26) 0.001490 514.1 167.2
638(25) 0.001567 514.0 171.3
670(26) 0.001493 513.9 175.5
663(26) 0.001508 513.9 179.9
658(26) 0.001520 513.8 184.5
693(26) 0.001443 513.7 189.2
709(27) 0.001410 513.6 194.0
658(26) 0.001520 513.5 199.0
696(26) 0.001437 513.4 204.1
738(27) 0.001355 513.3 209.3
651(26) 0.001536 513.2 214.5
724(27) 0.001381 513.1 219.8
701(26) 0.001427 513.1 225.2
697(26) 0.001435 513.0 230.6
725(27) 0.001379 512.9 236.1
714(27) 0.001401 512.8 241.5
707(27) 0.001414 512.7 246.9
733(27) 0.001364 512.6 252.2
756(27) 0.001323 512.5 257.4
777(28) 0.001287 512.4 262.5
769(28) 0.001300 512.3 267.3
781(28) 0.001280 512.2 271.9
754(27) 0.001326 512.2 276.1
765(28) 0.001307 512.1 280.0
754(27) 0.001326 512.0 283.5
824(29) 0.001214 511.9 286.4
876(30) 0.001142 511.8 288.9
804(28) 0.001244 511.7 291.0
820(29) 0.001220 511.6 292.4
798(28) 0.001253 511.5 293.2
842(29) 0.001188 511.4 293.5
797(28) 0.001255 511.4 293.4
818(29) 0.001222 511.3 292.7
776(28) 0.001289 511.2 291.7
778(28) 0.001285 511.1 290.3
853(29) 0.001172 511.0 288.8
809(28) 0.001236 510.9 287.1
801(28) 0.001248 510.8 285.5
786(28) 0.001272 510.7 284.1
791(28) 0.001264 510.6 283.2
782(28) 0.001279 510.5 283.1
800(28) 0.001250 510.5 284.1
757(28) 0.001321 510.4 286.8
764(28) 0.001309 510.3 291.6
807(28) 0.001239 510.2 299.3
820(29) 0.001220 510.1 310.6
794(28) 0.001259 510.0 326.5
746(27) 0.001340 509.9 347.8
845(29) 0.001183 509.8 375.0
820(29) 0.001220 509.7 408.3
845(29) 0.001183 509.7 446.5
851(29) 0.001175 509.6 486.4
877(30) 0.001140 509.5 521.7
880(30) 0.001136 509.4 543.5
817(29) 0.001224 509.3 543.9
829(29) 0.001206 509.2 521.1
835(29) 0.001198 509.1 480.5
799(28) 0.001252 509.0 431.2
767(28) 0.001304 508.9 381.2
691(26) 0.001447 508.8 334.8
692(26) 0.001445 508.8 294.4
696(26) 0.001437 508.7 260.0
680(26) 0.001471 508.6 231.5
626(25) 0.001597 508.5 208.1
609(25) 0.001642 508.4 188.9
605(25) 0.001653 508.3 173.2
631(25) 0.001585 508.2 160.2
583(24) 0.001715 508.1 149.3
605(25) 0.001653 508.0 140.2
567(24) 0.001764 508.0 132.3
598(24) 0.001672 507.9 125.5
582(24) 0.001718 507.8 119.5
576(24) 0.001736 507.7 114.3
569(24) 0.001757 507.6 109.5
557(24) 0.001795 507.5 105.4
534(23) 0.001873 507.4 101.6
546(23) 0.001832 507.3 98.1
540(23) 0.001852 507.2 95.0
588(24) 0.001701 507.1 92.2
544(23) 0.001838 507.1 89.6
540(23) 0.001852 507.0 87.3
507(23) 0.001972 506.9 85.2
557(24) 0.001795 506.8 83.3
574(24) 0.001742 506.7 81.5
564(24) 0.001773 506.6 80.0
545(23) 0.001835 506.5 78.5
527(23) 0.001898 506.4 77.3
521(23) 0.001919 506.3 76.1
519(23) 0.001927 506.3 75.1
498(22) 0.002008 506.2 74.2
493(22) 0.002028 506.1 73.4
558(24) 0.001792 506.0 72.8
523(23) 0.001912 505.9 72.2
522(23) 0.001916 505.8 71.7
523(23) 0.001912 505.7 71.3
592(24) 0.001689 505.6 71.0
512(23) 0.001953 505.6 70.8
556(24) 0.001799 505.5 70.7
534(23) 0.001873 505.4 70.7
531(23) 0.001883 505.3 70.7
520(23) 0.001923 505.2 70.9
546(23) 0.001832 505.1 71.1
530(23) 0.001887 505.0 71.4
547(23) 0.001828 504.9 71.7
537(23) 0.001862 504.9 72.2
547(23) 0.001828 504.8 72.7
544(23) 0.001838 504.7 73.3
536(23) 0.001866 504.6 74.0
535(23) 0.001869 504.5 74.7
534(23) 0.001873 504.4 75.5
584(24) 0.001712 504.3 76.4
540(23) 0.001852 504.2 77.3
521(23) 0.001919 504.2 78.4
552(23) 0.001812 504.1 79.5
517(23) 0.001934 504.0 80.7
549(23) 0.001822 503.9 82.0
566(24) 0.001767 503.8 83.3
584(24) 0.001712 503.7 84.7
596(24) 0.001678 503.6 86.3
570(24) 0.001754 503.5 87.9
547(23) 0.001828 503.5 89.7
548(23) 0.001825 503.4 91.5
563(24) 0.001776 503.3 93.5
550(23) 0.001818 503.2 95.7
560(24) 0.001786 503.1 98.1
598(24) 0.001672 503.0 100.7
579(24) 0.001727 502.9 103.6
593(24) 0.001686 502.9 107.0
581(24) 0.001721 502.8 110.8
652(26) 0.001534 502.7 115.5
605(25) 0.001653 502.6 121.0
660(26) 0.001515 502.5 127.7
683(26) 0.001464 502.4 136.0
681(26) 0.001468 502.3 146.3
694(26) 0.001441 502.2 159.0
711(27) 0.001406 502.2 174.5
747(27) 0.001339 502.1 193.1
789(28) 0.001267 502.0 214.5
809(28) 0.001236 501.9 237.8
845(29) 0.001183 501.8 260.6
887(30) 0.001127 501.7 278.7
884(30) 0.001131 501.6 288.3
829(29) 0.001206 501.5 288.2
825(29) 0.001212 501.5 280.7
809(28) 0.001236 501.4 270.7
794(28) 0.001259 501.3 262.2
766(28) 0.001305 501.2 258.0
810(28) 0.001235 501.1 259.3
753(27) 0.001328 501.0 266.4
841(29) 0.001189 500.9 279.5
826(29) 0.001211 500.8 298.0
869(29) 0.001151 500.8 321.1
828(29) 0.001208 500.7 347.0
790(28) 0.001266 500.6 373.0
877(30) 0.001140 500.5 395.3
916(30) 0.001092 500.4 409.5
885(30) 0.001130 500.3 411.9
840(29) 0.001190 500.2 401.5
893(30) 0.001120 500.1 380.0
859(29) 0.001164 500.1 351.3
808(28) 0.001238 500.0 319.3
726(27) 0.001377 499.9 287.3
746(27) 0.001340 499.8 257.4
713(27) 0.001403 499.7 230.6
697(26) 0.001435 499.6 207.2
657(26) 0.001522 499.5 187.1
690(26) 0.001449 499.5 170.3
643(25) 0.001555 499.4 156.1
603(25) 0.001658 499.3 144.4
609(25) 0.001642 499.2 134.8
635(25) 0.001575 499.1 126.7
587(24) 0.001704 499.0 120.1
565(24) 0.001770 498.9 114.6
558(24) 0.001792 498.8 109.9
598(24) 0.001672 498.8 106.0
570(24) 0.001754 498.7 102.6
581(24) 0.001721 498.6 99.7
616(25) 0.001623 498.5 97.2
650(25) 0.001538 498.4 95.0
629(25) 0.001590 498.3 93.1
592(24) 0.001689 498.2 91.4
652(26) 0.001534 498.1 90.0
630(25) 0.001587 498.1 88.7
620(25) 0.001613 498.0 87.6
619(25) 0.001616 497.9 86.5
635(25) 0.001575 497.8 85.5
643(25) 0.001555 497.7 84.4
619(25) 0.001616 497.6 83.2
615(25) 0.001626 497.5 81.8
599(24) 0.001669 497.4 80.5
584(24) 0.001712 497.4 79.1
633(25) 0.001580 497.3 77.9
591(24) 0.001692 497.2 76.8
579(24) 0.001727 497.1 75.7
582(24) 0.001718 497.0 74.8
568(24) 0.001761 496.9 74.0
609(25) 0.001642 496.8 73.3
586(24) 0.001706 496.8 72.6
548(23) 0.001825 496.7 72.1
584(24) 0.001712 496.6 71.6
597(24) 0.001675 496.5 71.3
567(24) 0.001764 496.4 71.1
569(24) 0.001757 496.3 71.1
597(24) 0.001675 496.2 71.2
574(24) 0.001742 496.1 71.5
560(24) 0.001786 496.1 71.9
557(24) 0.001795 496.0 72.7
576(24) 0.001736 495.9 73.6
601(25) 0.001664 495.8 74.9
566(24) 0.001767 495.7 76.4
599(24) 0.001669 495.6 78.1
602(25) 0.001661 495.5 80.1
602(25) 0.001661 495.4 82.2
595(24) 0.001681 495.4 84.2
616(25) 0.001623 495.3 85.9
614(25) 0.001629 495.2 87.1
648(25) 0.001543 495.1 87.5
610(25) 0.001639 495.0 87.1
610(25) 0.001639 494.9 86.1
611(25) 0.001637 494.8 84.7
581(24) 0.001721 494.7 83.2
623(25) 0.001605 494.7 81.7
575(24) 0.001739 494.6 80.5
564(24) 0.001773 494.5 79.6
580(24) 0.001724 494.4 79.0
588(24) 0.001701 494.3 78.9
602(25) 0.001661 494.2 79.1
553(24) 0.001808 494.1 79.7
574(24) 0.001742 494.0 80.7
586(24) 0.001706 494.0 82.0
590(24) 0.001695 493.9 83.8
608(25) 0.001645 493.8 85.9
594(24) 0.001684 493.7 88.4
572(24) 0.001748 493.6 91.3
633(25) 0.001580 493.5 94.6
612(25) 0.001634 493.4 98.2
600(24) 0.001667 493.4 102.3
583(24) 0.001715 493.3 106.6
615(25) 0.001626 493.2 111.2
642(25) 0.001558 493.1 115.9
663(26) 0.001508 493.0 120.6
640(25) 0.001563 492.9 125.3
628(25) 0.001592 492.8 129.5
612(25) 0.001634 492.7 133.0
623(25) 0.001605 492.7 135.7
649(25) 0.001541 492.6 137.2
673(26) 0.001486 492.5 137.5
627(25) 0.001595 492.4 136.8
633(25) 0.001580 492.3 135.4
661(26) 0.001513 492.2 133.5
650(25) 0.001538 492.1 131.4
626(25) 0.001597 492.0 129.5
640(25) 0.001563 492.0 127.7
642(25) 0.001558 491.9 126.3
609(25) 0.001642 491.8 125.2
610(25) 0.001639 491.7 124.3
583(24) 0.001715 491.6 123.7
579(24) 0.001727 491.5 123.3
595(24) 0.001681 491.4 123.1
601(25) 0.001664 491.3 123.1
559(24) 0.001789 491.3 123.2
574(24) 0.001742 491.2 123.4
571(24) 0.001751 491.1 123.7
562(24) 0.001779 491.0 124.1
620(25) 0.001613 490.9 124.5
568(24) 0.001761 490.8 125.0
603(25) 0.001658 490.7 125.6
617(25) 0.001621 490.6 126.3
585(24) 0.001709 490.6 127.1
615(25) 0.001626 490.5 128.1
643(25) 0.001555 490.4 129.2
649(25) 0.001541 490.3 130.4
602(25) 0.001661 490.2 131.9
610(25) 0.001639 490.1 133.6
607(25) 0.001647 490.0 135.6
637(25) 0.001570 490.0 137.8
666(26) 0.001501 489.9 140.4
652(26) 0.001534 489.8 143.1
640(25) 0.001563 489.7 146.1
667(26) 0.001499 489.6 149.1
654(26) 0.001529 489.5 152.2
625(25) 0.001600 489.4 155.0
646(25) 0.001548 489.3 157.4
674(26) 0.001484 489.3 159.2
615(25) 0.001626 489.2 160.3
641(25) 0.001560 489.1 160.9
639(25) 0.001565 489.0 161.1
623(25) 0.001605 488.9 161.2
635(25) 0.001575 488.8 161.3
668(26) 0.001497 488.7 161.5
624(25) 0.001603 488.6 161.9
643(25) 0.001555 488.6 162.5
669(26) 0.001495 488.5 163.3
629(25) 0.001590 488.4 164.3
662(26) 0.001511 488.3 165.5
656(26) 0.001524 488.2 166.7
661(26) 0.001513 488.1 168.1
639(25) 0.001565 488.0 169.5
614(25) 0.001629 487.9 170.8
640(25) 0.001563 487.9 172.2
609(25) 0.001642 487.8 173.4
643(25) 0.001555 487.7 174.5
627(25) 0.001595 487.6 175.4
627(25) 0.001595 487.5 176.1
605(25) 0.001653 487.4 176.5
607(25) 0.001647 487.3 176.4
682(26) 0.001466 487.3 175.7
617(25) 0.001621 487.2 174.5
648(25) 0.001543 487.1 172.4
629(25) 0.001590 487.0 169.7
643(25) 0.001555 486.9 166.4
588(24) 0.001701 486.8 162.6
643(25) 0.001555 486.7 158.5
605(25) 0.001653 486.6 154.2
562(24) 0.001779 486.6 149.9
587(24) 0.001704 486.5 145.7
578(24) 0.001730 486.4 141.7
553(24) 0.001808 486.3 137.9
599(24) 0.001669 486.2 134.3
562(24) 0.001779 486.1 131.0
502(22) 0.001992 486.0 127.9
505(22) 0.001980 485.9 125.0
554(24) 0.001805 485.9 122.4
508(23) 0.001968 485.8 120.0
552(23) 0.001812 485.7 117.8
500(22) 0.002000 485.6 115.8
524(23) 0.001908 485.5 114.0
508(23) 0.001968 485.4 112.4
482(22) 0.002075 485.6 111.0
545(23) 0.001835 485.8 109.7
484(22) 0.002066 486.0 108.6
497(22) 0.002012 486.2 107.6
511(23) 0.001957 486.4 106.8
502(22) 0.001992 486.6 106.1
530(23) 0.001887 486.8 105.6
517(23) 0.001934 487.0 105.2
525(23) 0.001905 487.2 105.0
486(22) 0.002058 487.4 104.9
509(23) 0.001965 487.6 105.1
523(23) 0.001912 487.8 105.4
551(23) 0.001815 488.0 105.9
537(23) 0.001862 488.2 106.6
514(23) 0.001946 488.4 107.6
505(22) 0.001980 488.5 109.0
515(23) 0.001942 488.7 110.8
564(24) 0.001773 488.9 113.2
526(23) 0.001901 489.1 116.3
539(23) 0.001855 489.3 120.1
522(23) 0.001916 489.5 125.0
566(24) 0.001767 489.7 131.0
552(23) 0.001812 489.9 138.2
553(24) 0.001808 490.1 146.8
590(24) 0.001695 490.3 156.5
575(24) 0.001739 490.5 167.1
614(25) 0.001629 490.7 177.6
612(25) 0.001634 490.9 186.7
681(26) 0.001468 491.1 192.7
636(25) 0.001572 491.3 194.2
597(24) 0.001675 491.5 190.8
566(24) 0.001767 491.7 183.5
568(24) 0.001761 491.9 174.0
538(23) 0.001859 492.1 163.9
564(24) 0.001773 492.3 154.3
554(24) 0.001805 492.5 145.8
550(23) 0.001818 492.7 138.7
564(24) 0.001773 492.9 133.1
549(23) 0.001822 493.0 128.8
577(24) 0.001733 493.2 125.7
565(24) 0.001770 493.4 123.6
513(23) 0.001949 493.6 122.5
533(23) 0.001876 493.8 122.2
522(23) 0.001916 494.0 122.7
533(23) 0.001876 494.2 123.8
557(24) 0.001795 494.4 125.5
556(24) 0.001799 494.6 127.8
540(23) 0.001852 494.8 130.7
534(23) 0.001873 495.0 134.2
564(24) 0.001773 495.2 138.4
553(24) 0.001808 495.4 143.5
576(24) 0.001736 495.6 149.5
601(25) 0.001664 495.8 156.5
608(25) 0.001645 496.0 164.5
638(25) 0.001567 496.2 173.6
624(25) 0.001603 496.4 183.3
616(25) 0.001623 496.6 193.1
627(25) 0.001595 496.8 201.9
640(25) 0.001563 497.0 208.4
670(26) 0.001493 497.2 212.3
682(26) 0.001466 497.4 214.4
675(26) 0.001481 497.5 215.7
609(25) 0.001642 497.7 217.4
635(25) 0.001575 497.9 220.1
608(25) 0.001645 498.1 224.1
650(25) 0.001538 498.3 229.3
676(26) 0.001479 498.5 235.8
673(26) 0.001486 498.7 243.6
652(26) 0.001534 498.9 252.6
694(26) 0.001441 499.1 263.0
730(27) 0.001370 499.3 274.7
710(27) 0.001408 499.5 288.1
754(27) 0.001326 499.7 303.2
762(28) 0.001312 499.9 320.5
785(28) 0.001274 500.1 340.4
799(28) 0.001252 500.3 363.1
804(28) 0.001244 500.5 389.2
841(29) 0.001189 500.7 419.1
897(30) 0.001115 500.9 453.0
934(31) 0.001071 501.1 490.6
980(31) 0.001020 501.3 530.8
966(31) 0.001035 501.5 571.3
945(31) 0.001058 501.7 607.9
1019(32) 0.000981 501.8 636.0
1055(32) 0.000948 502.0 651.9
1032(32) 0.000969 502.2 654.9
1029(32) 0.000972 502.4 647.4
1014(32) 0.000986 502.6 632.9
971(31) 0.001030 502.8 614.6
993(32) 0.001007 503.0 595.1
983(31) 0.001017 503.2 576.4
984(31) 0.001016 503.4 559.8
1020(32) 0.000980 503.6 546.1
998(32) 0.001002 503.8 535.6
996(32) 0.001004 504.0 528.3
954(31) 0.001048 504.2 524.1
1014(32) 0.000986 504.4 522.9
958(31) 0.001044 504.6 524.7
1004(32) 0.000996 504.8 529.4
1002(32) 0.000998 505.0 537.2
935(31) 0.001070 505.2 548.2
962(31) 0.001040 505.4 562.7
1007(32) 0.000993 505.6 580.6
1030(32) 0.000971 505.8 602.0
1036(32) 0.000965 506.0 626.6
1062(33) 0.000942 506.2 653.8
1009(32) 0.000991 506.3 682.8
1060(33) 0.000943 506.5 712.1
1099(33) 0.000910 506.7 739.8
1112(33) 0.000899 506.9 763.4
1105(33) 0.000905 507.1 780.4
1077(33) 0.000929 507.3 788.3
1011(32) 0.000989 507.5 785.4
1062(33) 0.000942 507.7 771.1
1045(32) 0.000957 507.9 746.4
1015(32) 0.000985 508.1 713.5
974(31) 0.001027 508.3 675.5
968(31) 0.001033 508.5 635.2
887(30) 0.001127 508.7 595.4
946(31) 0.001057 508.9 558.0
856(29) 0.001168 509.1 524.1
887(30) 0.001127 509.3 494.4
830(29) 0.001205 509.5 469.4
875(30) 0.001143 509.7 448.8
782(28) 0.001279 509.9 432.5
797(28) 0.001255 510.1 419.9
801(28) 0.001248 510.3 410.3
876(30) 0.001142 510.5 402.9
800(28) 0.001250 510.6 396.5
841(29) 0.001189 510.8 389.8
876(30) 0.001142 511.0 381.9
798(28) 0.001253 511.2 371.9
806(28) 0.001241 511.4 359.5
784(28) 0.001276 511.6 345.2
774(28) 0.001292 511.8 329.6
808(28) 0.001238 512.0 313.5
798(28) 0.001253 512.2 297.6
727(27) 0.001376 512.4 282.4
710(27) 0.001408 512.6 268.4
716(27) 0.001397 512.8 255.8
688(26) 0.001453 513.0 244.9
675(26) 0.001481 513.2 235.8
654(26) 0.001529 513.4 228.6
706(27) 0.001416 513.6 223.3
703(27) 0.001422 513.8 220.1
699(26) 0.001431 514.0 219.1
691(26) 0.001447 514.2 220.4
721(27) 0.001387 514.4 224.0
721(27) 0.001387 514.6 230.0
744(27) 0.001344 514.8 238.3
742(27) 0.001348 515.0 248.8
790(28) 0.001266 515.1 261.0
807(28) 0.001239 515.3 274.0
843(29) 0.001186 515.5 286.7
874(30) 0.001144 515.7 297.1
862(29) 0.001160 515.9 303.6
805(28) 0.001242 516.1 305.0
906(30) 0.001104 516.3 301.1
817(29) 0.001224 516.5 293.2
806(28) 0.001241 516.7 282.9
747(27) 0.001339 516.9 271.9
752(27) 0.001330 517.1 261.6
747(27) 0.001339 517.3 252.7
740(27) 0.001351 517.5 245.7
723(27) 0.001383 517.7 240.6
715(27) 0.001399 517.9 237.2
738(27) 0.001355 518.1 235.2
742(27) 0.001348 518.3 234.3
768(28) 0.001302 518.5 234.1
758(28) 0.001319 518.7 234.3
722(27) 0.001385 518.9 234.6
764(28) 0.001309 519.1 234.9
767(28) 0.001304 519.3 235.2
787(28) 0.001271 519.5 235.6
737(27) 0.001357 519.6 236.2
735(27) 0.001361 519.8 237.3
743(27) 0.001346 520.0 238.9
805(28) 0.001242 520.2 241.0
737(27) 0.001357 520.4 243.5
791(28) 0.001264 520.6 246.3
767(28) 0.001304 520.8 249.1
746(27) 0.001340 521.0 251.7
791(28) 0.001264 521.2 253.7
753(27) 0.001328 521.4 254.7
775(28) 0.001290 521.6 254.6
737(27) 0.001357 521.8 253.2
763(28) 0.001311 522.0 250.5
750(27) 0.001333 522.2 246.7
755(27) 0.001324 522.4 242.1
702(26) 0.001424 522.6 237.1
723(27) 0.001383 522.8 231.9
664(26) 0.001506 523.0 227.1
650(25) 0.001538 523.2 222.9
708(27) 0.001412 523.4 219.7
688(26) 0.001453 523.6 217.6
691(26) 0.001447 523.8 216.8
679(26) 0.001473 523.9 217.4
705(27) 0.001418 524.1 219.5
677(26) 0.001477 524.3 223.0
746(27) 0.001340 524.5 227.7
716(27) 0.001397 524.7 233.5
767(28) 0.001304 524.9 239.7
754(27) 0.001326 525.1 245.8
797(28) 0.001255 525.3 251.1
774(28) 0.001292 525.5 254.6
828(29) 0.001208 525.7 255.5
828(29) 0.001208 525.9 253.4
804(28) 0.001244 526.1 248.1
772(28) 0.001295 526.3 240.0
770(28) 0.001299 526.5 229.7
729(27) 0.001372 526.7 217.9
767(28) 0.001304 526.9 205.5
716(27) 0.001397 527.1 193.2
656(26) 0.001524 527.3 181.4
684(26) 0.001462 527.5 170.4
665(26) 0.001504 527.7 160.5
628(25) 0.001592 527.9 151.7
651(26) 0.001536 528.1 144.0
616(25) 0.001623 528.3 137.6
586(24) 0.001706 528.4 132.3
621(25) 0.001610 528.6 128.1
594(24) 0.001684 528.8 124.9
589(24) 0.001698 529.0 122.9
609(25) 0.001642 529.2 121.9
626(25) 0.001597 529.4 122.0
590(24) 0.001695 529.6 123.2
598(24) 0.001672 529.8 125.6
597(24) 0.001675 530.0 129.3
612(25) 0.001634 530.2 134.3
603(25) 0.001658 530.4 140.8
723(27) 0.001383 530.6 148.8
595(24) 0.001681 530.8 158.6
616(25) 0.001623 531.0 170.2
684(26) 0.001462 531.2 183.7
683(26) 0.001464 531.4 199.0
688(26) 0.001453 531.6 216.0
668(26) 0.001497 531.8 234.4
696(26) 0.001437 532.0 253.5
762(28) 0.001312 532.2 272.2
789(28) 0.001267 532.4 288.9
783(28) 0.001277 532.6 302.0
763(28) 0.001311 532.7 309.8
786(28) 0.001272 532.9 311.4
827(29) 0.001209 533.1 306.6
827(29) 0.001209 533.3 296.5
812(28) 0.001232 533.5 282.6
769(28) 0.001300 533.7 266.9
704(27) 0.001420 533.9 250.9
736(27) 0.001359 534.1 235.7
670(26) 0.001493 534.3 222.2
685(26) 0.001460 534.5 210.9
664(26) 0.001506 534.7 201.9
688(26) 0.001453 534.9 195.2
681(26) 0.001468 535.1 190.9
651(26) 0.001536 535.3 188.7
668(26) 0.001497 535.5 188.4
616(25) 0.001623 535.7 189.6
652(26) 0.001534 535.9 191.8
610(25) 0.001639 536.1 194.6
602(25) 0.001661 536.3 197.3
651(26) 0.001536 536.5 199.4
669(26) 0.001495 536.7 200.7
618(25) 0.001618 536.9 201.3
629(25) 0.001590 537.1 201.3
647(25) 0.001546 537.2 201.1
613(25) 0.001631 537.4 201.2
644(25) 0.001553 537.6 201.7
620(25) 0.001613 537.8 202.6
644(25) 0.001553 538.0 203.8
631(25) 0.001585 538.2 204.8
621(25) 0.001610 538.4 205.0
657(26) 0.001522 538.6 203.9
652(26) 0.001534 538.8 201.2
646(25) 0.001548 539.0 196.8
599(24) 0.001669 539.2 190.8
617(25) 0.001621 539.4 183.6
576(24) 0.001736 539.6 175.5
594(24) 0.001684 539.8 167.0
604(25) 0.001656 540.0 158.4
573(24) 0.001745 540.2 150.1
574(24) 0.001742 540.4 142.3
619(25) 0.001616 540.6 135.0
535(23) 0.001869 540.8 128.5
566(24) 0.001767 541.0 122.8
566(24) 0.001767 541.2 117.8
555(24) 0.001802 541.4 113.7
539(23) 0.001855 541.6 110.3
596(24) 0.001678 541.7 107.6
537(23) 0.001862 541.9 105.7
528(23) 0.001894 542.1 104.4
574(24) 0.001742 542.3 103.7
581(24) 0.001721 542.5 103.6
576(24) 0.001736 542.7 104.1
574(24) 0.001742 542.9 105.2
544(23) 0.001838 543.1 106.7
564(24) 0.001773 543.3 108.7
571(24) 0.001751 543.5 111.2
549(23) 0.001822 543.7 114.1
579(24) 0.001727 543.9 117.3
602(25) 0.001661 544.1 120.8
576(24) 0.001736 544.3 124.5
621(25) 0.001610 544.5 128.2
641(25) 0.001560 544.7 131.9
594(24) 0.001684 544.9 135.4
584(24) 0.001712 545.1 138.5
569(24) 0.001757 545.3 141.1
558(24) 0.001792 545.5 143.2
619(25) 0.001616 545.7 144.7
597(24) 0.001675 545.9 145.7
579(24) 0.001727 546.0 146.3
580(24) 0.001724 546.2 146.7
591(24) 0.001692 546.4 147.1
614(25) 0.001629 546.6 147.8
607(25) 0.001647 546.8 148.8
585(24) 0.001709 547.0 150.5
578(24) 0.001730 547.2 153.0
653(26) 0.001531 547.4 156.4
605(25) 0.001653 547.6 160.8
635(25) 0.001575 547.8 166.4
609(25) 0.001642 548.0 173.0
632(25) 0.001582 548.2 180.9
627(25) 0.001595 548.4 189.8
650(25) 0.001538 548.6 199.7
638(25) 0.001567 548.8 210.2
650(25) 0.001538 549.0 220.9
690(26) 0.001449 549.2 231.4
682(26) 0.001466 549.4 240.9
717(27) 0.001395 549.6 248.8
762(28) 0.001312 549.8 254.9
727(27) 0.001376 550.0 259.1
711(27) 0.001406 550.2 261.6
756(27) 0.001323 550.4 263.1
733(27) 0.001364 550.5 264.1
728(27) 0.001374 550.7 265.2
715(27) 0.001399 550.9 267.0
716(27) 0.001397 551.1 269.6
682(26) 0.001466 551.3 273.2
755(27) 0.001324 551.5 277.9
753(27) 0.001328 551.7 283.6
751(27) 0.001332 551.9 290.1
786(28) 0.001272 552.1 297.4
800(28) 0.001250 552.3 305.1
768(28) 0.001302 552.5 313.1
800(28) 0.001250 552.7 321.0
869(29) 0.001151 552.9 328.4
827(29) 0.001209 553.1 335.2
820(29) 0.001220 553.3 341.0
872(30) 0.001147 553.5 345.5
852(29) 0.001174 553.7 348.7
845(29) 0.001183 553.9 350.3
816(29) 0.001225 554.1 350.4
863(29) 0.001159 554.3 348.9
802(28) 0.001247 554.5 346.2
867(29) 0.001153 554.7 342.3
812(28) 0.001232 554.8 337.5
810(28) 0.001235 555.0 331.9
810(28) 0.001235 555.2 325.8
843(29) 0.001186 555.4 319.4
844(29) 0.001185 555.6 312.8
834(29) 0.001199 555.8 306.1
806(28) 0.001241 556.0 299.4
818(29) 0.001222 556.2 292.7
787(28) 0.001271 556.4 286.1
775(28) 0.001290 556.6 279.4
778(28) 0.001285 556.8 272.8
816(29) 0.001225 557.0 266.1
739(27) 0.001353 557.2 259.4
785(28) 0.001274 557.4 252.6
795(28) 0.001258 557.6 245.6
726(27) 0.001377 557.8 238.6
713(27) 0.001403 558.0 231.4
720(27) 0.001389 558.2 224.2
709(27) 0.001410 558.4 217.0
703(27) 0.001422 558.6 209.9
688(26) 0.001453 558.8 202.8
702(26) 0.001424 559.0 195.9
687(26) 0.001456 559.2 189.1
668(26) 0.001497 559.3 182.6
637(25) 0.001570 559.5 176.3
661(26) 0.001513 559.7 170.3
671(26) 0.001490 559.9 164.6
684(26) 0.001462 560.1 159.2
685(26) 0.001460 560.3 154.2
653(26) 0.001531 560.5 149.4
630(25) 0.001587 560.7 144.9
647(25) 0.001546 560.9 140.7
654(26) 0.001529 561.1 136.7
639(25) 0.001565 561.3 133.0
658(26) 0.001520 561.5 129.5
595(24) 0.001681 561.7 126.1
631(25) 0.001585 561.9 123.0
608(25) 0.001645 562.1 120.0
618(25) 0.001618 562.3 117.2
612(25) 0.001634 562.5 114.5
606(25) 0.001650 562.7 112.0
635(25) 0.001575 562.9 109.6
586(24) 0.001706 563.1 107.4
599(24) 0.001669 563.3 105.3
625(25) 0.001600 563.5 103.5
577(24) 0.001733 563.7 101.9
640(25) 0.001563 563.8 100.5
554(24) 0.001805 564.0 99.4
613(25) 0.001631 564.2 98.7
614(25) 0.001629 564.4 98.3
619(25) 0.001616 564.6 98.4
613(25) 0.001631 564.8 99.0
624(25) 0.001603 565.0 100.1
595(24) 0.001681 565.2 102.0
676(26) 0.001479 565.4 104.6
649(25) 0.001541 565.6 108.1
633(25) 0.001580 565.8 112.5
626(25) 0.001597 566.0 117.9
665(26) 0.001504 566.2 124.4
658(26) 0.001520 566.4 131.8
660(26) 0.001515 566.6 140.0
719(27) 0.001391 566.8 148.4
742(27) 0.001348 567.0 156.6
678(26) 0.001475 567.2 163.8
734(27) 0.001362 567.4 169.6
780(28) 0.001282 567.6 174.0
746(27) 0.001340 567.8 177.3
804(28) 0.001244 568.0 179.8
815(29) 0.001227 568.1 181.5
794(28) 0.001259 568.3 182.0
760(28) 0.001316 568.5 180.2
776(28) 0.001289 568.7 175.4
729(27) 0.001372 568.9 167.5
732(27) 0.001366 569.1 157.4
762(28) 0.001312 569.3 146.4
699(26) 0.001431 569.5 135.5
632(25) 0.001582 569.7 125.5
684(26) 0.001462 569.9 116.7
630(25) 0.001587 570.1 109.3
621(25) 0.001610 570.3 103.2
668(26) 0.001497 570.5 98.3
651(26) 0.001536 570.7 94.4
649(25) 0.001541 570.9 91.3
592(24) 0.001689 571.1 89.0
623(25) 0.001605 571.3 87.3
593(24) 0.001686 571.5 86.1
605(25) 0.001653 571.7 85.2
620(25) 0.001613 571.9 84.7
576(24) 0.001736 572.1 84.4
625(25) 0.001600 572.3 84.2
607(25) 0.001647 572.5 84.3
617(25) 0.001621 572.6 84.5
621(25) 0.001610 572.8 84.8
608(25) 0.001645 573.0 85.1
602(25) 0.001661 573.2 85.6
596(24) 0.001678 573.4 86.2
592(24) 0.001689 573.4 86.8
623(25) 0.001605 573.4 87.5
587(24) 0.001704 573.4 88.3
627(25) 0.001595 573.4 89.2
603(25) 0.001658 573.4 90.1
597(24) 0.001675 573.4 91.2
575(24) 0.001739 573.4 92.4
579(24) 0.001727 573.4 93.6
604(25) 0.001656 573.4 95.0
641(25) 0.001560 573.4 96.6
621(25) 0.001610 573.4 98.3
654(26) 0.001529 573.4 100.1
633(25) 0.001580 573.4 102.1
611(25) 0.001637 573.4 104.4
614(25) 0.001629 573.4 106.8
640(25) 0.001563 573.4 109.5
695(26) 0.001439 573.4 112.4
621(25) 0.001610 573.4 115.6
683(26) 0.001464 573.4 119.2
699(26) 0.001431 573.4 123.1
705(27) 0.001418 573.4 127.5
700(26) 0.001429 573.4 132.3
714(27) 0.001401 573.4 137.7
663(26) 0.001508 573.5 143.8
735(27) 0.001361 573.5 150.5
765(28) 0.001307 573.5 158.2
760(28) 0.001316 573.5 166.7
774(28) 0.001292 573.5 176.2
843(29) 0.001186 573.5 186.8
859(29) 0.001164 573.5 198.5
926(30) 0.001080 573.5 211.1
901(30) 0.001110 573.5 224.5
933(31) 0.001072 573.5 238.3
916(30) 0.001092 573.5 251.7
930(30) 0.001075 573.5 263.8
906(30) 0.001104 573.5 273.5
923(30) 0.001083 573.5 280.0
971(31) 0.001030 573.5 282.6
870(29) 0.001149 573.5 281.8
935(31) 0.001070 573.5 278.2
850(29) 0.001176 573.5 273.1
823(29) 0.001215 573.5 267.2
854(29) 0.001171 573.5 261.3
844(29) 0.001185 573.5 256.0
860(29) 0.001163 573.5 251.3
833(29) 0.001200 573.5 247.4
855(29) 0.001170 573.5 244.3
830(29) 0.001205 573.5 241.9
818(29) 0.001222 573.5 240.1
792(28) 0.001263 573.5 238.8
859(29) 0.001164 573.5 238.0
808(28) 0.001238 573.5 237.6
815(29) 0.001227 573.5 237.5
858(29) 0.001166 573.5 237.7
797(28) 0.001255 573.5 238.2
849(29) 0.001178 573.5 239.1
860(29) 0.001163 573.5 240.5
841(29) 0.001189 573.6 242.5
878(30) 0.001139 573.6 245.2
805(28) 0.001242 573.6 248.7
876(30) 0.001142 573.6 253.4
896(30) 0.001116 573.6 259.3
862(29) 0.001160 573.6 266.7
890(30) 0.001124 573.6 275.7
892(30) 0.001121 573.6 286.4
946(31) 0.001057 573.6 298.5
926(30) 0.001080 573.6 312.2
916(30) 0.001092 573.6 326.4
864(29) 0.001157 573.6 339.9
892(30) 0.001121 573.6 351.0
941(31) 0.001063 573.6 357.7
915(30) 0.001093 573.6 358.3
898(30) 0.001114 573.6 352.7
833(29) 0.001200 573.6 341.5
867(29) 0.001153 573.6 326.8
844(29) 0.001185 573.6 310.6
841(29) 0.001189 573.6 294.6
815(29) 0.001227 573.6 279.9
842(29) 0.001188 573.6 267.2
855(29) 0.001170 573.6 256.7
824(29) 0.001214 573.6 248.6
861(29) 0.001161 573.6 242.9
870(29) 0.001149 573.6 239.3
844(29) 0.001185 573.6 237.8
873(30) 0.001145 573.6 238.1
843(29) 0.001186 573.6 239.9
873(30) 0.001145 573.6 243.0
883(30) 0.001133 573.6 247.1
918(30) 0.001089 573.6 251.7
896(30) 0.001116 573.6 256.3
949(31) 0.001054 573.6 260.5
923(30) 0.001083 573.7 264.0
936(31) 0.001068 573.7 266.7
974(31) 0.001027 573.7 268.6
962(31) 0.001040 573.7 270.1
952(31) 0.001050 573.7 271.5
918(30) 0.001089 573.7 273.4
918(30) 0.001089 573.7 276.3
876(30) 0.001142 573.7 280.5
903(30) 0.001107 573.7 286.3
930(30) 0.001075 573.7 293.9
875(30) 0.001143 573.7 303.5
913(30) 0.001095 573.7 315.0
968(31) 0.001033 573.7 328.4
964(31) 0.001037 573.7 343.3
965(31) 0.001036 573.7 359.6
1001(32) 0.000999 573.7 376.7
1026(32) 0.000975 573.7 393.8
1018(32) 0.000982 573.7 410.1
1083(33) 0.000923 573.7 424.6
1063(33) 0.000941 573.7 436.1
1120(33) 0.000893 573.7 443.6
1027(32) 0.000974 573.7 446.5
985(31) 0.001015 573.7 444.4
975(31) 0.001026 573.7 437.4
1081(33) 0.000925 573.7 426.3
993(32) 0.001007 573.7 411.9
960(31) 0.001042 573.7 395.2
970(31) 0.001031 573.7 377.4
943(31) 0.001060 573.7 359.2
902(30) 0.001109 573.7 341.4
886(30) 0.001129 573.7 324.5
869(29) 0.001151 573.7 308.9
826(29) 0.001211 573.7 294.8
859(29) 0.001164 573.7 282.2
798(28) 0.001253 573.8 271.3
799(28) 0.001252 573.8 262.0
797(28) 0.001255 573.8 254.3
778(28) 0.001285 573.8 248.1
771(28) 0.001297 573.8 243.4
744(27) 0.001344 573.8 240.1
810(28) 0.001235 573.8 238.1
790(28) 0.001266 573.8 237.3
784(28) 0.001276 573.8 237.7
791(28) 0.001264 573.8 239.2
770(28) 0.001299 573.8 241.7
803(28) 0.001245 573.8 245.2
868(29) 0.001152 573.8 249.6
839(29) 0.001192 573.8 255.0
831(29) 0.001203 573.8 261.3
857(29) 0.001167 573.8 268.5
851(29) 0.001175 573.8 276.6
805(28) 0.001242 573.8 285.6
889(30) 0.001125 573.8 295.4
904(30) 0.001106 573.8 306.0
892(30) 0.001121 573.8 317.3
871(30) 0.001148 573.8 329.3
935(31) 0.001070 573.8 341.8
909(30) 0.001100 573.8 354.6
962(31) 0.001040 573.8 367.7
994(32) 0.001006 573.8 380.6
991(31) 0.001009 573.8 393.3
974(31) 0.001027 573.8 405.5
1025(32) 0.000976 573.8 416.8
959(31) 0.001043 573.8 427.0
993(32) 0.001007 573.8 435.9
1014(32) 0.000986 573.8 443.4
1035(32) 0.000966 573.8 449.6
1015(32) 0.000985 573.8 454.4
1065(33) 0.000939 573.9 458.1
1026(32) 0.000975 573.9 461.1
1071(33) 0.000934 573.9 463.5
1035(32) 0.000966 573.9 465.9
1048(32) 0.000954 573.9 468.5
1041(32) 0.000961 573.9 471.5
1013(32) 0.000987 573.9 475.3
1046(32) 0.000956 573.9 479.8
1058(33) 0.000945 573.9 485.2
1119(33) 0.000894 573.9 491.0
1108(33) 0.000903 573.9 497.2
1133(34) 0.000883 573.9 503.1
1149(34) 0.000870 573.9 508.1
1188(34) 0.000842 573.9 511.6
1123(34) 0.000890 573.9 512.8
1115(33) 0.000897 573.9 511.1
1167(34) 0.000857 573.9 506.3
1071(33) 0.000934 573.9 498.2
1062(33) 0.000942 573.9 487.2
1039(32) 0.000962 573.9 473.7
997(32) 0.001003 573.9 458.4
1023(32) 0.000978 573.9 442.0
1005(32) 0.000995 573.9 425.1
961(31) 0.001041 573.9 408.1
906(30) 0.001104 573.9 391.4
922(30) 0.001085 573.9 375.3
962(31) 0.001040 573.9 360.0
913(30) 0.001095 573.9 345.6
849(29) 0.001178 573.9 332.1
879(30) 0.001138 573.9 319.7
842(29) 0.001188 573.9 308.2
837(29) 0.001195 573.9 297.8
831(29) 0.001203 573.9 288.2
826(29) 0.001211 573.9 279.6
861(29) 0.001161 574.0 271.9
849(29) 0.001178 574.0 265.0
839(29) 0.001192 574.0 258.8
857(29) 0.001167 574.0 253.3
791(28) 0.001264 574.0 248.5
823(29) 0.001215 574.0 244.2
822(29) 0.001217 574.0 240.4
837(29) 0.001195 574.0 237.2
878(30) 0.001139 574.0 234.3
843(29) 0.001186 574.0 231.8
843(29) 0.001186 574.0 229.5
863(29) 0.001159 574.0 227.6
805(28) 0.001242 574.0 225.8
800(28) 0.001250 574.0 224.2
816(29) 0.001225 574.0 222.7
850(29) 0.001176 574.0 221.4
868(29) 0.001152 574.0 220.1
848(29) 0.001179 574.0 218.8
843(29) 0.001186 574.0 217.6
858(29) 0.001166 574.0 216.3
826(29) 0.001211 574.0 215.1
833(29) 0.001200 574.0 213.9
823(29) 0.001215 574.0 212.7
801(28) 0.001248 574.0 211.6
836(29) 0.001196 574.0 210.5
819(29) 0.001221 574.0 209.5
806(28) 0.001241 574.0 208.7
786(28) 0.001272 574.0 208.1
812(28) 0.001232 574.0 207.6
793(28) 0.001261 574.0 207.5
865(29) 0.001156 574.0 207.7
805(28) 0.001242 574.0 208.4
844(29) 0.001185 574.0 209.5
804(28) 0.001244 574.0 211.2
831(29) 0.001203 574.1 213.6
845(29) 0.001183 574.1 216.6
826(29) 0.001211 574.1 220.5
855(29) 0.001170 574.1 225.2
804(28) 0.001244 574.1 230.8
870(29) 0.001149 574.1 237.3
844(29) 0.001185 574.1 244.9
820(29) 0.001220 574.1 253.3
884(30) 0.001131 574.1 262.6
889(30) 0.001125 574.1 272.4
971(31) 0.001030 574.1 282.5
960(31) 0.001042 574.1 292.4
916(30) 0.001092 574.1 301.5
863(29) 0.001159 574.1 308.9
947(31) 0.001056 574.1 314.0
942(31) 0.001062 574.1 316.3
964(31) 0.001037 574.1 315.2
955(31) 0.001047 574.1 311.0
881(30) 0.001135 574.1 304.0
938(31) 0.001066 574.1 295.0
975(31) 0.001026 574.1 284.5
908(30) 0.001101 574.1 273.5
900(30) 0.001111 574.1 262.4
858(29) 0.001166 574.1 251.7
869(29) 0.001151 574.1 241.7
860(29) 0.001163 574.1 232.6
838(29) 0.001193 574.1 224.4
838(29) 0.001193 574.1 217.1
794(28) 0.001259 574.1 210.9
818(29) 0.001222 574.1 205.5
821(29) 0.001218 574.1 201.1
797(28) 0.001255 574.1 197.5
841(29) 0.001189 574.1 194.6
834(29) 0.001199 574.1 192.5
825(29) 0.001212 574.2 191.0
790(28) 0.001266 574.2 190.2
793(28) 0.001261 574.2 189.9
818(29) 0.001222 574.2 190.1
820(29) 0.001220 574.2 190.8
789(28) 0.001267 574.2 192.0
840(29) 0.001190 574.2 193.5
786(28) 0.001272 574.2 195.4
822(29) 0.001217 574.2 197.5
851(29) 0.001175 574.2 199.8
895(30) 0.001117 574.2 202.2
876(30) 0.001142 574.2 204.4
860(29) 0.001163 574.2 206.3
870(29) 0.001149 574.2 207.7
860(29) 0.001163 574.2 208.3
928(30) 0.001078 574.2 207.9
852(29) 0.001174 574.2 206.5
882(30) 0.001134 574.2 204.0
922(30) 0.001085 574.2 200.5
873(30) 0.001145 574.2 196.2
864(29) 0.001157 574.2 191.4
832(29) 0.001202 574.2 186.2
869(29) 0.001151 574.2 180.9
843(29) 0.001186 574.2 175.6
865(29) 0.001156 574.2 170.6
856(29) 0.001168 574.2 165.8
851(29) 0.001175 574.2 161.3
875(30) 0.001143 574.2 157.2
872(30) 0.001147 574.2 153.5
880(30) 0.001136 574.2 150.1
882(30) 0.001134 574.2 147.2
836(29) 0.001196 574.2 144.6
883(30) 0.001133 574.2 142.4
871(30) 0.001148 574.2 140.4
888(30) 0.001126 574.3 138.8
946(31) 0.001057 574.3 137.4
900(30) 0.001111 574.3 136.1
943(31) 0.001060 574.3 135.0
950(31) 0.001053 574.3 134.0
981(31) 0.001019 574.3 132.9
938(31) 0.001066 574.3 131.7
945(31) 0.001058 574.3 130.4
958(31) 0.0 0.0 .
956(31) 0.0 0.0 .
970(31) 0.0 0.0 .
960(31) 0.0 0.0 .
942(31) 0.0 0.0 .
980(31) 0.0 0.0 .
916(30) 0.0 0.0 .
980(31) 0.0 0.0 .
947(31) 0.0 0.0 .
974(31) 0.0 0.0 .
978(31) 0.0 0.0 .
1017(32) 0.0 0.0 .
997(32) 0.0 0.0 .
1054(32) 0.0 0.0 .
1018(32) 0.0 0.0 .
1026(32) 0.0 0.0 .
1113(33) 0.0 0.0 .
1077(33) 0.0 0.0 .
1081(33) 0.0 0.0 .
1111(33) 0.0 0.0 .
1114(33) 0.0 0.0 .
1129(34) 0.0 0.0 .
1179(34) 0.0 0.0 .
1217(35) 0.0 0.0 .
1235(35) 0.0 0. .
1211(35) 0.0 0.0 .
1204(35) 0.0 0.0 .
1264(36) 0.0 0. .
1319(36) 0.0 0. .
1288(36) 0.0 0. .
1380(37) 0.0 0. .
1459(38) 0.0 0. .
1471(38) 0.0 0. .
1499(39) 0.0 0. .
1464(38) 0.0 0. .
1556(39) 0.0 0. .
1592(40) 0.0 0. .
1584(40) 0.0 0. .
1585(40) 0.0 0. .
1720(41) 0.0 0. .
1676(41) 0.0 0. .
1753(42) 0.0 0. .
1933(44) 0.0 0. .
1910(44) 0.0 0. .
1917(44) 0.0 0. .
1954(44) 0.0 0. .
2097(46) 0.0 0. .
2194(47) 0.0 0. .
2274(48) 0.0 0. .
2353(49) 0.0 0. .
2433(49) 0.0 0. .
2556(51) 0.0 0. .
2746(52) 0.0 0. .
2737(52) 0.0 0. .
2977(55) 0.0 0. .
3180(56) 0.0 0. .
3404(58) 0.0 0. .
3636(60) 0.0 0. .
3801(62) 0.0 0. .
4161(65) 0.0 0. .
4429(67) 0.0 0. .
4585(68) 0.0 0. .
4987(71) 0.0 0. .
5196(72) 0.0 0. .
5652(75) 0.0 0. .
6170(79) 0.0 0. .
6539(81) 0.0 0. .
7173(85) 0.0 0. .
7882(89) 0.0 0. .
8718(93) 0.0 0. .
9707(99) 0.0 0. .
10730(100) 0.0 0. .
12170(110) 0.0 0. .
13270(120) 0.0 0. .
14970(120) 0.0 0. .
17060(130) 0.0 0. .
19210(140) 0.0 0. .
22120(150) 0.0 0. .
26200(160) 0.0 0. .
30500(180) 0.0 0. .
36600(190) 0.0 0. .
44090(210) 0.0 0. .
53900(230) 0.0 0. .
66500(260) 0.0 0. .
84250(290) 0.0 0. .
109130(330) 0.0 0. .
144750(380) 0.0 0. .
199010(450) 0.0 0. .
276360(530) 0.0 0. .
393290(630) 0.0 0. .
556050(750) 0.0 0. .
740210(860) 0.0 0. .
874260(940) 0.0 0. .
910050(950) 0.0 0. .
842120(920) 0.0 0. .
695230(830) 0.0 0. .
524010(720) 0.0 0. .
375340(610) 0.0 0. .
268590(520) 0.0 0. .
192950(440) 0.0 0. .
142420(380) 0.0 0. .
108140(330) 0.0 0. .
83750(290) 0.0 0. .
66290(260) 0.0 0. .
53830(230) 0.0 0. .
43790(210) 0.0 0. .
36460(190) 0.0 0. .
30260(170) 0.0 0. .
25880(160) 0.0 0. .
22210(150) 0.0 0. .
19410(140) 0.0 0. .
16910(130) 0.0 0. .
14570(120) 0.0 0. .
12970(110) 0.0 0. .
11490(110) 0.0 0. .
10160(100) 0.0 0. .
9007(95) 0.0 0. .
8020(90) 0.0 0. .
7435(86) 0.0 0. .
6701(82) 0.0 0. .
6276(79) 0.0 0. .
5689(75) 0.0 0. .
5287(73) 0.0 0. .
4964(70) 0.0 0. .
4683(68) 0.0 0. .
4351(66) 0.0 0. .
4085(64) 0.0 0. .
3765(61) 0.0 0. .
3410(58) 0.0 0. .
3353(58) 0.0 0. .
3187(56) 0.0 0. .
3119(56) 0.0 0. .
3061(55) 0.0 0. .
2807(53) 0.0 0. .
2759(53) 0.0 0. .
2574(51) 0.0 0. .
2554(51) 0.0 0. .
2491(50) 0.0 0. .
2460(50) 0.0 0. .
2346(48) 0.0 0. .
2245(47) 0.0 0. .
2219(47) 0.0 0. .
2062(45) 0.0 0. .
2040(45) 0.0 0. .
1949(44) 0.0 0. .
1982(45) 0.0 0. .
1918(44) 0.0 0. .
1868(43) 0.0 0. .
1814(43) 0.0 0. .
1864(43) 0.0 0. .
1707(41) 0.0 0. .
1713(41) 0.0 0. .
1685(41) 0.0 0. .
1678(41) 0.0 0. .
1572(40) 0.0 0. .
1565(40) 0.0 0. .
1564(40) 0.0 0. .
1496(39) 0.0 0. .
1498(39) 0.0 0. .
1518(39) 0.0 0. .
1495(39) 0.0 0. .
1477(38) 0.0 0. .
1418(38) 0.0 0. .
1452(38) 0.0 0. .
1446(38) 0.0 0. .
1411(38) 0.0 0. .
1399(37) 0.0 0. .
1431(38) 0.0 0. .
1378(37) 0.0 0. .
1433(38) 0.0 0. .
1392(37) 0.0 0. .
1395(37) 0.0 0. .
1334(37) 0.0 0. .
1307(36) 0.0 0. .
1289(36) 0.0 0. .
1336(37) 0.0 0. .
1294(36) 0.0 0. .
1312(36) 0.0 0. .
1219(35) 0.0 0.0 .
1258(35) 0.0 0. .
1277(36) 0.0 0. .
1229(35) 0.0 0.0 .
1209(35) 0.0 0.0 .
1192(35) 0.0 0.0 .
1236(35) 0.000809 575. 166.
1166(34) 0.000858 574.8 158.3
1097(33) 0.000912 574.8 151.2
1129(34) 0.000886 574.8 144.3
1097(33) 0.000912 574.8 137.7
1136(34) 0.000880 574.8 131.4
1024(32) 0.000977 574.8 125.4
1023(32) 0.000978 574.8 119.8
1009(32) 0.000991 574.8 114.4
1046(32) 0.000956 574.8 109.4
980(31) 0.001020 574.8 104.6
980(31) 0.001020 574.9 100.2
982(31) 0.001018 574.9 96.1
987(31) 0.001013 574.9 92.4
950(31) 0.001053 574.9 89.0
911(30) 0.001098 574.9 85.9
883(30) 0.001133 574.9 83.1
896(30) 0.001116 574.9 80.6
912(30) 0.001096 574.9 78.3
899(30) 0.001112 574.9 76.4
894(30) 0.001119 574.9 74.7
894(30) 0.001119 574.9 73.2
865(29) 0.001156 574.9 71.9
833(29) 0.001200 574.9 70.8
853(29) 0.001172 574.9 69.9
879(30) 0.001138 574.9 69.2
844(29) 0.001185 574.9 68.6
825(29) 0.001212 574.9 68.2
838(29) 0.001193 574.9 67.9
836(29) 0.001196 574.9 67.8
809(28) 0.001236 574.9 67.8
788(28) 0.001269 574.9 67.9
870(29) 0.001149 574.9 68.1
838(29) 0.001193 574.9 68.4
821(29) 0.001218 574.9 68.8
836(29) 0.001196 574.9 69.2
771(28) 0.001297 574.9 69.8
793(28) 0.001261 574.9 70.5
765(28) 0.001307 574.9 71.2
790(28) 0.001266 574.9 71.9
794(28) 0.001259 574.9 72.7
809(28) 0.001236 574.9 73.5
845(29) 0.001183 574.9 74.3
792(28) 0.001263 574.9 75.0
807(28) 0.001239 574.9 75.7
812(28) 0.001232 575.0 76.4
768(28) 0.001302 575.0 76.9
765(28) 0.001307 575.0 77.4
756(27) 0.001323 575.0 77.8
766(28) 0.001305 575.0 78.2
763(28) 0.001311 575.0 78.5
818(29) 0.001222 575.0 78.8
845(29) 0.001183 575.0 79.2
766(28) 0.001305 575.0 79.7
771(28) 0.001297 575.0 80.3
721(27) 0.001387 575.0 81.1
732(27) 0.001366 575.0 82.1
756(27) 0.001323 575.0 83.4
806(28) 0.001241 575.0 85.0
813(29) 0.001230 575.0 86.8
751(27) 0.001332 575.0 89.0
808(28) 0.001238 575.0 91.5
792(28) 0.001263 575.0 94.2
752(27) 0.001330 575.0 97.1
751(27) 0.001332 575.0 100.2
738(27) 0.001355 575.0 103.2
767(28) 0.001304 575.0 106.2
778(28) 0.001285 575.0 108.7
770(28) 0.001299 575.0 110.7
748(27) 0.001337 575.0 112.0
767(28) 0.001304 575.0 112.3
762(28) 0.001312 575.0 111.7
748(27) 0.001337 575.0 110.2
766(28) 0.001305 575.0 107.9
790(28) 0.001266 575.0 105.0
743(27) 0.001346 575.0 101.7
730(27) 0.001370 575.0 98.2
763(28) 0.001311 575.0 94.7
712(27) 0.001404 575.0 91.3
708(27) 0.001412 575.1 88.2
709(27) 0.001410 575.1 85.3
704(27) 0.001420 575.1 82.8
723(27) 0.001383 575.1 80.7
678(26) 0.001475 575.1 79.0
685(26) 0.001460 575.1 77.7
697(26) 0.001435 575.1 76.8
713(27) 0.001403 575.1 76.3
720(27) 0.001389 575.1 76.2
702(26) 0.001424 575.1 76.6
703(27) 0.001422 575.1 77.2
668(26) 0.001497 575.1 78.3
711(27) 0.001406 575.1 79.5
743(27) 0.001346 575.1 81.0
718(27) 0.001393 575.1 82.5
726(27) 0.001377 575.1 83.9
709(27) 0.001410 575.1 85.1
716(27) 0.001397 575.1 85.8
674(26) 0.001484 575.1 85.8
720(27) 0.001389 575.1 85.2
669(26) 0.001495 575.1 84.0
641(25) 0.001560 575.1 82.4
627(25) 0.001595 575.1 80.4
650(25) 0.001538 575.1 78.3
670(26) 0.001493 575.1 76.3
642(25) 0.001558 575.1 74.3
629(25) 0.001590 575.1 72.6
640(25) 0.001563 575.1 71.0
612(25) 0.001634 575.1 69.7
633(25) 0.001580 575.1 68.6
628(25) 0.001592 575.1 67.8
626(25) 0.001597 575.1 67.2
614(25) 0.001629 575.1 66.8
659(26) 0.001517 575.1 66.6
625(25) 0.001600 575.2 66.5
626(25) 0.001597 575.2 66.7
582(24) 0.001718 575.2 67.1
598(24) 0.001672 575.2 67.5
578(24) 0.001730 575.2 68.2
637(25) 0.001570 575.2 69.0
585(24) 0.001709 575.2 69.9
618(25) 0.001618 575.2 71.0
618(25) 0.001618 575.2 72.2
589(24) 0.001698 575.3 73.6
626(25) 0.001597 575.3 75.1
565(24) 0.001770 575.3 76.7
580(24) 0.001724 575.3 78.5
605(25) 0.001653 575.3 80.4
611(25) 0.001637 575.4 82.5
635(25) 0.001575 575.4 84.8
603(25) 0.001658 575.4 87.3
631(25) 0.001585 575.4 89.9
643(25) 0.001555 575.4 92.7
672(26) 0.001488 575.4 95.7
632(25) 0.001582 575.5 98.9
671(26) 0.001490 575.5 102.3
663(26) 0.001508 575.5 106.0
661(26) 0.001513 575.5 109.9
664(26) 0.001506 575.5 114.0
683(26) 0.001464 575.5 118.4
629(25) 0.001590 575.6 123.0
647(25) 0.001546 575.6 127.9
633(25) 0.001580 575.6 133.1
668(26) 0.001497 575.6 138.6
723(27) 0.001383 575.6 144.3
737(27) 0.001357 575.7 150.3
739(27) 0.001353 575.7 156.6
684(26) 0.001462 575.7 163.2
714(27) 0.001401 575.7 170.0
769(28) 0.001300 575.7 177.0
752(27) 0.001330 575.7 184.3
768(28) 0.001302 575.8 191.7
752(27) 0.001330 575.8 199.3
783(28) 0.001277 575.8 206.9
814(29) 0.001228 575.8 214.6
800(28) 0.001250 575.8 222.3
849(29) 0.001178 575.8 229.9
821(29) 0.001218 575.9 237.4
828(29) 0.001208 575.9 244.7
851(29) 0.001175 575.9 251.8
863(29) 0.001159 575.9 258.5
896(30) 0.001116 575.9 264.8
862(29) 0.001160 576.0 270.6
889(30) 0.001125 576.0 275.5
878(30) 0.001139 576.0 279.5
872(30) 0.001147 576.0 282.2
869(29) 0.001151 576.0 283.6
892(30) 0.001121 576.0 283.4
876(30) 0.001142 576.1 281.8
891(30) 0.001122 576.1 278.9
902(30) 0.001109 576.1 274.9
853(29) 0.001172 576.1 270.3
873(30) 0.001145 576.1 265.3
793(28) 0.001261 576.1 260.1
815(29) 0.001227 576.2 255.0
819(29) 0.001221 576.2 250.1
835(29) 0.001198 576.2 245.5
792(28) 0.001263 576.2 241.3
753(27) 0.001328 576.2 237.5
792(28) 0.001263 576.3 234.2
765(28) 0.001307 576.3 231.3
753(27) 0.001328 576.3 229.0
771(28) 0.001297 576.3 227.2
799(28) 0.001252 576.3 225.9
725(27) 0.001379 576.3 225.0
764(28) 0.001309 576.4 224.5
829(29) 0.001206 576.4 224.4
814(29) 0.001228 576.4 224.4
791(28) 0.001264 576.4 224.6
718(27) 0.001393 576.4 224.7
783(28) 0.001277 576.4 224.5
807(28) 0.001239 576.5 224.1
787(28) 0.001271 576.5 223.1
734(27) 0.001362 576.5 221.7
773(28) 0.001294 576.5 219.6
776(28) 0.001289 576.5 217.1
774(28) 0.001292 576.6 214.2
772(28) 0.001295 576.6 211.0
739(27) 0.001353 576.6 207.8
758(28) 0.001319 576.6 204.7
766(28) 0.001305 576.6 201.8
789(28) 0.001267 576.6 199.2
722(27) 0.001385 576.7 197.2
734(27) 0.001362 576.7 195.6
744(27) 0.001344 576.7 194.7
730(27) 0.001370 576.7 194.5
729(27) 0.001372 576.7 194.8
726(27) 0.001377 576.7 195.8
779(28) 0.001284 576.8 197.4
740(27) 0.001351 576.8 199.5
741(27) 0.001350 576.8 202.0
694(26) 0.001441 576.8 204.9
722(27) 0.001385 576.8 208.0
771(28) 0.001297 576.9 211.0
753(27) 0.001328 576.9 213.8
758(28) 0.001319 576.9 216.2
793(28) 0.001261 576.9 217.9
757(28) 0.001321 576.9 218.8
760(28) 0.001316 576.9 218.6
782(28) 0.001279 577.0 217.3
735(27) 0.001361 577.0 215.0
718(27) 0.001393 577.0 211.6
728(27) 0.001374 577.0 207.5
774(28) 0.001292 577.0 202.7
753(27) 0.001328 577.0 197.5
690(26) 0.001449 577.1 192.3
713(27) 0.001403 577.1 187.1
711(27) 0.001406 577.1 182.4
670(26) 0.001493 577.1 178.2
675(26) 0.001481 577.1 174.8
669(26) 0.001495 577.2 172.4
680(26) 0.001471 577.2 171.0
684(26) 0.001462 577.2 170.9
711(27) 0.001406 577.2 172.1
698(26) 0.001433 577.2 174.4
695(26) 0.001439 577.2 177.5
711(27) 0.001406 577.3 180.8
741(27) 0.001350 577.3 183.3
722(27) 0.001385 577.3 183.7
711(27) 0.001406 577.3 181.4
674(26) 0.001484 577.3 176.6
655(26) 0.001527 577.3 170.2
711(27) 0.001406 577.4 163.5
682(26) 0.001466 577.4 157.1
669(26) 0.001495 577.4 151.8
665(26) 0.001504 577.4 147.6
660(26) 0.001515 577.4 144.7
688(26) 0.001453 577.5 143.0
725(27) 0.001379 577.5 142.4
685(26) 0.001460 577.5 142.8
701(26) 0.001427 577.5 144.2
674(26) 0.001484 577.5 146.6
650(25) 0.001538 577.5 149.9
686(26) 0.001458 577.6 154.2
727(27) 0.001376 577.6 159.4
702(26) 0.001424 577.6 165.7
700(26) 0.001429 577.6 173.0
721(27) 0.001387 577.6 181.6
748(27) 0.001337 577.6 191.4
771(28) 0.001297 577.7 202.7
734(27) 0.001362 577.7 215.5
794(28) 0.001259 577.7 229.9
822(29) 0.001217 577.7 245.9
805(28) 0.001242 577.7 263.5
899(30) 0.001112 577.8 282.4
927(30) 0.001079 577.8 302.2
927(30) 0.001079 577.8 322.2
1009(32) 0.000991 577.8 341.7
991(31) 0.001009 577.8 360.0
1005(32) 0.000995 577.8 377.0
1070(33) 0.000935 577.9 392.9
1097(33) 0.000912 577.9 407.8
1068(33) 0.000936 577.9 421.8
1123(34) 0.000890 577.9 435.0
1204(35) 0.000831 577.9 447.1
1145(34) 0.000873 577.9 457.9
1189(34) 0.000841 578.0 467.4
1187(34) 0.000842 578.0 475.5
1212(35) 0.000825 578.0 482.5
1187(34) 0.000842 578.0 488.7
1144(34) 0.000874 578.0 494.5
1185(34) 0.000844 578.1 500.1
1203(35) 0.000831 578.1 505.3
1249(35) 0.000801 578. 509.
1172(34) 0.000853 578.1 511.0
1226(35) 0.000816 578.1 508.3
1133(34) 0.000883 578.1 500.0
1064(33) 0.000940 578.2 485.2
1050(32) 0.000952 578.2 464.5
979(31) 0.001021 578.2 439.3
944(31) 0.001059 578.2 411.6
956(31) 0.001046 578.2 383.2
896(30) 0.001116 578.2 355.6
892(30) 0.001121 578.3 329.5
861(29) 0.001161 578.3 305.5
803(28) 0.001245 578.3 283.8
790(28) 0.001266 578.3 264.3
737(27) 0.001357 578.3 247.0
808(28) 0.001238 578.4 231.8
776(28) 0.001289 578.4 218.5
716(27) 0.001397 578.4 206.9
761(28) 0.001314 578.4 196.9
708(27) 0.001412 578.4 188.3
707(27) 0.001414 578.4 181.0
686(26) 0.001458 578.5 174.7
676(26) 0.001479 578.5 169.4
727(27) 0.001376 578.5 165.1
709(27) 0.001410 578.5 161.5
687(26) 0.001456 578.5 158.8
679(26) 0.001473 578.5 156.8
678(26) 0.001475 578.6 155.5
681(26) 0.001468 578.6 155.1
722(27) 0.001385 578.6 155.5
672(26) 0.001488 578.6 156.8
677(26) 0.001477 578.6 159.1
705(27) 0.001418 578.7 162.5
757(28) 0.001321 578.7 167.2
726(27) 0.001377 578.7 173.2
733(27) 0.001364 578.7 180.8
706(27) 0.001416 578.7 190.2
772(28) 0.001295 578.7 201.7
768(28) 0.001302 578.8 215.5
771(28) 0.001297 578.8 231.8
836(29) 0.001196 578.8 251.0
854(29) 0.001171 578.8 273.2
890(30) 0.001124 578.8 298.8
897(30) 0.001115 578.8 327.7
997(32) 0.001003 578.9 359.9
978(31) 0.001022 578.9 395.0
1014(32) 0.000986 578.9 432.3
1154(34) 0.000867 578.9 470.5
1150(34) 0.000870 578.9 507.4
1237(35) 0.000808 579. 541.
1261(36) 0.000793 579. 567.
1289(36) 0.000776 579. 584.
1334(37) 0.000750 579. 590.
1325(36) 0.000755 579. 585.
1306(36) 0.000766 579. 571.
1294(36) 0.000773 579. 550.
1202(35) 0.000832 579.1 523.7
1136(34) 0.000880 579.1 494.6
1073(33) 0.000932 579.1 464.2
1011(32) 0.000989 579.1 433.8
988(31) 0.001012 579.1 403.9
992(31) 0.001008 579.2 375.2
898(30) 0.001114 579.2 347.9
851(29) 0.001175 579.2 322.0
819(29) 0.001221 579.2 297.8
809(28) 0.001236 579.2 275.3
777(28) 0.001287 579.2 254.5
774(28) 0.001292 579.3 235.3
741(27) 0.001350 579.3 217.9
724(27) 0.001381 579.3 202.1
696(26) 0.001437 579.3 187.9
684(26) 0.001462 579.3 175.1
648(25) 0.001543 579.4 163.7
685(26) 0.001460 579.4 153.5
696(26) 0.001437 579.4 144.5
682(26) 0.001466 579.4 136.5
636(25) 0.001572 579.4 129.4
665(26) 0.001504 579.4 123.1
621(25) 0.001610 579.5 117.6
645(25) 0.001550 579.5 112.7
616(25) 0.001623 579.5 108.5
655(26) 0.001527 579.5 104.7
626(25) 0.001597 579.5 101.5
633(25) 0.001580 579.5 98.6
625(25) 0.001600 579.6 96.2
586(24) 0.001706 579.6 94.1
594(24) 0.001684 579.6 92.3
627(25) 0.001595 579.6 90.8
603(25) 0.001658 579.6 89.6
601(25) 0.001664 579.7 88.6
600(24) 0.001667 579.7 87.8
626(25) 0.001597 579.7 87.3
618(25) 0.001618 579.8 87.0
584(24) 0.001712 579.9 86.9
583(24) 0.001715 580.1 86.9
627(25) 0.001595 580.2 87.3
602(25) 0.001661 580.3 87.7
610(25) 0.001639 580.4 88.4
595(24) 0.001681 580.5 89.2
593(24) 0.001686 580.7 90.2
623(25) 0.001605 580.8 91.4
602(25) 0.001661 580.9 92.7
618(25) 0.001618 581.0 94.3
624(25) 0.001603 581.1 96.0
663(26) 0.001508 581.3 97.9
613(25) 0.001631 581.4 99.9
636(25) 0.001572 581.5 102.0
616(25) 0.001623 581.6 104.3
651(26) 0.001536 581.7 106.7
645(25) 0.001550 581.9 109.1
666(26) 0.001501 582.0 111.6
653(26) 0.001531 582.1 114.0
635(25) 0.001575 582.2 116.5
646(25) 0.001548 582.4 118.9
642(25) 0.001558 582.5 121.3
667(26) 0.001499 582.6 123.7
717(27) 0.001395 582.7 126.1
624(25) 0.001603 582.8 128.5
689(26) 0.001451 583.0 131.1
700(26) 0.001429 583.1 133.8
675(26) 0.001481 583.2 136.6
693(26) 0.001443 583.3 139.7
660(26) 0.001515 583.4 142.9
704(27) 0.001420 583.6 146.4
708(27) 0.001412 583.7 150.2
670(26) 0.001493 583.8 154.2
674(26) 0.001484 583.9 158.4
731(27) 0.001368 584.0 162.9
707(27) 0.001414 584.2 167.7
757(28) 0.001321 584.3 172.7
732(27) 0.001366 584.4 177.9
738(27) 0.001355 584.5 183.4
740(27) 0.001351 584.7 189.1
730(27) 0.001370 584.8 195.0
773(28) 0.001294 584.9 201.0
778(28) 0.001285 585.0 207.2
775(28) 0.001290 585.1 213.5
790(28) 0.001266 585.3 219.9
782(28) 0.001279 585.4 226.4
799(28) 0.001252 585.5 233.0
864(29) 0.001157 585.6 239.6
848(29) 0.001179 585.7 246.2
858(29) 0.001166 585.9 252.8
853(29) 0.001172 586.0 259.4
912(30) 0.001096 586.1 265.9
851(29) 0.001175 586.2 272.5
852(29) 0.001174 586.3 279.1
868(29) 0.001152 586.5 285.8
897(30) 0.001115 586.6 292.6
972(31) 0.001029 586.7 299.5
882(30) 0.001134 586.8 306.6
907(30) 0.001103 587.0 314.0
926(30) 0.001080 587.1 321.6
915(30) 0.001093 587.2 329.4
944(31) 0.001059 587.3 337.4
984(31) 0.001016 587.4 345.6
982(31) 0.001018 587.6 353.9
986(31) 0.001014 587.7 362.1
1021(32) 0.000979 587.8 370.2
1042(32) 0.000960 587.9 378.1
996(32) 0.001004 588.0 385.4
963(31) 0.001038 588.2 392.2
997(32) 0.001003 588.3 398.2
999(32) 0.001001 588.4 403.2
1011(32) 0.000989 588.5 407.2
1028(32) 0.000973 588.6 410.1
1039(32) 0.000962 588.8 411.8
988(31) 0.001012 588.9 412.2
961(31) 0.001041 589.0 411.5
1015(32) 0.000985 589.1 409.5
988(31) 0.001012 589.3 406.4
1012(32) 0.000988 589.4 402.1
973(31) 0.001028 589.5 396.7
909(30) 0.001100 589.6 390.4
917(30) 0.001091 589.7 383.2
902(30) 0.001109 589.9 375.3
930(30) 0.001075 590.0 366.8
928(30) 0.001078 590.1 357.9
870(29) 0.001149 590.2 348.8
880(30) 0.001136 590.3 339.6
882(30) 0.001134 590.5 330.6
853(29) 0.001172 590.6 321.7
890(30) 0.001124 590.7 313.2
843(29) 0.001186 590.8 305.1
848(29) 0.001179 590.9 297.5
801(28) 0.001248 591.1 290.4
803(28) 0.001245 591.2 284.0
824(29) 0.001214 591.3 278.1
864(29) 0.001157 591.4 272.9
811(28) 0.001233 591.6 268.3
821(29) 0.001218 591.7 264.5
729(27) 0.001372 591.8 261.2
772(28) 0.001295 591.9 258.7
800(28) 0.001250 592.0 256.9
804(28) 0.001244 592.2 255.7
802(28) 0.001247 592.3 255.2
778(28) 0.001285 592.4 255.3
777(28) 0.001287 592.5 256.1
786(28) 0.001272 592.6 257.5
773(28) 0.001294 592.8 259.5
780(28) 0.001282 592.9 262.0
859(29) 0.001164 593.0 265.1
807(28) 0.001239 593.1 268.6
789(28) 0.001267 593.2 272.5
826(29) 0.001211 593.4 276.7
846(29) 0.001182 593.5 281.2
858(29) 0.001166 593.6 285.8
819(29) 0.001221 593.7 290.4
836(29) 0.001196 593.9 294.9
903(30) 0.001107 594.0 299.3
845(29) 0.001183 594.1 303.3
871(30) 0.001148 594.2 306.9
902(30) 0.001109 594.3 309.9
869(29) 0.001151 594.5 312.3
883(30) 0.001133 594.6 313.8
901(30) 0.001110 594.7 314.5
907(30) 0.001103 594.8 314.3
865(29) 0.001156 594.9 313.1
880(30) 0.001136 595.1 310.9
847(29) 0.001181 595.2 307.8
853(29) 0.001172 595.3 303.9
840(29) 0.001190 595.4 299.2
770(28) 0.001299 595.6 293.8
821(29) 0.001218 595.7 287.9
773(28) 0.001294 595.8 281.7
784(28) 0.001276 595.9 275.1
815(29) 0.001227 596.0 268.5
788(28) 0.001269 596.2 261.9
796(28) 0.001256 596.3 255.3
820(29) 0.001220 596.4 249.0
757(28) 0.001321 596.5 243.0
733(27) 0.001364 596.6 237.3
758(28) 0.001319 596.8 232.0
776(28) 0.001289 596.9 227.2
775(28) 0.001290 597.0 222.9
756(27) 0.001323 597.1 219.1
680(26) 0.001471 597.2 215.8
793(28) 0.001261 597.4 213.1
800(28) 0.001250 597.5 211.0
748(27) 0.001337 597.6 209.4
718(27) 0.001393 597.7 208.4
782(28) 0.001279 597.9 207.9
745(27) 0.001342 598.0 207.9
742(27) 0.001348 598.1 208.4
721(27) 0.001387 598.2 209.3
755(27) 0.001324 598.3 210.5
708(27) 0.001412 598.5 211.8
756(27) 0.001323 598.6 213.3
729(27) 0.001372 598.7 214.6
794(28) 0.001259 598.8 215.5
769(28) 0.001300 598.9 216.0
771(28) 0.001297 599.1 215.9
759(28) 0.001318 599.2 215.0
794(28) 0.001259 599.3 213.3
733(27) 0.001364 599.4 210.7
774(28) 0.001292 599.5 207.5
770(28) 0.001299 599.7 203.6
709(27) 0.001410 599.8 199.2
749(27) 0.001335 599.9 194.5
704(27) 0.001420 600.0 189.4
675(26) 0.001481 600.2 184.3
707(27) 0.001414 600.3 179.1
663(26) 0.001508 600.4 173.9
665(26) 0.001504 600.5 168.7
671(26) 0.001490 600.6 163.7
712(27) 0.001404 600.8 158.8
701(26) 0.001427 600.9 154.0
706(27) 0.001416 601.0 149.5
663(26) 0.001508 601.1 145.1
638(25) 0.001567 601.2 140.9
663(26) 0.001508 601.4 136.9
677(26) 0.001477 601.5 133.2
633(25) 0.001580 601.6 129.6
623(25) 0.001605 601.7 126.2
667(26) 0.001499 601.8 123.1
656(26) 0.001524 602.0 120.1
645(25) 0.001550 602.1 117.3
628(25) 0.001592 602.2 114.7
635(25) 0.001575 602.3 112.3
598(24) 0.001672 602.1 110.0
647(25) 0.001546 601.9 107.8
579(24) 0.001727 601.7 105.8
638(25) 0.001567 601.5 104.0
613(25) 0.001631 601.2 102.3
629(25) 0.001590 601.0 100.7
666(26) 0.001501 600.8 99.2
618(25) 0.001618 600.6 97.9
613(25) 0.001631 600.4 96.6
599(24) 0.001669 600.1 95.5
601(25) 0.001664 599.9 94.5
595(24) 0.001681 599.7 93.7
621(25) 0.001610 599.5 92.9
647(25) 0.001546 599.3 92.2
642(25) 0.001558 599.0 91.7
647(25) 0.001546 598.8 91.2
637(25) 0.001570 598.6 90.9
620(25) 0.001613 598.4 90.7
627(25) 0.001595 598.2 90.5
662(26) 0.001511 598.0 90.5
620(25) 0.001613 597.7 90.6
591(24) 0.001692 597.5 90.8
596(24) 0.001678 597.3 91.0
639(25) 0.001565 597.1 91.4
612(25) 0.001634 596.9 91.9
575(24) 0.001739 596.6 92.5
617(25) 0.001621 596.4 93.1
615(25) 0.001626 596.2 93.9
644(25) 0.001553 596.0 94.8
664(26) 0.001506 595.8 95.7
613(25) 0.001631 595.5 96.7
643(25) 0.001555 595.3 97.8
639(25) 0.001565 595.1 98.9
645(25) 0.001550 594.9 100.1
652(26) 0.001534 594.7 101.3
633(25) 0.001580 594.5 102.5
678(26) 0.001475 594.2 103.8
663(26) 0.001508 594.0 105.0
640(25) 0.001563 593.8 106.2
663(26) 0.001508 593.6 107.3
645(25) 0.001550 593.4 108.4
652(26) 0.001534 593.1 109.3
654(26) 0.001529 592.9 110.2
681(26) 0.001468 592.7 110.9
636(25) 0.001572 592.5 111.4
682(26) 0.001466 592.3 111.8
656(26) 0.001524 592.0 112.0
644(25) 0.001553 591.8 112.1
673(26) 0.001486 591.6 112.0
675(26) 0.001481 591.4 111.8
625(25) 0.001600 591.2 111.4
680(26) 0.001471 590.9 111.0
633(25) 0.001580 590.7 110.4
632(25) 0.001582 590.5 109.7
670(26) 0.001493 590.3 109.0
668(26) 0.001497 590.1 108.3
603(25) 0.001658 589.9 107.5
627(25) 0.001595 589.6 106.6
606(25) 0.001650 589.4 105.9
653(26) 0.001531 589.2 105.2
595(24) 0.001681 589.0 104.5
610(25) 0.001639 588.8 104.0
662(26) 0.001511 588.5 103.4
658(26) 0.001520 588.3 103.0
658(26) 0.001520 588.1 102.6
632(25) 0.001582 587.9 102.3
622(25) 0.001608 587.7 102.1
618(25) 0.001618 587.4 102.0
641(25) 0.001560 587.2 102.0
607(25) 0.001647 587.0 102.1
669(26) 0.001495 586.8 102.3
623(25) 0.001605 586.6 102.7
681(26) 0.001468 586.4 103.2
652(26) 0.001534 586.1 103.8
615(25) 0.001626 585.9 104.7
652(26) 0.001534 585.7 105.8
669(26) 0.001495 585.5 107.1
657(26) 0.001522 585.3 108.7
641(25) 0.001560 585.0 110.5
653(26) 0.001531 584.8 112.7
637(25) 0.001570 584.6 115.0
677(26) 0.001477 584.4 117.5
700(26) 0.001429 584.2 119.8
687(26) 0.001456 583.9 121.8
637(25) 0.001570 583.7 123.1
666(26) 0.001501 583.5 123.6
664(26) 0.001506 583.3 123.3
703(27) 0.001422 583.1 122.7
663(26) 0.001508 582.9 121.9
680(26) 0.001471 582.6 121.2
648(25) 0.001543 582.4 120.6
670(26) 0.001493 582.2 120.3
673(26) 0.001486 582.0 120.2
665(26) 0.001504 581.8 120.4
685(26) 0.001460 581.5 120.6
652(26) 0.001534 581.3 121.1
671(26) 0.001490 581.1 121.6
671(26) 0.001490 580.9 122.2
695(26) 0.001439 580.7 122.8
661(26) 0.001513 580.4 123.4
687(26) 0.001456 580.2 124.0
734(27) 0.001362 580.0 124.6
710(27) 0.001408 579.8 125.1
708(27) 0.001412 579.6 125.5
653(26) 0.001531 579.4 125.9
670(26) 0.001493 579.1 126.2
723(27) 0.001383 578.9 126.4
745(27) 0.001342 578.7 126.5
666(26) 0.001501 578.5 126.6
689(26) 0.001451 578.3 126.6
696(26) 0.001437 578.0 126.5
693(26) 0.001443 577.8 126.5
703(27) 0.001422 577.6 126.4
769(28) 0.001300 577.4 126.3
735(27) 0.001361 577.2 126.3
690(26) 0.001449 576.9 126.3
699(26) 0.001431 576.7 126.3
668(26) 0.001497 576.5 126.4
679(26) 0.001473 576.3 126.5
693(26) 0.001443 576.1 126.7
729(27) 0.001372 575.8 127.0
710(27) 0.001408 575.6 127.2
686(26) 0.001458 575.4 127.4
685(26) 0.001460 575.2 127.6
669(26) 0.001495 575.0 127.6
659(26) 0.001517 574.8 127.6
684(26) 0.001462 574.5 127.4
677(26) 0.001477 574.3 127.2
672(26) 0.001488 574.1 126.9
676(26) 0.001479 573.9 126.7
670(26) 0.001493 573.7 126.5
653(26) 0.001531 573.4 126.6
714(27) 0.001401 573.2 126.7
686(26) 0.001458 573.0 127.1
685(26) 0.001460 572.8 127.8
696(26) 0.001437 572.6 128.6
710(27) 0.001408 572.3 129.8
706(27) 0.001416 572.1 131.2
677(26) 0.001477 571.9 133.0
628(25) 0.001592 571.7 135.1
718(27) 0.001393 571.5 137.6
667(26) 0.001499 571.3 140.5
691(26) 0.001447 571.0 143.9
675(26) 0.001481 570.8 147.9
697(26) 0.001435 570.6 152.5
665(26) 0.001504 570.4 157.7
707(27) 0.001414 570.2 163.8
735(27) 0.001361 569.9 170.8
760(28) 0.001316 569.7 178.9
722(27) 0.001385 569.5 188.2
728(27) 0.001374 569.3 199.0
809(28) 0.001236 569.1 211.5
747(27) 0.001339 568.8 225.8
779(28) 0.001284 568.6 242.4
816(29) 0.001225 568.4 261.3
804(28) 0.001244 568.2 282.6
866(29) 0.001155 568.0 305.9
882(30) 0.001134 567.8 330.7
924(30) 0.001082 567.5 355.3
874(30) 0.001144 567.3 377.6
892(30) 0.001121 567.1 394.7
869(29) 0.001151 566.9 403.8
893(30) 0.001120 566.7 403.2
849(29) 0.001178 566.4 393.2
855(29) 0.001170 566.2 375.8
846(29) 0.001182 566.0 353.8
841(29) 0.001189 565.8 330.1
822(29) 0.001217 565.6 306.7
780(28) 0.001282 565.3 284.9
740(27) 0.001351 565.1 265.4
726(27) 0.001377 564.9 248.5
748(27) 0.001337 564.7 234.1
806(28) 0.001241 564.5 222.0
749(27) 0.001335 564.2 212.0
717(27) 0.001395 564.0 203.9
726(27) 0.001377 563.8 197.4
655(26) 0.001527 563.6 192.3
726(27) 0.001377 563.4 188.4
685(26) 0.001460 563.2 185.4
691(26) 0.001447 562.9 183.3
672(26) 0.001488 562.7 181.9
691(26) 0.001447 562.5 181.1
722(27) 0.001385 562.3 180.8
696(26) 0.001437 562.1 181.0
743(27) 0.001346 561.8 181.7
708(27) 0.001412 561.6 182.8
692(26) 0.001445 561.4 184.2
688(26) 0.001453 561.2 186.0
686(26) 0.001458 561.0 188.2
701(26) 0.001427 560.7 190.7
701(26) 0.001427 560.5 193.5
760(28) 0.001316 560.3 196.6
734(27) 0.001362 560.1 200.1
640(25) 0.001563 559.9 203.8
722(27) 0.001385 559.7 207.8
767(28) 0.001304 559.4 212.0
804(28) 0.001244 559.2 216.5
746(27) 0.001340 559.0 221.2
787(28) 0.001271 558.8 226.1
760(28) 0.001316 558.6 231.2
780(28) 0.001282 558.3 236.4
782(28) 0.001279 558.1 241.8
800(28) 0.001250 557.9 247.3
861(29) 0.001161 557.7 252.9
808(28) 0.001238 557.5 258.5
845(29) 0.001183 557.2 264.1
874(30) 0.001144 557.0 269.6
862(29) 0.001160 556.8 274.9
896(30) 0.001116 556.6 279.8
913(30) 0.001095 556.4 284.4
881(30) 0.001135 556.2 288.4
849(29) 0.001178 555.9 291.8
882(30) 0.001134 555.7 294.6
877(30) 0.001140 555.5 296.9
887(30) 0.001127 555.3 298.7
873(30) 0.001145 555.1 300.1
819(29) 0.001221 554.8 301.0
817(29) 0.001224 554.6 301.6
807(28) 0.001239 554.4 301.8
838(29) 0.001193 554.2 301.7
827(29) 0.001209 554.0 301.3
852(29) 0.001174 553.7 300.5
837(29) 0.001195 553.5 299.4
820(29) 0.001220 553.3 297.9
808(28) 0.001238 553.1 296.2
798(28) 0.001253 552.9 294.1
841(29) 0.001189 552.7 291.8
765(28) 0.001307 552.4 289.4
807(28) 0.001239 552.2 286.8
808(28) 0.001238 552.0 284.2
787(28) 0.001271 551.8 281.5
844(29) 0.001185 551.6 278.8
807(28) 0.001239 551.3 276.1
785(28) 0.001274 551.1 273.3
776(28) 0.001289 550.9 270.5
856(29) 0.001168 550.7 267.8
765(28) 0.001307 550.5 264.9
795(28) 0.001258 550.2 262.1
814(29) 0.001228 550.0 259.2
749(27) 0.001335 549.8 256.3
791(28) 0.001264 549.6 253.5
767(28) 0.001304 549.4 250.6
819(29) 0.001221 549.1 247.8
811(28) 0.001233 548.9 245.1
790(28) 0.001266 548.7 242.4
785(28) 0.001274 548.5 240.0
767(28) 0.001304 548.3 237.6
762(28) 0.001312 548.1 235.5
767(28) 0.001304 547.8 233.5
716(27) 0.001397 547.6 231.8
767(28) 0.001304 547.4 230.4
787(28) 0.001271 547.2 229.2
750(27) 0.001333 547.0 228.5
764(28) 0.001309 546.7 228.1
737(27) 0.001357 546.5 228.2
740(27) 0.001351 546.3 228.9
747(27) 0.001339 546.1 230.2
765(28) 0.001307 545.9 232.2
693(26) 0.001443 545.6 235.0
750(27) 0.001333 545.4 238.7
739(27) 0.001353 545.2 243.3
732(27) 0.001366 545.0 248.7
701(26) 0.001427 544.8 254.7
734(27) 0.001362 544.6 260.9
731(27) 0.001368 544.3 266.4
730(27) 0.001370 544.1 270.3
741(27) 0.001350 543.9 271.5
721(27) 0.001387 543.7 269.6
750(27) 0.001333 543.5 264.8
719(27) 0.001391 543.2 258.2
713(27) 0.001403 543.0 250.9
687(26) 0.001456 542.8 243.7
688(26) 0.001453 542.6 237.2
710(27) 0.001408 542.4 231.7
721(27) 0.001387 542.1 227.3
693(26) 0.001443 541.9 223.9
712(27) 0.001404 541.7 221.6
700(26) 0.001429 541.5 220.1
725(27) 0.001379 541.3 219.5
698(26) 0.001433 541.1 219.5
758(28) 0.001319 540.8 220.1
773(28) 0.001294 540.6 221.3
766(28) 0.001305 540.4 222.8
754(27) 0.001326 540.2 224.7
751(27) 0.001332 540.0 227.0
707(27) 0.001414 539.7 229.6
808(28) 0.001238 539.5 232.6
675(26) 0.001481 539.3 236.0
752(27) 0.001330 539.1 239.7
734(27) 0.001362 538.9 243.9
787(28) 0.001271 538.6 248.4
790(28) 0.001266 538.4 253.1
746(27) 0.001340 538.2 257.8
742(27) 0.001348 538.0 262.1
776(28) 0.001289 537.8 265.7
751(27) 0.001332 537.5 268.0
764(28) 0.001309 537.3 268.6
704(27) 0.001420 537.1 267.2
720(27) 0.001389 536.9 263.7
741(27) 0.001350 536.7 258.7
698(26) 0.001433 536.5 252.4
712(27) 0.001404 536.2 245.4
696(26) 0.001437 536.0 238.2
733(27) 0.001364 535.8 231.2
707(27) 0.001414 535.6 224.6
693(26) 0.001443 535.4 218.4
660(26) 0.001515 535.1 212.7
710(27) 0.001408 534.9 207.4
699(26) 0.001431 534.7 202.5
676(26) 0.001479 534.5 198.0
686(26) 0.001458 534.3 193.9
670(26) 0.001493 534.0 190.2
666(26) 0.001501 533.8 187.1
694(26) 0.001441 533.6 184.6
680(26) 0.001471 533.4 182.8
690(26) 0.001449 533.2 181.9
695(26) 0.001439 533.0 181.8
667(26) 0.001499 532.7 182.6
672(26) 0.001488 532.5 184.3
703(27) 0.001422 532.3 186.7
698(26) 0.001433 532.1 189.6
665(26) 0.001504 531.9 192.6
656(26) 0.001524 531.6 195.2
657(26) 0.001522 531.4 196.7
703(27) 0.001422 531.2 196.7
673(26) 0.001486 531.0 194.9
667(26) 0.001499 530.8 191.4
671(26) 0.001490 530.5 186.8
631(25) 0.001585 530.3 181.6
634(25) 0.001577 530.1 176.6
661(26) 0.001513 529.9 172.1
616(25) 0.001623 529.7 168.3
635(25) 0.001575 529.5 165.5
650(25) 0.001538 529.2 163.6
633(25) 0.001580 529.0 162.5
657(26) 0.001522 528.8 162.3
646(25) 0.001548 528.6 162.7
665(26) 0.001504 528.4 163.6
618(25) 0.001618 528.1 164.8
669(26) 0.001495 527.9 166.0
643(25) 0.001555 527.7 167.3
662(26) 0.001511 527.5 168.5
643(25) 0.001555 527.3 169.7
656(26) 0.001524 527.0 170.9
636(25) 0.001572 526.8 172.1
627(25) 0.001595 526.6 173.4
649(25) 0.001541 526.4 174.6
691(26) 0.001447 526.2 175.7
647(25) 0.001546 526.0 176.5
656(26) 0.001524 525.7 177.0
651(26) 0.001536 525.5 177.1
657(26) 0.001522 525.3 176.6
669(26) 0.001495 525.1 175.7
699(26) 0.001431 524.9 174.4
622(25) 0.001608 524.6 172.9
639(25) 0.001565 524.4 171.2
641(25) 0.001560 524.2 169.6
653(26) 0.001531 524.0 168.0
621(25) 0.001610 523.8 166.6
637(25) 0.001570 523.5 165.5
651(26) 0.001536 523.3 164.6
622(25) 0.001608 523.1 164.0
661(26) 0.001513 522.9 163.5
651(26) 0.001536 522.7 163.1
653(26) 0.001531 522.4 162.7
703(27) 0.001422 522.2 162.2
664(26) 0.001506 522.0 161.6
639(25) 0.001565 521.8 160.8
645(25) 0.001550 521.6 159.6
652(26) 0.001534 521.4 158.1
630(25) 0.001587 521.1 156.3
638(25) 0.001567 520.9 154.1
656(26) 0.001524 520.7 151.7
658(26) 0.001520 520.5 149.0
614(25) 0.001629 520.3 146.0
659(26) 0.001517 520.0 143.0
668(26) 0.001497 519.8 139.8
660(26) 0.001515 519.6 136.6
641(25) 0.001560 519.4 133.4
638(25) 0.001567 519.2 130.1
609(25) 0.001642 518.9 126.8
619(25) 0.001616 518.7 123.5
696(26) 0.001437 518.5 120.1
655(26) 0.001527 518.3 116.6
654(26) 0.001529 518.1 113.1
721(27) 0.001387 517.9 109.5
717(27) 0.001395 517.6 105.8
758(28) 0.001319 517.4 102.1
848(29) 0.001179 517.2 98.4
791(28) 0.001264 517.0 94.8
779(28) 0.001284 516.8 91.2
702(26) 0.001424 516.5 87.8
695(26) 0.001439 516.3 84.5
612(25) 0.001634 516.1 81.3
613(25) 0.001631 515.9 78.4
627(25) 0.001595 515.7 75.6
585(24) 0.001709 515.4 73.0
619(25) 0.001616 515.2 70.6
620(25) 0.001613 515.0 68.4
613(25) 0.001631 514.8 66.4
604(25) 0.001656 514.6 64.5
583(24) 0.001715 514.4 62.8
592(24) 0.001689 514.1 61.3
591(24) 0.001692 513.9 59.9
583(24) 0.001715 513.7 58.7
573(24) 0.001745 513.5 57.6
583(24) 0.001715 513.3 56.6
529(23) 0.001890 513.0 55.7
530(23) 0.001887 512.8 55.0
549(23) 0.001822 512.6 54.4
539(23) 0.001855 512.4 53.8
501(22) 0.001996 512.2 53.4
520(23) 0.001923 511.9 53.0
502(22) 0.001992 511.8 52.8
544(23) 0.001838 511.8 52.6
551(23) 0.001815 511.9 52.5
561(24) 0.001783 511.9 52.5
519(23) 0.001927 512.0 52.6
527(23) 0.001898 512.0 52.8
501(22) 0.001996 512.1 53.1
539(23) 0.001855 512.1 53.4
551(23) 0.001815 512.2 53.9
570(24) 0.001754 512.2 54.4
570(24) 0.001754 512.2 55.0
522(23) 0.001916 512.3 55.7
536(23) 0.001866 512.3 56.6
540(23) 0.001852 512.4 57.5
534(23) 0.001873 512.4 58.5
534(23) 0.001873 512.5 59.6
543(23) 0.001842 512.5 60.8
549(23) 0.001822 512.6 62.2
573(24) 0.001745 512.6 63.6
545(23) 0.001835 512.6 65.1
516(23) 0.001938 512.7 66.7
564(24) 0.001773 512.7 68.4
551(23) 0.001815 512.8 70.2
578(24) 0.001730 512.8 72.0
588(24) 0.001701 512.9 73.9
623(25) 0.001605 512.9 75.9
591(24) 0.001692 513.0 77.9
648(25) 0.001543 513.0 79.8
650(25) 0.001538 513.1 81.8
627(25) 0.001595 513.1 83.7
665(26) 0.001504 513.1 85.6
683(26) 0.001464 513.2 87.5
664(26) 0.001506 513.2 89.3
704(27) 0.001420 513.3 91.1
685(26) 0.001460 513.3 92.9
674(26) 0.001484 513.4 94.7
732(27) 0.001366 513.4 96.6
712(27) 0.001404 513.5 98.6
675(26) 0.001481 513.5 100.6
689(26) 0.001451 513.5 102.7
716(27) 0.001397 513.6 105.0
723(27) 0.001383 513.6 107.5
721(27) 0.001387 513.7 110.1
709(27) 0.001410 513.7 112.8
730(27) 0.001370 513.8 115.8
681(26) 0.001468 513.8 118.8
677(26) 0.001477 513.9 122.0
676(26) 0.001479 513.9 125.4
673(26) 0.001486 514.0 128.7
725(27) 0.001379 514.0 132.2
696(26) 0.001437 514.0 135.6
745(27) 0.001342 514.1 138.9
696(26) 0.001437 514.1 142.1
677(26) 0.001477 514.2 145.1
710(27) 0.001408 514.2 147.8
685(26) 0.001460 514.3 150.1
685(26) 0.001460 514.3 152.0
727(27) 0.001376 514.4 153.5
711(27) 0.001406 514.4 154.4
728(27) 0.001374 514.4 154.9
663(26) 0.001508 514.5 154.8
645(25) 0.001550 514.5 154.2
704(27) 0.001420 514.6 153.1
691(26) 0.001447 514.6 151.6
675(26) 0.001481 514.7 149.7
684(26) 0.001462 514.7 147.5
649(25) 0.001541 514.8 145.1
643(25) 0.001555 514.8 142.5
610(25) 0.001639 514.9 139.8
644(25) 0.001553 514.9 137.0
632(25) 0.001582 514.9 134.3
611(25) 0.001637 515.0 131.6
618(25) 0.001618 515.0 128.9
569(24) 0.001757 515.1 126.4
585(24) 0.001709 515.1 123.9
591(24) 0.001692 515.2 121.7
615(25) 0.001626 515.2 119.5
603(25) 0.001658 515.3 117.5
613(25) 0.001631 515.3 115.6
610(25) 0.001639 515.3 113.9
621(25) 0.001610 515.4 112.3
566(24) 0.001767 515.4 110.8
565(24) 0.001770 515.5 109.4
544(23) 0.001838 515.5 108.2
567(24) 0.001764 515.6 107.0
577(24) 0.001733 515.6 105.9
575(24) 0.001739 515.7 104.9
581(24) 0.001721 515.7 104.0
575(24) 0.001739 515.8 103.0
639(25) 0.001565 515.8 102.2
621(25) 0.001610 515.8 101.3
550(23) 0.001818 515.9 100.5
614(25) 0.001629 515.9 99.7
591(24) 0.001692 516.0 98.9
614(25) 0.001629 516.0 98.1
591(24) 0.001692 516.1 97.2
597(24) 0.001675 516.1 96.4
599(24) 0.001669 516.2 95.7
612(25) 0.001634 516.2 94.9
557(24) 0.001795 516.2 94.1
572(24) 0.001748 516.3 93.3
631(25) 0.001585 516.3 92.5
595(24) 0.001681 516.4 91.8
659(26) 0.001517 516.4 91.1
576(24) 0.001736 516.5 90.4
613(25) 0.001631 516.5 89.7
591(24) 0.001692 516.6 89.1
590(24) 0.001695 516.6 88.6
584(24) 0.001712 516.7 88.2
585(24) 0.001709 516.7 87.8
580(24) 0.001724 516.7 87.5
576(24) 0.001736 516.8 87.4
585(24) 0.001709 516.8 87.3
591(24) 0.001692 516.9 87.4
547(23) 0.001828 516.9 87.7
563(24) 0.001776 517.0 88.1
571(24) 0.001751 517.0 88.8
572(24) 0.001748 517.1 89.6
542(23) 0.001845 517.1 90.8
551(23) 0.001815 517.1 92.2
530(23) 0.001887 517.2 94.1
561(24) 0.001783 517.2 96.3
603(25) 0.001658 517.3 99.0
580(24) 0.001724 517.3 102.2
564(24) 0.001773 517.4 106.0
577(24) 0.001733 517.4 110.3
587(24) 0.001704 517.5 115.3
626(25) 0.001597 517.5 120.6
602(25) 0.001661 517.6 126.3
605(25) 0.001653 517.6 131.8
608(25) 0.001645 517.6 136.7
614(25) 0.001629 517.7 140.6
611(25) 0.001637 517.7 143.1
597(24) 0.001675 517.8 144.2
613(25) 0.001631 517.8 144.3
620(25) 0.001613 517.9 143.7
581(24) 0.001721 517.9 142.9
602(25) 0.001661 518.0 142.3
624(25) 0.001603 518.0 142.0
641(25) 0.001560 518.0 142.1
594(24) 0.001684 518.1 142.5
621(25) 0.001610 518.1 143.1
631(25) 0.001585 518.2 144.0
656(26) 0.001524 518.2 144.9
622(25) 0.001608 518.3 145.9
622(25) 0.001608 518.3 146.9
607(25) 0.001647 518.4 147.8
685(26) 0.001460 518.4 148.5
610(25) 0.001639 518.5 149.0
679(26) 0.001473 518.5 149.4
659(26) 0.001517 518.5 149.4
629(25) 0.001590 518.6 149.1
606(25) 0.001650 518.6 148.3
649(25) 0.001541 518.7 147.2
644(25) 0.001553 518.7 145.7
642(25) 0.001558 518.8 143.8
612(25) 0.001634 518.8 141.6
645(25) 0.001550 518.9 139.2
658(26) 0.001520 518.9 136.7
647(25) 0.001546 519.0 134.2
619(25) 0.001616 519.0 132.0
649(25) 0.001541 519.0 130.1
616(25) 0.001623 519.1 128.6
640(25) 0.001563 519.1 127.7
649(25) 0.001541 519.2 127.3
611(25) 0.001637 519.2 127.6
623(25) 0.001605 519.3 128.5
643(25) 0.001555 519.3 130.0
655(26) 0.001527 519.4 132.2
626(25) 0.001597 519.4 134.7
659(26) 0.001517 519.4 137.7
650(25) 0.001538 519.5 140.7
663(26) 0.001508 519.5 143.7
675(26) 0.001481 519.6 146.1
687(26) 0.001456 519.6 147.8
668(26) 0.001497 519.7 148.4
661(26) 0.001513 519.7 147.7
622(25) 0.001608 519.8 145.6
630(25) 0.001587 519.8 142.2
616(25) 0.001623 519.9 137.8
623(25) 0.001605 519.9 132.5
631(25) 0.001585 519.9 126.8
583(24) 0.001715 520.0 120.8
617(25) 0.001621 520.0 114.9
604(25) 0.001656 520.1 109.2
597(24) 0.001675 520.1 103.8
574(24) 0.001742 520.2 98.8
565(24) 0.001770 520.2 94.2
591(24) 0.001692 520.3 90.1
591(24) 0.001692 520.3 86.4
560(24) 0.001786 520.3 83.1
601(25) 0.001664 520.4 80.3
593(24) 0.001686 520.4 77.8
539(23) 0.001855 520.5 75.6
566(24) 0.001767 520.5 73.8
564(24) 0.001773 520.6 72.3
539(23) 0.001855 520.6 71.0
504(22) 0.001984 520.7 70.0
532(23) 0.001880 520.7 69.3
511(23) 0.001957 520.8 68.8
514(23) 0.001946 520.8 68.5
535(23) 0.001869 520.8 68.4
547(23) 0.001828 520.8 68.6
561(24) 0.001783 520.7 69.0
531(23) 0.001883 520.6 69.6
557(24) 0.001795 520.6 70.4
543(23) 0.001842 520.5 71.5
574(24) 0.001742 520.5 72.8
562(24) 0.001779 520.4 74.5
516(23) 0.001938 520.4 76.5
587(24) 0.001704 520.3 78.8
569(24) 0.001757 520.3 81.4
566(24) 0.001767 520.2 84.4
571(24) 0.001751 520.1 87.8
582(24) 0.001718 520.1 91.6
595(24) 0.001681 520.0 95.6
574(24) 0.001742 520.0 99.8
564(24) 0.001773 519.9 103.9
564(24) 0.001773 519.9 107.8
554(24) 0.001805 519.8 111.1
572(24) 0.001748 519.8 113.5
573(24) 0.001745 519.7 114.9
600(24) 0.001667 519.6 115.2
604(25) 0.001656 519.6 114.6
556(24) 0.001799 519.5 113.3
593(24) 0.001686 519.5 111.7
591(24) 0.001692 519.4 109.9
568(24) 0.001761 519.4 108.3
614(25) 0.001629 519.3 107.0
617(25) 0.001621 519.3 106.0
616(25) 0.001623 519.2 105.4
590(24) 0.001695 519.1 105.2
587(24) 0.001704 519.1 105.4
596(24) 0.001678 519.0 106.1
565(24) 0.001770 519.0 107.1
609(25) 0.001642 518.9 108.4
619(25) 0.001616 518.9 110.1
598(24) 0.001672 518.8 112.1
664(26) 0.001506 518.7 114.3
584(24) 0.001712 518.7 116.8
665(26) 0.001504 518.6 119.5
625(25) 0.001600 518.6 122.5
691(26) 0.001447 518.5 125.6
644(25) 0.001553 518.5 128.8
663(26) 0.001508 518.4 132.1
665(26) 0.001504 518.4 135.4
663(26) 0.001508 518.3 138.8
676(26) 0.001479 518.2 142.0
651(26) 0.001536 518.2 145.1
630(25) 0.001587 518.1 147.9
679(26) 0.001473 518.1 150.5
691(26) 0.001447 518.0 152.8
713(27) 0.001403 518.0 154.8
704(27) 0.001420 517.9 156.6
685(26) 0.001460 517.9 158.0
738(27) 0.001355 517.8 159.3
742(27) 0.001348 517.7 160.5
698(26) 0.001433 517.7 161.5
688(26) 0.001453 517.6 162.4
723(27) 0.001383 517.6 163.2
716(27) 0.001397 517.5 164.0
713(27) 0.001403 517.5 164.7
722(27) 0.001385 517.4 165.3
742(27) 0.001348 517.4 165.8
679(26) 0.001473 517.3 166.1
749(27) 0.001335 517.2 166.4
702(26) 0.001424 517.2 166.5
667(26) 0.001499 517.1 166.4
723(27) 0.001383 517.1 166.2
722(27) 0.001385 517.0 165.8
709(27) 0.001410 517.0 165.1
682(26) 0.001466 516.9 164.3
680(26) 0.001471 516.8 163.3
687(26) 0.001456 516.8 162.1
712(27) 0.001404 516.7 160.7
699(26) 0.001431 516.7 159.2
739(27) 0.001353 516.6 157.4
693(26) 0.001443 516.6 155.5
669(26) 0.001495 516.5 153.5
681(26) 0.001468 516.5 151.3
726(27) 0.001377 516.4 149.0
738(27) 0.001355 516.3 146.6
681(26) 0.001468 516.3 144.2
682(26) 0.001466 516.2 141.7
682(26) 0.001466 516.2 139.2
680(26) 0.001471 516.1 136.6
689(26) 0.001451 516.1 134.0
667(26) 0.001499 516.0 131.5
625(25) 0.001600 516.0 128.9
663(26) 0.001508 515.9 126.4
707(27) 0.001414 515.8 123.8
672(26) 0.001488 515.8 121.3
668(26) 0.001497 515.7 118.9
672(26) 0.001488 515.7 116.5
652(26) 0.001534 515.6 114.1
668(26) 0.001497 515.6 111.8
647(25) 0.001546 515.5 109.5
718(27) 0.001393 515.5 107.3
652(26) 0.001534 515.4 105.1
636(25) 0.001572 515.3 103.0
604(25) 0.001656 515.3 101.0
630(25) 0.001587 515.2 99.0
658(26) 0.001520 515.2 97.0
612(25) 0.001634 515.1 95.1
600(24) 0.001667 515.1 93.2
666(26) 0.001501 515.0 91.4
622(25) 0.001608 514.9 89.6
616(25) 0.001623 514.9 87.9
642(25) 0.001558 514.8 86.2
584(24) 0.001712 514.8 84.6
590(24) 0.001695 514.7 83.0
676(26) 0.001479 514.7 81.4
580(24) 0.001724 514.6 79.9
607(25) 0.001647 514.6 78.4
618(25) 0.001618 514.5 76.9
586(24) 0.001706 514.4 75.4
583(24) 0.001715 514.4 74.0
615(25) 0.001626 514.3 72.6
632(25) 0.001582 514.3 71.2
608(25) 0.001645 514.2 69.9
611(25) 0.001637 514.2 68.6
615(25) 0.001626 514.1 67.3
606(25) 0.001650 514.1 66.0
619(25) 0.001616 514.0 64.8
609(25) 0.001642 513.9 63.6
637(25) 0.001570 513.9 62.5
617(25) 0.001621 513.8 61.4
608(25) 0.001645 513.8 60.3
634(25) 0.001577 513.7 59.3
586(24) 0.001706 513.7 58.3
597(24) 0.001675 513.6 57.3
616(25) 0.001623 513.6 56.4
621(25) 0.001610 513.5 55.6
558(24) 0.001792 513.4 54.7
596(24) 0.001678 513.4 54.0
605(25) 0.001653 513.3 53.2
575(24) 0.001739 513.3 52.5
627(25) 0.001595 513.2 51.9
621(25) 0.001610 513.2 51.3
570(24) 0.001754 513.1 50.7
619(25) 0.001616 513.0 50.2
607(25) 0.001647 513.0 49.7
606(25) 0.001650 512.9 49.3
631(25) 0.001585 512.9 48.9
583(24) 0.001715 512.8 48.5
615(25) 0.001626 512.8 48.2
562(24) 0.001779 512.7 47.9
606(25) 0.001650 512.7 47.7
611(25) 0.001637 512.6 47.5
617(25) 0.001621 512.5 47.4
609(25) 0.001642 512.5 47.3
596(24) 0.001678 512.4 47.2
643(25) 0.001555 512.4 47.2
635(25) 0.001575 512.3 47.2
605(25) 0.001653 512.3 47.3
587(24) 0.001704 512.2 47.4
600(24) 0.001667 512.2 47.6
607(25) 0.001647 512.1 47.8
606(25) 0.001650 512.0 48.1
652(26) 0.001534 512.0 48.4
628(25) 0.001592 511.9 48.8
650(25) 0.001538 511.9 49.2
656(26) 0.001524 511.8 49.7
660(26) 0.001515 511.8 50.3
643(25) 0.001555 511.7 50.9
680(26) 0.001471 511.7 51.6
670(26) 0.001493 511.6 52.4
648(25) 0.001543 511.5 53.2
661(26) 0.001513 511.5 54.2
644(25) 0.001553 511.4 55.2
676(26) 0.001479 511.4 56.3
672(26) 0.001488 511.3 57.4
687(26) 0.0 0.0 .
742(27) 0.0 0.0 .
712(27) 0.0 0.0 .
751(27) 0.0 0.0 .
743(27) 0.0 0.0 .
769(28) 0.0 0.0 .
773(28) 0.0 0.0 .
800(28) 0.0 0.0 .
774(28) 0.0 0.0 .
768(28) 0.0 0.0 .
815(29) 0.0 0.0 .
834(29) 0.0 0.0 .
803(28) 0.0 0.0 .
844(29) 0.0 0.0 .
838(29) 0.0 0.0 .
844(29) 0.0 0.0 .
890(30) 0.0 0.0 .
857(29) 0.0 0.0 .
830(29) 0.0 0.0 .
902(30) 0.0 0.0 .
897(30) 0.0 0.0 .
931(31) 0.0 0.0 .
957(31) 0.0 0.0 .
903(30) 0.0 0.0 .
956(31) 0.0 0.0 .
976(31) 0.0 0.0 .
1006(32) 0.0 0.0 .
1008(32) 0.0 0.0 .
1093(33) 0.0 0.0 .
1099(33) 0.0 0.0 .
1081(33) 0.0 0.0 .
1111(33) 0.0 0.0 .
1130(34) 0.0 0.0 .
1178(34) 0.0 0.0 .
1261(36) 0.0 0. .
1274(36) 0.0 0. .
1337(37) 0.0 0. .
1406(37) 0.0 0. .
1406(37) 0.0 0. .
1432(38) 0.0 0. .
1512(39) 0.0 0. .
1644(41) 0.0 0. .
1759(42) 0.0 0. .
1764(42) 0.0 0. .
1973(44) 0.0 0. .
2064(45) 0.0 0. .
2125(46) 0.0 0. .
2279(48) 0.0 0. .
2411(49) 0.0 0. .
2568(51) 0.0 0. .
2855(53) 0.0 0. .
3062(55) 0.0 0. .
3326(58) 0.0 0. .
3635(60) 0.0 0. .
4136(64) 0.0 0. .
4596(68) 0.0 0. .
5111(71) 0.0 0. .
5845(76) 0.0 0. .
6402(80) 0.0 0. .
7385(86) 0.0 0. .
8651(93) 0.0 0. .
9930(100) 0.0 0. .
11780(110) 0.0 0. .
14150(120) 0.0 0. .
17460(130) 0.0 0. .
21170(150) 0.0 0. .
26660(160) 0.0 0. .
33400(180) 0.0 0. .
43310(210) 0.0 0. .
56880(240) 0.0 0. .
74880(270) 0.0 0. .
98980(320) 0.0 0. .
127940(360) 0.0 0. .
154720(390) 0.0 0. .
174810(420) 0.0 0. .
179930(420) 0.0 0. .
167660(410) 0.0 0. .
141790(380) 0.0 0. .
110940(330) 0.0 0. .
84030(290) 0.0 0. .
63470(250) 0.0 0. .
48120(220) 0.0 0. .
36780(190) 0.0 0. .
28640(170) 0.0 0. .
22690(150) 0.0 0. .
18500(140) 0.0 0. .
15000(120) 0.0 0. .
12460(110) 0.0 0. .
10190(100) 0.0 0. .
8540(92) 0.0 0. .
7531(87) 0.0 0. .
6506(81) 0.0 0. .
5741(76) 0.0 0. .
5100(71) 0.0 0. .
4541(67) 0.0 0. .
4088(64) 0.0 0. .
3710(61) 0.0 0. .
3408(58) 0.0 0. .
3116(56) 0.0 0. .
2770(53) 0.0 0. .
2634(51) 0.0 0. .
2403(49) 0.0 0. .
2228(47) 0.0 0. .
2151(46) 0.0 0. .
2053(45) 0.0 0. .
1934(44) 0.0 0. .
1808(43) 0.0 0. .
1744(42) 0.0 0. .
1649(41) 0.0 0. .
1563(40) 0.0 0. .
1485(39) 0.0 0. .
1417(38) 0.0 0. .
1356(37) 0.0 0. .
1366(37) 0.0 0. .
1270(36) 0.0 0. .
1218(35) 0.0 0.0 .
1168(34) 0.0 0.0 .
1182(34) 0.0 0.0 .
1132(34) 0.0 0.0 .
1137(34) 0.0 0.0 .
1116(33) 0.0 0.0 .
1065(33) 0.0 0.0 .
1035(32) 0.0 0.0 .
1040(32) 0.0 0.0 .
1049(32) 0.0 0.0 .
1015(32) 0.0 0.0 .
1064(33) 0.0 0.0 .
953(31) 0.0 0.0 .
948(31) 0.0 0.0 .
974(31) 0.0 0.0 .
950(31) 0.0 0.0 .
925(30) 0.0 0.0 .
941(31) 0.0 0.0 .
946(31) 0.0 0.0 .
858(29) 0.0 0.0 .
911(30) 0.0 0.0 .
936(31) 0.0 0.0 .
868(29) 0.0 0.0 .
923(30) 0.0 0.0 .
874(30) 0.0 0.0 .
871(30) 0.0 0.0 .
891(30) 0.0 0.0 .
875(30) 0.0 0.0 .
834(29) 0.0 0.0 .
811(28) 0.0 0.0 .
812(28) 0.001232 503.2 159.2
844(29) 0.001185 503.1 158.8
834(29) 0.001199 503.0 158.1
810(28) 0.001235 503.0 157.4
792(28) 0.001263 502.9 156.6
867(29) 0.001153 502.9 155.8
804(28) 0.001244 502.8 155.0
796(28) 0.001256 502.8 154.3
803(28) 0.001245 502.7 153.7
808(28) 0.001238 502.7 153.2
780(28) 0.001282 502.6 152.8
803(28) 0.001245 502.5 152.7
753(27) 0.001328 502.5 152.7
793(28) 0.001261 502.4 153.0
728(27) 0.001374 502.4 153.7
763(28) 0.001311 502.3 154.6
760(28) 0.001316 502.3 156.1
743(27) 0.001346 502.2 158.0
740(27) 0.001351 502.2 160.4
744(27) 0.001344 502.1 163.5
719(27) 0.001391 502.0 167.3
749(27) 0.001335 502.0 171.9
718(27) 0.001393 501.9 177.3
719(27) 0.001391 501.9 183.4
796(28) 0.001256 501.8 190.4
753(27) 0.001328 501.8 197.9
735(27) 0.001361 501.7 205.9
735(27) 0.001361 501.7 213.9
779(28) 0.001284 501.6 221.4
836(29) 0.001196 501.5 227.7
769(28) 0.001300 501.5 232.1
763(28) 0.001311 501.4 233.9
756(27) 0.001323 501.4 232.9
722(27) 0.001385 501.3 229.0
725(27) 0.001379 501.3 222.8
733(27) 0.001364 501.2 214.8
730(27) 0.001370 501.1 205.8
709(27) 0.001410 501.1 196.4
685(26) 0.001460 501.0 187.1
687(26) 0.001456 501.0 178.1
705(27) 0.001418 500.9 169.7
704(27) 0.001420 500.9 162.0
669(26) 0.001495 500.8 155.0
648(25) 0.001543 500.8 148.8
697(26) 0.001435 500.7 143.3
616(25) 0.001623 500.6 138.4
692(26) 0.001445 500.6 134.2
678(26) 0.001475 500.5 130.4
636(25) 0.001572 500.5 127.1
696(26) 0.001437 500.4 124.2
677(26) 0.001477 500.4 121.7
660(26) 0.001515 500.3 119.5
655(26) 0.001527 500.3 117.6
679(26) 0.001473 500.2 116.0
636(25) 0.001572 500.1 114.5
648(25) 0.001543 500.1 113.3
655(26) 0.001527 500.0 112.2
680(26) 0.001471 500.0 111.1
655(26) 0.001527 499.9 110.1
670(26) 0.001493 499.9 109.0
660(26) 0.001515 499.8 108.0
642(25) 0.001558 499.8 107.0
650(25) 0.001538 499.7 106.0
584(24) 0.001712 499.6 105.3
600(24) 0.001667 499.6 104.7
601(25) 0.001664 499.5 104.5
620(25) 0.001613 499.5 104.5
599(24) 0.001669 499.4 105.0
600(24) 0.001667 499.4 105.9
663(26) 0.001508 499.3 107.2
615(25) 0.001626 499.2 109.0
623(25) 0.001605 499.2 111.3
616(25) 0.001623 499.1 114.2
671(26) 0.001490 499.1 117.5
621(25) 0.001610 499.0 121.4
656(26) 0.001524 499.0 125.7
617(25) 0.001621 498.9 130.6
673(26) 0.001486 498.9 136.0
626(25) 0.001597 498.8 141.8
625(25) 0.001600 498.7 148.0
684(26) 0.001462 498.7 154.5
689(26) 0.001451 498.6 161.2
693(26) 0.001443 498.6 167.8
713(27) 0.001403 498.5 174.2
737(27) 0.001357 498.5 180.1
751(27) 0.001332 498.4 185.2
706(27) 0.001416 498.4 189.3
699(26) 0.001431 498.3 192.0
686(26) 0.001458 498.2 193.2
736(27) 0.001359 498.2 192.7
707(27) 0.001414 498.1 190.6
679(26) 0.001473 498.1 187.0
685(26) 0.001460 498.0 182.1
693(26) 0.001443 498.0 176.1
714(27) 0.001401 497.9 169.5
687(26) 0.001456 497.9 162.4
617(25) 0.001621 497.8 155.2
660(26) 0.001515 497.7 148.0
676(26) 0.001479 497.7 141.0
651(26) 0.001536 497.6 134.3
632(25) 0.001582 497.6 127.9
603(25) 0.001658 497.5 122.1
554(24) 0.001805 497.5 116.7
624(25) 0.001603 497.4 111.9
613(25) 0.001631 497.3 107.6
614(25) 0.001629 497.3 103.7
579(24) 0.001727 497.2 100.4
586(24) 0.001706 497.2 97.6
619(25) 0.001616 497.1 95.3
560(24) 0.001786 497.1 93.4
596(24) 0.001678 497.0 92.0
631(25) 0.001585 497.0 91.0
599(24) 0.001669 496.9 90.4
571(24) 0.001751 496.8 90.3
589(24) 0.001698 496.8 90.5
568(24) 0.001761 496.7 91.1
583(24) 0.001715 496.7 92.1
608(25) 0.001645 496.6 93.5
639(25) 0.001565 496.6 95.1
596(24) 0.001678 496.5 97.1
618(25) 0.001618 496.5 99.3
609(25) 0.001642 496.4 101.7
575(24) 0.001739 496.3 104.2
652(26) 0.001534 496.3 106.8
611(25) 0.001637 496.2 109.3
577(24) 0.001733 496.2 111.6
582(24) 0.001718 496.1 113.5
627(25) 0.001595 496.1 115.0
626(25) 0.001597 496.0 115.9
607(25) 0.001647 496.0 116.2
617(25) 0.001621 495.9 115.9
613(25) 0.001631 495.8 114.9
580(24) 0.001724 495.8 113.4
532(23) 0.001880 495.7 111.5
604(25) 0.001656 495.7 109.2
573(24) 0.001745 495.6 106.7
572(24) 0.001748 495.6 104.0
606(25) 0.001650 495.5 101.3
596(24) 0.001678 495.4 98.6
556(24) 0.001799 495.4 95.9
556(24) 0.001799 495.3 93.3
576(24) 0.001736 495.3 90.7
533(23) 0.001876 495.2 88.3
558(24) 0.001792 495.2 86.0
562(24) 0.001779 495.1 83.8
564(24) 0.001773 495.1 81.8
568(24) 0.001761 495.0 79.8
527(23) 0.001898 494.9 78.0
521(23) 0.001919 494.9 76.2
536(23) 0.001866 494.8 74.5
513(23) 0.001949 494.8 72.9
529(23) 0.001890 494.7 71.4
523(23) 0.001912 494.7 70.0
522(23) 0.001916 494.6 68.6
524(23) 0.001908 494.6 67.3
572(24) 0.001748 494.5 66.2
520(23) 0.001923 494.4 65.2
534(23) 0.001873 494.4 64.2
517(23) 0.001934 494.3 63.4
516(23) 0.001938 494.3 62.8
508(23) 0.001968 494.2 62.2
567(24) 0.001764 494.2 61.7
518(23) 0.001931 494.1 61.4
513(23) 0.001949 494.1 61.1
518(23) 0.001931 494.0 61.0
533(23) 0.001876 493.9 61.0
523(23) 0.001912 493.9 61.0
490(22) 0.002041 493.8 61.2
502(22) 0.001992 493.8 61.5
491(22) 0.002037 493.7 61.8
516(23) 0.001938 493.7 62.3
543(23) 0.001842 493.6 62.8
542(23) 0.001845 493.6 63.4
524(23) 0.001908 493.5 64.2
526(23) 0.001901 493.5 65.0
511(23) 0.001957 493.4 65.9
519(23) 0.001927 493.4 67.0
511(23) 0.001957 493.4 68.1
518(23) 0.001931 493.3 69.4
510(23) 0.001961 493.3 70.8
522(23) 0.001916 493.2 72.3
545(23) 0.001835 493.2 73.9
539(23) 0.001855 493.1 75.7
524(23) 0.001908 493.1 77.6
576(24) 0.001736 493.0 79.7
569(24) 0.001757 493.0 82.1
556(24) 0.001799 493.0 84.8
571(24) 0.001751 492.9 87.8
567(24) 0.001764 492.9 91.3
584(24) 0.001712 492.8 95.3
580(24) 0.001724 492.8 99.8
573(24) 0.001745 492.7 104.9
588(24) 0.001701 492.7 110.6
595(24) 0.001681 492.6 117.0
625(25) 0.001600 492.6 124.1
631(25) 0.001585 492.6 131.9
631(25) 0.001585 492.5 140.2
651(26) 0.001536 492.5 149.0
665(26) 0.001504 492.4 158.1
665(26) 0.001504 492.4 167.2
709(27) 0.001410 492.3 175.9
756(27) 0.001323 492.3 183.8
763(28) 0.001311 492.2 190.4
807(28) 0.001239 492.2 195.1
707(27) 0.001414 492.2 197.5
733(27) 0.001364 492.1 197.5
692(26) 0.001445 492.1 195.2
653(26) 0.001531 492.0 190.6
656(26) 0.001524 492.0 184.4
638(25) 0.001567 491.9 177.0
618(25) 0.001618 491.9 168.9
621(25) 0.001610 491.8 160.6
623(25) 0.001605 491.8 152.4
651(26) 0.001536 491.8 144.6
588(24) 0.001701 491.7 137.3
602(25) 0.001661 491.7 130.7
566(24) 0.001767 491.6 124.8
607(25) 0.001647 491.6 119.6
615(25) 0.001626 491.5 115.1
604(25) 0.001656 491.5 111.2
598(24) 0.001672 491.5 108.0
617(25) 0.001621 491.4 105.4
621(25) 0.001610 491.4 103.4
630(25) 0.001587 491.3 101.8
607(25) 0.001647 491.3 100.7
546(23) 0.001832 491.2 100.0
577(24) 0.001733 491.2 99.6
611(25) 0.001637 491.1 99.5
648(25) 0.001543 491.1 99.8
577(24) 0.001733 491.1 100.3
606(25) 0.001650 491.0 101.0
627(25) 0.001595 491.0 101.9
611(25) 0.001637 490.9 103.1
629(25) 0.001590 490.9 104.4
636(25) 0.001572 490.8 106.0
611(25) 0.001637 490.8 107.6
672(26) 0.001488 490.7 109.4
663(26) 0.001508 490.7 111.3
631(25) 0.001585 490.7 113.3
674(26) 0.001484 490.6 115.3
677(26) 0.001477 490.6 117.4
622(25) 0.001608 490.5 119.4
635(25) 0.001575 490.5 121.4
684(26) 0.001462 490.4 123.3
668(26) 0.001497 490.4 125.1
649(25) 0.001541 490.3 126.8
651(26) 0.001536 490.3 128.3
671(26) 0.001490 490.3 129.6
688(26) 0.001453 490.2 130.7
662(26) 0.001511 490.2 131.5
660(26) 0.001515 490.1 132.1
633(25) 0.001580 490.1 132.5
646(25) 0.001548 490.0 132.7
628(25) 0.001592 490.0 132.8
687(26) 0.001456 490.0 132.7
640(25) 0.001563 489.9 132.5
647(25) 0.001546 489.9 132.4
608(25) 0.001645 489.8 132.2
649(25) 0.001541 489.8 132.2
637(25) 0.001570 489.7 132.3
630(25) 0.001587 489.7 132.6
648(25) 0.001543 489.6 133.2
640(25) 0.001563 489.6 134.0
613(25) 0.001631 489.6 135.2
621(25) 0.001610 489.5 136.6
601(25) 0.001664 489.5 138.5
601(25) 0.001664 489.4 140.7
649(25) 0.001541 489.4 143.4
645(25) 0.001550 489.3 146.4
630(25) 0.001587 489.3 149.9
623(25) 0.001605 489.2 153.8
665(26) 0.001504 489.2 158.1
716(27) 0.001397 489.2 162.7
624(25) 0.001603 489.1 167.6
698(26) 0.001433 489.1 172.7
696(26) 0.001437 489.0 177.8
671(26) 0.001490 489.0 183.0
670(26) 0.001493 488.9 187.9
697(26) 0.001435 488.9 192.4
701(26) 0.001427 488.8 196.3
703(27) 0.001422 488.8 199.7
746(27) 0.001340 488.8 202.4
734(27) 0.001362 488.7 204.4
755(27) 0.001324 488.7 205.8
733(27) 0.001364 488.6 206.8
728(27) 0.001374 488.6 207.6
727(27) 0.001376 488.5 208.2
779(28) 0.001284 488.5 209.0
684(26) 0.001462 488.4 210.0
696(26) 0.001437 488.4 211.5
724(27) 0.001381 488.4 213.3
742(27) 0.001348 488.3 215.7
759(28) 0.001318 488.3 218.6
753(27) 0.001328 488.2 222.0
773(28) 0.001294 488.2 225.9
771(28) 0.001297 488.1 230.0
818(29) 0.001222 488.1 234.3
814(29) 0.001228 488.1 238.6
823(29) 0.001215 488.0 242.6
806(28) 0.001241 488.0 246.2
781(28) 0.001280 487.9 249.2
796(28) 0.001256 487.9 251.5
730(27) 0.001370 487.8 253.0
840(29) 0.001190 487.8 253.7
779(28) 0.001284 487.7 253.8
774(28) 0.001292 487.7 253.3
777(28) 0.001287 487.7 252.4
775(28) 0.001290 487.6 251.1
714(27) 0.001401 487.6 249.6
840(29) 0.001190 487.5 247.9
751(27) 0.001332 487.5 246.1
769(28) 0.001300 487.4 244.1
733(27) 0.001364 487.4 242.0
740(27) 0.001351 487.3 239.9
744(27) 0.001344 487.3 237.8
757(28) 0.001321 487.3 235.8
758(28) 0.001319 487.2 233.9
773(28) 0.001294 487.2 232.2
752(27) 0.001330 487.1 230.6
727(27) 0.001376 487.1 229.4
770(28) 0.001299 487.0 228.3
713(27) 0.001403 487.0 227.6
781(28) 0.001280 486.9 227.1
750(27) 0.001333 486.9 227.0
738(27) 0.001355 486.9 227.1
778(28) 0.001285 486.8 227.4
731(27) 0.001368 486.8 227.9
733(27) 0.001364 486.7 228.6
761(28) 0.001314 486.7 229.4
736(27) 0.001359 486.6 230.1
761(28) 0.001314 486.6 230.6
808(28) 0.001238 486.6 230.7
764(28) 0.001309 486.5 230.4
760(28) 0.001316 486.5 229.5
786(28) 0.001272 486.4 227.8
812(28) 0.001232 486.4 225.4
744(27) 0.001344 486.3 222.4
812(28) 0.001232 486.3 218.7
769(28) 0.001300 486.2 214.6
789(28) 0.001267 486.2 210.2
780(28) 0.001282 486.2 205.7
770(28) 0.001299 486.1 201.2
773(28) 0.001294 486.1 196.8
751(27) 0.001332 486.0 192.6
741(27) 0.001350 486.0 188.6
779(28) 0.001284 485.9 185.0
697(26) 0.001435 485.9 181.6
692(26) 0.001445 485.8 178.6
765(28) 0.001307 485.8 175.9
761(28) 0.001314 485.8 173.6
746(27) 0.001340 485.7 171.6
736(27) 0.001359 485.7 169.9
729(27) 0.001372 485.6 168.6
703(27) 0.001422 485.6 167.5
734(27) 0.001362 485.5 166.8
732(27) 0.001366 485.5 166.3
725(27) 0.001379 485.4 166.0
767(28) 0.001304 485.4 165.9
791(28) 0.0 0.0 .
798(28) 0.0 0.0 .
838(29) 0.0 0.0 .
807(28) 0.0 0.0 .
837(29) 0.0 0.0 .
906(30) 0.0 0.0 .
885(30) 0.0 0.0 .
960(31) 0.0 0.0 .
911(30) 0.0 0.0 .
926(30) 0.0 0.0 .
964(31) 0.0 0.0 .
1006(32) 0.0 0.0 .
1050(32) 0.0 0.0 .
1059(33) 0.0 0.0 .
1100(33) 0.0 0.0 .
1225(35) 0.0 0.0 .
1310(36) 0.0 0. .
1399(37) 0.0 0. .
1512(39) 0.0 0. .
1672(41) 0.0 0. .
1921(44) 0.0 0. .
2066(45) 0.0 0. .
2368(49) 0.0 0. .
2738(52) 0.0 0. .
3176(56) 0.0 0. .
3867(62) 0.0 0. .
4749(69) 0.0 0. .
5912(77) 0.0 0. .
7602(87) 0.0 0. .
9356(97) 0.0 0. .
12170(110) 0.0 0. .
15540(130) 0.0 0. .
19270(140) 0.0 0. .
22280(150) 0.0 0. .
23400(150) 0.0 0. .
21500(150) 0.0 0. .
18670(140) 0.0 0. .
15000(120) 0.0 0. .
11540(110) 0.0 0. .
9101(95) 0.0 0. .
7015(84) 0.0 0. .
5635(75) 0.0 0. .
4524(67) 0.0 0. .
3635(60) 0.0 0. .
2970(54) 0.0 0. .
2583(51) 0.0 0. .
2187(47) 0.0 0. .
1854(43) 0.0 0. .
1625(40) 0.0 0. .
1407(38) 0.0 0. .
1300(36) 0.0 0. .
1223(35) 0.0 0.0 .
1120(33) 0.0 0.0 .
1044(32) 0.0 0.0 .
1041(32) 0.0 0.0 .
982(31) 0.0 0.0 .
945(31) 0.0 0.0 .
907(30) 0.0 0.0 .
840(29) 0.0 0.0 .
856(29) 0.0 0.0 .
828(29) 0.0 0.0 .
783(28) 0.0 0.0 .
734(27) 0.0 0.0 .
790(28) 0.0 0.0 .
755(27) 0.0 0.0 .
760(28) 0.0 0.0 .
739(27) 0.0 0.0 .
687(26) 0.0 0.0 .
710(27) 0.0 0.0 .
695(26) 0.0 0.0 .
684(26) 0.0 0.0 .
686(26) 0.0 0.0 .
679(26) 0.0 0.0 .
672(26) 0.001488 482.1 122.8
672(26) 0.001488 482.1 123.4
665(26) 0.001504 482.0 123.7
666(26) 0.001501 482.0 123.9
640(25) 0.001563 482.0 123.8
634(25) 0.001577 481.9 123.5
673(26) 0.001486 481.9 123.0
719(27) 0.001391 481.8 122.3
670(26) 0.001493 481.8 121.4
680(26) 0.001471 481.7 120.3
643(25) 0.001555 481.7 119.0
660(26) 0.001515 481.6 117.6
634(25) 0.001577 481.6 116.1
589(24) 0.001698 481.6 114.5
577(24) 0.001733 481.5 112.8
597(24) 0.001675 481.5 111.1
618(25) 0.001618 481.4 109.3
599(24) 0.001669 481.4 107.6
579(24) 0.001727 481.3 105.9
590(24) 0.001695 481.3 104.2
598(24) 0.001672 481.3 102.6
560(24) 0.001786 481.2 101.1
557(24) 0.001795 481.2 99.7
567(24) 0.001764 481.1 98.3
582(24) 0.001718 481.1 97.1
569(24) 0.001757 481.0 96.0
593(24) 0.001686 481.0 95.1
578(24) 0.001730 480.9 94.3
613(25) 0.001631 480.9 93.6
581(24) 0.001721 480.9 93.1
559(24) 0.001789 480.8 92.7
547(23) 0.001828 480.8 92.5
535(23) 0.001869 480.7 92.4
583(24) 0.001715 480.7 92.5
599(24) 0.001669 480.6 92.8
576(24) 0.001736 480.6 93.2
577(24) 0.001733 480.5 93.7
593(24) 0.001686 480.5 94.4
587(24) 0.001704 480.5 95.2
581(24) 0.001721 480.4 96.2
587(24) 0.001704 480.4 97.3
549(23) 0.001822 480.3 98.4
586(24) 0.001706 480.3 99.7
595(24) 0.001681 480.2 101.0
583(24) 0.001715 480.2 102.4
586(24) 0.001706 480.1 103.7
600(24) 0.001667 480.1 105.0
553(24) 0.001808 480.1 106.2
609(25) 0.001642 480.0 107.4
569(24) 0.001757 480.0 108.4
592(24) 0.001689 479.9 109.2
570(24) 0.001754 479.9 109.8
590(24) 0.001695 479.8 110.3
608(25) 0.001645 479.8 110.6
582(24) 0.001718 479.8 110.7
591(24) 0.001692 479.7 110.6
561(24) 0.001783 479.7 110.4
605(25) 0.001653 479.6 110.1
583(24) 0.001715 479.6 109.8
603(25) 0.001658 479.5 109.4
603(25) 0.001658 479.5 109.0
599(24) 0.001669 479.4 108.7
641(25) 0.001560 479.4 108.4
597(24) 0.001675 479.4 108.3
601(25) 0.001664 479.3 108.3
613(25) 0.001631 479.3 108.5
630(25) 0.001587 479.2 108.8
561(24) 0.001783 479.2 109.4
643(25) 0.001555 479.1 110.1
621(25) 0.001610 479.1 111.1
569(24) 0.001757 479.0 112.4
598(24) 0.001672 479.0 113.8
539(23) 0.001855 479.0 115.6
577(24) 0.001733 478.9 117.6
592(24) 0.001689 478.9 120.0
550(23) 0.001818 478.8 122.6
609(25) 0.001642 478.8 125.5
603(25) 0.001658 478.7 128.8
639(25) 0.001565 478.7 132.3
590(24) 0.001695 478.6 136.2
624(25) 0.001603 478.6 140.4
627(25) 0.001595 478.6 144.9
627(25) 0.001595 478.5 149.7
628(25) 0.001592 478.5 154.8
628(25) 0.001592 478.4 160.1
662(26) 0.001511 478.4 165.7
643(25) 0.001555 478.3 171.4
652(26) 0.001534 478.3 177.2
699(26) 0.001431 478.2 183.1
681(26) 0.001468 478.2 188.9
706(27) 0.001416 478.2 194.5
708(27) 0.001412 478.1 199.8
712(27) 0.001404 478.1 204.8
698(26) 0.001433 478.0 209.1
722(27) 0.001385 478.0 212.9
703(27) 0.001422 477.9 215.8
769(28) 0.001300 477.9 218.0
766(28) 0.001305 477.9 219.2
734(27) 0.001362 477.8 219.6
729(27) 0.001372 477.8 219.2
709(27) 0.001410 477.7 218.0
744(27) 0.001344 477.7 216.1
753(27) 0.001328 477.6 213.6
724(27) 0.001381 477.6 210.4
761(28) 0.001314 477.5 206.9
749(27) 0.001335 477.5 202.9
721(27) 0.001387 477.5 198.7
681(26) 0.001468 477.4 194.2
669(26) 0.001495 477.4 189.5
687(26) 0.001456 477.3 184.7
676(26) 0.001479 477.3 179.9
657(26) 0.001522 477.2 175.2
670(26) 0.001493 477.2 170.5
674(26) 0.001484 477.1 166.0
636(25) 0.001572 477.1 161.7
602(25) 0.001661 477.1 157.6
628(25) 0.001592 477.0 153.8
665(26) 0.001504 477.0 150.3
604(25) 0.001656 476.9 147.3
603(25) 0.001658 476.9 144.6
566(24) 0.001767 476.8 142.5
602(25) 0.001661 476.8 140.8
619(25) 0.001616 476.7 139.7
652(26) 0.001534 476.7 139.1
594(24) 0.001684 476.7 139.3
657(26) 0.001522 476.6 140.1
626(25) 0.001597 476.6 141.7
629(25) 0.001590 476.5 144.0
655(26) 0.001527 476.5 147.2
620(25) 0.001613 476.4 151.2
648(25) 0.001543 476.4 156.1
626(25) 0.001597 476.4 161.8
663(26) 0.001508 476.3 168.4
677(26) 0.001477 476.3 175.6
665(26) 0.001504 476.2 183.4
653(26) 0.001531 476.2 191.6
632(25) 0.001582 476.1 199.9
711(27) 0.001406 476.1 207.9
664(26) 0.001506 476.0 215.2
648(25) 0.001543 476.0 221.1
654(26) 0.001529 476.0 225.2
631(25) 0.001585 475.9 226.9
656(26) 0.001524 475.9 225.8
634(25) 0.001577 475.8 221.8
578(24) 0.001730 475.8 215.3
629(25) 0.001590 475.7 206.6
552(23) 0.001812 475.7 196.7
554(24) 0.001805 475.6 185.9
569(24) 0.001757 475.6 175.0
587(24) 0.001704 475.6 164.5
567(24) 0.001764 475.5 154.5
572(24) 0.001748 475.5 145.2
589(24) 0.001698 475.4 136.8
555(24) 0.001802 475.4 129.2
556(24) 0.001799 475.3 122.5
606(25) 0.001650 475.3 116.5
558(24) 0.001792 475.2 111.4
573(24) 0.001745 475.2 106.8
585(24) 0.001709 475.2 102.9
564(24) 0.001773 475.1 99.5
552(23) 0.001812 475.1 96.5
548(23) 0.001825 475.0 94.0
533(23) 0.001876 475.0 91.8
532(23) 0.001880 474.9 89.9
553(24) 0.001808 474.9 88.2
562(24) 0.001779 474.8 86.8
578(24) 0.001730 474.8 85.5
520(23) 0.001923 474.8 84.4
544(23) 0.001838 474.7 83.5
549(23) 0.001822 474.7 82.7
544(23) 0.001838 474.6 82.0
549(23) 0.001822 474.6 81.4
554(24) 0.001805 474.5 80.9
519(23) 0.001927 474.5 80.6
518(23) 0.001931 474.5 80.3
522(23) 0.001916 474.4 80.2
529(23) 0.001890 474.4 80.1
531(23) 0.001883 474.3 80.2
522(23) 0.001916 474.3 80.4
538(23) 0.001859 474.2 80.7
555(24) 0.001802 474.2 81.1
535(23) 0.001869 474.1 81.6
583(24) 0.001715 474.1 82.2
540(23) 0.001852 474.1 83.0
551(23) 0.001815 474.0 83.9
550(23) 0.001818 474.0 84.9
569(24) 0.001757 473.9 86.2
551(23) 0.001815 473.9 87.5
548(23) 0.001825 473.8 89.1
530(23) 0.001887 473.8 90.9
524(23) 0.001908 473.7 92.9
550(23) 0.001818 473.7 95.2
545(23) 0.001835 473.7 97.7
560(24) 0.001786 473.6 100.6
593(24) 0.001686 473.6 103.7
594(24) 0.001684 473.5 107.2
553(24) 0.001808 473.5 111.1
561(24) 0.001783 473.4 115.3
582(24) 0.001718 473.4 119.8
604(25) 0.001656 473.3 124.7
609(25) 0.001642 473.3 129.9
650(25) 0.001538 473.3 135.5
622(25) 0.001608 473.2 141.2
627(25) 0.001595 473.2 147.1
622(25) 0.001608 473.1 153.0
653(26) 0.001531 473.1 158.8
676(26) 0.001479 473.0 164.4
673(26) 0.001486 473.0 169.6
669(26) 0.001495 473.0 174.3
658(26) 0.001520 472.9 178.3
683(26) 0.001464 472.9 181.6
666(26) 0.001501 472.8 184.0
646(25) 0.001548 472.8 185.4
638(25) 0.001567 472.7 185.9
627(25) 0.001595 472.7 185.4
655(26) 0.001527 472.6 184.0
610(25) 0.001639 472.6 181.7
634(25) 0.001577 472.6 178.5
616(25) 0.001623 472.5 174.5
616(25) 0.001623 472.5 169.8
627(25) 0.001595 472.4 164.5
625(25) 0.001600 472.4 158.7
600(24) 0.001667 472.3 152.5
592(24) 0.001689 472.3 146.0
579(24) 0.001727 472.2 139.5
575(24) 0.001739 472.2 132.9
592(24) 0.001689 472.2 126.5
595(24) 0.001681 472.1 120.2
630(25) 0.001587 472.1 114.3
561(24) 0.001783 472.0 108.6
528(23) 0.001894 472.0 103.3
528(23) 0.001894 471.9 98.4
555(24) 0.001802 471.9 93.8
516(23) 0.001938 471.8 89.6
530(23) 0.001887 471.8 85.7
540(23) 0.001852 471.8 82.2
505(22) 0.001980 471.7 79.0
486(22) 0.002058 471.7 76.2
550(23) 0.001818 471.6 73.6
492(22) 0.002033 471.6 71.3
516(23) 0.001938 471.5 69.2
486(22) 0.002058 471.5 67.4
490(22) 0.002041 471.4 65.9
492(22) 0.002033 471.4 64.5
472(22) 0.002119 471.4 63.4
503(22) 0.001988 471.3 62.4
503(22) 0.001988 471.3 61.6
504(22) 0.001984 471.2 61.0
470(22) 0.002128 471.2 60.5
490(22) 0.002041 471.1 60.2
507(23) 0.001972 471.1 60.0
494(22) 0.002024 471.1 59.9
500(22) 0.002000 471.1 60.0
520(23) 0.001923 471.1 60.2
520(23) 0.001923 471.2 60.6
492(22) 0.002033 471.2 61.0
492(22) 0.002033 471.3 61.6
461(21) 0.002169 471.4 62.2
510(23) 0.001961 471.4 63.0
486(22) 0.002058 471.5 63.8
491(22) 0.002037 471.6 64.6
480(22) 0.002083 471.6 65.6
501(22) 0.001996 471.7 66.5
522(23) 0.001916 471.7 67.5
485(22) 0.002062 471.8 68.4
467(22) 0.002141 471.9 69.2
501(22) 0.001996 471.9 70.0
509(23) 0.001965 472.0 70.7
479(22) 0.002088 472.1 71.3
488(22) 0.002049 472.1 71.7
488(22) 0.002049 472.2 72.0
497(22) 0.002012 472.3 72.2
502(22) 0.001992 472.3 72.3
484(22) 0.002066 472.4 72.4
523(23) 0.001912 472.4 72.4
511(23) 0.001957 472.5 72.3
540(23) 0.001852 472.6 72.3
492(22) 0.002033 472.6 72.2
505(22) 0.001980 472.7 72.2
493(22) 0.002028 472.8 72.2
519(23) 0.001927 472.8 72.2
508(23) 0.001968 472.9 72.3
521(23) 0.001919 472.9 72.3
502(22) 0.001992 473.0 72.4
485(22) 0.002062 473.1 72.4
497(22) 0.002012 473.1 72.4
498(22) 0.002008 473.2 72.3
494(22) 0.002024 473.3 72.3
489(22) 0.002045 473.3 72.2
484(22) 0.002066 473.4 72.1
540(23) 0.001852 473.4 72.0
505(22) 0.001980 473.5 72.0
536(23) 0.001866 473.6 72.1
531(23) 0.001883 473.6 72.2
517(23) 0.001934 473.7 72.3
517(23) 0.001934 473.8 72.6
515(23) 0.001942 473.8 72.9
524(23) 0.001908 473.9 73.3
541(23) 0.001848 473.9 73.8
507(23) 0.001972 474.0 74.4
512(23) 0.001953 474.1 75.0
491(22) 0.002037 474.1 75.7
526(23) 0.001901 474.2 76.4
508(23) 0.001968 474.3 77.2
523(23) 0.001912 474.3 78.1
541(23) 0.001848 474.4 79.0
512(23) 0.001953 474.4 80.0
493(22) 0.002028 474.5 80.9
531(23) 0.001883 474.6 82.0
541(23) 0.001848 474.6 83.0
495(22) 0.002020 474.7 84.0
489(22) 0.002045 474.8 85.0
549(23) 0.001822 474.8 86.1
543(23) 0.001842 474.9 87.1
515(23) 0.001942 474.9 88.1
518(23) 0.001931 475.0 89.0
533(23) 0.001876 475.1 89.9
564(24) 0.001773 475.1 90.8
551(23) 0.001815 475.2 91.6
544(23) 0.001838 475.3 92.3
560(24) 0.001786 475.3 92.9
537(23) 0.001862 475.4 93.5
595(24) 0.001681 475.4 94.0
548(23) 0.001825 475.5 94.4
539(23) 0.001855 475.6 94.7
557(24) 0.001795 475.6 94.9
528(23) 0.001894 475.7 95.0
522(23) 0.001916 475.8 95.0
528(23) 0.001894 475.8 95.0
558(24) 0.001792 475.9 94.8
557(24) 0.001795 475.9 94.6
562(24) 0.001779 476.0 94.4
563(24) 0.001776 476.1 94.1
544(23) 0.001838 476.1 93.7
524(23) 0.001908 476.2 93.3
532(23) 0.001880 476.3 92.9
567(24) 0.001764 476.3 92.5
518(23) 0.001931 476.4 92.1
516(23) 0.001938 476.4 91.8
547(23) 0.001828 476.5 91.4
511(23) 0.001957 476.6 91.1
517(23) 0.001934 476.6 90.9
563(24) 0.001776 476.7 90.7
489(22) 0.002045 476.8 90.6
568(24) 0.001761 476.8 90.6
524(23) 0.001908 476.9 90.7
550(23) 0.001818 476.9 90.8
560(24) 0.001786 477.0 91.2
548(23) 0.001825 477.1 91.6
548(23) 0.001825 477.1 92.1
546(23) 0.001832 477.2 92.8
586(24) 0.001706 477.3 93.6
565(24) 0.001770 477.3 94.6
543(23) 0.001842 477.4 95.6
523(23) 0.001912 477.4 96.7
539(23) 0.001855 477.5 97.9
547(23) 0.001828 477.6 99.2
543(23) 0.001842 477.6 100.4
566(24) 0.001767 477.7 101.6
547(23) 0.001828 477.8 102.6
549(23) 0.001822 477.8 103.4
543(23) 0.001842 477.9 104.0
553(24) 0.001808 477.9 104.2
558(24) 0.001792 478.0 104.1
545(23) 0.001835 478.1 103.6
520(23) 0.001923 478.1 102.8
558(24) 0.001792 478.2 101.6
541(23) 0.001848 478.3 100.1
532(23) 0.001880 478.3 98.4
533(23) 0.001876 478.4 96.5
545(23) 0.001835 478.4 94.5
560(24) 0.001786 478.5 92.5
534(23) 0.001873 478.6 90.4
533(23) 0.001876 478.6 88.5
525(23) 0.001905 478.7 86.6
498(22) 0.002008 478.8 84.8
527(23) 0.001898 478.8 83.1
509(23) 0.001965 478.9 81.5
532(23) 0.001880 478.9 80.1
494(22) 0.002024 479.0 78.8
533(23) 0.001876 479.1 77.6
500(22) 0.002000 479.1 76.6
536(23) 0.001866 479.2 75.7
499(22) 0.002004 479.3 74.9
532(23) 0.001880 479.3 74.2
492(22) 0.002033 479.4 73.6
526(23) 0.001901 479.4 73.1
512(23) 0.001953 479.5 72.8
502(22) 0.001992 479.6 72.6
545(23) 0.001835 479.6 72.4
512(23) 0.001953 479.7 72.4
549(23) 0.001822 479.8 72.4
528(23) 0.001894 479.8 72.5
522(23) 0.001916 479.9 72.8
512(23) 0.001953 479.9 73.1
523(23) 0.001912 480.0 73.5
594(24) 0.001684 480.1 74.0
515(23) 0.001942 480.1 74.5
499(22) 0.002004 480.2 75.2
513(23) 0.001949 480.3 75.9
515(23) 0.001942 480.3 76.7
525(23) 0.001905 480.4 77.6
497(22) 0.002012 480.4 78.5
487(22) 0.002053 480.5 79.5
511(23) 0.001957 480.6 80.6
586(24) 0.001706 480.6 81.8
521(23) 0.001919 480.7 83.0
519(23) 0.001927 480.8 84.2
545(23) 0.001835 480.8 85.5
537(23) 0.001862 480.9 86.9
516(23) 0.001938 480.9 88.2
505(22) 0.001980 481.0 89.5
533(23) 0.001876 481.1 90.8
523(23) 0.001912 481.1 92.1
547(23) 0.001828 481.2 93.3
556(24) 0.001799 481.3 94.3
536(23) 0.001866 481.3 95.3
546(23) 0.001832 481.4 96.1
550(23) 0.001818 481.4 96.7
566(24) 0.001767 481.5 97.1
548(23) 0.001825 481.6 97.3
541(23) 0.001848 481.6 97.3
547(23) 0.001828 481.7 97.0
567(24) 0.001764 481.8 96.5
548(23) 0.001825 481.8 95.8
535(23) 0.001869 481.9 94.8
511(23) 0.001957 482.0 93.7
583(24) 0.001715 482.0 92.4
572(24) 0.001748 482.1 90.9
536(23) 0.001866 482.1 89.3
523(23) 0.001912 482.2 87.7
559(24) 0.001789 482.3 85.9
540(23) 0.001852 482.3 84.2
533(23) 0.001876 482.4 82.4
539(23) 0.001855 482.5 80.6
554(24) 0.001805 482.5 78.8
507(23) 0.001972 482.6 77.1
503(22) 0.001988 482.6 75.4
540(23) 0.001852 482.7 73.8
547(23) 0.001828 482.8 72.2
510(23) 0.001961 482.8 70.7
507(23) 0.001972 482.9 69.3
534(23) 0.001873 483.0 68.0
516(23) 0.001938 483.0 66.7
530(23) 0.001887 483.1 65.5
499(22) 0.002004 483.1 64.4
484(22) 0.002066 483.2 63.4
517(23) 0.001934 483.3 62.4
497(22) 0.002012 483.3 61.5
493(22) 0.002028 483.4 60.7
498(22) 0.002008 483.5 60.0
528(23) 0.001894 483.5 59.3
522(23) 0.001916 483.6 58.7
507(23) 0.001972 483.6 58.2
515(23) 0.001942 483.7 57.8
520(23) 0.001923 483.8 57.4
549(23) 0.001822 483.8 57.0
505(22) 0.001980 483.9 56.7
496(22) 0.002016 484.0 56.5
517(23) 0.001934 484.0 56.3
527(23) 0.001898 484.1 56.1
499(22) 0.002004 484.1 56.0
497(22) 0.002012 484.2 55.9
528(23) 0.001894 484.3 55.8
499(22) 0.002004 484.3 55.8
514(23) 0.001946 484.4 55.7
506(22) 0.001976 484.5 55.7
492(22) 0.002033 484.5 55.7
514(23) 0.001946 484.6 55.7
495(22) 0.002020 484.7 55.8
521(23) 0.001919 484.7 55.8
527(23) 0.001898 484.8 55.8
519(23) 0.001927 484.9 55.9
478(22) 0.002092 485.0 55.9
538(23) 0.001859 485.1 56.0
509(23) 0.001965 485.1 56.0
507(23) 0.001972 485.2 56.1
515(23) 0.001942 485.3 56.2
499(22) 0.002004 485.4 56.2
514(23) 0.001946 485.5 56.3
495(22) 0.002020 485.5 56.4
534(23) 0.001873 485.6 56.5
497(22) 0.002012 485.7 56.7
484(22) 0.002066 485.8 56.8
542(23) 0.001845 485.9 56.9
550(23) 0.001818 485.9 57.1
518(23) 0.001931 486.0 57.2
556(24) 0.001799 486.1 57.4
512(23) 0.001953 486.2 57.6
488(22) 0.002049 486.3 57.8
535(23) 0.001869 486.3 58.1
497(22) 0.002012 486.4 58.3
515(23) 0.001942 486.5 58.6
498(22) 0.002008 486.6 58.9
563(24) 0.001776 486.7 59.2
481(22) 0.002079 486.7 59.6
521(23) 0.001919 486.8 59.9
500(22) 0.002000 486.9 60.3
513(23) 0.001949 487.0 60.7
506(22) 0.001976 487.1 61.1
514(23) 0.001946 487.1 61.5
530(23) 0.001887 487.2 62.0
483(22) 0.002070 487.3 62.5
508(23) 0.001968 487.4 63.0
552(23) 0.001812 487.5 63.5
500(22) 0.002000 487.5 64.1
492(22) 0.002033 487.6 64.7
531(23) 0.001883 487.7 65.4
523(23) 0.001912 487.8 66.1
538(23) 0.001859 487.9 66.8
495(22) 0.002020 487.9 67.5
513(23) 0.001949 488.0 68.2
549(23) 0.001822 488.1 69.0
542(23) 0.001845 488.2 69.8
514(23) 0.001946 488.3 70.5
522(23) 0.001916 488.4 71.3
533(23) 0.001876 488.4 72.2
532(23) 0.001880 488.5 73.0
526(23) 0.001901 488.6 73.8
490(22) 0.002041 488.7 74.7
500(22) 0.002000 488.8 75.5
520(23) 0.001923 488.8 76.4
506(22) 0.001976 488.9 77.2
544(23) 0.001838 489.0 78.1
530(23) 0.001887 489.1 79.0
543(23) 0.001842 489.2 79.9
593(24) 0.001686 489.2 80.8
544(23) 0.001838 489.3 81.8
527(23) 0.001898 489.4 82.7
517(23) 0.001934 489.5 83.7
506(22) 0.001976 489.6 84.7
530(23) 0.001887 489.6 85.8
542(23) 0.001845 489.7 86.8
552(23) 0.001812 489.8 88.0
511(23) 0.001957 489.9 89.1
528(23) 0.001894 490.0 90.4
530(23) 0.001887 490.0 91.7
530(23) 0.001887 490.1 93.1
544(23) 0.001838 490.2 94.7
576(24) 0.001736 490.3 96.4
542(23) 0.001845 490.4 98.2
563(24) 0.001776 490.4 100.3
541(23) 0.001848 490.5 102.6
509(23) 0.001965 490.6 105.1
577(24) 0.001733 490.7 107.9
536(23) 0.001866 490.8 111.0
568(24) 0.001761 490.8 114.3
581(24) 0.001721 490.9 117.9
574(24) 0.001742 491.0 121.9
567(24) 0.001764 491.1 126.0
577(24) 0.001733 491.2 130.3
581(24) 0.001721 491.2 134.7
574(24) 0.001742 491.3 139.1
579(24) 0.001727 491.4 143.2
565(24) 0.001770 491.5 146.8
634(25) 0.001577 491.6 149.7
600(24) 0.001667 491.7 151.7
582(24) 0.001718 491.7 152.8
573(24) 0.001745 491.8 152.8
622(25) 0.001608 491.9 151.8
594(24) 0.001684 492.0 150.1
555(24) 0.001802 492.1 147.7
544(23) 0.001838 492.1 144.8
547(23) 0.001828 492.2 141.7
555(24) 0.001802 492.3 138.4
550(23) 0.001818 492.4 135.1
545(23) 0.001835 492.5 131.8
545(23) 0.001835 492.5 128.6
603(25) 0.001658 492.6 125.6
552(23) 0.001812 492.7 122.7
538(23) 0.001859 492.8 120.1
528(23) 0.001894 492.9 117.6
530(23) 0.001887 492.9 115.4
568(24) 0.001761 493.0 113.3
590(24) 0.001695 493.1 111.5
540(23) 0.001852 493.2 109.8
557(24) 0.001795 493.3 108.3
540(23) 0.001852 493.3 107.0
541(23) 0.001848 493.4 105.8
546(23) 0.001832 493.5 104.7
557(24) 0.001795 493.6 103.7
506(22) 0.001976 493.7 102.8
545(23) 0.001835 493.7 102.0
574(24) 0.001742 493.8 101.3
565(24) 0.001770 493.9 100.7
593(24) 0.001686 494.0 100.1
529(23) 0.001890 494.1 99.7
514(23) 0.001946 494.1 99.3
565(24) 0.001770 494.2 99.1
539(23) 0.001855 494.3 99.0
565(24) 0.001770 494.4 98.9
571(24) 0.001751 494.5 99.1
538(23) 0.001859 494.5 99.3
532(23) 0.001880 494.6 99.8
557(24) 0.001795 494.7 100.4
564(24) 0.001773 494.8 101.2
546(23) 0.001832 494.9 102.2
555(24) 0.001802 495.0 103.4
589(24) 0.001698 495.0 104.9
542(23) 0.001845 495.1 106.7
574(24) 0.001742 495.2 108.8
556(24) 0.001799 495.3 111.3
560(24) 0.001786 495.4 114.1
578(24) 0.001730 495.4 117.4
549(23) 0.001822 495.5 121.1
557(24) 0.001795 495.6 125.3
614(25) 0.001629 495.7 130.0
635(25) 0.001575 495.8 135.1
514(23) 0.001946 495.8 140.7
588(24) 0.001701 495.9 146.5
584(24) 0.001712 496.0 152.5
602(25) 0.001661 496.1 158.4
631(25) 0.001585 496.2 163.8
612(25) 0.001634 496.2 168.3
615(25) 0.001626 496.3 171.6
628(25) 0.001592 496.4 173.4
677(26) 0.001477 496.5 173.5
628(25) 0.001592 496.6 172.1
595(24) 0.001681 496.6 169.4
658(26) 0.001520 496.7 165.7
615(25) 0.001626 496.8 161.4
576(24) 0.001736 496.9 156.8
588(24) 0.001701 497.0 151.9
590(24) 0.001695 497.0 146.8
561(24) 0.001783 497.1 141.7
560(24) 0.001786 497.2 136.6
616(25) 0.001623 497.3 131.6
577(24) 0.001733 497.4 126.7
574(24) 0.001742 497.4 121.9
526(23) 0.001901 497.5 117.5
509(23) 0.001965 497.6 113.2
543(23) 0.001842 497.7 109.3
560(24) 0.001786 497.8 105.7
537(23) 0.001862 497.8 102.5
531(23) 0.001883 497.9 99.6
498(22) 0.002008 498.0 97.0
508(23) 0.001968 498.1 94.7
544(23) 0.001838 498.2 92.7
518(23) 0.001931 498.2 90.9
484(22) 0.002066 498.1 89.5
488(22) 0.002049 498.1 88.2
560(24) 0.001786 498.1 87.2
516(23) 0.001938 498.1 86.3
572(24) 0.001748 498.0 85.7
552(23) 0.001812 498.0 85.2
519(23) 0.001927 498.0 84.9
522(23) 0.001916 498.0 84.8
540(23) 0.001852 497.9 84.8
497(22) 0.002012 497.9 84.9
509(23) 0.001965 497.9 85.1
531(23) 0.001883 497.9 85.4
503(22) 0.001988 497.8 85.8
519(23) 0.001927 497.8 86.3
538(23) 0.001859 497.8 86.8
558(24) 0.001792 497.8 87.5
543(23) 0.001842 497.7 88.2
536(23) 0.001866 497.7 88.9
562(24) 0.001779 497.7 89.8
530(23) 0.001887 497.7 90.8
536(23) 0.001866 497.6 92.0
571(24) 0.001751 497.6 93.3
558(24) 0.001792 497.6 94.8
566(24) 0.001767 497.6 96.6
576(24) 0.001736 497.5 98.7
557(24) 0.001795 497.5 101.1
586(24) 0.001706 497.5 103.9
565(24) 0.001770 497.5 107.1
585(24) 0.001709 497.4 110.8
567(24) 0.001764 497.4 115.0
601(25) 0.001664 497.4 119.7
578(24) 0.001730 497.4 124.9
612(25) 0.001634 497.3 130.6
668(26) 0.001497 497.3 136.7
645(25) 0.001550 497.3 143.2
651(26) 0.001536 497.3 149.8
701(26) 0.001427 497.2 156.5
616(25) 0.001623 497.2 162.9
636(25) 0.001572 497.2 168.9
638(25) 0.001567 497.2 174.2
632(25) 0.001582 497.1 178.3
632(25) 0.001582 497.1 180.9
628(25) 0.001592 497.1 181.5
623(25) 0.001605 497.1 180.0
630(25) 0.001587 497.0 176.4
642(25) 0.001558 497.0 171.1
603(25) 0.001658 497.0 164.5
590(24) 0.001695 497.0 157.2
599(24) 0.001669 496.9 149.7
592(24) 0.001689 496.9 142.3
566(24) 0.001767 496.9 135.2
569(24) 0.001757 496.9 128.4
535(23) 0.001869 496.8 122.0
587(24) 0.001704 496.8 115.9
550(23) 0.001818 496.8 110.3
550(23) 0.001818 496.8 105.3
535(23) 0.001869 496.7 100.9
549(23) 0.001822 496.7 97.1
591(24) 0.001692 496.7 94.0
520(23) 0.001923 496.7 91.4
538(23) 0.001859 496.6 89.5
514(23) 0.001946 496.6 88.0
540(23) 0.001852 496.6 87.1
519(23) 0.001927 496.5 86.6
544(23) 0.001838 496.5 86.4
590(24) 0.001695 496.5 86.5
552(23) 0.001812 496.5 86.9
534(23) 0.001873 496.4 87.3
554(24) 0.001805 496.4 87.8
581(24) 0.001721 496.4 88.1
503(22) 0.001988 496.4 88.3
529(23) 0.001890 496.3 88.3
519(23) 0.001927 496.3 88.1
570(24) 0.001754 496.3 87.7
534(23) 0.001873 496.3 87.3
542(23) 0.001845 496.2 86.9
531(23) 0.001883 496.2 86.5
494(22) 0.002024 496.2 86.1
534(23) 0.001873 496.2 85.7
521(23) 0.001919 496.1 85.3
524(23) 0.001908 496.1 84.8
505(22) 0.001980 496.1 84.4
562(24) 0.001779 496.1 84.0
537(23) 0.001862 496.0 83.6
516(23) 0.001938 496.0 83.3
569(24) 0.001757 496.0 83.1
531(23) 0.001883 496.0 83.1
552(23) 0.001812 495.9 83.3
597(24) 0.001675 495.9 83.8
532(23) 0.001880 495.9 84.7
532(23) 0.001880 495.9 85.9
566(24) 0.001767 495.8 87.5
601(25) 0.001664 495.8 89.5
594(24) 0.001684 495.8 91.9
560(24) 0.001786 495.8 94.9
661(26) 0.001513 495.7 98.2
595(24) 0.001681 495.7 101.8
738(27) 0.001355 495.7 105.6
772(28) 0.001295 495.7 109.3
698(26) 0.001433 495.6 112.5
750(27) 0.001333 495.6 114.8
709(27) 0.001410 495.6 115.9
1168(34) 0.000856 495.6 115.6
786(28) 0.001272 495.5 114.0
1021(32) 0.000979 495.5 111.4
777(28) 0.001287 495.5 108.2
777(28) 0.001287 495.5 104.8
647(25) 0.001546 495.4 101.5
693(26) 0.001443 495.4 98.5
616(25) 0.001623 495.4 95.9
651(26) 0.001536 495.4 93.7
625(25) 0.001600 495.3 91.9
657(26) 0.001522 495.3 90.5
590(24) 0.001695 495.3 89.4
576(24) 0.001736 495.3 88.5
574(24) 0.001742 495.2 87.8
595(24) 0.001681 495.2 87.2
589(24) 0.001698 495.2 86.6
529(23) 0.001890 495.2 86.0
533(23) 0.001876 495.1 85.2
532(23) 0.001880 495.1 84.5
538(23) 0.001859 495.1 83.7
559(24) 0.001789 495.1 82.9
552(23) 0.001812 495.0 82.1
560(24) 0.001786 495.0 81.3
552(23) 0.001812 495.0 80.6
526(23) 0.001901 495.0 79.9
536(23) 0.001866 494.9 79.2
523(23) 0.001912 494.9 78.5
524(23) 0.001908 494.9 77.9
542(23) 0.001845 494.9 77.2
498(22) 0.002008 494.8 76.6
528(23) 0.001894 494.8 76.0
549(23) 0.001822 494.8 75.5
533(23) 0.001876 494.7 74.9
551(23) 0.001815 494.7 74.4
585(24) 0.001709 494.7 73.8
555(24) 0.001802 494.7 73.4
539(23) 0.001855 494.6 72.9
515(23) 0.001942 494.6 72.5
526(23) 0.001901 494.6 72.1
555(24) 0.001802 494.6 71.8
526(23) 0.001901 494.5 71.5
534(23) 0.001873 494.5 71.3
513(23) 0.001949 494.5 71.1
573(24) 0.001745 494.5 71.0
549(23) 0.001822 494.4 71.0
504(22) 0.001984 494.4 71.0
522(23) 0.001916 494.4 71.1
514(23) 0.001946 494.4 71.2
536(23) 0.001866 494.3 71.4
546(23) 0.001832 494.3 71.6
528(23) 0.001894 494.3 71.8
533(23) 0.001876 494.3 72.0
555(24) 0.001802 494.2 72.2
539(23) 0.001855 494.2 72.3
554(24) 0.001805 494.2 72.3
538(23) 0.001859 494.2 72.3
524(23) 0.001908 494.1 72.2
504(22) 0.001984 494.1 72.0
509(23) 0.001965 494.1 71.7
540(23) 0.001852 494.1 71.3
581(24) 0.001721 494.0 70.9
552(23) 0.001812 494.0 70.4
513(23) 0.001949 494.0 69.9
523(23) 0.001912 494.0 69.3
508(23) 0.001968 493.9 68.8
528(23) 0.001894 493.9 68.4
540(23) 0.001852 493.9 68.0
494(22) 0.002024 493.9 67.7
515(23) 0.001942 493.8 67.6
490(22) 0.002041 493.8 67.5
506(22) 0.001976 493.8 67.5
523(23) 0.001912 493.8 67.6
516(23) 0.001938 493.7 67.9
528(23) 0.001894 493.7 68.2
509(23) 0.001965 493.7 68.5
470(22) 0.002128 493.7 69.0
471(22) 0.002123 493.7 69.5
491(22) 0.002037 493.7 70.0
492(22) . . .
500(22) . . .
514(23) . . .
504(22) . . .
495(22) . . .
555(24) . . .
531(23) . . .
538(23) . . .
504(22) . . .
527(23) . . .
503(22) . . .
504(22) . . .
524(23) . . .
539(23) . . .
516(23) . . .
539(23) . . .
524(23) . . .
541(23) . . .
504(22) . . .
522(23) . . .
532(23) . . .
549(23) . . .
558(24) . . .
515(23) . . .
530(23) . . .
543(23) . . .
536(23) . . .
535(23) . . .
539(23) . . .
506(22) . . .
498(22) . . .
545(23) . . .
540(23) . . .
519(23) . . .
524(23) . . .
505(22) . . .
533(23) . . .
510(23) . . .
544(23) . . .
547(23) . . .
536(23) . . .
535(23) . . .
538(23) . . .
537(23) . . .
596(24) . . .
572(24) . . .
566(24) . . .
539(23) . . .
568(24) . . .
545(23) . . .
575(24) . . .
582(24) . . .
568(24) . . .
579(24) . . .
576(24) . . .
586(24) . . .
559(24) . . .
563(24) . . .
545(23) . . .
547(23) . . .
547(23) . . .
592(24) . . .
514(23) . . .
523(23) . . .
546(23) . . .
548(23) . . .
528(23) . . .
508(23) . . .
497(22) . . .
516(23) . . .
515(23) . . .
499(22) . . .
503(22) . . .
447(21) . . .
500(22) . . .
505(22) . . .
503(22) . . .
515(23) . . .
501(22) . . .
493(22) . . .
506(22) . . .
464(22) . . .
470(22) . . .
486(22) . . .
476(22) . . .
482(22) . . .
456(21) . . .
471(22) . . .
470(22) . . .
469(22) . . .
495(22) . . .
517(23) . . .
493(22) . . .
473(22) . . .
489(22) . . .
524(23) . . .
504(22) . . .
474(22) . . .
511(23) . . .
494(22) . . .
502(22) . . .
511(23) . . .
484(22) . . .
475(22) . . .
459(21) . . .
504(22) . . .
482(22) . . .
491(22) . . .
473(22) . . .
511(23) . . .
454(21) . . .
492(22) . . .
449(21) . . .
452(21) . . .
478(22) . . .
481(22) . . .
495(22) . . .
484(22) . . .
497(22) . . .
515(23) . . .
476(22) . . .
497(22) . . .
488(22) . . .
486(22) . . .
487(22) . . .
510(23) . . .
491(22) . . .
557(24) . . .
480(22) . . .
486(22) . . .
493(22) . . .
528(23) . . .
481(22) . . .
502(22) . . .
511(23) . . .
464(22) . . .
484(22) . . .
503(22) . . .
527(23) . . .
479(22) . . .
488(22) . . .
538(23) . . .
573(24) . . .
494(22) . . .
510(23) . . .
507(23) . . .
540(23) . . .
530(23) . . .
509(23) . . .
527(23) . . .
579(24) . . .
542(23) . . .
542(23) . . .
560(24) . . .
524(23) . . .
537(23) . . .
542(23) . . .
518(23) . . .
509(23) . . .
579(24) . . .
501(22) . . .
545(23) . . .
508(23) . . .
536(23) . . .
503(22) . . .
501(22) . . .
531(23) . . .
515(23) . . .
518(23) . . .
494(22) . . .
548(23) . . .
479(22) . . .
502(22) . . .
487(22) . . .
505(22) . . .
515(23) . . .
469(22) . . .
485(22) . . .
516(23) . . .
486(22) . . .
435(21) . . .
458(21) . . .
473(22) . . .
483(22) . . .
492(22) . . .
510(23) . . .
495(22) . . .
476(22) . . .
482(22) . . .
465(22) . . .
499(22) . . .
498(22) . . .
496(22) . . .
467(22) . . .
470(22) . . .
493(22) . . .
503(22) . . .
472(22) . . .
475(22) . . .
518(23) . . .
490(22) . . .
494(22) . . .
476(22) . . .
492(22) . . .
504(22) . . .
467(22) . . .
496(22) . . .
467(22) . . .
480(22) . . .
457(21) . . .
487(22) . . .
489(22) . . .
482(22) . . .
478(22) . . .
457(21) . . .
497(22) . . .
482(22) . . .
472(22) . . .
451(21) . . .
486(22) . . .
440(21) . . .
487(22) . . .
479(22) . . .
473(22) . . .
516(23) . . .
504(22) . . .
465(22) . . .
498(22) . . .
538(23) . . .
457(21) . . .
496(22) . . .
544(23) . . .
530(23) . . .
518(23) . . .
514(23) . . .
533(23) . . .
548(23) . . .
543(23) . . .
519(23) . . .
517(23) . . .
526(23) . . .
531(23) . . .
515(23) . . .
490(22) . . .
522(23) . . .
537(23) . . .
493(22) . . .
522(23) . . .
542(23) . . .
514(23) . . .
503(22) . . .
509(23) . . .
497(22) . . .
528(23) . . .
482(22) . . .
503(22) . . .
468(22) . . .
486(22) . . .
492(22) . . .
489(22) . . .
470(22) . . .
502(22) . . .
479(22) . . .
425(21) . . .
519(23) . . .
458(21) . . .
477(22) . . .
445(21) . . .
453(21) . . .
435(21) . . .
462(21) . . .
426(21) . . .
473(22) . . .
448(21) . . .
459(21) . . .
459(21) . . .
467(22) . . .
459(21) . . .
456(21) . . .
454(21) . . .
446(21) . . .
486(22) . . .
474(22) . . .
443(21) . . .
474(22) . . .
477(22) . . .
463(22) . . .
496(22) . . .
457(21) . . .
501(22) . . .
498(22) . . .
461(21) . . .
464(22) . . .
500(22) . . .
518(23) . . .
464(22) . . .
482(22) . . .
448(21) . . .
445(21) . . .
479(22) . . .
486(22) . . .
450(21) . . .
473(22) . . .
486(22) . . .
469(22) . . .
475(22) . . .
433(21) . . .
459(21) . . .
459(21) . . .
469(22) . . .
462(21) . . .
474(22) . . .
451(21) . . .
467(22) . . .
493(22) . . .
457(21) . . .
476(22) . . .
452(21) . . .
429(21) . . .
487(22) . . .
449(21) . . .
474(22) . . .
458(21) . . .
428(21) . . .
474(22) . . .
470(22) . . .
483(22) . . .
435(21) . . .
449(21) . . .
455(21) . . .
439(21) . . .
464(22) . . .
454(21) . . .
433(21) . . .
466(22) . . .
435(21) . . .
471(22) . . .
435(21) . . .
432(21) . . .
430(21) . . .
427(21) . . .
452(21) . . .
443(21) . . .
421(21) . . .
417(20) . . .
440(21) . . .
454(21) . . .
416(20) . . .
449(21) . . .
444(21) . . .
432(21) . . .
444(21) . . .
456(21) . . .
440(21) . . .
499(22) . . .
454(21) . . .
426(21) . . .
444(21) . . .
444(21) . . .
435(21) . . .
464(22) . . .
455(21) . . .
462(21) . . .
488(22) . . .
460(21) . . .
442(21) . . .
455(21) . . .
434(21) . . .
458(21) . . .
441(21) . . .
430(21) . . .
413(20) . . .
496(22) . . .
414(20) . . .
458(21) . . .
481(22) . . .
445(21) . . .
431(21) . . .
439(21) . . .
418(20) . . .
442(21) . . .
456(21) . . .
429(21) . . .
465(22) . . .
459(21) . . .
494(22) . . .
441(21) . . .
429(21) . . .
502(22) . . .
442(21) . . .
456(21) . . .
465(22) . . .
461(21) . . .
461(21) . . .
463(22) . . .
473(22) . . .
439(21) . . .
478(22) . . .
475(22) . . .
484(22) . . .
485(22) . . .
522(23) . . .
488(22) . . .
480(22) . . .
451(21) . . .
433(21) . . .
454(21) . . .
434(21) . . .
428(21) . . .
445(21) . . .
451(21) . . .
435(21) . . .
467(22) . . .
462(21) . . .
451(21) . . .
424(21) . . .
429(21) . . .
439(21) . . .
450(21) . . .
457(21) . . .
460(21) . . .
444(21) . . .
455(21) . . .
462(21) . . .
446(21) . . .
458(21) . . .
462(21) . . .
465(22) . . .
459(21) . . .
471(22) . . .
448(21) . . .
461(21) . . .
436(21) . . .
468(22) . . .
412(20) . . .
465(22) . . .
505(22) . . .
477(22) . . .
506(22) . . .
483(22) . . .
494(22) . . .
524(23) . . .
477(22) . . .
513(23) . . .
518(23) . . .
468(22) . . .
505(22) . . .
499(22) . . .
524(23) . . .
526(23) . . .
553(24) . . .
615(25) . . .
550(23) . . .
572(24) . . .
521(23) . . .
554(24) . . .
513(23) . . .
529(23) . . .
536(23) . . .
533(23) . . .
526(23) . . .
536(23) . . .
472(22) . . .
522(23) . . .
519(23) . . .
473(22) . . .
515(23) . . .
501(22) . . .
552(23) . . .
535(23) . . .
512(23) . . .
521(23) . . .
510(23) . . .
502(22) . . .
532(23) . . .
532(23) . . .
483(22) . . .
522(23) . . .
451(21) . . .
513(23) . . .
503(22) . . .
511(23) . . .
532(23) . . .
526(23) . . .
527(23) . . .
544(23) . . .
592(24) . . .
534(23) . . .
559(24) . . .
515(23) . . .
576(24) . . .
569(24) . . .
573(24) . . .
602(25) . . .
552(23) . . .
592(24) . . .
567(24) . . .
542(23) . . .
556(24) . . .
557(24) . . .
555(24) . . .
558(24) . . .
544(23) . . .
503(22) . . .
539(23) . . .
509(23) . . .
516(23) . . .
497(22) . . .
506(22) . . .
493(22) . . .
519(23) . . .
490(22) . . .
488(22) . . .
489(22) . . .
511(23) . . .
477(22) . . .
531(23) . . .
502(22) . . .
486(22) . . .
496(22) . . .
484(22) . . .
507(23) . . .
463(22) . . .
492(22) . . .
471(22) . . .
492(22) . . .
495(22) . . .
467(22) . . .
487(22) . . .
464(22) . . .
494(22) . . .
460(21) . . .
474(22) . . .
508(23) . . .
510(23) . . .
466(22) . . .
482(22) . . .
519(23) . . .
509(23) . . .
490(22) . . .
493(22) . . .
512(23) . . .
460(21) . . .
486(22) . . .
516(23) . . .
528(23) . . .
554(24) . . .
543(23) . . .
517(23) . . .
480(22) . . .
542(23) . . .
517(23) . . .
520(23) . . .
510(23) . . .
548(23) . . .
529(23) . . .
528(23) . . .
534(23) . . .
507(23) . . .
517(23) . . .
546(23) . . .
537(23) . . .
573(24) . . .
545(23) . . .
560(24) . . .
574(24) . . .
579(24) . . .
624(25) . . .
590(24) . . .
619(25) . . .
599(24) . . .
611(25) . . .
637(25) . . .
631(25) . . .
667(26) . . .
629(25) . . .
617(25) . . .
610(25) . . .
639(25) . . .
629(25) . . .
606(25) . . .
623(25) . . .
599(24) . . .
559(24) . . .
590(24) . . .
581(24) . . .
610(25) . . .
582(24) . . .
573(24) . . .
547(23) . . .
575(24) . . .
583(24) . . .
513(23) . . .
505(22) . . .
525(23) . . .
532(23) . . .
511(23) . . .
533(23) . . .
523(23) . . .
510(23) . . .
544(23) . . .
540(23) . . .
538(23) . . .
538(23) . . .
532(23) . . .
552(23) . . .
535(23) . . .
547(23) . . .
510(23) . . .
542(23) . . .
526(23) . . .
527(23) . . .
500(22) . . .
511(23) . . .
503(22) . . .
535(23) . . .
553(24) . . .
514(23) . . .
531(23) . . .
543(23) . . .
528(23) . . .
510(23) . . .
507(23) . . .
485(22) . . .
495(22) . . .
514(23) . . .
492(22) . . .
466(22) . . .
493(22) . . .
510(23) . . .
482(22) . . .
479(22) . . .
462(21) . . .
452(21) . . .
493(22) . . .
492(22) . . .
541(23) . . .
484(22) . . .
504(22) . . .
490(22) . . .
447(21) . . .
479(22) . . .
483(22) . . .
477(22) . . .
493(22) . . .
483(22) . . .
493(22) . . .
480(22) . . .
481(22) . . .
497(22) . . .
452(21) . . .
515(23) . . .
473(22) . . .
496(22) . . .
503(22) . . .
532(23) . . .
538(23) . . .
532(23) . . .
499(22) . . .
545(23) . . .
543(23) . . .
548(23) . . .
533(23) . . .
509(23) . . .
563(24) . . .
528(23) . . .
513(23) . . .
526(23) . . .
486(22) . . .
492(22) . . .
494(22) . . .
489(22) . . .
493(22) . . .
501(22) . . .
501(22) . . .
491(22) . . .
535(23) . . .
521(23) . . .
524(23) . . .
494(22) . . .
512(23) . . .
465(22) . . .
498(22) . . .
506(22) . . .
519(23) . . .
536(23) . . .
506(22) . . .
502(22) . . .
497(22) . . .
501(22) . . .
456(21) . . .
494(22) . . .
477(22) . . .
471(22) . . .
478(22) . . .
476(22) . . .
466(22) . . .
479(22) . . .
500(22) . . .
498(22) . . .
498(22) . . .
535(23) . . .
493(22) . . .
480(22) . . .
520(23) . . .
473(22) . . .
493(22) . . .
509(23) . . .
531(23) . . .
473(22) . . .
504(22) . . .
492(22) . . .
482(22) . . .
546(23) . . .
483(22) . . .
503(22) . . .
490(22) . . .
466(22) . . .
510(23) . . .
476(22) . . .
510(23) . . .
482(22) . . .
517(23) . . .
475(22) . . .
489(22) . . .
498(22) . . .
471(22) . . .
486(22) . . .
499(22) . . .
485(22) . . .
487(22) . . .
496(22) . . .
512(23) . . .
496(22) . . .
504(22) . . .
459(21) . . .
483(22) . . .
490(22) . . .
451(21) . . .
492(22) . . .
448(21) . . .
491(22) . . .
522(23) . . .
478(22) . . .
487(22) . . .
452(21) . . .
451(21) . . .
483(22) . . .
497(22) . . .
476(22) . . .
477(22) . . .
478(22) . . .
503(22) . . .
494(22) . . .
508(23) . . .
497(22) . . .
475(22) . . .
509(23) . . .
522(23) . . .
509(23) . . .
492(22) . . .
518(23) . . .
486(22) . . .
518(23) . . .
525(23) . . .
509(23) . . .
503(22) . . .
502(22) . . .
514(23) . . .
558(24) . . .
527(23) . . .
533(23) . . .
531(23) . . .
525(23) . . .
559(24) . . .
491(22) . . .
541(23) . . .
548(23) . . .
581(24) . . .
527(23) . . .
566(24) . . .
564(24) . . .
597(24) . . .
557(24) . . .
564(24) . . .
583(24) . . .
574(24) . . .
579(24) . . .
605(25) . . .
604(25) . . .
608(25) . . .
611(25) . . .
633(25) . . .
644(25) . . .
658(26) . . .
655(26) . . .
650(25) . . .
685(26) . . .
672(26) . . .
672(26) . . .
730(27) . . .
775(28) . . .
743(27) . . .
769(28) . . .
706(27) . . .
811(28) . . .
778(28) . . .
833(29) . . .
829(29) . . .
829(29) . . .
895(30) . . .
924(30) . . .
884(30) . . .
904(30) . . .
951(31) . . .
970(31) . . .
1047(32) . . .
1084(33) . . .
1130(34) . . .
1168(34) . . .
1221(35) . . .
1333(37) . . .
1422(38) . . .
1588(40) . . .
1607(40) . . .
1826(43) . . .
1925(44) . . .
2172(47) . . .
2470(50) . . .
2686(52) . . .
2983(55) . . .
3356(58) . . .
4008(63) . . .
4489(67) . . .
5255(72) . . .
6133(78) . . .
7247(85) . . .
8832(94) . . .
10440(100) . . .
13200(120) . . .
16480(130) . . .
21000(150) . . .
26340(160) . . .
33000(180) . . .
40390(200) . . .
46330(220) . . .
49870(220) . . .
50530(230) . . .
47590(220) . . .
41900(210) . . .
34580(190) . . .
27770(170) . . .
21440(150) . . .
17330(130) . . .
13890(120) . . .
11070(110) . . .
9007(95) . . .
7356(86) . . .
5941(77) . . .
5258(73) . . .
4471(67) . . .
3834(62) . . .
3386(58) . . .
3008(55) . . .
2768(53) . . .
2457(50) . . .
2321(48) . . .
2204(47) . . .
1991(45) . . .
1820(43) . . .
1717(41) . . .
1549(39) . . .
1498(39) . . .
1389(37) . . .
1371(37) . . .
1225(35) . . .
1178(34) . . .
1171(34) . . .
1190(34) . . .
1098(33) . . .
986(31) . . .
1007(32) . . .
972(31) . . .
934(31) . . .
847(29) . . .
900(30) . . .
851(29) . . .
799(28) . . .
804(28) . . .
831(29) . . .
736(27) . . .
754(27) . . .
724(27) . . .
695(26) . . .
718(27) . . .
741(27) . . .
728(27) . . .
713(27) . . .
660(26) . . .
708(27) . . .
681(26) . . .
639(25) . . .
637(25) . . .
630(25) . . .
610(25) . . .
645(25) . . .
597(24) . . .
552(23) . . .
569(24) . . .
585(24) . . .
581(24) . . .
614(25) . . .
601(25) . . .
576(24) . . .
553(24) . . .
542(23) . . .
537(23) . . .
544(23) . . .
578(24) . . .
541(23) . . .
550(23) . . .
514(23) . . .
521(23) . . .
517(23) . . .
489(22) . . .
572(24) . . .
535(23) . . .
559(24) . . .
491(22) . . .
510(23) . . .
519(23) . . .
543(23) . . .
523(23) . . .
525(23) . . .
540(23) . . .
528(23) . . .
544(23) . . .
508(23) . . .
500(22) . . .
510(23) . . .
536(23) . . .
494(22) . . .
483(22) . . .
499(22) . . .
501(22) . . .
519(23) . . .
523(23) . . .
510(23) . . .
539(23) . . .
480(22) . . .
517(23) . . .
520(23) . . .
528(23) . . .
542(23) . . .
540(23) . . .
540(23) . . .
565(24) . . .
539(23) . . .
531(23) . . .
562(24) . . .
519(23) . . .
551(23) . . .
503(22) . . .
524(23) . . .
521(23) . . .
550(23) . . .
528(23) . . .
506(22) . . .
505(22) . . .
481(22) . . .
507(23) . . .
526(23) . . .
506(22) . . .
503(22) . . .
515(23) . . .
491(22) . . .
499(22) . . .
482(22) . . .
479(22) . . .
502(22) . . .
511(23) . . .
488(22) . . .
487(22) . . .
504(22) . . .
495(22) . . .
532(23) . . .
551(23) . . .
548(23) . . .
504(22) . . .
514(23) . . .
492(22) . . .
484(22) . . .
505(22) . . .
492(22) . . .
509(23) . . .
482(22) . . .
492(22) . . .
447(21) . . .
505(22) . . .
505(22) . . .
479(22) . . .
471(22) . . .
493(22) . . .
496(22) . . .
480(22) . . .
515(23) . . .
507(23) . . .
484(22) . . .
475(22) . . .
451(21) . . .
456(21) . . .
506(22) . . .
478(22) . . .
508(23) . . .
466(22) . . .
508(23) . . .
479(22) . . .
484(22) . . .
481(22) . . .
493(22) . . .
526(23) . . .
513(23) . . .
505(22) . . .
508(23) . . .
528(23) . . .
513(23) . . .
516(23) . . .
519(23) . . .
579(24) . . .
582(24) . . .
606(25) . . .
558(24) . . .
609(25) . . .
557(24) . . .
570(24) . . .
545(23) . . .
582(24) . . .
563(24) . . .
579(24) . . .
558(24) . . .
544(23) . . .
557(24) . . .
585(24) . . .
518(23) . . .
579(24) . . .
582(24) . . .
560(24) . . .
544(23) . . .
576(24) . . .
534(23) . . .
537(23) . . .
543(23) . . .
536(23) . . .
531(23) . . .
532(23) . . .
574(24) . . .
554(24) . . .
551(23) . . .
591(24) . . .
595(24) . . .
582(24) . . .
571(24) . . .
575(24) . . .
557(24) . . .
579(24) . . .
564(24) . . .
552(23) . . .
532(23) . . .
544(23) . . .
544(23) . . .
538(23) . . .
524(23) . . .
531(23) . . .
529(23) . . .
488(22) . . .
484(22) . . .
524(23) . . .
528(23) . . .
527(23) . . .
483(22) . . .
505(22) . . .
504(22) . . .
464(22) . . .
514(23) . . .
502(22) . . .
487(22) . . .
467(22) . . .
488(22) . . .
476(22) . . .
498(22) . . .
488(22) . . .
508(23) . . .
474(22) . . .
497(22) . . .
524(23) . . .
460(21) . . .
520(23) . . .
498(22) . . .
464(22) . . .
461(21) . . .
443(21) . . .
465(22) . . .
457(21) . . .
486(22) . . .
466(22) . . .
477(22) . . .
463(22) . . .
482(22) . . .
481(22) . . .
468(22) . . .
450(21) . . .
457(21) . . .
435(21) . . .
457(21) . . .
493(22) . . .
462(21) . . .
461(21) . . .
429(21) . . .
454(21) . . .
451(21) . . .
446(21) . . .
476(22) . . .
455(21) . . .
408(20) . . .
424(21) . . .
412(20) . . .
428(21) . . .
471(22) . . .
431(21) . . .
450(21) . . .
435(21) . . .
438(21) . . .
426(21) . . .
449(21) . . .
428(21) . . .
443(21) . . .
426(21) . . .
475(22) . . .
460(21) . . .
427(21) . . .
461(21) . . .
425(21) . . .
414(20) . . .
437(21) . . .
438(21) . . .
454(21) . . .
436(21) . . .
456(21) . . .
457(21) . . .
450(21) . . .
478(22) . . .
444(21) . . .
450(21) . . .
473(22) . . .
448(21) . . .
460(21) . . .
482(22) . . .
457(21) . . .
444(21) . . .
456(21) . . .
462(21) . . .
440(21) . . .
479(22) . . .
447(21) . . .
462(21) . . .
461(21) . . .
453(21) . . .
455(21) . . .
470(22) . . .
474(22) . . .
471(22) . . .
466(22) . . .
463(22) . . .
481(22) . . .
452(21) . . .
494(22) . . .
434(21) . . .
445(21) . . .
437(21) . . .
476(22) . . .
449(21) . . .
446(21) . . .
427(21) . . .
420(20) . . .
436(21) . . .
444(21) . . .
463(22) . . .
418(20) . . .
480(22) . . .
484(22) . . .
445(21) . . .
421(21) . . .
455(21) . . .
428(21) . . .
449(21) . . .
470(22) . . .
452(21) . . .
443(21) . . .
459(21) . . .
456(21) . . .
457(21) . . .
461(21) . . .
466(22) . . .
464(22) . . .
466(22) . . .
446(21) . . .
470(22) . . .
476(22) . . .
437(21) . . .
450(21) . . .
457(21) . . .
435(21) . . .
465(22) . . .
473(22) . . .
463(22) . . .
473(22) . . .
459(21) . . .
471(22) . . .
509(23) . . .
486(22) . . .
464(22) . . .
475(22) . . .
481(22) . . .
485(22) . . .
436(21) . . .
503(22) . . .
454(21) . . .
501(22) . . .
460(21) . . .
467(22) . . .
472(22) . . .
490(22) . . .
481(22) . . .
454(21) . . .
481(22) . . .
503(22) . . .
491(22) . . .
479(22) . . .
478(22) . . .
469(22) . . .
500(22) . . .
485(22) . . .
478(22) . . .
534(23) . . .
488(22) . . .
509(23) . . .
522(23) . . .
543(23) . . .
529(23) . . .
537(23) . . .
503(22) . . .
537(23) . . .
505(22) . . .
519(23) . . .
528(23) . . .
532(23) . . .
520(23) . . .
478(22) . . .
490(22) . . .
521(23) . . .
475(22) . . .
491(22) . . .
470(22) . . .
493(22) . . .
466(22) . . .
488(22) . . .
453(21) . . .
479(22) . . .
461(21) . . .
475(22) . . .
473(22) . . .
477(22) . . .
434(21) . . .
459(21) . . .
465(22) . . .
453(21) . . .
451(21) . . .
465(22) . . .
471(22) . . .
486(22) . . .
454(21) . . .
465(22) . . .
433(21) . . .
482(22) . . .
446(21) . . .
488(22) . . .
488(22) . . .
464(22) . . .
449(21) . . .
460(21) . . .
429(21) . . .
465(22) . . .
452(21) . . .
458(21) . . .
452(21) . . .
455(21) . . .
472(22) . . .
446(21) . . .
484(22) . . .
466(22) . . .
471(22) . . .
457(21) . . .
475(22) . . .
472(22) . . .
449(21) . . .
480(22) . . .
478(22) . . .
468(22) . . .
484(22) . . .
487(22) . . .
488(22) . . .
474(22) . . .
478(22) . . .
482(22) . . .
488(22) . . .
489(22) . . .
492(22) . . .
478(22) . . .
464(22) . . .
524(23) . . .
531(23) . . .
472(22) . . .
462(21) . . .
515(23) . . .
489(22) . . .
518(23) . . .
512(23) . . .
507(23) . . .
554(24) . . .
529(23) . . .
515(23) . . .
513(23) . . .
531(23) . . .
470(22) . . .
535(23) . . .
517(23) . . .
534(23) . . .
522(23) . . .
505(22) . . .
523(23) . . .
519(23) . . .
504(22) . . .
482(22) . . .
510(23) . . .
490(22) . . .
511(23) . . .
485(22) . . .
484(22) . . .
519(23) . . .
523(23) . . .
481(22) . . .
480(22) . . .
534(23) . . .
507(23) . . .
489(22) . . .
484(22) . . .
484(22) . . .
510(23) . . .
516(23) . . .
509(23) . . .
498(22) . . .
478(22) . . .
508(23) . . .
470(22) . . .
503(22) . . .
483(22) . . .
499(22) . . .
490(22) . . .
451(21) . . .
476(22) . . .
487(22) . . .
520(23) . . .
487(22) . . .
505(22) . . .
495(22) . . .
478(22) . . .
496(22) . . .
500(22) . . .
494(22) . . .
446(21) . . .
478(22) . . .
484(22) . . .
458(21) . . .
489(22) . . .
480(22) . . .
486(22) . . .
455(21) . . .
462(21) . . .
499(22) . . .
487(22) . . .
495(22) . . .
473(22) . . .
486(22) . . .
477(22) . . .
473(22) . . .
467(22) . . .
499(22) . . .
481(22) . . .
484(22) . . .
483(22) . . .
460(21) . . .
497(22) . . .
485(22) . . .
471(22) . . .
423(21) . . .
468(22) . . .
440(21) . . .
425(21) . . .
491(22) . . .
478(22) . . .
446(21) . . .
475(22) . . .
471(22) . . .
470(22) . . .
473(22) . . .
490(22) . . .
486(22) . . .
480(22) . . .
455(21) . . .
454(21) . . .
503(22) . . .
449(21) . . .
440(21) . . .
421(21) . . .
434(21) . . .
417(20) . . .
433(21) . . .
450(21) . . .
447(21) . . .
461(21) . . .
419(20) . . .
448(21) . . .
492(22) . . .
422(21) . . .
488(22) . . .
472(22) . . .
426(21) . . .
423(21) . . .
434(21) . . .
441(21) . . .
456(21) . . .
470(22) . . .
469(22) . . .
462(21) . . .
444(21) . . .
428(21) . . .
452(21) . . .
446(21) . . .
479(22) . . .
459(21) . . .
461(21) . . .
460(21) . . .
460(21) . . .
450(21) . . .
444(21) . . .
457(21) . . .
466(22) . . .
462(21) . . .
482(22) . . .
455(21) . . .
495(22) . . .
476(22) . . .
443(21) . . .
461(21) . . .
460(21) . . .
450(21) . . .
468(22) . . .
482(22) . . .
474(22) . . .
456(21) . . .
487(22) . . .
470(22) . . .
450(21) . . .
477(22) . . .
441(21) . . .
459(21) . . .
480(22) . . .
489(22) . . .
428(21) . . .
488(22) . . .
467(22) . . .
481(22) . . .
471(22) . . .
451(21) . . .
447(21) . . .
468(22) . . .
459(21) . . .
483(22) . . .
480(22) . . .
455(21) . . .
464(22) . . .
466(22) . . .
493(22) . . .
463(22) . . .
450(21) . . .
467(22) . . .
469(22) . . .
472(22) . . .
461(21) . . .
474(22) . . .
449(21) . . .
449(21) . . .
436(21) . . .
460(21) . . .
439(21) . . .
460(21) . . .
470(22) . . .
476(22) . . .
481(22) . . .
435(21) . . .
458(21) . . .
461(21) . . .
459(21) . . .
470(22) . . .
506(22) . . .
468(22) . . .
453(21) . . .
493(22) . . .
488(22) . . .
452(21) . . .
488(22) . . .
479(22) . . .
474(22) . . .
455(21) . . .
457(21) . . .
497(22) . . .
463(22) . . .
486(22) . . .
458(21) . . .
483(22) . . .
443(21) . . .
440(21) . . .
454(21) . . .
490(22) . . .
472(22) . . .
469(22) . . .
512(23) . . .
452(21) . . .
501(22) . . .
467(22) . . .
471(22) . . .
465(22) . . .
433(21) . . .
498(22) . . .
477(22) . . .
465(22) . . .
466(22) . . .
459(21) . . .
460(21) . . .
473(22) . . .
499(22) . . .
487(22) . . .
494(22) . . .
513(23) . . .
515(23) . . .
492(22) . . .
483(22) . . .
476(22) . . .
458(21) . . .
479(22) . . .
460(21) . . .
506(22) . . .
499(22) . . .
483(22) . . .
458(21) . . .
459(21) . . .
456(21) . . .
470(22) . . .
499(22) . . .
449(21) . . .
475(22) . . .
488(22) . . .
439(21) . . .
458(21) . . .
456(21) . . .
460(21) . . .
443(21) . . .
440(21) . . .
467(22) . . .
457(21) . . .
472(22) . . .
463(22) . . .
432(21) . . .
437(21) . . .
484(22) . . .
463(22) . . .
506(22) . . .
453(21) . . .
481(22) . . .
439(21) . . .
472(22) . . .
447(21) . . .
502(22) . . .
465(22) . . .
465(22) . . .
464(22) . . .
494(22) . . .
468(22) . . .
490(22) . . .
479(22) . . .
504(22) . . .
503(22) . . .
497(22) . . .
485(22) . . .
474(22) . . .
511(23) . . .
442(21) . . .
457(21) . . .
501(22) . . .
467(22) . . .
485(22) . . .
500(22) . . .
493(22) . . .
493(22) . . .
499(22) . . .
477(22) . . .
502(22) . . .
485(22) . . .
473(22) . . .
493(22) . . .
484(22) . . .
502(22) . . .
511(23) . . .
508(23) . . .
469(22) . . .
506(22) . . .
482(22) . . .
501(22) . . .
501(22) . . .
501(22) . . .
455(21) . . .
489(22) . . .
473(22) . . .
495(22) . . .
480(22) . . .
501(22) . . .
507(23) . . .
482(22) . . .
496(22) . . .
497(22) . . .
480(22) . . .
463(22) . . .
479(22) . . .
443(21) . . .
500(22) . . .
451(21) . . .
477(22) . . .
472(22) . . .
489(22) . . .
490(22) . . .
475(22) . . .
456(21) . . .
493(22) . . .
502(22) . . .
471(22) . . .
472(22) . . .
499(22) . . .
505(22) . . .
458(21) . . .
479(22) . . .
507(23) . . .
513(23) . . .
485(22) . . .
491(22) . . .
512(23) . . .
473(22) . . .
490(22) . . .
518(23) . . .
474(22) . . .
459(21) . . .
535(23) . . .
481(22) . . .
496(22) . . .
464(22) . . .
453(21) . . .
434(21) . . .
458(21) . . .
445(21) . . .
497(22) . . .
457(21) . . .
488(22) . . .
465(22) . . .
472(22) . . .
437(21) . . .
472(22) . . .
479(22) . . .
414(20) . . .
468(22) . . .
458(21) . . .
446(21) . . .
464(22) . . .
461(21) . . .
457(21) . . .
471(22) . . .
479(22) . . .
446(21) . . .
441(21) . . .
454(21) . . .
470(22) . . .
460(21) . . .
456(21) . . .
454(21) . . .
442(21) . . .
451(21) . . .
426(21) . . .
450(21) . . .
448(21) . . .
457(21) . . .
477(22) . . .
481(22) . . .
460(21) . . .
457(21) . . .
484(22) . . .
435(21) . . .
421(21) . . .
460(21) . . .
460(21) . . .
471(22) . . .
470(22) . . .
469(22) . . .
486(22) . . .
477(22) . . .
498(22) . . .
498(22) . . .
459(21) . . .
469(22) . . .
476(22) . . .
479(22) . . .
479(22) . . .
467(22) . . .
462(21) . . .
524(23) . . .
490(22) . . .
470(22) . . .
504(22) . . .
474(22) . . .
496(22) . . .
494(22) . . .
487(22) . . .
493(22) . . .
551(23) . . .
529(23) . . .
532(23) . . .
475(22) . . .
507(23) . . .
515(23) . . .
486(22) . . .
468(22) . . .
498(22) . . .
457(21) . . .
515(23) . . .
536(23) . . .
526(23) . . .
519(23) . . .
507(23) . . .
515(23) . . .
522(23) . . .
486(22) . . .
514(23) . . .
452(21) . . .
493(22) . . .
502(22) . . .
504(22) . . .
480(22) . . .
472(22) . . .
515(23) . . .
493(22) . . .
473(22) . . .
468(22) . . .
456(21) . . .
512(23) . . .
459(21) . . .
483(22) . . .
474(22) . . .
480(22) . . .
487(22) . . .
499(22) . . .
520(23) . . .
482(22) . . .
513(23) . . .
465(22) . . .
496(22) . . .
480(22) . . .
475(22) . . .
497(22) . . .
479(22) . . .
474(22) . . .
495(22) . . .
466(22) . . .
472(22) . . .
511(23) . . .
499(22) . . .
495(22) . . .
487(22) . . .
493(22) . . .
490(22) . . .
482(22) . . .
476(22) . . .
483(22) . . .
458(21) . . .
505(22) . . .
477(22) . . .
466(22) . . .
480(22) . . .
498(22) . . .
485(22) . . .
465(22) . . .
468(22) . . .
449(21) . . .
493(22) . . .
476(22) . . .
483(22) . . .
453(21) . . .
491(22) . . .
450(21) . . .
454(21) . . .
490(22) . . .
465(22) . . .
452(21) . . .
450(21) . . .
467(22) . . .
492(22) . . .
487(22) . . .
474(22) . . .
488(22) . . .
495(22) . . .
462(21) . . .
484(22) . . .
462(21) . . .
472(22) . . .
491(22) . . .
466(22) . . .
502(22) . . .
470(22) . . .
480(22) . . .
453(21) . . .
521(23) . . .
478(22) . . .
473(22) . . .
445(21) . . .
479(22) . . .
499(22) . . .
459(21) . . .
465(22) . . .
491(22) . . .
488(22) . . .
510(23) . . .
482(22) . . .
464(22) . . .
462(21) . . .
497(22) . . .
486(22) . . .
480(22) . . .
483(22) . . .
472(22) . . .
491(22) . . .
482(22) . . .
467(22) . . .
490(22) . . .
472(22) . . .
515(23) . . .
483(22) . . .
471(22) . . .
485(22) . . .
515(23) . . .
517(23) . . .
509(23) . . .
508(23) . . .
534(23) . . .
505(22) . . .
492(22) . . .
496(22) . . .
517(23) . . .
478(22) . . .
504(22) . . .
532(23) . . .
544(23) . . .
488(22) . . .
505(22) . . .
504(22) . . .
517(23) . . .
506(22) . . .
521(23) . . .
520(23) . . .
509(23) . . .
515(23) . . .
515(23) . . .
535(23) . . .
548(23) . . .
536(23) . . .
530(23) . . .
549(23) . . .
513(23) . . .
556(24) . . .
508(23) . . .
514(23) . . .
525(23) . . .
522(23) . . .
525(23) . . .
518(23) . . .
523(23) . . .
500(22) . . .
528(23) . . .
530(23) . . .
533(23) . . .
510(23) . . .
515(23) . . .
516(23) . . .
511(23) . . .
529(23) . . .
506(22) . . .
558(24) . . .
549(23) . . .
529(23) . . .
516(23) . . .
488(22) . . .
527(23) . . .
532(23) . . .
552(23) . . .
541(23) . . .
535(23) . . .
526(23) . . .
573(24) . . .
535(23) . . .
562(24) . . .
554(24) . . .
555(24) . . .
569(24) . . .
549(23) . . .
604(25) . . .
571(24) . . .
542(23) . . .
568(24) . . .
570(24) . . .
564(24) . . .
542(23) . . .
568(24) . . .
578(24) . . .
589(24) . . .
602(25) . . .
600(24) . . .
572(24) . . .
605(25) . . .
621(25) . . .
655(26) . . .
590(24) . . .
595(24) . . .
642(25) . . .
648(25) . . .
618(25) . . .
671(26) . . .
664(26) . . .
642(25) . . .
665(26) . . .
676(26) . . .
675(26) . . .
689(26) . . .
702(26) . . .
705(27) . . .
731(27) . . .
723(27) . . .
781(28) . . .
780(28) . . .
829(29) . . .
875(30) . . .
849(29) . . .
826(29) . . .
846(29) . . .
873(30) . . .
921(30) . . .
1001(32) . . .
1002(32) . . .
1010(32) . . .
1063(33) . . .
1067(33) . . .
1170(34) . . .
1223(35) . . .
1220(35) . . .
1334(37) . . .
1367(37) . . .
1443(38) . . .
1496(39) . . .
1532(39) . . .
1613(40) . . .
1745(42) . . .
1769(42) . . .
2055(45) . . .
2133(46) . . .
2153(46) . . .
2464(50) . . .
2711(52) . . .
2978(55) . . .
3284(57) . . .
3630(60) . . .
4157(64) . . .
4480(67) . . .
5063(71) . . .
5887(77) . . .
6676(82) . . .
7792(88) . . .
8895(94) . . .
10400(100) . . .
12470(110) . . .
14440(120) . . .
17660(130) . . .
21130(150) . . .
26310(160) . . .
31970(180) . . .
38590(200) . . .
46950(220) . . .
55180(240) . . .
64230(250) . . .
71270(270) . . .
75840(280) . . .
76580(280) . . .
74030(270) . . .
68370(260) . . .
60370(250) . . .
50590(230) . . .
41610(200) . . .
33220(180) . . .
26190(160) . . .
20640(140) . . .
16520(130) . . .
13710(120) . . .
11350(110) . . .
9476(97) . . .
8148(90) . . .
7113(84) . . .
6274(79) . . .
5557(75) . . .
4967(70) . . .
4433(67) . . .
3965(63) . . .
3522(59) . . .
3205(57) . . .
2957(54) . . .
2702(52) . . .
2436(49) . . .
2323(48) . . .
2237(47) . . .
2022(45) . . .
1970(44) . . .
1790(42) . . .
1717(41) . . .
1632(40) . . .
1559(39) . . .
1431(38) . . .
1391(37) . . .
1277(36) . . .
1178(34) . . .
1169(34) . . .
1109(33) . . .
1104(33) . . .
1101(33) . . .
1031(32) . . .
1031(32) . . .
1035(32) . . .
992(31) . . .
937(31) . . .
922(30) . . .
897(30) . . .
846(29) . . .
783(28) . . .
796(28) . . .
806(28) . . .
771(28) . . .
791(28) . . .
760(28) . . .
749(27) . . .
760(28) . . .
727(27) . . .
773(28) . . .
708(27) . . .
727(27) . . .
705(27) . . .
669(26) . . .
696(26) . . .
672(26) . . .
673(26) . . .
637(25) . . .
676(26) . . .
715(27) . . .
670(26) . . .
670(26) . . .
686(26) . . .
648(25) . . .
645(25) . . .
704(27) . . .
635(25) . . .
636(25) . . .
613(25) . . .
654(26) . . .
664(26) . . .
676(26) . . .
676(26) . . .
647(25) . . .
649(25) . . .
680(26) . . .
667(26) . . .
702(26) . . .
637(25) . . .
658(26) . . .
610(25) . . .
649(25) . . .
631(25) . . .
634(25) . . .
624(25) . . .
608(25) . . .
614(25) . . .
602(25) . . .
585(24) . . .
581(24) . . .
587(24) . . .
548(23) . . .
564(24) . . .
557(24) . . .
563(24) . . .
533(23) . . .
535(23) . . .
589(24) . . .
594(24) . . .
544(23) . . .
529(23) . . .
517(23) . . .
523(23) . . .
547(23) . . .
498(22) . . .
535(23) . . .
509(23) . . .
541(23) . . .
548(23) . . .
565(24) . . .
540(23) . . .
509(23) . . .
526(23) . . .
508(23) . . .
547(23) . . .
522(23) . . .
544(23) . . .
552(23) . . .
527(23) . . .
532(23) . . .
523(23) . . .
546(23) . . .
540(23) . . .
533(23) . . .
549(23) . . .
504(22) . . .
552(23) . . .
586(24) . . .
544(23) . . .
567(24) . . .
536(23) . . .
563(24) . . .
533(23) . . .
579(24) . . .
540(23) . . .
585(24) . . .
553(24) . . .
562(24) . . .
632(25) . . .
606(25) . . .
593(24) . . .
567(24) . . .
530(23) . . .
579(24) . . .
556(24) . . .
523(23) . . .
553(24) . . .
567(24) . . .
526(23) . . .
524(23) . . .
542(23) . . .
558(24) . . .
542(23) . . .
571(24) . . .
562(24) . . .
549(23) . . .
541(23) . . .
542(23) . . .
549(23) . . .
508(23) . . .
547(23) . . .
514(23) . . .
542(23) . . .
554(24) . . .
544(23) . . .
532(23) . . .
541(23) . . .
566(24) . . .
588(24) . . .
532(23) . . .
552(23) . . .
555(24) . . .
542(23) . . .
599(24) . . .
557(24) . . .
554(24) . . .
556(24) . . .
507(23) . . .
585(24) . . .
584(24) . . .
540(23) . . .
571(24) . . .
532(23) . . .
565(24) . . .
575(24) . . .
572(24) . . .
547(23) . . .
556(24) . . .
556(24) . . .
570(24) . . .
579(24) . . .
587(24) . . .
557(24) . . .
579(24) . . .
576(24) . . .
560(24) . . .
541(23) . . .
572(24) . . .
581(24) . . .
588(24) . . .
518(23) . . .
572(24) . . .
548(23) . . .
570(24) . . .
610(25) . . .
562(24) . . .
571(24) . . .
562(24) . . .
561(24) . . .
558(24) . . .
562(24) . . .
585(24) . . .
569(24) . . .
585(24) . . .
556(24) . . .
576(24) . . .
546(23) . . .
549(23) . . .
581(24) . . .
537(23) . . .
579(24) . . .
552(23) . . .
504(22) . . .
551(23) . . .
568(24) . . .
536(23) . . .
546(23) . . .
548(23) . . .
555(24) . . .
577(24) . . .
592(24) . . .
549(23) . . .
555(24) . . .
573(24) . . .
551(23) . . .
568(24) . . .
581(24) . . .
588(24) . . .
591(24) . . .
598(24) . . .
614(25) . . .
600(24) . . .
599(24) . . .
564(24) . . .
600(24) . . .
606(25) . . .
577(24) . . .
614(25) . . .
549(23) . . .
565(24) . . .
597(24) . . .
612(25) . . .
558(24) . . .
556(24) . . .
571(24) . . .
577(24) . . .
568(24) . . .
593(24) . . .
559(24) . . .
588(24) . . .
606(25) . . .
571(24) . . .
595(24) . . .
586(24) . . .
620(25) . . .
571(24) . . .
600(24) . . .
585(24) . . .
590(24) . . .
553(24) . . .
590(24) . . .
567(24) . . .
565(24) . . .
606(25) . . .
615(25) . . .
647(25) . . .
626(25) . . .
619(25) . . .
625(25) . . .
609(25) . . .
609(25) . . .
631(25) . . .
628(25) . . .
645(25) . . .
627(25) . . .
629(25) . . .
585(24) . . .
638(25) . . .
649(25) . . .
635(25) . . .
656(26) . . .
655(26) . . .
628(25) . . .
676(26) . . .
655(26) . . .
655(26) . . .
656(26) . . .
661(26) . . .
688(26) . . .
706(27) . . .
699(26) . . .
768(28) . . .
758(28) . . .
732(27) . . .
690(26) . . .
777(28) . . .
751(27) . . .
752(27) . . .
746(27) . . .
839(29) . . .
839(29) . . .
835(29) . . .
837(29) . . .
871(30) . . .
829(29) . . .
898(30) . . .
905(30) . . .
939(31) . . .
952(31) . . .
1015(32) . . .
1034(32) . . .
1115(33) . . .
1110(33) . . .
1169(34) . . .
1126(34) . . .
1269(36) . . .
1285(36) . . .
1366(37) . . .
1451(38) . . .
1475(38) . . .
1537(39) . . .
1636(40) . . .
1724(42) . . .
1797(42) . . .
1895(44) . . .
2037(45) . . .
2150(46) . . .
2317(48) . . .
2551(51) . . .
2687(52) . . .
2781(53) . . .
3024(55) . . .
3459(59) . . .
3781(61) . . .
4141(64) . . .
4798(69) . . .
5183(72) . . .
6039(78) . . .
6824(83) . . .
7896(89) . . .
9102(95) . . .
10690(100) . . .
12720(110) . . .
15280(120) . . .
18360(140) . . .
22540(150) . . .
27960(170) . . .
34440(190) . . .
42830(210) . . .
53280(230) . . .
65450(260) . . .
77380(280) . . .
87380(300) . . .
91940(300) . . .
92260(300) . . .
87710(300) . . .
80560(280) . . .
71250(270) . . .
60750(250) . . .
49760(220) . . .
40100(200) . . .
31580(180) . . .
25380(160) . . .
20410(140) . . .
16570(130) . . .
13790(120) . . .
11240(110) . . .
9746(99) . . .
8354(91) . . .
7132(84) . . .
6404(80) . . .
5388(73) . . .
4736(69) . . .
4225(65) . . .
3789(62) . . .
3505(59) . . .
3195(57) . . .
2904(54) . . .
2687(52) . . .
2385(49) . . .
2272(48) . . .
2051(45) . . .
2000(45) . . .
1854(43) . . .
1794(42) . . .
1750(42) . . .
1626(40) . . .
1572(40) . . .
1436(38) . . .
1428(38) . . .
1388(37) . . .
1358(37) . . .
1290(36) . . .
1195(35) . . .
1182(34) . . .
1147(34) . . .
1142(34) . . .
1004(32) . . .
998(32) . . .
956(31) . . .
881(30) . . .
932(31) . . .
846(29) . . .
848(29) . . .
845(29) . . .
822(29) . . .
764(28) . . .
788(28) . . .
714(27) . . .
754(27) . . .
751(27) . . .
743(27) . . .
701(26) . . .
704(27) . . .
721(27) . . .
714(27) . . .
709(27) . . .
687(26) . . .
622(25) . . .
671(26) . . .
654(26) . . .
649(25) . . .
661(26) . . .
661(26) . . .
658(26) . . .
619(25) . . .
647(25) . . .
644(25) . . .
628(25) . . .
591(24) . . .
662(26) . . .
601(25) . . .
602(25) . . .
606(25) . . .
614(25) . . .
587(24) . . .
618(25) . . .
641(25) . . .
580(24) . . .
589(24) . . .
594(24) . . .
594(24) . . .
589(24) . . .
615(25) . . .
581(24) . . .
611(25) . . .
611(25) . . .
610(25) . . .
527(23) . . .
541(23) . . .
598(24) . . .
577(24) . . .
594(24) . . .
567(24) . . .
546(23) . . .
577(24) . . .
560(24) . . .
554(24) . . .
536(23) . . .
555(24) . . .
544(23) . . .
540(23) . . .
541(23) . . .
568(24) . . .
545(23) . . .
544(23) . . .
543(23) . . .
538(23) . . .
507(23) . . .
551(23) . . .
525(23) . . .
499(22) . . .
534(23) . . .
578(24) . . .
536(23) . . .
525(23) . . .
548(23) . . .
529(23) . . .
497(22) . . .
510(23) . . .
489(22) . . .
485(22) . . .
499(22) . . .
526(23) . . .
466(22) . . .
512(23) . . .
484(22) . . .
494(22) . . .
451(21) . . .
465(22) . . .
535(23) . . .
481(22) . . .
467(22) . . .
509(23) . . .
466(22) . . .
459(21) . . .
454(21) . . .
496(22) . . .
490(22) . . .
476(22) . . .
486(22) . . .
523(23) . . .
491(22) . . .
500(22) . . .
477(22) . . .
489(22) . . .
476(22) . . .
495(22) . . .
515(23) . . .
445(21) . . .
470(22) . . .
514(23) . . .
485(22) . . .
502(22) . . .
509(23) . . .
480(22) . . .
461(21) . . .
468(22) . . .
481(22) . . .
475(22) . . .
496(22) . . .
488(22) . . .
464(22) . . .
490(22) . . .
459(21) . . .
470(22) . . .
516(23) . . .
477(22) . . .
474(22) . . .
471(22) . . .
467(22) . . .
456(21) . . .
465(22) . . .
491(22) . . .
457(21) . . .
474(22) . . .
478(22) . . .
438(21) . . .
478(22) . . .
482(22) . . .
474(22) . . .
493(22) . . .
491(22) . . .
468(22) . . .
465(22) . . .
479(22) . . .
501(22) . . .
504(22) . . .
477(22) . . .
504(22) . . .
523(23) . . .
515(23) . . .
483(22) . . .
450(21) . . .
500(22) . . .
483(22) . . .
477(22) . . .
469(22) . . .
496(22) . . .
485(22) . . .
484(22) . . .
449(21) . . .
476(22) . . .
469(22) . . .
484(22) . . .
427(21) . . .
456(21) . . .
456(21) . . .
444(21) . . .
444(21) . . .
448(21) . . .
476(22) . . .
471(22) . . .
487(22) . . .
475(22) . . .
398(20) . . .
456(21) . . .
475(22) . . .
465(22) . . .
459(21) . . .
497(22) . . .
473(22) . . .
485(22) . . .
457(21) . . .
444(21) . . .
445(21) . . .
458(21) . . .
453(21) . . .
458(21) . . .
479(22) . . .
464(22) . . .
500(22) . . .
476(22) . . .
460(21) . . .
513(23) . . .
483(22) . . .
459(21) . . .
476(22) . . .
458(21) . . .
460(21) . . .
470(22) . . .
466(22) . . .
492(22) . . .
542(23) . . .
510(23) . . .
502(22) . . .
489(22) . . .
441(21) . . .
463(22) . . .
468(22) . . .
494(22) . . .
488(22) . . .
451(21) . . .
499(22) . . .
483(22) . . .
465(22) . . .
471(22) . . .
494(22) . . .
480(22) . . .
472(22) . . .
452(21) . . .
462(21) . . .
478(22) . . .
483(22) . . .
421(21) . . .
431(21) . . .
471(22) . . .
464(22) . . .
466(22) . . .
440(21) . . .
442(21) . . .
473(22) . . .
407(20) . . .
432(21) . . .
456(21) . . .
463(22) . . .
465(22) . . .
459(21) . . .
443(21) . . .
445(21) . . .
415(20) . . .
428(21) . . .
462(21) . . .
431(21) . . .
438(21) . . .
450(21) . . .
443(21) . . .
460(21) . . .
444(21) . . .
409(20) . . .
501(22) . . .
430(21) . . .
456(21) . . .
424(21) . . .
418(20) . . .
411(20) . . .
418(20) . . .
414(20) . . .
456(21) . . .
456(21) . . .
484(22) . . .
407(20) . . .
445(21) . . .
448(21) . . .
438(21) . . .
439(21) . . .
457(21) . . .
420(20) . . .
405(20) . . .
449(21) . . .
455(21) . . .
445(21) . . .
434(21) . . .
438(21) . . .
446(21) . . .
481(22) . . .
433(21) . . .
439(21) . . .
402(20) . . .
437(21) . . .
431(21) . . .
449(21) . . .
433(21) . . .
477(22) . . .
445(21) . . .
462(21) . . .
456(21) . . .
427(21) . . .
471(22) . . .
420(20) . . .
431(21) . . .
456(21) . . .
465(22) . . .
470(22) . . .
442(21) . . .
445(21) . . .
447(21) . . .
430(21) . . .
453(21) . . .
469(22) . . .
489(22) . . .
457(21) . . .
446(21) . . .
435(21) . . .
474(22) . . .
456(21) . . .
428(21) . . .
442(21) . . .
459(21) . . .
463(22) . . .
481(22) . . .
454(21) . . .
498(22) . . .
483(22) . . .
473(22) . . .
520(23) . . .
483(22) . . .
473(22) . . .
431(21) . . .
455(21) . . .
457(21) . . .
440(21) . . .
465(22) . . .
490(22) . . .
428(21) . . .
464(22) . . .
490(22) . . .
481(22) . . .
499(22) . . .
498(22) . . .
477(22) . . .
469(22) . . .
470(22) . . .
480(22) . . .
488(22) . . .
492(22) . . .
513(23) . . .
497(22) . . .
480(22) . . .
495(22) . . .
476(22) . . .
466(22) . . .
468(22) . . .
461(21) . . .
461(21) . . .
481(22) . . .
504(22) . . .
466(22) . . .
479(22) . . .
464(22) . . .
456(21) . . .
471(22) . . .
427(21) . . .
443(21) . . .
459(21) . . .
432(21) . . .
448(21) . . .
442(21) . . .
461(21) . . .
451(21) . . .
461(21) . . .
429(21) . . .
452(21) . . .
461(21) . . .
452(21) . . .
456(21) . . .
466(22) . . .
489(22) . . .
450(21) . . .
431(21) . . .
437(21) . . .
408(20) . . .
496(22) . . .
468(22) . . .
472(22) . . .
453(21) . . .
442(21) . . .
431(21) . . .
432(21) . . .
418(20) . . .
471(22) . . .
452(21) . . .
459(21) . . .
436(21) . . .
418(20) . . .
470(22) . . .
461(21) . . .
472(22) . . .
427(21) . . .
439(21) . . .
459(21) . . .
463(22) . . .
421(21) . . .
468(22) . . .
471(22) . . .
462(21) . . .
405(20) . . .
448(21) . . .
460(21) . . .
413(20) . . .
463(22) . . .
436(21) . . .
432(21) . . .
426(21) . . .
418(20) . . .
414(20) . . .
441(21) . . .
479(22) . . .
452(21) . . .
439(21) . . .
457(21) . . .
458(21) . . .
428(21) . . .
429(21) . . .
441(21) . . .
458(21) . . .
437(21) . . .
419(20) . . .
444(21) . . .
447(21) . . .
429(21) . . .
441(21) . . .
432(21) . . .
418(20) . . .
464(22) . . .
455(21) . . .
398(20) . . .
430(21) . . .
450(21) . . .
409(20) . . .
444(21) . . .
426(21) . . .
457(21) . . .
473(22) . . .
447(21) . . .
448(21) . . .
448(21) . . .
480(22) . . .
455(21) . . .
449(21) . . .
421(21) . . .
449(21) . . .
455(21) . . .
439(21) . . .
459(21) . . .
442(21) . . .
410(20) . . .
428(21) . . .
445(21) . . .
430(21) . . .
455(21) . . .
424(21) . . .
422(21) . . .
416(20) . . .
446(21) . . .
405(20) . . .
439(21) . . .
439(21) . . .
433(21) . . .
433(21) . . .
455(21) . . .
435(21) . . .
410(20) . . .
416(20) . . .
446(21) . . .
457(21) . . .
422(21) . . .
471(22) . . .
454(21) . . .
443(21) . . .
478(22) . . .
450(21) . . .
481(22) . . .
435(21) . . .
443(21) . . .
444(21) . . .
469(22) . . .
385(20) . . .
441(21) . . .
459(21) . . .
482(22) . . .
439(21) . . .
451(21) . . .
453(21) . . .
435(21) . . .
442(21) . . .
403(20) . . .
408(20) . . .
445(21) . . .
409(20) . . .
429(21) . . .
459(21) . . .
431(21) . . .
406(20) . . .
428(21) . . .
432(21) . . .
410(20) . . .
431(21) . . .
399(20) . . .
404(20) . . .
425(21) . . .
425(21) . . .
387(20) . . .
431(21) . . .
415(20) . . .
434(21) . . .
463(22) . . .
421(21) . . .
457(21) . . .
445(21) . . .
446(21) . . .
422(21) . . .
413(20) . . .
406(20) . . .
399(20) . . .
432(21) . . .
438(21) . . .
408(20) . . .
468(22) . . .
442(21) . . .
428(21) . . .
408(20) . . .
415(20) . . .
444(21) . . .
420(20) . . .
412(20) . . .
423(21) . . .
415(20) . . .
423(21) . . .
409(20) . . .
440(21) . . .
466(22) . . .
423(21) . . .
444(21) . . .
380(19) . . .
419(20) . . .
439(21) . . .
456(21) . . .
445(21) . . .
474(22) . . .
435(21) . . .
427(21) . . .
446(21) . . .
396(20) . . .
413(20) . . .
463(22) . . .
421(21) . . .
437(21) . . .
435(21) . . .
458(21) . . .
455(21) . . .
468(22) . . .
461(21) . . .
458(21) . . .
403(20) . . .
435(21) . . .
424(21) . . .
459(21) . . .
454(21) . . .
487(22) . . .
456(21) . . .
446(21) . . .
499(22) . . .
482(22) . . .
439(21) . . .
444(21) . . .
443(21) . . .
444(21) . . .
456(21) . . .
457(21) . . .
473(22) . . .
439(21) . . .
429(21) . . .
437(21) . . .
439(21) . . .
456(21) . . .
473(22) . . .
457(21) . . .
440(21) . . .
449(21) . . .
484(22) . . .
481(22) . . .
487(22) . . .
422(21) . . .
447(21) . . .
459(21) . . .
436(21) . . .
433(21) . . .
469(22) . . .
461(21) . . .
452(21) . . .
486(22) . . .
452(21) . . .
483(22) . . .
432(21) . . .
500(22) . . .
438(21) . . .
443(21) . . .
457(21) . . .
479(22) . . .
428(21) . . .
431(21) . . .
466(22) . . .
457(21) . . .
440(21) . . .
406(20) . . .
425(21) . . .
419(20) . . .
455(21) . . .
429(21) . . .
450(21) . . .
437(21) . . .
440(21) . . .
449(21) . . .
414(20) . . .
464(22) . . .
428(21) . . .
439(21) . . .
466(22) . . .
457(21) . . .
442(21) . . .
424(21) . . .
456(21) . . .
467(22) . . .
459(21) . . .
428(21) . . .
458(21) . . .
423(21) . . .
433(21) . . .
436(21) . . .
446(21) . . .
457(21) . . .
428(21) . . .
472(22) . . .
433(21) . . .
427(21) . . .
427(21) . . .
440(21) . . .
437(21) . . .
459(21) . . .
464(22) . . .
429(21) . . .
414(20) . . .
440(21) . . .
445(21) . . .
398(20) . . .
458(21) . . .
432(21) . . .
415(20) . . .
440(21) . . .
465(22) . . .
429(21) . . .
434(21) . . .
464(22) . . .
407(20) . . .
434(21) . . .
419(20) . . .
391(20) . . .
437(21) . . .
419(20) . . .
425(21) . . .
441(21) . . .
435(21) . . .
437(21) . . .
471(22) . . .
413(20) . . .
455(21) . . .
451(21) . . .
422(21) . . .
437(21) . . .
425(21) . . .
415(20) . . .
410(20) . . .
408(20) . . .
433(21) . . .
437(21) . . .
424(21) . . .
464(22) . . .
442(21) . . .
418(20) . . .
409(20) . . .
442(21) . . .
438(21) . . .
453(21) . . .
449(21) . . .
401(20) . . .
427(21) . . .
420(20) . . .
436(21) . . .
431(21) . . .
432(21) . . .
438(21) . . .
391(20) . . .
406(20) . . .
379(19) . . .
385(20) . . .
412(20) . . .
427(21) . . .
402(20) . . .
391(20) . . .
395(20) . . .
402(20) . . .
417(20) . . .
404(20) . . .
393(20) . . .
378(19) . . .
413(20) . . .
419(20) . . .
441(21) . . .
429(21) . . .
395(20) . . .
406(20) . . .
435(21) . . .
428(21) . . .
371(19) . . .
441(21) . . .
441(21) . . .
400(20) . . .
400(20) . . .
447(21) . . .
387(20) . . .
389(20) . . .
407(20) . . .
421(21) . . .
424(21) . . .
420(20) . . .
432(21) . . .
399(20) . . .
401(20) . . .
406(20) . . .
430(21) . . .
409(20) . . .
386(20) . . .
432(21) . . .
411(20) . . .
447(21) . . .
441(21) . . .
421(21) . . .
421(21) . . .
414(20) . . .
400(20) . . .
423(21) . . .
385(20) . . .
448(21) . . .
438(21) . . .
423(21) . . .
416(20) . . .
424(21) . . .
415(20) . . .
425(21) . . .
402(20) . . .
430(21) . . .
414(20) . . .
407(20) . . .
432(21) . . .
445(21) . . .
414(20) . . .
432(21) . . .
430(21) . . .
408(20) . . .
445(21) . . .
399(20) . . .
437(21) . . .
413(20) . . .
445(21) . . .
405(20) . . .
384(20) . . .
374(19) . . .
396(20) . . .
403(20) . . .
434(21) . . .
406(20) . . .
411(20) . . .
407(20) . . .
404(20) . . .
431(21) . . .
411(20) . . .
428(21) . . .
396(20) . . .
411(20) . . .
438(21) . . .
397(20) . . .
414(20) . . .
409(20) . . .
440(21) . . .
416(20) . . .
406(20) . . .
418(20) . . .
394(20) . . .
407(20) . . .
404(20) . . .
379(19) . . .
395(20) . . .
415(20) . . .
412(20) . . .
398(20) . . .
399(20) . . .
390(20) . . .
419(20) . . .
413(20) . . .
441(21) . . .
353(19) . . .
420(20) . . .
413(20) . . .
394(20) . . .
430(21) . . .
434(21) . . .
425(21) . . .
418(20) . . .
411(20) . . .
377(19) . . .
400(20) . . .
414(20) . . .
407(20) . . .
399(20) . . .
405(20) . . .
400(20) . . .
410(20) . . .
412(20) . . .
386(20) . . .
394(20) . . .
441(21) . . .
383(20) . . .
385(20) . . .
389(20) . . .
407(20) . . .
387(20) . . .
386(20) . . .
390(20) . . .
451(21) . . .
386(20) . . .
417(20) . . .
396(20) . . .
419(20) . . .
439(21) . . .
392(20) . . .
408(20) . . .
416(20) . . .
367(19) . . .
398(20) . . .
419(20) . . .
424(21) . . .
434(21) . . .
408(20) . . .
401(20) . . .
395(20) . . .
414(20) . . .
403(20) . . .
409(20) . . .
389(20) . . .
386(20) . . .
387(20) . . .
427(21) . . .
396(20) . . .
429(21) . . .
388(20) . . .
409(20) . . .
391(20) . . .
421(21) . . .
463(22) . . .
422(21) . . .
415(20) . . .
405(20) . . .
414(20) . . .
406(20) . . .
417(20) . . .
441(21) . . .
469(22) . . .
416(20) . . .
434(21) . . .
419(20) . . .
440(21) . . .
405(20) . . .
409(20) . . .
456(21) . . .
441(21) . . .
449(21) . . .
423(21) . . .
453(21) . . .
489(22) . . .
455(21) . . .
443(21) . . .
462(21) . . .
464(22) . . .
469(22) . . .
467(22) . . .
488(22) . . .
469(22) . . .
490(22) . . .
468(22) . . .
478(22) . . .
481(22) . . .
472(22) . . .
487(22) . . .
474(22) . . .
466(22) . . .
515(23) . . .
495(22) . . .
494(22) . . .
480(22) . . .
462(21) . . .
476(22) . . .
479(22) . . .
474(22) . . .
494(22) . . .
530(23) . . .
480(22) . . .
473(22) . . .
476(22) . . .
482(22) . . .
507(23) . . .
464(22) . . .
483(22) . . .
448(21) . . .
447(21) . . .
457(21) . . .
424(21) . . .
467(22) . . .
417(20) . . .
426(21) . . .
458(21) . . .
423(21) . . .
421(21) . . .
456(21) . . .
437(21) . . .
436(21) . . .
434(21) . . .
463(22) . . .
426(21) . . .
453(21) . . .
409(20) . . .
455(21) . . .
410(20) . . .
440(21) . . .
442(21) . . .
405(20) . . .
452(21) . . .
450(21) . . .
425(21) . . .
422(21) . . .
424(21) . . .
461(21) . . .
455(21) . . .
415(20) . . .
434(21) . . .
456(21) . . .
457(21) . . .
461(21) . . .
437(21) . . .
494(22) . . .
430(21) . . .
468(22) . . .
443(21) . . .
457(21) . . .
498(22) . . .
463(22) . . .
496(22) . . .
468(22) . . .
494(22) . . .
488(22) . . .
461(21) . . .
473(22) . . .
484(22) . . .
487(22) . . .
481(22) . . .
448(21) . . .
475(22) . . .
485(22) . . .
517(23) . . .
498(22) . . .
485(22) . . .
484(22) . . .
508(23) . . .
435(21) . . .
493(22) . . .
481(22) . . .
503(22) . . .
500(22) . . .
469(22) . . .
488(22) . . .
505(22) . . .
492(22) . . .
495(22) . . .
480(22) . . .
519(23) . . .
481(22) . . .
462(21) . . .
510(23) . . .
490(22) . . .
468(22) . . .
432(21) . . .
447(21) . . .
433(21) . . .
462(21) . . .
448(21) . . .
445(21) . . .
475(22) . . .
394(20) . . .
459(21) . . .
437(21) . . .
416(20) . . .
402(20) . . .
435(21) . . .
413(20) . . .
423(21) . . .
422(21) . . .
436(21) . . .
405(20) . . .
399(20) . . .
450(21) . . .
409(20) . . .
407(20) . . .
403(20) . . .
446(21) . . .
470(22) . . .
465(22) . . .
462(21) . . .
470(22) . . .
433(21) . . .
450(21) . . .
429(21) . . .
451(21) . . .
458(21) . . .
421(21) . . .
449(21) . . .
422(21) . . .
426(21) . . .
430(21) . . .
452(21) . . .
475(22) . . .
434(21) . . .
421(21) . . .
401(20) . . .
418(20) . . .
439(21) . . .
432(21) . . .
440(21) . . .
440(21) . . .
436(21) . . .
422(21) . . .
462(21) . . .
462(21) . . .
456(21) . . .
400(20) . . .
447(21) . . .
430(21) . . .
408(20) . . .
412(20) . . .
433(21) . . .
430(21) . . .
437(21) . . .
434(21) . . .
425(21) . . .
455(21) . . .
450(21) . . .
428(21) . . .
453(21) . . .
463(22) . . .
439(21) . . .
435(21) . . .
456(21) . . .
490(22) . . .
437(21) . . .
407(20) . . .
423(21) . . .
421(21) . . .
408(20) . . .
424(21) . . .
456(21) . . .
450(21) . . .
399(20) . . .
447(21) . . .
410(20) . . .
426(21) . . .
411(20) . . .
460(21) . . .
402(20) . . .
410(20) . . .
428(21) . . .
432(21) . . .
443(21) . . .
426(21) . . .
399(20) . . .
434(21) . . .
429(21) . . .
403(20) . . .
414(20) . . .
400(20) . . .
433(21) . . .
424(21) . . .
427(21) . . .
417(20) . . .
389(20) . . .
385(20) . . .
420(20) . . .
431(21) . . .
409(20) . . .
405(20) . . .
441(21) . . .
440(21) . . .
415(20) . . .
450(21) . . .
433(21) . . .
427(21) . . .
462(21) . . .
464(22) . . .
404(20) . . .
435(21) . . .
420(20) . . .
466(22) . . .
414(20) . . .
450(21) . . .
458(21) . . .
421(21) . . .
421(21) . . .
441(21) . . .
433(21) . . .
440(21) . . .
427(21) . . .
432(21) . . .
428(21) . . .
438(21) . . .
446(21) . . .
449(21) . . .
436(21) . . .
448(21) . . .
433(21) . . .
403(20) . . .
435(21) . . .
463(22) . . .
433(21) . . .
429(21) . . .
414(20) . . .
445(21) . . .
427(21) . . .
433(21) . . .
427(21) . . .
425(21) . . .
419(20) . . .
460(21) . . .
424(21) . . .
406(20) . . .
413(20) . . .
455(21) . . .
425(21) . . .
431(21) . . .
429(21) . . .
444(21) . . .
431(21) . . .
474(22) . . .
390(20) . . .
441(21) . . .
412(20) . . .
451(21) . . .
454(21) . . .
440(21) . . .
418(20) . . .
400(20) . . .
421(21) . . .
440(21) . . .
424(21) . . .
427(21) . . .
443(21) . . .
436(21) . . .
432(21) . . .
442(21) . . .
418(20) . . .
395(20) . . .
443(21) . . .
469(22) . . .
417(20) . . .
397(20) . . .
407(20) . . .
395(20) . . .
429(21) . . .
391(20) . . .
413(20) . . .
387(20) . . .
425(21) . . .
450(21) . . .
420(20) . . .
445(21) . . .
432(21) . . .
431(21) . . .
393(20) . . .
423(21) . . .
424(21) . . .
432(21) . . .
416(20) . . .
410(20) . . .
421(21) . . .
438(21) . . .
456(21) . . .
406(20) . . .
418(20) . . .
418(20) . . .
449(21) . . .
434(21) . . .
428(21) . . .
461(21) . . .
444(21) . . .
440(21) . . .
438(21) . . .
435(21) . . .
486(22) . . .
445(21) . . .
454(21) . . .
445(21) . . .
426(21) . . .
458(21) . . .
422(21) . . .
440(21) . . .
432(21) . . .
386(20) . . .
426(21) . . .
442(21) . . .
419(20) . . .
435(21) . . .
435(21) . . .
411(20) . . .
452(21) . . .
409(20) . . .
425(21) . . .
402(20) . . .
425(21) . . .
431(21) . . .
439(21) . . .
428(21) . . .
440(21) . . .
427(21) . . .
425(21) . . .
418(20) . . .
434(21) . . .
431(21) . . .
411(20) . . .
475(22) . . .
432(21) . . .
432(21) . . .
453(21) . . .
438(21) . . .
433(21) . . .
452(21) . . .
447(21) . . .
456(21) . . .
434(21) . . .
454(21) . . .
441(21) . . .
419(20) . . .
446(21) . . .
429(21) . . .
443(21) . . .
460(21) . . .
438(21) . . .
425(21) . . .
419(20) . . .
401(20) . . .
407(20) . . .
407(20) . . .
436(21) . . .
407(20) . . .
459(21) . . .
453(21) . . .
441(21) . . .
471(22) . . .
450(21) . . .
470(22) . . .
408(20) . . .
459(21) . . .
453(21) . . .
384(20) . . .
413(20) . . .
470(22) . . .
444(21) . . .
466(22) . . .
460(21) . . .
441(21) . . .
431(21) . . .
427(21) . . .
444(21) . . .
440(21) . . .
452(21) . . .
448(21) . . .
473(22) . . .
492(22) . . .
471(22) . . .
458(21) . . .
436(21) . . .
448(21) . . .
477(22) . . .
399(20) . . .
433(21) . . .
470(22) . . .
437(21) . . .
463(22) . . .
459(21) . . .
475(22) . . .
452(21) . . .
487(22) . . .
489(22) . . .
453(21) . . .
470(22) . . .
483(22) . . .
492(22) . . .
472(22) . . .
518(23) . . .
513(23) . . .
479(22) . . .
492(22) . . .
551(23) . . .
587(24) . . .
512(23) . . .
547(23) . . .
528(23) . . .
577(24) . . .
601(25) . . .
660(26) . . .
1224(35) . . .
771(28) . . .
616(25) . . .
597(24) . . .
601(25) . . .
629(25) . . .
635(25) . . .
656(26) . . .
618(25) . . .
664(26) . . .
681(26) . . .
603(25) . . .
664(26) . . .
674(26) . . .
718(27) . . .
728(27) . . .
694(26) . . .
689(26) . . .
770(28) . . .
738(27) . . .
754(27) . . .
754(27) . . .
771(28) . . .
842(29) . . .
827(29) . . .
825(29) . . .
865(29) . . .
926(30) . . .
938(31) . . .
991(31) . . .
1000(32) . . .
970(31) . . .
1068(33) . . .
1095(33) . . .
1114(33) . . .
1207(35) . . .
1195(35) . . .
1353(37) . . .
1449(38) . . .
1488(39) . . .
1598(40) . . .
1737(42) . . .
1808(43) . . .
1955(44) . . .
2133(46) . . .
2447(49) . . .
2619(51) . . .
2724(52) . . .
3060(55) . . .
3442(59) . . .
3881(62) . . .
4430(67) . . .
4910(70) . . .
5571(75) . . .
6417(80) . . .
7279(85) . . .
8242(91) . . .
9649(98) . . .
11280(110) . . .
13280(120) . . .
15780(130) . . .
18510(140) . . .
21980(150) . . .
25700(160) . . .
29570(170) . . .
33900(180) . . .
36900(190) . . .
39120(200) . . .
41110(200) . . .
40770(200) . . .
38910(200) . . .
35480(190) . . .
31670(180) . . .
27440(170) . . .
23830(150) . . .
19870(140) . . .
16630(130) . . .
14110(120) . . .
11720(110) . . .
9860(99) . . .
8328(91) . . .
7425(86) . . .
6314(79) . . .
5474(74) . . .
4912(70) . . .
4348(66) . . .
3910(63) . . .
3459(59) . . .
3133(56) . . .
2793(53) . . .
2613(51) . . .
2453(50) . . .
2202(47) . . .
2072(46) . . .
1878(43) . . .
1711(41) . . .
1639(40) . . .
1522(39) . . .
1409(38) . . .
1389(37) . . .
1277(36) . . .
1208(35) . . .
1184(34) . . .
1076(33) . . .
1051(32) . . .
1072(33) . . .
1007(32) . . .
933(31) . . .
889(30) . . .
859(29) . . .
861(29) . . .
833(29) . . .
856(29) . . .
796(28) . . .
771(28) . . .
748(27) . . .
721(27) . . .
696(26) . . .
696(26) . . .
683(26) . . .
631(25) . . .
633(25) . . .
666(26) . . .
603(25) . . .
645(25) . . .
590(24) . . .
633(25) . . .
615(25) . . .
604(25) . . .
584(24) . . .
553(24) . . .
560(24) . . .
538(23) . . .
577(24) . . .
548(23) . . .
526(23) . . .
586(24) . . .
539(23) . . .
566(24) . . .
545(23) . . .
520(23) . . .
547(23) . . .
528(23) . . .
511(23) . . .
482(22) . . .
513(23) . . .
538(23) . . .
502(22) . . .
491(22) . . .
511(23) . . .
523(23) . . .
487(22) . . .
493(22) . . .
497(22) . . .
465(22) . . .
449(21) . . .
481(22) . . .
487(22) . . .
454(21) . . .
476(22) . . .
444(21) . . .
501(22) . . .
498(22) . . .
470(22) . . .
495(22) . . .
458(21) . . .
445(21) . . .
457(21) . . .
469(22) . . .
431(21) . . .
472(22) . . .
475(22) . . .
494(22) . . .
453(21) . . .
425(21) . . .
479(22) . . .
470(22) . . .
497(22) . . .
483(22) . . .
467(22) . . .
448(21) . . .
453(21) . . .
431(21) . . .
440(21) . . .
488(22) . . .
449(21) . . .
484(22) . . .
435(21) . . .
476(22) . . .
488(22) . . .
480(22) . . .
432(21) . . .
428(21) . . .
436(21) . . .
440(21) . . .
454(21) . . .
452(21) . . .
487(22) . . .
480(22) . . .
461(21) . . .
459(21) . . .
428(21) . . .
465(22) . . .
457(21) . . .
451(21) . . .
433(21) . . .
471(22) . . .
461(21) . . .
464(22) . . .
449(21) . . .
446(21) . . .
441(21) . . .
437(21) . . .
456(21) . . .
423(21) . . .
413(20) . . .
468(22) . . .
457(21) . . .
463(22) . . .
439(21) . . .
455(21) . . .
469(22) . . .
429(21) . . .
466(22) . . .
453(21) . . .
431(21) . . .
416(20) . . .
437(21) . . .
432(21) . . .
432(21) . . .
439(21) . . .
463(22) . . .
434(21) . . .
477(22) . . .
454(21) . . .
422(21) . . .
439(21) . . .
418(20) . . .
436(21) . . .
414(20) . . .
436(21) . . .
438(21) . . .
409(20) . . .
451(21) . . .
464(22) . . .
446(21) . . .
418(20) . . .
444(21) . . .
427(21) . . .
443(21) . . .
480(22) . . .
449(21) . . .
476(22) . . .
453(21) . . .
430(21) . . .
475(22) . . .
423(21) . . .
415(20) . . .
440(21) . . .
470(22) . . .
458(21) . . .
458(21) . . .
460(21) . . .
413(20) . . .
439(21) . . .
434(21) . . .
441(21) . . .
430(21) . . .
454(21) . . .
442(21) . . .
443(21) . . .
448(21) . . .
435(21) . . .
441(21) . . .
460(21) . . .
436(21) . . .
463(22) . . .
454(21) . . .
438(21) . . .
457(21) . . .
441(21) . . .
392(20) . . .
438(21) . . .
461(21) . . .
425(21) . . .
424(21) . . .
426(21) . . .
421(21) . . .
411(20) . . .
428(21) . . .
423(21) . . .
437(21) . . .
413(20) . . .
438(21) . . .
421(21) . . .
410(20) . . .
441(21) . . .
437(21) . . .
429(21) . . .
462(21) . . .
414(20) . . .
417(20) . . .
435(21) . . .
417(20) . . .
405(20) . . .
410(20) . . .
386(20) . . .
402(20) . . .
424(21) . . .
434(21) . . .
415(20) . . .
420(20) . . .
403(20) . . .
409(20) . . .
438(21) . . .
430(21) . . .
416(20) . . .
409(20) . . .
432(21) . . .
418(20) . . .
436(21) . . .
398(20) . . .
408(20) . . .
388(20) . . .
413(20) . . .
462(21) . . .
410(20) . . .
392(20) . . .
458(21) . . .
423(21) . . .
440(21) . . .
402(20) . . .
400(20) . . .
438(21) . . .
417(20) . . .
432(21) . . .
397(20) . . .
410(20) . . .
424(21) . . .
394(20) . . .
414(20) . . .
431(21) . . .
389(20) . . .
407(20) . . .
418(20) . . .
395(20) . . .
410(20) . . .
383(20) . . .
404(20) . . .
410(20) . . .
461(21) . . .
398(20) . . .
423(21) . . .
409(20) . . .
440(21) . . .
408(20) . . .
402(20) . . .
416(20) . . .
411(20) . . .
421(21) . . .
419(20) . . .
392(20) . . .
394(20) . . .
427(21) . . .
405(20) . . .
436(21) . . .
427(21) . . .
432(21) . . .
374(19) . . .
417(20) . . .
386(20) . . .
421(21) . . .
422(21) . . .
394(20) . . .
413(20) . . .
383(20) . . .
415(20) . . .
435(21) . . .
446(21) . . .
425(21) . . .
379(19) . . .
424(21) . . .
415(20) . . .
388(20) . . .
406(20) . . .
435(21) . . .
446(21) . . .
402(20) . . .
420(20) . . .
438(21) . . .
404(20) . . .
420(20) . . .
412(20) . . .
403(20) . . .
428(21) . . .
406(20) . . .
393(20) . . .
400(20) . . .
405(20) . . .
396(20) . . .
404(20) . . .
356(19) . . .
359(19) . . .
429(21) . . .
408(20) . . .
425(21) . . .
391(20) . . .
384(20) . . .
397(20) . . .
389(20) . . .
384(20) . . .
380(19) . . .
376(19) . . .
419(20) . . .
392(20) . . .
429(21) . . .
423(21) . . .
397(20) . . .
392(20) . . .
416(20) . . .
406(20) . . .
421(21) . . .
386(20) . . .
423(21) . . .
435(21) . . .
428(21) . . .
458(21) . . .
445(21) . . .
437(21) . . .
447(21) . . .
435(21) . . .
455(21) . . .
455(21) . . .
463(22) . . .
418(20) . . .
420(20) . . .
456(21) . . .
418(20) . . .
432(21) . . .
434(21) . . .
405(20) . . .
397(20) . . .
442(21) . . .
412(20) . . .
392(20) . . .
415(20) . . .
417(20) . . .
411(20) . . .
396(20) . . .
437(21) . . .
404(20) . . .
423(21) . . .
428(21) . . .
418(20) . . .
429(21) . . .
438(21) . . .
408(20) . . .
405(20) . . .
433(21) . . .
411(20) . . .
393(20) . . .
458(21) . . .
414(20) . . .
392(20) . . .
410(20) . . .
405(20) . . .
404(20) . . .
384(20) . . .
401(20) . . .
398(20) . . .
384(20) . . .
404(20) . . .
379(19) . . .
453(21) . . .
376(19) . . .
442(21) . . .
411(20) . . .
404(20) . . .
400(20) . . .
427(21) . . .
417(20) . . .
423(21) . . .
386(20) . . .
408(20) . . .
395(20) . . .
391(20) . . .
414(20) . . .
380(19) . . .
400(20) . . .
399(20) . . .
391(20) . . .
411(20) . . .
420(20) . . .
414(20) . . .
393(20) . . .
446(21) . . .
409(20) . . .
420(20) . . .
362(19) . . .
391(20) . . .
413(20) . . .
383(20) . . .
421(21) . . .
389(20) . . .
408(20) . . .
400(20) . . .
437(21) . . .
480(22) . . .
425(21) . . .
390(20) . . .
387(20) . . .
425(21) . . .
413(20) . . .
409(20) . . .
433(21) . . .
419(20) . . .
445(21) . . .
396(20) . . .
424(21) . . .
450(21) . . .
408(20) . . .
435(21) . . .
422(21) . . .
390(20) . . .
389(20) . . .
433(21) . . .
433(21) . . .
387(20) . . .
406(20) . . .
413(20) . . .
395(20) . . .
429(21) . . .
397(20) . . .
396(20) . . .
411(20) . . .
424(21) . . .
407(20) . . .
401(20) . . .
426(21) . . .
420(20) . . .
388(20) . . .
419(20) . . .
409(20) . . .
422(21) . . .
422(21) . . .
415(20) . . .
433(21) . . .
416(20) . . .
433(21) . . .
412(20) . . .
429(21) . . .
419(20) . . .
395(20) . . .
412(20) . . .
415(20) . . .
430(21) . . .
427(21) . . .
422(21) . . .
424(21) . . .
428(21) . . .
417(20) . . .
426(21) . . .
404(20) . . .
424(21) . . .
418(20) . . .
476(22) . . .
475(22) . . .
457(21) . . .
442(21) . . .
435(21) . . .
422(21) . . .
420(20) . . .
454(21) . . .
434(21) . . .
451(21) . . .
446(21) . . .
444(21) . . .
472(22) . . .
422(21) . . .
414(20) . . .
450(21) . . .
416(20) . . .
458(21) . . .
420(20) . . .
423(21) . . .
458(21) . . .
420(20) . . .
420(20) . . .
436(21) . . .
424(21) . . .
452(21) . . .
450(21) . . .
447(21) . . .
439(21) . . .
423(21) . . .
454(21) . . .
431(21) . . .
464(22) . . .
446(21) . . .
464(22) . . .
453(21) . . .
433(21) . . .
441(21) . . .
436(21) . . .
427(21) . . .
449(21) . . .
432(21) . . .
440(21) . . .
415(20) . . .
424(21) . . .
459(21) . . .
410(20) . . .
412(20) . . .
419(20) . . .
437(21) . . .
436(21) . . .
419(20) . . .
433(21) . . .
457(21) . . .
408(20) . . .
412(20) . . .
450(21) . . .
460(21) . . .
441(21) . . .
441(21) . . .
394(20) . . .
425(21) . . .
420(20) . . .
446(21) . . .
431(21) . . .
470(22) . . .
451(21) . . .
433(21) . . .
474(22) . . .
453(21) . . .
424(21) . . .
469(22) . . .
430(21) . . .
458(21) . . .
454(21) . . .
466(22) . . .
519(23) . . .
446(21) . . .
461(21) . . .
453(21) . . .
459(21) . . .
487(22) . . .
471(22) . . .
469(22) . . .
451(21) . . .
469(22) . . .
436(21) . . .
478(22) . . .
455(21) . . .
457(21) . . .
466(22) . . .
429(21) . . .
434(21) . . .
452(21) . . .
483(22) . . .
424(21) . . .
455(21) . . .
424(21) . . .
429(21) . . .
446(21) . . .
445(21) . . .
429(21) . . .
473(22) . . .
443(21) . . .
446(21) . . .
429(21) . . .
432(21) . . .
425(21) . . .
410(20) . . .
395(20) . . .
442(21) . . .
425(21) . . .
401(20) . . .
434(21) . . .
406(20) . . .
419(20) . . .
439(21) . . .
427(21) . . .
428(21) . . .
418(20) . . .
409(20) . . .
390(20) . . .
400(20) . . .
451(21) . . .
405(20) . . .
438(21) . . .
427(21) . . .
394(20) . . .
434(21) . . .
397(20) . . .
411(20) . . .
400(20) . . .
422(21) . . .
413(20) . . .
417(20) . . .
420(20) . . .
439(21) . . .
416(20) . . .
412(20) . . .
438(21) . . .
416(20) . . .
432(21) . . .
406(20) . . .
416(20) . . .
390(20) . . .
418(20) . . .
421(21) . . .
417(20) . . .
430(21) . . .
444(21) . . .
421(21) . . .
475(22) . . .
424(21) . . .
407(20) . . .
402(20) . . .
428(21) . . .
410(20) . . .
453(21) . . .
417(20) . . .
432(21) . . .
442(21) . . .
423(21) . . .
456(21) . . .
447(21) . . .
417(20) . . .
436(21) . . .
420(20) . . .
431(21) . . .
469(22) . . .
428(21) . . .
455(21) . . .
442(21) . . .
441(21) . . .
458(21) . . .
430(21) . . .
396(20) . . .
418(20) . . .
428(21) . . .
428(21) . . .
399(20) . . .
431(21) . . .
415(20) . . .
460(21) . . .
404(20) . . .
417(20) . . .
425(21) . . .
417(20) . . .
407(20) . . .
400(20) . . .
436(21) . . .
425(21) . . .
417(20) . . .
396(20) . . .
364(19) . . .
443(21) . . .
421(21) . . .
367(19) . . .
379(19) . . .
404(20) . . .
382(20) . . .
383(20) . . .
396(20) . . .
381(20) . . .
392(20) . . .
382(20) . . .
390(20) . . .
396(20) . . .
397(20) . . .
365(19) . . .
374(19) . . .
387(20) . . .
386(20) . . .
391(20) . . .
366(19) . . .
387(20) . . .
381(20) . . .
384(20) . . .
377(19) . . .
350(19) . . .
362(19) . . .
371(19) . . .
383(20) . . .
375(19) . . .
374(19) . . .
361(19) . . .
410(20) . . .
395(20) . . .
391(20) . . .
371(19) . . .
361(19) . . .
380(19) . . .
378(19) . . .
387(20) . . .
362(19) . . .
336(18) . . .
390(20) . . .
375(19) . . .
362(19) . . .
386(20) . . .
363(19) . . .
393(20) . . .
363(19) . . .
372(19) . . .
368(19) . . .
394(20) . . .
343(19) . . .
386(20) . . .
364(19) . . .
372(19) . . .
380(19) . . .
377(19) . . .
379(19) . . .
387(20) . . .
369(19) . . .
406(20) . . .
381(20) . . .
375(19) . . .
396(20) . . .
375(19) . . .
394(20) . . .
384(20) . . .
416(20) . . .
373(19) . . .
380(19) . . .
381(20) . . .
402(20) . . .
395(20) . . .
375(19) . . .
438(21) . . .
378(19) . . .
396(20) . . .
389(20) . . .
378(19) . . .
386(20) . . .
378(19) . . .
403(20) . . .
361(19) . . .
357(19) . . .
391(20) . . .
393(20) . . .
395(20) . . .
374(19) . . .
361(19) . . .
362(19) . . .
389(20) . . .
399(20) . . .
377(19) . . .
357(19) . . .
380(19) . . .
382(20) . . .
406(20) . . .
403(20) . . .
347(19) . . .
368(19) . . .
405(20) . . .
378(19) . . .
409(20) . . .
381(20) . . .
396(20) . . .
380(19) . . .
380(19) . . .
366(19) . . .
394(20) . . .
374(19) . . .
400(20) . . .
363(19) . . .
425(21) . . .
411(20) . . .
375(19) . . .
404(20) . . .
379(19) . . .
359(19) . . .
376(19) . . .
406(20) . . .
400(20) . . .
383(20) . . .
389(20) . . .
388(20) . . .
406(20) . . .
381(20) . . .
393(20) . . .
399(20) . . .
413(20) . . .
355(19) . . .
392(20) . . .
420(20) . . .
428(21) . . .
421(21) . . .
375(19) . . .
385(20) . . .
393(20) . . .
396(20) . . .
446(21) . . .
394(20) . . .
429(21) . . .
414(20) . . .
414(20) . . .
422(21) . . .
384(20) . . .
415(20) . . .
388(20) . . .
395(20) . . .
395(20) . . .
412(20) . . .
426(21) . . .
394(20) . . .
404(20) . . .
394(20) . . .
378(19) . . .
404(20) . . .
420(20) . . .
398(20) . . .
411(20) . . .
385(20) . . .
377(19) . . .
415(20) . . .
440(21) . . .
379(19) . . .
412(20) . . .
421(21) . . .
421(21) . . .
395(20) . . .
396(20) . . .
449(21) . . .
422(21) . . .
414(20) . . .
404(20) . . .
392(20) . . .
410(20) . . .
409(20) . . .
433(21) . . .
408(20) . . .
430(21) . . .
434(21) . . .
426(21) . . .
416(20) . . .
458(21) . . .
430(21) . . .
393(20) . . .
433(21) . . .
407(20) . . .
409(20) . . .
404(20) . . .
427(21) . . .
412(20) . . .
424(21) . . .
404(20) . . .
435(21) . . .
417(20) . . .
383(20) . . .
420(20) . . .
424(21) . . .
432(21) . . .
415(20) . . .
414(20) . . .
421(21) . . .
386(20) . . .
410(20) . . .
427(21) . . .
408(20) . . .
410(20) . . .
417(20) . . .
436(21) . . .
393(20) . . .
421(21) . . .
463(22) . . .
419(20) . . .
398(20) . . .
437(21) . . .
395(20) . . .
392(20) . . .
425(21) . . .
410(20) . . .
414(20) . . .
416(20) . . .
376(19) . . .
402(20) . . .
423(21) . . .
447(21) . . .
405(20) . . .
395(20) . . .
421(21) . . .
436(21) . . .
423(21) . . .
422(21) . . .
413(20) . . .
427(21) . . .
426(21) . . .
460(21) . . .
419(20) . . .
405(20) . . .
421(21) . . .
442(21) . . .
438(21) . . .
442(21) . . .
438(21) . . .
443(21) . . .
413(20) . . .
417(20) . . .
425(21) . . .
431(21) . . .
442(21) . . .
417(20) . . .
426(21) . . .
417(20) . . .
414(20) . . .
453(21) . . .
417(20) . . .
388(20) . . .
453(21) . . .
439(21) . . .
422(21) . . .
459(21) . . .
464(22) . . .
465(22) . . .
421(21) . . .
441(21) . . .
438(21) . . .
457(21) . . .
489(22) . . .
463(22) . . .
467(22) . . .
461(21) . . .
523(23) . . .
458(21) . . .
456(21) . . .
470(22) . . .
459(21) . . .
497(22) . . .
518(23) . . .
542(23) . . .
540(23) . . .
526(23) . . .
543(23) . . .
532(23) . . .
563(24) . . .
538(23) . . .
563(24) . . .
598(24) . . .
596(24) . . .
582(24) . . .
606(25) . . .
592(24) . . .
635(25) . . .
675(26) . . .
660(26) . . .
691(26) . . .
739(27) . . .
733(27) . . .
822(29) . . .
788(28) . . .
849(29) . . .
844(29) . . .
952(31) . . .
993(32) . . .
1032(32) . . .
1098(33) . . .
1165(34) . . .
1253(35) . . .
1353(37) . . .
1475(38) . . .
1537(39) . . .
1716(41) . . .
1876(43) . . .
2057(45) . . .
2184(47) . . .
2545(50) . . .
2753(52) . . .
3052(55) . . .
3376(58) . . .
3948(63) . . .
4366(66) . . .
5061(71) . . .
5811(76) . . .
7056(84) . . .
7949(89) . . .
9542(98) . . .
11060(110) . . .
13020(110) . . .
15170(120) . . .
17810(130) . . .
19700(140) . . .
21750(150) . . .
22900(150) . . .
23210(150) . . .
22500(150) . . .
20950(150) . . .
19230(140) . . .
17120(130) . . .
15070(120) . . .
12710(110) . . .
10950(110) . . .
9058(95) . . .
7548(87) . . .
6408(80) . . .
5387(73) . . .
4839(70) . . .
4080(64) . . .
3642(60) . . .
3186(56) . . .
2839(53) . . .
2568(51) . . .
2223(47) . . .
2053(45) . . .
1836(43) . . .
1759(42) . . .
1605(40) . . .
1474(38) . . .
1297(36) . . .
1215(35) . . .
1171(34) . . .
1108(33) . . .
1003(32) . . .
963(31) . . .
949(31) . . .
864(29) . . .
884(30) . . .
821(29) . . .
729(27) . . .
745(27) . . .
725(27) . . .
670(26) . . .
724(27) . . .
650(25) . . .
653(26) . . .
637(25) . . .
611(25) . . .
584(24) . . .
525(23) . . .
631(25) . . .
578(24) . . .
516(23) . . .
565(24) . . .
535(23) . . .
523(23) . . .
512(23) . . .
485(22) . . .
491(22) . . .
508(23) . . .
457(21) . . .
461(21) . . .
468(22) . . .
463(22) . . .
472(22) . . .
496(22) . . .
459(21) . . .
454(21) . . .
452(21) . . .
486(22) . . .
452(21) . . .
461(21) . . .
446(21) . . .
447(21) . . .
440(21) . . .
443(21) . . .
428(21) . . .
416(20) . . .
421(21) . . .
430(21) . . .
431(21) . . .
426(21) . . .
442(21) . . .
461(21) . . .
437(21) . . .
456(21) . . .
403(20) . . .
404(20) . . .
415(20) . . .
424(21) . . .
413(20) . . .
402(20) . . .
420(20) . . .
421(21) . . .
383(20) . . .
414(20) . . .
412(20) . . .
392(20) . . .
425(21) . . .
378(19) . . .
409(20) . . .
380(19) . . .
428(21) . . .
378(19) . . .
399(20) . . .
389(20) . . .
412(20) . . .
419(20) . . .
373(19) . . .
399(20) . . .
395(20) . . .
395(20) . . .
392(20) . . .
380(19) . . .
432(21) . . .
421(21) . . .
418(20) . . .
353(19) . . .
390(20) . . .
382(20) . . .
400(20) . . .
394(20) . . .
409(20) . . .
385(20) . . .
377(19) . . .
356(19) . . .
397(20) . . .
389(20) . . .
385(20) . . .
426(21) . . .
397(20) . . .
395(20) . . .
371(19) . . .
405(20) . . .
385(20) . . .
385(20) . . .
371(19) . . .
376(19) . . .
382(20) . . .
395(20) . . .
358(19) . . .
378(19) . . .
404(20) . . .
415(20) . . .
388(20) . . .
396(20) . . .
391(20) . . .
414(20) . . .
404(20) . . .
383(20) . . .
418(20) . . .
391(20) . . .
414(20) . . .
403(20) . . .
380(19) . . .
390(20) . . .
394(20) . . .
410(20) . . .
377(19) . . .
382(20) . . .
397(20) . . .
366(19) . . .
415(20) . . .
386(20) . . .
395(20) . . .
385(20) . . .
377(19) . . .
384(20) . . .
418(20) . . .
408(20) . . .
390(20) . . .
396(20) . . .
381(20) . . .
376(19) . . .
387(20) . . .
383(20) . . .
395(20) . . .
401(20) . . .
393(20) . . .
361(19) . . .
360(19) . . .
381(20) . . .
340(18) . . .
380(19) . . .
383(20) . . .
355(19) . . .
372(19) . . .
375(19) . . .
382(20) . . .
402(20) . . .
386(20) . . .
396(20) . . .
353(19) . . .
353(19) . . .
392(20) . . .
378(19) . . .
370(19) . . .
367(19) . . .
361(19) . . .
345(19) . . .
376(19) . . .
376(19) . . .
367(19) . . .
393(20) . . .
410(20) . . .
402(20) . . .
394(20) . . .
398(20) . . .
401(20) . . .
388(20) . . .
346(19) . . .
381(20) . . .
378(19) . . .
359(19) . . .
381(20) . . .
383(20) . . .
358(19) . . .
396(20) . . .
401(20) . . .
393(20) . . .
411(20) . . .
392(20) . . .
351(19) . . .
345(19) . . .
386(20) . . .
385(20) . . .
392(20) . . .
376(19) . . .
358(19) . . .
355(19) . . .
365(19) . . .
371(19) . . .
379(19) . . .
351(19) . . .
351(19) . . .
419(20) . . .
363(19) . . .
381(20) . . .
371(19) . . .
391(20) . . .
360(19) . . .
401(20) . . .
363(19) . . .
361(19) . . .
323(18) . . .
361(19) . . .
363(19) . . .
361(19) . . .
363(19) . . .
340(18) . . .
369(19) . . .
391(20) . . .
364(19) . . .
390(20) . . .
377(19) . . .
386(20) . . .
372(19) . . .
340(18) . . .
366(19) . . .
383(20) . . .
361(19) . . .
365(19) . . .
374(19) . . .
345(19) . . .
348(19) . . .
380(19) . . .
351(19) . . .
370(19) . . .
365(19) . . .
339(18) . . .
398(20) . . .
359(19) . . .
352(19) . . .
399(20) . . .
372(19) . . .
395(20) . . .
362(19) . . .
365(19) . . .
362(19) . . .
357(19) . . .
358(19) . . .
347(19) . . .
359(19) . . .
371(19) . . .
371(19) . . .
371(19) . . .
349(19) . . .
329(18) . . .
352(19) . . .
341(18) . . .
333(18) . . .
380(19) . . .
355(19) . . .
378(19) . . .
364(19) . . .
337(18) . . .
380(19) . . .
346(19) . . .
356(19) . . .
352(19) . . .
357(19) . . .
335(18) . . .
360(19) . . .
336(18) . . .
330(18) . . .
357(19) . . .
383(20) . . .
381(20) . . .
346(19) . . .
348(19) . . .
352(19) . . .
333(18) . . .
355(19) . . .
308(18) . . .
370(19) . . .
372(19) . . .
359(19) . . .
333(18) . . .
370(19) . . .
356(19) . . .
392(20) . . .
371(19) . . .
375(19) . . .
322(18) . . .
327(18) . . .
351(19) . . .
345(19) . . .
353(19) . . .
356(19) . . .
360(19) . . .
366(19) . . .
350(19) . . .
374(19) . . .
353(19) . . .
361(19) . . .
342(18) . . .
377(19) . . .
360(19) . . .
375(19) . . .
342(18) . . .
367(19) . . .
357(19) . . .
354(19) . . .
383(20) . . .
363(19) . . .
344(19) . . .
350(19) . . .
365(19) . . .
314(18) . . .
378(19) . . .
369(19) . . .
396(20) . . .
354(19) . . .
353(19) . . .
365(19) . . .
359(19) . . .
382(20) . . .
344(19) . . .
381(20) . . .
349(19) . . .
378(19) . . .
373(19) . . .
347(19) . . .
375(19) . . .
360(19) . . .
399(20) . . .
367(19) . . .
380(19) . . .
400(20) . . .
362(19) . . .
360(19) . . .
393(20) . . .
386(20) . . .
365(19) . . .
370(19) . . .
386(20) . . .
421(21) . . .
411(20) . . .
390(20) . . .
377(19) . . .
389(20) . . .
379(19) . . .
386(20) . . .
389(20) . . .
376(19) . . .
361(19) . . .
394(20) . . .
381(20) . . .
393(20) . . .
364(19) . . .
366(19) . . .
398(20) . . .
371(19) . . .
392(20) . . .
381(20) . . .
386(20) . . .
381(20) . . .
401(20) . . .
370(19) . . .
369(19) . . .
396(20) . . .
379(19) . . .
396(20) . . .
417(20) . . .
389(20) . . .
360(19) . . .
380(19) . . .
394(20) . . .
354(19) . . .
357(19) . . .
361(19) . . .
357(19) . . .
383(20) . . .
364(19) . . .
384(20) . . .
360(19) . . .
393(20) . . .
381(20) . . .
357(19) . . .
355(19) . . .
360(19) . . .
358(19) . . .
370(19) . . .
379(19) . . .
373(19) . . .
369(19) . . .
388(20) . . .
376(19) . . .
405(20) . . .
354(19) . . .
340(18) . . .
365(19) . . .
368(19) . . .
329(18) . . .
360(19) . . .
334(18) . . .
362(19) . . .
375(19) . . .
348(19) . . .
384(20) . . .
392(20) . . .
377(19) . . .
329(18) . . .
384(20) . . .
347(19) . . .
374(19) . . .
361(19) . . .
377(19) . . .
371(19) . . .
360(19) . . .
392(20) . . .
367(19) . . .
357(19) . . .
341(18) . . .
367(19) . . .
348(19) . . .
350(19) . . .
388(20) . . .
378(19) . . .
377(19) . . .
377(19) . . .
381(20) . . .
387(20) . . .
347(19) . . .
402(20) . . .
354(19) . . .
322(18) . . .
346(19) . . .
384(20) . . .
392(20) . . .
338(18) . . .
361(19) . . .
329(18) . . .
376(19) . . .
330(18) . . .
362(19) . . .
349(19) . . .
354(19) . . .
363(19) . . .
386(20) . . .
351(19) . . .
342(18) . . .
363(19) . . .
337(18) . . .
370(19) . . .
321(18) . . .
332(18) . . .
387(20) . . .
359(19) . . .
331(18) . . .
372(19) . . .
353(19) . . .
352(19) . . .
375(19) . . .
337(18) . . .
375(19) . . .
354(19) . . .
390(20) . . .
373(19) . . .
332(18) . . .
373(19) . . .
389(20) . . .
383(20) . . .
379(19) . . .
349(19) . . .
345(19) . . .
384(20) . . .
356(19) . . .
372(19) . . .
384(20) . . .
373(19) . . .
386(20) . . .
385(20) . . .
389(20) . . .
362(19) . . .
366(19) . . .
384(20) . . .
404(20) . . .
394(20) . . .
382(20) . . .
371(19) . . .
378(19) . . .
363(19) . . .
368(19) . . .
358(19) . . .
400(20) . . .
372(19) . . .
355(19) . . .
378(19) . . .
369(19) . . .
387(20) . . .
384(20) . . .
372(19) . . .
383(20) . . .
375(19) . . .
397(20) . . .
393(20) . . .
381(20) . . .
346(19) . . .
345(19) . . .
343(19) . . .
360(19) . . .
337(18) . . .
382(20) . . .
359(19) . . .
380(19) . . .
349(19) . . .
372(19) . . .
405(20) . . .
379(19) . . .
370(19) . . .
407(20) . . .
379(19) . . .
385(20) . . .
359(19) . . .
374(19) . . .
338(18) . . .
394(20) . . .
375(19) . . .
364(19) . . .
367(19) . . .
364(19) . . .
385(20) . . .
372(19) . . .
391(20) . . .
375(19) . . .
354(19) . . .
338(18) . . .
364(19) . . .
349(19) . . .
378(19) . . .
345(19) . . .
344(19) . . .
339(18) . . .
371(19) . . .
369(19) . . .
342(18) . . .
357(19) . . .
339(18) . . .
343(19) . . .
340(18) . . .
346(19) . . .
337(18) . . .
336(18) . . .
358(19) . . .
378(19) . . .
352(19) . . .
348(19) . . .
333(18) . . .
344(19) . . .
339(18) . . .
349(19) . . .
340(18) . . .
343(19) . . .
378(19) . . .
332(18) . . .
358(19) . . .
322(18) . . .
340(18) . . .
344(19) . . .
350(19) . . .
314(18) . . .
370(19) . . .
345(19) . . .
363(19) . . .
381(20) . . .
362(19) . . .
341(18) . . .
351(19) . . .
358(19) . . .
345(19) . . .
340(18) . . .
358(19) . . .
358(19) . . .
366(19) . . .
333(18) . . .
357(19) . . .
337(18) . . .
311(18) . . .
384(20) . . .
358(19) . . .
375(19) . . .
387(20) . . .
319(18) . . .
358(19) . . .
360(19) . . .
374(19) . . .
324(18) . . .
349(19) . . .
346(19) . . .
380(19) . . .
355(19) . . .
335(18) . . .
349(19) . . .
362(19) . . .
342(18) . . .
398(20) . . .
367(19) . . .
329(18) . . .
353(19) . . .
346(19) . . .
349(19) . . .
333(18) . . .
318(18) . . .
359(19) . . .
370(19) . . .
374(19) . . .
342(18) . . .
354(19) . . .
333(18) . . .
363(19) . . .
334(18) . . .
347(19) . . .
372(19) . . .
361(19) . . .
354(19) . . .
364(19) . . .
367(19) . . .
365(19) . . .
365(19) . . .
358(19) . . .
383(20) . . .
346(19) . . .
367(19) . . .
387(20) . . .
347(19) . . .
340(18) . . .
340(18) . . .
350(19) . . .
327(18) . . .
354(19) . . .
352(19) . . .
337(18) . . .
347(19) . . .
348(19) . . .
353(19) . . .
338(18) . . .
329(18) . . .
330(18) . . .
369(19) . . .
332(18) . . .
364(19) . . .
343(19) . . .
354(19) . . .
342(18) . . .
347(19) . . .
338(18) . . .
342(18) . . .
396(20) . . .
331(18) . . .
353(19) . . .
363(19) . . .
364(19) . . .
334(18) . . .
341(18) . . .
352(19) . . .
351(19) . . .
347(19) . . .
341(18) . . .
354(19) . . .
355(19) . . .
351(19) . . .
323(18) . . .
358(19) . . .
351(19) . . .
338(18) . . .
342(18) . . .
357(19) . . .
320(18) . . .
344(19) . . .
334(18) . . .
342(18) . . .
326(18) . . .
334(18) . . .
363(19) . . .
325(18) . . .
383(20) . . .
323(18) . . .
333(18) . . .
382(20) . . .
361(19) . . .
347(19) . . .
328(18) . . .
342(18) . . .
356(19) . . .
339(18) . . .
353(19) . . .
348(19) . . .
336(18) . . .
366(19) . . .
367(19) . . .
345(19) . . .
362(19) . . .
322(18) . . .
308(18) . . .
368(19) . . .
321(18) . . .
350(19) . . .
327(18) . . .
342(18) . . .
364(19) . . .
327(18) . . .
324(18) . . .
355(19) . . .
333(18) . . .
331(18) . . .
361(19) . . .
341(18) . . .
348(19) . . .
364(19) . . .
358(19) . . .
351(19) . . .
314(18) . . .
320(18) . . .
341(18) . . .
355(19) . . .
350(19) . . .
369(19) . . .
328(18) . . .
354(19) . . .
344(19) . . .
346(19) . . .
326(18) . . .
341(18) . . .
353(19) . . .
356(19) . . .
363(19) . . .
339(18) . . .
358(19) . . .
321(18) . . .
340(18) . . .
351(19) . . .
316(18) . . .
336(18) . . .
330(18) . . .
320(18) . . .
324(18) . . .
329(18) . . .
359(19) . . .
334(18) . . .
348(19) . . .
363(19) . . .
365(19) . . .
346(19) . . .
319(18) . . .
341(18) . . .
333(18) . . .
356(19) . . .
315(18) . . .
365(19) . . .
355(19) . . .
325(18) . . .
299(17) . . .
331(18) . . .
370(19) . . .
319(18) . . .
321(18) . . .
337(18) . . .
357(19) . . .
330(18) . . .
347(19) . . .
351(19) . . .
326(18) . . .
329(18) . . .
345(19) . . .
375(19) . . .
324(18) . . .
332(18) . . .
360(19) . . .
328(18) . . .
328(18) . . .
344(19) . . .
337(18) . . .
337(18) . . .
326(18) . . .
329(18) . . .
333(18) . . .
352(19) . . .
328(18) . . .
337(18) . . .
315(18) . . .
342(18) . . .
310(18) . . .
316(18) . . .
359(19) . . .
333(18) . . .
321(18) . . .
320(18) . . .
328(18) . . .
336(18) . . .
335(18) . . .
321(18) . . .
341(18) . . .
325(18) . . .
319(18) . . .
315(18) . . .
336(18) . . .
320(18) . . .
319(18) . . .
310(18) . . .
315(18) . . .
332(18) . . .
289(17) . . .
332(18) . . .
320(18) . . .
330(18) . . .
318(18) . . .
337(18) . . .
319(18) . . .
322(18) . . .
287(17) . . .
276(17) . . .
327(18) . . .
332(18) . . .
338(18) . . .
351(19) . . .
328(18) . . .
365(19) . . .
316(18) . . .
340(18) . . .
321(18) . . .
326(18) . . .
296(17) . . .
312(18) . . .
339(18) . . .
322(18) . . .
348(19) . . .
307(18) . . .
298(17) . . .
348(19) . . .
333(18) . . .
312(18) . . .
313(18) . . .
334(18) . . .
353(19) . . .
348(19) . . .
340(18) . . .
329(18) . . .
312(18) . . .
336(18) . . .
361(19) . . .
354(19) . . .
327(18) . . .
334(18) . . .
313(18) . . .
362(19) . . .
342(18) . . .
345(19) . . .
361(19) . . .
343(19) . . .
328(18) . . .
355(19) . . .
331(18) . . .
342(18) . . .
333(18) . . .
364(19) . . .
370(19) . . .
363(19) . . .
331(18) . . .
341(18) . . .
342(18) . . .
326(18) . . .
341(18) . . .
358(19) . . .
338(18) . . .
332(18) . . .
343(19) . . .
362(19) . . .
352(19) . . .
346(19) . . .
306(17) . . .
334(18) . . .
374(19) . . .
359(19) . . .
347(19) . . .
337(18) . . .
363(19) . . .
348(19) . . .
347(19) . . .
347(19) . . .
357(19) . . .
334(18) . . .
320(18) . . .
337(18) . . .
357(19) . . .
328(18) . . .
335(18) . . .
374(19) . . .
382(20) . . .
343(19) . . .
357(19) . . .
338(18) . . .
349(19) . . .
363(19) . . .
369(19) . . .
337(18) . . .
341(18) . . .
366(19) . . .
353(19) . . .
358(19) . . .
347(19) . . .
349(19) . . .
354(19) . . .
370(19) . . .
343(19) . . .
345(19) . . .
364(19) . . .
360(19) . . .
345(19) . . .
332(18) . . .
341(18) . . .
328(18) . . .
300(17) . . .
344(19) . . .
373(19) . . .
331(18) . . .
352(19) . . .
319(18) . . .
361(19) . . .
333(18) . . .
345(19) . . .
335(18) . . .
346(19) . . .
340(18) . . .
388(20) . . .
357(19) . . .
335(18) . . .
328(18) . . .
387(20) . . .
346(19) . . .
352(19) . . .
343(19) . . .
350(19) . . .
351(19) . . .
332(18) . . .
341(18) . . .
338(18) . . .
375(19) . . .
355(19) . . .
349(19) . . .
359(19) . . .
306(17) . . .
333(18) . . .
324(18) . . .
336(18) . . .
374(19) . . .
336(18) . . .
329(18) . . .
330(18) . . .
330(18) . . .
347(19) . . .
337(18) . . .
368(19) . . .
351(19) . . .
353(19) . . .
386(20) . . .
357(19) . . .
332(18) . . .
381(20) . . .
348(19) . . .
367(19) . . .
331(18) . . .
393(20) . . .
383(20) . . .
350(19) . . .
365(19) . . .
412(20) . . .
394(20) . . .
417(20) . . .
426(21) . . .
439(21) . . .
398(20) . . .
411(20) . . .
384(20) . . .
398(20) . . .
385(20) . . .
400(20) . . .
401(20) . . .
383(20) . . .
356(19) . . .
354(19) . . .
347(19) . . .
349(19) . . .
343(19) . . .
354(19) . . .
353(19) . . .
335(18) . . .
399(20) . . .
385(20) . . .
395(20) . . .
363(19) . . .
380(19) . . .
362(19) . . .
336(18) . . .
340(18) . . .
353(19) . . .
355(19) . . .
367(19) . . .
337(18) . . .
356(19) . . .
348(19) . . .
372(19) . . .
356(19) . . .
353(19) . . .
362(19) . . .
403(20) . . .
348(19) . . .
415(20) . . .
353(19) . . .
368(19) . . .
316(18) . . .
357(19) . . .
363(19) . . .
354(19) . . .
386(20) . . .
351(19) . . .
368(19) . . .
386(20) . . .
365(19) . . .
367(19) . . .
317(18) . . .
418(20) . . .
343(19) . . .
367(19) . . .
345(19) . . .
313(18) . . .
348(19) . . .
344(19) . . .
372(19) . . .
363(19) . . .
367(19) . . .
341(18) . . .
358(19) . . .
329(18) . . .
345(19) . . .
344(19) . . .
359(19) . . .
378(19) . . .
328(18) . . .
363(19) . . .
353(19) . . .
354(19) . . .
364(19) . . .
363(19) . . .
329(18) . . .
331(18) . . .
353(19) . . .
373(19) . . .
339(18) . . .
330(18) . . .
339(18) . . .
334(18) . . .
356(19) . . .
336(18) . . .
381(20) . . .
361(19) . . .
312(18) . . .
365(19) . . .
380(19) . . .
360(19) . . .
344(19) . . .
372(19) . . .
385(20) . . .
340(18) . . .
331(18) . . .
359(19) . . .
335(18) . . .
367(19) . . .
351(19) . . .
372(19) . . .
340(18) . . .
331(18) . . .
351(19) . . .
334(18) . . .
344(19) . . .
353(19) . . .
327(18) . . .
362(19) . . .
312(18) . . .
348(19) . . .
348(19) . . .
334(18) . . .
325(18) . . .
335(18) . . .
331(18) . . .
324(18) . . .
337(18) . . .
342(18) . . .
366(19) . . .
328(18) . . .
333(18) . . .
372(19) . . .
356(19) . . .
345(19) . . .
355(19) . . .
355(19) . . .
317(18) . . .
345(19) . . .
304(17) . . .
323(18) . . .
373(19) . . .
352(19) . . .
321(18) . . .
335(18) . . .
316(18) . . .
347(19) . . .
341(18) . . .
332(18) . . .
333(18) . . .
332(18) . . .
319(18) . . .
341(18) . . .
349(19) . . .
341(18) . . .
349(19) . . .
335(18) . . .
333(18) . . .
339(18) . . .
332(18) . . .
388(20) . . .
347(19) . . .
316(18) . . .
343(19) . . .
325(18) . . .
318(18) . . .
321(18) . . .
333(18) . . .
385(20) . . .
323(18) . . .
333(18) . . .
313(18) . . .
340(18) . . .
317(18) . . .
300(17) . . .
335(18) . . .
307(18) . . .
341(18) . . .
314(18) . . .
310(18) . . .
348(19) . . .
338(18) . . .
302(17) . . .
339(18) . . .
339(18) . . .
335(18) . . .
316(18) . . .
309(18) . . .
360(19) . . .
322(18) . . .
350(19) . . .
345(19) . . .
364(19) . . .
330(18) . . .
362(19) . . .
346(19) . . .
348(19) . . .
329(18) . . .
357(19) . . .
335(18) . . .
354(19) . . .
340(18) . . .
314(18) . . .
329(18) . . .
338(18) . . .
343(19) . . .
332(18) . . .
342(18) . . .
332(18) . . .
329(18) . . .
316(18) . . .
326(18) . . .
325(18) . . .
368(19) . . .
350(19) . . .
351(19) . . .
349(19) . . .
346(19) . . .
344(19) . . .
364(19) . . .
342(18) . . .
344(19) . . .
323(18) . . .
313(18) . . .
316(18) . . .
358(19) . . .
355(19) . . .
358(19) . . .
377(19) . . .
340(18) . . .
352(19) . . .
344(19) . . .
348(19) . . .
319(18) . . .
344(19) . . .
344(19) . . .
334(18) . . .
331(18) . . .
370(19) . . .
336(18) . . .
351(19) . . .
368(19) . . .
369(19) . . .
352(19) . . .
337(18) . . .
334(18) . . .
337(18) . . .
336(18) . . .
355(19) . . .
352(19) . . .
330(18) . . .
355(19) . . .
341(18) . . .
346(19) . . .
362(19) . . .
339(18) . . .
322(18) . . .
356(19) . . .
331(18) . . .
352(19) . . .
341(18) . . .
350(19) . . .
345(19) . . .
349(19) . . .
322(18) . . .
312(18) . . .
344(19) . . .
331(18) . . .
317(18) . . .
374(19) . . .
343(19) . . .
343(19) . . .
349(19) . . .
358(19) . . .
337(18) . . .
346(19) . . .
336(18) . . .
353(19) . . .
350(19) . . .
315(18) . . .
375(19) . . .
360(19) . . .
344(19) . . .
334(18) . . .
347(19) . . .
300(17) . . .
329(18) . . .
362(19) . . .
333(18) . . .
329(18) . . .
327(18) . . .
331(18) . . .
338(18) . . .
336(18) . . .
340(18) . . .
369(19) . . .
317(18) . . .
343(19) . . .
339(18) . . .
298(17) . . .
316(18) . . .
335(18) . . .
319(18) . . .
330(18) . . .
311(18) . . .
299(17) . . .
320(18) . . .
339(18) . . .
376(19) . . .
316(18) . . .
329(18) . . .
380(19) . . .
311(18) . . .
327(18) . . .
306(17) . . .
310(18) . . .
315(18) . . .
311(18) . . .
307(18) . . .
324(18) . . .
302(17) . . .
289(17) . . .
360(19) . . .
313(18) . . .
323(18) . . .
332(18) . . .
335(18) . . .
331(18) . . .
342(18) . . .
345(19) . . .
332(18) . . .
330(18) . . .
312(18) . . .
349(19) . . .
330(18) . . .
366(19) . . .
332(18) . . .
339(18) . . .
327(18) . . .
314(18) . . .
332(18) . . .
305(17) . . .
340(18) . . .
328(18) . . .
329(18) . . .
339(18) . . .
354(19) . . .
340(18) . . .
346(19) . . .
341(18) . . .
327(18) . . .
371(19) . . .
321(18) . . .
331(18) . . .
330(18) . . .
340(18) . . .
370(19) . . .
359(19) . . .
328(18) . . .
351(19) . . .
354(19) . . .
342(18) . . .
333(18) . . .
309(18) . . .
346(19) . . .
330(18) . . .
342(18) . . .
366(19) . . .
336(18) . . .
333(18) . . .
331(18) . . .
370(19) . . .
366(19) . . .
338(18) . . .
333(18) . . .
362(19) . . .
337(18) . . .
345(19) . . .
333(18) . . .
336(18) . . .
357(19) . . .
352(19) . . .
324(18) . . .
349(19) . . .
370(19) . . .
352(19) . . .
313(18) . . .
358(19) . . .
362(19) . . .
356(19) . . .
322(18) . . .
320(18) . . .
323(18) . . .
367(19) . . .
335(18) . . .
334(18) . . .
373(19) . . .
329(18) . . .
358(19) . . .
328(18) . . .
337(18) . . .
346(19) . . .
361(19) . . .
358(19) . . .
368(19) . . .
332(18) . . .
344(19) . . .
344(19) . . .
374(19) . . .
362(19) . . .
356(19) . . .
334(18) . . .
330(18) . . .
332(18) . . .
348(19) . . .
333(18) . . .
358(19) . . .
321(18) . . .
355(19) . . .
358(19) . . .
334(18) . . .
337(18) . . .
338(18) . . .
381(20) . . .
364(19) . . .
362(19) . . .
346(19) . . .
354(19) . . .
352(19) . . .
368(19) . . .
340(18) . . .
375(19) . . .
359(19) . . .
363(19) . . .
343(19) . . .
341(18) . . .
366(19) . . .
368(19) . . .
375(19) . . .
341(18) . . .
363(19) . . .
363(19) . . .
351(19) . . .
361(19) . . .
378(19) . . .
339(18) . . .
352(19) . . .
364(19) . . .
377(19) . . .
346(19) . . .
406(20) . . .
364(19) . . .
350(19) . . .
351(19) . . .
364(19) . . .
386(20) . . .
354(19) . . .
408(20) . . .
363(19) . . .
372(19) . . .
335(18) . . .
384(20) . . .
355(19) . . .
356(19) . . .
357(19) . . .
373(19) . . .
362(19) . . .
379(19) . . .
357(19) . . .
372(19) . . .
363(19) . . .
339(18) . . .
372(19) . . .
385(20) . . .
361(19) . . .
362(19) . . .
362(19) . . .
366(19) . . .
338(18) . . .
355(19) . . .
364(19) . . .
368(19) . . .
328(18) . . .
355(19) . . .
368(19) . . .
338(18) . . .
358(19) . . .
362(19) . . .
371(19) . . .
355(19) . . .
366(19) . . .
327(18) . . .
367(19) . . .
331(18) . . .
358(19) . . .
361(19) . . .
352(19) . . .
387(20) . . .
365(19) . . .
390(20) . . .
357(19) . . .
360(19) . . .
357(19) . . .
372(19) . . .
367(19) . . .
360(19) . . .
374(19) . . .
360(19) . . .
384(20) . . .
363(19) . . .
366(19) . . .
360(19) . . .
382(20) . . .
377(19) . . .
377(19) . . .
367(19) . . .
369(19) . . .
395(20) . . .
380(19) . . .
405(20) . . .
365(19) . . .
375(19) . . .
377(19) . . .
391(20) . . .
387(20) . . .
371(19) . . .
336(18) . . .
358(19) . . .
418(20) . . .
375(19) . . .
396(20) . . .
388(20) . . .
395(20) . . .
403(20) . . .
390(20) . . .
408(20) . . .
396(20) . . .
395(20) . . .
399(20) . . .
400(20) . . .
399(20) . . .
410(20) . . .
419(20) . . .
432(21) . . .
417(20) . . .
418(20) . . .
410(20) . . .
445(21) . . .
398(20) . . .
448(21) . . .
421(21) . . .
416(20) . . .
391(20) . . .
424(21) . . .
407(20) . . .
412(20) . . .
441(21) . . .
489(22) . . .
434(21) . . .
409(20) . . .
421(21) . . .
421(21) . . .
454(21) . . .
483(22) . . .
429(21) . . .
450(21) . . .
429(21) . . .
488(22) . . .
447(21) . . .
487(22) . . .
469(22) . . .
504(22) . . .
498(22) . . .
451(21) . . .
502(22) . . .
476(22) . . .
551(23) . . .
544(23) . . .
552(23) . . .
575(24) . . .
584(24) . . .
574(24) . . .
568(24) . . .
550(23) . . .
613(25) . . .
662(26) . . .
675(26) . . .
652(26) . . .
671(26) . . .
673(26) . . .
722(27) . . .
729(27) . . .
741(27) . . .
781(28) . . .
768(28) . . .
848(29) . . .
838(29) . . .
875(30) . . .
942(31) . . .
943(31) . . .
998(32) . . .
1008(32) . . .
1063(33) . . .
1172(34) . . .
1167(34) . . .
1229(35) . . .
1294(36) . . .
1396(37) . . .
1517(39) . . .
1683(41) . . .
1678(41) . . .
1935(44) . . .
2121(46) . . .
2341(48) . . .
2654(52) . . .
2895(54) . . .
3165(56) . . .
3468(59) . . .
4013(63) . . .
4540(67) . . .
5099(71) . . .
5580(75) . . .
6467(80) . . .
7475(86) . . .
8678(93) . . .
9662(98) . . .
11140(110) . . .
13090(110) . . .
15130(120) . . .
17340(130) . . .
19780(140) . . .
21930(150) . . .
24200(160) . . .
25780(160) . . .
26150(160) . . .
26700(160) . . .
26150(160) . . .
24750(160) . . .
23190(150) . . .
21270(150) . . .
19340(140) . . .
16820(130) . . .
14630(120) . . .
12800(110) . . .
10940(110) . . .
9289(96) . . .
8123(90) . . .
6917(83) . . .
6237(79) . . .
5346(73) . . .
4777(69) . . .
4314(66) . . .
3821(62) . . .
3480(59) . . .
3148(56) . . .
3026(55) . . .
2738(52) . . .
2418(49) . . .
2330(48) . . .
2124(46) . . .
1986(45) . . .
1816(43) . . .
1688(41) . . .
1620(40) . . .
1508(39) . . .
1396(37) . . .
1370(37) . . .
1220(35) . . .
1160(34) . . .
1090(33) . . .
1061(33) . . .
1001(32) . . .
954(31) . . .
878(30) . . .
829(29) . . .
835(29) . . .
779(28) . . .
753(27) . . .
725(27) . . .
688(26) . . .
669(26) . . .
673(26) . . .
662(26) . . .
624(25) . . .
607(25) . . .
602(25) . . .
600(24) . . .
573(24) . . .
571(24) . . .
542(23) . . .
501(22) . . .
533(23) . . .
585(24) . . .
585(24) . . .
521(23) . . .
523(23) . . .
494(22) . . .
522(23) . . .
499(22) . . .
517(23) . . .
518(23) . . .
513(23) . . .
500(22) . . .
488(22) . . .
513(23) . . .
468(22) . . .
479(22) . . .
490(22) . . .
437(21) . . .
458(21) . . .
457(21) . . .
472(22) . . .
477(22) . . .
459(21) . . .
468(22) . . .
418(20) . . .
447(21) . . .
469(22) . . .
448(21) . . .
400(20) . . .
431(21) . . .
421(21) . . .
415(20) . . .
428(21) . . .
414(20) . . .
435(21) . . .
397(20) . . .
398(20) . . .
394(20) . . .
393(20) . . .
393(20) . . .
409(20) . . .
414(20) . . .
400(20) . . .
423(21) . . .
387(20) . . .
401(20) . . .
396(20) . . .
407(20) . . .
387(20) . . .
399(20) . . .
409(20) . . .
395(20) . . .
380(19) . . .
403(20) . . .
414(20) . . .
379(19) . . .
385(20) . . .
373(19) . . .
368(19) . . .
351(19) . . .
394(20) . . .
368(19) . . .
357(19) . . .
335(18) . . .
361(19) . . .
372(19) . . .
373(19) . . .
355(19) . . .
361(19) . . .
342(18) . . .
358(19) . . .
383(20) . . .
355(19) . . .
386(20) . . .
364(19) . . .
368(19) . . .
371(19) . . .
365(19) . . .
386(20) . . .
374(19) . . .
380(19) . . .
351(19) . . .
364(19) . . .
373(19) . . .
366(19) . . .
362(19) . . .
386(20) . . .
346(19) . . .
315(18) . . .
339(18) . . .
360(19) . . .
348(19) . . .
364(19) . . .
337(18) . . .
340(18) . . .
350(19) . . .
328(18) . . .
310(18) . . .
383(20) . . .
354(19) . . .
353(19) . . .
349(19) . . .
360(19) . . .
345(19) . . .
360(19) . . .
333(18) . . .
332(18) . . .
375(19) . . .
360(19) . . .
358(19) . . .
341(18) . . .
332(18) . . .
339(18) . . .
363(19) . . .
361(19) . . .
360(19) . . .
316(18) . . .
351(19) . . .
369(19) . . .
339(18) . . .
347(19) . . .
361(19) . . .
344(19) . . .
330(18) . . .
371(19) . . .
333(18) . . .
355(19) . . .
342(18) . . .
362(19) . . .
355(19) . . .
297(17) . . .
350(19) . . .
340(18) . . .
357(19) . . .
361(19) . . .
345(19) . . .
366(19) . . .
346(19) . . .
336(18) . . .
344(19) . . .
363(19) . . .
349(19) . . .
356(19) . . .
345(19) . . .
367(19) . . .
325(18) . . .
347(19) . . .
336(18) . . .
378(19) . . .
362(19) . . .
353(19) . . .
329(18) . . .
342(18) . . .
325(18) . . .
321(18) . . .
344(19) . . .
350(19) . . .
315(18) . . .
361(19) . . .
355(19) . . .
333(18) . . .
357(19) . . .
333(18) . . .
364(19) . . .
319(18) . . .
356(19) . . .
351(19) . . .
346(19) . . .
343(19) . . .
313(18) . . .
354(19) . . .
357(19) . . .
353(19) . . .
338(18) . . .
346(19) . . .
343(19) . . .
342(18) . . .
354(19) . . .
339(18) . . .
343(19) . . .
344(19) . . .
329(18) . . .
346(19) . . .
357(19) . . .
392(20) . . .
313(18) . . .
378(19) . . .
329(18) . . .
332(18) . . .
326(18) . . .
364(19) . . .
353(19) . . .
358(19) . . .
367(19) . . .
330(18) . . .
349(19) . . .
347(19) . . .
332(18) . . .
315(18) . . .
348(19) . . .
310(18) . . .
327(18) . . .
343(19) . . .
333(18) . . .
337(18) . . .
373(19) . . .
315(18) . . .
310(18) . . .
338(18) . . .
347(19) . . .
311(18) . . .
327(18) . . .
335(18) . . .
316(18) . . .
295(17) . . .
339(18) . . .
350(19) . . .
363(19) . . .
318(18) . . .
304(17) . . .
328(18) . . .
342(18) . . .
336(18) . . .
342(18) . . .
345(19) . . .
303(17) . . .
332(18) . . .
348(19) . . .
344(19) . . .
333(18) . . .
340(18) . . .
353(19) . . .
329(18) . . .
333(18) . . .
345(19) . . .
318(18) . . .
332(18) . . .
333(18) . . .
359(19) . . .
320(18) . . .
320(18) . . .
341(18) . . .
332(18) . . .
327(18) . . .
324(18) . . .
327(18) . . .
333(18) . . .
315(18) . . .
325(18) . . .
341(18) . . .
321(18) . . .
321(18) . . .
321(18) . . .
320(18) . . .
326(18) . . .
314(18) . . .
352(19) . . .
330(18) . . .
337(18) . . .
318(18) . . .
320(18) . . .
313(18) . . .
325(18) . . .
332(18) . . .
341(18) . . .
351(19) . . .
337(18) . . .
358(19) . . .
325(18) . . .
339(18) . . .
368(19) . . .
345(19) . . .
342(18) . . .
365(19) . . .
345(19) . . .
297(17) . . .
333(18) . . .
349(19) . . .
340(18) . . .
342(18) . . .
324(18) . . .
336(18) . . .
317(18) . . .
352(19) . . .
331(18) . . .
345(19) . . .
330(18) . . .
348(19) . . .
323(18) . . .
313(18) . . .
338(18) . . .
325(18) . . .
310(18) . . .
343(19) . . .
333(18) . . .
357(19) . . .
311(18) . . .
340(18) . . .
356(19) . . .
321(18) . . .
308(18) . . .
314(18) . . .
344(19) . . .
344(19) . . .
345(19) . . .
351(19) . . .
315(18) . . .
359(19) . . .
331(18) . . .
344(19) . . .
328(18) . . .
341(18) . . .
357(19) . . .
336(18) . . .
327(18) . . .
319(18) . . .
335(18) . . .
342(18) . . .
336(18) . . .
335(18) . . .
351(19) . . .
334(18) . . .
316(18) . . .
310(18) . . .
352(19) . . .
340(18) . . .
326(18) . . .
305(17) . . .
302(17) . . .
327(18) . . .
333(18) . . .
315(18) . . .
350(19) . . .
331(18) . . .
322(18) . . .
314(18) . . .
348(19) . . .
310(18) . . .
289(17) . . .
334(18) . . .
316(18) . . .
337(18) . . .
335(18) . . .
325(18) . . .
315(18) . . .
317(18) . . .
352(19) . . .
339(18) . . .
326(18) . . .
333(18) . . .
350(19) . . .
336(18) . . .
382(20) . . .
335(18) . . .
354(19) . . .
371(19) . . .
335(18) . . .
340(18) . . .
338(18) . . .
360(19) . . .
311(18) . . .
315(18) . . .
311(18) . . .
336(18) . . .
351(19) . . .
361(19) . . .
355(19) . . .
334(18) . . .
319(18) . . .
353(19) . . .
344(19) . . .
312(18) . . .
316(18) . . .
344(19) . . .
328(18) . . .
345(19) . . .
318(18) . . .
339(18) . . .
332(18) . . .
349(19) . . .
319(18) . . .
342(18) . . .
366(19) . . .
342(18) . . .
336(18) . . .
345(19) . . .
342(18) . . .
335(18) . . .
347(19) . . .
325(18) . . .
328(18) . . .
298(17) . . .
326(18) . . .
352(19) . . .
340(18) . . .
366(19) . . .
323(18) . . .
328(18) . . .
339(18) . . .
353(19) . . .
324(18) . . .
334(18) . . .
350(19) . . .
346(19) . . .
329(18) . . .
316(18) . . .
334(18) . . .
333(18) . . .
333(18) . . .
314(18) . . .
307(18) . . .
332(18) . . .
318(18) . . .
311(18) . . .
332(18) . . .
332(18) . . .
352(19) . . .
320(18) . . .
331(18) . . .
349(19) . . .
327(18) . . .
365(19) . . .
328(18) . . .
332(18) . . .
332(18) . . .
323(18) . . .
335(18) . . .
336(18) . . .
324(18) . . .
303(17) . . .
346(19) . . .
356(19) . . .
332(18) . . .
352(19) . . .
354(19) . . .
308(18) . . .
328(18) . . .
322(18) . . .
313(18) . . .
327(18) . . .
313(18) . . .
315(18) . . .
353(19) . . .
323(18) . . .
323(18) . . .
344(19) . . .
340(18) . . .
313(18) . . .
331(18) . . .
376(19) . . .
366(19) . . .
354(19) . . .
320(18) . . .
346(19) . . .
330(18) . . .
308(18) . . .
310(18) . . .
306(17) . . .
357(19) . . .
345(19) . . .
325(18) . . .
323(18) . . .
323(18) . . .
346(19) . . .
343(19) . . .
318(18) . . .
344(19) . . .
354(19) . . .
339(18) . . .
331(18) . . .
355(19) . . .
341(18) . . .
329(18) . . .
325(18) . . .
345(19) . . .
369(19) . . .
329(18) . . .
314(18) . . .
301(17) . . .
315(18) . . .
331(18) . . .
320(18) . . .
307(18) . . .
329(18) . . .
338(18) . . .
352(19) . . .
347(19) . . .
320(18) . . .
341(18) . . .
320(18) . . .
339(18) . . .
358(19) . . .
308(18) . . .
325(18) . . .
344(19) . . .
327(18) . . .
339(18) . . .
362(19) . . .
357(19) . . .
346(19) . . .
328(18) . . .
325(18) . . .
351(19) . . .
342(18) . . .
331(18) . . .
334(18) . . .
356(19) . . .
373(19) . . .
360(19) . . .
370(19) . . .
367(19) . . .
380(19) . . .
421(21) . . .
381(20) . . .
357(19) . . .
387(20) . . .
370(19) . . .
374(19) . . .
359(19) . . .
396(20) . . .
373(19) . . .
417(20) . . .
362(19) . . .
388(20) . . .
354(19) . . .
374(19) . . .
368(19) . . .
349(19) . . .
366(19) . . .
340(18) . . .
349(19) . . .
344(19) . . .
321(18) . . .
339(18) . . .
320(18) . . .
364(19) . . .
333(18) . . .
343(19) . . .
365(19) . . .
356(19) . . .
364(19) . . .
343(19) . . .
359(19) . . .
342(18) . . .
355(19) . . .
396(20) . . .
376(19) . . .
365(19) . . .
364(19) . . .
403(20) . . .
384(20) . . .
380(19) . . .
414(20) . . .
394(20) . . .
353(19) . . .
352(19) . . .
362(19) . . .
372(19) . . .
362(19) . . .
335(18) . . .
333(18) . . .
373(19) . . .
353(19) . . .
387(20) . . .
336(18) . . .
331(18) . . .
335(18) . . .
344(19) . . .
327(18) . . .
354(19) . . .
335(18) . . .
356(19) . . .
322(18) . . .
323(18) . . .
337(18) . . .
336(18) . . .
356(19) . . .
343(19) . . .
344(19) . . .
343(19) . . .
353(19) . . .
367(19) . . .
358(19) . . .
337(18) . . .
334(18) . . .
342(18) . . .
316(18) . . .
335(18) . . .
343(19) . . .
326(18) . . .
320(18) . . .
345(19) . . .
355(19) . . .
382(20) . . .
342(18) . . .
352(19) . . .
355(19) . . .
358(19) . . .
333(18) . . .
371(19) . . .
343(19) . . .
341(18) . . .
352(19) . . .
340(18) . . .
348(19) . . .
331(18) . . .
317(18) . . .
347(19) . . .
349(19) . . .
323(18) . . .
364(19) . . .
333(18) . . .
354(19) . . .
377(19) . . .
366(19) . . .
327(18) . . .
376(19) . . .
370(19) . . .
373(19) . . .
363(19) . . .
323(18) . . .
349(19) . . .
333(18) . . .
362(19) . . .
342(18) . . .
361(19) . . .
390(20) . . .
359(19) . . .
364(19) . . .
382(20) . . .
380(19) . . .
388(20) . . .
341(18) . . .
334(18) . . .
377(19) . . .
345(19) . . .
349(19) . . .
340(18) . . .
347(19) . . .
351(19) . . .
347(19) . . .
320(18) . . .
368(19) . . .
342(18) . . .
353(19) . . .
362(19) . . .
348(19) . . .
347(19) . . .
337(18) . . .
335(18) . . .
309(18) . . .
348(19) . . .
336(18) . . .
363(19) . . .
341(18) . . .
333(18) . . .
336(18) . . .
348(19) . . .
331(18) . . .
340(18) . . .
368(19) . . .
334(18) . . .
348(19) . . .
337(18) . . .
331(18) . . .
356(19) . . .
343(19) . . .
339(18) . . .
342(18) . . .
355(19) . . .
375(19) . . .
327(18) . . .
347(19) . . .
333(18) . . .
371(19) . . .
343(19) . . .
328(18) . . .
357(19) . . .
323(18) . . .
350(19) . . .
352(19) . . .
340(18) . . .
312(18) . . .
309(18) . . .
334(18) . . .
347(19) . . .
359(19) . . .
347(19) . . .
352(19) . . .
345(19) . . .
337(18) . . .
348(19) . . .
333(18) . . .
345(19) . . .
335(18) . . .
368(19) . . .
360(19) . . .
347(19) . . .
342(18) . . .
336(18) . . .
358(19) . . .
320(18) . . .
360(19) . . .
346(19) . . .
349(19) . . .
361(19) . . .
344(19) . . .
361(19) . . .
356(19) . . .
356(19) . . .
349(19) . . .
378(19) . . .
368(19) . . .
368(19) . . .
370(19) . . .
343(19) . . .
339(18) . . .
360(19) . . .
374(19) . . .
373(19) . . .
356(19) . . .
364(19) . . .
412(20) . . .
370(19) . . .
355(19) . . .
370(19) . . .
370(19) . . .
345(19) . . .
374(19) . . .
362(19) . . .
340(18) . . .
360(19) . . .
361(19) . . .
385(20) . . .
386(20) . . .
362(19) . . .
376(19) . . .
318(18) . . .
350(19) . . .
364(19) . . .
352(19) . . .
377(19) . . .
354(19) . . .
398(20) . . .
347(19) . . .
371(19) . . .
345(19) . . .
369(19) . . .
378(19) . . .
388(20) . . .
341(18) . . .
371(19) . . .
357(19) . . .
359(19) . . .
363(19) . . .
371(19) . . .
350(19) . . .
363(19) . . .
405(20) . . .
386(20) . . .
373(19) . . .
354(19) . . .
388(20) . . .
401(20) . . .
394(20) . . .
367(19) . . .
343(19) . . .
351(19) . . .
411(20) . . .
370(19) . . .
390(20) . . .
370(19) . . .
396(20) . . .
405(20) . . .
395(20) . . .
378(19) . . .
371(19) . . .
384(20) . . .
380(19) . . .
369(19) . . .
406(20) . . .
407(20) . . .
436(21) . . .
399(20) . . .
382(20) . . .
392(20) . . .
374(19) . . .
415(20) . . .
405(20) . . .
422(21) . . .
390(20) . . .
449(21) . . .
400(20) . . .
414(20) . . .
415(20) . . .
429(21) . . .
418(20) . . .
417(20) . . .
433(21) . . .
459(21) . . .
415(20) . . .
446(21) . . .
430(21) . . .
453(21) . . .
443(21) . . .
464(22) . . .
437(21) . . .
468(22) . . .
441(21) . . .
445(21) . . .
428(21) . . .
459(21) . . .
457(21) . . .
487(22) . . .
443(21) . . .
453(21) . . .
478(22) . . .
493(22) . . .
492(22) . . .
481(22) . . .
497(22) . . .
500(22) . . .
507(23) . . .
496(22) . . .
540(23) . . .
581(24) . . .
524(23) . . .
583(24) . . .
553(24) . . .
567(24) . . .
565(24) . . .
593(24) . . .
605(25) . . .
597(24) . . .
593(24) . . .
607(25) . . .
640(25) . . .
647(25) . . .
656(26) . . .
714(27) . . .
716(27) . . .
686(26) . . .
713(27) . . .
727(27) . . .
819(29) . . .
757(28) . . .
754(27) . . .
846(29) . . .
843(29) . . .
934(31) . . .
930(30) . . .
945(31) . . .
993(32) . . .
1027(32) . . .
1126(34) . . .
1200(35) . . .
1256(35) . . .
1347(37) . . .
1381(37) . . .
1462(38) . . .
1652(41) . . .
1717(41) . . .
1840(43) . . .
2100(46) . . .
2202(47) . . .
2332(48) . . .
2636(51) . . .
2700(52) . . .
3039(55) . . .
3308(58) . . .
3638(60) . . .
3989(63) . . .
4518(67) . . .
4821(69) . . .
5320(73) . . .
6013(78) . . .
6618(81) . . .
7369(86) . . .
8422(92) . . .
9547(98) . . .
10890(100) . . .
12290(110) . . .
13740(120) . . .
15550(130) . . .
17650(130) . . .
19690(140) . . .
21860(150) . . .
23850(150) . . .
25810(160) . . .
26840(160) . . .
27930(170) . . .
28110(170) . . .
28040(170) . . .
27020(160) . . .
25500(160) . . .
23580(150) . . .
21590(150) . . .
19190(140) . . .
17010(130) . . .
14920(120) . . .
13010(110) . . .
11470(110) . . .
9930(100) . . .
8750(94) . . .
7739(88) . . .
6736(82) . . .
5993(77) . . .
5229(72) . . .
4791(69) . . .
4304(66) . . .
3873(62) . . .
3462(59) . . .
3144(56) . . .
2969(54) . . .
2662(52) . . .
2427(49) . . .
2193(47) . . .
2061(45) . . .
1907(44) . . .
1743(42) . . .
1659(41) . . .
1554(39) . . .
1414(38) . . .
1348(37) . . .
1271(36) . . .
1176(34) . . .
1165(34) . . .
1095(33) . . .
1080(33) . . .
1005(32) . . .
931(31) . . .
924(30) . . .
921(30) . . .
812(28) . . .
833(29) . . .
790(28) . . .
771(28) . . .
743(27) . . .
781(28) . . .
705(27) . . .
645(25) . . .
707(27) . . .
688(26) . . .
657(26) . . .
642(25) . . .
639(25) . . .
640(25) . . .
585(24) . . .
593(24) . . .
589(24) . . .
544(23) . . .
548(23) . . .
592(24) . . .
524(23) . . .
511(23) . . .
474(22) . . .
524(23) . . .
501(22) . . .
483(22) . . .
477(22) . . .
495(22) . . .
471(22) . . .
440(21) . . .
501(22) . . .
476(22) . . .
434(21) . . .
484(22) . . .
448(21) . . .
435(21) . . .
435(21) . . .
427(21) . . .
443(21) . . .
443(21) . . .
427(21) . . .
404(20) . . .
404(20) . . .
415(20) . . .
418(20) . . .
423(21) . . .
412(20) . . .
396(20) . . .
384(20) . . .
386(20) . . .
391(20) . . .
418(20) . . .
411(20) . . .
380(19) . . .
398(20) . . .
393(20) . . .
381(20) . . .
391(20) . . .
399(20) . . .
396(20) . . .
374(19) . . .
368(19) . . .
384(20) . . .
367(19) . . .
362(19) . . .
376(19) . . .
375(19) . . .
378(19) . . .
408(20) . . .
378(19) . . .
378(19) . . .
362(19) . . .
404(20) . . .
403(20) . . .
349(19) . . .
401(20) . . .
334(18) . . .
338(18) . . .
366(19) . . .
374(19) . . .
364(19) . . .
346(19) . . .
376(19) . . .
332(18) . . .
336(18) . . .
339(18) . . .
344(19) . . .
331(18) . . .
352(19) . . .
362(19) . . .
379(19) . . .
387(20) . . .
341(18) . . .
330(18) . . .
406(20) . . .
355(19) . . .
368(19) . . .
368(19) . . .
384(20) . . .
328(18) . . .
373(19) . . .
343(19) . . .
343(19) . . .
366(19) . . .
338(18) . . .
345(19) . . .
351(19) . . .
343(19) . . .
341(18) . . .
329(18) . . .
358(19) . . .
338(18) . . .
380(19) . . .
335(18) . . .
315(18) . . .
340(18) . . .
331(18) . . .
332(18) . . .
340(18) . . .
370(19) . . .
342(18) . . .
356(19) . . .
341(18) . . .
336(18) . . .
352(19) . . .
345(19) . . .
364(19) . . .
336(18) . . .
359(19) . . .
356(19) . . .
372(19) . . .
341(18) . . .
384(20) . . .
332(18) . . .
350(19) . . .
367(19) . . .
338(18) . . .
339(18) . . .
355(19) . . .
293(17) . . .
342(18) . . .
364(19) . . .
379(19) . . .
349(19) . . .
332(18) . . .
365(19) . . .
377(19) . . .
332(18) . . .
365(19) . . .
337(18) . . .
349(19) . . .
354(19) . . .
347(19) . . .
355(19) . . .
342(18) . . .
356(19) . . .
352(19) . . .
349(19) . . .
343(19) . . .
354(19) . . .
358(19) . . .
351(19) . . .
331(18) . . .
360(19) . . .
341(18) . . .
340(18) . . .
373(19) . . .
344(19) . . .
355(19) . . .
362(19) . . .
374(19) . . .
339(18) . . .
345(19) . . .
375(19) . . .
351(19) . . .
368(19) . . .
390(20) . . .
363(19) . . .
376(19) . . .
358(19) . . .
377(19) . . .
377(19) . . .
359(19) . . .
366(19) . . .
383(20) . . .
377(19) . . .
374(19) . . .
368(19) . . .
344(19) . . .
373(19) . . .
384(20) . . .
386(20) . . .
391(20) . . .
359(19) . . .
378(19) . . .
363(19) . . .
386(20) . . .
377(19) . . .
392(20) . . .
404(20) . . .
384(20) . . .
374(19) . . .
363(19) . . .
407(20) . . .
407(20) . . .
407(20) . . .
409(20) . . .
421(21) . . .
456(21) . . .
412(20) . . .
454(21) . . .
425(21) . . .
440(21) . . .
437(21) . . .
436(21) . . .
434(21) . . .
467(22) . . .
466(22) . . .
466(22) . . .
481(22) . . .
464(22) . . .
499(22) . . .
493(22) . . .
488(22) . . .
531(23) . . .
517(23) . . .
559(24) . . .
562(24) . . .
581(24) . . .
561(24) . . .
569(24) . . .
592(24) . . .
624(25) . . .
652(26) . . .
670(26) . . .
723(27) . . .
743(27) . . .
776(28) . . .
781(28) . . .
850(29) . . .
945(31) . . .
898(30) . . .
1014(32) . . .
1102(33) . . .
1157(34) . . .
1231(35) . . .
1260(35) . . .
1424(38) . . .
1532(39) . . .
1647(41) . . .
1785(42) . . .
1910(44) . . .
2128(46) . . .
2355(49) . . .
2633(51) . . .
2930(54) . . .
3419(58) . . .
3742(61) . . .
4176(65) . . .
4621(68) . . .
5253(72) . . .
5958(77) . . .
6978(84) . . .
7848(89) . . .
8525(92) . . .
9453(97) . . .
10490(100) . . .
11270(110) . . .
11800(110) . . .
12180(110) . . .
12270(110) . . .
12160(110) . . .
11920(110) . . .
11650(110) . . .
10720(100) . . .
9629(98) . . .
8686(93) . . .
7675(88) . . .
6791(82) . . .
5983(77) . . .
5251(72) . . .
4603(68) . . .
4029(63) . . .
3502(59) . . .
3078(55) . . .
2706(52) . . .
2424(49) . . .
2214(47) . . .
2021(45) . . .
1828(43) . . .
1678(41) . . .
1483(39) . . .
1482(38) . . .
1390(37) . . .
1229(35) . . .
1196(35) . . .
1020(32) . . .
975(31) . . .
942(31) . . .
947(31) . . .
850(29) . . .
788(28) . . .
807(28) . . .
733(27) . . .
662(26) . . .
675(26) . . .
676(26) . . .
620(25) . . .
599(24) . . .
571(24) . . .
559(24) . . .
536(23) . . .
545(23) . . .
513(23) . . .
468(22) . . .
517(23) . . .
481(22) . . .
485(22) . . .
479(22) . . .
510(23) . . .
524(23) . . .
449(21) . . .
435(21) . . .
448(21) . . .
411(20) . . .
450(21) . . .
462(21) . . .
409(20) . . .
411(20) . . .
387(20) . . .
419(20) . . .
383(20) . . .
416(20) . . .
414(20) . . .
408(20) . . .
419(20) . . .
383(20) . . .
393(20) . . .
376(19) . . .
362(19) . . .
361(19) . . .
361(19) . . .
351(19) . . .
390(20) . . .
389(20) . . .
361(19) . . .
372(19) . . .
359(19) . . .
363(19) . . .
380(19) . . .
359(19) . . .
358(19) . . .
338(18) . . .
322(18) . . .
346(19) . . .
363(19) . . .
337(18) . . .
339(18) . . .
342(18) . . .
333(18) . . .
343(19) . . .
331(18) . . .
337(18) . . .
312(18) . . .
333(18) . . .
338(18) . . .
335(18) . . .
349(19) . . .
339(18) . . .
338(18) . . .
315(18) . . .
335(18) . . .
349(19) . . .
333(18) . . .
346(19) . . .
320(18) . . .
320(18) . . .
335(18) . . .
346(19) . . .
328(18) . . .
347(19) . . .
344(19) . . .
334(18) . . .
316(18) . . .
327(18) . . .
315(18) . . .
328(18) . . .
313(18) . . .
313(18) . . .
341(18) . . .
306(17) . . .
313(18) . . .
314(18) . . .
322(18) . . .
322(18) . . .
312(18) . . .
310(18) . . .
328(18) . . .
300(17) . . .
312(18) . . .
325(18) . . .
334(18) . . .
342(18) . . .
313(18) . . .
319(18) . . .
349(19) . . .
321(18) . . .
319(18) . . .
339(18) . . .
296(17) . . .
320(18) . . .
331(18) . . .
316(18) . . .
317(18) . . .
312(18) . . .
329(18) . . .
321(18) . . .
327(18) . . .
299(17) . . .
303(17) . . .
303(17) . . .
316(18) . . .
298(17) . . .
347(19) . . .
296(17) . . .
346(19) . . .
281(17) . . .
307(18) . . .
287(17) . . .
311(18) . . .
329(18) . . .
301(17) . . .
295(17) . . .
303(17) . . .
319(18) . . .
310(18) . . .
287(17) . . .
310(18) . . .
314(18) . . .
334(18) . . .
325(18) . . .
321(18) . . .
315(18) . . .
306(17) . . .
314(18) . . .
299(17) . . .
305(17) . . .
337(18) . . .
298(17) . . .
294(17) . . .
291(17) . . .
323(18) . . .
356(19) . . .
328(18) . . .
323(18) . . .
313(18) . . .
304(17) . . .
323(18) . . .
316(18) . . .
302(17) . . .
332(18) . . .
306(17) . . .
330(18) . . .
323(18) . . .
338(18) . . .
319(18) . . .
308(18) . . .
291(17) . . .
284(17) . . .
321(18) . . .
312(18) . . .
299(17) . . .
315(18) . . .
319(18) . . .
295(17) . . .
316(18) . . .
320(18) . . .
307(18) . . .
302(17) . . .
301(17) . . .
331(18) . . .
298(17) . . .
314(18) . . .
292(17) . . .
300(17) . . .
308(18) . . .
323(18) . . .
302(17) . . .
312(18) . . .
313(18) . . .
343(19) . . .
300(17) . . .
322(18) . . .
323(18) . . .
295(17) . . .
330(18) . . .
334(18) . . .
303(17) . . .
303(17) . . .
326(18) . . .
310(18) . . .
275(17) . . .
311(18) . . .
288(17) . . .
302(17) . . .
353(19) . . .
285(17) . . .
273(17) . . .
281(17) . . .
315(18) . . .
296(17) . . .
292(17) . . .
287(17) . . .
292(17) . . .
316(18) . . .
288(17) . . .
344(19) . . .
315(18) . . .
323(18) . . .
301(17) . . .
323(18) . . .
312(18) . . .
300(17) . . .
342(18) . . .
273(17) . . .
313(18) . . .
318(18) . . .
329(18) . . .
305(17) . . .
284(17) . . .
295(17) . . .
307(18) . . .
300(17) . . .
305(17) . . .
311(18) . . .
313(18) . . .
300(17) . . .
328(18) . . .
304(17) . . .
329(18) . . .
289(17) . . .
301(17) . . .
299(17) . . .
314(18) . . .
292(17) . . .
307(18) . . .
289(17) . . .
318(18) . . .
288(17) . . .
295(17) . . .
295(17) . . .
313(18) . . .
307(18) . . .
319(18) . . .
301(17) . . .
298(17) . . .
307(18) . . .
274(17) . . .
307(18) . . .
291(17) . . .
265(16) . . .
312(18) . . .
296(17) . . .
306(17) . . .
317(18) . . .
292(17) . . .
309(18) . . .
319(18) . . .
292(17) . . .
305(17) . . .
291(17) . . .
303(17) . . .
310(18) . . .
327(18) . . .
309(18) . . .
291(17) . . .
291(17) . . .
297(17) . . .
287(17) . . .
326(18) . . .
291(17) . . .
287(17) . . .
300(17) . . .
305(17) . . .
283(17) . . .
325(18) . . .
326(18) . . .
293(17) . . .
278(17) . . .
300(17) . . .
290(17) . . .
301(17) . . .
303(17) . . .
288(17) . . .
319(18) . . .
277(17) . . .
290(17) . . .
283(17) . . .
312(18) . . .
313(18) . . .
285(17) . . .
287(17) . . .
330(18) . . .
291(17) . . .
300(17) . . .
296(17) . . .
305(17) . . .
318(18) . . .
299(17) . . .
305(17) . . .
307(18) . . .
324(18) . . .
289(17) . . .
325(18) . . .
320(18) . . .
305(17) . . .
269(16) . . .
278(17) . . .
296(17) . . .
297(17) . . .
295(17) . . .
285(17) . . .
286(17) . . .
310(18) . . .
295(17) . . .
281(17) . . .
317(18) . . .
251(16) . . .
285(17) . . .
281(17) . . .
280(17) . . .
303(17) . . .
278(17) . . .
298(17) . . .
315(18) . . .
292(17) . . .
294(17) . . .
281(17) . . .
284(17) . . .
280(17) . . .
295(17) . . .
284(17) . . .
265(16) . . .
301(17) . . .
301(17) . . .
284(17) . . .
301(17) . . .
281(17) . . .
293(17) . . .
311(18) . . .
310(18) . . .
281(17) . . .
303(17) . . .
310(18) . . .
279(17) . . .
283(17) . . .
287(17) . . .
303(17) . . .
299(17) . . .
289(17) . . .
292(17) . . .
271(16) . . .
309(18) . . .
285(17) . . .
297(17) . . .
299(17) . . .
317(18) . . .
288(17) . . .
314(18) . . .
307(18) . . .
286(17) . . .
283(17) . . .
294(17) . . .
273(17) . . .
260(16) . . .
287(17) . . .
291(17) . . .
273(17) . . .
295(17) . . .
323(18) . . .
301(17) . . .
288(17) . . .
306(17) . . .
321(18) . . .
270(16) . . .
293(17) . . .
307(18) . . .
278(17) . . .
308(18) . . .
285(17) . . .
284(17) . . .
288(17) . . .
283(17) . . .
299(17) . . .
283(17) . . .
292(17) . . .
284(17) . . .
286(17) . . .
276(17) . . .
276(17) . . .
299(17) . . .
269(16) . . .
276(17) . . .
332(18) . . .
303(17) . . .
297(17) . . .
290(17) . . .
273(17) . . .
314(18) . . .
262(16) . . .
259(16) . . .
301(17) . . .
318(18) . . .
301(17) . . .
281(17) . . .
273(17) . . .
268(16) . . .
301(17) . . .
258(16) . . .
282(17) . . .
308(18) . . .
292(17) . . .
280(17) . . .
296(17) . . .
304(17) . . .
279(17) . . .
285(17) . . .
311(18) . . .
280(17) . . .
299(17) . . .
301(17) . . .
281(17) . . .
281(17) . . .
300(17) . . .
282(17) . . .
288(17) . . .
244(16) . . .
279(17) . . .
280(17) . . .
270(16) . . .
287(17) . . .
292(17) . . .
291(17) . . .
313(18) . . .
283(17) . . .
260(16) . . .
272(16) . . .
278(17) . . .
262(16) . . .
298(17) . . .
276(17) . . .
268(16) . . .
311(18) . . .
284(17) . . .
273(17) . . .
281(17) . . .
264(16) . . .
297(17) . . .
261(16) . . .
288(17) . . .
286(17) . . .
288(17) . . .
307(18) . . .
292(17) . . .
269(16) . . .
297(17) . . .
293(17) . . .
300(17) . . .
276(17) . . .
269(16) . . .
282(17) . . .
294(17) . . .
303(17) . . .
276(17) . . .
249(16) . . .
306(17) . . .
307(18) . . .
286(17) . . .
295(17) . . .
293(17) . . .
277(17) . . .
296(17) . . .
274(17) . . .
248(16) . . .
278(17) . . .
284(17) . . .
291(17) . . .
264(16) . . .
292(17) . . .
281(17) . . .
278(17) . . .
301(17) . . .
271(16) . . .
296(17) . . .
299(17) . . .
278(17) . . .
273(17) . . .
306(17) . . .
267(16) . . .
260(16) . . .
283(17) . . .
275(17) . . .
288(17) . . .
269(16) . . .
286(17) . . .
276(17) . . .
271(16) . . .
291(17) . . .
273(17) . . .
279(17) . . .
272(16) . . .
308(18) . . .
285(17) . . .
267(16) . . .
307(18) . . .
268(16) . . .
283(17) . . .
240(15) . . .
270(16) . . .
260(16) . . .
264(16) . . .
263(16) . . .
281(17) . . .
256(16) . . .
253(16) . . .
256(16) . . .
276(17) . . .
293(17) . . .
287(17) . . .
263(16) . . .
279(17) . . .
249(16) . . .
284(17) . . .
285(17) . . .
278(17) . . .
297(17) . . .
294(17) . . .
276(17) . . .
281(17) . . .
289(17) . . .
290(17) . . .
282(17) . . .
278(17) . . .
289(17) . . .
279(17) . . .
327(18) . . .
269(16) . . .
293(17) . . .
303(17) . . .
294(17) . . .
267(16) . . .
259(16) . . .
280(17) . . .
282(17) . . .
288(17) . . .
300(17) . . .
264(16) . . .
263(16) . . .
310(18) . . .
302(17) . . .
268(16) . . .
291(17) . . .
288(17) . . .
272(16) . . .
271(16) . . .
284(17) . . .
262(16) . . .
275(17) . . .
284(17) . . .
289(17) . . .
281(17) . . .
304(17) . . .
277(17) . . .
281(17) . . .
297(17) . . .
289(17) . . .
286(17) . . .
267(16) . . .
274(17) . . .
266(16) . . .
289(17) . . .
286(17) . . .
282(17) . . .
288(17) . . .
257(16) . . .
298(17) . . .
277(17) . . .
274(17) . . .
272(16) . . .
274(17) . . .
281(17) . . .
269(16) . . .
293(17) . . .
296(17) . . .
274(17) . . .
265(16) . . .
266(16) . . .
268(16) . . .
296(17) . . .
303(17) . . .
295(17) . . .
287(17) . . .
275(17) . . .
288(17) . . .
275(17) . . .
296(17) . . .
271(16) . . .
276(17) . . .
262(16) . . .
276(17) . . .
257(16) . . .
269(16) . . .
277(17) . . .
279(17) . . .
292(17) . . .
277(17) . . .
271(16) . . .
291(17) . . .
312(18) . . .
283(17) . . .
323(18) . . .
300(17) . . .
286(17) . . .
310(18) . . .
300(17) . . .
277(17) . . .
304(17) . . .
315(18) . . .
281(17) . . .
288(17) . . .
301(17) . . .
300(17) . . .
283(17) . . .
318(18) . . .
255(16) . . .
293(17) . . .
289(17) . . .
273(17) . . .
280(17) . . .
263(16) . . .
276(17) . . .
300(17) . . .
284(17) . . .
334(18) . . .
308(18) . . .
304(17) . . .
288(17) . . .
283(17) . . .
309(18) . . .
292(17) . . .
266(16) . . .
308(18) . . .
292(17) . . .
290(17) . . .
293(17) . . .
281(17) . . .
287(17) . . .
279(17) . . .
277(17) . . .
284(17) . . .
321(18) . . .
303(17) . . .
287(17) . . .
307(18) . . .
288(17) . . .
314(18) . . .
290(17) . . .
304(17) . . .
285(17) . . .
296(17) . . .
293(17) . . .
309(18) . . .
298(17) . . .
286(17) . . .
299(17) . . .
309(18) . . .
293(17) . . .
289(17) . . .
321(18) . . .
324(18) . . .
292(17) . . .
274(17) . . .
284(17) . . .
286(17) . . .
263(16) . . .
292(17) . . .
269(16) . . .
284(17) . . .
284(17) . . .
283(17) . . .
281(17) . . .
285(17) . . .
302(17) . . .
314(18) . . .
286(17) . . .
287(17) . . .
302(17) . . .
271(16) . . .
282(17) . . .
281(17) . . .
297(17) . . .
326(18) . . .
302(17) . . .
289(17) . . .
297(17) . . .
264(16) . . .
284(17) . . .
288(17) . . .
320(18) . . .
273(17) . . .
271(16) . . .
277(17) . . .
287(17) . . .
313(18) . . .
283(17) . . .
284(17) . . .
298(17) . . .
307(18) . . .
324(18) . . .
271(16) . . .
283(17) . . .
291(17) . . .
296(17) . . .
283(17) . . .
313(18) . . .
290(17) . . .
280(17) . . .
287(17) . . .
300(17) . . .
288(17) . . .
272(16) . . .
289(17) . . .
317(18) . . .
323(18) . . .
305(17) . . .
300(17) . . .
295(17) . . .
276(17) . . .
288(17) . . .
321(18) . . .
299(17) . . .
302(17) . . .
288(17) . . .
307(18) . . .
295(17) . . .
306(17) . . .
291(17) . . .
283(17) . . .
304(17) . . .
301(17) . . .
292(17) . . .
290(17) . . .
297(17) . . .
280(17) . . .
298(17) . . .
295(17) . . .
303(17) . . .
317(18) . . .
295(17) . . .
291(17) . . .
306(17) . . .
308(18) . . .
295(17) . . .
305(17) . . .
321(18) . . .
290(17) . . .
289(17) . . .
266(16) . . .
285(17) . . .
286(17) . . .
284(17) . . .
293(17) . . .
287(17) . . .
314(18) . . .
306(17) . . .
280(17) . . .
303(17) . . .
313(18) . . .
305(17) . . .
278(17) . . .
301(17) . . .
304(17) . . .
263(16) . . .
284(17) . . .
284(17) . . .
302(17) . . .
334(18) . . .
318(18) . . .
323(18) . . .
332(18) . . .
308(18) . . .
303(17) . . .
283(17) . . .
299(17) . . .
297(17) . . .
334(18) . . .
311(18) . . .
281(17) . . .
296(17) . . .
297(17) . . .
301(17) . . .
301(17) . . .
297(17) . . .
292(17) . . .
291(17) . . .
309(18) . . .
315(18) . . .
284(17) . . .
282(17) . . .
276(17) . . .
295(17) . . .
303(17) . . .
292(17) . . .
300(17) . . .
282(17) . . .
292(17) . . .
298(17) . . .
298(17) . . .
299(17) . . .
301(17) . . .
280(17) . . .
298(17) . . .
291(17) . . .
279(17) . . .
289(17) . . .
313(18) . . .
258(16) . . .
313(18) . . .
296(17) . . .
300(17) . . .
278(17) . . .
286(17) . . .
289(17) . . .
271(16) . . .
290(17) . . .
308(18) . . .
268(16) . . .
252(16) . . .
269(16) . . .
311(18) . . .
291(17) . . .
306(17) . . .
307(18) . . .
280(17) . . .
289(17) . . .
285(17) . . .
303(17) . . .
303(17) . . .
289(17) . . .
272(16) . . .
284(17) . . .
288(17) . . .
307(18) . . .
305(17) . . .
300(17) . . .
312(18) . . .
299(17) . . .
301(17) . . .
282(17) . . .
286(17) . . .
313(18) . . .
316(18) . . .
274(17) . . .
305(17) . . .
284(17) . . .
309(18) . . .
285(17) . . .
288(17) . . .
273(17) . . .
322(18) . . .
310(18) . . .
324(18) . . .
317(18) . . .
306(17) . . .
256(16) . . .
298(17) . . .
325(18) . . .
283(17) . . .
278(17) . . .
291(17) . . .
287(17) . . .
277(17) . . .
294(17) . . .
289(17) . . .
305(17) . . .
291(17) . . .
292(17) . . .
302(17) . . .
290(17) . . .
293(17) . . .
284(17) . . .
284(17) . . .
273(17) . . .
295(17) . . .
314(18) . . .
300(17) . . .
273(17) . . .
310(18) . . .
299(17) . . .
306(17) . . .
306(17) . . .
268(16) . . .
307(18) . . .
297(17) . . .
314(18) . . .
303(17) . . .
281(17) . . .
292(17) . . .
298(17) . . .
279(17) . . .
286(17) . . .
304(17) . . .
303(17) . . .
300(17) . . .
285(17) . . .
269(16) . . .
290(17) . . .
292(17) . . .
283(17) . . .
285(17) . . .
333(18) . . .
265(16) . . .
288(17) . . .
289(17) . . .
288(17) . . .
263(16) . . .
300(17) . . .
302(17) . . .
296(17) . . .
302(17) . . .
297(17) . . .
293(17) . . .
280(17) . . .
265(16) . . .
298(17) . . .
268(16) . . .
287(17) . . .
294(17) . . .
291(17) . . .
321(18) . . .
258(16) . . .
299(17) . . .
286(17) . . .
275(17) . . .
292(17) . . .
299(17) . . .
298(17) . . .
279(17) . . .
266(16) . . .
273(17) . . .
282(17) . . .
290(17) . . .
271(16) . . .
297(17) . . .
251(16) . . .
283(17) . . .
302(17) . . .
306(17) . . .
266(16) . . .
254(16) . . .
301(17) . . .
295(17) . . .
312(18) . . .
299(17) . . .
266(16) . . .
273(17) . . .
281(17) . . .
296(17) . . .
300(17) . . .
263(16) . . .
292(17) . . .
289(17) . . .
299(17) . . .
294(17) . . .
294(17) . . .
291(17) . . .
279(17) . . .
280(17) . . .
268(16) . . .
300(17) . . .
302(17) . . .
314(18) . . .
275(17) . . .
303(17) . . .
289(17) . . .
286(17) . . .
316(18) . . .
301(17) . . .
271(16) . . .
285(17) . . .
266(16) . . .
266(16) . . .
305(17) . . .
282(17) . . .
298(17) . . .
325(18) . . .
293(17) . . .
327(18) . . .
285(17) . . .
266(16) . . .
306(17) . . .
295(17) . . .
313(18) . . .
273(17) . . .
311(18) . . .
298(17) . . .
315(18) . . .
305(17) . . .
291(17) . . .
294(17) . . .
292(17) . . .
293(17) . . .
292(17) . . .
290(17) . . .
292(17) . . .
283(17) . . .
329(18) . . .
293(17) . . .
301(17) . . .
279(17) . . .
302(17) . . .
269(16) . . .
298(17) . . .
297(17) . . .
296(17) . . .
292(17) . . .
309(18) . . .
322(18) . . .
313(18) . . .
282(17) . . .
288(17) . . .
294(17) . . .
291(17) . . .
300(17) . . .
304(17) . . .
270(16) . . .
307(18) . . .
282(17) . . .
280(17) . . .
304(17) . . .
292(17) . . .
290(17) . . .
264(16) . . .
295(17) . . .
294(17) . . .
274(17) . . .
266(16) . . .
307(18) . . .
309(18) . . .
314(18) . . .
276(17) . . .
293(17) . . .
301(17) . . .
300(17) . . .
286(17) . . .
290(17) . . .
288(17) . . .
291(17) . . .
293(17) . . .
303(17) . . .
295(17) . . .
274(17) . . .
317(18) . . .
309(18) . . .
303(17) . . .
250(16) . . .
305(17) . . .
267(16) . . .
294(17) . . .
293(17) . . .
303(17) . . .
262(16) . . .
303(17) . . .
292(17) . . .
300(17) . . .
274(17) . . .
297(17) . . .
287(17) . . .
316(18) . . .
280(17) . . .
276(17) . . .
314(18) . . .
286(17) . . .
264(16) . . .
282(17) . . .
272(16) . . .
279(17) . . .
295(17) . . .
285(17) . . .
298(17) . . .
294(17) . . .
248(16) . . .
294(17) . . .
287(17) . . .
283(17) . . .
306(17) . . .
309(18) . . .
298(17) . . .
321(18) . . .
313(18) . . .
294(17) . . .
294(17) . . .
304(17) . . .
289(17) . . .
312(18) . . .
319(18) . . .
318(18) . . .
321(18) . . .
282(17) . . .
306(17) . . .
318(18) . . .
312(18) . . .
332(18) . . .
313(18) . . .
288(17) . . .
328(18) . . .
315(18) . . .
293(17) . . .
306(17) . . .
333(18) . . .
315(18) . . .
307(18) . . .
300(17) . . .
325(18) . . .
330(18) . . .
351(19) . . .
341(18) . . .
331(18) . . .
315(18) . . .
351(19) . . .
364(19) . . .
373(19) . . .
355(19) . . .
320(18) . . .
387(20) . . .
369(19) . . .
342(18) . . .
362(19) . . .
355(19) . . .
382(20) . . .
388(20) . . .
407(20) . . .
392(20) . . .
421(21) . . .
390(20) . . .
420(20) . . .
413(20) . . .
422(21) . . .
426(21) . . .
470(22) . . .
474(22) . . .
414(20) . . .
466(22) . . .
455(21) . . .
427(21) . . .
443(21) . . .
487(22) . . .
479(22) . . .
482(22) . . .
490(22) . . .
512(23) . . .
520(23) . . .
593(24) . . .
563(24) . . .
617(25) . . .
650(25) . . .
626(25) . . .
705(27) . . .
747(27) . . .
755(27) . . .
802(28) . . .
851(29) . . .
912(30) . . .
930(30) . . .
1080(33) . . .
1140(34) . . .
1161(34) . . .
1282(36) . . .
1326(36) . . .
1497(39) . . .
1582(40) . . .
1789(42) . . .
1907(44) . . .
2070(45) . . .
2291(48) . . .
2603(51) . . .
2943(54) . . .
3418(58) . . .
3820(62) . . .
4264(65) . . .
4708(69) . . .
5372(73) . . .
5873(77) . . .
6782(82) . . .
7547(87) . . .
8043(90) . . .
8646(93) . . .
9417(97) . . .
9780(99) . . .
9980(100) . . .
10190(100) . . .
10030(100) . . .
9792(99) . . .
9053(95) . . .
8419(92) . . .
7826(88) . . .
7042(84) . . .
6338(80) . . .
5833(76) . . .
5079(71) . . .
4621(68) . . .
4181(65) . . .
3705(61) . . .
3302(57) . . .
2839(53) . . .
2578(51) . . .
2211(47) . . .
1993(45) . . .
1791(42) . . .
1611(40) . . .
1493(39) . . .
1348(37) . . .
1273(36) . . .
1271(36) . . .
1128(34) . . .
1056(32) . . .
1074(33) . . .
964(31) . . .
865(29) . . .
829(29) . . .
800(28) . . .
745(27) . . .
722(27) . . .
689(26) . . .
682(26) . . .
641(25) . . .
574(24) . . .
583(24) . . .
569(24) . . .
534(23) . . .
484(22) . . .
466(22) . . .
528(23) . . .
477(22) . . .
454(21) . . .
469(22) . . .
446(21) . . .
464(22) . . .
432(21) . . .
416(20) . . .
432(21) . . .
413(20) . . .
433(21) . . .
407(20) . . .
401(20) . . .
401(20) . . .
413(20) . . .
394(20) . . .
370(19) . . .
374(19) . . .
391(20) . . .
368(19) . . .
338(18) . . .
347(19) . . .
370(19) . . .
375(19) . . .
334(18) . . .
362(19) . . .
366(19) . . .
334(18) . . .
360(19) . . .
347(19) . . .
333(18) . . .
309(18) . . .
315(18) . . .
304(17) . . .
284(17) . . .
344(19) . . .
302(17) . . .
315(18) . . .
302(17) . . .
310(18) . . .
271(16) . . .
285(17) . . .
284(17) . . .
307(18) . . .
295(17) . . .
309(18) . . .
293(17) . . .
324(18) . . .
304(17) . . .
283(17) . . .
293(17) . . .
318(18) . . .
302(17) . . .
326(18) . . .
297(17) . . .
302(17) . . .
303(17) . . .
285(17) . . .
313(18) . . .
297(17) . . .
293(17) . . .
309(18) . . .
293(17) . . .
320(18) . . .
304(17) . . .
276(17) . . .
273(17) . . .
286(17) . . .
260(16) . . .
316(18) . . .
286(17) . . .
282(17) . . .
272(16) . . .
289(17) . . .
284(17) . . .
278(17) . . .
288(17) . . .
287(17) . . .
292(17) . . .
270(16) . . .
257(16) . . .
294(17) . . .
286(17) . . .
284(17) . . .
274(17) . . .
286(17) . . .
290(17) . . .
278(17) . . .
276(17) . . .
286(17) . . .
255(16) . . .
283(17) . . .
294(17) . . .
287(17) . . .
260(16) . . .
287(17) . . .
281(17) . . .
269(16) . . .
296(17) . . .
286(17) . . .
278(17) . . .
257(16) . . .
281(17) . . .
298(17) . . .
263(16) . . .
283(17) . . .
289(17) . . .
285(17) . . .
275(17) . . .
303(17) . . .
283(17) . . .
291(17) . . .
299(17) . . .
275(17) . . .
267(16) . . .
274(17) . . .
263(16) . . .
282(17) . . .
281(17) . . .
308(18) . . .
273(17) . . .
272(16) . . .
318(18) . . .
289(17) . . .
287(17) . . .
293(17) . . .
277(17) . . .
279(17) . . .
276(17) . . .
269(16) . . .
273(17) . . .
285(17) . . .
273(17) . . .
296(17) . . .
296(17) . . .
274(17) . . .
292(17) . . .
260(16) . . .
284(17) . . .
288(17) . . .
275(17) . . .
320(18) . . .
243(16) . . .
286(17) . . .
295(17) . . .
284(17) . . .
292(17) . . .
290(17) . . .
273(17) . . .
274(17) . . .
291(17) . . .
272(16) . . .
268(16) . . .
272(16) . . .
282(17) . . .
270(16) . . .
279(17) . . .
289(17) . . .
276(17) . . .
280(17) . . .
261(16) . . .
254(16) . . .
302(17) . . .
274(17) . . .
305(17) . . .
277(17) . . .
280(17) . . .
299(17) . . .
263(16) . . .
285(17) . . .
290(17) . . .
273(17) . . .
288(17) . . .
286(17) . . .
266(16) . . .
291(17) . . .
289(17) . . .
285(17) . . .
259(16) . . .
267(16) . . .
266(16) . . .
274(17) . . .
245(16) . . .
273(17) . . .
292(17) . . .
244(16) . . .
250(16) . . .
288(17) . . .
265(16) . . .
289(17) . . .
292(17) . . .
262(16) . . .
263(16) . . .
263(16) . . .
265(16) . . .
266(16) . . .
268(16) . . .
262(16) . . .
254(16) . . .
258(16) . . .
250(16) . . .
274(17) . . .
260(16) . . .
286(17) . . .
282(17) . . .
291(17) . . .
294(17) . . .
293(17) . . .
282(17) . . .
297(17) . . .
272(16) . . .
291(17) . . .
297(17) . . .
258(16) . . .
265(16) . . .
287(17) . . .
262(16) . . .
287(17) . . .
298(17) . . .
271(16) . . .
278(17) . . .
271(16) . . .
265(16) . . .
314(18) . . .
263(16) . . .
287(17) . . .
273(17) . . .
281(17) . . .
279(17) . . .
258(16) . . .
268(16) . . .
269(16) . . .
274(17) . . .
231(15) . . .
252(16) . . .
264(16) . . .
257(16) . . .
249(16) . . .
261(16) . . .
266(16) . . .
278(17) . . .
276(17) . . .
258(16) . . .
277(17) . . .
297(17) . . .
273(17) . . .
251(16) . . .
267(16) . . .
280(17) . . .
268(16) . . .
276(17) . . .
267(16) . . .
285(17) . . .
290(17) . . .
250(16) . . .
251(16) . . .
252(16) . . .
267(16) . . .
285(17) . . .
275(17) . . .
285(17) . . .
245(16) . . .
288(17) . . .
283(17) . . .
254(16) . . .
288(17) . . .
246(16) . . .
270(16) . . .
287(17) . . .
266(16) . . .
287(17) . . .
250(16) . . .
280(17) . . .
250(16) . . .
243(16) . . .
275(17) . . .
275(17) . . .
273(17) . . .
264(16) . . .
234(15) . . .
258(16) . . .
275(17) . . .
255(16) . . .
275(17) . . .
262(16) . . .
260(16) . . .
276(17) . . .
273(17) . . .
308(18) . . .
236(15) . . .
258(16) . . .
266(16) . . .
250(16) . . .
262(16) . . .
275(17) . . .
264(16) . . .
273(17) . . .
228(15) . . .
259(16) . . .
259(16) . . .
251(16) . . .
281(17) . . .
249(16) . . .
251(16) . . .
250(16) . . .
272(16) . . .
265(16) . . .
248(16) . . .
261(16) . . .
270(16) . . .
277(17) . . .
251(16) . . .
259(16) . . .
259(16) . . .
257(16) . . .
252(16) . . .
255(16) . . .
253(16) . . .
252(16) . . .
275(17) . . .
267(16) . . .
271(16) . . .
245(16) . . .
244(16) . . .
273(17) . . .
266(16) . . .
263(16) . . .
247(16) . . .
266(16) . . .
279(17) . . .
254(16) . . .
267(16) . . .
257(16) . . .
243(16) . . .
257(16) . . .
272(16) . . .
284(17) . . .
255(16) . . .
260(16) . . .
258(16) . . .
287(17) . . .
260(16) . . .
265(16) . . .
284(17) . . .
252(16) . . .
265(16) . . .
241(16) . . .
249(16) . . .
253(16) . . .
263(16) . . .
257(16) . . .
251(16) . . .
282(17) . . .
253(16) . . .
271(16) . . .
248(16) . . .
255(16) . . .
288(17) . . .
233(15) . . .
255(16) . . .
252(16) . . .
261(16) . . .
259(16) . . .
240(15) . . .
246(16) . . .
269(16) . . .
269(16) . . .
280(17) . . .
260(16) . . .
277(17) . . .
270(16) . . .
270(16) . . .
247(16) . . .
241(16) . . .
247(16) . . .
263(16) . . .
265(16) . . .
233(15) . . .
255(16) . . .
254(16) . . .
263(16) . . .
277(17) . . .
256(16) . . .
257(16) . . .
242(16) . . .
255(16) . . .
269(16) . . .
255(16) . . .
257(16) . . .
274(17) . . .
266(16) . . .
260(16) . . .
262(16) . . .
245(16) . . .
256(16) . . .
268(16) . . .
237(15) . . .
264(16) . . .
240(15) . . .
247(16) . . .
273(17) . . .
282(17) . . .
264(16) . . .
261(16) . . .
259(16) . . .
239(15) . . .
254(16) . . .
263(16) . . .
249(16) . . .
244(16) . . .
239(15) . . .
232(15) . . .
272(16) . . .
259(16) . . .
250(16) . . .
260(16) . . .
246(16) . . .
291(17) . . .
276(17) . . .
271(16) . . .
243(16) . . .
262(16) . . .
253(16) . . .
239(15) . . .
249(16) . . .
246(16) . . .
252(16) . . .
248(16) . . .
282(17) . . .
268(16) . . .
259(16) . . .
280(17) . . .
264(16) . . .
251(16) . . .
284(17) . . .
267(16) . . .
253(16) . . .
246(16) . . .
243(16) . . .
265(16) . . .
262(16) . . .
255(16) . . .
252(16) . . .
248(16) . . .
222(15) . . .
271(16) . . .
255(16) . . .
249(16) . . .
246(16) . . .
242(16) . . .
235(15) . . .
264(16) . . .
221(15) . . .
243(16) . . .
261(16) . . .
244(16) . . .
251(16) . . .
248(16) . . .
253(16) . . .
246(16) . . .
240(15) . . .
249(16) . . .
251(16) . . .
212(15) . . .
220(15) . . .
238(15) . . .
268(16) . . .
248(16) . . .
272(16) . . .
237(15) . . .
271(16) . . .
256(16) . . .
271(16) . . .
247(16) . . .
233(15) . . .
264(16) . . .
241(16) . . .
247(16) . . .
250(16) . . .
241(16) . . .
235(15) . . .
253(16) . . .
241(16) . . .
254(16) . . .
259(16) . . .
251(16) . . .
257(16) . . .
263(16) . . .
233(15) . . .
227(15) . . .
242(16) . . .
237(15) . . .
234(15) . . .
252(16) . . .
242(16) . . .
232(15) . . .
245(16) . . .
263(16) . . .
253(16) . . .
258(16) . . .
246(16) . . .
227(15) . . .
264(16) . . .
258(16) . . .
261(16) . . .
251(16) . . .
252(16) . . .
230(15) . . .
247(16) . . .
249(16) . . .
213(15) . . .
229(15) . . .
230(15) . . .
249(16) . . .
250(16) . . .
241(16) . . .
237(15) . . .
254(16) . . .
232(15) . . .
268(16) . . .
231(15) . . .
241(16) . . .
255(16) . . .
277(17) . . .
253(16) . . .
234(15) . . .
209(14) . . .
257(16) . . .
236(15) . . .
231(15) . . .
230(15) . . .
224(15) . . .
226(15) . . .
241(16) . . .
234(15) . . .
224(15) . . .
235(15) . . .
259(16) . . .
250(16) . . .
229(15) . . .
268(16) . . .
256(16) . . .
233(15) . . .
239(15) . . .
229(15) . . .
260(16) . . .
234(15) . . .
240(15) . . .
271(16) . . .
230(15) . . .
224(15) . . .
226(15) . . .
223(15) . . .
230(15) . . .
243(16) . . .
249(16) . . .
252(16) . . .
236(15) . . .
248(16) . . .
255(16) . . .
242(16) . . .
262(16) . . .
236(15) . . .
238(15) . . .
253(16) . . .
231(15) . . .
229(15) . . .
268(16) . . .
243(16) . . .
224(15) . . .
244(16) . . .
240(15) . . .
251(16) . . .
274(17) . . .
275(17) . . .
251(16) . . .
274(17) . . .
243(16) . . .
260(16) . . .
268(16) . . .
260(16) . . .
260(16) . . .
240(15) . . .
261(16) . . .
253(16) . . .
216(15) . . .
240(15) . . .
229(15) . . .
236(15) . . .
250(16) . . .
252(16) . . .
242(16) . . .
256(16) . . .
272(16) . . .
273(17) . . .
230(15) . . .
237(15) . . .
248(16) . . .
266(16) . . .
253(16) . . .
258(16) . . .
221(15) . . .
232(15) . . .
265(16) . . .
283(17) . . .
244(16) . . .
269(16) . . .
260(16) . . .
247(16) . . .
255(16) . . .
235(15) . . .
272(16) . . .
272(16) . . .
232(15) . . .
241(16) . . .
265(16) . . .
283(17) . . .
280(17) . . .
244(16) . . .
260(16) . . .
256(16) . . .
275(17) . . .
246(16) . . .
244(16) . . .
237(15) . . .
285(17) . . .
235(15) . . .
278(17) . . .
227(15) . . .
273(17) . . .
243(16) . . .
267(16) . . .
249(16) . . .
246(16) . . .
262(16) . . .
242(16) . . .
242(16) . . .
243(16) . . .
261(16) . . .
254(16) . . .
280(17) . . .
237(15) . . .
224(15) . . .
249(16) . . .
250(16) . . .
248(16) . . .
290(17) . . .
246(16) . . .
247(16) . . .
238(15) . . .
279(17) . . .
262(16) . . .
256(16) . . .
278(17) . . .
278(17) . . .
267(16) . . .
257(16) . . .
264(16) . . .
267(16) . . .
257(16) . . .
246(16) . . .
218(15) . . .
248(16) . . .
251(16) . . .
240(15) . . .
269(16) . . .
265(16) . . .
260(16) . . .
234(15) . . .
260(16) . . .
242(16) . . .
279(17) . . .
244(16) . . .
252(16) . . .
263(16) . . .
250(16) . . .
250(16) . . .
263(16) . . .
249(16) . . .
251(16) . . .
227(15) . . .
273(17) . . .
237(15) . . .
254(16) . . .
243(16) . . .
232(15) . . .
272(16) . . .
240(15) . . .
268(16) . . .
254(16) . . .
255(16) . . .
277(17) . . .
275(17) . . .
259(16) . . .
231(15) . . .
262(16) . . .
266(16) . . .
255(16) . . .
274(17) . . .
245(16) . . .
265(16) . . .
254(16) . . .
257(16) . . .
242(16) . . .
250(16) . . .
267(16) . . .
259(16) . . .
254(16) . . .
257(16) . . .
262(16) . . .
241(16) . . .
250(16) . . .
236(15) . . .
221(15) . . .
241(16) . . .
254(16) . . .
274(17) . . .
254(16) . . .
252(16) . . .
245(16) . . .
234(15) . . .
264(16) . . .
256(16) . . .
260(16) . . .
271(16) . . .
256(16) . . .
239(15) . . .
260(16) . . .
276(17) . . .
250(16) . . .
253(16) . . .
239(15) . . .
235(15) . . .
253(16) . . .
259(16) . . .
248(16) . . .
236(15) . . .
250(16) . . .
265(16) . . .
229(15) . . .
234(15) . . .
239(15) . . .
257(16) . . .
238(15) . . .
253(16) . . .
253(16) . . .
252(16) . . .
267(16) . . .
248(16) . . .
253(16) . . .
247(16) . . .
266(16) . . .
258(16) . . .
250(16) . . .
268(16) . . .
267(16) . . .
252(16) . . .
272(16) . . .
286(17) . . .
272(16) . . .
280(17) . . .
238(15) . . .
265(16) . . .
266(16) . . .
239(15) . . .
248(16) . . .
278(17) . . .
258(16) . . .
249(16) . . .
264(16) . . .
271(16) . . .
251(16) . . .
263(16) . . .
275(17) . . .
240(15) . . .
250(16) . . .
249(16) . . .
252(16) . . .
280(17) . . .
271(16) . . .
271(16) . . .
280(17) . . .
282(17) . . .
271(16) . . .
271(16) . . .
262(16) . . .
257(16) . . .
248(16) . . .
258(16) . . .
256(16) . . .
268(16) . . .
280(17) . . .
283(17) . . .
289(17) . . .
258(16) . . .
267(16) . . .
270(16) . . .
282(17) . . .
273(17) . . .
283(17) . . .
311(18) . . .
285(17) . . .
310(18) . . .
322(18) . . .
300(17) . . .
346(19) . . .
306(17) . . .
293(17) . . .
307(18) . . .
331(18) . . .
332(18) . . .
333(18) . . .
281(17) . . .
310(18) . . .
302(17) . . .
315(18) . . .
309(18) . . .
331(18) . . .
336(18) . . .
352(19) . . .
348(19) . . .
362(19) . . .
368(19) . . .
418(20) . . .
393(20) . . .
375(19) . . .
362(19) . . .
407(20) . . .
390(20) . . .
374(19) . . .
408(20) . . .
450(21) . . .
443(21) . . .
411(20) . . .
469(22) . . .
482(22) . . .
485(22) . . .
504(22) . . .
559(24) . . .
589(24) . . .
602(25) . . .
609(25) . . .
663(26) . . .
683(26) . . .
739(27) . . .
731(27) . . .
811(28) . . .
865(29) . . .
918(30) . . .
948(31) . . .
1014(32) . . .
1125(34) . . .
1267(36) . . .
1436(38) . . .
1519(39) . . .
1708(41) . . .
2041(45) . . .
2134(46) . . .
2285(48) . . .
2576(51) . . .
2902(54) . . .
3216(57) . . .
3357(58) . . .
3683(61) . . .
3919(63) . . .
4144(64) . . .
4343(66) . . .
4633(68) . . .
4776(69) . . .
4705(69) . . .
4800(69) . . .
4645(68) . . .
4450(67) . . .
4328(66) . . .
4117(64) . . .
3962(63) . . .
3650(60) . . .
3313(58) . . .
3031(55) . . .
2709(52) . . .
2534(50) . . .
2238(47) . . .
2050(45) . . .
1777(42) . . .
1591(40) . . .
1454(38) . . .
1361(37) . . .
1222(35) . . .
1149(34) . . .
1001(32) . . .
981(31) . . .
900(30) . . .
918(30) . . .
778(28) . . .
710(27) . . .
708(27) . . .
686(26) . . .
627(25) . . .
649(25) . . .
564(24) . . .
530(23) . . .
519(23) . . .
522(23) . . .
496(22) . . .
471(22) . . .
424(21) . . .
469(22) . . .
450(21) . . .
402(20) . . .
404(20) . . .
406(20) . . .
356(19) . . .
355(19) . . .
320(18) . . .
377(19) . . .
345(19) . . .
355(19) . . .
366(19) . . .
342(18) . . .
361(19) . . .
326(18) . . .
321(18) . . .
319(18) . . .
325(18) . . .
287(17) . . .
308(18) . . .
304(17) . . .
304(17) . . .
273(17) . . .
291(17) . . .
308(18) . . .
302(17) . . .
321(18) . . .
277(17) . . .
287(17) . . .
303(17) . . .
294(17) . . .
275(17) . . .
280(17) . . .
256(16) . . .
250(16) . . .
272(16) . . .
268(16) . . .
277(17) . . .
283(17) . . .
296(17) . . .
281(17) . . .
293(17) . . .
298(17) . . .
300(17) . . .
256(16) . . .
261(16) . . .
287(17) . . .
271(16) . . .
261(16) . . .
269(16) . . .
262(16) . . .
295(17) . . .
268(16) . . .
251(16) . . .
256(16) . . .
272(16) . . .
246(16) . . .
254(16) . . .
249(16) . . .
256(16) . . .
226(15) . . .
253(16) . . .
282(17) . . .
275(17) . . .
256(16) . . .
256(16) . . .
275(17) . . .
262(16) . . .
260(16) . . .
226(15) . . .
253(16) . . .
267(16) . . .
251(16) . . .
272(16) . . .
270(16) . . .
243(16) . . .
263(16) . . .
253(16) . . .
278(17) . . .
255(16) . . .
254(16) . . .
270(16) . . .
267(16) . . .
244(16) . . .
256(16) . . .
255(16) . . .
264(16) . . .
257(16) . . .
242(16) . . .
242(16) . . .
241(16) . . .
266(16) . . .
266(16) . . .
260(16) . . .
256(16) . . .
246(16) . . .
263(16) . . .
293(17) . . .
249(16) . . .
251(16) . . .
241(16) . . .
264(16) . . .
234(15) . . .
255(16) . . .
266(16) . . .
270(16) . . .
256(16) . . .
270(16) . . .
247(16) . . .
254(16) . . .
269(16) . . .
249(16) . . .
244(16) . . .
243(16) . . .
249(16) . . .
244(16) . . .
267(16) . . .
248(16) . . .
268(16) . . .
267(16) . . .
244(16) . . .
233(15) . . .
260(16) . . .
254(16) . . .
255(16) . . .
272(16) . . .
248(16) . . .
256(16) . . .
254(16) . . .
240(15) . . .
238(15) . . .
269(16) . . .
235(15) . . .
255(16) . . .
233(15) . . .
240(15) . . .
244(16) . . .
256(16) . . .
251(16) . . .
261(16) . . .
264(16) . . .
253(16) . . .
224(15) . . .
236(15) . . .
257(16) . . .
252(16) . . .
244(16) . . .
248(16) . . .
230(15) . . .
252(16) . . .
268(16) . . .
262(16) . . .
283(17) . . .
295(17) . . .
244(16) . . .
248(16) . . .
257(16) . . .
274(17) . . .
270(16) . . .
246(16) . . .
221(15) . . .
254(16) . . .
260(16) . . .
250(16) . . .
241(16) . . .
239(15) . . .
238(15) . . .
286(17) . . .
262(16) . . .
242(16) . . .
234(15) . . .
251(16) . . .
280(17) . . .
252(16) . . .
258(16) . . .
279(17) . . .
267(16) . . .
233(15) . . .
269(16) . . .
248(16) . . .
264(16) . . .
270(16) . . .
267(16) . . .
270(16) . . .
249(16) . . .
281(17) . . .
286(17) . . .
281(17) . . .
281(17) . . .
276(17) . . .
281(17) . . .
302(17) . . .
286(17) . . .
287(17) . . .
333(18) . . .
330(18) . . .
265(16) . . .
299(17) . . .
294(17) . . .
298(17) . . .
283(17) . . .
300(17) . . .
309(18) . . .
307(18) . . .
303(17) . . .
283(17) . . .
280(17) . . .
325(18) . . .
296(17) . . .
313(18) . . .
317(18) . . .
334(18) . . .
332(18) . . .
326(18) . . .
332(18) . . .
350(19) . . .
393(20) . . .
356(19) . . .
335(18) . . .
363(19) . . .
354(19) . . .
385(20) . . .
395(20) . . .
374(19) . . .
398(20) . . .
406(20) . . .
415(20) . . .
431(21) . . .
466(22) . . .
456(21) . . .
496(22) . . .
501(22) . . .
479(22) . . .
513(23) . . .
486(22) . . .
490(22) . . .
550(23) . . .
565(24) . . .
618(25) . . .
603(25) . . .
651(26) . . .
670(26) . . .
659(26) . . .
737(27) . . .
769(28) . . .
875(30) . . .
878(30) . . .
941(31) . . .
1035(32) . . .
1091(33) . . .
1312(36) . . .
1324(36) . . .
1493(39) . . .
1597(40) . . .
1765(42) . . .
1988(45) . . .
2152(46) . . .
2396(49) . . .
2667(52) . . .
2933(54) . . .
3269(57) . . .
3440(59) . . .
3763(61) . . .
3865(62) . . .
4269(65) . . .
4300(66) . . .
4315(66) . . .
4228(65) . . .
4257(65) . . .
4034(64) . . .
3787(62) . . .
3438(59) . . .
3087(56) . . .
2826(53) . . .
2583(51) . . .
2356(49) . . .
2044(45) . . .
1881(43) . . .
1692(41) . . .
1490(39) . . .
1416(38) . . .
1284(36) . . .
1156(34) . . .
1068(33) . . .
1017(32) . . .
836(29) . . .
761(28) . . .
706(27) . . .
698(26) . . .
678(26) . . .
634(25) . . .
613(25) . . .
635(25) . . .
568(24) . . .
542(23) . . .
541(23) . . .
516(23) . . .
457(21) . . .
457(21) . . .
495(22) . . .
456(21) . . .
454(21) . . .
414(20) . . .
408(20) . . .
401(20) . . .
408(20) . . .
390(20) . . .
386(20) . . .
369(19) . . .
380(19) . . .
345(19) . . .
354(19) . . .
337(18) . . .
338(18) . . .
336(18) . . .
331(18) . . .
346(19) . . .
329(18) . . .
284(17) . . .
290(17) . . .
308(18) . . .
264(16) . . .
278(17) . . .
278(17) . . .
295(17) . . .
268(16) . . .
270(16) . . .
258(16) . . .
276(17) . . .
273(17) . . .
290(17) . . .
299(17) . . .
298(17) . . .
268(16) . . .
275(17) . . .
237(15) . . .
256(16) . . .
274(17) . . .
253(16) . . .
261(16) . . .
263(16) . . .
279(17) . . .
273(17) . . .
237(15) . . .
273(17) . . .
258(16) . . .
260(16) . . .
280(17) . . .
252(16) . . .
235(15) . . .
260(16) . . .
252(16) . . .
245(16) . . .
294(17) . . .
231(15) . . .
244(16) . . .
232(15) . . .
269(16) . . .
240(15) . . .
257(16) . . .
249(16) . . .
232(15) . . .
258(16) . . .
251(16) . . .
234(15) . . .
255(16) . . .
263(16) . . .
236(15) . . .
248(16) . . .
239(15) . . .
242(16) . . .
252(16) . . .
227(15) . . .
228(15) . . .
238(15) . . .
252(16) . . .
228(15) . . .
231(15) . . .
237(15) . . .
230(15) . . .
237(15) . . .
227(15) . . .
246(16) . . .
234(15) . . .
223(15) . . .
222(15) . . .
226(15) . . .
226(15) . . .
234(15) . . .
237(15) . . .
250(16) . . .
233(15) . . .
234(15) . . .
241(16) . . .
240(15) . . .
231(15) . . .
211(15) . . .
229(15) . . .
242(16) . . .
234(15) . . .
258(16) . . .
232(15) . . .
232(15) . . .
244(16) . . .
266(16) . . .
231(15) . . .
231(15) . . .
244(16) . . .
226(15) . . .
239(15) . . .
237(15) . . .
226(15) . . .
234(15) . . .
230(15) . . .
215(15) . . .
224(15) . . .
228(15) . . .
222(15) . . .
232(15) . . .
245(16) . . .
232(15) . . .
226(15) . . .
230(15) . . .
247(16) . . .
218(15) . . .
202(14) . . .
243(16) . . .
255(16) . . .
228(15) . . .
215(15) . . .
244(16) . . .
241(16) . . .
260(16) . . .
247(16) . . .
236(15) . . .
233(15) . . .
232(15) . . .
242(16) . . .
228(15) . . .
228(15) . . .
219(15) . . .
225(15) . . .
233(15) . . .
218(15) . . .
244(16) . . .
227(15) . . .
240(15) . . .
227(15) . . .
211(15) . . .
222(15) . . .
222(15) . . .
237(15) . . .
217(15) . . .
241(16) . . .
240(15) . . .
233(15) . . .
224(15) . . .
238(15) . . .
244(16) . . .
211(15) . . .
242(16) . . .
230(15) . . .
245(16) . . .
233(15) . . .
240(15) . . .
223(15) . . .
220(15) . . .
237(15) . . .
235(15) . . .
245(16) . . .
260(16) . . .
222(15) . . .
245(16) . . .
232(15) . . .
251(16) . . .
227(15) . . .
250(16) . . .
222(15) . . .
234(15) . . .
216(15) . . .
221(15) . . .
245(16) . . .
236(15) . . .
236(15) . . .
223(15) . . .
232(15) . . .
230(15) . . .
217(15) . . .
244(16) . . .
235(15) . . .
260(16) . . .
242(16) . . .
230(15) . . .
255(16) . . .
244(16) . . .
229(15) . . .
202(14) . . .
238(15) . . .
242(16) . . .
239(15) . . .
228(15) . . .
255(16) . . .
228(15) . . .
235(15) . . .
256(16) . . .
233(15) . . .
226(15) . . .
234(15) . . .
235(15) . . .
240(15) . . .
248(16) . . .
243(16) . . .
224(15) . . .
218(15) . . .
234(15) . . .
234(15) . . .
227(15) . . .
243(16) . . .
276(17) . . .
236(15) . . .
265(16) . . .
261(16) . . .
224(15) . . .
260(16) . . .
235(15) . . .
233(15) . . .
261(16) . . .
260(16) . . .
219(15) . . .
233(15) . . .
221(15) . . .
242(16) . . .
223(15) . . .
253(16) . . .
248(16) . . .
239(15) . . .
250(16) . . .
230(15) . . .
247(16) . . .
270(16) . . .
251(16) . . .
229(15) . . .
263(16) . . .
247(16) . . .
219(15) . . .
243(16) . . .
243(16) . . .
227(15) . . .
246(16) . . .
229(15) . . .
232(15) . . .
235(15) . . .
229(15) . . .
232(15) . . .
249(16) . . .
249(16) . . .
225(15) . . .
262(16) . . .
253(16) . . .
244(16) . . .
267(16) . . .
230(15) . . .
234(15) . . .
218(15) . . .
255(16) . . .
238(15) . . .
219(15) . . .
231(15) . . .
231(15) . . .
241(16) . . .
244(16) . . .
242(16) . . .
230(15) . . .
254(16) . . .
236(15) . . .
224(15) . . .
240(15) . . .
248(16) . . .
242(16) . . .
241(16) . . .
241(16) . . .
251(16) . . .
238(15) . . .
239(15) . . .
237(15) . . .
238(15) . . .
249(16) . . .
209(14) . . .
252(16) . . .
251(16) . . .
247(16) . . .
255(16) . . .
275(17) . . .
263(16) . . .
257(16) . . .
248(16) . . .
272(16) . . .
270(16) . . .
249(16) . . .
254(16) . . .
224(15) . . .
245(16) . . .
243(16) . . .
248(16) . . .
260(16) . . .
231(15) . . .
239(15) . . .
250(16) . . .
238(15) . . .
237(15) . . .
232(15) . . .
255(16) . . .
240(15) . . .
233(15) . . .
263(16) . . .
233(15) . . .
230(15) . . .
258(16) . . .
252(16) . . .
235(15) . . .
234(15) . . .
223(15) . . .
259(16) . . .
256(16) . . .
239(15) . . .
252(16) . . .
218(15) . . .
214(15) . . .
225(15) . . .
196(14) . . .
233(15) . . .
235(15) . . .
233(15) . . .
231(15) . . .
242(16) . . .
233(15) . . .
228(15) . . .
232(15) . . .
210(14) . . .
227(15) . . .
244(16) . . .
253(16) . . .
249(16) . . .
250(16) . . .
234(15) . . .
234(15) . . .
243(16) . . .
238(15) . . .
216(15) . . .
243(16) . . .
224(15) . . .
231(15) . . .
206(14) . . .
239(15) . . .
227(15) . . .
236(15) . . .
240(15) . . .
245(16) . . .
222(15) . . .
236(15) . . .
231(15) . . .
213(15) . . .
225(15) . . .
220(15) . . .
234(15) . . .
239(15) . . .
251(16) . . .
221(15) . . .
221(15) . . .
255(16) . . .
226(15) . . .
227(15) . . .
229(15) . . .
231(15) . . .
264(16) . . .
229(15) . . .
209(14) . . .
256(16) . . .
227(15) . . .
231(15) . . .
258(16) . . .
228(15) . . .
237(15) . . .
252(16) . . .
239(15) . . .
216(15) . . .
215(15) . . .
225(15) . . .
226(15) . . .
237(15) . . .
236(15) . . .
253(16) . . .
251(16) . . .
260(16) . . .
224(15) . . .
228(15) . . .
215(15) . . .
234(15) . . .
237(15) . . .
232(15) . . .
219(15) . . .
217(15) . . .
246(16) . . .
223(15) . . .
238(15) . . .
238(15) . . .
229(15) . . .
219(15) . . .
184(14) . . .
235(15) . . .
244(16) . . .
230(15) . . .
215(15) . . .
229(15) . . .
227(15) . . .
244(16) . . .
186(14) . . .
226(15) . . .
227(15) . . .
224(15) . . .
203(14) . . .
213(15) . . .
225(15) . . .
242(16) . . .
221(15) . . .
222(15) . . .
214(15) . . .
238(15) . . .
228(15) . . .
258(16) . . .
249(16) . . .
205(14) . . .
233(15) . . .
237(15) . . .
220(15) . . .
237(15) . . .
231(15) . . .
207(14) . . .
221(15) . . .
244(16) . . .
243(16) . . .
209(14) . . .
250(16) . . .
230(15) . . .
231(15) . . .
248(16) . . .
221(15) . . .
256(16) . . .
218(15) . . .
238(15) . . .
231(15) . . .
228(15) . . .
233(15) . . .
241(16) . . .
240(15) . . .
235(15) . . .
233(15) . . .
227(15) . . .
246(16) . . .
232(15) . . .
250(16) . . .
243(16) . . .
236(15) . . .
222(15) . . .
218(15) . . .
238(15) . . .
217(15) . . .
239(15) . . .
221(15) . . .
243(16) . . .
235(15) . . .
234(15) . . .
231(15) . . .
234(15) . . .
202(14) . . .
244(16) . . .
245(16) . . .
231(15) . . .
227(15) . . .
246(16) . . .
237(15) . . .
234(15) . . .
225(15) . . .
248(16) . . .
243(16) . . .
245(16) . . .
227(15) . . .
249(16) . . .
258(16) . . .
250(16) . . .
250(16) . . .
229(15) . . .
232(15) . . .
241(16) . . .
235(15) . . .
240(15) . . .
235(15) . . .
237(15) . . .
244(16) . . .
222(15) . . .
214(15) . . .
239(15) . . .
236(15) . . .
235(15) . . .
233(15) . . .
236(15) . . .
253(16) . . .
248(16) . . .
256(16) . . .
232(15) . . .
234(15) . . .
256(16) . . .
225(15) . . .
266(16) . . .
233(15) . . .
244(16) . . .
234(15) . . .
253(16) . . .
247(16) . . .
228(15) . . .
213(15) . . .
233(15) . . .
245(16) . . .
233(15) . . .
217(15) . . .
215(15) . . .
267(16) . . .
220(15) . . .
227(15) . . .
213(15) . . .
226(15) . . .
242(16) . . .
247(16) . . .
220(15) . . .
242(16) . . .
226(15) . . .
219(15) . . .
222(15) . . .
239(15) . . .
242(16) . . .
227(15) . . .
254(16) . . .
208(14) . . .
250(16) . . .
231(15) . . .
234(15) . . .
245(16) . . .
242(16) . . .
238(15) . . .
250(16) . . .
259(16) . . .
218(15) . . .
249(16) . . .
227(15) . . .
225(15) . . .
221(15) . . .
219(15) . . .
211(15) . . .
217(15) . . .
217(15) . . .
245(16) . . .
195(14) . . .
222(15) . . .
220(15) . . .
234(15) . . .
222(15) . . .
209(14) . . .
227(15) . . .
233(15) . . .
242(16) . . .
230(15) . . .
238(15) . . .
237(15) . . .
214(15) . . .
208(14) . . .
249(16) . . .
240(15) . . .
215(15) . . .
220(15) . . .
226(15) . . .
223(15) . . .
240(15) . . .
210(14) . . .
226(15) . . .
218(15) . . .
221(15) . . .
216(15) . . .
201(14) . . .
213(15) . . .
228(15) . . .
210(14) . . .
256(16) . . .
214(15) . . .
231(15) . . .
208(14) . . .
248(16) . . .
225(15) . . .
235(15) . . .
222(15) . . .
238(15) . . .
214(15) . . .
240(15) . . .
232(15) . . .
240(15) . . .
213(15) . . .
211(15) . . .
236(15) . . .
214(15) . . .
246(16) . . .
225(15) . . .
224(15) . . .
261(16) . . .
215(15) . . .
236(15) . . .
214(15) . . .
231(15) . . .
204(14) . . .
252(16) . . .
222(15) . . .
227(15) . . .
231(15) . . .
233(15) . . .
236(15) . . .
242(16) . . .
207(14) . . .
225(15) . . .
228(15) . . .
248(16) . . .
240(15) . . .
253(16) . . .
232(15) . . .
239(15) . . .
248(16) . . .
208(14) . . .
230(15) . . .
232(15) . . .
229(15) . . .
243(16) . . .
251(16) . . .
220(15) . . .
212(15) . . .
251(16) . . .
251(16) . . .
236(15) . . .
254(16) . . .
239(15) . . .
249(16) . . .
235(15) . . .
223(15) . . .
225(15) . . .
220(15) . . .
213(15) . . .
223(15) . . .
237(15) . . .
260(16) . . .
240(15) . . .
218(15) . . .
223(15) . . .
251(16) . . .
250(16) . . .
244(16) . . .
242(16) . . .
238(15) . . .
240(15) . . .
238(15) . . .
249(16) . . .
237(15) . . .
232(15) . . .
239(15) . . .
230(15) . . .
254(16) . . .
233(15) . . .
254(16) . . .
234(15) . . .
256(16) . . .
250(16) . . .
244(16) . . .
252(16) . . .
225(15) . . .
264(16) . . .
234(15) . . .
251(16) . . .
219(15) . . .
224(15) . . .
255(16) . . .
265(16) . . .
250(16) . . .
273(17) . . .
228(15) . . .
230(15) . . .
234(15) . . .
233(15) . . .
257(16) . . .
225(15) . . .
209(14) . . .
240(15) . . .
218(15) . . .
250(16) . . .
211(15) . . .
227(15) . . .
225(15) . . .
238(15) . . .
235(15) . . .
227(15) . . .
222(15) . . .
227(15) . . .
235(15) . . .
233(15) . . .
226(15) . . .
254(16) . . .
211(15) . . .
222(15) . . .
240(15) . . .
227(15) . . .
241(16) . . .
239(15) . . .
232(15) . . .
231(15) . . .
248(16) . . .
250(16) . . .
247(16) . . .
248(16) . . .
253(16) . . .
246(16) . . .
244(16) . . .
236(15) . . .
246(16) . . .
240(15) . . .
232(15) . . .
232(15) . . .
235(15) . . .
235(15) . . .
238(15) . . .
224(15) . . .
244(16) . . .
241(16) . . .
266(16) . . .
247(16) . . .
245(16) . . .
235(15) . . .
253(16) . . .
226(15) . . .
252(16) . . .
245(16) . . .
234(15) . . .
240(15) . . .
238(15) . . .
251(16) . . .
239(15) . . .
256(16) . . .
252(16) . . .
240(15) . . .
260(16) . . .
233(15) . . .
238(15) . . .
239(15) . . .
229(15) . . .
232(15) . . .
242(16) . . .
235(15) . . .
230(15) . . .
237(15) . . .
230(15) . . .
204(14) . . .
230(15) . . .
254(16) . . .
239(15) . . .
264(16) . . .
247(16) . . .
251(16) . . .
238(15) . . .
223(15) . . .
199(14) . . .
252(16) . . .
239(15) . . .
259(16) . . .
244(16) . . .
235(15) . . .
258(16) . . .
239(15) . . .
209(14) . . .
242(16) . . .
229(15) . . .
231(15) . . .
220(15) . . .
216(15) . . .
211(15) . . .
219(15) . . .
245(16) . . .
223(15) . . .
250(16) . . .
221(15) . . .
225(15) . . .
226(15) . . .
216(15) . . .
224(15) . . .
235(15) . . .
230(15) . . .
219(15) . . .
237(15) . . .
236(15) . . .
261(16) . . .
224(15) . . .
235(15) . . .
242(16) . . .
252(16) . . .
234(15) . . .
246(16) . . .
228(15) . . .
247(16) . . .
224(15) . . .
235(15) . . .
259(16) . . .
220(15) . . .
216(15) . . .
266(16) . . .
259(16) . . .
238(15) . . .
249(16) . . .
240(15) . . .
226(15) . . .
218(15) . . .
229(15) . . .
223(15) . . .
226(15) . . .
228(15) . . .
236(15) . . .
224(15) . . .
249(16) . . .
223(15) . . .
218(15) . . .
232(15) . . .
212(15) . . .
247(16) . . .
212(15) . . .
199(14) . . .
249(16) . . .
227(15) . . .
208(14) . . .
239(15) . . .
226(15) . . .
246(16) . . .
234(15) . . .
230(15) . . .
217(15) . . .
230(15) . . .
249(16) . . .
231(15) . . .
234(15) . . .
247(16) . . .
222(15) . . .
225(15) . . .
233(15) . . .
221(15) . . .
228(15) . . .
221(15) . . .
256(16) . . .
224(15) . . .
218(15) . . .
224(15) . . .
235(15) . . .
246(16) . . .
207(14) . . .
214(15) . . .
236(15) . . .
221(15) . . .
233(15) . . .
237(15) . . .
215(15) . . .
232(15) . . .
248(16) . . .
215(15) . . .
225(15) . . .
239(15) . . .
228(15) . . .
224(15) . . .
227(15) . . .
257(16) . . .
236(15) . . .
222(15) . . .
243(16) . . .
234(15) . . .
245(16) . . .
229(15) . . .
242(16) . . .
230(15) . . .
246(16) . . .
246(16) . . .
242(16) . . .
252(16) . . .
241(16) . . .
232(15) . . .
254(16) . . .
214(15) . . .
215(15) . . .
242(16) . . .
228(15) . . .
222(15) . . .
233(15) . . .
258(16) . . .
235(15) . . .
231(15) . . .
241(16) . . .
227(15) . . .
242(16) . . .
218(15) . . .
251(16) . . .
252(16) . . .
232(15) . . .
236(15) . . .
231(15) . . .
219(15) . . .
218(15) . . .
224(15) . . .
233(15) . . .
240(15) . . .
247(16) . . .
216(15) . . .
238(15) . . .
253(16) . . .
240(15) . . .
243(16) . . .
254(16) . . .
221(15) . . .
230(15) . . .
253(16) . . .
214(15) . . .
247(16) . . .
225(15) . . .
243(16) . . .
210(14) . . .
240(15) . . .
235(15) . . .
244(16) . . .
242(16) . . .
251(16) . . .
232(15) . . .
212(15) . . .
224(15) . . .
242(16) . . .
226(15) . . .
220(15) . . .
215(15) . . .
247(16) . . .
236(15) . . .
222(15) . . .
232(15) . . .
215(15) . . .
231(15) . . .
241(16) . . .
230(15) . . .
232(15) . . .
230(15) . . .
229(15) . . .
247(16) . . .
212(15) . . .
225(15) . . .
220(15) . . .
229(15) . . .
207(14) . . .
230(15) . . .
213(15) . . .
235(15) . . .
226(15) . . .
215(15) . . .
248(16) . . .
227(15) . . .
229(15) . . .
244(16) . . .
250(16) . . .
199(14) . . .
219(15) . . .
224(15) . . .
232(15) . . .
248(16) . . .
234(15) . . .
227(15) . . .
222(15) . . .
227(15) . . .
243(16) . . .
231(15) . . .
241(16) . . .
211(15) . . .
256(16) . . .
241(16) . . .
239(15) . . .
258(16) . . .
231(15) . . .
218(15) . . .
233(15) . . .
225(15) . . .
233(15) . . .
231(15) . . .
228(15) . . .
231(15) . . .
242(16) . . .
224(15) . . .
227(15) . . .
251(16) . . .
237(15) . . .
226(15) . . .
218(15) . . .
241(16) . . .
216(15) . . .
253(16) . . .
218(15) . . .
255(16) . . .
217(15) . . .
243(16) . . .
220(15) . . .
250(16) . . .
226(15) . . .
263(16) . . .
232(15) . . .
226(15) . . .
229(15) . . .
238(15) . . .
247(16) . . .
229(15) . . .
229(15) . . .
255(16) . . .
235(15) . . .
224(15) . . .
224(15) . . .
226(15) . . .
258(16) . . .
251(16) . . .
247(16) . . .
236(15) . . .
211(15) . . .
235(15) . . .
252(16) . . .
240(15) . . .
268(16) . . .
249(16) . . .
253(16) . . .
243(16) . . .
225(15) . . .
239(15) . . .
249(16) . . .
244(16) . . .
233(15) . . .
236(15) . . .
252(16) . . .
239(15) . . .
228(15) . . .
229(15) . . .
244(16) . . .
250(16) . . .
249(16) . . .
245(16) . . .
232(15) . . .
239(15) . . .
222(15) . . .
222(15) . . .
234(15) . . .
233(15) . . .
224(15) . . .
233(15) . . .
255(16) . . .
224(15) . . .
241(16) . . .
208(14) . . .
223(15) . . .
238(15) . . .
222(15) . . .
221(15) . . .
233(15) . . .
218(15) . . .
230(15) . . .
248(16) . . .
228(15) . . .
228(15) . . .
227(15) . . .
249(16) . . .
230(15) . . .
234(15) . . .
237(15) . . .
256(16) . . .
230(15) . . .
232(15) . . .
247(16) . . .
242(16) . . .
202(14) . . .
234(15) . . .
243(16) . . .
240(15) . . .
223(15) . . .
218(15) . . .
242(16) . . .
239(15) . . .
237(15) . . .
246(16) . . .
231(15) . . .
246(16) . . .
245(16) . . .
210(14) . . .
230(15) . . .
225(15) . . .
230(15) . . .
246(16) . . .
230(15) . . .
237(15) . . .
249(16) . . .
235(15) . . .
250(16) . . .
233(15) . . .
234(15) . . .
256(16) . . .
247(16) . . .
218(15) . . .
231(15) . . .
218(15) . . .
229(15) . . .
245(16) . . .
245(16) . . .
227(15) . . .
200(14) . . .
234(15) . . .
209(14) . . .
240(15) . . .
221(15) . . .
245(16) . . .
228(15) . . .
273(17) . . .
212(15) . . .
217(15) . . .
215(15) . . .
216(15) . . .
215(15) . . .
219(15) . . .
240(15) . . .
235(15) . . .
232(15) . . .
229(15) . . .
211(15) . . .
230(15) . . .
236(15) . . .
258(16) . . .
199(14) . . .
244(16) . . .
238(15) . . .
231(15) . . .
251(16) . . .
239(15) . . .
269(16) . . .
243(16) . . .
265(16) . . .
279(17) . . .
233(15) . . .
247(16) . . .
263(16) . . .
257(16) . . .
241(16) . . .
309(18) . . .
319(18) . . .
307(18) . . .
299(17) . . .
323(18) . . .
326(18) . . .
350(19) . . .
341(18) . . .
397(20) . . .
439(21) . . .
412(20) . . .
403(20) . . .
448(21) . . .
459(21) . . .
464(22) . . .
515(23) . . .
502(22) . . .
520(23) . . .
499(22) . . .
509(23) . . .
535(23) . . .
544(23) . . .
505(22) . . .
499(22) . . .
520(23) . . .
436(21) . . .
465(22) . . .
438(21) . . .
402(20) . . .
359(19) . . .
361(19) . . .
331(18) . . .
349(19) . . .
325(18) . . .
299(17) . . .
294(17) . . .
287(17) . . .
276(17) . . .
266(16) . . .
271(16) . . .
259(16) . . .
271(16) . . .
252(16) . . .
260(16) . . .
237(15) . . .
267(16) . . .
224(15) . . .
258(16) . . .
250(16) . . .
260(16) . . .
227(15) . . .
234(15) . . .
225(15) . . .
243(16) . . .
243(16) . . .
238(15) . . .
235(15) . . .
231(15) . . .
211(15) . . .
235(15) . . .
232(15) . . .
236(15) . . .
250(16) . . .
239(15) . . .
236(15) . . .
206(14) . . .
235(15) . . .
260(16) . . .
219(15) . . .
206(14) . . .
243(16) . . .
217(15) . . .
212(15) . . .
223(15) . . .
237(15) . . .
235(15) . . .
235(15) . . .
226(15) . . .
221(15) . . .
256(16) . . .
236(15) . . .
220(15) . . .
268(16) . . .
238(15) . . .
247(16) . . .
240(15) . . .
240(15) . . .
228(15) . . .
244(16) . . .
239(15) . . .
232(15) . . .
241(16) . . .
211(15) . . .
230(15) . . .
211(15) . . .
247(16) . . .
233(15) . . .
238(15) . . .
228(15) . . .
251(16) . . .
230(15) . . .
232(15) . . .
217(15) . . .
200(14) . . .
246(16) . . .
204(14) . . .
222(15) . . .
239(15) . . .
233(15) . . .
234(15) . . .
240(15) . . .
216(15) . . .
225(15) . . .
235(15) . . .
235(15) . . .
217(15) . . .
210(14) . . .
239(15) . . .
215(15) . . .
217(15) . . .
234(15) . . .
229(15) . . .
207(14) . . .
228(15) . . .
228(15) . . .
222(15) . . .
234(15) . . .
208(14) . . .
249(16) . . .
232(15) . . .
229(15) . . .
229(15) . . .
224(15) . . .
201(14) . . .
244(16) . . .
201(14) . . .
236(15) . . .
215(15) . . .
209(14) . . .
225(15) . . .
202(14) . . .
219(15) . . .
212(15) . . .
227(15) . . .
212(15) . . .
215(15) . . .
244(16) . . .
232(15) . . .
227(15) . . .
213(15) . . .
224(15) . . .
234(15) . . .
205(14) . . .
227(15) . . .
215(15) . . .
212(15) . . .
221(15) . . .
218(15) . . .
213(15) . . .
220(15) . . .
228(15) . . .
241(16) . . .
226(15) . . .
223(15) . . .
204(14) . . .
226(15) . . .
236(15) . . .
219(15) . . .
226(15) . . .
221(15) . . .
209(14) . . .
224(15) . . .
240(15) . . .
224(15) . . .
250(16) . . .
215(15) . . .
203(14) . . .
216(15) . . .
213(15) . . .
206(14) . . .
226(15) . . .
213(15) . . .
199(14) . . .
211(15) . . .
194(14) . . .
206(14) . . .
223(15) . . .
219(15) . . .
227(15) . . .
241(16) . . .
236(15) . . .
201(14) . . .
222(15) . . .
221(15) . . .
237(15) . . .
217(15) . . .
236(15) . . .
225(15) . . .
209(14) . . .
233(15) . . .
210(14) . . .
249(16) . . .
237(15) . . .
207(14) . . .
206(14) . . .
214(15) . . .
230(15) . . .
238(15) . . .
232(15) . . .
213(15) . . .
211(15) . . .
214(15) . . .
219(15) . . .
231(15) . . .
241(16) . . .
238(15) . . .
231(15) . . .
220(15) . . .
233(15) . . .
211(15) . . .
201(14) . . .
224(15) . . .
212(15) . . .
222(15) . . .
186(14) . . .
219(15) . . .
224(15) . . .
228(15) . . .
229(15) . . .
207(14) . . .
223(15) . . .
208(14) . . .
241(16) . . .
232(15) . . .
216(15) . . .
220(15) . . .
215(15) . . .
217(15) . . .
234(15) . . .
211(15) . . .
227(15) . . .
219(15) . . .
197(14) . . .
228(15) . . .
212(15) . . .
219(15) . . .
203(14) . . .
216(15) . . .
259(16) . . .
211(15) . . .
226(15) . . .
243(16) . . .
205(14) . . .
226(15) . . .
232(15) . . .
201(14) . . .
190(14) . . .
214(15) . . .
191(14) . . .
210(14) . . .
214(15) . . .
218(15) . . .
215(15) . . .
227(15) . . .
211(15) . . .
223(15) . . .
238(15) . . .
218(15) . . .
195(14) . . .
224(15) . . .
208(14) . . .
224(15) . . .
198(14) . . .
233(15) . . .
238(15) . . .
245(16) . . .
205(14) . . .
224(15) . . .
221(15) . . .
209(14) . . .
211(15) . . .
230(15) . . .
226(15) . . .
199(14) . . .
221(15) . . .
211(15) . . .
213(15) . . .
222(15) . . .
238(15) . . .
223(15) . . .
236(15) . . .
220(15) . . .
236(15) . . .
246(16) . . .
229(15) . . .
219(15) . . .
226(15) . . .
240(15) . . .
217(15) . . .
219(15) . . .
227(15) . . .
236(15) . . .
243(16) . . .
221(15) . . .
209(14) . . .
234(15) . . .
234(15) . . .
228(15) . . .
221(15) . . .
237(15) . . .
224(15) . . .
254(16) . . .
258(16) . . .
223(15) . . .
239(15) . . .
256(16) . . .
223(15) . . .
225(15) . . .
257(16) . . .
237(15) . . .
230(15) . . .
235(15) . . .
256(16) . . .
231(15) . . .
236(15) . . .
218(15) . . .
245(16) . . .
243(16) . . .
239(15) . . .
250(16) . . .
227(15) . . .
216(15) . . .
230(15) . . .
241(16) . . .
230(15) . . .
229(15) . . .
233(15) . . .
228(15) . . .
226(15) . . .
225(15) . . .
244(16) . . .
239(15) . . .
257(16) . . .
252(16) . . .
234(15) . . .
252(16) . . .
246(16) . . .
229(15) . . .
251(16) . . .
208(14) . . .
218(15) . . .
219(15) . . .
230(15) . . .
223(15) . . .
259(16) . . .
243(16) . . .
236(15) . . .
230(15) . . .
209(14) . . .
232(15) . . .
213(15) . . .
215(15) . . .
226(15) . . .
229(15) . . .
232(15) . . .
222(15) . . .
233(15) . . .
231(15) . . .
204(14) . . .
225(15) . . .
228(15) . . .
230(15) . . .
241(16) . . .
231(15) . . .
236(15) . . .
275(17) . . .
231(15) . . .
227(15) . . .
234(15) . . .
253(16) . . .
237(15) . . .
216(15) . . .
229(15) . . .
236(15) . . .
240(15) . . .
242(16) . . .
218(15) . . .
244(16) . . .
230(15) . . .
213(15) . . .
226(15) . . .
219(15) . . .
228(15) . . .
238(15) . . .
240(15) . . .
218(15) . . .
214(15) . . .
224(15) . . .
228(15) . . .
239(15) . . .
224(15) . . .
228(15) . . .
208(14) . . .
236(15) . . .
242(16) . . .
217(15) . . .
245(16) . . .
248(16) . . .
249(16) . . .
235(15) . . .
211(15) . . .
230(15) . . .
240(15) . . .
225(15) . . .
229(15) . . .
234(15) . . .
223(15) . . .
228(15) . . .
239(15) . . .
209(14) . . .
220(15) . . .
224(15) . . .
227(15) . . .
209(14) . . .
213(15) . . .
222(15) . . .
213(15) . . .
209(14) . . .
221(15) . . .
225(15) . . .
217(15) . . .
229(15) . . .
221(15) . . .
213(15) . . .
252(16) . . .
231(15) . . .
214(15) . . .
226(15) . . .
227(15) . . .
217(15) . . .
233(15) . . .
222(15) . . .
233(15) . . .
202(14) . . .
215(15) . . .
218(15) . . .
236(15) . . .
243(16) . . .
235(15) . . .
228(15) . . .
211(15) . . .
223(15) . . .
226(15) . . .
232(15) . . .
231(15) . . .
234(15) . . .
237(15) . . .
220(15) . . .
258(16) . . .
227(15) . . .
237(15) . . .
226(15) . . .
230(15) . . .
231(15) . . .
252(16) . . .
206(14) . . .
233(15) . . .
221(15) . . .
219(15) . . .
233(15) . . .
240(15) . . .
228(15) . . .
230(15) . . .
217(15) . . .
223(15) . . .
222(15) . . .
216(15) . . .
233(15) . . .
249(16) . . .
238(15) . . .
236(15) . . .
228(15) . . .
244(16) . . .
228(15) . . .
210(14) . . .
252(16) . . .
230(15) . . .
238(15) . . .
225(15) . . .
236(15) . . .
228(15) . . .
210(14) . . .
224(15) . . .
234(15) . . .
238(15) . . .
193(14) . . .
216(15) . . .
225(15) . . .
234(15) . . .
225(15) . . .
231(15) . . .
222(15) . . .
221(15) . . .
219(15) . . .
198(14) . . .
203(14) . . .
210(14) . . .
215(15) . . .
212(15) . . .
199(14) . . .
231(15) . . .
215(15) . . .
244(16) . . .
235(15) . . .
240(15) . . .
229(15) . . .
239(15) . . .
247(16) . . .
212(15) . . .
210(14) . . .
234(15) . . .
228(15) . . .
251(16) . . .
216(15) . . .
239(15) . . .
247(16) . . .
212(15) . . .
227(15) . . .
229(15) . . .
204(14) . . .
245(16) . . .
245(16) . . .
233(15) . . .
229(15) . . .
229(15) . . .
211(15) . . .
219(15) . . .
213(15) . . .
234(15) . . .
234(15) . . .
258(16) . . .
235(15) . . .
228(15) . . .
226(15) . . .
201(14) . . .
231(15) . . .
218(15) . . .
232(15) . . .
216(15) . . .
247(16) . . .
235(15) . . .
235(15) . . .
229(15) . . .
219(15) . . .
226(15) . . .
222(15) . . .
220(15) . . .
223(15) . . .
229(15) . . .
238(15) . . .
233(15) . . .
253(16) . . .
231(15) . . .
228(15) . . .
241(16) . . .
226(15) . . .
242(16) . . .
211(15) . . .
253(16) . . .
232(15) . . .
235(15) . . .
259(16) . . .
242(16) . . .
254(16) . . .
222(15) . . .
240(15) . . .
231(15) . . .
248(16) . . .
240(15) . . .
223(15) . . .
259(16) . . .
259(16) . . .
226(15) . . .
225(15) . . .
248(16) . . .
223(15) . . .
234(15) . . .
235(15) . . .
245(16) . . .
226(15) . . .
228(15) . . .
220(15) . . .
258(16) . . .
220(15) . . .
220(15) . . .
209(14) . . .
206(14) . . .
228(15) . . .
211(15) . . .
214(15) . . .
233(15) . . .
240(15) . . .
243(16) . . .
246(16) . . .
247(16) . . .
241(16) . . .
252(16) . . .
250(16) . . .
233(15) . . .
231(15) . . .
225(15) . . .
253(16) . . .
244(16) . . .
248(16) . . .
204(14) . . .
250(16) . . .
245(16) . . .
209(14) . . .
234(15) . . .
229(15) . . .
255(16) . . .
220(15) . . .
234(15) . . .
217(15) . . .
244(16) . . .
216(15) . . .
226(15) . . .
237(15) . . .
224(15) . . .
212(15) . . .
227(15) . . .
216(15) . . .
223(15) . . .
227(15) . . .
202(14) . . .
226(15) . . .
212(15) . . .
223(15) . . .
247(16) . . .
226(15) . . .
211(15) . . .
227(15) . . .
225(15) . . .
239(15) . . .
249(16) . . .
229(15) . . .
231(15) . . .
248(16) . . .
249(16) . . .
252(16) . . .
246(16) . . .
249(16) . . .
233(15) . . .
247(16) . . .
249(16) . . .
234(15) . . .
259(16) . . .
240(15) . . .
230(15) . . .
227(15) . . .
232(15) . . .
216(15) . . .
221(15) . . .
225(15) . . .
226(15) . . .
229(15) . . .
219(15) . . .
240(15) . . .
235(15) . . .
211(15) . . .
211(15) . . .
220(15) . . .
238(15) . . .
229(15) . . .
246(16) . . .
227(15) . . .
235(15) . . .
261(16) . . .
241(16) . . .
242(16) . . .
230(15) . . .
226(15) . . .
225(15) . . .
240(15) . . .
235(15) . . .
260(16) . . .
212(15) . . .
230(15) . . .
237(15) . . .
245(16) . . .
223(15) . . .
233(15) . . .
228(15) . . .
234(15) . . .
228(15) . . .
259(16) . . .
240(15) . . .
234(15) . . .
236(15) . . .
227(15) . . .
242(16) . . .
234(15) . . .
245(16) . . .
250(16) . . .
247(16) . . .
212(15) . . .
235(15) . . .
212(15) . . .
223(15) . . .
228(15) . . .
231(15) . . .
232(15) . . .
223(15) . . .
232(15) . . .
272(16) . . .
214(15) . . .
229(15) . . .
216(15) . . .
225(15) . . .
229(15) . . .
263(16) . . .
237(15) . . .
234(15) . . .
240(15) . . .
221(15) . . .
231(15) . . .
225(15) . . .
228(15) . . .
238(15) . . .
227(15) . . .
234(15) . . .
267(16) . . .
219(15) . . .
186(14) . . .
269(16) . . .
243(16) . . .
242(16) . . .
234(15) . . .
259(16) . . .
276(17) . . .
248(16) . . .
245(16) . . .
225(15) . . .
242(16) . . .
228(15) . . .
237(15) . . .
221(15) . . .
245(16) . . .
220(15) . . .
240(15) . . .
251(16) . . .
254(16) . . .
250(16) . . .
241(16) . . .
235(15) . . .
227(15) . . .
255(16) . . .
239(15) . . .
208(14) . . .
253(16) . . .
254(16) . . .
233(15) . . .
238(15) . . .
248(16) . . .
222(15) . . .
260(16) . . .
232(15) . . .
255(16) . . .
243(16) . . .
242(16) . . .
245(16) . . .
275(17) . . .
264(16) . . .
255(16) . . .
242(16) . . .
240(15) . . .
243(16) . . .
255(16) . . .
226(15) . . .
253(16) . . .
254(16) . . .
236(15) . . .
249(16) . . .
236(15) . . .
264(16) . . .
268(16) . . .
210(14) . . .
284(17) . . .
268(16) . . .
246(16) . . .
266(16) . . .
257(16) . . .
274(17) . . .
261(16) . . .
269(16) . . .
272(16) . . .
265(16) . . .
278(17) . . .
250(16) . . .
277(17) . . .
254(16) . . .
250(16) . . .
286(17) . . .
274(17) . . .
264(16) . . .
254(16) . . .
234(15) . . .
285(17) . . .
279(17) . . .
274(17) . . .
251(16) . . .
272(16) . . .
285(17) . . .
273(17) . . .
290(17) . . .
294(17) . . .
284(17) . . .
304(17) . . .
282(17) . . .
275(17) . . .
286(17) . . .
294(17) . . .
289(17) . . .
289(17) . . .
326(18) . . .
283(17) . . .
290(17) . . .
294(17) . . .
287(17) . . .
285(17) . . .
294(17) . . .
312(18) . . .
293(17) . . .
302(17) . . .
302(17) . . .
322(18) . . .
336(18) . . .
285(17) . . .
306(17) . . .
341(18) . . .
321(18) . . .
319(18) . . .
333(18) . . .
340(18) . . .
334(18) . . .
326(18) . . .
330(18) . . .
345(19) . . .
381(20) . . .
374(19) . . .
350(19) . . .
333(18) . . .
353(19) . . .
375(19) . . .
392(20) . . .
398(20) . . .
404(20) . . .
403(20) . . .
417(20) . . .
413(20) . . .
417(20) . . .
416(20) . . .
426(21) . . .
453(21) . . .
466(22) . . .
496(22) . . .
466(22) . . .
496(22) . . .
459(21) . . .
524(23) . . .
525(23) . . .
528(23) . . .
563(24) . . .
622(25) . . .
602(25) . . .
634(25) . . .
672(26) . . .
687(26) . . .
650(25) . . .
702(26) . . .
740(27) . . .
785(28) . . .
771(28) . . .
836(29) . . .
877(30) . . .
912(30) . . .
954(31) . . .
999(32) . . .
1054(32) . . .
1121(33) . . .
1221(35) . . .
1271(36) . . .
1328(36) . . .
1379(37) . . .
1488(39) . . .
1533(39) . . .
1635(40) . . .
1804(42) . . .
1861(43) . . .
2063(45) . . .
2186(47) . . .
2324(48) . . .
2558(51) . . .
2713(52) . . .
2986(55) . . .
3177(56) . . .
3566(60) . . .
3776(61) . . .
4192(65) . . .
4581(68) . . .
5069(71) . . .
5500(74) . . .
6176(79) . . .
6749(82) . . .
7447(86) . . .
8304(91) . . .
9002(95) . . .
9575(98) . . .
10270(100) . . .
10860(100) . . .
11220(110) . . .
11900(110) . . .
12170(110) . . .
12480(110) . . .
12600(110) . . .
12540(110) . . .
12200(110) . . .
11970(110) . . .
11530(110) . . .
10930(110) . . .
10410(100) . . .
9500(97) . . .
8967(95) . . .
8037(90) . . .
7274(85) . . .
6506(81) . . .
6075(78) . . .
5561(75) . . .
5034(71) . . .
4500(67) . . .
4183(65) . . .
3738(61) . . .
3410(58) . . .
3106(56) . . .
2951(54) . . .
2658(52) . . .
2388(49) . . .
2298(48) . . .
2012(45) . . .
1876(43) . . .
1727(42) . . .
1612(40) . . .
1595(40) . . .
1455(38) . . .
1301(36) . . .
1300(36) . . .
1229(35) . . .
1189(34) . . .
1066(33) . . .
1012(32) . . .
1005(32) . . .
944(31) . . .
882(30) . . .
872(30) . . .
805(28) . . .
756(27) . . .
779(28) . . .
708(27) . . .
723(27) . . .
626(25) . . .
610(25) . . .
601(25) . . .
611(25) . . .
583(24) . . .
574(24) . . .
513(23) . . .
545(23) . . .
512(23) . . .
482(22) . . .
437(21) . . .
493(22) . . .
478(22) . . .
451(21) . . .
457(21) . . .
450(21) . . .
447(21) . . .
421(21) . . .
397(20) . . .
383(20) . . .
422(21) . . .
403(20) . . .
401(20) . . .
386(20) . . .
381(20) . . .
380(19) . . .
387(20) . . .
330(18) . . .
349(19) . . .
351(19) . . .
347(19) . . .
349(19) . . .
332(18) . . .
307(18) . . .
318(18) . . .
332(18) . . .
338(18) . . .
325(18) . . .
314(18) . . .
312(18) . . .
321(18) . . .
301(17) . . .
349(19) . . .
325(18) . . .
309(18) . . .
310(18) . . .
280(17) . . .
286(17) . . .
283(17) . . .
296(17) . . .
296(17) . . .
290(17) . . .
274(17) . . .
271(16) . . .
288(17) . . .
287(17) . . .
266(16) . . .
266(16) . . .
283(17) . . .
287(17) . . .
274(17) . . .
266(16) . . .
281(17) . . .
289(17) . . .
272(16) . . .
281(17) . . .
275(17) . . .
268(16) . . .
257(16) . . .
253(16) . . .
259(16) . . .
268(16) . . .
259(16) . . .
264(16) . . .
272(16) . . .
261(16) . . .
302(17) . . .
250(16) . . .
270(16) . . .
247(16) . . .
272(16) . . .
279(17) . . .
258(16) . . .
251(16) . . .
274(17) . . .
263(16) . . .
253(16) . . .
243(16) . . .
273(17) . . .
250(16) . . .
241(16) . . .
251(16) . . .
234(15) . . .
248(16) . . .
264(16) . . .
262(16) . . .
249(16) . . .
248(16) . . .
267(16) . . .
266(16) . . .
237(15) . . .
237(15) . . .
247(16) . . .
258(16) . . .
259(16) . . .
248(16) . . .
270(16) . . .
255(16) . . .
242(16) . . .
267(16) . . .
261(16) . . .
249(16) . . .
236(15) . . .
268(16) . . .
264(16) . . .
258(16) . . .
251(16) . . .
264(16) . . .
256(16) . . .
269(16) . . .
252(16) . . .
237(15) . . .
231(15) . . .
254(16) . . .
236(15) . . .
240(15) . . .
233(15) . . .
263(16) . . .
237(15) . . .
225(15) . . .
247(16) . . .
232(15) . . .
232(15) . . .
241(16) . . .
234(15) . . .
259(16) . . .
267(16) . . .
265(16) . . .
230(15) . . .
221(15) . . .
230(15) . . .
245(16) . . .
231(15) . . .
254(16) . . .
244(16) . . .
252(16) . . .
239(15) . . .
236(15) . . .
257(16) . . .
255(16) . . .
252(16) . . .
272(16) . . .
242(16) . . .
250(16) . . .
250(16) . . .
284(17) . . .
254(16) . . .
245(16) . . .
260(16) . . .
230(15) . . .
243(16) . . .
253(16) . . .
273(17) . . .
237(15) . . .
262(16) . . .
271(16) . . .
257(16) . . .
251(16) . . .
279(17) . . .
242(16) . . .
247(16) . . .
252(16) . . .
231(15) . . .
242(16) . . .
277(17) . . .
287(17) . . .
300(17) . . .
270(16) . . .
287(17) . . .
258(16) . . .
293(17) . . .
282(17) . . .
282(17) . . .
266(16) . . .
295(17) . . .
296(17) . . .
308(18) . . .
295(17) . . .
301(17) . . .
298(17) . . .
327(18) . . .
329(18) . . .
322(18) . . .
327(18) . . .
332(18) . . .
322(18) . . .
306(17) . . .
312(18) . . .
327(18) . . .
324(18) . . .
376(19) . . .
363(19) . . .
367(19) . . .
382(20) . . .
357(19) . . .
419(20) . . .
383(20) . . .
393(20) . . .
425(21) . . .
404(20) . . .
439(21) . . .
422(21) . . .
445(21) . . .
510(23) . . .
469(22) . . .
485(22) . . .
508(23) . . .
527(23) . . .
546(23) . . .
582(24) . . .
579(24) . . .
605(25) . . .
706(27) . . .
690(26) . . .
671(26) . . .
765(28) . . .
779(28) . . .
839(29) . . .
910(30) . . .
937(31) . . .
1004(32) . . .
1021(32) . . .
1153(34) . . .
1132(34) . . .
1298(36) . . .
1324(36) . . .
1443(38) . . .
1635(40) . . .
1722(41) . . .
1862(43) . . .
2024(45) . . .
2202(47) . . .
2465(50) . . .
2609(51) . . .
2876(54) . . .
3179(56) . . .
3417(58) . . .
3850(62) . . .
4254(65) . . .
4519(67) . . .
5000(71) . . .
5209(72) . . .
5606(75) . . .
5829(76) . . .
6022(78) . . .
6251(79) . . .
6154(78) . . .
6267(79) . . .
6144(78) . . .
5923(77) . . .
5760(76) . . .
5464(74) . . .
5248(72) . . .
5028(71) . . .
4571(68) . . .
4211(65) . . .
3985(63) . . .
3639(60) . . .
3452(59) . . .
3158(56) . . .
2821(53) . . .
2548(50) . . .
2261(48) . . .
2069(45) . . .
1926(44) . . .
1729(42) . . .
1659(41) . . .
1462(38) . . .
1356(37) . . .
1269(36) . . .
1202(35) . . .
1105(33) . . .
1004(32) . . .
997(32) . . .
923(30) . . .
872(30) . . .
815(29) . . .
776(28) . . .
696(26) . . .
719(27) . . .
700(26) . . .
649(25) . . .
613(25) . . .
592(24) . . .
574(24) . . .
548(23) . . .
510(23) . . .
490(22) . . .
458(21) . . .
476(22) . . .
480(22) . . .
444(21) . . .
448(21) . . .
382(20) . . .
386(20) . . .
375(19) . . .
370(19) . . .
364(19) . . .
372(19) . . .
388(20) . . .
348(19) . . .
359(19) . . .
329(18) . . .
373(19) . . .
335(18) . . .
322(18) . . .
307(18) . . .
302(17) . . .
298(17) . . .
293(17) . . .
322(18) . . .
311(18) . . .
295(17) . . .
294(17) . . .
295(17) . . .
283(17) . . .
277(17) . . .
281(17) . . .
293(17) . . .
271(16) . . .
286(17) . . .
281(17) . . .
255(16) . . .
286(17) . . .
273(17) . . .
256(16) . . .
280(17) . . .
261(16) . . .
244(16) . . .
279(17) . . .
262(16) . . .
279(17) . . .
264(16) . . .
262(16) . . .
262(16) . . .
249(16) . . .
283(17) . . .
255(16) . . .
228(15) . . .
244(16) . . .
235(15) . . .
249(16) . . .
247(16) . . .
236(15) . . .
252(16) . . .
250(16) . . .
225(15) . . .
239(15) . . .
253(16) . . .
222(15) . . .
240(15) . . .
229(15) . . .
240(15) . . .
231(15) . . .
214(15) . . .
253(16) . . .
228(15) . . .
238(15) . . .
263(16) . . .
244(16) . . .
224(15) . . .
243(16) . . .
257(16) . . .
249(16) . . .
213(15) . . .
215(15) . . .
213(15) . . .
234(15) . . .
224(15) . . .
244(16) . . .
217(15) . . .
242(16) . . .
230(15) . . .
232(15) . . .
241(16) . . .
246(16) . . .
241(16) . . .
222(15) . . .
230(15) . . .
203(14) . . .
217(15) . . .
216(15) . . .
235(15) . . .
219(15) . . .
200(14) . . .
227(15) . . .
200(14) . . .
223(15) . . .
221(15) . . .
233(15) . . .
214(15) . . .
229(15) . . .
225(15) . . .
213(15) . . .
219(15) . . .
210(14) . . .
229(15) . . .
228(15) . . .
231(15) . . .
193(14) . . .
197(14) . . .
217(15) . . .
202(14) . . .
206(14) . . .
224(15) . . .
234(15) . . .
195(14) . . .
229(15) . . .
206(14) . . .
234(15) . . .
233(15) . . .
208(14) . . .
208(14) . . .
208(14) . . .
233(15) . . .
214(15) . . .
220(15) . . .
195(14) . . .
209(14) . . .
204(14) . . .
203(14) . . .
220(15) . . .
241(16) . . .
234(15) . . .
205(14) . . .
199(14) . . .
201(14) . . .
223(15) . . .
217(15) . . .
223(15) . . .
221(15) . . .
210(14) . . .
194(14) . . .
191(14) . . .
221(15) . . .
182(13) . . .
199(14) . . .
214(15) . . .
202(14) . . .
192(14) . . .
220(15) . . .
200(14) . . .
229(15) . . .
206(14) . . .
197(14) . . .
234(15) . . .
221(15) . . .
185(14) . . .
195(14) . . .
218(15) . . .
216(15) . . .
196(14) . . .
213(15) . . .
206(14) . . .
197(14) . . .
205(14) . . .
208(14) . . .
228(15) . . .
218(15) . . .
245(16) . . .
228(15) . . .
228(15) . . .
205(14) . . .
201(14) . . .
198(14) . . .
200(14) . . .
217(15) . . .
231(15) . . .
216(15) . . .
238(15) . . .
201(14) . . .
223(15) . . .
227(15) . . .
203(14) . . .
198(14) . . .
200(14) . . .
185(14) . . .
219(15) . . .
201(14) . . .
212(15) . . .
206(14) . . .
213(15) . . .
203(14) . . .
224(15) . . .
223(15) . . .
201(14) . . .
217(15) . . .
181(13) . . .
200(14) . . .
211(15) . . .
221(15) . . .
226(15) . . .
215(15) . . .
213(15) . . .
226(15) . . .
210(14) . . .
224(15) . . .
213(15) . . .
222(15) . . .
207(14) . . .
201(14) . . .
192(14) . . .
195(14) . . .
212(15) . . .
203(14) . . .
208(14) . . .
205(14) . . .
206(14) . . .
214(15) . . .
209(14) . . .
219(15) . . .
200(14) . . .
205(14) . . .
205(14) . . .
201(14) . . .
197(14) . . .
223(15) . . .
205(14) . . .
211(15) . . .
218(15) . . .
222(15) . . .
207(14) . . .
197(14) . . .
208(14) . . .
199(14) . . .
215(15) . . .
195(14) . . .
203(14) . . .
220(15) . . .
226(15) . . .
216(15) . . .
206(14) . . .
199(14) . . .
223(15) . . .
226(15) . . .
216(15) . . .
195(14) . . .
209(14) . . .
214(15) . . .
215(15) . . .
212(15) . . .
207(14) . . .
198(14) . . .
214(15) . . .
219(15) . . .
233(15) . . .
213(15) . . .
210(14) . . .
197(14) . . .
202(14) . . .
203(14) . . .
234(15) . . .
214(15) . . .
221(15) . . .
205(14) . . .
205(14) . . .
213(15) . . .
211(15) . . .
202(14) . . .
203(14) . . .
226(15) . . .
200(14) . . .
233(15) . . .
218(15) . . .
195(14) . . .
219(15) . . .
219(15) . . .
205(14) . . .
206(14) . . .
214(15) . . .
210(14) . . .
218(15) . . .
217(15) . . .
224(15) . . .
206(14) . . .
213(15) . . .
220(15) . . .
218(15) . . .
195(14) . . .
202(14) . . .
210(14) . . .
195(14) . . .
226(15) . . .
231(15) . . .
213(15) . . .
200(14) . . .
195(14) . . .
214(15) . . .
216(15) . . .
206(14) . . .
212(15) . . .
205(14) . . .
228(15) . . .
217(15) . . .
208(14) . . .
223(15) . . .
203(14) . . .
210(14) . . .
215(15) . . .
194(14) . . .
199(14) . . .
233(15) . . .
203(14) . . .
206(14) . . .
236(15) . . .
223(15) . . .
205(14) . . .
212(15) . . .
204(14) . . .
228(15) . . .
201(14) . . .
182(13) . . .
228(15) . . .
214(15) . . .
204(14) . . .
193(14) . . .
214(15) . . .
197(14) . . .
197(14) . . .
210(14) . . .
226(15) . . .
205(14) . . .
210(14) . . .
238(15) . . .
201(14) . . .
222(15) . . .
192(14) . . .
200(14) . . .
218(15) . . .
223(15) . . .
200(14) . . .
208(14) . . .
228(15) . . .
228(15) . . .
198(14) . . .
209(14) . . .
219(15) . . .
211(15) . . .
199(14) . . .
218(15) . . .
191(14) . . .
190(14) . . .
197(14) . . .
217(15) . . .
198(14) . . .
198(14) . . .
204(14) . . .
201(14) . . .
195(14) . . .
181(13) . . .
233(15) . . .
205(14) . . .
236(15) . . .
209(14) . . .
189(14) . . .
219(15) . . .
198(14) . . .
196(14) . . .
210(14) . . .
202(14) . . .
203(14) . . .
200(14) . . .
190(14) . . .
195(14) . . .
208(14) . . .
212(15) . . .
216(15) . . .
194(14) . . .
232(15) . . .
194(14) . . .
202(14) . . .
218(15) . . .
197(14) . . .
196(14) . . .
191(14) . . .
204(14) . . .
195(14) . . .
198(14) . . .
207(14) . . .
208(14) . . .
189(14) . . .
206(14) . . .
205(14) . . .
202(14) . . .
215(15) . . .
192(14) . . .
199(14) . . .
228(15) . . .
208(14) . . .
200(14) . . .
202(14) . . .
213(15) . . .
224(15) . . .
198(14) . . .
209(14) . . .
214(15) . . .
224(15) . . .
204(14) . . .
203(14) . . .
182(13) . . .
192(14) . . .
195(14) . . .
197(14) . . .
209(14) . . .
203(14) . . .
210(14) . . .
217(15) . . .
202(14) . . .
208(14) . . .
200(14) . . .
199(14) . . .
201(14) . . .
212(15) . . .
190(14) . . .
206(14) . . .
225(15) . . .
225(15) . . .
211(15) . . .
182(13) . . .
205(14) . . .
227(15) . . .
202(14) . . .
204(14) . . .
187(14) . . .
185(14) . . .
209(14) . . .
186(14) . . .
196(14) . . .
197(14) . . .
215(15) . . .
197(14) . . .
204(14) . . .
216(15) . . .
224(15) . . .
207(14) . . .
208(14) . . .
185(14) . . .
212(15) . . .
202(14) . . .
199(14) . . .
174(13) . . .
208(14) . . .
220(15) . . .
210(14) . . .
204(14) . . .
204(14) . . .
202(14) . . .
181(13) . . .
208(14) . . .
214(15) . . .
193(14) . . .
189(14) . . .
218(15) . . .
202(14) . . .
208(14) . . .
220(15) . . .
207(14) . . .
199(14) . . .
201(14) . . .
164(13) . . .
178(13) . . .
202(14) . . .
208(14) . . .
183(14) . . .
222(15) . . .
234(15) . . .
217(15) . . .
226(15) . . .
200(14) . . .
207(14) . . .
208(14) . . .
216(15) . . .
211(15) . . .
204(14) . . .
208(14) . . .
208(14) . . .
208(14) . . .
223(15) . . .
215(15) . . .
195(14) . . .
190(14) . . .
211(15) . . .
215(15) . . .
203(14) . . .
190(14) . . .
191(14) . . .
195(14) . . .
232(15) . . .
206(14) . . .
199(14) . . .
208(14) . . .
204(14) . . .
217(15) . . .
199(14) . . .
191(14) . . .
189(14) . . .
195(14) . . .
211(15) . . .
204(14) . . .
209(14) . . .
194(14) . . .
177(13) . . .
203(14) . . .
207(14) . . .
203(14) . . .
210(14) . . .
206(14) . . .
206(14) . . .
190(14) . . .
228(15) . . .
213(15) . . .
218(15) . . .
187(14) . . .
220(15) . . .
212(15) . . .
211(15) . . .
203(14) . . .
218(15) . . .
243(16) . . .
189(14) . . .
209(14) . . .
208(14) . . .
210(14) . . .
186(14) . . .
206(14) . . .
190(14) . . .
222(15) . . .
208(14) . . .
182(13) . . .
187(14) . . .
203(14) . . .
199(14) . . .
200(14) . . .
198(14) . . .
190(14) . . .
206(14) . . .
198(14) . . .
191(14) . . .
184(14) . . .
194(14) . . .
196(14) . . .
198(14) . . .
206(14) . . .
174(13) . . .
222(15) . . .
214(15) . . .
189(14) . . .
195(14) . . .
204(14) . . .
194(14) . . .
155(12) . . .
195(14) . . .
224(15) . . .
196(14) . . .
205(14) . . .
197(14) . . .
211(15) . . .
196(14) . . .
185(14) . . .
201(14) . . .
206(14) . . .
207(14) . . .
182(13) . . .
187(14) . . .
208(14) . . .
233(15) . . .
189(14) . . .
217(15) . . .
191(14) . . .
199(14) . . .
183(14) . . .
199(14) . . .
202(14) . . .
185(14) . . .
220(15) . . .
215(15) . . .
213(15) . . .
206(14) . . .
202(14) . . .
207(14) . . .
227(15) . . .
209(14) . . .
190(14) . . .
186(14) . . .
219(15) . . .
221(15) . . .
213(15) . . .
204(14) . . .
215(15) . . .
196(14) . . .
215(15) . . .
237(15) . . .
200(14) . . .
216(15) . . .
213(15) . . .
204(14) . . .
209(14) . . .
228(15) . . .
209(14) . . .
207(14) . . .
184(14) . . .
221(15) . . .
207(14) . . .
207(14) . . .
202(14) . . .
195(14) . . .
197(14) . . .
229(15) . . .
185(14) . . .
221(15) . . .
187(14) . . .
189(14) . . .
211(15) . . .
181(13) . . .
206(14) . . .
218(15) . . .
196(14) . . .
206(14) . . .
201(14) . . .
205(14) . . .
201(14) . . .
178(13) . . .
183(14) . . .
192(14) . . .
197(14) . . .
207(14) . . .
208(14) . . .
185(14) . . .
182(13) . . .
178(13) . . .
189(14) . . .
186(14) . . .
211(15) . . .
210(14) . . .
191(14) . . .
195(14) . . .
192(14) . . .
212(15) . . .
196(14) . . .
190(14) . . .
194(14) . . .
216(15) . . .
210(14) . . .
200(14) . . .
204(14) . . .
219(15) . . .
202(14) . . .
214(15) . . .
189(14) . . .
217(15) . . .
204(14) . . .
185(14) . . .
190(14) . . .
206(14) . . .
209(14) . . .
202(14) . . .
186(14) . . .
203(14) . . .
185(14) . . .
215(15) . . .
212(15) . . .
216(15) . . .
217(15) . . .
184(14) . . .
206(14) . . .
210(14) . . .
189(14) . . .
180(13) . . .
198(14) . . .
195(14) . . .
199(14) . . .
206(14) . . .
200(14) . . .
186(14) . . .
191(14) . . .
205(14) . . .
220(15) . . .
198(14) . . .
214(15) . . .
187(14) . . .
206(14) . . .
198(14) . . .
217(15) . . .
211(15) . . .
216(15) . . .
211(15) . . .
195(14) . . .
194(14) . . .
205(14) . . .
195(14) . . .
187(14) . . .
210(14) . . .
215(15) . . .
189(14) . . .
195(14) . . .
189(14) . . .
205(14) . . .
204(14) . . .
205(14) . . .
197(14) . . .
216(15) . . .
210(14) . . .
211(15) . . .
236(15) . . .
205(14) . . .
220(15) . . .
205(14) . . .
230(15) . . .
223(15) . . .
211(15) . . .
199(14) . . .
195(14) . . .
192(14) . . .
207(14) . . .
218(15) . . .
188(14) . . .
217(15) . . .
204(14) . . .
200(14) . . .
246(16) . . .
225(15) . . .
201(14) . . .
214(15) . . .
210(14) . . .
193(14) . . .
206(14) . . .
206(14) . . .
218(15) . . .
207(14) . . .
212(15) . . .
211(15) . . .
190(14) . . .
248(16) . . .
213(15) . . .
224(15) . . .
210(14) . . .
215(15) . . .
233(15) . . .
223(15) . . .
207(14) . . .
223(15) . . .
227(15) . . .
198(14) . . .
192(14) . . .
228(15) . . .
202(14) . . .
208(14) . . .
189(14) . . .
204(14) . . .
209(14) . . .
243(16) . . .
204(14) . . .
222(15) . . .
232(15) . . .
227(15) . . .
223(15) . . .
194(14) . . .
203(14) . . .
220(15) . . .
234(15) . . .
216(15) . . .
220(15) . . .
219(15) . . .
195(14) . . .
198(14) . . .
201(14) . . .
210(14) . . .
226(15) . . .
227(15) . . .
206(14) . . .
213(15) . . .
202(14) . . .
217(15) . . .
213(15) . . .
223(15) . . .
200(14) . . .
201(14) . . .
206(14) . . .
192(14) . . .
192(14) . . .
208(14) . . .
198(14) . . .
206(14) . . .
204(14) . . .
203(14) . . .
201(14) . . .
204(14) . . .
208(14) . . .
211(15) . . .
220(15) . . .
192(14) . . .
192(14) . . .
200(14) . . .
200(14) . . .
208(14) . . .
203(14) . . .
226(15) . . .
203(14) . . .
223(15) . . .
212(15) . . .
191(14) . . .
203(14) . . .
195(14) . . .
198(14) . . .
192(14) . . .
200(14) . . .
195(14) . . .
210(14) . . .
213(15) . . .
198(14) . . .
193(14) . . .
213(15) . . .
195(14) . . .
199(14) . . .
197(14) . . .
210(14) . . .
183(14) . . .
199(14) . . .
184(14) . . .
189(14) . . .
209(14) . . .
199(14) . . .
199(14) . . .
205(14) . . .
200(14) . . .
186(14) . . .
213(15) . . .
199(14) . . .
205(14) . . .
220(15) . . .
206(14) . . .
202(14) . . .
214(15) . . .
178(13) . . .
197(14) . . .
232(15) . . .
213(15) . . .
192(14) . . .
224(15) . . .
186(14) . . .
200(14) . . .
201(14) . . .
208(14) . . .
204(14) . . .
215(15) . . .
203(14) . . .
196(14) . . .
201(14) . . .
186(14) . . .
228(15) . . .
205(14) . . .
211(15) . . .
209(14) . . .
210(14) . . .
184(14) . . .
200(14) . . .
194(14) . . .
188(14) . . .
201(14) . . .
214(15) . . .
232(15) . . .
228(15) . . .
203(14) . . .
218(15) . . .
220(15) . . .
211(15) . . .
205(14) . . .
192(14) . . .
207(14) . . .
211(15) . . .
200(14) . . .
204(14) . . .
208(14) . . .
224(15) . . .
203(14) . . .
200(14) . . .
207(14) . . .
207(14) . . .
225(15) . . .
220(15) . . .
203(14) . . .
213(15) . . .
214(15) . . .
197(14) . . .
188(14) . . .
219(15) . . .
196(14) . . .
218(15) . . .
213(15) . . .
208(14) . . .
188(14) . . .
202(14) . . .
215(15) . . .
179(13) . . .
213(15) . . .
184(14) . . .
177(13) . . .
213(15) . . .
191(14) . . .
219(15) . . .
182(13) . . .
203(14) . . .
203(14) . . .
209(14) . . .
192(14) . . .
197(14) . . .
210(14) . . .
221(15) . . .
222(15) . . .
196(14) . . .
200(14) . . .
211(15) . . .
188(14) . . .
206(14) . . .
217(15) . . .
212(15) . . .
219(15) . . .
193(14) . . .
203(14) . . .
196(14) . . .
232(15) . . .
229(15) . . .
225(15) . . .
210(14) . . .
193(14) . . .
207(14) . . .
218(15) . . .
193(14) . . .
203(14) . . .
195(14) . . .
209(14) . . .
202(14) . . .
221(15) . . .
197(14) . . .
183(14) . . .
193(14) . . .
188(14) . . .
222(15) . . .
202(14) . . .
201(14) . . .
212(15) . . .
234(15) . . .
202(14) . . .
199(14) . . .
184(14) . . .
208(14) . . .
188(14) . . .
229(15) . . .
198(14) . . .
221(15) . . .
216(15) . . .
222(15) . . .
212(15) . . .
192(14) . . .
209(14) . . .
199(14) . . .
221(15) . . .
217(15) . . .
216(15) . . .
246(16) . . .
197(14) . . .
212(15) . . .
208(14) . . .
205(14) . . .
212(15) . . .
203(14) . . .
216(15) . . .
197(14) . . .
201(14) . . .
208(14) . . .
200(14) . . .
191(14) . . .
175(13) . . .
208(14) . . .
234(15) . . .
237(15) . . .
209(14) . . .
197(14) . . .
196(14) . . .
202(14) . . .
193(14) . . .
209(14) . . .
195(14) . . .
208(14) . . .
190(14) . . .
186(14) . . .
211(15) . . .
224(15) . . .
218(15) . . .
225(15) . . .
229(15) . . .
210(14) . . .
227(15) . . .
210(14) . . .
215(15) . . .
211(15) . . .
212(15) . . .
204(14) . . .
215(15) . . .
208(14) . . .
199(14) . . .
231(15) . . .
201(14) . . .
203(14) . . .
207(14) . . .
208(14) . . .
217(15) . . .
207(14) . . .
202(14) . . .
203(14) . . .
217(15) . . .
213(15) . . .
211(15) . . .
214(15) . . .
185(14) . . .
218(15) . . .
228(15) . . .
215(15) . . .
220(15) . . .
204(14) . . .
209(14) . . .
187(14) . . .
208(14) . . .
215(15) . . .
216(15) . . .
232(15) . . .
191(14) . . .
190(14) . . .
205(14) . . .
200(14) . . .
187(14) . . .
217(15) . . .
206(14) . . .
216(15) . . .
196(14) . . .
220(15) . . .
217(15) . . .
223(15) . . .
216(15) . . .
236(15) . . .
223(15) . . .
223(15) . . .
213(15) . . .
233(15) . . .
223(15) . . .
224(15) . . .
243(16) . . .
188(14) . . .
231(15) . . .
225(15) . . .
243(16) . . .
243(16) . . .
227(15) . . .
223(15) . . .
238(15) . . .
204(14) . . .
227(15) . . .
221(15) . . .
237(15) . . .
243(16) . . .
242(16) . . .
221(15) . . .
220(15) . . .
244(16) . . .
235(15) . . .
243(16) . . .
253(16) . . .
249(16) . . .
223(15) . . .
252(16) . . .
254(16) . . .
263(16) . . .
265(16) . . .
255(16) . . .
269(16) . . .
230(15) . . .
258(16) . . .
255(16) . . .
259(16) . . .
267(16) . . .
270(16) . . .
243(16) . . .
260(16) . . .
280(17) . . .
289(17) . . .
283(17) . . .
265(16) . . .
284(17) . . .
302(17) . . .
270(16) . . .
305(17) . . .
287(17) . . .
291(17) . . .
308(18) . . .
297(17) . . .
310(18) . . .
339(18) . . .
331(18) . . .
316(18) . . .
305(17) . . .
327(18) . . .
343(19) . . .
329(18) . . .
340(18) . . .
368(19) . . .
378(19) . . .
356(19) . . .
371(19) . . .
390(20) . . .
402(20) . . .
417(20) . . .
406(20) . . .
454(21) . . .
462(21) . . .
470(22) . . .
470(22) . . .
484(22) . . .
497(22) . . .
530(23) . . .
516(23) . . .
536(23) . . .
587(24) . . .
627(25) . . .
599(24) . . .
615(25) . . .
657(26) . . .
665(26) . . .
730(27) . . .
780(28) . . .
829(29) . . .
825(29) . . .
858(29) . . .
927(30) . . .
939(31) . . .
1045(32) . . .
1067(33) . . .
1136(34) . . .
1228(35) . . .
1295(36) . . .
1408(38) . . .
1463(38) . . .
1568(40) . . .
1721(41) . . .
1806(42) . . .
2048(45) . . .
2174(47) . . .
2337(48) . . .
2422(49) . . .
2749(52) . . .
3013(55) . . .
3268(57) . . .
3577(60) . . .
3599(60) . . .
4054(64) . . .
4465(67) . . .
4699(69) . . .
5027(71) . . .
5341(73) . . .
5458(74) . . .
5657(75) . . .
5987(77) . . .
6085(78) . . .
6304(79) . . .
6179(79) . . .
6229(79) . . .
6248(79) . . .
5991(77) . . .
5863(77) . . .
5695(75) . . .
5440(74) . . .
5330(73) . . .
5026(71) . . .
4687(68) . . .
4403(66) . . .
4058(64) . . .
3786(62) . . .
3522(59) . . .
3328(58) . . .
2979(55) . . .
2751(52) . . .
2463(50) . . .
2419(49) . . .
2132(46) . . .
1946(44) . . .
1798(42) . . .
1746(42) . . .
1542(39) . . .
1443(38) . . .
1354(37) . . .
1312(36) . . .
1211(35) . . .
1077(33) . . .
1119(33) . . .
1043(32) . . .
947(31) . . .
910(30) . . .
862(29) . . .
833(29) . . .
740(27) . . .
765(28) . . .
678(26) . . .
649(25) . . .
643(25) . . .
602(25) . . .
603(25) . . .
543(23) . . .
519(23) . . .
495(22) . . .
483(22) . . .
491(22) . . .
475(22) . . .
454(21) . . .
443(21) . . .
439(21) . . .
415(20) . . .
441(21) . . .
405(20) . . .
404(20) . . .
390(20) . . .
410(20) . . .
384(20) . . .
379(19) . . .
357(19) . . .
349(19) . . .
356(19) . . .
334(18) . . .
320(18) . . .
319(18) . . .
313(18) . . .
325(18) . . .
312(18) . . .
294(17) . . .
300(17) . . .
313(18) . . .
272(16) . . .
302(17) . . .
293(17) . . .
277(17) . . .
285(17) . . .
275(17) . . .
294(17) . . .
274(17) . . .
268(16) . . .
293(17) . . .
262(16) . . .
255(16) . . .
251(16) . . .
274(17) . . .
243(16) . . .
262(16) . . .
247(16) . . .
251(16) . . .
246(16) . . .
220(15) . . .
236(15) . . .
238(15) . . .
245(16) . . .
236(15) . . .
227(15) . . .
229(15) . . .
227(15) . . .
234(15) . . .
243(16) . . .
224(15) . . .
234(15) . . .
226(15) . . .
236(15) . . .
217(15) . . .
236(15) . . .
229(15) . . .
215(15) . . .
243(16) . . .
236(15) . . .
241(16) . . .
239(15) . . .
194(14) . . .
229(15) . . .
244(16) . . .
214(15) . . .
209(14) . . .
231(15) . . .
224(15) . . .
214(15) . . .
211(15) . . .
231(15) . . .
214(15) . . .
220(15) . . .
206(14) . . .
214(15) . . .
223(15) . . .
207(14) . . .
235(15) . . .
199(14) . . .
206(14) . . .
187(14) . . .
200(14) . . .
218(15) . . .
189(14) . . .
215(15) . . .
193(14) . . .
220(15) . . .
214(15) . . .
202(14) . . .
217(15) . . .
220(15) . . .
193(14) . . .
221(15) . . .
223(15) . . .
218(15) . . .
221(15) . . .
204(14) . . .
222(15) . . .
204(14) . . .
209(14) . . .
200(14) . . .
202(14) . . .
201(14) . . .
213(15) . . .
221(15) . . .
190(14) . . .
216(15) . . .
203(14) . . .
193(14) . . .
187(14) . . .
204(14) . . .
191(14) . . .
209(14) . . .
212(15) . . .
185(14) . . .
203(14) . . .
198(14) . . .
198(14) . . .
209(14) . . .
198(14) . . .
177(13) . . .
188(14) . . .
184(14) . . .
192(14) . . .
179(13) . . .
187(14) . . .
190(14) . . .
186(14) . . .
190(14) . . .
225(15) . . .
196(14) . . .
203(14) . . .
206(14) . . .
199(14) . . .
197(14) . . .
195(14) . . .
181(13) . . .
190(14) . . .
191(14) . . .
182(13) . . .
211(15) . . .
184(14) . . .
200(14) . . .
189(14) . . .
196(14) . . .
188(14) . . .
205(14) . . .
183(14) . . .
195(14) . . .
170(13) . . .
213(15) . . .
183(14) . . .
183(14) . . .
181(13) . . .
181(13) . . .
191(14) . . .
189(14) . . .
193(14) . . .
199(14) . . .
202(14) . . .
179(13) . . .
202(14) . . .
200(14) . . .
195(14) . . .
175(13) . . .
183(14) . . .
185(14) . . .
180(13) . . .
207(14) . . .
189(14) . . .
204(14) . . .
195(14) . . .
193(14) . . .
205(14) . . .
194(14) . . .
186(14) . . .
202(14) . . .
192(14) . . .
196(14) . . .
183(14) . . .
189(14) . . .
209(14) . . .
199(14) . . .
210(14) . . .
198(14) . . .
186(14) . . .
197(14) . . .
202(14) . . .
189(14) . . .
199(14) . . .
202(14) . . .
188(14) . . .
210(14) . . .
209(14) . . .
218(15) . . .
198(14) . . .
206(14) . . .
171(13) . . .
184(14) . . .
179(13) . . .
198(14) . . .
189(14) . . .
194(14) . . .
202(14) . . .
198(14) . . .
190(14) . . .
204(14) . . .
205(14) . . .
178(13) . . .
209(14) . . .
192(14) . . .
174(13) . . .
192(14) . . .
190(14) . . .
197(14) . . .
196(14) . . .
192(14) . . .
204(14) . . .
184(14) . . .
192(14) . . .
215(15) . . .
199(14) . . .
192(14) . . .
197(14) . . .
205(14) . . .
204(14) . . .
190(14) . . .
179(13) . . .
200(14) . . .
189(14) . . .
205(14) . . .
184(14) . . .
192(14) . . .
187(14) . . .
205(14) . . .
177(13) . . .
183(14) . . .
186(14) . . .
179(13) . . .
180(13) . . .
153(12) . . .
172(13) . . .
181(13) . . .
172(13) . . .
183(14) . . .
203(14) . . .
172(13) . . .
194(14) . . .
190(14) . . .
183(14) . . .
189(14) . . .
180(13) . . .
188(14) . . .
189(14) . . .
184(14) . . .
201(14) . . .
177(13) . . .
178(13) . . .
194(14) . . .
182(13) . . .
185(14) . . .
186(14) . . .
204(14) . . .
191(14) . . .
201(14) . . .
195(14) . . .
176(13) . . .
176(13) . . .
218(15) . . .
197(14) . . .
193(14) . . .
186(14) . . .
191(14) . . .
176(13) . . .
186(14) . . .
187(14) . . .
173(13) . . .
192(14) . . .
166(13) . . .
188(14) . . .
201(14) . . .
170(13) . . .
177(13) . . .
179(13) . . .
177(13) . . .
184(14) . . .
190(14) . . .
186(14) . . .
193(14) . . .
172(13) . . .
171(13) . . .
194(14) . . .
191(14) . . .
189(14) . . .
183(14) . . .
182(13) . . .
194(14) . . .
210(14) . . .
188(14) . . .
177(13) . . .
183(14) . . .
196(14) . . .
189(14) . . .
180(13) . . .
173(13) . . .
189(14) . . .
197(14) . . .
189(14) . . .
195(14) . . .
182(13) . . .
189(14) . . .
176(13) . . .
180(13) . . .
188(14) . . .
200(14) . . .
188(14) . . .
186(14) . . .
183(14) . . .
198(14) . . .
186(14) . . .
185(14) . . .
183(14) . . .
180(13) . . .
186(14) . . .
191(14) . . .
191(14) . . .
210(14) . . .
179(13) . . .
182(13) . . .
183(14) . . .
164(13) . . .
194(14) . . .
188(14) . . .
191(14) . . .
185(14) . . .
184(14) . . .
172(13) . . .
196(14) . . .
202(14) . . .
186(14) . . .
179(13) . . .
190(14) . . .
193(14) . . .
203(14) . . .
190(14) . . .
183(14) . . .
196(14) . . .
188(14) . . .
191(14) . . .
183(14) . . .
168(13) . . .
195(14) . . .
186(14) . . .
167(13) . . .
191(14) . . .
171(13) . . .
188(14) . . .
183(14) . . .
191(14) . . .
196(14) . . .
190(14) . . .
184(14) . . .
207(14) . . .
187(14) . . .
184(14) . . .
191(14) . . .
180(13) . . .
173(13) . . .
196(14) . . .
176(13) . . .
196(14) . . .
192(14) . . .
183(14) . . .
185(14) . . .
194(14) . . .
192(14) . . .
178(13) . . .
188(14) . . .
192(14) . . .
187(14) . . .
172(13) . . .
181(13) . . .
179(13) . . .
179(13) . . .
163(13) . . .
190(14) . . .
171(13) . . .
168(13) . . .
166(13) . . .
201(14) . . .
160(13) . . .
188(14) . . .
210(14) . . .
175(13) . . .
190(14) . . .
185(14) . . .
197(14) . . .
160(13) . . .
180(13) . . .
191(14) . . .
176(13) . . .
201(14) . . .
173(13) . . .
178(13) . . .
161(13) . . .
170(13) . . .
184(14) . . .
186(14) . . .
173(13) . . .
190(14) . . .
206(14) . . .
174(13) . . .
184(14) . . .
171(13) . . .
185(14) . . .
187(14) . . .
175(13) . . .
183(14) . . .
193(14) . . .
161(13) . . .
198(14) . . .
175(13) . . .
180(13) . . .
186(14) . . .
183(14) . . .
187(14) . . .
170(13) . . .
196(14) . . .
197(14) . . .
186(14) . . .
172(13) . . .
186(14) . . .
179(13) . . .
194(14) . . .
183(14) . . .
175(13) . . .
179(13) . . .
173(13) . . .
181(13) . . .
153(12) . . .
183(14) . . .
191(14) . . .
200(14) . . .
203(14) . . .
197(14) . . .
194(14) . . .
165(13) . . .
183(14) . . .
177(13) . . .
185(14) . . .
196(14) . . .
181(13) . . .
166(13) . . .
176(13) . . .
185(14) . . .
205(14) . . .
179(13) . . .
177(13) . . .
190(14) . . .
189(14) . . .
175(13) . . .
165(13) . . .
199(14) . . .
177(13) . . .
191(14) . . .
162(13) . . .
169(13) . . .
214(15) . . .
172(13) . . .
184(14) . . .
200(14) . . .
192(14) . . .
164(13) . . .
193(14) . . .
173(13) . . .
172(13) . . .
195(14) . . .
182(13) . . .
182(13) . . .
169(13) . . .
204(14) . . .
181(13) . . .
195(14) . . .
172(13) . . .
192(14) . . .
178(13) . . .
190(14) . . .
174(13) . . .
201(14) . . .
196(14) . . .
187(14) . . .
199(14) . . .
194(14) . . .
199(14) . . .
186(14) . . .
202(14) . . .
182(13) . . .
193(14) . . .
182(13) . . .
179(13) . . .
179(13) . . .
190(14) . . .
201(14) . . .
190(14) . . .
171(13) . . .
197(14) . . .
176(13) . . .
194(14) . . .
182(13) . . .
207(14) . . .
186(14) . . .
182(13) . . .
190(14) . . .
179(13) . . .
189(14) . . .
183(14) . . .
188(14) . . .
196(14) . . .
203(14) . . .
194(14) . . .
198(14) . . .
185(14) . . .
173(13) . . .
200(14) . . .
184(14) . . .
191(14) . . .
170(13) . . .
185(14) . . .
177(13) . . .
182(13) . . .
189(14) . . .
189(14) . . .
185(14) . . .
189(14) . . .
213(15) . . .
176(13) . . .
176(13) . . .
194(14) . . .
189(14) . . .
175(13) . . .
180(13) . . .
193(14) . . .
209(14) . . .
178(13) . . .
166(13) . . .
181(13) . . .
182(13) . . .
173(13) . . .
200(14) . . .
172(13) . . .
185(14) . . .
184(14) . . .
179(13) . . .
180(13) . . .
169(13) . . .
193(14) . . .
198(14) . . .
194(14) . . .
195(14) . . .
189(14) . . .
200(14) . . .
175(13) . . .
171(13) . . .
202(14) . . .
171(13) . . .
189(14) . . .
182(13) . . .
195(14) . . .
190(14) . . .
185(14) . . .
184(14) . . .
176(13) . . .
179(13) . . .
185(14) . . .
186(14) . . .
198(14) . . .
195(14) . . .
190(14) . . .
196(14) . . .
198(14) . . .
197(14) . . .
214(15) . . .
200(14) . . .
184(14) . . .
189(14) . . .
195(14) . . .
194(14) . . .
194(14) . . .
186(14) . . .
168(13) . . .
185(14) . . .
186(14) . . .
191(14) . . .
206(14) . . .
189(14) . . .
181(13) . . .
182(13) . . .
181(13) . . .
179(13) . . .
193(14) . . .
168(13) . . .
186(14) . . .
152(12) . . .
179(13) . . .
177(13) . . .
186(14) . . .
185(14) . . .
201(14) . . .
204(14) . . .
188(14) . . .
200(14) . . .
198(14) . . .
198(14) . . .
192(14) . . .
167(13) . . .
186(14) . . .
192(14) . . .
211(15) . . .
182(13) . . .
193(14) . . .
184(14) . . .
182(13) . . .
181(13) . . .
185(14) . . .
171(13) . . .
207(14) . . .
186(14) . . .
185(14) . . .
197(14) . . .
179(13) . . .
194(14) . . .
208(14) . . .
180(13) . . .
201(14) . . .
213(15) . . .
199(14) . . .
186(14) . . .
176(13) . . .
175(13) . . .
181(13) . . .
175(13) . . .
206(14) . . .
170(13) . . .
194(14) . . .
192(14) . . .
197(14) . . .
211(15) . . .
193(14) . . .
189(14) . . .
204(14) . . .
199(14) . . .
189(14) . . .
192(14) . . .
178(13) . . .
203(14) . . .
168(13) . . .
180(13) . . .
200(14) . . .
200(14) . . .
192(14) . . .
188(14) . . .
204(14) . . .
186(14) . . .
196(14) . . .
189(14) . . .
196(14) . . .
190(14) . . .
167(13) . . .
186(14) . . .
200(14) . . .
196(14) . . .
181(13) . . .
174(13) . . .
187(14) . . .
189(14) . . .
176(13) . . .
191(14) . . .
180(13) . . .
176(13) . . .
193(14) . . .
189(14) . . .
180(13) . . .
201(14) . . .
203(14) . . .
190(14) . . .
184(14) . . .
180(13) . . .
191(14) . . .
184(14) . . .
205(14) . . .
202(14) . . .
223(15) . . .
185(14) . . .
184(14) . . .
187(14) . . .
214(15) . . .
201(14) . . .
196(14) . . .
189(14) . . .
207(14) . . .
189(14) . . .
187(14) . . .
193(14) . . .
203(14) . . .
208(14) . . .
205(14) . . .
189(14) . . .
228(15) . . .
207(14) . . .
180(13) . . .
188(14) . . .
182(13) . . .
209(14) . . .
204(14) . . .
198(14) . . .
183(14) . . .
178(13) . . .
201(14) . . .
211(15) . . .
197(14) . . .
196(14) . . .
188(14) . . .
185(14) . . .
208(14) . . .
211(15) . . .
205(14) . . .
193(14) . . .
203(14) . . .
209(14) . . .
203(14) . . .
204(14) . . .
191(14) . . .
205(14) . . .
175(13) . . .
205(14) . . .
209(14) . . .
222(15) . . .
209(14) . . .
199(14) . . .
192(14) . . .
216(15) . . .
198(14) . . .
200(14) . . .
212(15) . . .
194(14) . . .
215(15) . . .
203(14) . . .
179(13) . . .
230(15) . . .
219(15) . . .
215(15) . . .
216(15) . . .
195(14) . . .
193(14) . . .
223(15) . . .
189(14) . . .
207(14) . . .
233(15) . . .
201(14) . . .
215(15) . . .
225(15) . . .
226(15) . . .
218(15) . . .
221(15) . . .
206(14) . . .
242(16) . . .
237(15) . . .
221(15) . . .
195(14) . . .
218(15) . . .
202(14) . . .
218(15) . . .
198(14) . . .
225(15) . . .
219(15) . . .
220(15) . . .
219(15) . . .
227(15) . . .
212(15) . . .
231(15) . . .
226(15) . . .
225(15) . . .
244(16) . . .
225(15) . . .
230(15) . . .
236(15) . . .
241(16) . . .
249(16) . . .
255(16) . . .
242(16) . . .
256(16) . . .
236(15) . . .
247(16) . . .
247(16) . . .
261(16) . . .
220(15) . . .
264(16) . . .
268(16) . . .
253(16) . . .
270(16) . . .
251(16) . . .
232(15) . . .
250(16) . . .
256(16) . . .
253(16) . . .
285(17) . . .
279(17) . . .
296(17) . . .
312(18) . . .
309(18) . . .
300(17) . . .
319(18) . . .
279(17) . . .
320(18) . . .
318(18) . . .
327(18) . . .
346(19) . . .
308(18) . . .
317(18) . . .
365(19) . . .
359(19) . . .
349(19) . . .
365(19) . . .
372(19) . . .
393(20) . . .
406(20) . . .
409(20) . . .
463(22) . . .
429(21) . . .
483(22) . . .
446(21) . . .
483(22) . . .
471(22) . . .
480(22) . . .
528(23) . . .
506(22) . . .
617(25) . . .
591(24) . . .
652(26) . . .
625(25) . . .
661(26) . . .
699(26) . . .
708(27) . . .
749(27) . . .
773(28) . . .
844(29) . . .
928(30) . . .
952(31) . . .
1012(32) . . .
1079(33) . . .
1137(34) . . .
1146(34) . . .
1315(36) . . .
1342(37) . . .
1492(39) . . .
1623(40) . . .
1710(41) . . .
1871(43) . . .
2071(46) . . .
2211(47) . . .
2400(49) . . .
2541(50) . . .
2814(53) . . .
3013(55) . . .
3283(57) . . .
3559(60) . . .
3721(61) . . .
3994(63) . . .
4180(65) . . .
4368(66) . . .
4655(68) . . .
4804(69) . . .
4761(69) . . .
4803(69) . . .
4839(70) . . .
4946(70) . . .
4895(70) . . .
4811(69) . . .
4839(70) . . .
4551(67) . . .
4392(66) . . .
4328(66) . . .
4002(63) . . .
3690(61) . . .
3522(59) . . .
3342(58) . . .
3044(55) . . .
2919(54) . . .
2600(51) . . .
2343(48) . . .
2232(47) . . .
2045(45) . . .
1864(43) . . .
1734(42) . . .
1604(40) . . .
1425(38) . . .
1377(37) . . .
1248(35) . . .
1120(33) . . .
1115(33) . . .
1068(33) . . .
1028(32) . . .
944(31) . . .
857(29) . . .
779(28) . . .
804(28) . . .
733(27) . . .
683(26) . . .
664(26) . . .
642(25) . . .
604(25) . . .
599(24) . . .
551(23) . . .
532(23) . . .
461(21) . . .
492(22) . . .
482(22) . . .
437(21) . . .
449(21) . . .
454(21) . . .
434(21) . . .
436(21) . . .
403(20) . . .
389(20) . . .
381(20) . . .
362(19) . . .
389(20) . . .
372(19) . . .
361(19) . . .
348(19) . . .
354(19) . . .
303(17) . . .
314(18) . . .
292(17) . . .
325(18) . . .
290(17) . . .
300(17) . . .
269(16) . . .
295(17) . . .
326(18) . . .
285(17) . . .
287(17) . . .
283(17) . . .
267(16) . . .
294(17) . . .
261(16) . . .
270(16) . . .
261(16) . . .
258(16) . . .
244(16) . . .
243(16) . . .
230(15) . . .
235(15) . . .
235(15) . . .
247(16) . . .
233(15) . . .
217(15) . . .
222(15) . . .
249(16) . . .
244(16) . . .
228(15) . . .
227(15) . . .
241(16) . . .
227(15) . . .
211(15) . . .
208(14) . . .
235(15) . . .
210(14) . . .
259(16) . . .
226(15) . . .
222(15) . . .
228(15) . . .
214(15) . . .
218(15) . . .
202(14) . . .
213(15) . . .
192(14) . . .
215(15) . . .
205(14) . . .
200(14) . . .
233(15) . . .
218(15) . . .
221(15) . . .
198(14) . . .
204(14) . . .
210(14) . . .
232(15) . . .
215(15) . . .
191(14) . . .
202(14) . . .
217(15) . . .
187(14) . . .
195(14) . . .
201(14) . . .
191(14) . . .
187(14) . . .
199(14) . . .
208(14) . . .
175(13) . . .
185(14) . . .
197(14) . . .
191(14) . . .
191(14) . . .
209(14) . . .
161(13) . . .
211(15) . . .
198(14) . . .
208(14) . . .
195(14) . . .
187(14) . . .
200(14) . . .
201(14) . . .
189(14) . . .
183(14) . . .
186(14) . . .
201(14) . . .
194(14) . . .
209(14) . . .
180(13) . . .
184(14) . . .
186(14) . . .
187(14) . . .
202(14) . . .
194(14) . . .
180(13) . . .
192(14) . . .
199(14) . . .
202(14) . . .
200(14) . . .
195(14) . . .
215(15) . . .
204(14) . . .
190(14) . . .
168(13) . . .
192(14) . . .
179(13) . . .
194(14) . . .
210(14) . . .
188(14) . . .
198(14) . . .
187(14) . . .
181(13) . . .
210(14) . . .
195(14) . . .
197(14) . . .
188(14) . . .
190(14) . . .
188(14) . . .
193(14) . . .
211(15) . . .
187(14) . . .
202(14) . . .
178(13) . . .
169(13) . . .
180(13) . . .
186(14) . . .
190(14) . . .
190(14) . . .
187(14) . . .
139(12) . . .
214(15) . . .
192(14) . . .
200(14) . . .
201(14) . . .
181(13) . . .
176(13) . . .
176(13) . . .
163(13) . . .
186(14) . . .
183(14) . . .
162(13) . . .
193(14) . . .
182(13) . . .
205(14) . . .
202(14) . . .
176(13) . . .
176(13) . . .
183(14) . . .
188(14) . . .
176(13) . . .
189(14) . . .
165(13) . . .
161(13) . . .
187(14) . . .
185(14) . . .
187(14) . . .
193(14) . . .
158(13) . . .
197(14) . . .
190(14) . . .
172(13) . . .
183(14) . . .
187(14) . . .
169(13) . . .
179(13) . . .
201(14) . . .
195(14) . . .
186(14) . . .
192(14) . . .
189(14) . . .
180(13) . . .
176(13) . . .
183(14) . . .
179(13) . . .
178(13) . . .
189(14) . . .
172(13) . . .
185(14) . . .
214(15) . . .
182(13) . . .
175(13) . . .
188(14) . . .
190(14) . . .
171(13) . . .
176(13) . . .
176(13) . . .
186(14) . . .
165(13) . . .
171(13) . . .
171(13) . . .
202(14) . . .
165(13) . . .
159(13) . . .
159(13) . . .
169(13) . . .
199(14) . . .
200(14) . . .
173(13) . . .
169(13) . . .
194(14) . . .
177(13) . . .
187(14) . . .
179(13) . . .
167(13) . . .
189(14) . . .
178(13) . . .
173(13) . . .
173(13) . . .
184(14) . . .
182(13) . . .
208(14) . . .
156(12) . . .
191(14) . . .
191(14) . . .
180(13) . . .
190(14) . . .
186(14) . . .
170(13) . . .
179(13) . . .
187(14) . . .
173(13) . . .
204(14) . . .
183(14) . . .
186(14) . . .
178(13) . . .
184(14) . . .
173(13) . . .
183(14) . . .
176(13) . . .
166(13) . . .
183(14) . . .
173(13) . . .
192(14) . . .
174(13) . . .
192(14) . . .
169(13) . . .
171(13) . . .
167(13) . . .
197(14) . . .
164(13) . . .
177(13) . . .
177(13) . . .
188(14) . . .
170(13) . . .
175(13) . . .
171(13) . . .
164(13) . . .
177(13) . . .
177(13) . . .
177(13) . . .
155(12) . . .
201(14) . . .
192(14) . . .
172(13) . . .
176(13) . . .
193(14) . . .
154(12) . . .
155(12) . . .
180(13) . . .
165(13) . . .
184(14) . . .
158(13) . . .
162(13) . . .
179(13) . . .
159(13) . . .
177(13) . . .
162(13) . . .
179(13) . . .
162(13) . . .
154(12) . . .
184(14) . . .
174(13) . . .
168(13) . . .
171(13) . . .
152(12) . . .
165(13) . . .
181(13) . . .
203(14) . . .
168(13) . . .
158(13) . . .
146(12) . . .
181(13) . . .
164(13) . . .
166(13) . . .
175(13) . . .
174(13) . . .
171(13) . . .
168(13) . . .
169(13) . . .
172(13) . . .
185(14) . . .
184(14) . . .
158(13) . . .
150(12) . . .
164(13) . . .
177(13) . . .
187(14) . . .
178(13) . . .
176(13) . . .
168(13) . . .
188(14) . . .
179(13) . . .
165(13) . . .
172(13) . . .
180(13) . . .
177(13) . . .
183(14) . . .
184(14) . . .
164(13) . . .
166(13) . . .
164(13) . . .
186(14) . . .
177(13) . . .
175(13) . . .
195(14) . . .
172(13) . . .
173(13) . . .
174(13) . . .
172(13) . . .
152(12) . . .
192(14) . . .
182(13) . . .
180(13) . . .
174(13) . . .
168(13) . . .
176(13) . . .
193(14) . . .
161(13) . . .
148(12) . . .
150(12) . . .
182(13) . . .
172(13) . . .
155(12) . . .
177(13) . . .
188(14) . . .
152(12) . . .
175(13) . . .
152(12) . . .
177(13) . . .
179(13) . . .
175(13) . . .
170(13) . . .
173(13) . . .
187(14) . . .
178(13) . . .
165(13) . . .
178(13) . . .
190(14) . . .
173(13) . . .
179(13) . . .
180(13) . . .
178(13) . . .
167(13) . . .
164(13) . . .
156(12) . . .
161(13) . . .
165(13) . . .
166(13) . . .
164(13) . . .
166(13) . . .
163(13) . . .
166(13) . . .
185(14) . . .
170(13) . . .
186(14) . . .
163(13) . . .
178(13) . . .
186(14) . . .
210(14) . . .
159(13) . . .
167(13) . . .
166(13) . . .
182(13) . . .
167(13) . . .
180(13) . . .
174(13) . . .
142(12) . . .
178(13) . . .
165(13) . . .
176(13) . . .
185(14) . . .
154(12) . . .
165(13) . . .
165(13) . . .
174(13) . . .
153(12) . . .
161(13) . . .
165(13) . . .
162(13) . . .
169(13) . . .
157(13) . . .
163(13) . . .
166(13) . . .
189(14) . . .
156(12) . . .
174(13) . . .
185(14) . . .
171(13) . . .
173(13) . . .
162(13) . . .
186(14) . . .
149(12) . . .
163(13) . . .
157(13) . . .
165(13) . . .
163(13) . . .
186(14) . . .
169(13) . . .
151(12) . . .
166(13) . . .
175(13) . . .
164(13) . . .
152(12) . . .
181(13) . . .
163(13) . . .
180(13) . . .
174(13) . . .
175(13) . . .
160(13) . . .
183(14) . . .
187(14) . . .
168(13) . . .
176(13) . . .
160(13) . . .
175(13) . . .
183(14) . . .
169(13) . . .
172(13) . . .
174(13) . . .
164(13) . . .
170(13) . . .
175(13) . . .
159(13) . . .
161(13) . . .
177(13) . . .
165(13) . . .
162(13) . . .
157(13) . . .
170(13) . . .
166(13) . . .
152(12) . . .
171(13) . . .
166(13) . . .
157(13) . . .
152(12) . . .
171(13) . . .
194(14) . . .
165(13) . . .
169(13) . . .
177(13) . . .
149(12) . . .
175(13) . . .
145(12) . . .
157(13) . . .
167(13) . . .
166(13) . . .
180(13) . . .
169(13) . . .
178(13) . . .
177(13) . . .
174(13) . . .
163(13) . . .
165(13) . . .
171(13) . . .
175(13) . . .
160(13) . . .
159(13) . . .
149(12) . . .
150(12) . . .
181(13) . . .
165(13) . . .
155(12) . . .
176(13) . . .
164(13) . . .
179(13) . . .
165(13) . . .
172(13) . . .
166(13) . . .
166(13) . . .
145(12) . . .
167(13) . . .
186(14) . . .
160(13) . . .
182(13) . . .
164(13) . . .
161(13) . . .
164(13) . . .
174(13) . . .
148(12) . . .
150(12) . . .
166(13) . . .
166(13) . . .
149(12) . . .
162(13) . . .
169(13) . . .
184(14) . . .
145(12) . . .
172(13) . . .
186(14) . . .
159(13) . . .
152(12) . . .
163(13) . . .
166(13) . . .
160(13) . . .
151(12) . . .
181(13) . . .
171(13) . . .
169(13) . . .
161(13) . . .
164(13) . . .
154(12) . . .
160(13) . . .
173(13) . . .
170(13) . . .
146(12) . . .
146(12) . . .
178(13) . . .
170(13) . . .
150(12) . . .
163(13) . . .
166(13) . . .
168(13) . . .
177(13) . . .
173(13) . . .
145(12) . . .
146(12) . . .
169(13) . . .
169(13) . . .
161(13) . . .
143(12) . . .
155(12) . . .
170(13) . . .
161(13) . . .
161(13) . . .
170(13) . . .
173(13) . . .
159(13) . . .
158(13) . . .
144(12) . . .
154(12) . . .
156(12) . . .
168(13) . . .
161(13) . . .
150(12) . . .
145(12) . . .
132(11) . . .
182(13) . . .
172(13) . . .
147(12) . . .
156(12) . . .
167(13) . . .
185(14) . . .
162(13) . . .
168(13) . . .
182(13) . . .
162(13) . . .
159(13) . . .
180(13) . . .
157(13) . . .
160(13) . . .
173(13) . . .
175(13) . . .
168(13) . . .
179(13) . . .
148(12) . . .
158(13) . . .
144(12) . . .
158(13) . . .
158(13) . . .
170(13) . . .
169(13) . . .
185(14) . . .
164(13) . . .
170(13) . . .
161(13) . . .
162(13) . . .
153(12) . . .
167(13) . . .
152(12) . . .
155(12) . . .
157(13) . . .
161(13) . . .
179(13) . . .
164(13) . . .
173(13) . . .
159(13) . . .
173(13) . . .
162(13) . . .
173(13) . . .
163(13) . . .
161(13) . . .
181(13) . . .
162(13) . . .
158(13) . . .
158(13) . . .
155(12) . . .
165(13) . . .
166(13) . . .
168(13) . . .
180(13) . . .
175(13) . . .
156(12) . . .
153(12) . . .
168(13) . . .
164(13) . . .
160(13) . . .
155(12) . . .
151(12) . . .
177(13) . . .
161(13) . . .
168(13) . . .
145(12) . . .
158(13) . . .
157(13) . . .
174(13) . . .
143(12) . . .
173(13) . . .
157(13) . . .
189(14) . . .
151(12) . . .
170(13) . . .
185(14) . . .
154(12) . . .
158(13) . . .
173(13) . . .
156(12) . . .
169(13) . . .
155(12) . . .
165(13) . . .
155(12) . . .
157(13) . . .
167(13) . . .
169(13) . . .
167(13) . . .
172(13) . . .
172(13) . . .
168(13) . . .
168(13) . . .
158(13) . . .
173(13) . . .
136(12) . . .
158(13) . . .
156(12) . . .
149(12) . . .
142(12) . . .
163(13) . . .
160(13) . . .
152(12) . . .
163(13) . . .
166(13) . . .
145(12) . . .
172(13) . . .
189(14) . . .
168(13) . . .
156(12) . . .
171(13) . . .
151(12) . . .
174(13) . . .
172(13) . . .
170(13) . . .
150(12) . . .
165(13) . . .
182(13) . . .
163(13) . . .
167(13) . . .
169(13) . . .
186(14) . . .
181(13) . . .
167(13) . . .
167(13) . . .
141(12) . . .
179(13) . . .
186(14) . . .
179(13) . . .
155(12) . . .
182(13) . . .
164(13) . . .
170(13) . . .
154(12) . . .
172(13) . . .
161(13) . . .
158(13) . . .
151(12) . . .
158(13) . . .
148(12) . . .
179(13) . . .
177(13) . . .
161(13) . . .
178(13) . . .
146(12) . . .
164(13) . . .
157(13) . . .
174(13) . . .
167(13) . . .
161(13) . . .
155(12) . . .
185(14) . . .
172(13) . . .
148(12) . . .
177(13) . . .
167(13) . . .
174(13) . . .
159(13) . . .
175(13) . . .
175(13) . . .
169(13) . . .
165(13) . . .
170(13) . . .
168(13) . . .
154(12) . . .
182(13) . . .
174(13) . . .
168(13) . . .
178(13) . . .
153(12) . . .
172(13) . . .
153(12) . . .
156(12) . . .
167(13) . . .
161(13) . . .
155(12) . . .
174(13) . . .
165(13) . . .
172(13) . . .
174(13) . . .
151(12) . . .
161(13) . . .
170(13) . . .
142(12) . . .
164(13) . . .
159(13) . . .
170(13) . . .
170(13) . . .
165(13) . . .
175(13) . . .
167(13) . . .
155(12) . . .
153(12) . . .
152(12) . . .
160(13) . . .
157(13) . . .
176(13) . . .
152(12) . . .
167(13) . . .
165(13) . . .
143(12) . . .
135(12) . . .
185(14) . . .
151(12) . . .
154(12) . . .
158(13) . . .
149(12) . . .
151(12) . . .
151(12) . . .
155(12) . . .
145(12) . . .
164(13) . . .
167(13) . . .
174(13) . . .
161(13) . . .
156(12) . . .
169(13) . . .
146(12) . . .
157(13) . . .
162(13) . . .
160(13) . . .
171(13) . . .
155(12) . . .
174(13) . . .
141(12) . . .
153(12) . . .
164(13) . . .
146(12) . . .
165(13) . . .
151(12) . . .
143(12) . . .
158(13) . . .
152(12) . . .
141(12) . . .
150(12) . . .
149(12) . . .
155(12) . . .
157(13) . . .
154(12) . . .
187(14) . . .
176(13) . . .
148(12) . . .
162(13) . . .
164(13) . . .
162(13) . . .
169(13) . . .
185(14) . . .
141(12) . . .
160(13) . . .
165(13) . . .
149(12) . . .
134(12) . . .
152(12) . . .
160(13) . . .
161(13) . . .
154(12) . . .
156(12) . . .
165(13) . . .
165(13) . . .
177(13) . . .
161(13) . . .
185(14) . . .
167(13) . . .
172(13) . . .
155(12) . . .
145(12) . . .
162(13) . . .
158(13) . . .
173(13) . . .
161(13) . . .
157(13) . . .
153(12) . . .
165(13) . . .
162(13) . . .
169(13) . . .
171(13) . . .
171(13) . . .
166(13) . . .
163(13) . . .
163(13) . . .
155(12) . . .
173(13) . . .
171(13) . . .
156(12) . . .
162(13) . . .
161(13) . . .
153(12) . . .
149(12) . . .
178(13) . . .
147(12) . . .
154(12) . . .
161(13) . . .
158(13) . . .
142(12) . . .
165(13) . . .
141(12) . . .
165(13) . . .
158(13) . . .
184(14) . . .
163(13) . . .
170(13) . . .
176(13) . . .
142(12) . . .
158(13) . . .
164(13) . . .
172(13) . . .
161(13) . . .
155(12) . . .
156(12) . . .
178(13) . . .
163(13) . . .
167(13) . . .
153(12) . . .
155(12) . . .
156(12) . . .
162(13) . . .
150(12) . . .
144(12) . . .
159(13) . . .
166(13) . . .
161(13) . . .
168(13) . . .
173(13) . . .
166(13) . . .
182(13) . . .
170(13) . . .
144(12) . . .
165(13) . . .
174(13) . . .
169(13) . . .
151(12) . . .
145(12) . . .
159(13) . . .
141(12) . . .
169(13) . . .
173(13) . . .
154(12) . . .
169(13) . . .
140(12) . . .
146(12) . . .
156(12) . . .
157(13) . . .
144(12) . . .
169(13) . . .
164(13) . . .
152(12) . . .
164(13) . . .
157(13) . . .
166(13) . . .
172(13) . . .
141(12) . . .
161(13) . . .
145(12) . . .
172(13) . . .
169(13) . . .
159(13) . . .
165(13) . . .
162(13) . . .
172(13) . . .
157(13) . . .
176(13) . . .
179(13) . . .
165(13) . . .
162(13) . . .
160(13) . . .
153(12) . . .
181(13) . . .
155(12) . . .
171(13) . . .
159(13) . . .
168(13) . . .
163(13) . . .
170(13) . . .
160(13) . . .
170(13) . . .
158(13) . . .
155(12) . . .
167(13) . . .
135(12) . . .
162(13) . . .
181(13) . . .
153(12) . . .
150(12) . . .
147(12) . . .
164(13) . . .
162(13) . . .
150(12) . . .
147(12) . . .
172(13) . . .
159(13) . . .
177(13) . . .
165(13) . . .
159(13) . . .
172(13) . . .
154(12) . . .
159(13) . . .
166(13) . . .
151(12) . . .
165(13) . . .
179(13) . . .
181(13) . . .
194(14) . . .
173(13) . . .
166(13) . . .
171(13) . . .
160(13) . . .
161(13) . . .
151(12) . . .
156(12) . . .
158(13) . . .
157(13) . . .
170(13) . . .
167(13) . . .
170(13) . . .
169(13) . . .
154(12) . . .
177(13) . . .
174(13) . . .
168(13) . . .
150(12) . . .
163(13) . . .
158(13) . . .
151(12) . . .
164(13) . . .
166(13) . . .
159(13) . . .
165(13) . . .
161(13) . . .
168(13) . . .
183(14) . . .
152(12) . . .
174(13) . . .
177(13) . . .
157(13) . . .
171(13) . . .
139(12) . . .
176(13) . . .
176(13) . . .
166(13) . . .
163(13) . . .
165(13) . . .
150(12) . . .
174(13) . . .
174(13) . . .
166(13) . . .
169(13) . . .
161(13) . . .
172(13) . . .
175(13) . . .
160(13) . . .
183(14) . . .
176(13) . . .
139(12) . . .
172(13) . . .
151(12) . . .
158(13) . . .
166(13) . . .
159(13) . . .
159(13) . . .
173(13) . . .
146(12) . . .
162(13) . . .
183(14) . . .
146(12) . . .
183(14) . . .
187(14) . . .
174(13) . . .
159(13) . . .
168(13) . . .
154(12) . . .
162(13) . . .
156(12) . . .
160(13) . . .
165(13) . . .
151(12) . . .
149(12) . . .
144(12) . . .
163(13) . . .
175(13) . . .
151(12) . . .
159(13) . . .
166(13) . . .
163(13) . . .
149(12) . . .
158(13) . . .
172(13) . . .
149(12) . . .
159(13) . . .
172(13) . . .
150(12) . . .
144(12) . . .
158(13) . . .
148(12) . . .
154(12) . . .
171(13) . . .
174(13) . . .
157(13) . . .
150(12) . . .
146(12) . . .
146(12) . . .
149(12) . . .
160(13) . . .
149(12) . . .
160(13) . . .
131(11) . . .
160(13) . . .
140(12) . . .
173(13) . . .
137(12) . . .
158(13) . . .
166(13) . . .
185(14) . . .
163(13) . . .
152(12) . . .
168(13) . . .
185(14) . . .
157(13) . . .
159(13) . . .
161(13) . . .
160(13) . . .
150(12) . . .
176(13) . . .
153(12) . . .
154(12) . . .
156(12) . . .
174(13) . . .
164(13) . . .
159(13) . . .
181(13) . . .
155(12) . . .
164(13) . . .
161(13) . . .
155(12) . . .
166(13) . . .
155(12) . . .
162(13) . . .
154(12) . . .
158(13) . . .
159(13) . . .
160(13) . . .
172(13) . . .
156(12) . . .
128(11) . . .
158(13) . . .
145(12) . . .
158(13) . . .
147(12) . . .
149(12) . . .
155(12) . . .
170(13) . . .
179(13) . . .
168(13) . . .
150(12) . . .
170(13) . . .
170(13) . . .
180(13) . . .
163(13) . . .
154(12) . . .
176(13) . . .
155(12) . . .
146(12) . . .
156(12) . . .
161(13) . . .
152(12) . . .
160(13) . . .
169(13) . . .
145(12) . . .
156(12) . . .
154(12) . . .
135(12) . . .
153(12) . . .
134(12) . . .
156(12) . . .
143(12) . . .
155(12) . . .
173(13) . . .
144(12) . . .
162(13) . . .
155(12) . . .
162(13) . . .
145(12) . . .
164(13) . . .
156(12) . . .
160(13) . . .
149(12) . . .
162(13) . . .
156(12) . . .
161(13) . . .
147(12) . . .
151(12) . . .
153(12) . . .
159(13) . . .
166(13) . . .
161(13) . . .
149(12) . . .
152(12) . . .
175(13) . . .
178(13) . . .
166(13) . . .
170(13) . . .
153(12) . . .
151(12) . . .
151(12) . . .
155(12) . . .
160(13) . . .
141(12) . . .
159(13) . . .
156(12) . . .
137(12) . . .
146(12) . . .
148(12) . . .
161(13) . . .
153(12) . . .
159(13) . . .
166(13) . . .
136(12) . . .
165(13) . . .
163(13) . . .
173(13) . . .
150(12) . . .
160(13) . . .
164(13) . . .
142(12) . . .
151(12) . . .
147(12) . . .
142(12) . . .
148(12) . . .
136(12) . . .
162(13) . . .
161(13) . . .
156(12) . . .
168(13) . . .
172(13) . . .
147(12) . . .
161(13) . . .
153(12) . . .
157(13) . . .
176(13) . . .
168(13) . . .
155(12) . . .
126(11) . . .
157(13) . . .
162(13) . . .
154(12) . . .
152(12) . . .
148(12) . . .
169(13) . . .
161(13) . . .
150(12) . . .
159(13) . . .
134(12) . . .
144(12) . . .
168(13) . . .
147(12) . . .
142(12) . . .
155(12) . . .
145(12) . . .
147(12) . . .
157(13) . . .
143(12) . . .
152(12) . . .
146(12) . . .
146(12) . . .
169(13) . . .
137(12) . . .
142(12) . . .
153(12) . . .
165(13) . . .
146(12) . . .
158(13) . . .
178(13) . . .
162(13) . . .
153(12) . . .
143(12) . . .
153(12) . . .
151(12) . . .
173(13) . . .
145(12) . . .
163(13) . . .
155(12) . . .
147(12) . . .
151(12) . . .
155(12) . . .
168(13) . . .
153(12) . . .
133(12) . . .
170(13) . . .
159(13) . . .
164(13) . . .
156(12) . . .
141(12) . . .
149(12) . . .
160(13) . . .
133(12) . . .
169(13) . . .
154(12) . . .
154(12) . . .
163(13) . . .
144(12) . . .
183(14) . . .
161(13) . . .
158(13) . . .
169(13) . . .
159(13) . . .
151(12) . . .
163(13) . . .
152(12) . . .
182(13) . . .
137(12) . . .
156(12) . . .
151(12) . . .
162(13) . . .
153(12) . . .
144(12) . . .
150(12) . . .
143(12) . . .
137(12) . . .
153(12) . . .
162(13) . . .
148(12) . . .
162(13) . . .
164(13) . . .
153(12) . . .
174(13) . . .
165(13) . . .
154(12) . . .
152(12) . . .
140(12) . . .
180(13) . . .
165(13) . . .
164(13) . . .
151(12) . . .
145(12) . . .
150(12) . . .
162(13) . . .
143(12) . . .
179(13) . . .
143(12) . . .
163(13) . . .
145(12) . . .
146(12) . . .
168(13) . . .
133(12) . . .
170(13) . . .
158(13) . . .
158(13) . . .
141(12) . . .
145(12) . . .
159(13) . . .
169(13) . . .
171(13) . . .
156(12) . . .
147(12) . . .
159(13) . . .
139(12) . . .
159(13) . . .
155(12) . . .
164(13) . . .
157(13) . . .
145(12) . . .
173(13) . . .
162(13) . . .
153(12) . . .
151(12) . . .
178(13) . . .
174(13) . . .
156(12) . . .
140(12) . . .
138(12) . . .
147(12) . . .
163(13) . . .
165(13) . . .
135(12) . . .
155(12) . . .
142(12) . . .
161(13) . . .
171(13) . . .
156(12) . . .
153(12) . . .
163(13) . . .
147(12) . . .
172(13) . . .
156(12) . . .
159(13) . . .
167(13) . . .
138(12) . . .
175(13) . . .
172(13) . . .
166(13) . . .
168(13) . . .
150(12) . . .
150(12) . . .
147(12) . . .
148(12) . . .
161(13) . . .
166(13) . . .
167(13) . . .
150(12) . . .
155(12) . . .
181(13) . . .
156(12) . . .
161(13) . . .
152(12) . . .
168(13) . . .
152(12) . . .
156(12) . . .
164(13) . . .
167(13) . . .
159(13) . . .
152(12) . . .
144(12) . . .
157(13) . . .
165(13) . . .
141(12) . . .
162(13) . . .
160(13) . . .
152(12) . . .
151(12) . . .
156(12) . . .
171(13) . . .
168(13) . . .
156(12) . . .
142(12) . . .
149(12) . . .
142(12) . . .
169(13) . . .
155(12) . . .
163(13) . . .
178(13) . . .
153(12) . . .
153(12) . . .
148(12) . . .
156(12) . . .
162(13) . . .
158(13) . . .
155(12) . . .
156(12) . . .
138(12) . . .
154(12) . . .
134(12) . . .
163(13) . . .
174(13) . . .
153(12) . . .
159(13) . . .
160(13) . . .
167(13) . . .
167(13) . . .
176(13) . . .
165(13) . . .
157(13) . . .
145(12) . . .
147(12) . . .
158(13) . . .
171(13) . . .
169(13) . . .
145(12) . . .
174(13) . . .
187(14) . . .
160(13) . . .
169(13) . . .
162(13) . . .
172(13) . . .
161(13) . . .
162(13) . . .
160(13) . . .
164(13) . . .
171(13) . . .
148(12) . . .
161(13) . . .
183(14) . . .
185(14) . . .
181(13) . . .
151(12) . . .
185(14) . . .
149(12) . . .
157(13) . . .
155(12) . . .
166(13) . . .
165(13) . . .
149(12) . . .
155(12) . . .
174(13) . . .
177(13) . . .
153(12) . . .
165(13) . . .
155(12) . . .
172(13) . . .
161(13) . . .
165(13) . . .
164(13) . . .
175(13) . . .
174(13) . . .
152(12) . . .
185(14) . . .
184(14) . . .
165(13) . . .
150(12) . . .
171(13) . . .
165(13) . . .
197(14) . . .
174(13) . . .
165(13) . . .
160(13) . . .
183(14) . . .
162(13) . . .
171(13) . . .
175(13) . . .
173(13) . . .
174(13) . . .
207(14) . . .
191(14) . . .
179(13) . . .
188(14) . . .
184(14) . . .
174(13) . . .
194(14) . . .
182(13) . . .
208(14) . . .
193(14) . . .
192(14) . . .
208(14) . . .
209(14) . . .
207(14) . . .
218(15) . . .
194(14) . . .
194(14) . . .
211(15) . . .
222(15) . . .
208(14) . . .
220(15) . . .
189(14) . . .
212(15) . . .
209(14) . . .
232(15) . . .
228(15) . . .
214(15) . . .
231(15) . . .
249(16) . . .
234(15) . . .
248(16) . . .
252(16) . . .
248(16) . . .
280(17) . . .
263(16) . . .
262(16) . . .
273(17) . . .
296(17) . . .
286(17) . . .
327(18) . . .
300(17) . . .
312(18) . . .
336(18) . . .
343(19) . . .
366(19) . . .
364(19) . . .
409(20) . . .
427(21) . . .
464(22) . . .
461(21) . . .
477(22) . . .
503(22) . . .
543(23) . . .
561(24) . . .
567(24) . . .
620(25) . . .
620(25) . . .
715(27) . . .
729(27) . . .
700(26) . . .
784(28) . . .
836(29) . . .
845(29) . . .
833(29) . . .
853(29) . . .
839(29) . . .
860(29) . . .
904(30) . . .
934(31) . . .
898(30) . . .
856(29) . . .
876(30) . . .
904(30) . . .
846(29) . . .
785(28) . . .
807(28) . . .
784(28) . . .
749(27) . . .
688(26) . . .
657(26) . . .
624(25) . . .
603(25) . . .
558(24) . . .
548(23) . . .
572(24) . . .
506(22) . . .
474(22) . . .
446(21) . . .
454(21) . . .
414(20) . . .
409(20) . . .
359(19) . . .
326(18) . . .
335(18) . . .
349(19) . . .
278(17) . . .
299(17) . . .
270(16) . . .
270(16) . . .
272(16) . . .
265(16) . . .
261(16) . . .
254(16) . . .
252(16) . . .
220(15) . . .
264(16) . . .
200(14) . . .
233(15) . . .
207(14) . . .
209(14) . . .
212(15) . . .
220(15) . . .
209(14) . . .
226(15) . . .
198(14) . . .
225(15) . . .
221(15) . . .
213(15) . . .
199(14) . . .
215(15) . . .
185(14) . . .
198(14) . . .
191(14) . . .
178(13) . . .
196(14) . . .
187(14) . . .
182(13) . . .
179(13) . . .
201(14) . . .
197(14) . . .
184(14) . . .
183(14) . . .
169(13) . . .
155(12) . . .
193(14) . . .
180(13) . . .
169(13) . . .
182(13) . . .
180(13) . . .
199(14) . . .
162(13) . . .
156(12) . . .
161(13) . . .
184(14) . . .
182(13) . . .
156(12) . . .
158(13) . . .
179(13) . . .
172(13) . . .
140(12) . . .
169(13) . . .
152(12) . . .
170(13) . . .
164(13) . . .
157(13) . . .
161(13) . . .
160(13) . . .
179(13) . . .
154(12) . . .
158(13) . . .
167(13) . . .
170(13) . . .
161(13) . . .
178(13) . . .
163(13) . . .
166(13) . . .
154(12) . . .
162(13) . . .
162(13) . . .
176(13) . . .
167(13) . . .
193(14) . . .
147(12) . . .
148(12) . . .
170(13) . . .
164(13) . . .
151(12) . . .
136(12) . . .
169(13) . . .
155(12) . . .
192(14) . . .
189(14) . . .
154(12) . . .
148(12) . . .
152(12) . . .
167(13) . . .
165(13) . . .
169(13) . . .
152(12) . . .
171(13) . . .
171(13) . . .
148(12) . . .
140(12) . . .
159(13) . . .
152(12) . . .
158(13) . . .
147(12) . . .
169(13) . . .
156(12) . . .
180(13) . . .
153(12) . . .
173(13) . . .
152(12) . . .
154(12) . . .
157(13) . . .
154(12) . . .
170(13) . . .
159(13) . . .
147(12) . . .
170(13) . . .
148(12) . . .
168(13) . . .
156(12) . . .
169(13) . . .
141(12) . . .
171(13) . . .
163(13) . . .
149(12) . . .
153(12) . . .
151(12) . . .
147(12) . . .
160(13) . . .
159(13) . . .
175(13) . . .
153(12) . . .
154(12) . . .
132(11) . . .
149(12) . . .
144(12) . . .
158(13) . . .
148(12) . . .
145(12) . . .
151(12) . . .
162(13) . . .
164(13) . . .
140(12) . . .
157(13) . . .
149(12) . . .
141(12) . . .
172(13) . . .
170(13) . . .
141(12) . . .
156(12) . . .
152(12) . . .
157(13) . . .
170(13) . . .
164(13) . . .
173(13) . . .
181(13) . . .
156(12) . . .
144(12) . . .
145(12) . . .
127(11) . . .
126(11) . . .
144(12) . . .
140(12) . . .
148(12) . . .
175(13) . . .
181(13) . . .
165(13) . . .
157(13) . . .
163(13) . . .
159(13) . . .
158(13) . . .
158(13) . . .
153(12) . . .
163(13) . . .
136(12) . . .
139(12) . . .
156(12) . . .
169(13) . . .
158(13) . . .
152(12) . . .
149(12) . . .
163(13) . . .
156(12) . . .
149(12) . . .
169(13) . . .
148(12) . . .
156(12) . . .
148(12) . . .
166(13) . . .
161(13) . . .
150(12) . . .
149(12) . . .
168(13) . . .
176(13) . . .
173(13) . . .
160(13) . . .
145(12) . . .
163(13) . . .
161(13) . . .
166(13) . . .
147(12) . . .
163(13) . . .
160(13) . . .
178(13) . . .
155(12) . . .
161(13) . . .
165(13) . . .
154(12) . . .
126(11) . . .
168(13) . . .
175(13) . . .
142(12) . . .
148(12) . . .
152(12) . . .
145(12) . . .
143(12) . . .
157(13) . . .
129(11) . . .
152(12) . . .
173(13) . . .
150(12) . . .
145(12) . . .
143(12) . . .
153(12) . . .
160(13) . . .
144(12) . . .
162(13) . . .
155(12) . . .
176(13) . . .
168(13) . . .
169(13) . . .
166(13) . . .
158(13) . . .
178(13) . . .
171(13) . . .
164(13) . . .
148(12) . . .
164(13) . . .
163(13) . . .
165(13) . . .
139(12) . . .
146(12) . . .
141(12) . . .
173(13) . . .
146(12) . . .
158(13) . . .
177(13) . . .
150(12) . . .
136(12) . . .
175(13) . . .
137(12) . . .
162(13) . . .
170(13) . . .
164(13) . . .
151(12) . . .
176(13) . . .
158(13) . . .
154(12) . . .
155(12) . . .
162(13) . . .
143(12) . . .
139(12) . . .
160(13) . . .
176(13) . . .
145(12) . . .
146(12) . . .
161(13) . . .
145(12) . . .
144(12) . . .
169(13) . . .
151(12) . . .
158(13) . . .
158(13) . . .
163(13) . . .
171(13) . . .
175(13) . . .
159(13) . . .
149(12) . . .
154(12) . . .
153(12) . . .
166(13) . . .
169(13) . . .
143(12) . . .
142(12) . . .
154(12) . . .
174(13) . . .
158(13) . . .
166(13) . . .
172(13) . . .
155(12) . . .
156(12) . . .
169(13) . . .
147(12) . . .
165(13) . . .
155(12) . . .
159(13) . . .
150(12) . . .
144(12) . . .
167(13) . . .
152(12) . . .
147(12) . . .
157(13) . . .
156(12) . . .
169(13) . . .
158(13) . . .
166(13) . . .
147(12) . . .
165(13) . . .
138(12) . . .
163(13) . . .
150(12) . . .
157(13) . . .
158(13) . . .
165(13) . . .
172(13) . . .
171(13) . . .
157(13) . . .
163(13) . . .
181(13) . . .
135(12) . . .
153(12) . . .
166(13) . . .
154(12) . . .
150(12) . . .
173(13) . . .
140(12) . . .
172(13) . . .
167(13) . . .
179(13) . . .
155(12) . . .
159(13) . . .
148(12) . . .
150(12) . . .
162(13) . . .
160(13) . . .
135(12) . . .
154(12) . . .
177(13) . . .
161(13) . . .
159(13) . . .
166(13) . . .
174(13) . . .
178(13) . . .
162(13) . . .
164(13) . . .
135(12) . . .
154(12) . . .
177(13) . . .
159(13) . . .
163(13) . . .
170(13) . . .
165(13) . . .
144(12) . . .
170(13) . . .
164(13) . . .
149(12) . . .
153(12) . . .
167(13) . . .
153(12) . . .
133(12) . . .
141(12) . . .
166(13) . . .
155(12) . . .
143(12) . . .
135(12) . . .
140(12) . . .
153(12) . . .
142(12) . . .
141(12) . . .
141(12) . . .
148(12) . . .
148(12) . . .
150(12) . . .
149(12) . . .
151(12) . . .
134(12) . . .
148(12) . . .
148(12) . . .
170(13) . . .
156(12) . . .
147(12) . . .
140(12) . . .
149(12) . . .
131(11) . . .
151(12) . . .
160(13) . . .
132(11) . . .
164(13) . . .
162(13) . . .
140(12) . . .
146(12) . . .
142(12) . . .
150(12) . . .
149(12) . . .
168(13) . . .
157(13) . . .
139(12) . . .
149(12) . . .
160(13) . . .
152(12) . . .
156(12) . . .
136(12) . . .
136(12) . . .
144(12) . . .
153(12) . . .
152(12) . . .
134(12) . . .
154(12) . . .
158(13) . . .
152(12) . . .
141(12) . . .
153(12) . . .
158(13) . . .
158(13) . . .
150(12) . . .
154(12) . . .
147(12) . . .
157(13) . . .
154(12) . . .
142(12) . . .
136(12) . . .
145(12) . . .
145(12) . . .
155(12) . . .
157(13) . . .
133(12) . . .
160(13) . . .
137(12) . . .
157(13) . . .
157(13) . . .
147(12) . . .
140(12) . . .
152(12) . . .
169(13) . . .
136(12) . . .
142(12) . . .
141(12) . . .
146(12) . . .
150(12) . . .
157(13) . . .
138(12) . . .
159(13) . . .
138(12) . . .
144(12) . . .
142(12) . . .
160(13) . . .
134(12) . . .
157(13) . . .
148(12) . . .
132(11) . . .
136(12) . . .
140(12) . . .
159(13) . . .
147(12) . . .
147(12) . . .
152(12) . . .
153(12) . . .
164(13) . . .
137(12) . . .
146(12) . . .
160(13) . . .
158(13) . . .
154(12) . . .
150(12) . . .
150(12) . . .
152(12) . . .
155(12) . . .
153(12) . . .
156(12) . . .
158(13) . . .
155(12) . . .
163(13) . . .
165(13) . . .
152(12) . . .
163(13) . . .
169(13) . . .
150(12) . . .
145(12) . . .
153(12) . . .
171(13) . . .
154(12) . . .
157(13) . . .
133(12) . . .
152(12) . . .
152(12) . . .
138(12) . . .
154(12) . . .
148(12) . . .
155(12) . . .
135(12) . . .
149(12) . . .
161(13) . . .
142(12) . . .
142(12) . . .
142(12) . . .
147(12) . . .
139(12) . . .
151(12) . . .
147(12) . . .
133(12) . . .
123(11) . . .
148(12) . . .
156(12) . . .
145(12) . . .
156(12) . . .
146(12) . . .
151(12) . . .
168(13) . . .
140(12) . . .
144(12) . . .
145(12) . . .
146(12) . . .
160(13) . . .
173(13) . . .
165(13) . . .
140(12) . . .
138(12) . . .
145(12) . . .
141(12) . . .
154(12) . . .
144(12) . . .
144(12) . . .
149(12) . . .
136(12) . . .
157(13) . . .
159(13) . . .
132(11) . . .
148(12) . . .
156(12) . . .
149(12) . . .
157(13) . . .
156(12) . . .
139(12) . . .
153(12) . . .
154(12) . . .
153(12) . . .
135(12) . . .
144(12) . . .
144(12) . . .
164(13) . . .
151(12) . . .
144(12) . . .
167(13) . . .
153(12) . . .
144(12) . . .
135(12) . . .
138(12) . . .
146(12) . . .
154(12) . . .
135(12) . . .
137(12) . . .
137(12) . . .
159(13) . . .
143(12) . . .
156(12) . . .
147(12) . . .
160(13) . . .
163(13) . . .
141(12) . . .
165(13) . . .
134(12) . . .
153(12) . . .
157(13) . . .
164(13) . . .
128(11) . . .
152(12) . . .
153(12) . . .
136(12) . . .
154(12) . . .
155(12) . . .
159(13) . . .
144(12) . . .
142(12) . . .
143(12) . . .
148(12) . . .
134(12) . . .
129(11) . . .
153(12) . . .
155(12) . . .
152(12) . . .
160(13) . . .
156(12) . . .
161(13) . . .
151(12) . . .
172(13) . . .
150(12) . . .
144(12) . . .
160(13) . . .
143(12) . . .
167(13) . . .
151(12) . . .
152(12) . . .
143(12) . . .
150(12) . . .
159(13) . . .
139(12) . . .
143(12) . . .
149(12) . . .
147(12) . . .
160(13) . . .
163(13) . . .
156(12) . . .
164(13) . . .
139(12) . . .
156(12) . . .
160(13) . . .
160(13) . . .
141(12) . . .
151(12) . . .
134(12) . . .
141(12) . . .
144(12) . . .
162(13) . . .
159(13) . . .
150(12) . . .
153(12) . . .
151(12) . . .
154(12) . . .
159(13) . . .
150(12) . . .
149(12) . . .
146(12) . . .
143(12) . . .
155(12) . . .
134(12) . . .
145(12) . . .
159(13) . . .
167(13) . . .
157(13) . . .
142(12) . . .
141(12) . . .
164(13) . . .
150(12) . . .
143(12) . . .
133(12) . . .
163(13) . . .
135(12) . . .
149(12) . . .
164(13) . . .
157(13) . . .
149(12) . . .
163(13) . . .
151(12) . . .
154(12) . . .
152(12) . . .
159(13) . . .
144(12) . . .
151(12) . . .
172(13) . . .
142(12) . . .
153(12) . . .
167(13) . . .
171(13) . . .
139(12) . . .
158(13) . . .
149(12) . . .
158(13) . . .
172(13) . . .
149(12) . . .
158(13) . . .
150(12) . . .
174(13) . . .
154(12) . . .
151(12) . . .
165(13) . . .
171(13) . . .
137(12) . . .
142(12) . . .
160(13) . . .
163(13) . . .
139(12) . . .
136(12) . . .
137(12) . . .
150(12) . . .
153(12) . . .
151(12) . . .
138(12) . . .
143(12) . . .
149(12) . . .
152(12) . . .
161(13) . . .
164(13) . . .
173(13) . . .
136(12) . . .
150(12) . . .
146(12) . . .
151(12) . . .
139(12) . . .
150(12) . . .
156(12) . . .
149(12) . . .
125(11) . . .
137(12) . . .
144(12) . . .
154(12) . . .
172(13) . . .
148(12) . . .
153(12) . . .
128(11) . . .
144(12) . . .
156(12) . . .
151(12) . . .
139(12) . . .
146(12) . . .
170(13) . . .
134(12) . . .
158(13) . . .
149(12) . . .
160(13) . . .
148(12) . . .
155(12) . . .
165(13) . . .
153(12) . . .
165(13) . . .
136(12) . . .
141(12) . . .
137(12) . . .
152(12) . . .
157(13) . . .
129(11) . . .
147(12) . . .
144(12) . . .
146(12) . . .
152(12) . . .
159(13) . . .
132(11) . . .
163(13) . . .
156(12) . . .
146(12) . . .
132(11) . . .
149(12) . . .
130(11) . . .
156(12) . . .
145(12) . . .
150(12) . . .
132(11) . . .
137(12) . . .
147(12) . . .
146(12) . . .
182(13) . . .
137(12) . . .
161(13) . . .
143(12) . . .
129(11) . . .
152(12) . . .
137(12) . . .
146(12) . . .
166(13) . . .
154(12) . . .
158(13) . . .
152(12) . . .
168(13) . . .
138(12) . . .
183(14) . . .
149(12) . . .
165(13) . . .
141(12) . . .
156(12) . . .
144(12) . . .
135(12) . . .
163(13) . . .
155(12) . . .
146(12) . . .
143(12) . . .
149(12) . . .
154(12) . . .
163(13) . . .
144(12) . . .
144(12) . . .
143(12) . . .
148(12) . . .
135(12) . . .
150(12) . . .
136(12) . . .
150(12) . . .
166(13) . . .
135(12) . . .
159(13) . . .
143(12) . . .
152(12) . . .
151(12) . . .
162(13) . . .
143(12) . . .
158(13) . . .
147(12) . . .
156(12) . . .
154(12) . . .
150(12) . . .
157(13) . . .
152(12) . . .
183(14) . . .
160(13) . . .
161(13) . . .
150(12) . . .
154(12) . . .
166(13) . . .
158(13) . . .
153(12) . . .
153(12) . . .
156(12) . . .
170(13) . . .
167(13) . . .
167(13) . . .
162(13) . . .
139(12) . . .
155(12) . . .
149(12) . . .
138(12) . . .
159(13) . . .
153(12) . . .
152(12) . . .
154(12) . . .
144(12) . . .
155(12) . . .
141(12) . . .
150(12) . . .
144(12) . . .
161(13) . . .
155(12) . . .
160(13) . . .
147(12) . . .
164(13) . . .
151(12) . . .
153(12) . . .
152(12) . . .
167(13) . . .
172(13) . . .
171(13) . . .
145(12) . . .
162(13) . . .
148(12) . . .
170(13) . . .
167(13) . . .
139(12) . . .
162(13) . . .
168(13) . . .
173(13) . . .
162(13) . . .
171(13) . . .
146(12) . . .
172(13) . . .
148(12) . . .
156(12) . . .
142(12) . . .
162(13) . . .
159(13) . . .
167(13) . . .
184(14) . . .
149(12) . . .
139(12) . . .
150(12) . . .
163(13) . . .
164(13) . . .
180(13) . . .
155(12) . . .
170(13) . . .
167(13) . . .
161(13) . . .
164(13) . . .
153(12) . . .
177(13) . . .
196(14) . . .
176(13) . . .
163(13) . . .
159(13) . . .
167(13) . . .
157(13) . . .
167(13) . . .
154(12) . . .
172(13) . . .
181(13) . . .
186(14) . . .
196(14) . . .
179(13) . . .
205(14) . . .
170(13) . . .
178(13) . . .
191(14) . . .
202(14) . . .
195(14) . . .
190(14) . . .
191(14) . . .
206(14) . . .
210(14) . . .
183(14) . . .
197(14) . . .
204(14) . . .
203(14) . . .
225(15) . . .
201(14) . . .
226(15) . . .
232(15) . . .
220(15) . . .
216(15) . . .
241(16) . . .
237(15) . . .
235(15) . . .
242(16) . . .
214(15) . . .
258(16) . . .
240(15) . . .
240(15) . . .
271(16) . . .
275(17) . . .
280(17) . . .
282(17) . . .
294(17) . . .
293(17) . . .
299(17) . . .
269(16) . . .
307(18) . . .
320(18) . . .
303(17) . . .
318(18) . . .
335(18) . . .
327(18) . . .
350(19) . . .
390(20) . . .
361(19) . . .
400(20) . . .
416(20) . . .
439(21) . . .
463(22) . . .
469(22) . . .
476(22) . . .
495(22) . . .
518(23) . . .
542(23) . . .
573(24) . . .
561(24) . . .
662(26) . . .
662(26) . . .
697(26) . . .
723(27) . . .
753(27) . . .
801(28) . . .
853(29) . . .
921(30) . . .
941(31) . . .
1065(33) . . .
1086(33) . . .
1121(33) . . .
1153(34) . . .
1240(35) . . .
1201(35) . . .
1301(36) . . .
1284(36) . . .
1299(36) . . .
1424(38) . . .
1464(38) . . .
1350(37) . . .
1404(37) . . .
1350(37) . . .
1351(37) . . .
1358(37) . . .
1316(36) . . .
1330(36) . . .
1276(36) . . .
1253(35) . . .
1218(35) . . .
1126(34) . . .
1103(33) . . .
1072(33) . . .
998(32) . . .
928(30) . . .
879(30) . . .
842(29) . . .
803(28) . . .
777(28) . . .
687(26) . . .
681(26) . . .
680(26) . . .
596(24) . . .
611(25) . . .
560(24) . . .
570(24) . . .
545(23) . . .
477(22) . . .
482(22) . . .
465(22) . . .
392(20) . . .
433(21) . . .
380(19) . . .
367(19) . . .
362(19) . . .
353(19) . . .
326(18) . . .
311(18) . . .
319(18) . . .
301(17) . . .
289(17) . . .
281(17) . . .
304(17) . . .
273(17) . . .
269(16) . . .
256(16) . . .
287(17) . . .
267(16) . . .
263(16) . . .
259(16) . . .
252(16) . . .
222(15) . . .
229(15) . . .
236(15) . . .
226(15) . . .
242(16) . . .
222(15) . . .
228(15) . . .
237(15) . . .
201(14) . . .
217(15) . . .
214(15) . . .
205(14) . . .
195(14) . . .
197(14) . . .
202(14) . . .
199(14) . . .
194(14) . . .
198(14) . . .
201(14) . . .
217(15) . . .
197(14) . . .
201(14) . . .
187(14) . . .
185(14) . . .
200(14) . . .
216(15) . . .
187(14) . . .
215(15) . . .
182(13) . . .
186(14) . . .
181(13) . . .
167(13) . . .
180(13) . . .
184(14) . . .
184(14) . . .
181(13) . . .
172(13) . . .
167(13) . . .
165(13) . . .
170(13) . . .
180(13) . . .
187(14) . . .
170(13) . . .
154(12) . . .
184(14) . . .
158(13) . . .
178(13) . . .
149(12) . . .
172(13) . . .
180(13) . . .
160(13) . . .
165(13) . . .
158(13) . . .
173(13) . . .
168(13) . . .
155(12) . . .
165(13) . . .
190(14) . . .
185(14) . . .
174(13) . . .
172(13) . . .
171(13) . . .
189(14) . . .
160(13) . . .
189(14) . . .
180(13) . . .
168(13) . . .
167(13) . . .
171(13) . . .
165(13) . . .
152(12) . . .
166(13) . . .
175(13) . . .
166(13) . . .
175(13) . . .
158(13) . . .
181(13) . . .
164(13) . . .
176(13) . . .
168(13) . . .
140(12) . . .
154(12) . . .
170(13) . . .
151(12) . . .
150(12) . . .
155(12) . . .
156(12) . . .
148(12) . . .
149(12) . . .
157(13) . . .
155(12) . . .
178(13) . . .
159(13) . . .
164(13) . . .
156(12) . . .
146(12) . . .
153(12) . . .
170(13) . . .
173(13) . . .
173(13) . . .
150(12) . . .
152(12) . . .
160(13) . . .
167(13) . . .
172(13) . . .
168(13) . . .
156(12) . . .
154(12) . . .
165(13) . . .
170(13) . . .
177(13) . . .
171(13) . . .
152(12) . . .
147(12) . . .
157(13) . . .
156(12) . . .
159(13) . . .
169(13) . . .
170(13) . . .
166(13) . . .
178(13) . . .
155(12) . . .
171(13) . . .
152(12) . . .
175(13) . . .
147(12) . . .
164(13) . . .
158(13) . . .
151(12) . . .
153(12) . . .
151(12) . . .
149(12) . . .
137(12) . . .
163(13) . . .
140(12) . . .
163(13) . . .
187(14) . . .
161(13) . . .
175(13) . . .
167(13) . . .
191(14) . . .
177(13) . . .
178(13) . . .
165(13) . . .
165(13) . . .
152(12) . . .
183(14) . . .
166(13) . . .
166(13) . . .
164(13) . . .
160(13) . . .
172(13) . . .
175(13) . . .
172(13) . . .
165(13) . . .
153(12) . . .
167(13) . . .
175(13) . . .
157(13) . . .
165(13) . . .
171(13) . . .
178(13) . . .
163(13) . . .
179(13) . . .
187(14) . . .
166(13) . . .
174(13) . . .
173(13) . . .
158(13) . . .
146(12) . . .
173(13) . . .
180(13) . . .
162(13) . . .
190(14) . . .
173(13) . . .
179(13) . . .
190(14) . . .
178(13) . . .
183(14) . . .
181(13) . . .
176(13) . . .
196(14) . . .
166(13) . . .
191(14) . . .
176(13) . . .
193(14) . . .
189(14) . . .
197(14) . . .
211(15) . . .
175(13) . . .
183(14) . . .
192(14) . . .
190(14) . . .
179(13) . . .
183(14) . . .
190(14) . . .
190(14) . . .
195(14) . . .
201(14) . . .
209(14) . . .
220(15) . . .
222(15) . . .
184(14) . . .
194(14) . . .
217(15) . . .
196(14) . . .
198(14) . . .
196(14) . . .
215(15) . . .
215(15) . . .
215(15) . . .
233(15) . . .
213(15) . . .
235(15) . . .
230(15) . . .
242(16) . . .
238(15) . . .
242(16) . . .
238(15) . . .
230(15) . . .
255(16) . . .
273(17) . . .
267(16) . . .
263(16) . . .
276(17) . . .
251(16) . . .
266(16) . . .
269(16) . . .
286(17) . . .
281(17) . . .
323(18) . . .
318(18) . . .
317(18) . . .
326(18) . . .
332(18) . . .
341(18) . . .
364(19) . . .
382(20) . . .
329(18) . . .
396(20) . . .
396(20) . . .
388(20) . . .
393(20) . . .
404(20) . . .
439(21) . . .
432(21) . . .
524(23) . . .
479(22) . . .
524(23) . . .
556(24) . . .
572(24) . . .
575(24) . . .
584(24) . . .
662(26) . . .
686(26) . . .
693(26) . . .
776(28) . . .
799(28) . . .
861(29) . . .
925(30) . . .
988(31) . . .
1023(32) . . .
1109(33) . . .
1196(35) . . .
1275(36) . . .
1371(37) . . .
1429(38) . . .
1536(39) . . .
1624(40) . . .
1690(41) . . .
1741(42) . . .
1861(43) . . .
1972(44) . . .
2040(45) . . .
2138(46) . . .
2199(47) . . .
2221(47) . . .
2372(49) . . .
2347(48) . . .
2407(49) . . .
2438(49) . . .
2447(49) . . .
2364(49) . . .
2472(50) . . .
2387(49) . . .
2405(49) . . .
2306(48) . . .
2216(47) . . .
2300(48) . . .
2160(46) . . .
2072(46) . . .
2024(45) . . .
1962(44) . . .
1834(43) . . .
1857(43) . . .
1689(41) . . .
1664(41) . . .
1519(39) . . .
1442(38) . . .
1403(37) . . .
1262(36) . . .
1210(35) . . .
1136(34) . . .
1086(33) . . .
1014(32) . . .
946(31) . . .
860(29) . . .
856(29) . . .
773(28) . . .
779(28) . . .
699(26) . . .
695(26) . . .
625(25) . . .
612(25) . . .
565(24) . . .
529(23) . . .
548(23) . . .
518(23) . . .
470(22) . . .
438(21) . . .
462(21) . . .
394(20) . . .
432(21) . . .
398(20) . . .
391(20) . . .
376(19) . . .
351(19) . . .
338(18) . . .
346(19) . . .
346(19) . . .
330(18) . . .
322(18) . . .
314(18) . . .
331(18) . . .
318(18) . . .
292(17) . . .
296(17) . . .
269(16) . . .
276(17) . . .
250(16) . . .
269(16) . . .
254(16) . . .
248(16) . . .
256(16) . . .
255(16) . . .
253(16) . . .
234(15) . . .
239(15) . . .
204(14) . . .
221(15) . . .
233(15) . . .
198(14) . . .
227(15) . . .
216(15) . . .
209(14) . . .
222(15) . . .
229(15) . . .
189(14) . . .
199(14) . . .
219(15) . . .
209(14) . . .
216(15) . . .
195(14) . . .
188(14) . . .
191(14) . . .
199(14) . . .
199(14) . . .
181(13) . . .
198(14) . . .
210(14) . . .
198(14) . . .
199(14) . . .
185(14) . . .
196(14) . . .
180(13) . . .
174(13) . . .
190(14) . . .
190(14) . . .
152(12) . . .
177(13) . . .
163(13) . . .
175(13) . . .
177(13) . . .
184(14) . . .
176(13) . . .
173(13) . . .
194(14) . . .
158(13) . . .
200(14) . . .
170(13) . . .
183(14) . . .
168(13) . . .
168(13) . . .
193(14) . . .
183(14) . . .
154(12) . . .
165(13) . . .
147(12) . . .
173(13) . . .
164(13) . . .
167(13) . . .
168(13) . . .
148(12) . . .
162(13) . . .
160(13) . . .
154(12) . . .
151(12) . . .
174(13) . . .
167(13) . . .
160(13) . . .
172(13) . . .
168(13) . . .
162(13) . . .
161(13) . . .
155(12) . . .
145(12) . . .
187(14) . . .
161(13) . . .
160(13) . . .
172(13) . . .
156(12) . . .
165(13) . . .
155(12) . . .
156(12) . . .
164(13) . . .
140(12) . . .
162(13) . . .
146(12) . . .
150(12) . . .
159(13) . . .
151(12) . . .
155(12) . . .
162(13) . . .
157(13) . . .
167(13) . . .
174(13) . . .
166(13) . . .
160(13) . . .
166(13) . . .
158(13) . . .
146(12) . . .
155(12) . . .
150(12) . . .
160(13) . . .
149(12) . . .
175(13) . . .
141(12) . . .
157(13) . . .
178(13) . . .
157(13) . . .
164(13) . . .
159(13) . . .
133(12) . . .
146(12) . . .
146(12) . . .
142(12) . . .
154(12) . . .
167(13) . . .
155(12) . . .
145(12) . . .
148(12) . . .
176(13) . . .
168(13) . . .
162(13) . . .
142(12) . . .
136(12) . . .
132(11) . . .
127(11) . . .
148(12) . . .
122(11) . . .
146(12) . . .
146(12) . . .
148(12) . . .
148(12) . . .
146(12) . . .
152(12) . . .
150(12) . . .
166(13) . . .
151(12) . . .
163(13) . . .
163(13) . . .
151(12) . . .
146(12) . . .
145(12) . . .
154(12) . . .
165(13) . . .
165(13) . . .
163(13) . . .
159(13) . . .
159(13) . . .
159(13) . . .
141(12) . . .
154(12) . . .
136(12) . . .
166(13) . . .
174(13) . . .
153(12) . . .
139(12) . . .
163(13) . . .
147(12) . . .
155(12) . . .
150(12) . . .
156(12) . . .
147(12) . . .
153(12) . . .
127(11) . . .
176(13) . . .
157(13) . . .
145(12) . . .
155(12) . . .
144(12) . . .
167(13) . . .
140(12) . . .
158(13) . . .
137(12) . . .
162(13) . . .
161(13) . . .
162(13) . . .
147(12) . . .
153(12) . . .
147(12) . . .
148(12) . . .
151(12) . . .
154(12) . . .
162(13) . . .
158(13) . . .
138(12) . . .
145(12) . . .
143(12) . . .
133(12) . . .
143(12) . . .
143(12) . . .
160(13) . . .
154(12) . . .
167(13) . . .
165(13) . . .
135(12) . . .
142(12) . . .
142(12) . . .
134(12) . . .
151(12) . . .
155(12) . . .
157(13) . . .
146(12) . . .
145(12) . . .
135(12) . . .
148(12) . . .
146(12) . . .
147(12) . . .
145(12) . . .
159(13) . . .
150(12) . . .
154(12) . . .
145(12) . . .
170(13) . . .
145(12) . . .
138(12) . . .
135(12) . . .
135(12) . . .
163(13) . . .
151(12) . . .
161(13) . . .
147(12) . . .
148(12) . . .
138(12) . . .
153(12) . . .
150(12) . . .
145(12) . . .
147(12) . . .
145(12) . . .
155(12) . . .
175(13) . . .
172(13) . . .
138(12) . . .
136(12) . . .
150(12) . . .
125(11) . . .
136(12) . . .
147(12) . . .
149(12) . . .
133(12) . . .
133(12) . . .
128(11) . . .
172(13) . . .
153(12) . . .
148(12) . . .
144(12) . . .
142(12) . . .
148(12) . . .
155(12) . . .
151(12) . . .
135(12) . . .
158(13) . . .
154(12) . . .
147(12) . . .
148(12) . . .
139(12) . . .
143(12) . . .
144(12) . . .
154(12) . . .
148(12) . . .
140(12) . . .
148(12) . . .
145(12) . . .
149(12) . . .
159(13) . . .
160(13) . . .
133(12) . . .
144(12) . . .
154(12) . . .
151(12) . . .
141(12) . . .
147(12) . . .
150(12) . . .
147(12) . . .
147(12) . . .
145(12) . . .
149(12) . . .
150(12) . . .
139(12) . . .
137(12) . . .
135(12) . . .
145(12) . . .
155(12) . . .
160(13) . . .
135(12) . . .
135(12) . . .
165(13) . . .
137(12) . . .
134(12) . . .
161(13) . . .
144(12) . . .
146(12) . . .
130(11) . . .
139(12) . . .
172(13) . . .
157(13) . . .
129(11) . . .
146(12) . . .
160(13) . . .
136(12) . . .
164(13) . . .
141(12) . . .
150(12) . . .
150(12) . . .
159(13) . . .
145(12) . . .
139(12) . . .
138(12) . . .
142(12) . . .
142(12) . . .
149(12) . . .
152(12) . . .
127(11) . . .
157(13) . . .
158(13) . . .
142(12) . . .
140(12) . . .
130(11) . . .
148(12) . . .
152(12) . . .
145(12) . . .
147(12) . . .
136(12) . . .
143(12) . . .
145(12) . . .
134(12) . . .
130(11) . . .
152(12) . . .
136(12) . . .
146(12) . . .
155(12) . . .
155(12) . . .
149(12) . . .
146(12) . . .
133(12) . . .
150(12) . . .
136(12) . . .
146(12) . . .
156(12) . . .
155(12) . . .
144(12) . . .
135(12) . . .
144(12) . . .
139(12) . . .
135(12) . . .
144(12) . . .
153(12) . . .
134(12) . . .
151(12) . . .
135(12) . . .
142(12) . . .
151(12) . . .
145(12) . . .
164(13) . . .
132(11) . . .
140(12) . . .
169(13) . . .
137(12) . . .
132(11) . . .
144(12) . . .
127(11) . . .
120(11) . . .
158(13) . . .
151(12) . . .
139(12) . . .
127(11) . . .
140(12) . . .
132(11) . . .
139(12) . . .
125(11) . . .
137(12) . . .
121(11) . . .
131(11) . . .
138(12) . . .
146(12) . . .
129(11) . . .
130(11) . . .
150(12) . . .
164(13) . . .
139(12) . . .
123(11) . . .
142(12) . . .
126(11) . . .
153(12) . . .
159(13) . . .
152(12) . . .
150(12) . . .
139(12) . . .
141(12) . . .
132(11) . . .
132(11) . . .
140(12) . . .
141(12) . . .
148(12) . . .
135(12) . . .
152(12) . . .
135(12) . . .
137(12) . . .
131(11) . . .
147(12) . . .
160(13) . . .
153(12) . . .
139(12) . . .
146(12) . . .
165(13) . . .
155(12) . . .
159(13) . . .
157(13) . . .
146(12) . . .
154(12) . . .
147(12) . . .
136(12) . . .
129(11) . . .
132(11) . . .
138(12) . . .
146(12) . . .
118(11) . . .
127(11) . . .
133(12) . . .
123(11) . . .
148(12) . . .
144(12) . . .
146(12) . . .
156(12) . . .
136(12) . . .
149(12) . . .
152(12) . . .
136(12) . . .
137(12) . . .
146(12) . . .
144(12) . . .
141(12) . . .
143(12) . . .
135(12) . . .
142(12) . . .
141(12) . . .
138(12) . . .
132(11) . . .
139(12) . . .
147(12) . . .
156(12) . . .
150(12) . . .
139(12) . . .
129(11) . . .
135(12) . . .
136(12) . . .
133(12) . . .
132(11) . . .
135(12) . . .
131(11) . . .
137(12) . . .
128(11) . . .
157(13) . . .
149(12) . . .
138(12) . . .
160(13) . . .
156(12) . . .
166(13) . . .
154(12) . . .
156(12) . . .
164(13) . . .
136(12) . . .
151(12) . . .
128(11) . . .
170(13) . . .
159(13) . . .
138(12) . . .
134(12) . . .
145(12) . . .
151(12) . . .
163(13) . . .
132(11) . . .
164(13) . . .
152(12) . . .
137(12) . . .
126(11) . . .
145(12) . . .
149(12) . . .
148(12) . . .
140(12) . . .
143(12) . . .
156(12) . . .
132(11) . . .
142(12) . . .
148(12) . . .
133(12) . . .
132(11) . . .
130(11) . . .
140(12) . . .
141(12) . . .
146(12) . . .
144(12) . . .
142(12) . . .
137(12) . . .
150(12) . . .
142(12) . . .
156(12) . . .
144(12) . . .
139(12) . . .
165(13) . . .
154(12) . . .
146(12) . . .
139(12) . . .
142(12) . . .
127(11) . . .
157(13) . . .
143(12) . . .
143(12) . . .
145(12) . . .
144(12) . . .
130(11) . . .
147(12) . . .
137(12) . . .
154(12) . . .
137(12) . . .
137(12) . . .
132(11) . . .
143(12) . . .
152(12) . . .
142(12) . . .
134(12) . . .
132(11) . . .
140(12) . . .
131(11) . . .
141(12) . . .
157(13) . . .
128(11) . . .
149(12) . . .
138(12) . . .
155(12) . . .
142(12) . . .
159(13) . . .
142(12) . . .
146(12) . . .
135(12) . . .
135(12) . . .
142(12) . . .
135(12) . . .
133(12) . . .
143(12) . . .
141(12) . . .
140(12) . . .
151(12) . . .
163(13) . . .
134(12) . . .
137(12) . . .
137(12) . . .
149(12) . . .
157(13) . . .
160(13) . . .
135(12) . . .
165(13) . . .
153(12) . . .
151(12) . . .
144(12) . . .
139(12) . . .
134(12) . . .
150(12) . . .
135(12) . . .
142(12) . . .
150(12) . . .
127(11) . . .
125(11) . . .
143(12) . . .
143(12) . . .
152(12) . . .
132(11) . . .
148(12) . . .
139(12) . . .
128(11) . . .
144(12) . . .
152(12) . . .
147(12) . . .
133(12) . . .
134(12) . . .
155(12) . . .
171(13) . . .
144(12) . . .
158(13) . . .
136(12) . . .
161(13) . . .
150(12) . . .
140(12) . . .
164(13) . . .
154(12) . . .
148(12) . . .
145(12) . . .
147(12) . . .
144(12) . . .
155(12) . . .
154(12) . . .
145(12) . . .
138(12) . . .
142(12) . . .
140(12) . . .
141(12) . . .
145(12) . . .
140(12) . . .
156(12) . . .
157(13) . . .
140(12) . . .
134(12) . . .
142(12) . . .
148(12) . . .
133(12) . . .
135(12) . . .
145(12) . . .
150(12) . . .
156(12) . . .
128(11) . . .
145(12) . . .
116(11) . . .
129(11) . . .
137(12) . . .
136(12) . . .
139(12) . . .
151(12) . . .
141(12) . . .
156(12) . . .
139(12) . . .
162(13) . . .
146(12) . . .
151(12) . . .
171(13) . . .
149(12) . . .
162(13) . . .
147(12) . . .
150(12) . . .
139(12) . . .
148(12) . . .
162(13) . . .
162(13) . . .
130(11) . . .
163(13) . . .
136(12) . . .
139(12) . . .
142(12) . . .
149(12) . . .
137(12) . . .
139(12) . . .
142(12) . . .
141(12) . . .
150(12) . . .
157(13) . . .
147(12) . . .
137(12) . . .
130(11) . . .
153(12) . . .
143(12) . . .
153(12) . . .
126(11) . . .
150(12) . . .
127(11) . . .
159(13) . . .
167(13) . . .
148(12) . . .
152(12) . . .
156(12) . . .
182(13) . . .
178(13) . . .
144(12) . . .
161(13) . . .
144(12) . . .
158(13) . . .
175(13) . . .
170(13) . . .
169(13) . . .
160(13) . . .
183(14) . . .
181(13) . . .
200(14) . . .
197(14) . . .
159(13) . . .
150(12) . . .
156(12) . . .
151(12) . . .
159(13) . . .
129(11) . . .
140(12) . . .
136(12) . . .
121(11) . . .
139(12) . . .
159(13) . . .
139(12) . . .
161(13) . . .
148(12) . . .
137(12) . . .
132(11) . . .
146(12) . . .
148(12) . . .
135(12) . . .
152(12) . . .
162(13) . . .
153(12) . . .
141(12) . . .
136(12) . . .
153(12) . . .
147(12) . . .
148(12) . . .
168(13) . . .
137(12) . . .
168(13) . . .
124(11) . . .
162(13) . . .
141(12) . . .
147(12) . . .
145(12) . . .
144(12) . . .
157(13) . . .
151(12) . . .
158(13) . . .
155(12) . . .
143(12) . . .
149(12) . . .
156(12) . . .
129(11) . . .
136(12) . . .
145(12) . . .
134(12) . . .
139(12) . . .
129(11) . . .
150(12) . . .
133(12) . . .
140(12) . . .
127(11) . . .
136(12) . . .
148(12) . . .
160(13) . . .
144(12) . . .
135(12) . . .
139(12) . . .
134(12) . . .
160(13) . . .
152(12) . . .
159(13) . . .
160(13) . . .
147(12) . . .
152(12) . . .
146(12) . . .
143(12) . . .
158(13) . . .
156(12) . . .
154(12) . . .
149(12) . . .
141(12) . . .
127(11) . . .
145(12) . . .
159(13) . . .
139(12) . . .
139(12) . . .
143(12) . . .
150(12) . . .
145(12) . . .
153(12) . . .
146(12) . . .
137(12) . . .
124(11) . . .
170(13) . . .
139(12) . . .
151(12) . . .
138(12) . . .
134(12) . . .
159(13) . . .
154(12) . . .
141(12) . . .
139(12) . . .
138(12) . . .
141(12) . . .
154(12) . . .
125(11) . . .
149(12) . . .
143(12) . . .
170(13) . . .
150(12) . . .
155(12) . . .
164(13) . . .
148(12) . . .
130(11) . . .
139(12) . . .
142(12) . . .
149(12) . . .
134(12) . . .
153(12) . . .
158(13) . . .
161(13) . . .
137(12) . . .
138(12) . . .
168(13) . . .
142(12) . . .
152(12) . . .
166(13) . . .
159(13) . . .
146(12) . . .
149(12) . . .
121(11) . . .
162(13) . . .
145(12) . . .
156(12) . . .
148(12) . . .
145(12) . . .
143(12) . . .
151(12) . . .
144(12) . . .
162(13) . . .
128(11) . . .
141(12) . . .
134(12) . . .
138(12) . . .
150(12) . . .
153(12) . . .
175(13) . . .
137(12) . . .
146(12) . . .
153(12) . . .
151(12) . . .
149(12) . . .
157(13) . . .
169(13) . . .
154(12) . . .
145(12) . . .
166(13) . . .
158(13) . . .
140(12) . . .
146(12) . . .
152(12) . . .
137(12) . . .
158(13) . . .
143(12) . . .
148(12) . . .
152(12) . . .
132(11) . . .
143(12) . . .
150(12) . . .
144(12) . . .
138(12) . . .
128(11) . . .
163(13) . . .
150(12) . . .
143(12) . . .
155(12) . . .
142(12) . . .
140(12) . . .
139(12) . . .
150(12) . . .
136(12) . . .
165(13) . . .
145(12) . . .
145(12) . . .
149(12) . . .
155(12) . . .
137(12) . . .
143(12) . . .
140(12) . . .
138(12) . . .
139(12) . . .
133(12) . . .
147(12) . . .
152(12) . . .
157(13) . . .
157(13) . . .
139(12) . . .
140(12) . . .
143(12) . . .
154(12) . . .
165(13) . . .
139(12) . . .
151(12) . . .
141(12) . . .
148(12) . . .
140(12) . . .
144(12) . . .
151(12) . . .
135(12) . . .
124(11) . . .
162(13) . . .
157(13) . . .
147(12) . . .
146(12) . . .
143(12) . . .
147(12) . . .
146(12) . . .
156(12) . . .
154(12) . . .
154(12) . . .
155(12) . . .
138(12) . . .
135(12) . . .
158(13) . . .
145(12) . . .
152(12) . . .
140(12) . . .
134(12) . . .
125(11) . . .
149(12) . . .
137(12) . . .
141(12) . . .
159(13) . . .
150(12) . . .
122(11) . . .
146(12) . . .
146(12) . . .
145(12) . . .
130(11) . . .
149(12) . . .
162(13) . . .
153(12) . . .
148(12) . . .
130(11) . . .
126(11) . . .
160(13) . . .
148(12) . . .
154(12) . . .
136(12) . . .
143(12) . . .
156(12) . . .
146(12) . . .
140(12) . . .
158(13) . . .
144(12) . . .
133(12) . . .
166(13) . . .
171(13) . . .
135(12) . . .
152(12) . . .
147(12) . . .
137(12) . . .
141(12) . . .
142(12) . . .
155(12) . . .
135(12) . . .
137(12) . . .
161(13) . . .
151(12) . . .
156(12) . . .
157(13) . . .
149(12) . . .
142(12) . . .
159(13) . . .
143(12) . . .
136(12) . . .
160(13) . . .
148(12) . . .
132(11) . . .
152(12) . . .
158(13) . . .
128(11) . . .
149(12) . . .
154(12) . . .
174(13) . . .
146(12) . . .
158(13) . . .
138(12) . . .
160(13) . . .
132(11) . . .
155(12) . . .
141(12) . . .
148(12) . . .
150(12) . . .
156(12) . . .
155(12) . . .
139(12) . . .
163(13) . . .
150(12) . . .
150(12) . . .
144(12) . . .
158(13) . . .
142(12) . . .
144(12) . . .
146(12) . . .
131(11) . . .
155(12) . . .
161(13) . . .
148(12) . . .
153(12) . . .
142(12) . . .
137(12) . . .
144(12) . . .
161(13) . . .
176(13) . . .
176(13) . . .
148(12) . . .
142(12) . . .
165(13) . . .
141(12) . . .
148(12) . . .
169(13) . . .
150(12) . . .
165(13) . . .
145(12) . . .
139(12) . . .
148(12) . . .
166(13) . . .
154(12) . . .
128(11) . . .
144(12) . . .
149(12) . . .
144(12) . . .
120(11) . . .
160(13) . . .
140(12) . . .
151(12) . . .
156(12) . . .
134(12) . . .
139(12) . . .
159(13) . . .
153(12) . . .
140(12) . . .
131(11) . . .
154(12) . . .
141(12) . . .
163(13) . . .
155(12) . . .
154(12) . . .
152(12) . . .
136(12) . . .
149(12) . . .
157(13) . . .
148(12) . . .
156(12) . . .
149(12) . . .
158(13) . . .
132(11) . . .
152(12) . . .
136(12) . . .
141(12) . . .
153(12) . . .
144(12) . . .
144(12) . . .
148(12) . . .
171(13) . . .
166(13) . . .
152(12) . . .
142(12) . . .
138(12) . . .
147(12) . . .
140(12) . . .
163(13) . . .
146(12) . . .
150(12) . . .
139(12) . . .
139(12) . . .
134(12) . . .
144(12) . . .
161(13) . . .
159(13) . . .
168(13) . . .
148(12) . . .
150(12) . . .
146(12) . . .
168(13) . . .
164(13) . . .
161(13) . . .
168(13) . . .
165(13) . . .
147(12) . . .
139(12) . . .
158(13) . . .
173(13) . . .
158(13) . . .
153(12) . . .
157(13) . . .
175(13) . . .
144(12) . . .
139(12) . . .
144(12) . . .
157(13) . . .
143(12) . . .
158(13) . . .
138(12) . . .
138(12) . . .
168(13) . . .
156(12) . . .
163(13) . . .
134(12) . . .
138(12) . . .
137(12) . . .
153(12) . . .
140(12) . . .
163(13) . . .
169(13) . . .
181(13) . . .
156(12) . . .
171(13) . . .
154(12) . . .
139(12) . . .
155(12) . . .
137(12) . . .
147(12) . . .
162(13) . . .
140(12) . . .
145(12) . . .
153(12) . . .
143(12) . . .
159(13) . . .
147(12) . . .
130(11) . . .
168(13) . . .
144(12) . . .
148(12) . . .
142(12) . . .
151(12) . . .
142(12) . . .
146(12) . . .
147(12) . . .
151(12) . . .
134(12) . . .
146(12) . . .
180(13) . . .
162(13) . . .
133(12) . . .
140(12) . . .
159(13) . . .
171(13) . . .
164(13) . . .
163(13) . . .
161(13) . . .
162(13) . . .
145(12) . . .
148(12) . . .
162(13) . . .
148(12) . . .
158(13) . . .
157(13) . . .
157(13) . . .
148(12) . . .
147(12) . . .
170(13) . . .
169(13) . . .
166(13) . . .
156(12) . . .
156(12) . . .
151(12) . . .
153(12) . . .
147(12) . . .
155(12) . . .
151(12) . . .
159(13) . . .
139(12) . . .
159(13) . . .
135(12) . . .
158(13) . . .
165(13) . . .
160(13) . . .
164(13) . . .
163(13) . . .
175(13) . . .
153(12) . . .
178(13) . . .
137(12) . . .
171(13) . . .
156(12) . . .
165(13) . . .
132(11) . . .
139(12) . . .
167(13) . . .
168(13) . . .
153(12) . . .
164(13) . . .
155(12) . . .
160(13) . . .
148(12) . . .
172(13) . . .
151(12) . . .
145(12) . . .
157(13) . . .
151(12) . . .
154(12) . . .
164(13) . . .
153(12) . . .
145(12) . . .
144(12) . . .
154(12) . . .
169(13) . . .
143(12) . . .
162(13) . . .
173(13) . . .
153(12) . . .
139(12) . . .
165(13) . . .
164(13) . . .
163(13) . . .
170(13) . . .
182(13) . . .
161(13) . . .
173(13) . . .
180(13) . . .
176(13) . . .
175(13) . . .
181(13) . . .
146(12) . . .
174(13) . . .
196(14) . . .
184(14) . . .
186(14) . . .
173(13) . . .
193(14) . . .
182(13) . . .
178(13) . . .
168(13) . . .
156(12) . . .
168(13) . . .
178(13) . . .
164(13) . . .
188(14) . . .
177(13) . . .
189(14) . . .
180(13) . . .
169(13) . . .
188(14) . . .
168(13) . . .
181(13) . . .
177(13) . . .
181(13) . . .
191(14) . . .
198(14) . . .
206(14) . . .
200(14) . . .
178(13) . . .
214(15) . . .
187(14) . . .
209(14) . . .
192(14) . . .
180(13) . . .
196(14) . . .
191(14) . . .
215(15) . . .
202(14) . . .
207(14) . . .
203(14) . . .
212(15) . . .
204(14) . . .
207(14) . . .
221(15) . . .
227(15) . . .
215(15) . . .
238(15) . . .
211(15) . . .
227(15) . . .
228(15) . . .
227(15) . . .
231(15) . . .
233(15) . . .
255(16) . . .
237(15) . . .
247(16) . . .
259(16) . . .
260(16) . . .
263(16) . . .
261(16) . . .
266(16) . . .
229(15) . . .
272(16) . . .
289(17) . . .
329(18) . . .
300(17) . . .
293(17) . . .
306(17) . . .
317(18) . . .
325(18) . . .
312(18) . . .
375(19) . . .
347(19) . . .
360(19) . . .
374(19) . . .
394(20) . . .
379(19) . . .
415(20) . . .
395(20) . . .
428(21) . . .
465(22) . . .
436(21) . . .
481(22) . . .
504(22) . . .
500(22) . . .
533(23) . . .
536(23) . . .
539(23) . . .
620(25) . . .
634(25) . . .
655(26) . . .
659(26) . . .
690(26) . . .
716(27) . . .
771(28) . . .
836(29) . . .
861(29) . . .
924(30) . . .
950(31) . . .
996(32) . . .
1028(32) . . .
1070(33) . . .
1106(33) . . .
1177(34) . . .
1252(35) . . .
1339(37) . . .
1405(37) . . .
1494(39) . . .
1529(39) . . .
1552(39) . . .
1667(41) . . .
1852(43) . . .
1903(44) . . .
1998(45) . . .
1997(45) . . .
2033(45) . . .
2076(46) . . .
2092(46) . . .
2140(46) . . .
2257(48) . . .
2227(47) . . .
2402(49) . . .
2203(47) . . .
2143(46) . . .
2209(47) . . .
2254(47) . . .
2153(46) . . .
2068(45) . . .
2068(45) . . .
2083(46) . . .
2015(45) . . .
1930(44) . . .
1888(43) . . .
1788(42) . . .
1764(42) . . .
1621(40) . . .
1688(41) . . .
1571(40) . . .
1425(38) . . .
1422(38) . . .
1341(37) . . .
1230(35) . . .
1136(34) . . .
1116(33) . . .
1024(32) . . .
981(31) . . .
910(30) . . .
871(30) . . .
816(29) . . .
832(29) . . .
764(28) . . .
721(27) . . .
712(27) . . .
671(26) . . .
608(25) . . .
583(24) . . .
595(24) . . .
539(23) . . .
534(23) . . .
551(23) . . .
523(23) . . .
465(22) . . .
444(21) . . .
459(21) . . .
424(21) . . .
418(20) . . .
390(20) . . .
408(20) . . .
376(19) . . .
380(19) . . .
386(20) . . .
361(19) . . .
342(18) . . .
373(19) . . .
329(18) . . .
309(18) . . .
326(18) . . .
310(18) . . .
289(17) . . .
290(17) . . .
294(17) . . .
287(17) . . .
284(17) . . .
265(16) . . .
259(16) . . .
244(16) . . .
249(16) . . .
239(15) . . .
249(16) . . .
237(15) . . .
222(15) . . .
239(15) . . .
230(15) . . .
231(15) . . .
246(16) . . .
259(16) . . .
220(15) . . .
237(15) . . .
230(15) . . .
238(15) . . .
240(15) . . .
228(15) . . .
236(15) . . .
205(14) . . .
213(15) . . .
199(14) . . .
244(16) . . .
205(14) . . .
224(15) . . .
196(14) . . .
210(14) . . .
190(14) . . .
193(14) . . .
195(14) . . .
190(14) . . .
207(14) . . .
196(14) . . .
194(14) . . .
177(13) . . .
172(13) . . .
164(13) . . .
176(13) . . .
185(14) . . .
193(14) . . .
192(14) . . .
192(14) . . .
185(14) . . .
182(13) . . .
194(14) . . .
188(14) . . .
163(13) . . .
177(13) . . .
173(13) . . .
171(13) . . .
184(14) . . .
170(13) . . .
172(13) . . .
173(13) . . .
186(14) . . .
189(14) . . .
185(14) . . .
159(13) . . .
168(13) . . .
157(13) . . .
156(12) . . .
161(13) . . .
175(13) . . .
179(13) . . .
173(13) . . .
178(13) . . .
158(13) . . .
164(13) . . .
189(14) . . .
168(13) . . .
170(13) . . .
174(13) . . .
168(13) . . .
175(13) . . .
163(13) . . .
186(14) . . .
173(13) . . .
175(13) . . .
157(13) . . .
152(12) . . .
148(12) . . .
171(13) . . .
166(13) . . .
163(13) . . .
158(13) . . .
166(13) . . .
173(13) . . .
167(13) . . .
159(13) . . .
151(12) . . .
168(13) . . .
168(13) . . .
162(13) . . .
177(13) . . .
152(12) . . .
172(13) . . .
152(12) . . .
160(13) . . .
153(12) . . .
153(12) . . .
161(13) . . .
179(13) . . .
157(13) . . .
191(14) . . .
146(12) . . .
143(12) . . .
167(13) . . .
155(12) . . .
152(12) . . .
134(12) . . .
150(12) . . .
148(12) . . .
145(12) . . .
159(13) . . .
164(13) . . .
160(13) . . .
175(13) . . .
162(13) . . .
152(12) . . .
154(12) . . .
162(13) . . .
161(13) . . .
137(12) . . .
188(14) . . .
174(13) . . .
160(13) . . .
174(13) . . .
165(13) . . .
146(12) . . .
151(12) . . .
153(12) . . .
165(13) . . .
166(13) . . .
149(12) . . .
148(12) . . .
152(12) . . .
151(12) . . .
136(12) . . .
137(12) . . .
149(12) . . .
152(12) . . .
154(12) . . .
150(12) . . .
155(12) . . .
155(12) . . .
147(12) . . .
181(13) . . .
151(12) . . .
151(12) . . .
146(12) . . .
149(12) . . .
160(13) . . .
143(12) . . .
159(13) . . .
152(12) . . .
160(13) . . .
148(12) . . .
150(12) . . .
155(12) . . .
145(12) . . .
156(12) . . .
179(13) . . .
159(13) . . .
161(13) . . .
150(12) . . .
152(12) . . .
153(12) . . .
144(12) . . .
146(12) . . .
168(13) . . .
136(12) . . .
141(12) . . .
166(13) . . .
160(13) . . .
163(13) . . .
139(12) . . .
158(13) . . .
141(12) . . .
147(12) . . .
179(13) . . .
142(12) . . .
160(13) . . .
151(12) . . .
148(12) . . .
157(13) . . .
156(12) . . .
156(12) . . .
177(13) . . .
160(13) . . .
161(13) . . .
142(12) . . .
146(12) . . .
130(11) . . .
149(12) . . .
152(12) . . .
168(13) . . .
142(12) . . .
146(12) . . .
146(12) . . .
174(13) . . .
174(13) . . .
134(12) . . .
149(12) . . .
150(12) . . .
146(12) . . .
150(12) . . .
162(13) . . .
161(13) . . .
158(13) . . .
160(13) . . .
154(12) . . .
125(11) . . .
153(12) . . .
147(12) . . .
163(13) . . .
162(13) . . .
142(12) . . .
154(12) . . .
143(12) . . .
167(13) . . .
166(13) . . .
158(13) . . .
152(12) . . .
152(12) . . .
142(12) . . .
164(13) . . .
149(12) . . .
135(12) . . .
145(12) . . .
150(12) . . .
147(12) . . .
146(12) . . .
154(12) . . .
137(12) . . .
148(12) . . .
160(13) . . .
150(12) . . .
162(13) . . .
158(13) . . .
144(12) . . .
167(13) . . .
151(12) . . .
130(11) . . .
170(13) . . .
155(12) . . .
159(13) . . .
161(13) . . .
131(11) . . .
145(12) . . .
155(12) . . .
162(13) . . .
151(12) . . .
155(12) . . .
165(13) . . .
143(12) . . .
159(13) . . .
157(13) . . .
153(12) . . .
164(13) . . .
157(13) . . .
160(13) . . .
128(11) . . .
169(13) . . .
142(12) . . .
164(13) . . .
136(12) . . .
140(12) . . .
155(12) . . .
153(12) . . .
153(12) . . .
139(12) . . .
139(12) . . .
135(12) . . .
144(12) . . .
147(12) . . .
155(12) . . .
158(13) . . .
169(13) . . .
149(12) . . .
150(12) . . .
145(12) . . .
140(12) . . .
146(12) . . .
140(12) . . .
150(12) . . .
161(13) . . .
136(12) . . .
145(12) . . .
141(12) . . .
147(12) . . .
155(12) . . .
163(13) . . .
158(13) . . .
153(12) . . .
154(12) . . .
144(12) . . .
155(12) . . .
152(12) . . .
148(12) . . .
162(13) . . .
147(12) . . .
147(12) . . .
167(13) . . .
151(12) . . .
162(13) . . .
170(13) . . .
170(13) . . .
151(12) . . .
136(12) . . .
152(12) . . .
143(12) . . .
165(13) . . .
163(13) . . .
150(12) . . .
133(12) . . .
146(12) . . .
152(12) . . .
172(13) . . .
143(12) . . .
147(12) . . .
150(12) . . .
146(12) . . .
173(13) . . .
159(13) . . .
151(12) . . .
143(12) . . .
161(13) . . .
152(12) . . .
136(12) . . .
141(12) . . .
154(12) . . .
147(12) . . .
161(13) . . .
161(13) . . .
133(12) . . .
136(12) . . .
157(13) . . .
158(13) . . .
148(12) . . .
148(12) . . .
151(12) . . .
162(13) . . .
135(12) . . .
144(12) . . .
137(12) . . .
157(13) . . .
157(13) . . .
140(12) . . .
139(12) . . .
135(12) . . .
150(12) . . .
142(12) . . .
158(13) . . .
161(13) . . .
146(12) . . .
145(12) . . .
156(12) . . .
143(12) . . .
140(12) . . .
152(12) . . .
154(12) . . .
159(13) . . .
137(12) . . .
160(13) . . .
144(12) . . .
137(12) . . .
145(12) . . .
148(12) . . .
127(11) . . .
147(12) . . .
139(12) . . .
174(13) . . .
137(12) . . .
146(12) . . .
154(12) . . .
156(12) . . .
162(13) . . .
141(12) . . .
157(13) . . .
170(13) . . .
154(12) . . .
143(12) . . .
165(13) . . .
131(11) . . .
152(12) . . .
156(12) . . .
137(12) . . .
130(11) . . .
156(12) . . .
149(12) . . .
152(12) . . .
145(12) . . .
156(12) . . .
140(12) . . .
154(12) . . .
151(12) . . .
144(12) . . .
151(12) . . .
145(12) . . .
155(12) . . .
140(12) . . .
147(12) . . .
166(13) . . .
145(12) . . .
158(13) . . .
144(12) . . .
172(13) . . .
163(13) . . .
145(12) . . .
146(12) . . .
157(13) . . .
145(12) . . .
169(13) . . .
143(12) . . .
162(13) . . .
156(12) . . .
175(13) . . .
161(13) . . .
160(13) . . .
166(13) . . .
165(13) . . .
157(13) . . .
138(12) . . .
159(13) . . .
148(12) . . .
153(12) . . .
158(13) . . .
147(12) . . .
154(12) . . .
170(13) . . .
141(12) . . .
148(12) . . .
155(12) . . .
138(12) . . .
142(12) . . .
156(12) . . .
129(11) . . .
151(12) . . .
155(12) . . .
132(11) . . .
144(12) . . .
161(13) . . .
143(12) . . .
144(12) . . .
135(12) . . .
152(12) . . .
150(12) . . .
142(12) . . .
155(12) . . .
149(12) . . .
147(12) . . .
164(13) . . .
139(12) . . .
146(12) . . .
156(12) . . .
152(12) . . .
144(12) . . .
160(13) . . .
133(12) . . .
136(12) . . .
162(13) . . .
156(12) . . .
157(13) . . .
144(12) . . .
150(12) . . .
159(13) . . .
162(13) . . .
171(13) . . .
155(12) . . .
132(11) . . .
160(13) . . .
147(12) . . .
155(12) . . .
122(11) . . .
159(13) . . .
155(12) . . .
137(12) . . .
156(12) . . .
158(13) . . .
154(12) . . .
147(12) . . .
144(12) . . .
138(12) . . .
142(12) . . .
163(13) . . .
160(13) . . .
192(14) . . .
148(12) . . .
151(12) . . .
155(12) . . .
164(13) . . .
164(13) . . .
171(13) . . .
173(13) . . .
162(13) . . .
155(12) . . .
146(12) . . .
135(12) . . .
148(12) . . .
141(12) . . .
160(13) . . .
151(12) . . .
150(12) . . .
150(12) . . .
170(13) . . .
157(13) . . .
149(12) . . .
134(12) . . .
139(12) . . .
163(13) . . .
159(13) . . .
132(11) . . .
169(13) . . .
151(12) . . .
148(12) . . .
153(12) . . .
142(12) . . .
151(12) . . .
135(12) . . .
149(12) . . .
141(12) . . .
157(13) . . .
143(12) . . .
137(12) . . .
149(12) . . .
132(11) . . .
150(12) . . .
152(12) . . .
173(13) . . .
165(13) . . .
134(12) . . .
152(12) . . .
169(13) . . .
148(12) . . .
152(12) . . .
171(13) . . .
179(13) . . .
156(12) . . .
156(12) . . .
170(13) . . .
159(13) . . .
175(13) . . .
165(13) . . .
152(12) . . .
159(13) . . .
163(13) . . .
133(12) . . .
167(13) . . .
147(12) . . .
161(13) . . .
138(12) . . .
158(13) . . .
150(12) . . .
151(12) . . .
157(13) . . .
149(12) . . .
163(13) . . .
143(12) . . .
185(14) . . .
164(13) . . .
138(12) . . .
155(12) . . .
152(12) . . .
161(13) . . .
146(12) . . .
153(12) . . .
155(12) . . .
149(12) . . .
149(12) . . .
157(13) . . .
151(12) . . .
146(12) . . .
163(13) . . .
174(13) . . .
159(13) . . .
170(13) . . .
180(13) . . .
157(13) . . .
164(13) . . .
162(13) . . .
156(12) . . .
173(13) . . .
177(13) . . .
173(13) . . .
145(12) . . .
180(13) . . .
179(13) . . .
169(13) . . .
170(13) . . .
167(13) . . .
162(13) . . .
140(12) . . .
163(13) . . .
171(13) . . .
152(12) . . .
140(12) . . .
165(13) . . .
159(13) . . .
164(13) . . .
146(12) . . .
155(12) . . .
143(12) . . .
164(13) . . .
164(13) . . .
166(13) . . .
170(13) . . .
156(12) . . .
183(14) . . .
165(13) . . .
164(13) . . .
165(13) . . .
173(13) . . .
186(14) . . .
164(13) . . .
175(13) . . .
182(13) . . .
174(13) . . .
168(13) . . .
164(13) . . .
193(14) . . .
174(13) . . .
176(13) . . .
200(14) . . .
183(14) . . .
178(13) . . .
151(12) . . .
172(13) . . .
150(12) . . .
141(12) . . .
166(13) . . .
176(13) . . .
173(13) . . .
168(13) . . .
174(13) . . .
150(12) . . .
175(13) . . .
141(12) . . .
150(12) . . .
177(13) . . .
167(13) . . .
165(13) . . .
152(12) . . .
142(12) . . .
181(13) . . .
170(13) . . .
168(13) . . .
146(12) . . .
122(11) . . .
174(13) . . .
164(13) . . .
155(12) . . .
168(13) . . .
153(12) . . .
163(13) . . .
158(13) . . .
163(13) . . .
173(13) . . .
168(13) . . .
142(12) . . .
159(13) . . .
178(13) . . .
161(13) . . .
160(13) . . .
151(12) . . .
157(13) . . .
171(13) . . .
160(13) . . .
148(12) . . .
147(12) . . .
138(12) . . .
152(12) . . .
144(12) . . .
137(12) . . .
160(13) . . .
158(13) . . .
153(12) . . .
133(12) . . .
152(12) . . .
153(12) . . .
145(12) . . .
174(13) . . .
139(12) . . .
158(13) . . .
165(13) . . .
159(13) . . .
156(12) . . .
166(13) . . .
156(12) . . .
166(13) . . .
155(12) . . .
157(13) . . .
171(13) . . .
154(12) . . .
160(13) . . .
160(13) . . .
170(13) . . .
173(13) . . .
184(14) . . .
181(13) . . .
173(13) . . .
157(13) . . .
151(12) . . .
131(11) . . .
134(12) . . .
151(12) . . .
153(12) . . .
158(13) . . .
169(13) . . .
177(13) . . .
184(14) . . .
149(12) . . .
155(12) . . .
158(13) . . .
140(12) . . .
167(13) . . .
150(12) . . .
140(12) . . .
137(12) . . .
161(13) . . .
137(12) . . .
138(12) . . .
152(12) . . .
148(12) . . .
149(12) . . .
152(12) . . .
167(13) . . .
157(13) . . .
147(12) . . .
139(12) . . .
170(13) . . .
168(13) . . .
145(12) . . .
151(12) . . .
168(13) . . .
169(13) . . .
165(13) . . .
152(12) . . .
148(12) . . .
144(12) . . .
160(13) . . .
159(13) . . .
157(13) . . .
159(13) . . .
130(11) . . .
152(12) . . .
169(13) . . .
158(13) . . .
182(13) . . .
146(12) . . .
136(12) . . .
156(12) . . .
173(13) . . .
154(12) . . .
135(12) . . .
150(12) . . .
154(12) . . .
136(12) . . .
125(11) . . .
144(12) . . .
168(13) . . .
144(12) . . .
144(12) . . .
139(12) . . .
175(13) . . .
153(12) . . .
155(12) . . .
151(12) . . .
168(13) . . .
151(12) . . .
148(12) . . .
165(13) . . .
149(12) . . .
177(13) . . .
157(13) . . .
169(13) . . .
181(13) . . .
141(12) . . .
159(13) . . .
146(12) . . .
152(12) . . .
166(13) . . .
177(13) . . .
146(12) . . .
152(12) . . .
146(12) . . .
153(12) . . .
175(13) . . .
171(13) . . .
162(13) . . .
151(12) . . .
154(12) . . .
150(12) . . .
151(12) . . .
177(13) . . .
159(13) . . .
156(12) . . .
152(12) . . .
137(12) . . .
140(12) . . .
146(12) . . .
158(13) . . .
149(12) . . .
170(13) . . .
140(12) . . .
170(13) . . .
145(12) . . .
157(13) . . .
172(13) . . .
152(12) . . .
150(12) . . .
155(12) . . .
164(13) . . .
149(12) . . .
157(13) . . .
158(13) . . .
160(13) . . .
155(12) . . .
143(12) . . .
172(13) . . .
155(12) . . .
149(12) . . .
168(13) . . .
176(13) . . .
171(13) . . .
154(12) . . .
182(13) . . .
143(12) . . .
156(12) . . .
163(13) . . .
156(12) . . .
149(12) . . .
159(13) . . .
175(13) . . .
175(13) . . .
140(12) . . .
156(12) . . .
172(13) . . .
173(13) . . .
153(12) . . .
171(13) . . .
156(12) . . .
159(13) . . .
166(13) . . .
153(12) . . .
166(13) . . .
178(13) . . .
173(13) . . .
165(13) . . .
178(13) . . .
176(13) . . .
181(13) . . .
157(13) . . .
170(13) . . .
155(12) . . .
173(13) . . .
168(13) . . .
188(14) . . .
184(14) . . .
160(13) . . .
159(13) . . .
164(13) . . .
173(13) . . .
156(12) . . .
172(13) . . .
159(13) . . .
205(14) . . .
157(13) . . .
168(13) . . .
170(13) . . .
182(13) . . .
180(13) . . .
180(13) . . .
174(13) . . .
169(13) . . .
151(12) . . .
179(13) . . .
199(14) . . .
213(15) . . .
172(13) . . .
206(14) . . .
184(14) . . .
158(13) . . .
173(13) . . .
178(13) . . .
179(13) . . .
166(13) . . .
187(14) . . .
183(14) . . .
193(14) . . .
184(14) . . .
171(13) . . .
184(14) . . .
196(14) . . .
193(14) . . .
176(13) . . .
192(14) . . .
198(14) . . .
204(14) . . .
207(14) . . .
185(14) . . .
209(14) . . .
202(14) . . .
200(14) . . .
213(15) . . .
204(14) . . .
215(15) . . .
199(14) . . .
205(14) . . .
217(15) . . .
218(15) . . .
204(14) . . .
220(15) . . .
215(15) . . .
201(14) . . .
214(15) . . .
209(14) . . .
190(14) . . .
208(14) . . .
221(15) . . .
224(15) . . .
231(15) . . .
217(15) . . .
222(15) . . .
234(15) . . .
237(15) . . .
231(15) . . .
237(15) . . .
235(15) . . .
254(16) . . .
260(16) . . .
260(16) . . .
273(17) . . .
263(16) . . .
268(16) . . .
266(16) . . .
282(17) . . .
293(17) . . .
313(18) . . .
295(17) . . .
304(17) . . .
319(18) . . .
320(18) . . .
303(17) . . .
326(18) . . .
311(18) . . .
311(18) . . .
369(19) . . .
315(18) . . .
336(18) . . .
332(18) . . .
360(19) . . .
348(19) . . .
365(19) . . .
323(18) . . .
397(20) . . .
390(20) . . .
378(19) . . .
411(20) . . .
417(20) . . .
390(20) . . .
367(19) . . .
421(21) . . .
489(22) . . .
449(21) . . .
456(21) . . .
467(22) . . .
492(22) . . .
526(23) . . .
534(23) . . .
599(24) . . .
577(24) . . .
621(25) . . .
634(25) . . .
672(26) . . .
718(27) . . .
711(27) . . .
757(28) . . .
797(28) . . .
801(28) . . .
851(29) . . .
906(30) . . .
903(30) . . .
955(31) . . .
996(32) . . .
995(32) . . .
1057(33) . . .
1099(33) . . .
1143(34) . . .
1097(33) . . .
1198(35) . . .
1226(35) . . .
1313(36) . . .
1380(37) . . .
1385(37) . . .
1434(38) . . .
1559(39) . . .
1660(41) . . .
1638(40) . . .
1755(42) . . .
1934(44) . . .
1963(44) . . .
2129(46) . . .
2152(46) . . .
2371(49) . . .
2420(49) . . .
2573(51) . . .
2715(52) . . .
2870(54) . . .
3022(55) . . .
3178(56) . . .
3230(57) . . .
3392(58) . . .
3526(59) . . .
3564(60) . . .
3527(59) . . .
3683(61) . . .
3765(61) . . .
3801(62) . . .
3832(62) . . .
3715(61) . . .
3664(61) . . .
3585(60) . . .
3606(60) . . .
3579(60) . . .
3416(58) . . .
3244(57) . . .
3184(56) . . .
3133(56) . . .
3039(55) . . .
2937(54) . . .
2690(52) . . .
2747(52) . . .
2590(51) . . .
2372(49) . . .
2277(48) . . .
2131(46) . . .
2085(46) . . .
2016(45) . . .
1890(43) . . .
1759(42) . . .
1675(41) . . .
1584(40) . . .
1577(40) . . .
1485(39) . . .
1383(37) . . .
1411(38) . . .
1250(35) . . .
1283(36) . . .
1224(35) . . .
1129(34) . . .
1058(33) . . .
1016(32) . . .
1029(32) . . .
988(31) . . .
966(31) . . .
890(30) . . .
839(29) . . .
856(29) . . .
793(28) . . .
759(28) . . .
700(26) . . .
688(26) . . .
628(25) . . .
629(25) . . .
584(24) . . .
561(24) . . .
536(23) . . .
524(23) . . .
520(23) . . .
510(23) . . .
490(22) . . .
484(22) . . .
468(22) . . .
471(22) . . .
445(21) . . .
405(20) . . .
432(21) . . .
415(20) . . .
405(20) . . .
360(19) . . .
366(19) . . .
368(19) . . .
374(19) . . .
376(19) . . .
339(18) . . .
354(19) . . .
354(19) . . .
371(19) . . .
307(18) . . .
328(18) . . .
335(18) . . .
345(19) . . .
300(17) . . .
326(18) . . .
320(18) . . .
341(18) . . .
294(17) . . .
289(17) . . .
253(16) . . .
328(18) . . .
281(17) . . .
279(17) . . .
263(16) . . .
260(16) . . .
256(16) . . .
275(17) . . .
260(16) . . .
256(16) . . .
229(15) . . .
251(16) . . .
237(15) . . .
244(16) . . .
239(15) . . .
218(15) . . .
235(15) . . .
223(15) . . .
234(15) . . .
195(14) . . .
242(16) . . .
240(15) . . .
222(15) . . .
230(15) . . .
199(14) . . .
238(15) . . .
213(15) . . .
202(14) . . .
205(14) . . .
215(15) . . .
211(15) . . .
203(14) . . .
196(14) . . .
213(15) . . .
219(15) . . .
207(14) . . .
196(14) . . .
196(14) . . .
190(14) . . .
192(14) . . .
182(13) . . .
193(14) . . .
184(14) . . .
199(14) . . .
188(14) . . .
204(14) . . .
187(14) . . .
197(14) . . .
182(13) . . .
191(14) . . .
184(14) . . .
186(14) . . .
193(14) . . .
176(13) . . .
187(14) . . .
170(13) . . .
167(13) . . .
183(14) . . .
186(14) . . .
181(13) . . .
186(14) . . .
196(14) . . .
150(12) . . .
192(14) . . .
168(13) . . .
177(13) . . .
181(13) . . .
188(14) . . .
174(13) . . .
181(13) . . .
178(13) . . .
187(14) . . .
165(13) . . .
178(13) . . .
184(14) . . .
178(13) . . .
170(13) . . .
175(13) . . .
167(13) . . .
158(13) . . .
165(13) . . .
151(12) . . .
186(14) . . .
168(13) . . .
179(13) . . .
154(12) . . .
180(13) . . .
161(13) . . .
175(13) . . .
167(13) . . .
193(14) . . .
164(13) . . .
182(13) . . .
177(13) . . .
169(13) . . .
154(12) . . .
143(12) . . .
173(13) . . .
159(13) . . .
184(14) . . .
157(13) . . .
187(14) . . .
156(12) . . .
147(12) . . .
155(12) . . .
184(14) . . .
164(13) . . .
160(13) . . .
172(13) . . .
185(14) . . .
184(14) . . .
155(12) . . .
157(13) . . .
180(13) . . .
179(13) . . .
174(13) . . .
171(13) . . .
166(13) . . .
166(13) . . .
153(12) . . .
157(13) . . .
173(13) . . .
175(13) . . .
162(13) . . .
158(13) . . .
173(13) . . .
183(14) . . .
173(13) . . .
155(12) . . .
154(12) . . .
146(12) . . .
154(12) . . .
170(13) . . .
156(12) . . .
162(13) . . .
161(13) . . .
158(13) . . .
178(13) . . .
165(13) . . .
169(13) . . .
157(13) . . .
161(13) . . .
170(13) . . .
169(13) . . .
161(13) . . .
165(13) . . .
178(13) . . .
189(14) . . .
164(13) . . .
151(12) . . .
154(12) . . .
177(13) . . .
181(13) . . .
178(13) . . .
179(13) . . .
184(14) . . .
157(13) . . .
183(14) . . .
165(13) . . .
170(13) . . .
166(13) . . .
181(13) . . .
163(13) . . .
175(13) . . .
166(13) . . .
171(13) . . .
159(13) . . .
158(13) . . .
169(13) . . .
160(13) . . .
173(13) . . .
160(13) . . .
193(14) . . .
162(13) . . .
175(13) . . .
173(13) . . .
177(13) . . .
196(14) . . .
175(13) . . .
179(13) . . .
173(13) . . .
162(13) . . .
164(13) . . .
145(12) . . .
154(12) . . .
194(14) . . .
191(14) . . .
173(13) . . .
169(13) . . .
188(14) . . .
166(13) . . .
171(13) . . .
189(14) . . .
166(13) . . .
175(13) . . .
172(13) . . .
170(13) . . .
190(14) . . .
173(13) . . .
204(14) . . .
185(14) . . .
189(14) . . .
170(13) . . .
210(14) . . .
178(13) . . .
165(13) . . .
201(14) . . .
185(14) . . .
198(14) . . .
192(14) . . .
175(13) . . .
195(14) . . .
193(14) . . .
193(14) . . .
192(14) . . .
205(14) . . .
199(14) . . .
207(14) . . .
204(14) . . .
218(15) . . .
204(14) . . .
207(14) . . .
222(15) . . .
226(15) . . .
226(15) . . .
224(15) . . .
224(15) . . .
219(15) . . .
215(15) . . .
215(15) . . .
235(15) . . .
237(15) . . .
265(16) . . .
244(16) . . .
238(15) . . .
252(16) . . .
252(16) . . .
264(16) . . .
259(16) . . .
275(17) . . .
262(16) . . .
269(16) . . .
271(16) . . .
260(16) . . .
308(18) . . .
274(17) . . .
283(17) . . .
296(17) . . .
321(18) . . .
300(17) . . .
342(18) . . .
328(18) . . .
330(18) . . .
357(19) . . .
358(19) . . .
384(20) . . .
398(20) . . .
379(19) . . .
413(20) . . .
433(21) . . .
430(21) . . .
442(21) . . .
498(22) . . .
479(22) . . .
504(22) . . .
509(23) . . .
542(23) . . .
577(24) . . .
597(24) . . .
650(25) . . .
631(25) . . .
671(26) . . .
721(27) . . .
690(26) . . .
740(27) . . .
759(28) . . .
815(29) . . .
884(30) . . .
859(29) . . .
874(30) . . .
915(30) . . .
932(31) . . .
1005(32) . . .
1014(32) . . .
1043(32) . . .
1048(32) . . .
1080(33) . . .
1102(33) . . .
1091(33) . . .
1162(34) . . .
1124(34) . . .
1184(34) . . .
1160(34) . . .
1161(34) . . .
1107(33) . . .
1215(35) . . .
1159(34) . . .
1098(33) . . .
1099(33) . . .
1122(33) . . .
1063(33) . . .
1144(34) . . .
1058(33) . . .
1018(32) . . .
989(31) . . .
963(31) . . .
958(31) . . .
890(30) . . .
846(29) . . .
788(28) . . .
820(29) . . .
792(28) . . .
696(26) . . .
664(26) . . .
677(26) . . .
645(25) . . .
598(24) . . .
594(24) . . .
557(24) . . .
535(23) . . .
477(22) . . .
482(22) . . .
468(22) . . .
453(21) . . .
428(21) . . .
414(20) . . .
429(21) . . .
387(20) . . .
388(20) . . .
342(18) . . .
342(18) . . .
368(19) . . .
342(18) . . .
360(19) . . .
354(19) . . .
322(18) . . .
312(18) . . .
313(18) . . .
295(17) . . .
269(16) . . .
277(17) . . .
272(16) . . .
279(17) . . .
279(17) . . .
249(16) . . .
240(15) . . .
251(16) . . .
256(16) . . .
237(15) . . .
247(16) . . .
240(15) . . .
240(15) . . .
247(16) . . .
248(16) . . .
218(15) . . .
233(15) . . .
231(15) . . .
199(14) . . .
208(14) . . .
225(15) . . .
217(15) . . .
217(15) . . .
226(15) . . .
199(14) . . .
186(14) . . .
220(15) . . .
192(14) . . .
190(14) . . .
187(14) . . .
210(14) . . .
192(14) . . .
201(14) . . .
217(15) . . .
186(14) . . .
212(15) . . .
173(13) . . .
163(13) . . .
191(14) . . .
183(14) . . .
190(14) . . .
188(14) . . .
170(13) . . .
178(13) . . .
164(13) . . .
181(13) . . .
169(13) . . .
173(13) . . .
157(13) . . .
179(13) . . .
186(14) . . .
165(13) . . .
175(13) . . .
179(13) . . .
194(14) . . .
163(13) . . .
186(14) . . .
188(14) . . .
178(13) . . .
179(13) . . .
147(12) . . .
143(12) . . .
176(13) . . .
164(13) . . .
155(12) . . .
158(13) . . .
165(13) . . .
153(12) . . .
161(13) . . .
164(13) . . .
163(13) . . .
156(12) . . .
141(12) . . .
159(13) . . .
163(13) . . .
170(13) . . .
164(13) . . .
176(13) . . .
148(12) . . .
145(12) . . .
173(13) . . .
165(13) . . .
159(13) . . .
157(13) . . .
178(13) . . .
169(13) . . .
174(13) . . .
164(13) . . .
173(13) . . .
151(12) . . .
153(12) . . .
148(12) . . .
148(12) . . .
162(13) . . .
139(12) . . .
156(12) . . .
172(13) . . .
175(13) . . .
151(12) . . .
151(12) . . .
163(13) . . .
144(12) . . .
163(13) . . .
160(13) . . .
151(12) . . .
160(13) . . .
172(13) . . .
145(12) . . .
167(13) . . .
150(12) . . .
155(12) . . .
137(12) . . .
142(12) . . .
162(13) . . .
157(13) . . .
159(13) . . .
152(12) . . .
162(13) . . .
166(13) . . .
161(13) . . .
148(12) . . .
138(12) . . .
177(13) . . .
150(12) . . .
162(13) . . .
159(13) . . .
154(12) . . .
165(13) . . .
137(12) . . .
170(13) . . .
153(12) . . .
154(12) . . .
145(12) . . .
138(12) . . .
158(13) . . .
145(12) . . .
138(12) . . .
163(13) . . .
168(13) . . .
156(12) . . .
148(12) . . .
145(12) . . .
145(12) . . .
140(12) . . .
159(13) . . .
148(12) . . .
167(13) . . .
129(11) . . .
137(12) . . .
144(12) . . .
178(13) . . .
160(13) . . .
138(12) . . .
140(12) . . .
163(13) . . .
164(13) . . .
142(12) . . .
141(12) . . .
149(12) . . .
140(12) . . .
140(12) . . .
147(12) . . .
165(13) . . .
138(12) . . .
168(13) . . .
163(13) . . .
136(12) . . .
149(12) . . .
167(13) . . .
170(13) . . .
170(13) . . .
159(13) . . .
148(12) . . .
137(12) . . .
156(12) . . .
158(13) . . .
167(13) . . .
150(12) . . .
148(12) . . .
155(12) . . .
141(12) . . .
176(13) . . .
165(13) . . .
150(12) . . .
126(11) . . .
143(12) . . .
162(13) . . .
157(13) . . .
149(12) . . .
146(12) . . .
150(12) . . .
156(12) . . .
149(12) . . .
130(11) . . .
140(12) . . .
145(12) . . .
147(12) . . .
137(12) . . .
144(12) . . .
148(12) . . .
139(12) . . .
152(12) . . .
153(12) . . .
165(13) . . .
157(13) . . .
141(12) . . .
142(12) . . .
156(12) . . .
160(13) . . .
169(13) . . .
159(13) . . .
145(12) . . .
151(12) . . .
159(13) . . .
165(13) . . .
141(12) . . .
139(12) . . .
157(13) . . .
147(12) . . .
146(12) . . .
175(13) . . .
166(13) . . .
162(13) . . .
158(13) . . .
146(12) . . .
145(12) . . .
151(12) . . .
136(12) . . .
147(12) . . .
170(13) . . .
138(12) . . .
160(13) . . .
144(12) . . .
139(12) . . .
125(11) . . .
163(13) . . .
146(12) . . .
147(12) . . .
132(11) . . .
153(12) . . .
146(12) . . .
155(12) . . .
146(12) . . .
159(13) . . .
146(12) . . .
146(12) . . .
153(12) . . .
151(12) . . .
158(13) . . .
135(12) . . .
156(12) . . .
148(12) . . .
155(12) . . .
149(12) . . .
150(12) . . .
153(12) . . .
176(13) . . .
174(13) . . .
153(12) . . .
156(12) . . .
154(12) . . .
156(12) . . .
170(13) . . .
150(12) . . .
152(12) . . .
155(12) . . .
147(12) . . .
157(13) . . .
157(13) . . .
129(11) . . .
155(12) . . .
148(12) . . .
128(11) . . .
152(12) . . .
154(12) . . .
143(12) . . .
150(12) . . .
143(12) . . .
153(12) . . .
156(12) . . .
148(12) . . .
150(12) . . .
146(12) . . .
162(13) . . .
137(12) . . .
144(12) . . .
159(13) . . .
152(12) . . .
155(12) . . .
147(12) . . .
177(13) . . .
152(12) . . .
151(12) . . .
143(12) . . .
153(12) . . .
165(13) . . .
150(12) . . .
133(12) . . .
138(12) . . .
162(13) . . .
139(12) . . .
151(12) . . .
148(12) . . .
172(13) . . .
128(11) . . .
126(11) . . .
141(12) . . .
161(13) . . .
148(12) . . .
142(12) . . .
152(12) . . .
145(12) . . .
122(11) . . .
139(12) . . .
145(12) . . .
155(12) . . .
140(12) . . .
143(12) . . .
138(12) . . .
144(12) . . .
137(12) . . .
142(12) . . .
155(12) . . .
154(12) . . .
147(12) . . .
131(11) . . .
151(12) . . .
156(12) . . .
148(12) . . .
161(13) . . .
158(13) . . .
168(13) . . .
166(13) . . .
152(12) . . .
149(12) . . .
129(11) . . .
134(12) . . .
146(12) . . .
156(12) . . .
147(12) . . .
161(13) . . .
155(12) . . .
135(12) . . .
143(12) . . .
153(12) . . .
172(13) . . .
159(13) . . .
135(12) . . .
151(12) . . .
139(12) . . .
143(12) . . .
150(12) . . .
163(13) . . .
153(12) . . .
145(12) . . .
155(12) . . .
152(12) . . .
128(11) . . .
143(12) . . .
166(13) . . .
143(12) . . .
170(13) . . .
148(12) . . .
156(12) . . .
147(12) . . .
139(12) . . .
151(12) . . .
174(13) . . .
152(12) . . .
146(12) . . .
135(12) . . .
156(12) . . .
150(12) . . .
151(12) . . .
157(13) . . .
145(12) . . .
142(12) . . .
135(12) . . .
140(12) . . .
145(12) . . .
151(12) . . .
157(13) . . .
144(12) . . .
147(12) . . .
148(12) . . .
150(12) . . .
139(12) . . .
145(12) . . .
150(12) . . .
133(12) . . .
145(12) . . .
140(12) . . .
147(12) . . .
134(12) . . .
147(12) . . .
133(12) . . .
137(12) . . .
138(12) . . .
167(13) . . .
145(12) . . .
143(12) . . .
152(12) . . .
150(12) . . .
153(12) . . .
150(12) . . .
158(13) . . .
132(11) . . .
147(12) . . .
141(12) . . .
133(12) . . .
157(13) . . .
151(12) . . .
165(13) . . .
142(12) . . .
173(13) . . .
138(12) . . .
152(12) . . .
136(12) . . .
145(12) . . .
132(11) . . .
137(12) . . .
135(12) . . .
155(12) . . .
145(12) . . .
151(12) . . .
158(13) . . .
143(12) . . .
158(13) . . .
142(12) . . .
132(11) . . .
142(12) . . .
152(12) . . .
149(12) . . .
146(12) . . .
136(12) . . .
170(13) . . .
138(12) . . .
144(12) . . .
168(13) . . .
154(12) . . .
156(12) . . .
144(12) . . .
148(12) . . .
150(12) . . .
139(12) . . .
147(12) . . .
145(12) . . .
137(12) . . .
144(12) . . .
146(12) . . .
135(12) . . .
154(12) . . .
152(12) . . .
145(12) . . .
146(12) . . .
124(11) . . .
142(12) . . .
141(12) . . .
133(12) . . .
164(13) . . .
154(12) . . .
146(12) . . .
148(12) . . .
127(11) . . .
132(11) . . .
147(12) . . .
156(12) . . .
129(11) . . .
152(12) . . .
140(12) . . .
147(12) . . .
135(12) . . .
158(13) . . .
136(12) . . .
135(12) . . .
144(12) . . .
129(11) . . .
121(11) . . .
150(12) . . .
141(12) . . .
141(12) . . .
152(12) . . .
133(12) . . .
143(12) . . .
161(13) . . .
139(12) . . .
146(12) . . .
156(12) . . .
133(12) . . .
169(13) . . .
142(12) . . .
142(12) . . .
135(12) . . .
141(12) . . .
162(13) . . .
153(12) . . .
122(11) . . .
159(13) . . .
134(12) . . .
155(12) . . .
152(12) . . .
140(12) . . .
131(11) . . .
149(12) . . .
148(12) . . .
154(12) . . .
132(11) . . .
120(11) . . .
151(12) . . .
161(13) . . .
159(13) . . .
134(12) . . .
134(12) . . .
146(12) . . .
151(12) . . .
143(12) . . .
138(12) . . .
150(12) . . .
164(13) . . .
156(12) . . .
132(11) . . .
161(13) . . .
149(12) . . .
160(13) . . .
131(11) . . .
149(12) . . .
159(13) . . .
140(12) . . .
140(12) . . .
145(12) . . .
151(12) . . .
134(12) . . .
164(13) . . .
162(13) . . .
148(12) . . .
148(12) . . .
133(12) . . .
157(13) . . .
129(11) . . .
155(12) . . .
136(12) . . .
153(12) . . .
179(13) . . .
142(12) . . .
145(12) . . .
159(13) . . .
161(13) . . .
154(12) . . .
148(12) . . .
148(12) . . .
146(12) . . .
162(13) . . .
144(12) . . .
147(12) . . .
144(12) . . .
152(12) . . .
147(12) . . .
162(13) . . .
143(12) . . .
140(12) . . .
135(12) . . .
161(13) . . .
150(12) . . .
146(12) . . .
130(11) . . .
130(11) . . .
158(13) . . .
149(12) . . .
148(12) . . .
133(12) . . .
151(12) . . .
134(12) . . .
154(12) . . .
156(12) . . .
139(12) . . .
136(12) . . .
145(12) . . .
139(12) . . .
160(13) . . .
148(12) . . .
141(12) . . .
146(12) . . .
154(12) . . .
127(11) . . .
138(12) . . .
154(12) . . .
140(12) . . .
132(11) . . .
150(12) . . .
147(12) . . .
167(13) . . .
164(13) . . .
131(11) . . .
151(12) . . .
140(12) . . .
124(11) . . .
150(12) . . .
130(11) . . .
150(12) . . .
153(12) . . .
141(12) . . .
144(12) . . .
152(12) . . .
155(12) . . .
132(11) . . .
137(12) . . .
140(12) . . .
158(13) . . .
168(13) . . .
151(12) . . .
162(13) . . .
153(12) . . .
139(12) . . .
147(12) . . .
150(12) . . .
154(12) . . .
145(12) . . .
150(12) . . .
131(11) . . .
173(13) . . .
151(12) . . .
141(12) . . .
152(12) . . .
153(12) . . .
150(12) . . .
150(12) . . .
148(12) . . .
148(12) . . .
146(12) . . .
150(12) . . .
143(12) . . .
145(12) . . .
150(12) . . .
159(13) . . .
166(13) . . .
142(12) . . .
150(12) . . .
154(12) . . .
148(12) . . .
149(12) . . .
135(12) . . .
145(12) . . .
154(12) . . .
156(12) . . .
156(12) . . .
153(12) . . .
135(12) . . .
157(13) . . .
146(12) . . .
161(13) . . .
143(12) . . .
151(12) . . .
156(12) . . .
161(13) . . .
147(12) . . .
149(12) . . .
154(12) . . .
167(13) . . .
164(13) . . .
154(12) . . .
152(12) . . .
163(13) . . .
157(13) . . .
154(12) . . .
168(13) . . .
146(12) . . .
148(12) . . .
147(12) . . .
160(13) . . .
159(13) . . .
143(12) . . .
155(12) . . .
143(12) . . .
144(12) . . .
151(12) . . .
136(12) . . .
131(11) . . .
136(12) . . .
147(12) . . .
155(12) . . .
155(12) . . .
151(12) . . .
132(11) . . .
137(12) . . .
125(11) . . .
154(12) . . .
142(12) . . .
125(11) . . .
136(12) . . .
147(12) . . .
149(12) . . .
155(12) . . .
143(12) . . .
159(13) . . .
141(12) . . .
131(11) . . .
152(12) . . .
137(12) . . .
157(13) . . .
154(12) . . .
150(12) . . .
168(13) . . .
146(12) . . .
150(12) . . .
149(12) . . .
147(12) . . .
147(12) . . .
152(12) . . .
152(12) . . .
157(13) . . .
144(12) . . .
179(13) . . .
120(11) . . .
135(12) . . .
151(12) . . .
159(13) . . .
147(12) . . .
153(12) . . .
117(11) . . .
144(12) . . .
160(13) . . .
143(12) . . .
143(12) . . .
139(12) . . .
142(12) . . .
138(12) . . .
145(12) . . .
138(12) . . .
154(12) . . .
155(12) . . .
159(13) . . .
153(12) . . .
154(12) . . .
144(12) . . .
136(12) . . .
155(12) . . .
178(13) . . .
146(12) . . .
157(13) . . .
135(12) . . .
147(12) . . .
140(12) . . .
139(12) . . .
163(13) . . .
144(12) . . .
145(12) . . .
153(12) . . .
137(12) . . .
141(12) . . .
145(12) . . .
139(12) . . .
168(13) . . .
145(12) . . .
155(12) . . .
167(13) . . .
158(13) . . .
153(12) . . .
157(13) . . .
143(12) . . .
149(12) . . .
137(12) . . .
137(12) . . .
143(12) . . .
145(12) . . .
136(12) . . .
154(12) . . .
151(12) . . .
142(12) . . .
153(12) . . .
144(12) . . .
149(12) . . .
141(12) . . .
137(12) . . .
148(12) . . .
141(12) . . .
115(11) . . .
146(12) . . .
153(12) . . .
173(13) . . .
162(13) . . .
151(12) . . .
153(12) . . .
139(12) . . .
147(12) . . .
142(12) . . .
167(13) . . .
155(12) . . .
152(12) . . .
149(12) . . .
143(12) . . .
149(12) . . .
138(12) . . .
130(11) . . .
138(12) . . .
132(11) . . .
134(12) . . .
160(13) . . .
137(12) . . .
135(12) . . .
149(12) . . .
147(12) . . .
149(12) . . .
159(13) . . .
151(12) . . .
136(12) . . .
158(13) . . .
135(12) . . .
154(12) . . .
141(12) . . .
162(13) . . .
171(13) . . .
143(12) . . .
143(12) . . .
146(12) . . .
152(12) . . .
158(13) . . .
131(11) . . .
159(13) . . .
144(12) . . .
150(12) . . .
141(12) . . .
145(12) . . .
155(12) . . .
146(12) . . .
144(12) . . .
142(12) . . .
161(13) . . .
156(12) . . .
145(12) . . .
137(12) . . .
144(12) . . .
149(12) . . .
129(11) . . .
140(12) . . .
155(12) . . .
150(12) . . .
146(12) . . .
130(11) . . .
117(11) . . .
137(12) . . .
161(13) . . .
159(13) . . .
158(13) . . .
136(12) . . .
165(13) . . .
159(13) . . .
147(12) . . .
139(12) . . .
158(13) . . .
141(12) . . .
136(12) . . .
151(12) . . .
159(13) . . .
140(12) . . .
161(13) . . .
176(13) . . .
137(12) . . .
139(12) . . .
146(12) . . .
135(12) . . .
155(12) . . .
145(12) . . .
147(12) . . .
145(12) . . .
145(12) . . .
157(13) . . .
150(12) . . .
144(12) . . .
123(11) . . .
139(12) . . .
148(12) . . .
151(12) . . .
164(13) . . .
139(12) . . .
147(12) . . .
167(13) . . .
154(12) . . .
150(12) . . .
165(13) . . .
156(12) . . .
141(12) . . .
140(12) . . .
128(11) . . .
144(12) . . .
164(13) . . .
160(13) . . .
130(11) . . .
143(12) . . .
150(12) . . .
129(11) . . .
142(12) . . .
159(13) . . .
139(12) . . .
141(12) . . .
130(11) . . .
149(12) . . .
139(12) . . .
130(11) . . .
146(12) . . .
124(11) . . .
142(12) . . .
155(12) . . .
129(11) . . .
138(12) . . .
117(11) . . .
167(13) . . .
174(13) . . .
148(12) . . .
154(12) . . .
150(12) . . .
156(12) . . .
143(12) . . .
118(11) . . .
162(13) . . .
131(11) . . .
151(12) . . .
145(12) . . .
136(12) . . .
146(12) . . .
135(12) . . .
144(12) . . .
143(12) . . .
139(12) . . .
147(12) . . .
135(12) . . .
140(12) . . .
144(12) . . .
135(12) . . .
151(12) . . .
143(12) . . .
154(12) . . .
139(12) . . .
156(12) . . .
149(12) . . .
156(12) . . .
132(11) . . .
148(12) . . .
148(12) . . .
154(12) . . .
149(12) . . .
142(12) . . .
144(12) . . .
145(12) . . .
149(12) . . .
150(12) . . .
152(12) . . .
138(12) . . .
131(11) . . .
149(12) . . .
148(12) . . .
156(12) . . .
150(12) . . .
139(12) . . .
124(11) . . .
145(12) . . .
122(11) . . .
147(12) . . .
147(12) . . .
162(13) . . .
119(11) . . .
160(13) . . .
134(12) . . .
149(12) . . .
155(12) . . .
145(12) . . .
140(12) . . .
127(11) . . .
142(12) . . .
124(11) . . .
136(12) . . .
146(12) . . .
140(12) . . .
157(13) . . .
137(12) . . .
132(11) . . .
158(13) . . .
155(12) . . .
141(12) . . .
128(11) . . .
137(12) . . .
151(12) . . .
119(11) . . .
125(11) . . .
151(12) . . .
161(13) . . .
143(12) . . .
139(12) . . .
146(12) . . .
137(12) . . .
137(12) . . .
137(12) . . .
135(12) . . .
139(12) . . .
121(11) . . .
126(11) . . .
147(12) . . .
148(12) . . .
152(12) . . .
120(11) . . .
128(11) . . .
136(12) . . .
140(12) . . .
140(12) . . .
143(12) . . .
139(12) . . .
135(12) . . .
143(12) . . .
141(12) . . .
170(13) . . .
152(12) . . .
122(11) . . .
143(12) . . .
151(12) . . .
134(12) . . .
155(12) . . .
137(12) . . .
152(12) . . .
140(12) . . .
135(12) . . .
123(11) . . .
156(12) . . .
151(12) . . .
158(13) . . .
148(12) . . .
135(12) . . .
143(12) . . .
137(12) . . .
137(12) . . .
138(12) . . .
132(11) . . .
148(12) . . .
141(12) . . .
140(12) . . .
140(12) . . .
114(11) . . .
124(11) . . .
138(12) . . .
141(12) . . .
135(12) . . .
131(11) . . .
129(11) . . .
137(12) . . .
129(11) . . .
149(12) . . .
143(12) . . .
140(12) . . .
141(12) . . .
139(12) . . .
150(12) . . .
129(11) . . .
133(12) . . .
127(11) . . .
138(12) . . .
132(11) . . .
153(12) . . .
140(12) . . .
123(11) . . .
143(12) . . .
158(13) . . .
150(12) . . .
143(12) . . .
148(12) . . .
133(12) . . .
133(12) . . .
131(11) . . .
160(13) . . .
146(12) . . .
143(12) . . .
142(12) . . .
152(12) . . .
138(12) . . .
159(13) . . .
151(12) . . .
140(12) . . .
150(12) . . .
153(12) . . .
128(11) . . .
126(11) . . .
137(12) . . .
165(13) . . .
127(11) . . .
140(12) . . .
131(11) . . .
137(12) . . .
149(12) . . .
154(12) . . .
152(12) . . .
131(11) . . .
153(12) . . .
152(12) . . .
130(11) . . .
132(11) . . .
139(12) . . .
159(13) . . .
145(12) . . .
147(12) . . .
146(12) . . .
136(12) . . .
149(12) . . .
134(12) . . .
136(12) . . .
134(12) . . .
142(12) . . .
152(12) . . .
138(12) . . .
142(12) . . .
136(12) . . .
137(12) . . .
127(11) . . .
153(12) . . .
145(12) . . .
123(11) . . .
144(12) . . .
149(12) . . .
140(12) . . .
131(11) . . .
127(11) . . .
147(12) . . .
157(13) . . .
141(12) . . .
135(12) . . .
143(12) . . .
137(12) . . .
148(12) . . .
137(12) . . .
132(11) . . .
130(11) . . .
137(12) . . .
150(12) . . .
134(12) . . .
146(12) . . .
138(12) . . .
114(11) . . .
158(13) . . .
151(12) . . .
132(11) . . .
147(12) . . .
138(12) . . .
135(12) . . .
124(11) . . .
147(12) . . .
139(12) . . .
139(12) . . .
135(12) . . .
151(12) . . .
139(12) . . .
139(12) . . .
142(12) . . .
137(12) . . .
145(12) . . .
133(12) . . .
131(11) . . .
153(12) . . .
140(12) . . .
141(12) . . .
144(12) . . .
137(12) . . .
147(12) . . .
149(12) . . .
147(12) . . .
123(11) . . .
129(11) . . .
136(12) . . .
123(11) . . .
131(11) . . .
147(12) . . .
146(12) . . .
116(11) . . .
139(12) . . .
142(12) . . .
156(12) . . .
155(12) . . .
127(11) . . .
154(12) . . .
141(12) . . .
153(12) . . .
132(11) . . .
127(11) . . .
133(12) . . .
145(12) . . .
139(12) . . .
149(12) . . .
147(12) . . .
132(11) . . .
138(12) . . .
144(12) . . .
128(11) . . .
140(12) . . .
156(12) . . .
140(12) . . .
146(12) . . .
136(12) . . .
128(11) . . .
136(12) . . .
141(12) . . .
146(12) . . .
136(12) . . .
152(12) . . .
139(12) . . .
158(13) . . .
139(12) . . .
162(13) . . .
153(12) . . .
138(12) . . .
141(12) . . .
151(12) . . .
154(12) . . .
163(13) . . .
143(12) . . .
146(12) . . .
137(12) . . .
127(11) . . .
162(13) . . .
144(12) . . .
148(12) . . .
142(12) . . .
142(12) . . .
156(12) . . .
133(12) . . .
156(12) . . .
129(11) . . .
144(12) . . .
141(12) . . .
140(12) . . .
130(11) . . .
155(12) . . .
116(11) . . .
156(12) . . .
133(12) . . .
164(13) . . .
138(12) . . .
139(12) . . .
128(11) . . .
142(12) . . .
136(12) . . .
152(12) . . .
150(12) . . .
138(12) . . .
120(11) . . .
125(11) . . .
146(12) . . .
143(12) . . .
140(12) . . .
131(11) . . .
139(12) . . .
154(12) . . .
126(11) . . .
140(12) . . .
146(12) . . .
149(12) . . .
144(12) . . .
145(12) . . .
145(12) . . .
140(12) . . .
141(12) . . .
141(12) . . .
133(12) . . .
154(12) . . .
160(13) . . .
153(12) . . .
153(12) . . .
135(12) . . .
139(12) . . .
145(12) . . .
151(12) . . .
141(12) . . .
126(11) . . .
138(12) . . .
151(12) . . .
109(10) . . .
137(12) . . .
140(12) . . .
159(13) . . .
130(11) . . .
138(12) . . .
151(12) . . .
159(13) . . .
132(11) . . .
147(12) . . .
147(12) . . .
142(12) . . .
133(12) . . .
154(12) . . .
154(12) . . .
132(11) . . .
156(12) . . .
141(12) . . .
137(12) . . .
147(12) . . .
139(12) . . .
136(12) . . .
150(12) . . .
143(12) . . .
136(12) . . .
134(12) . . .
154(12) . . .
154(12) . . .
135(12) . . .
139(12) . . .
147(12) . . .
148(12) . . .
133(12) . . .
154(12) . . .
151(12) . . .
142(12) . . .
142(12) . . .
144(12) . . .
140(12) . . .
152(12) . . .
140(12) . . .
139(12) . . .
137(12) . . .
155(12) . . .
154(12) . . .
136(12) . . .
129(11) . . .
147(12) . . .
125(11) . . .
152(12) . . .
146(12) . . .
151(12) . . .
145(12) . . .
153(12) . . .
160(13) . . .
152(12) . . .
139(12) . . .
145(12) . . .
161(13) . . .
152(12) . . .
140(12) . . .
141(12) . . .
148(12) . . .
138(12) . . .
142(12) . . .
151(12) . . .
164(13) . . .
138(12) . . .
151(12) . . .
154(12) . . .
155(12) . . .
125(11) . . .
155(12) . . .
156(12) . . .
138(12) . . .
136(12) . . .
133(12) . . .
164(13) . . .
162(13) . . .
161(13) . . .
148(12) . . .
127(11) . . .
137(12) . . .
156(12) . . .
142(12) . . .
147(12) . . .
124(11) . . .
139(12) . . .
150(12) . . .
146(12) . . .
175(13) . . .
147(12) . . .
133(12) . . .
147(12) . . .
144(12) . . .
170(13) . . .
161(13) . . .
162(13) . . .
147(12) . . .
173(13) . . .
169(13) . . .
171(13) . . .
154(12) . . .
154(12) . . .
157(13) . . .
145(12) . . .
175(13) . . .
151(12) . . .
139(12) . . .
157(13) . . .
163(13) . . .
145(12) . . .
127(11) . . .
132(11) . . .
148(12) . . .
139(12) . . .
157(13) . . .
143(12) . . .
157(13) . . .
137(12) . . .
143(12) . . .
150(12) . . .
149(12) . . .
151(12) . . .
159(13) . . .
166(13) . . .
133(12) . . .
160(13) . . .
178(13) . . .
153(12) . . .
150(12) . . .
170(13) . . .
171(13) . . .
163(13) . . .
151(12) . . .
145(12) . . .
171(13) . . .
142(12) . . .
169(13) . . .
146(12) . . .
175(13) . . .
147(12) . . .
174(13) . . .
179(13) . . .
171(13) . . .
177(13) . . .
168(13) . . .
168(13) . . .
177(13) . . .
174(13) . . .
167(13) . . .
160(13) . . .
168(13) . . .
163(13) . . .
165(13) . . .
171(13) . . .
166(13) . . .
171(13) . . .
194(14) . . .
182(13) . . .
152(12) . . .
178(13) . . .
164(13) . . .
171(13) . . .
181(13) . . .
168(13) . . .
180(13) . . .
170(13) . . .
177(13) . . .
189(14) . . .
185(14) . . .
212(15) . . .
158(13) . . .
167(13) . . .
180(13) . . .
202(14) . . .
197(14) . . .
201(14) . . .
192(14) . . .
196(14) . . .
197(14) . . .
182(13) . . .
194(14) . . .
207(14) . . .
215(15) . . .
191(14) . . .
205(14) . . .
213(15) . . .
221(15) . . .
205(14) . . .
216(15) . . .
216(15) . . .
215(15) . . .
217(15) . . .
226(15) . . .
228(15) . . .
231(15) . . .
246(16) . . .
238(15) . . .
231(15) . . .
241(16) . . .
243(16) . . .
234(15) . . .
240(15) . . .
283(17) . . .
249(16) . . .
259(16) . . .
289(17) . . .
273(17) . . .
315(18) . . .
292(17) . . .
298(17) . . .
326(18) . . .
328(18) . . .
350(19) . . .
334(18) . . .
357(19) . . .
347(19) . . .
333(18) . . .
351(19) . . .
373(19) . . .
381(20) . . .
409(20) . . .
421(21) . . .
416(20) . . .
442(21) . . .
452(21) . . .
439(21) . . .
523(23) . . .
490(22) . . .
532(23) . . .
547(23) . . .
552(23) . . .
602(25) . . .
574(24) . . .
637(25) . . .
660(26) . . .
691(26) . . .
717(27) . . .
730(27) . . .
730(27) . . .
770(28) . . .
788(28) . . .
828(29) . . .
892(30) . . .
902(30) . . .
938(31) . . .
970(31) . . .
1004(32) . . .
968(31) . . .
1048(32) . . .
1045(32) . . .
1054(32) . . .
1012(32) . . .
1084(33) . . .
1061(33) . . .
1011(32) . . .
1097(33) . . .
1078(33) . . .
1056(32) . . .
1076(33) . . .
1096(33) . . .
1132(34) . . .
1059(33) . . .
1014(32) . . .
987(31) . . .
941(31) . . .
942(31) . . .
933(31) . . .
920(30) . . .
903(30) . . .
904(30) . . .
908(30) . . .
849(29) . . .
770(28) . . .
829(29) . . .
761(28) . . .
695(26) . . .
709(27) . . .
681(26) . . .
657(26) . . .
572(24) . . .
611(25) . . .
565(24) . . .
554(24) . . .
507(23) . . .
501(22) . . .
513(23) . . .
475(22) . . .
475(22) . . .
457(21) . . .
450(21) . . .
406(20) . . .
406(20) . . .
384(20) . . .
392(20) . . .
367(19) . . .
377(19) . . .
338(18) . . .
306(17) . . .
361(19) . . .
338(18) . . .
316(18) . . .
318(18) . . .
320(18) . . .
302(17) . . .
271(16) . . .
290(17) . . .
303(17) . . .
283(17) . . .
252(16) . . .
260(16) . . .
248(16) . . .
268(16) . . .
243(16) . . .
230(15) . . .
248(16) . . .
206(14) . . .
215(15) . . .
237(15) . . .
227(15) . . .
222(15) . . .
227(15) . . .
213(15) . . .
226(15) . . .
243(16) . . .
205(14) . . .
216(15) . . .
186(14) . . .
208(14) . . .
204(14) . . .
197(14) . . .
191(14) . . .
201(14) . . .
202(14) . . .
186(14) . . .
195(14) . . .
186(14) . . .
189(14) . . .
194(14) . . .
199(14) . . .
204(14) . . .
192(14) . . .
185(14) . . .
184(14) . . .
182(13) . . .
165(13) . . .
199(14) . . .
197(14) . . .
171(13) . . .
145(12) . . .
168(13) . . .
178(13) . . .
174(13) . . .
165(13) . . .
185(14) . . .
172(13) . . .
168(13) . . .
173(13) . . .
185(14) . . .
153(12) . . .
152(12) . . .
164(13) . . .
174(13) . . .
160(13) . . .
165(13) . . .
158(13) . . .
197(14) . . .
167(13) . . .
183(14) . . .
165(13) . . .
166(13) . . .
167(13) . . .
173(13) . . .
164(13) . . .
163(13) . . .
154(12) . . .
156(12) . . .
157(13) . . .
160(13) . . .
154(12) . . .
163(13) . . .
169(13) . . .
121(11) . . .
154(12) . . .
169(13) . . .
175(13) . . .
157(13) . . .
149(12) . . .
134(12) . . .
152(12) . . .
147(12) . . .
143(12) . . .
157(13) . . .
155(12) . . .
152(12) . . .
125(11) . . .
139(12) . . .
156(12) . . .
160(13) . . .
139(12) . . .
146(12) . . .
146(12) . . .
133(12) . . .
133(12) . . .
151(12) . . .
154(12) . . .
162(13) . . .
140(12) . . .
135(12) . . .
129(11) . . .
160(13) . . .
156(12) . . .
144(12) . . .
162(13) . . .
150(12) . . .
152(12) . . .
157(13) . . .
159(13) . . .
131(11) . . .
159(13) . . .
160(13) . . .
157(13) . . .
137(12) . . .
137(12) . . .
142(12) . . .
165(13) . . .
151(12) . . .
148(12) . . .
143(12) . . .
148(12) . . .
149(12) . . .
132(11) . . .
149(12) . . .
156(12) . . .
139(12) . . .
151(12) . . .
152(12) . . .
163(13) . . .
154(12) . . .
134(12) . . .
155(12) . . .
129(11) . . .
148(12) . . .
124(11) . . .
137(12) . . .
150(12) . . .
156(12) . . .
140(12) . . .
162(13) . . .
137(12) . . .
147(12) . . .
147(12) . . .
134(12) . . .
132(11) . . .
149(12) . . .
151(12) . . .
145(12) . . .
160(13) . . .
143(12) . . .
147(12) . . .
143(12) . . .
162(13) . . .
144(12) . . .
156(12) . . .
144(12) . . .
131(11) . . .
123(11) . . .
139(12) . . .
143(12) . . .
152(12) . . .
138(12) . . .
145(12) . . .
153(12) . . .
142(12) . . .
149(12) . . .
130(11) . . .
122(11) . . .
142(12) . . .
133(12) . . .
143(12) . . .
142(12) . . .
167(13) . . .
137(12) . . .
136(12) . . .
132(11) . . .
141(12) . . .
159(13) . . .
157(13) . . .
144(12) . . .
145(12) . . .
138(12) . . .
138(12) . . .
138(12) . . .
140(12) . . .
158(13) . . .
149(12) . . .
163(13) . . .
145(12) . . .
149(12) . . .
132(11) . . .
134(12) . . .
128(11) . . .
142(12) . . .
132(11) . . .
158(13) . . .
135(12) . . .
155(12) . . .
144(12) . . .
136(12) . . .
137(12) . . .
123(11) . . .
136(12) . . .
151(12) . . .
151(12) . . .
139(12) . . .
158(13) . . .
146(12) . . .
138(12) . . .
151(12) . . .
144(12) . . .
147(12) . . .
134(12) . . .
142(12) . . .
149(12) . . .
143(12) . . .
147(12) . . .
141(12) . . .
138(12) . . .
153(12) . . .
155(12) . . .
134(12) . . .
142(12) . . .
127(11) . . .
115(11) . . .
146(12) . . .
139(12) . . .
151(12) . . .
141(12) . . .
147(12) . . .
159(13) . . .
139(12) . . .
125(11) . . .
156(12) . . .
145(12) . . .
148(12) . . .
139(12) . . .
145(12) . . .
144(12) . . .
141(12) . . .
126(11) . . .
148(12) . . .
138(12) . . .
135(12) . . .
135(12) . . .
138(12) . . .
138(12) . . .
127(11) . . .
145(12) . . .
148(12) . . .
132(11) . . .
120(11) . . .
130(11) . . .
152(12) . . .
142(12) . . .
144(12) . . .
143(12) . . .
151(12) . . .
136(12) . . .
150(12) . . .
149(12) . . .
149(12) . . .
143(12) . . .
124(11) . . .
123(11) . . .
151(12) . . .
140(12) . . .
129(11) . . .
140(12) . . .
145(12) . . .
144(12) . . .
133(12) . . .
122(11) . . .
140(12) . . .
148(12) . . .
133(12) . . .
135(12) . . .
132(11) . . .
142(12) . . .
136(12) . . .
147(12) . . .
136(12) . . .
141(12) . . .
141(12) . . .
137(12) . . .
145(12) . . .
136(12) . . .
128(11) . . .
147(12) . . .
139(12) . . .
138(12) . . .
155(12) . . .
149(12) . . .
140(12) . . .
150(12) . . .
140(12) . . .
122(11) . . .
143(12) . . .
150(12) . . .
126(11) . . .
150(12) . . .
130(11) . . .
129(11) . . .
140(12) . . .
146(12) . . .
154(12) . . .
140(12) . . .
134(12) . . .
157(13) . . .
133(12) . . .
131(11) . . .
150(12) . . .
147(12) . . .
139(12) . . .
156(12) . . .
132(11) . . .
163(13) . . .
138(12) . . .
147(12) . . .
125(11) . . .
148(12) . . .
135(12) . . .
140(12) . . .
135(12) . . .
150(12) . . .
135(12) . . .
135(12) . . .
140(12) . . .
141(12) . . .
140(12) . . .
146(12) . . .
150(12) . . .
155(12) . . .
136(12) . . .
149(12) . . .
148(12) . . .
156(12) . . .
134(12) . . .
157(13) . . .
145(12) . . .
159(13) . . .
144(12) . . .
122(11) . . .
130(11) . . .
139(12) . . .
140(12) . . .
143(12) . . .
128(11) . . .
134(12) . . .
132(11) . . .
165(13) . . .
127(11) . . .
119(11) . . .
133(12) . . .
115(11) . . .
135(12) . . .
136(12) . . .
144(12) . . .
127(11) . . .
144(12) . . .
152(12) . . .
134(12) . . .
124(11) . . .
136(12) . . .
146(12) . . .
149(12) . . .
148(12) . . .
145(12) . . .
161(13) . . .
140(12) . . .
132(11) . . .
158(13) . . .
145(12) . . .
114(11) . . .
127(11) . . .
140(12) . . .
136(12) . . .
146(12) . . .
133(12) . . .
150(12) . . .
136(12) . . .
144(12) . . .
135(12) . . .
112(11) . . .
133(12) . . .
146(12) . . .
122(11) . . .
143(12) . . .
159(13) . . .
138(12) . . .
143(12) . . .
142(12) . . .
149(12) . . .
132(11) . . .
133(12) . . .
145(12) . . .
129(11) . . .
146(12) . . .
162(13) . . .
147(12) . . .
160(13) . . .
130(11) . . .
148(12) . . .
136(12) . . .
129(11) . . .
143(12) . . .
120(11) . . .
135(12) . . .
129(11) . . .
138(12) . . .
146(12) . . .
136(12) . . .
142(12) . . .
144(12) . . .
153(12) . . .
149(12) . . .
137(12) . . .
133(12) . . .
127(11) . . .
138(12) . . .
138(12) . . .
133(12) . . .
153(12) . . .
144(12) . . .
157(13) . . .
152(12) . . .
144(12) . . .
153(12) . . .
127(11) . . .
163(13) . . .
120(11) . . .
126(11) . . .
154(12) . . .
137(12) . . .
148(12) . . .
151(12) . . .
120(11) . . .
112(11) . . .
128(11) . . .
139(12) . . .
133(12) . . .
139(12) . . .
111(11) . . .
133(12) . . .
147(12) . . .
148(12) . . .
146(12) . . .
137(12) . . .
151(12) . . .
149(12) . . .
131(11) . . .
146(12) . . .
132(11) . . .
125(11) . . .
134(12) . . .
142(12) . . .
131(11) . . .
139(12) . . .
146(12) . . .
133(12) . . .
127(11) . . .
148(12) . . .
136(12) . . .
144(12) . . .
128(11) . . .
138(12) . . .
128(11) . . .
134(12) . . .
156(12) . . .
142(12) . . .
152(12) . . .
129(11) . . .
142(12) . . .
157(13) . . .
155(12) . . .
147(12) . . .
151(12) . . .
149(12) . . .
137(12) . . .
150(12) . . .
137(12) . . .
140(12) . . .
143(12) . . .
140(12) . . .
137(12) . . .
130(11) . . .
129(11) . . .
131(11) . . .
148(12) . . .
134(12) . . .
111(11) . . .
145(12) . . .
141(12) . . .
134(12) . . .
146(12) . . .
137(12) . . .
138(12) . . .
142(12) . . .
158(13) . . .
136(12) . . .
133(12) . . .
127(11) . . .
142(12) . . .
139(12) . . .
130(11) . . .
131(11) . . .
144(12) . . .
132(11) . . .
129(11) . . .
155(12) . . .
140(12) . . .
154(12) . . .
149(12) . . .
122(11) . . .
132(11) . . .
145(12) . . .
135(12) . . .
129(11) . . .
117(11) . . .
140(12) . . .
143(12) . . .
117(11) . . .
135(12) . . .
157(13) . . .
147(12) . . .
141(12) . . .
138(12) . . .
144(12) . . .
155(12) . . .
143(12) . . .
122(11) . . .
149(12) . . .
136(12) . . .
132(11) . . .
124(11) . . .
137(12) . . .
130(11) . . .
157(13) . . .
160(13) . . .
157(13) . . .
138(12) . . .
134(12) . . .
159(13) . . .
142(12) . . .
127(11) . . .
126(11) . . .
145(12) . . .
127(11) . . .
133(12) . . .
131(11) . . .
137(12) . . .
143(12) . . .
148(12) . . .
141(12) . . .
134(12) . . .
127(11) . . .
142(12) . . .
138(12) . . .
139(12) . . .
135(12) . . .
131(11) . . .
139(12) . . .
139(12) . . .
154(12) . . .
151(12) . . .
137(12) . . .
140(12) . . .
152(12) . . .
161(13) . . .
149(12) . . .
134(12) . . .
135(12) . . .
133(12) . . .
151(12) . . .
131(11) . . .
120(11) . . .
135(12) . . .
147(12) . . .
134(12) . . .
143(12) . . .
158(13) . . .
159(13) . . .
142(12) . . .
136(12) . . .
130(11) . . .
142(12) . . .
146(12) . . .
139(12) . . .
173(13) . . .
135(12) . . .
162(13) . . .
127(11) . . .
167(13) . . .
136(12) . . .
138(12) . . .
140(12) . . .
138(12) . . .
131(11) . . .
152(12) . . .
145(12) . . .
145(12) . . .
152(12) . . .
133(12) . . .
144(12) . . .
139(12) . . .
133(12) . . .
136(12) . . .
149(12) . . .
120(11) . . .
134(12) . . .
134(12) . . .
142(12) . . .
145(12) . . .
142(12) . . .
133(12) . . .
129(11) . . .
148(12) . . .
129(11) . . .
144(12) . . .
138(12) . . .
145(12) . . .
123(11) . . .
131(11) . . .
142(12) . . .
126(11) . . .
137(12) . . .
148(12) . . .
133(12) . . .
146(12) . . .
129(11) . . .
130(11) . . .
130(11) . . .
132(11) . . .
151(12) . . .
140(12) . . .
153(12) . . .
129(11) . . .
117(11) . . .
152(12) . . .
130(11) . . .
149(12) . . .
141(12) . . .
131(11) . . .
144(12) . . .
154(12) . . .
129(11) . . .
147(12) . . .
136(12) . . .
139(12) . . .
146(12) . . .
118(11) . . .
131(11) . . .
132(11) . . .
148(12) . . .
148(12) . . .
131(11) . . .
144(12) . . .
151(12) . . .
135(12) . . .
147(12) . . .
118(11) . . .
140(12) . . .
141(12) . . .
149(12) . . .
143(12) . . .
135(12) . . .
140(12) . . .
154(12) . . .
127(11) . . .
155(12) . . .
127(11) . . .
136(12) . . .
129(11) . . .
138(12) . . .
140(12) . . .
134(12) . . .
139(12) . . .
129(11) . . .
138(12) . . .
154(12) . . .
137(12) . . .
131(11) . . .
133(12) . . .
136(12) . . .
137(12) . . .
138(12) . . .
140(12) . . .
134(12) . . .
132(11) . . .
145(12) . . .
131(11) . . .
118(11) . . .
145(12) . . .
136(12) . . .
147(12) . . .
148(12) . . .
149(12) . . .
134(12) . . .
131(11) . . .
142(12) . . .
123(11) . . .
120(11) . . .
128(11) . . .
111(11) . . .
134(12) . . .
135(12) . . .
160(13) . . .
144(12) . . .
139(12) . . .
144(12) . . .
150(12) . . .
143(12) . . .
157(13) . . .
152(12) . . .
119(11) . . .
129(11) . . .
123(11) . . .
130(11) . . .
133(12) . . .
117(11) . . .
129(11) . . .
141(12) . . .
149(12) . . .
157(13) . . .
147(12) . . .
160(13) . . .
141(12) . . .
135(12) . . .
142(12) . . .
134(12) . . .
157(13) . . .
121(11) . . .
152(12) . . .
132(11) . . .
122(11) . . .
133(12) . . .
133(12) . . .
156(12) . . .
145(12) . . .
161(13) . . .
153(12) . . .
105(10) . . .
151(12) . . .
143(12) . . .
121(11) . . .
141(12) . . .
127(11) . . .
131(11) . . .
133(12) . . .
138(12) . . .
126(11) . . .
154(12) . . .
150(12) . . .
139(12) . . .
147(12) . . .
124(11) . . .
135(12) . . .
147(12) . . .
141(12) . . .
144(12) . . .
148(12) . . .
126(11) . . .
138(12) . . .
150(12) . . .
142(12) . . .
152(12) . . .
121(11) . . .
140(12) . . .
124(11) . . .
142(12) . . .
154(12) . . .
119(11) . . .
139(12) . . .
143(12) . . .
121(11) . . .
125(11) . . .
133(12) . . .
134(12) . . .
126(11) . . .
125(11) . . .
137(12) . . .
134(12) . . .
130(11) . . .
145(12) . . .
126(11) . . .
124(11) . . .
152(12) . . .
134(12) . . .
131(11) . . .
131(11) . . .
143(12) . . .
147(12) . . .
124(11) . . .
142(12) . . .
134(12) . . .
126(11) . . .
151(12) . . .
144(12) . . .
138(12) . . .
154(12) . . .
146(12) . . .
150(12) . . .
158(13) . . .
146(12) . . .
143(12) . . .
143(12) . . .
140(12) . . .
137(12) . . .
147(12) . . .
144(12) . . .
153(12) . . .
144(12) . . .
123(11) . . .
142(12) . . .
142(12) . . .
117(11) . . .
159(13) . . .
129(11) . . .
162(13) . . .
126(11) . . .
138(12) . . .
143(12) . . .
130(11) . . .
133(12) . . .
132(11) . . .
155(12) . . .
145(12) . . .
124(11) . . .
143(12) . . .
136(12) . . .
146(12) . . .
145(12) . . .
133(12) . . .
152(12) . . .
148(12) . . .
174(13) . . .
141(12) . . .
131(11) . . .
142(12) . . .
138(12) . . .
146(12) . . .
127(11) . . .
146(12) . . .
143(12) . . .
130(11) . . .
133(12) . . .
152(12) . . .
147(12) . . .
156(12) . . .
151(12) . . .
161(13) . . .
148(12) . . .
142(12) . . .
139(12) . . .
149(12) . . .
124(11) . . .
138(12) . . .
148(12) . . .
125(11) . . .
131(11) . . .
160(13) . . .
132(11) . . .
121(11) . . .
144(12) . . .
165(13) . . .
148(12) . . .
138(12) . . .
119(11) . . .
158(13) . . .
150(12) . . .
138(12) . . .
128(11) . . .
123(11) . . .
138(12) . . .
147(12) . . .
157(13) . . .
143(12) . . .
149(12) . . .
133(12) . . .
137(12) . . .
157(13) . . .
149(12) . . .
158(13) . . .
148(12) . . .
149(12) . . .
153(12) . . .
154(12) . . .
145(12) . . .
157(13) . . .
156(12) . . .
144(12) . . .
138(12) . . .
124(11) . . .
122(11) . . .
135(12) . . .
173(13) . . .
142(12) . . .
140(12) . . .
151(12) . . .
144(12) . . .
160(13) . . .
130(11) . . .
153(12) . . .
133(12) . . .
143(12) . . .
152(12) . . .
153(12) . . .
136(12) . . .
149(12) . . .
150(12) . . .
143(12) . . .
143(12) . . .
129(11) . . .
165(13) . . .
135(12) . . .
163(13) . . .
154(12) . . .
154(12) . . .
146(12) . . .
137(12) . . .
149(12) . . .
139(12) . . .
144(12) . . .
162(13) . . .
148(12) . . .
159(13) . . .
136(12) . . .
131(11) . . .
141(12) . . .
144(12) . . .
152(12) . . .
139(12) . . .
169(13) . . .
127(11) . . .
130(11) . . .
157(13) . . .
143(12) . . .
136(12) . . .
148(12) . . .
124(11) . . .
143(12) . . .
130(11) . . .
156(12) . . .
119(11) . . .
158(13) . . .
128(11) . . .
135(12) . . .
142(12) . . .
144(12) . . .
153(12) . . .
133(12) . . .
146(12) . . .
156(12) . . .
135(12) . . .
151(12) . . .
150(12) . . .
144(12) . . .
143(12) . . .
131(11) . . .
152(12) . . .
153(12) . . .
150(12) . . .
163(13) . . .
142(12) . . .
133(12) . . .
122(11) . . .
148(12) . . .
134(12) . . .
149(12) . . .
133(12) . . .
142(12) . . .
141(12) . . .
146(12) . . .
144(12) . . .
144(12) . . .
123(11) . . .
140(12) . . .
163(13) . . .
152(12) . . .
155(12) . . .
155(12) . . .
145(12) . . .
162(13) . . .
152(12) . . .
139(12) . . .
143(12) . . .
127(11) . . .
167(13) . . .
157(13) . . .
154(12) . . .
148(12) . . .
150(12) . . .
162(13) . . .
136(12) . . .
130(11) . . .
148(12) . . .
158(13) . . .
162(13) . . .
170(13) . . .
145(12) . . .
159(13) . . .
150(12) . . .
141(12) . . .
156(12) . . .
173(13) . . .
153(12) . . .
148(12) . . .
161(13) . . .
156(12) . . .
143(12) . . .
156(12) . . .
134(12) . . .
129(11) . . .
143(12) . . .
142(12) . . .
138(12) . . .
144(12) . . .
143(12) . . .
155(12) . . .
137(12) . . .
155(12) . . .
155(12) . . .
175(13) . . .
154(12) . . .
151(12) . . .
139(12) . . .
164(13) . . .
162(13) . . .
162(13) . . .
153(12) . . .
152(12) . . .
164(13) . . .
161(13) . . .
163(13) . . .
156(12) . . .
150(12) . . .
164(13) . . .
147(12) . . .
136(12) . . .
140(12) . . .
157(13) . . .
152(12) . . .
144(12) . . .
141(12) . . .
144(12) . . .
158(13) . . .
169(13) . . .
136(12) . . .
158(13) . . .
159(13) . . .
153(12) . . .
163(13) . . .
164(13) . . .
144(12) . . .
168(13) . . .
161(13) . . .
159(13) . . .
164(13) . . .
171(13) . . .
170(13) . . .
173(13) . . .
133(12) . . .
171(13) . . .
192(14) . . .
163(13) . . .
144(12) . . .
150(12) . . .
164(13) . . .
164(13) . . .
167(13) . . .
148(12) . . .
168(13) . . .
165(13) . . .
176(13) . . .
138(12) . . .
175(13) . . .
161(13) . . .
185(14) . . .
168(13) . . .
185(14) . . .
178(13) . . .
169(13) . . .
171(13) . . .
148(12) . . .
160(13) . . .
160(13) . . .
188(14) . . .
172(13) . . .
180(13) . . .
172(13) . . .
173(13) . . .
182(13) . . .
173(13) . . .
165(13) . . .
196(14) . . .
181(13) . . .
162(13) . . .
180(13) . . .
193(14) . . .
178(13) . . .
194(14) . . .
184(14) . . .
183(14) . . .
178(13) . . .
169(13) . . .
177(13) . . .
166(13) . . .
184(14) . . .
191(14) . . .
211(15) . . .
179(13) . . .
192(14) . . .
201(14) . . .
196(14) . . .
202(14) . . .
190(14) . . .
207(14) . . .
188(14) . . .
186(14) . . .
193(14) . . .
210(14) . . .
211(15) . . .
216(15) . . .
196(14) . . .
201(14) . . .
222(15) . . .
211(15) . . .
231(15) . . .
225(15) . . .
190(14) . . .
227(15) . . .
241(16) . . .
243(16) . . .
245(16) . . .
227(15) . . .
238(15) . . .
251(16) . . .
229(15) . . .
239(15) . . .
235(15) . . .
255(16) . . .
255(16) . . .
224(15) . . .
250(16) . . .
282(17) . . .
251(16) . . .
255(16) . . .
271(16) . . .
260(16) . . .
252(16) . . .
279(17) . . .
276(17) . . .
276(17) . . .
285(17) . . .
300(17) . . .
288(17) . . .
282(17) . . .
274(17) . . .
323(18) . . .
284(17) . . .
319(18) . . .
332(18) . . .
313(18) . . .
340(18) . . .
341(18) . . .
337(18) . . .
329(18) . . .
331(18) . . .
355(19) . . .
379(19) . . .
394(20) . . .
356(19) . . .
384(20) . . .
390(20) . . .
416(20) . . .
400(20) . . .
455(21) . . .
414(20) . . .
397(20) . . .
448(21) . . .
444(21) . . .
431(21) . . .
449(21) . . .
499(22) . . .
496(22) . . .
489(22) . . .
530(23) . . .
545(23) . . .
593(24) . . .
581(24) . . .
597(24) . . .
589(24) . . .
666(26) . . .
618(25) . . .
653(26) . . .
693(26) . . .
726(27) . . .
717(27) . . .
766(28) . . .
755(27) . . .
773(28) . . .
798(28) . . .
825(29) . . .
813(29) . . .
942(31) . . .
945(31) . . .
958(31) . . .
1044(32) . . .
1047(32) . . .
1093(33) . . .
1145(34) . . .
1150(34) . . .
1202(35) . . .
1218(35) . . .
1237(35) . . .
1301(36) . . .
1369(37) . . .
1449(38) . . .
1479(38) . . .
1529(39) . . .
1609(40) . . .
1658(41) . . .
1666(41) . . .
1785(42) . . .
1803(42) . . .
1841(43) . . .
1891(43) . . .
1914(44) . . .
2067(45) . . .
2070(45) . . .
2063(45) . . .
2040(45) . . .
2193(47) . . .
2161(46) . . .
2237(47) . . .
2276(48) . . .
2284(48) . . .
2321(48) . . .
2346(48) . . .
2369(49) . . .
2292(48) . . .
2315(48) . . .
2252(47) . . .
2268(48) . . .
2174(47) . . .
2201(47) . . .
2300(48) . . .
2175(47) . . .
2169(47) . . .
2188(47) . . .
2181(47) . . .
2077(46) . . .
2156(46) . . .
2013(45) . . .
1929(44) . . .
1944(44) . . .
1890(43) . . .
1853(43) . . .
1799(42) . . .
1682(41) . . .
1692(41) . . .
1685(41) . . .
1601(40) . . .
1479(38) . . .
1465(38) . . .
1462(38) . . .
1414(38) . . .
1338(37) . . .
1296(36) . . .
1247(35) . . .
1227(35) . . .
1189(34) . . .
1099(33) . . .
1143(34) . . .
1051(32) . . .
1000(32) . . .
989(31) . . .
927(30) . . .
892(30) . . .
852(29) . . .
798(28) . . .
797(28) . . .
764(28) . . .
738(27) . . .
748(27) . . .
702(26) . . .
712(27) . . .
645(25) . . .
661(26) . . .
601(25) . . .
625(25) . . .
588(24) . . .
542(23) . . .
562(24) . . .
526(23) . . .
536(23) . . .
480(22) . . .
476(22) . . .
473(22) . . .
471(22) . . .
443(21) . . .
444(21) . . .
458(21) . . .
425(21) . . .
454(21) . . .
431(21) . . .
398(20) . . .
376(19) . . .
445(21) . . .
330(18) . . .
395(20) . . .
387(20) . . .
325(18) . . .
355(19) . . .
351(19) . . .
356(19) . . .
354(19) . . .
334(18) . . .
349(19) . . .
346(19) . . .
308(18) . . .
295(17) . . .
325(18) . . .
311(18) . . .
312(18) . . .
293(17) . . .
264(16) . . .
264(16) . . .
288(17) . . .
266(16) . . .
288(17) . . .
267(16) . . .
278(17) . . .
288(17) . . .
265(16) . . .
260(16) . . .
275(17) . . .
224(15) . . .
274(17) . . .
234(15) . . .
224(15) . . .
237(15) . . .
222(15) . . .
262(16) . . .
204(14) . . .
234(15) . . .
216(15) . . .
241(16) . . .
231(15) . . .
215(15) . . .
196(14) . . .
202(14) . . .
242(16) . . .
204(14) . . .
240(15) . . .
220(15) . . .
223(15) . . .
209(14) . . .
210(14) . . .
187(14) . . .
192(14) . . .
195(14) . . .
211(15) . . .
208(14) . . .
214(15) . . .
228(15) . . .
205(14) . . .
190(14) . . .
202(14) . . .
184(14) . . .
178(13) . . .
194(14) . . .
175(13) . . .
173(13) . . .
200(14) . . .
193(14) . . .
200(14) . . .
177(13) . . .
189(14) . . .
168(13) . . .
189(14) . . .
190(14) . . .
181(13) . . .
184(14) . . .
186(14) . . .
171(13) . . .
178(13) . . .
160(13) . . .
166(13) . . .
161(13) . . .
172(13) . . .
179(13) . . .
175(13) . . .
182(13) . . .
166(13) . . .
177(13) . . .
179(13) . . .
178(13) . . .
169(13) . . .
171(13) . . .
187(14) . . .
172(13) . . .
183(14) . . .
190(14) . . .
164(13) . . .
149(12) . . .
168(13) . . .
182(13) . . .
174(13) . . .
171(13) . . .
180(13) . . .
173(13) . . .
166(13) . . .
168(13) . . .
173(13) . . .
188(14) . . .
153(12) . . .
176(13) . . .
173(13) . . .
167(13) . . .
140(12) . . .
171(13) . . .
163(13) . . .
151(12) . . .
164(13) . . .
156(12) . . .
162(13) . . .
173(13) . . .
171(13) . . .
154(12) . . .
157(13) . . .
176(13) . . .
154(12) . . .
183(14) . . .
156(12) . . .
163(13) . . .
162(13) . . .
166(13) . . .
165(13) . . .
163(13) . . .
167(13) . . .
172(13) . . .
162(13) . . .
149(12) . . .
158(13) . . .
163(13) . . .
149(12) . . .
169(13) . . .
173(13) . . .
161(13) . . .
161(13) . . .
173(13) . . .
165(13) . . .
151(12) . . .
172(13) . . .
146(12) . . .
148(12) . . .
155(12) . . .
181(13) . . .
149(12) . . .
175(13) . . .
155(12) . . .
155(12) . . .
166(13) . . .
157(13) . . .
167(13) . . .
155(12) . . .
143(12) . . .
156(12) . . .
152(12) . . .
139(12) . . .
169(13) . . .
153(12) . . .
144(12) . . .
142(12) . . .
163(13) . . .
170(13) . . .
162(13) . . .
145(12) . . .
167(13) . . .
163(13) . . .
154(12) . . .
165(13) . . .
169(13) . . .
158(13) . . .
142(12) . . .
165(13) . . .
147(12) . . .
145(12) . . .
169(13) . . .
160(13) . . .
160(13) . . .
147(12) . . .
150(12) . . .
164(13) . . .
144(12) . . .
151(12) . . .
155(12) . . .
160(13) . . .
153(12) . . .
151(12) . . .
159(13) . . .
172(13) . . .
172(13) . . .
169(13) . . .
160(13) . . .
138(12) . . .
152(12) . . .
152(12) . . .
141(12) . . .
152(12) . . .
159(13) . . .
151(12) . . .
159(13) . . .
135(12) . . .
155(12) . . .
162(13) . . .
163(13) . . .
163(13) . . .
184(14) . . .
156(12) . . .
160(13) . . .
145(12) . . .
151(12) . . .
159(13) . . .
168(13) . . .
159(13) . . .
155(12) . . .
161(13) . . .
172(13) . . .
177(13) . . .
172(13) . . .
165(13) . . .
128(11) . . .
164(13) . . .
151(12) . . .
149(12) . . .
173(13) . . .
179(13) . . .
154(12) . . .
166(13) . . .
145(12) . . .
167(13) . . .
161(13) . . .
167(13) . . .
162(13) . . .
185(14) . . .
180(13) . . .
153(12) . . .
176(13) . . .
165(13) . . .
163(13) . . .
152(12) . . .
160(13) . . .
160(13) . . .
162(13) . . .
160(13) . . .
160(13) . . .
189(14) . . .
177(13) . . .
164(13) . . .
150(12) . . .
191(14) . . .
187(14) . . .
188(14) . . .
160(13) . . .
165(13) . . .
169(13) . . .
167(13) . . .
161(13) . . .
179(13) . . .
183(14) . . .
176(13) . . .
177(13) . . .
182(13) . . .
164(13) . . .
177(13) . . .
177(13) . . .
185(14) . . .
171(13) . . .
182(13) . . .
198(14) . . .
194(14) . . .
198(14) . . .
194(14) . . .
201(14) . . .
192(14) . . .
191(14) . . .
180(13) . . .
183(14) . . .
183(14) . . .
200(14) . . .
190(14) . . .
196(14) . . .
205(14) . . .
193(14) . . .
204(14) . . .
202(14) . . .
224(15) . . .
201(14) . . .
185(14) . . .
202(14) . . .
223(15) . . .
217(15) . . .
209(14) . . .
195(14) . . .
198(14) . . .
217(15) . . .
195(14) . . .
241(16) . . .
232(15) . . .
240(15) . . .
206(14) . . .
236(15) . . .
244(16) . . .
222(15) . . .
233(15) . . .
251(16) . . .
263(16) . . .
247(16) . . .
240(15) . . .
238(15) . . .
266(16) . . .
259(16) . . .
262(16) . . .
239(15) . . .
265(16) . . .
276(17) . . .
274(17) . . .
286(17) . . .
245(16) . . .
275(17) . . .
290(17) . . .
286(17) . . .
296(17) . . .
313(18) . . .
307(18) . . .
301(17) . . .
299(17) . . .
322(18) . . .
329(18) . . .
334(18) . . .
338(18) . . .
379(19) . . .
336(18) . . .
348(19) . . .
365(19) . . .
381(20) . . .
390(20) . . .
388(20) . . .
422(21) . . .
408(20) . . .
444(21) . . .
462(21) . . .
469(22) . . .
489(22) . . .
491(22) . . .
500(22) . . .
477(22) . . .
483(22) . . .
505(22) . . .
542(23) . . .
564(24) . . .
591(24) . . .
554(24) . . .
596(24) . . .
615(25) . . .
607(25) . . .
663(26) . . .
663(26) . . .
683(26) . . .
725(27) . . .
705(27) . . .
746(27) . . .
746(27) . . .
842(29) . . .
851(29) . . .
833(29) . . .
917(30) . . .
905(30) . . .
895(30) . . .
920(30) . . .
1025(32) . . .
1000(32) . . .
1015(32) . . .
1056(32) . . .
1111(33) . . .
1097(33) . . .
1155(34) . . .
1150(34) . . .
1218(35) . . .
1296(36) . . .
1337(37) . . .
1293(36) . . .
1314(36) . . .
1361(37) . . .
1378(37) . . .
1357(37) . . .
1432(38) . . .
1456(38) . . .
1397(37) . . .
1441(38) . . .
1442(38) . . .
1439(38) . . .
1431(38) . . .
1455(38) . . .
1434(38) . . .
1430(38) . . .
1373(37) . . .
1384(37) . . .
1330(36) . . .
1422(38) . . .
1351(37) . . .
1309(36) . . .
1290(36) . . .
1301(36) . . .
1258(35) . . .
1232(35) . . .
1243(35) . . .
1290(36) . . .
1157(34) . . .
1136(34) . . .
1145(34) . . .
1104(33) . . .
1047(32) . . .
963(31) . . .
972(31) . . .
969(31) . . .
925(30) . . .
903(30) . . .
932(31) . . .
837(29) . . .
830(29) . . .
785(28) . . .
748(27) . . .
713(27) . . .
704(27) . . .
700(26) . . .
643(25) . . .
645(25) . . .
611(25) . . .
616(25) . . .
619(25) . . .
591(24) . . .
550(23) . . .
502(22) . . .
510(23) . . .
507(23) . . .
493(22) . . .
503(22) . . .
477(22) . . .
460(21) . . .
417(20) . . .
413(20) . . .
421(21) . . .
441(21) . . .
396(20) . . .
401(20) . . .
394(20) . . .
364(19) . . .
361(19) . . .
353(19) . . .
352(19) . . .
334(18) . . .
357(19) . . .
333(18) . . .
328(18) . . .
302(17) . . .
294(17) . . .
291(17) . . .
299(17) . . .
273(17) . . .
286(17) . . .
297(17) . . .
279(17) . . .
281(17) . . .
281(17) . . .
264(16) . . .
266(16) . . .
262(16) . . .
252(16) . . .
255(16) . . .
283(17) . . .
233(15) . . .
282(17) . . .
246(16) . . .
241(16) . . .
232(15) . . .
249(16) . . .
245(16) . . .
229(15) . . .
226(15) . . .
232(15) . . .
237(15) . . .
227(15) . . .
236(15) . . .
229(15) . . .
210(14) . . .
211(15) . . .
206(14) . . .
208(14) . . .
223(15) . . .
207(14) . . .
177(13) . . .
203(14) . . .
197(14) . . .
207(14) . . .
201(14) . . .
186(14) . . .
196(14) . . .
190(14) . . .
223(15) . . .
205(14) . . .
204(14) . . .
186(14) . . .
206(14) . . .
203(14) . . .
209(14) . . .
202(14) . . .
193(14) . . .
192(14) . . .
187(14) . . .
202(14) . . .
186(14) . . .
179(13) . . .
159(13) . . .
174(13) . . .
170(13) . . .
177(13) . . .
174(13) . . .
192(14) . . .
177(13) . . .
164(13) . . .
170(13) . . .
187(14) . . .
178(13) . . .
165(13) . . .
173(13) . . .
172(13) . . .
183(14) . . .
166(13) . . .
182(13) . . .
166(13) . . .
153(12) . . .
177(13) . . .
166(13) . . .
179(13) . . .
161(13) . . .
177(13) . . .
182(13) . . .
182(13) . . .
165(13) . . .
166(13) . . .
162(13) . . .
153(12) . . .
161(13) . . .
164(13) . . .
161(13) . . .
161(13) . . .
168(13) . . .
172(13) . . .
174(13) . . .
173(13) . . .
165(13) . . .
169(13) . . .
165(13) . . .
135(12) . . .
163(13) . . .
158(13) . . .
160(13) . . .
157(13) . . .
166(13) . . .
155(12) . . .
159(13) . . .
156(12) . . .
139(12) . . .
176(13) . . .
161(13) . . .
169(13) . . .
155(12) . . .
166(13) . . .
165(13) . . .
134(12) . . .
162(13) . . .
160(13) . . .
162(13) . . .
165(13) . . .
152(12) . . .
127(11) . . .
161(13) . . .
128(11) . . .
148(12) . . .
142(12) . . .
142(12) . . .
138(12) . . .
141(12) . . .
155(12) . . .
139(12) . . .
142(12) . . .
139(12) . . .
151(12) . . .
149(12) . . .
144(12) . . .
156(12) . . .
135(12) . . .
145(12) . . .
148(12) . . .
152(12) . . .
153(12) . . .
140(12) . . .
131(11) . . .
156(12) . . .
140(12) . . .
162(13) . . .
147(12) . . .
125(11) . . .
152(12) . . .
147(12) . . .
150(12) . . .
139(12) . . .
155(12) . . .
137(12) . . .
149(12) . . .
135(12) . . .
145(12) . . .
137(12) . . .
170(13) . . .
142(12) . . .
142(12) . . .
133(12) . . .
131(11) . . .
146(12) . . .
133(12) . . .
116(11) . . .
142(12) . . .
172(13) . . .
151(12) . . .
144(12) . . .
159(13) . . .
157(13) . . .
142(12) . . .
134(12) . . .
147(12) . . .
135(12) . . .
152(12) . . .
150(12) . . .
128(11) . . .
134(12) . . .
136(12) . . .
119(11) . . .
142(12) . . .
143(12) . . .
150(12) . . .
150(12) . . .
146(12) . . .
163(13) . . .
130(11) . . .
141(12) . . .
159(13) . . .
142(12) . . .
146(12) . . .
143(12) . . .
154(12) . . .
138(12) . . .
141(12) . . .
124(11) . . .
150(12) . . .
153(12) . . .
135(12) . . .
135(12) . . .
141(12) . . .
161(13) . . .
138(12) . . .
148(12) . . .
138(12) . . .
154(12) . . .
141(12) . . .
142(12) . . .
157(13) . . .
144(12) . . .
148(12) . . .
148(12) . . .
138(12) . . .
152(12) . . .
121(11) . . .
150(12) . . .
148(12) . . .
134(12) . . .
165(13) . . .
153(12) . . .
130(11) . . .
159(13) . . .
151(12) . . .
134(12) . . .
158(13) . . .
123(11) . . .
129(11) . . .
141(12) . . .
150(12) . . .
137(12) . . .
136(12) . . .
143(12) . . .
155(12) . . .
146(12) . . .
155(12) . . .
148(12) . . .
129(11) . . .
135(12) . . .
129(11) . . .
136(12) . . .
143(12) . . .
135(12) . . .
139(12) . . .
136(12) . . .
143(12) . . .
130(11) . . .
136(12) . . .
134(12) . . .
148(12) . . .
142(12) . . .
136(12) . . .
147(12) . . .
166(13) . . .
139(12) . . .
133(12) . . .
129(11) . . .
153(12) . . .
144(12) . . .
133(12) . . .
133(12) . . .
153(12) . . .
150(12) . . .
134(12) . . .
133(12) . . .
137(12) . . .
146(12) . . .
124(11) . . .
128(11) . . .
146(12) . . .
137(12) . . .
133(12) . . .
154(12) . . .
134(12) . . .
134(12) . . .
138(12) . . .
125(11) . . .
121(11) . . .
134(12) . . .
143(12) . . .
135(12) . . .
144(12) . . .
137(12) . . .
128(11) . . .
128(11) . . .
122(11) . . .
139(12) . . .
131(11) . . .
137(12) . . .
131(11) . . .
113(11) . . .
119(11) . . .
120(11) . . .
133(12) . . .
135(12) . . .
132(11) . . .
142(12) . . .
125(11) . . .
142(12) . . .
141(12) . . .
137(12) . . .
148(12) . . .
147(12) . . .
139(12) . . .
139(12) . . .
156(12) . . .
142(12) . . .
133(12) . . .
141(12) . . .
132(11) . . .
144(12) . . .
131(11) . . .
120(11) . . .
138(12) . . .
128(11) . . .
128(11) . . .
142(12) . . .
141(12) . . .
138(12) . . .
151(12) . . .
128(11) . . .
137(12) . . .
139(12) . . .
119(11) . . .
132(11) . . .
139(12) . . .
147(12) . . .
132(11) . . .
126(11) . . .
135(12) . . .
121(11) . . .
149(12) . . .
115(11) . . .
135(12) . . .
121(11) . . .
130(11) . . .
130(11) . . .
123(11) . . .
140(12) . . .
135(12) . . .
150(12) . . .
133(12) . . .
138(12) . . .
138(12) . . .
137(12) . . .
135(12) . . .
156(12) . . .
147(12) . . .
164(13) . . .
144(12) . . .
134(12) . . .
119(11) . . .
155(12) . . .
118(11) . . .
130(11) . . .
113(11) . . .
144(12) . . .
146(12) . . .
137(12) . . .
134(12) . . .
120(11) . . .
132(11) . . .
142(12) . . .
158(13) . . .
155(12) . . .
117(11) . . .
132(11) . . .
147(12) . . .
129(11) . . .
127(11) . . .
130(11) . . .
132(11) . . .
136(12) . . .
161(13) . . .
145(12) . . .
129(11) . . .
142(12) . . .
136(12) . . .
143(12) . . .
131(11) . . .
139(12) . . .
150(12) . . .
149(12) . . .
140(12) . . .
115(11) . . .
174(13) . . .
141(12) . . .
158(13) . . .
128(11) . . .
134(12) . . .
134(12) . . .
134(12) . . .
122(11) . . .
138(12) . . .
141(12) . . .
140(12) . . .
152(12) . . .
129(11) . . .
134(12) . . .
132(11) . . .
138(12) . . .
132(11) . . .
127(11) . . .
147(12) . . .
112(11) . . .
126(11) . . .
137(12) . . .
133(12) . . .
143(12) . . .
131(11) . . .
137(12) . . .
146(12) . . .
123(11) . . .
122(11) . . .
126(11) . . .
122(11) . . .
126(11) . . .
140(12) . . .
141(12) . . .
150(12) . . .
138(12) . . .
141(12) . . .
128(11) . . .
127(11) . . .
118(11) . . .
146(12) . . .
149(12) . . .
146(12) . . .
120(11) . . .
139(12) . . .
126(11) . . .
123(11) . . .
128(11) . . .
146(12) . . .
132(11) . . .
134(12) . . .
140(12) . . .
143(12) . . .
146(12) . . .
130(11) . . .
159(13) . . .
130(11) . . .
135(12) . . .
141(12) . . .
123(11) . . .
140(12) . . .
135(12) . . .
148(12) . . .
128(11) . . .
139(12) . . .
130(11) . . .
140(12) . . .
130(11) . . .
123(11) . . .
121(11) . . .
128(11) . . .
144(12) . . .
137(12) . . .
133(12) . . .
138(12) . . .
114(11) . . .
138(12) . . .
122(11) . . .
139(12) . . .
140(12) . . .
120(11) . . .
138(12) . . .
155(12) . . .
107(10) . . .
134(12) . . .
142(12) . . .
159(13) . . .
129(11) . . .
143(12) . . .
141(12) . . .
167(13) . . .
150(12) . . .
158(13) . . .
147(12) . . .
149(12) . . .
153(12) . . .
157(13) . . .
150(12) . . .
142(12) . . .
163(13) . . .
143(12) . . .
160(13) . . .
198(14) . . .
183(14) . . .
144(12) . . .
145(12) . . .
159(13) . . .
149(12) . . .
152(12) . . .
144(12) . . .
161(13) . . .
164(13) . . .
140(12) . . .
122(11) . . .
149(12) . . .
161(13) . . .
142(12) . . .
138(12) . . .
140(12) . . .
135(12) . . .
151(12) . . .
169(13) . . .
200(14) . . .
200(14) . . .
193(14) . . .
172(13) . . .
148(12) . . .
150(12) . . .
161(13) . . .
127(11) . . .
140(12) . . .
127(11) . . .
141(12) . . .
149(12) . . .
126(11) . . .
138(12) . . .
151(12) . . .
150(12) . . .
144(12) . . .
131(11) . . .
140(12) . . .
143(12) . . .
137(12) . . .
134(12) . . .
138(12) . . .
151(12) . . .
139(12) . . .
147(12) . . .
137(12) . . .
129(11) . . .
139(12) . . .
128(11) . . .
146(12) . . .
130(11) . . .
124(11) . . .
139(12) . . .
145(12) . . .
127(11) . . .
134(12) . . .
129(11) . . .
134(12) . . .
123(11) . . .
138(12) . . .
127(11) . . .
122(11) . . .
137(12) . . .
140(12) . . .
146(12) . . .
143(12) . . .
134(12) . . .
133(12) . . .
138(12) . . .
134(12) . . .
149(12) . . .
144(12) . . .
146(12) . . .
141(12) . . .
142(12) . . .
149(12) . . .
115(11) . . .
154(12) . . .
153(12) . . .
157(13) . . .
125(11) . . .
138(12) . . .
137(12) . . .
132(11) . . .
137(12) . . .
125(11) . . .
131(11) . . .
106(10) . . .
143(12) . . .
140(12) . . .
126(11) . . .
130(11) . . .
127(11) . . .
147(12) . . .
126(11) . . .
132(11) . . .
126(11) . . .
122(11) . . .
144(12) . . .
111(11) . . .
124(11) . . .
117(11) . . .
124(11) . . .
130(11) . . .
164(13) . . .
158(13) . . .
135(12) . . .
137(12) . . .
151(12) . . .
135(12) . . .
142(12) . . .
134(12) . . .
142(12) . . .
128(11) . . .
128(11) . . .
130(11) . . .
128(11) . . .
142(12) . . .
118(11) . . .
136(12) . . .
135(12) . . .
113(11) . . .
137(12) . . .
137(12) . . .
150(12) . . .
145(12) . . .
120(11) . . .
145(12) . . .
130(11) . . .
130(11) . . .
125(11) . . .
123(11) . . .
138(12) . . .
135(12) . . .
119(11) . . .
155(12) . . .
137(12) . . .
122(11) . . .
141(12) . . .
136(12) . . .
126(11) . . .
125(11) . . .
120(11) . . .
157(13) . . .
145(12) . . .
130(11) . . .
137(12) . . .
138(12) . . .
134(12) . . .
133(12) . . .
136(12) . . .
130(11) . . .
137(12) . . .
130(11) . . .
147(12) . . .
150(12) . . .
137(12) . . .
113(11) . . .
116(11) . . .
128(11) . . .
122(11) . . .
133(12) . . .
134(12) . . .
137(12) . . .
129(11) . . .
114(11) . . .
125(11) . . .
133(12) . . .
138(12) . . .
126(11) . . .
108(10) . . .
137(12) . . .
123(11) . . .
130(11) . . .
138(12) . . .
127(11) . . .
128(11) . . .
131(11) . . .
141(12) . . .
126(11) . . .
146(12) . . .
125(11) . . .
140(12) . . .
132(11) . . .
124(11) . . .
135(12) . . .
128(11) . . .
133(12) . . .
127(11) . . .
136(12) . . .
133(12) . . .
144(12) . . .
127(11) . . .
133(12) . . .
139(12) . . .
127(11) . . .
128(11) . . .
131(11) . . .
137(12) . . .
129(11) . . .
129(11) . . .
121(11) . . .
132(11) . . .
123(11) . . .
129(11) . . .
125(11) . . .
123(11) . . .
127(11) . . .
132(11) . . .
130(11) . . .
134(12) . . .
119(11) . . .
117(11) . . .
121(11) . . .
114(11) . . .
116(11) . . .
119(11) . . .
141(12) . . .
116(11) . . .
137(12) . . .
131(11) . . .
135(12) . . .
135(12) . . .
134(12) . . .
143(12) . . .
127(11) . . .
131(11) . . .
122(11) . . .
127(11) . . .
147(12) . . .
130(11) . . .
149(12) . . .
135(12) . . .
145(12) . . .
126(11) . . .
126(11) . . .
138(12) . . .
155(12) . . .
125(11) . . .
136(12) . . .
161(13) . . .
124(11) . . .
130(11) . . .
130(11) . . .
119(11) . . .
107(10) . . .
121(11) . . .
125(11) . . .
136(12) . . .
133(12) . . .
118(11) . . .
120(11) . . .
130(11) . . .
125(11) . . .
130(11) . . .
124(11) . . .
125(11) . . .
130(11) . . .
135(12) . . .
139(12) . . .
132(11) . . .
134(12) . . .
135(12) . . .
129(11) . . .
140(12) . . .
118(11) . . .
121(11) . . .
120(11) . . .
129(11) . . .
136(12) . . .
121(11) . . .
140(12) . . .
109(10) . . .
122(11) . . .
131(11) . . .
133(12) . . .
137(12) . . .
133(12) . . .
117(11) . . .
122(11) . . .
138(12) . . .
141(12) . . .
111(11) . . .
134(12) . . .
128(11) . . .
141(12) . . .
136(12) . . .
134(12) . . .
142(12) . . .
125(11) . . .
131(11) . . .
135(12) . . .
124(11) . . .
135(12) . . .
134(12) . . .
123(11) . . .
113(11) . . .
126(11) . . .
119(11) . . .
149(12) . . .
124(11) . . .
126(11) . . .
139(12) . . .
147(12) . . .
121(11) . . .
142(12) . . .
133(12) . . .
133(12) . . .
125(11) . . .
149(12) . . .
131(11) . . .
131(11) . . .
122(11) . . .
128(11) . . .
136(12) . . .
139(12) . . .
144(12) . . .
121(11) . . .
118(11) . . .
139(12) . . .
120(11) . . .
133(12) . . .
134(12) . . .
129(11) . . .
145(12) . . .
146(12) . . .
123(11) . . .
120(11) . . .
116(11) . . .
135(12) . . .
131(11) . . .
136(12) . . .
122(11) . . .
114(11) . . .
111(11) . . .
130(11) . . .
111(11) . . .
111(11) . . .
123(11) . . .
118(11) . . .
136(12) . . .
125(11) . . .
119(11) . . .
127(11) . . .
132(11) . . .
151(12) . . .
151(12) . . .
133(12) . . .
132(11) . . .
111(11) . . .
139(12) . . .
126(11) . . .
141(12) . . .
114(11) . . .
104(10) . . .
130(11) . . .
112(11) . . .
117(11) . . .
118(11) . . .
118(11) . . .
129(11) . . .
116(11) . . .
150(12) . . .
143(12) . . .
147(12) . . .
131(11) . . .
130(11) . . .
127(11) . . .
144(12) . . .
136(12) . . .
118(11) . . .
120(11) . . .
124(11) . . .
132(11) . . .
155(12) . . .
129(11) . . .
113(11) . . .
136(12) . . .
125(11) . . .
137(12) . . .
121(11) . . .
131(11) . . .
136(12) . . .
123(11) . . .
125(11) . . .
126(11) . . .
129(11) . . .
139(12) . . .
127(11) . . .
124(11) . . .
150(12) . . .
157(13) . . .
135(12) . . .
138(12) . . .
144(12) . . .
139(12) . . .
117(11) . . .
124(11) . . .
130(11) . . .
138(12) . . .
142(12) . . .
136(12) . . .
126(11) . . .
125(11) . . .
120(11) . . .
130(11) . . .
138(12) . . .
148(12) . . .
108(10) . . .
118(11) . . .
107(10) . . .
155(12) . . .
121(11) . . .
131(11) . . .
126(11) . . .
128(11) . . .
137(12) . . .
136(12) . . .
129(11) . . .
138(12) . . .
135(12) . . .
117(11) . . .
127(11) . . .
147(12) . . .
114(11) . . .
133(12) . . .
111(11) . . .
125(11) . . .
129(11) . . .
136(12) . . .
140(12) . . .
139(12) . . .
116(11) . . .
141(12) . . .
124(11) . . .
133(12) . . .
143(12) . . .
150(12) . . .
145(12) . . .
140(12) . . .
127(11) . . .
118(11) . . .
144(12) . . .
126(11) . . .
127(11) . . .
117(11) . . .
134(12) . . .
149(12) . . .
126(11) . . .
128(11) . . .
116(11) . . .
122(11) . . .
129(11) . . .
127(11) . . .
133(12) . . .
115(11) . . .
120(11) . . .
141(12) . . .
138(12) . . .
133(12) . . .
109(10) . . .
133(12) . . .
149(12) . . .
129(11) . . .
129(11) . . .
119(11) . . .
135(12) . . .
132(11) . . .
130(11) . . .
132(11) . . .
138(12) . . .
136(12) . . .
138(12) . . .
144(12) . . .
139(12) . . .
130(11) . . .
134(12) . . .
124(11) . . .
118(11) . . .
137(12) . . .
126(11) . . .
133(12) . . .
124(11) . . .
116(11) . . .
142(12) . . .
135(12) . . .
128(11) . . .
142(12) . . .
145(12) . . .
122(11) . . .
125(11) . . .
122(11) . . .
128(11) . . .
127(11) . . .
113(11) . . .
136(12) . . .
121(11) . . .
139(12) . . .
110(10) . . .
107(10) . . .
125(11) . . .
131(11) . . .
134(12) . . .
130(11) . . .
131(11) . . .
144(12) . . .
118(11) . . .
139(12) . . .
134(12) . . .
116(11) . . .
124(11) . . .
136(12) . . .
145(12) . . .
131(11) . . .
141(12) . . .
134(12) . . .
117(11) . . .
133(12) . . .
125(11) . . .
131(11) . . .
139(12) . . .
137(12) . . .
135(12) . . .
121(11) . . .
112(11) . . .
117(11) . . .
149(12) . . .
117(11) . . .
124(11) . . .
122(11) . . .
119(11) . . .
127(11) . . .
116(11) . . .
126(11) . . .
130(11) . . .
122(11) . . .
131(11) . . .
145(12) . . .
136(12) . . .
114(11) . . .
142(12) . . .
113(11) . . .
137(12) . . .
113(11) . . .
129(11) . . .
146(12) . . .
140(12) . . .
127(11) . . .
145(12) . . .
127(11) . . .
139(12) . . .
150(12) . . .
141(12) . . .
133(12) . . .
117(11) . . .
116(11) . . .
126(11) . . .
121(11) . . .
128(11) . . .
136(12) . . .
116(11) . . .
107(10) . . .
140(12) . . .
121(11) . . .
129(11) . . .
130(11) . . .
118(11) . . .
98(10) . . .
124(11) . . .
127(11) . . .
118(11) . . .
125(11) . . .
111(11) . . .
139(12) . . .
122(11) . . .
123(11) . . .
117(11) . . .
126(11) . . .
117(11) . . .
137(12) . . .
122(11) . . .
143(12) . . .
133(12) . . .
128(11) . . .
134(12) . . .
144(12) . . .
166(13) . . .
121(11) . . .
145(12) . . .
125(11) . . .
122(11) . . .
135(12) . . .
120(11) . . .
121(11) . . .
124(11) . . .
120(11) . . .
126(11) . . .
117(11) . . .
133(12) . . .
130(11) . . .
107(10) . . .
114(11) . . .
147(12) . . .
141(12) . . .
112(11) . . .
116(11) . . .
131(11) . . .
131(11) . . .
132(11) . . .
124(11) . . .
117(11) . . .
129(11) . . .
134(12) . . .
133(12) . . .
137(12) . . .
122(11) . . .
124(11) . . .
126(11) . . .
116(11) . . .
135(12) . . .
124(11) . . .
134(12) . . .
125(11) . . .
134(12) . . .
146(12) . . .
138(12) . . .
126(11) . . .
118(11) . . .
126(11) . . .
155(12) . . .
147(12) . . .
124(11) . . .
110(10) . . .
139(12) . . .
124(11) . . .
128(11) . . .
123(11) . . .
127(11) . . .
133(12) . . .
132(11) . . .
135(12) . . .
136(12) . . .
110(10) . . .
117(11) . . .
124(11) . . .
124(11) . . .
126(11) . . .
125(11) . . .
140(12) . . .
139(12) . . .
127(11) . . .
128(11) . . .
125(11) . . .
128(11) . . .
122(11) . . .
124(11) . . .
109(10) . . .
132(11) . . .
129(11) . . .
124(11) . . .
124(11) . . .
117(11) . . .
140(12) . . .
150(12) . . .
137(12) . . .
147(12) . . .
125(11) . . .
134(12) . . .
132(11) . . .
134(12) . . .
128(11) . . .
122(11) . . .
129(11) . . .
124(11) . . .
117(11) . . .
126(11) . . .
131(11) . . .
153(12) . . .
133(12) . . .
136(12) . . .
115(11) . . .
117(11) . . .
129(11) . . .
118(11) . . .
120(11) . . .
128(11) . . .
131(11) . . .
115(11) . . .
126(11) . . .
120(11) . . .
103(10) . . .
116(11) . . .
126(11) . . .
114(11) . . .
114(11) . . .
132(11) . . .
111(11) . . .
119(11) . . .
121(11) . . .
131(11) . . .
122(11) . . .
123(11) . . .
124(11) . . .
108(10) . . .
115(11) . . .
141(12) . . .
101(10) . . .
130(11) . . .
135(12) . . .
119(11) . . .
134(12) . . .
131(11) . . .
145(12) . . .
138(12) . . .
159(13) . . .
121(11) . . .
131(11) . . .
130(11) . . .
144(12) . . .
116(11) . . .
124(11) . . .
121(11) . . .
139(12) . . .
124(11) . . .
142(12) . . .
138(12) . . .
129(11) . . .
117(11) . . .
134(12) . . .
135(12) . . .
121(11) . . .
113(11) . . .
148(12) . . .
113(11) . . .
143(12) . . .
141(12) . . .
146(12) . . .
128(11) . . .
128(11) . . .
135(12) . . .
126(11) . . .
142(12) . . .
144(12) . . .
136(12) . . .
125(11) . . .
127(11) . . .
123(11) . . .
118(11) . . .
135(12) . . .
145(12) . . .
135(12) . . .
130(11) . . .
159(13) . . .
134(12) . . .
109(10) . . .
128(11) . . .
138(12) . . .
131(11) . . .
129(11) . . .
113(11) . . .
142(12) . . .
126(11) . . .
125(11) . . .
137(12) . . .
104(10) . . .
119(11) . . .
135(12) . . .
127(11) . . .
125(11) . . .
131(11) . . .
119(11) . . .
142(12) . . .
97(10) . . .
141(12) . . .
121(11) . . .
114(11) . . .
123(11) . . .
115(11) . . .
130(11) . . .
116(11) . . .
119(11) . . .
123(11) . . .
125(11) . . .
127(11) . . .
126(11) . . .
126(11) . . .
113(11) . . .
128(11) . . .
121(11) . . .
120(11) . . .
143(12) . . .
115(11) . . .
129(11) . . .
138(12) . . .
127(11) . . .
126(11) . . .
129(11) . . .
146(12) . . .
136(12) . . .
124(11) . . .
127(11) . . .
144(12) . . .
132(11) . . .
130(11) . . .
120(11) . . .
151(12) . . .
129(11) . . .
114(11) . . .
121(11) . . .
126(11) . . .
121(11) . . .
117(11) . . .
132(11) . . .
108(10) . . .
157(13) . . .
118(11) . . .
127(11) . . .
132(11) . . .
122(11) . . .
123(11) . . .
135(12) . . .
134(12) . . .
135(12) . . .
131(11) . . .
131(11) . . .
137(12) . . .
127(11) . . .
144(12) . . .
118(11) . . .
135(12) . . .
129(11) . . .
126(11) . . .
127(11) . . .
108(10) . . .
122(11) . . .
129(11) . . .
123(11) . . .
107(10) . . .
122(11) . . .
123(11) . . .
106(10) . . .
116(11) . . .
124(11) . . .
121(11) . . .
110(10) . . .
120(11) . . .
118(11) . . .
139(12) . . .
137(12) . . .
122(11) . . .
133(12) . . .
131(11) . . .
104(10) . . .
131(11) . . .
132(11) . . .
120(11) . . .
129(11) . . .
109(10) . . .
129(11) . . .
138(12) . . .
133(12) . . .
134(12) . . .
116(11) . . .
128(11) . . .
119(11) . . .
116(11) . . .
126(11) . . .
114(11) . . .
113(11) . . .
129(11) . . .
123(11) . . .
112(11) . . .
144(12) . . .
129(11) . . .
127(11) . . .
119(11) . . .
124(11) . . .
122(11) . . .
136(12) . . .
139(12) . . .
119(11) . . .
126(11) . . .
134(12) . . .
139(12) . . .
104(10) . . .
129(11) . . .
128(11) . . .
128(11) . . .
137(12) . . .
128(11) . . .
118(11) . . .
107(10) . . .
129(11) . . .
134(12) . . .
130(11) . . .
139(12) . . .
116(11) . . .
142(12) . . .
145(12) . . .
121(11) . . .
125(11) . . .
114(11) . . .
118(11) . . .
125(11) . . .
114(11) . . .
134(12) . . .
125(11) . . .
116(11) . . .
136(12) . . .
139(12) . . .
139(12) . . .
140(12) . . .
112(11) . . .
135(12) . . .
129(11) . . .
132(11) . . .
131(11) . . .
131(11) . . .
123(11) . . .
118(11) . . .
132(11) . . .
132(11) . . .
133(12) . . .
133(12) . . .
117(11) . . .
125(11) . . .
121(11) . . .
109(10) . . .
115(11) . . .
112(11) . . .
128(11) . . .
119(11) . . .
121(11) . . .
134(12) . . .
131(11) . . .
136(12) . . .
114(11) . . .
115(11) . . .
138(12) . . .
114(11) . . .
124(11) . . .
115(11) . . .
140(12) . . .
122(11) . . .
126(11) . . .
115(11) . . .
121(11) . . .
124(11) . . .
122(11) . . .
119(11) . . .
109(10) . . .
142(12) . . .
115(11) . . .
120(11) . . .
131(11) . . .
121(11) . . .
120(11) . . .
117(11) . . .
141(12) . . .
126(11) . . .
132(11) . . .
137(12) . . .
129(11) . . .
130(11) . . .
106(10) . . .
128(11) . . .
129(11) . . .
131(11) . . .
120(11) . . .
129(11) . . .
138(12) . . .
154(12) . . .
120(11) . . .
138(12) . . .
123(11) . . .
130(11) . . .
112(11) . . .
117(11) . . .
117(11) . . .
135(12) . . .
133(12) . . .
131(11) . . .
115(11) . . .
120(11) . . .
131(11) . . .
139(12) . . .
123(11) . . .
125(11) . . .
128(11) . . .
124(11) . . .
128(11) . . .
140(12) . . .
121(11) . . .
137(12) . . .
110(10) . . .
124(11) . . .
123(11) . . .
123(11) . . .
134(12) . . .
108(10) . . .
115(11) . . .
125(11) . . .
135(12) . . .
110(10) . . .
118(11) . . .
131(11) . . .
149(12) . . .
145(12) . . .
137(12) . . .
125(11) . . .
123(11) . . .
124(11) . . .
122(11) . . .
116(11) . . .
129(11) . . .
134(12) . . .
135(12) . . .
127(11) . . .
133(12) . . .
129(11) . . .
117(11) . . .
120(11) . . .
113(11) . . .
117(11) . . .
124(11) . . .
135(12) . . .
127(11) . . .
135(12) . . .
112(11) . . .
114(11) . . .
139(12) . . .
132(11) . . .
129(11) . . .
134(12) . . .
137(12) . . .
125(11) . . .
113(11) . . .
127(11) . . .
145(12) . . .
126(11) . . .
139(12) . . .
125(11) . . .
150(12) . . .
132(11) . . .
140(12) . . .
128(11) . . .
115(11) . . .
136(12) . . .
138(12) . . .
134(12) . . .
122(11) . . .
141(12) . . .
136(12) . . .
132(11) . . .
119(11) . . .
133(12) . . .
107(10) . . .
126(11) . . .
129(11) . . .
114(11) . . .
130(11) . . .
141(12) . . .
133(12) . . .
126(11) . . .
111(11) . . .
131(11) . . .
113(11) . . .
122(11) . . .
119(11) . . .
119(11) . . .
120(11) . . .
149(12) . . .
143(12) . . .
127(11) . . .
139(12) . . .
132(11) . . .
134(12) . . .
122(11) . . .
137(12) . . .
137(12) . . .
141(12) . . .
116(11) . . .
130(11) . . .
137(12) . . .
111(11) . . .
105(10) . . .
112(11) . . .
120(11) . . .
126(11) . . .
127(11) . . .
146(12) . . .
110(10) . . .
121(11) . . .
137(12) . . .
115(11) . . .
118(11) . . .
128(11) . . .
123(11) . . .
120(11) . . .
127(11) . . .
114(11) . . .
122(11) . . .
128(11) . . .
127(11) . . .
114(11) . . .
120(11) . . .
121(11) . . .
112(11) . . .
119(11) . . .
140(12) . . .
131(11) . . .
130(11) . . .
132(11) . . .
112(11) . . .
121(11) . . .
118(11) . . .
129(11) . . .
135(12) . . .
125(11) . . .
131(11) . . .
104(10) . . .
124(11) . . .
120(11) . . .
124(11) . . .
121(11) . . .
131(11) . . .
115(11) . . .
129(11) . . .
121(11) . . .
130(11) . . .
124(11) . . .
131(11) . . .
117(11) . . .
117(11) . . .
120(11) . . .
132(11) . . .
112(11) . . .
124(11) . . .
126(11) . . .
111(11) . . .
106(10) . . .
126(11) . . .
135(12) . . .
129(11) . . .
139(12) . . .
131(11) . . .
128(11) . . .
134(12) . . .
129(11) . . .
118(11) . . .
129(11) . . .
122(11) . . .
116(11) . . .
141(12) . . .
129(11) . . .
119(11) . . .
127(11) . . .
143(12) . . .
123(11) . . .
112(11) . . .
119(11) . . .
125(11) . . .
131(11) . . .
111(11) . . .
122(11) . . .
134(12) . . .
131(11) . . .
119(11) . . .
122(11) . . .
117(11) . . .
120(11) . . .
145(12) . . .
110(10) . . .
126(11) . . .
95(10) . . .
135(12) . . .
114(11) . . .
115(11) . . .
120(11) . . .
128(11) . . .
136(12) . . .
119(11) . . .
135(12) . . .
124(11) . . .
130(11) . . .
120(11) . . .
133(12) . . .
126(11) . . .
133(12) . . .
123(11) . . .
130(11) . . .
110(10) . . .
120(11) . . .
119(11) . . .
134(12) . . .
124(11) . . .
119(11) . . .
111(11) . . .
111(11) . . .
117(11) . . .
122(11) . . .
135(12) . . .
136(12) . . .
135(12) . . .
117(11) . . .
114(11) . . .
107(10) . . .
117(11) . . .
128(11) . . .
106(10) . . .
129(11) . . .
128(11) . . .
120(11) . . .
119(11) . . .
122(11) . . .
109(10) . . .
111(11) . . .
126(11) . . .
144(12) . . .
120(11) . . .
121(11) . . .
130(11) . . .
127(11) . . .
123(11) . . .
125(11) . . .
122(11) . . .
110(10) . . .
118(11) . . .
124(11) . . .
131(11) . . .
118(11) . . .
135(12) . . .
123(11) . . .
120(11) . . .
115(11) . . .
118(11) . . .
131(11) . . .
131(11) . . .
129(11) . . .
140(12) . . .
115(11) . . .
126(11) . . .
138(12) . . .
115(11) . . .
114(11) . . .
127(11) . . .
144(12) . . .
112(11) . . .
126(11) . . .
103(10) . . .
130(11) . . .
106(10) . . .
142(12) . . .
126(11) . . .
126(11) . . .
117(11) . . .
130(11) . . .
117(11) . . .
127(11) . . .
109(10) . . .
136(12) . . .
117(11) . . .
137(12) . . .
120(11) . . .
102(10) . . .
114(11) . . .
117(11) . . .
127(11) . . .
132(11) . . .
138(12) . . .
103(10) . . .
115(11) . . .
130(11) . . .
136(12) . . .
134(12) . . .
118(11) . . .
130(11) . . .
132(11) . . .
130(11) . . .
112(11) . . .
139(12) . . .
107(10) . . .
131(11) . . .
126(11) . . .
135(12) . . .
124(11) . . .
118(11) . . .
85(9) . . .
126(11) . . .
111(11) . . .
104(10) . . .
126(11) . . .
131(11) . . .
134(12) . . .
127(11) . . .
132(11) . . .
108(10) . . .
118(11) . . .
134(12) . . .
116(11) . . .
115(11) . . .
117(11) . . .
125(11) . . .
127(11) . . .
125(11) . . .
135(12) . . .
129(11) . . .
137(12) . . .
147(12) . . .
129(11) . . .
110(10) . . .
129(11) . . .
127(11) . . .
126(11) . . .
126(11) . . .
118(11) . . .
130(11) . . .
121(11) . . .
121(11) . . .
125(11) . . .
138(12) . . .
115(11) . . .
117(11) . . .
124(11) . . .
115(11) . . .
131(11) . . .
124(11) . . .
108(10) . . .
126(11) . . .
132(11) . . .
130(11) . . .
119(11) . . .
103(10) . . .
136(12) . . .
135(12) . . .
129(11) . . .
135(12) . . .
132(11) . . .
130(11) . . .
131(11) . . .
118(11) . . .
141(12) . . .
129(11) . . .
121(11) . . .
127(11) . . .
144(12) . . .
127(11) . . .
136(12) . . .
125(11) . . .
132(11) . . .
136(12) . . .
123(11) . . .
123(11) . . .
125(11) . . .
118(11) . . .
121(11) . . .
141(12) . . .
101(10) . . .
149(12) . . .
128(11) . . .
130(11) . . .
128(11) . . .
129(11) . . .
138(12) . . .
117(11) . . .
139(12) . . .
136(12) . . .
154(12) . . .
126(11) . . .
126(11) . . .
134(12) . . .
138(12) . . .
118(11) . . .
128(11) . . .
131(11) . . .
130(11) . . .
124(11) . . .
122(11) . . .
142(12) . . .
129(11) . . .
141(12) . . .
129(11) . . .
119(11) . . .
139(12) . . .
134(12) . . .
157(13) . . .
140(12) . . .
150(12) . . .
136(12) . . .
141(12) . . .
109(10) . . .
129(11) . . .
124(11) . . .
151(12) . . .
114(11) . . .
152(12) . . .
124(11) . . .
132(11) . . .
129(11) . . .
148(12) . . .
129(11) . . .
133(12) . . .
144(12) . . .
144(12) . . .
145(12) . . .
142(12) . . .
137(12) . . .
126(11) . . .
136(12) . . .
150(12) . . .
145(12) . . .
137(12) . . .
137(12) . . .
132(11) . . .
139(12) . . .
136(12) . . .
147(12) . . .
137(12) . . .
156(12) . . .
149(12) . . .
138(12) . . .
149(12) . . .
130(11) . . .
148(12) . . .
155(12) . . .
149(12) . . .
147(12) . . .
152(12) . . .
146(12) . . .
164(13) . . .
172(13) . . .
173(13) . . .
136(12) . . .
168(13) . . .
145(12) . . .
148(12) . . .
155(12) . . .
156(12) . . .
156(12) . . .
153(12) . . .
162(13) . . .
161(13) . . .
148(12) . . .
158(13) . . .
158(13) . . .
138(12) . . .
179(13) . . .
171(13) . . .
157(13) . . .
169(13) . . .
162(13) . . .
180(13) . . .
173(13) . . .
176(13) . . .
163(13) . . .
177(13) . . .
176(13) . . .
189(14) . . .
160(13) . . .
195(14) . . .
207(14) . . .
183(14) . . .
184(14) . . .
192(14) . . .
186(14) . . .
195(14) . . .
204(14) . . .
200(14) . . .
210(14) . . .
183(14) . . .
234(15) . . .
206(14) . . .
193(14) . . .
206(14) . . .
219(15) . . .
258(16) . . .
209(14) . . .
212(15) . . .
226(15) . . .
243(16) . . .
224(15) . . .
239(15) . . .
256(16) . . .
218(15) . . .
241(16) . . .
254(16) . . .
266(16) . . .
275(17) . . .
283(17) . . .
269(16) . . .
263(16) . . .
250(16) . . .
266(16) . . .
293(17) . . .
287(17) . . .
297(17) . . .
295(17) . . .
321(18) . . .
301(17) . . .
294(17) . . .
296(17) . . .
311(18) . . .
287(17) . . .
272(16) . . .
290(17) . . .
305(17) . . .
279(17) . . .
300(17) . . .
285(17) . . .
285(17) . . .
281(17) . . .
290(17) . . .
271(16) . . .
275(17) . . .
276(17) . . .
273(17) . . .
312(18) . . .
304(17) . . .
298(17) . . .
261(16) . . .
276(17) . . .
255(16) . . .
258(16) . . .
273(17) . . .
263(16) . . .
273(17) . . .
264(16) . . .
256(16) . . .
266(16) . . .
248(16) . . .
265(16) . . .
245(16) . . .
263(16) . . .
249(16) . . .
257(16) . . .
227(15) . . .
223(15) . . .
262(16) . . .
215(15) . . .
226(15) . . .
222(15) . . .
212(15) . . .
206(14) . . .
216(15) . . .
226(15) . . .
197(14) . . .
203(14) . . .
181(13) . . .
178(13) . . .
206(14) . . .
204(14) . . .
170(13) . . .
197(14) . . .
174(13) . . .
169(13) . . .
176(13) . . .
187(14) . . .
162(13) . . .
160(13) . . .
176(13) . . .
169(13) . . .
165(13) . . .
173(13) . . .
159(13) . . .
155(12) . . .
162(13) . . .
168(13) . . .
140(12) . . .
174(13) . . .
173(13) . . .
159(13) . . .
154(12) . . .
151(12) . . .
169(13) . . .
143(12) . . .
138(12) . . .
153(12) . . .
153(12) . . .
150(12) . . .
163(13) . . .
159(13) . . .
140(12) . . .
146(12) . . .
162(13) . . .
140(12) . . .
148(12) . . .
147(12) . . .
164(13) . . .
143(12) . . .
124(11) . . .
153(12) . . .
134(12) . . .
148(12) . . .
147(12) . . .
142(12) . . .
136(12) . . .
130(11) . . .
133(12) . . .
138(12) . . .
115(11) . . .
130(11) . . .
150(12) . . .
130(11) . . .
151(12) . . .
143(12) . . .
146(12) . . .
140(12) . . .
138(12) . . .
127(11) . . .
145(12) . . .
150(12) . . .
122(11) . . .
132(11) . . .
138(12) . . .
137(12) . . .
146(12) . . .
130(11) . . .
126(11) . . .
139(12) . . .
136(12) . . .
125(11) . . .
123(11) . . .
168(13) . . .
146(12) . . .
146(12) . . .
137(12) . . .
140(12) . . .
128(11) . . .
151(12) . . .
115(11) . . .
150(12) . . .
128(11) . . .
140(12) . . .
117(11) . . .
141(12) . . .
129(11) . . .
133(12) . . .
115(11) . . .
124(11) . . .
135(12) . . .
124(11) . . .
143(12) . . .
133(12) . . .
116(11) . . .
138(12) . . .
139(12) . . .
132(11) . . .
124(11) . . .
121(11) . . .
136(12) . . .
129(11) . . .
141(12) . . .
135(12) . . .
127(11) . . .
130(11) . . .
114(11) . . .
135(12) . . .
116(11) . . .
119(11) . . .
142(12) . . .
137(12) . . .
126(11) . . .
130(11) . . .
132(11) . . .
139(12) . . .
126(11) . . .
122(11) . . .
126(11) . . .
128(11) . . .
131(11) . . .
143(12) . . .
138(12) . . .
145(12) . . .
143(12) . . .
131(11) . . .
132(11) . . .
117(11) . . .
119(11) . . .
118(11) . . .
135(12) . . .
130(11) . . .
125(11) . . .
136(12) . . .
134(12) . . .
125(11) . . .
117(11) . . .
146(12) . . .
131(11) . . .
138(12) . . .
121(11) . . .
139(12) . . .
126(11) . . .
134(12) . . .
123(11) . . .
122(11) . . .
128(11) . . .
125(11) . . .
142(12) . . .
125(11) . . .
130(11) . . .
115(11) . . .
122(11) . . .
135(12) . . .
116(11) . . .
121(11) . . .
118(11) . . .
128(11) . . .
132(11) . . .
123(11) . . .
120(11) . . .
125(11) . . .
135(12) . . .
123(11) . . .
126(11) . . .
129(11) . . .
120(11) . . .
138(12) . . .
128(11) . . .
126(11) . . .
122(11) . . .
123(11) . . .
131(11) . . .
118(11) . . .
130(11) . . .
130(11) . . .
116(11) . . .
144(12) . . .
128(11) . . .
140(12) . . .
108(10) . . .
126(11) . . .
126(11) . . .
126(11) . . .
130(11) . . .
137(12) . . .
116(11) . . .
133(12) . . .
131(11) . . .
131(11) . . .
118(11) . . .
121(11) . . .
110(10) . . .
116(11) . . .
128(11) . . .
120(11) . . .
126(11) . . .
111(11) . . .
123(11) . . .
129(11) . . .
156(12) . . .
141(12) . . .
110(10) . . .
132(11) . . .
125(11) . . .
102(10) . . .
107(10) . . .
137(12) . . .
126(11) . . .
127(11) . . .
129(11) . . .
109(10) . . .
118(11) . . .
106(10) . . .
137(12) . . .
138(12) . . .
126(11) . . .
122(11) . . .
118(11) . . .
128(11) . . .
108(10) . . .
127(11) . . .
115(11) . . .
121(11) . . .
121(11) . . .
116(11) . . .
122(11) . . .
126(11) . . .
116(11) . . .
102(10) . . .
118(11) . . .
121(11) . . .
117(11) . . .
125(11) . . .
113(11) . . .
109(10) . . .
114(11) . . .
119(11) . . .
121(11) . . .
117(11) . . .
132(11) . . .
111(11) . . .
121(11) . . .
123(11) . . .
129(11) . . .
124(11) . . .
108(10) . . .
119(11) . . .
123(11) . . .
113(11) . . .
120(11) . . .
121(11) . . .
118(11) . . .
107(10) . . .
133(12) . . .
134(12) . . .
135(12) . . .
115(11) . . .
125(11) . . .
118(11) . . .
123(11) . . .
132(11) . . .
115(11) . . .
115(11) . . .
127(11) . . .
127(11) . . .
122(11) . . .
133(12) . . .
126(11) . . .
128(11) . . .
138(12) . . .
113(11) . . .
120(11) . . .
129(11) . . .
111(11) . . .
129(11) . . .
127(11) . . .
133(12) . . .
131(11) . . .
119(11) . . .
118(11) . . .
132(11) . . .
103(10) . . .
130(11) . . .
95(10) . . .
126(11) . . .
130(11) . . .
144(12) . . .
131(11) . . .
133(12) . . .
126(11) . . .
119(11) . . .
116(11) . . .
139(12) . . .
126(11) . . .
104(10) . . .
121(11) . . .
120(11) . . .
117(11) . . .
128(11) . . .
108(10) . . .
127(11) . . .
119(11) . . .
145(12) . . .
112(11) . . .
119(11) . . .
122(11) . . .
131(11) . . .
114(11) . . .
112(11) . . .
112(11) . . .
130(11) . . .
114(11) . . .
111(11) . . .
132(11) . . .
131(11) . . .
141(12) . . .
123(11) . . .
113(11) . . .
131(11) . . .
123(11) . . .
135(12) . . .
111(11) . . .
126(11) . . .
120(11) . . .
122(11) . . .
116(11) . . .
125(11) . . .
137(12) . . .
115(11) . . .
117(11) . . .
137(12) . . .
131(11) . . .
118(11) . . .
139(12) . . .
132(11) . . .
106(10) . . .
119(11) . . .
123(11) . . .
127(11) . . .
115(11) . . .
121(11) . . .
135(12) . . .
136(12) . . .
133(12) . . .
109(10) . . .
119(11) . . .
126(11) . . .
117(11) . . .
123(11) . . .
114(11) . . .
133(12) . . .
135(12) . . .
122(11) . . .
124(11) . . .
117(11) . . .
112(11) . . .
132(11) . . .
122(11) . . .
104(10) . . .
113(11) . . .
141(12) . . .
128(11) . . .
126(11) . . .
140(12) . . .
128(11) . . .
122(11) . . .
134(12) . . .
149(12) . . .
116(11) . . .
119(11) . . .
116(11) . . .
118(11) . . .
134(12) . . .
124(11) . . .
114(11) . . .
123(11) . . .
134(12) . . .
128(11) . . .
118(11) . . .
147(12) . . .
119(11) . . .
103(10) . . .
121(11) . . .
38(6) . . .
0.00(10) . . .
0.00(10) . . .
0.00(10) . . .
0.0(10) . . .
loop_
_refln_index_h
_refln_index_k
_refln_index_l
_refln_observed_status
_refln_F_squared_meas
_refln_F_squared_calc
_refln_phase_calc
_refln_d_spacing
_gsas_i100_meas
0 2 0 o 1204.775 1344.128 180.00 8.21766 4.92
0 0 2 o 97.275 166.011 180.00 6.57084 0.25
1 0 1 o 12395.245 12894.604 0.00 5.86378 51.57
0 3 1 o 1121.680 1192.417 180.00 5.05665 3.47
0 2 2 o 31363.043 31252.484 0.00 5.13197 100.00
0 1 3 o 1.034 0.573 0.00 4.23279 0.00
-1 2 1 o 2377.177 2367.406 0.00 4.79384 6.62
1 1 2 o 2613.230 2367.447 0.00 4.45679 6.29
1 2 1 o 1024.889 1057.753 0.00 4.75282 2.80
-1 1 2 o 6090.038 5712.790 0.00 4.47359 14.76
0 4 0 o 2846.974 1076.891 0.00 4.10883 2.91
1 0 3 o 273.300 218.543 180.00 3.64165 0.44
0 0 4 o 270.831 259.152 180.00 3.28542 0.18
1 2 3 o 86.060 72.478 0.00 3.32244 0.12
-1 4 1 o 865.749 882.635 180.00 3.37942 1.20
0 3 3 o 12776.770 11884.775 0.00 3.42131 18.15
1 3 2 o 2426.297 2675.254 0.00 3.52808 3.66
-1 2 3 o 2408.612 2143.985 0.00 3.33637 3.25
-1 3 2 o 5333.630 5672.868 0.00 3.55319 8.17
0 4 2 o 14.119 21.229 0.00 3.48379 0.02
0 5 1 o 38.095 30.937 180.00 3.18883 0.05
0 2 4 o 1591.022 1238.820 0.00 3.05065 1.80
1 4 1 o 1195.014 1139.458 180.00 3.35068 1.63
-1 1 4 o 197.221 94.894 0.00 2.89338 0.20
1 1 4 o 320.922 158.791 0.00 2.88882 0.33
2 0 0 o 2475.721 2301.450 180.00 3.27609 1.61
2 1 1 o 1301.175 935.804 180.00 3.11525 1.53
-2 1 1 o 655.422 583.453 180.00 3.12672 0.78
0 1 5 o 1703.833 1751.205 180.00 2.59536 1.40
-2 2 0 o 160.079 136.402 0.00 3.05386 0.09
0 6 0 o 1302.729 1265.610 0.00 2.73922 0.59
2 2 0 o 39.581 24.668 180.00 3.03260 0.02
2 0 2 o 396.773 195.062 0.00 2.93189 0.41
1 0 5 o 853.210 809.176 180.00 2.43939 0.62
-1 5 2 o 3630.892 3837.045 180.00 2.69130 3.20
-2 3 1 o 925.392 839.485 0.00 2.76132 0.86
1 3 4 o 663.859 686.939 180.00 2.58353 0.54
2 2 2 o 3571.079 3462.009 180.00 2.75349 3.29
2 3 1 o 309.277 304.955 0.00 2.73780 0.28
-2 2 2 o 1233.546 1081.531 180.00 2.76938 1.15
1 4 3 o 3577.970 3762.004 0.00 2.71770 3.22
-1 3 4 o 995.407 954.451 0.00 2.59334 0.82
2 1 3 o 1459.903 1466.300 0.00 2.58748 1.19
-1 6 1 o 1636.132 2033.750 0.00 2.49048 1.24
1 5 2 o 2157.754 2226.789 180.00 2.67310 1.88
-2 1 3 o 975.508 916.639 0.00 2.59404 0.80
-1 4 3 o 8063.558 8220.409 0.00 2.73298 7.33
-2 4 0 o 2147.244 2279.537 180.00 2.57431 0.87
0 6 2 o 243.142 415.022 0.00 2.52832 0.19
0 4 4 o 10761.035 11554.377 0.00 2.56598 8.63
0 0 6 o 2699.771 2649.161 0.00 2.19028 0.79
0 3 5 o 126.574 100.103 0.00 2.36973 0.09
1 6 1 o 41.917 52.934 0.00 2.47318 0.03
0 5 3 o 338.621 519.004 180.00 2.62918 0.29
2 4 0 o 1187.578 1177.245 180.00 2.54894 0.47
0 2 6 o 264.222 295.558 180.00 2.11640 0.14
1 1 6 o 3110.652 2491.808 180.00 2.06007 1.62
-2 4 2 o 130.283 163.264 180.00 2.39692 0.09
2 3 3 o 1069.800 745.390 180.00 2.35876 0.73
2 2 4 o 118.923 193.428 0.00 2.22840 0.07
-2 5 1 o 203.532 55.822 180.00 2.29641 0.13
-1 1 6 o 577.151 470.433 180.00 2.06172 0.30
2 4 2 o 524.510 503.600 180.00 2.37641 0.36
-2 3 3 o 201.738 176.475 0.00 2.37375 0.14
-2 2 4 o 3.580 3.921 180.00 2.23679 0.00
2 5 1 o 426.231 236.331 0.00 2.27390 0.27
0 8 0 o 332.131 255.635 0.00 2.05442 0.09
-2 6 0 o 502.642 547.922 180.00 2.11202 0.14
-2 1 5 o 823.857 263.831 180.00 2.03593 0.42
2 1 5 o 2162.358 594.566 180.00 2.03275 1.09
-1 7 2 o 5848.477 5555.588 0.00 2.10103 3.16
1 4 5 o 1942.248 1866.640 180.00 2.09410 1.04
-1 6 3 o 6743.139 6531.275 180.00 2.19503 3.97
0 1 7 o 398.960 533.583 0.00 1.86525 0.17
-1 4 5 o 335.185 316.835 0.00 2.10106 0.18
1 5 4 o 4267.666 4170.135 0.00 2.18514 2.49
1 6 3 o 3553.509 3522.381 180.00 2.18316 2.07
-1 3 6 o 276.597 239.827 0.00 1.94442 0.13
1 3 6 o 2678.284 2384.479 0.00 1.94028 1.24
-1 5 4 o 9584.023 9307.079 0.00 2.19504 5.64
2 6 0 o 5327.970 5201.801 180.00 2.09102 1.42
1 7 2 o 547.623 510.907 0.00 2.08889 0.29
-1 8 1 o 1176.917 1023.790 180.00 1.94438 0.55
3 0 1 o 3025.007 2427.445 180.00 2.15451 1.72
1 0 7 o 1653.984 1361.037 0.00 1.80476 0.66
0 5 5 o 27433.939 22455.824 0.00 2.05279 14.15
0 4 6 o 3167.354 2863.216 180.00 1.93281 1.45
0 8 2 o 4420.221 3446.412 180.00 1.96081 2.08
0 7 3 o 7959.858 7117.070 0.00 2.06940 4.17
1 8 1 o 528.362 482.450 180.00 1.93339 0.24
-2 5 3 o 88.506 82.554 0.00 2.05869 0.05
3 2 1 o 0.066 0.043 0.00 2.07897 0.00
3 1 2 o 1721.658 1479.611 180.00 2.05383 0.89
-1 2 7 o 373.939 363.060 180.00 1.76378 0.14
1 2 7 o 2707.543 2626.648 180.00 1.76172 1.03
2 3 5 o 1626.220 1400.778 0.00 1.91608 0.73
-3 2 1 o 243.280 238.991 0.00 2.08921 0.13
0 6 4 o 8273.971 7926.650 180.00 2.10390 4.48
2 0 6 o 32.422 27.611 0.00 1.82083 0.01
2 5 3 o 509.325 263.701 0.00 2.04242 0.26
-3 1 2 o 4549.601 4318.479 180.00 2.05875 2.36
-2 7 1 o 28.350 21.199 180.00 1.89755 0.01
0 3 7 o 1834.722 1814.488 0.00 1.77600 0.71
-2 3 5 o 731.229 646.006 0.00 1.92409 0.33
2 6 2 o 1662.609 504.370 180.00 1.99256 0.81
0 9 1 o 5958.377 4923.906 0.00 1.80877 2.40
2 2 6 o 1306.288 1286.193 180.00 1.77560 0.51
3 0 3 o 2935.174 2684.998 0.00 1.95459 1.37
0 0 8 o 1.641 1.880 180.00 1.64271 0.00
-2 2 6 o 1465.469 1491.246 180.00 1.77983 0.57
2 7 1 o 992.021 1260.945 180.00 1.87976 0.43
3 3 2 o 450.587 408.877 0.00 1.93234 0.21
0 2 8 o 1197.260 1161.215 180.00 1.61084 0.38
-3 3 2 o 1808.746 1562.063 0.00 1.94470 0.84
3 2 3 o 3221.626 2210.802 180.00 1.89767 1.42
-2 8 0 o 32.821 29.630 180.00 1.74851 0.01
-3 4 1 o 1321.533 1142.494 180.00 1.91601 0.60
-3 2 3 o 7582.276 6109.949 180.00 1.90545 3.38
3 4 1 o 468.656 318.013 180.00 1.90029 0.21
-1 1 8 o 679.405 848.761 0.00 1.58634 0.21
1 1 8 o 966.556 1234.371 0.00 1.58558 0.30
-1 8 3 o 703.459 651.044 0.00 1.79366 0.28
-3 1 4 o 3589.577 2962.914 0.00 1.80947 1.44
3 1 4 o 4006.117 3231.505 0.00 1.80613 1.61
-1 9 2 o 138.391 126.689 0.00 1.70344 0.05
1 5 6 o 162.614 153.065 0.00 1.75348 0.06
2 1 7 o 200.626 220.720 0.00 1.62014 0.07
-1 5 6 o 3176.451 3154.949 0.00 1.75858 1.21
-1 7 4 o 749.979 669.556 180.00 1.83798 0.31
1 6 5 o 19.275 16.257 0.00 1.81832 0.01
-1 4 7 o 360.898 368.232 180.00 1.65409 0.12
1 4 7 o 195.361 208.652 180.00 1.65069 0.07
-2 1 7 o 716.908 826.123 0.00 1.62174 0.23
-1 6 5 o 1759.720 1481.059 0.00 1.82516 0.72
1 8 3 o 112.731 130.855 180.00 1.78501 0.04
0 10 0 o 10497.083 11823.526 180.00 1.64353 1.75
-2 8 2 o 39.145 34.131 0.00 1.68971 0.01
-2 7 3 o 1239.547 1250.569 180.00 1.75670 0.47
2 8 0 o 13.563 15.923 0.00 1.73260 0.00
1 7 4 o 197.909 154.207 180.00 1.82984 0.08
1 9 2 o 15.269 15.676 180.00 1.69511 0.01
2 5 5 o 4066.177 4488.497 180.00 1.73457 1.51
0 9 3 o 318.972 246.905 180.00 1.68555 0.11
2 4 6 o 2051.693 1795.109 0.00 1.66122 0.70
-1 10 1 o 1101.722 1373.664 180.00 1.58630 0.34
-3 6 1 o 1803.598 1673.496 180.00 1.70176 0.64
3 0 5 o 3316.517 2531.912 180.00 1.67980 1.15
-3 5 2 o 42.075 41.100 0.00 1.76084 0.02
3 3 4 o 3.517 5.029 0.00 1.72184 0.00
-2 6 4 o 860.334 787.510 0.00 1.77660 0.33
3 4 3 o 446.637 451.090 180.00 1.75887 0.17
0 5 7 o 8.630 13.482 0.00 1.63023 0.00
-1 3 8 o 45.628 69.204 0.00 1.53101 0.01
1 3 8 o 158.297 255.917 0.00 1.52898 0.05
0 6 6 o 5689.045 4927.441 0.00 1.71066 2.05
-2 4 6 o 3332.324 2909.885 0.00 1.66818 1.14
2 6 4 o 1331.467 1225.376 0.00 1.76404 0.51
-2 5 5 o 795.504 718.237 180.00 1.74450 0.30
0 8 4 o 851.900 794.919 0.00 1.74190 0.32
-2 9 1 o 24.600 27.453 180.00 1.59024 0.01
-3 4 3 o 13.991 14.088 180.00 1.77131 0.01
-3 3 4 o 740.281 973.687 180.00 1.73057 0.27
2 3 7 o 827.572 1047.878 180.00 1.55918 0.25
3 5 2 o 741.935 656.002 0.00 1.74560 0.28
2 7 3 o 1913.116 1767.556 180.00 1.74256 0.71
0 1 9 o 2341.783 1987.432 0.00 1.45446 0.62
3 2 5 o 102.494 113.593 0.00 1.64325 0.03
0 4 8 o 34.459 63.268 180.00 1.52532 0.01
0 10 2 o 970.504 1017.191 0.00 1.59441 0.30
2 8 2 o 204.416 177.933 180.00 1.67534 0.07
-2 3 7 o 3173.338 4155.445 180.00 1.56349 0.96
0 7 5 o 993.292 775.997 180.00 1.75100 0.37
-3 2 5 o 106.314 117.672 0.00 1.64829 0.04
1 10 1 o 28.090 49.972 180.00 1.57882 0.01
3 6 1 o 2122.757 1577.163 180.00 1.68527 0.74
2 0 8 o 882.124 854.000 180.00 1.46845 0.24
0 3 9 o 174.781 64.923 0.00 1.41093 0.04
-3 1 6 o 84.755 101.104 180.00 1.54079 0.02
-1 2 9 o 139.172 57.470 0.00 1.40478 0.03
3 1 6 o 22.749 28.220 180.00 1.53873 0.01
1 2 9 o 2081.824 903.753 180.00 1.40374 0.51
2 9 1 o 101.347 194.690 180.00 1.57676 0.03
-2 2 8 o 4328.856 3120.189 0.00 1.44669 1.13
2 2 8 o 187.796 126.933 0.00 1.44441 0.05
0 11 1 o 5155.285 5061.858 180.00 1.48456 1.41
-2 10 0 o 48.186 45.418 180.00 1.47505 0.01
-3 6 3 o 227.884 214.359 0.00 1.59795 0.07
-3 7 2 o 1869.778 2332.970 180.00 1.56128 0.56
4 0 0 o 3059.860 4255.168 0.00 1.63805 0.51
-1 10 3 o 5.693 7.951 0.00 1.50122 0.00
3 5 4 o 96.208 118.058 180.00 1.58578 0.03
3 4 5 o 2.623 3.007 0.00 1.55064 0.00
1 6 7 o 0.271 0.408 0.00 1.50513 0.00
3 3 6 o 88.553 86.157 0.00 1.48560 0.02
-2 9 3 o 329.400 501.930 0.00 1.50456 0.09
4 2 0 o 426.933 355.101 180.00 1.60332 0.07
4 1 1 o 2180.793 2218.531 0.00 1.61598 0.70
0 0 10 o 4133.938 5692.771 180.00 1.31417 0.45
-1 9 4 o 735.998 911.185 0.00 1.55397 0.22
3 6 3 o 203.107 271.131 0.00 1.58427 0.06
-3 5 4 o 259.621 245.634 180.00 1.59718 0.08
-4 1 1 o 976.656 870.340 0.00 1.61918 0.32
-3 8 1 o 65.825 93.692 0.00 1.49431 0.02
4 0 2 o 143.520 151.615 180.00 1.58940 0.04
-2 8 4 o 1724.238 1947.866 180.00 1.54353 0.51
-1 6 7 o 1617.234 2250.079 0.00 1.50900 0.46
-3 4 5 o 132.687 166.306 180.00 1.55915 0.04
-4 2 0 o 39.657 30.569 180.00 1.60958 0.01
1 7 6 o 28.857 35.341 0.00 1.55331 0.01
1 9 4 o 49.415 53.283 180.00 1.54764 0.01
3 7 2 o 786.875 848.867 180.00 1.54642 0.23
2 6 6 o 3264.158 4509.033 180.00 1.51245 0.92
1 10 3 o 101.995 149.888 180.00 1.49487 0.03
-1 7 6 o 935.539 1196.682 0.00 1.55828 0.28
4 2 2 o 3043.714 3956.077 0.00 1.55762 0.91
2 5 7 o 2324.954 2042.493 0.00 1.45659 0.61
-3 3 6 o 23.447 29.294 180.00 1.49120 0.01
-1 8 5 o 372.321 685.443 180.00 1.57432 0.11
-2 1 9 o 1629.894 2487.787 180.00 1.32978 0.36
2 1 9 o 221.691 348.854 180.00 1.32890 0.05
-1 4 9 o 16.967 21.028 0.00 1.34744 0.00
-1 1 10 o 115.301 137.265 180.00 1.28476 0.02
2 10 0 o 848.476 812.763 0.00 1.46309 0.11
1 1 10 o 1108.916 1318.574 0.00 1.28437 0.23
-2 5 7 o 3195.882 3053.894 0.00 1.46245 0.85
1 4 9 o 20.826 24.864 0.00 1.34560 0.00
4 3 1 o 822.577 1023.635 180.00 1.55406 0.25
4 1 3 o 229.681 520.640 180.00 1.52630 0.07
2 7 5 o 1445.563 1641.170 0.00 1.53943 0.42
-4 2 2 o 1236.542 1533.032 0.00 1.56336 0.37
-4 3 1 o 373.390 457.709 180.00 1.56262 0.11
3 2 7 o 0.684 0.322 180.00 1.40124 0.00
-2 7 5 o 1223.070 1279.737 0.00 1.54915 0.36
2 4 8 o 1137.935 1214.583 180.00 1.38080 0.27
-2 6 6 o 348.035 820.175 180.00 1.52034 0.10
0 2 10 o 19.965 22.983 0.00 1.29768 0.00
1 8 5 o 160.390 239.664 180.00 1.56847 0.05
-4 1 3 o 413.600 741.627 180.00 1.52899 0.12
0 6 8 o 0.474 0.152 180.00 1.40880 0.00
2 9 3 o 20.176 31.799 180.00 1.49312 0.01
0 12 0 o 2181.844 2345.110 0.00 1.36961 0.26
2 8 4 o 1597.829 2170.370 180.00 1.53255 0.46
-3 2 7 o 68.646 25.875 0.00 1.40437 0.02
-2 4 8 o 3461.089 3528.326 180.00 1.38479 0.83
4 4 0 o 1262.036 2109.047 0.00 1.51630 0.18
-4 4 0 o 591.710 1274.444 0.00 1.52693 0.09
0 10 4 o 234.761 235.570 180.00 1.46987 0.06
0 7 7 o 3236.587 3163.348 0.00 1.46628 0.86
3 8 1 o 22.926 21.119 180.00 1.47943 0.01
-2 11 1 o 2.103 2.610 0.00 1.35736 0.00
0 5 9 o 0.119 0.157 180.00 1.33445 0.00
4 0 4 o 1204.144 1176.385 0.00 1.46594 0.32
0 9 5 o 476.352 555.470 0.00 1.49970 0.13
4 3 3 o 4547.586 4294.759 0.00 1.47380 1.23
-1 12 1 o 17.191 21.690 180.00 1.33641 0.00
4 4 2 o 1185.879 1013.945 180.00 1.47747 0.32
-2 3 9 o 2157.857 2450.077 0.00 1.29709 0.45
-4 5 1 o 2574.472 2482.465 0.00 1.46292 0.68
-4 4 2 o 1154.634 1018.946 180.00 1.48730 0.32
0 8 6 o 546.983 599.660 180.00 1.49842 0.15
2 3 9 o 339.926 387.644 0.00 1.29463 0.07
-1 3 10 o 61.206 74.211 0.00 1.25484 0.01
1 3 10 o 202.765 246.997 180.00 1.25372 0.04
-4 3 3 o 1571.490 1534.002 0.00 1.48110 0.43
3 5 6 o 219.249 162.337 180.00 1.39554 0.05
3 1 8 o 410.514 496.720 180.00 1.30802 0.09
-3 9 2 o 5.440 6.361 180.00 1.37676 0.00
0 12 2 o 3064.975 3584.716 180.00 1.34079 0.69
-4 2 4 o 1276.100 845.461 180.00 1.44544 0.33
-3 7 4 o 7.889 4.555 180.00 1.44379 0.00
1 12 1 o 31.438 46.294 180.00 1.33104 0.01
4 5 1 o 2408.476 1994.547 0.00 1.45125 0.63
-3 1 8 o 674.732 822.357 180.00 1.30929 0.14
3 4 7 o 462.867 523.224 0.00 1.34248 0.10
0 4 10 o 3.703 4.546 180.00 1.25170 0.00
4 1 5 o 1091.620 1111.823 0.00 1.38422 0.26
0 1 11 o 1077.067 1163.648 180.00 1.19155 0.19
-3 4 7 o 1.475 1.856 180.00 1.34800 0.00
2 11 1 o 765.356 921.276 0.00 1.34710 0.17
-3 10 1 o 51.894 68.628 0.00 1.31309 0.01
-3 5 6 o 808.442 307.813 180.00 1.40330 0.20
-4 1 5 o 960.763 979.589 0.00 1.38623 0.23
3 8 3 o 379.917 104.579 180.00 1.40970 0.09
-2 12 0 o 44.890 44.261 180.00 1.26822 0.00
4 6 0 o 3190.445 1710.735 180.00 1.39961 0.39
1 0 11 o 1733.123 1552.569 180.00 1.17532 0.30
-2 2 10 o 2008.710 1519.077 180.00 1.20714 0.37
-4 6 2 o 1015.273 1122.032 0.00 1.38066 0.24
0 13 1 o 1621.616 1899.270 0.00 1.25845 0.32
3 3 8 o 153.928 153.679 180.00 1.27491 0.03
2 2 10 o 912.191 705.861 180.00 1.20582 0.17
3 9 2 o 191.035 220.049 180.00 1.36366 0.04
4 4 4 o 1823.731 2202.124 0.00 1.37675 0.43
-1 11 4 o 22.595 29.616 0.00 1.33415 0.01
-2 11 3 o 1326.868 1591.537 180.00 1.30290 0.28
1 7 8 o 4.756 7.687 0.00 1.31694 0.00
4 5 3 o 251.264 249.059 180.00 1.38525 0.06
-2 10 4 o 1832.630 2047.965 0.00 1.34565 0.41
-1 12 3 o 649.822 798.722 180.00 1.28433 0.13
4 3 5 o 3.735 4.039 180.00 1.34470 0.00
-4 5 3 o 425.543 321.219 180.00 1.39539 0.10
-1 2 11 o 183.980 164.219 180.00 1.16378 0.03
-4 7 1 o 3691.906 3995.368 180.00 1.34280 0.83
1 2 11 o 441.611 396.777 0.00 1.16318 0.08
-1 6 9 o 9.282 8.510 180.00 1.26547 0.00
1 6 9 o 80.253 78.207 180.00 1.26318 0.02
-1 10 5 o 624.371 669.772 0.00 1.36543 0.15
-3 3 8 o 13.203 15.093 0.00 1.27845 0.00
2 6 8 o 2170.281 2525.257 0.00 1.29176 0.45
2 7 7 o 4101.235 5201.234 180.00 1.33519 0.91
-4 4 4 o 458.018 451.148 0.00 1.38469 0.11
-1 7 8 o 725.022 1317.839 0.00 1.31997 0.16
4 6 2 o 1074.684 1028.273 0.00 1.36890 0.25
-2 9 5 o 3837.617 3616.511 180.00 1.36794 0.90
1 11 4 o 431.338 710.828 180.00 1.32925 0.10
1 8 7 o 0.950 1.685 0.00 1.35400 0.00
4 0 6 o 661.328 818.339 180.00 1.31178 0.14
-2 6 8 o 3764.188 4148.470 0.00 1.29667 0.79
0 3 11 o 181.497 156.982 0.00 1.16727 0.03
2 5 9 o 1690.839 1369.249 180.00 1.23408 0.32
-4 3 5 o 208.306 316.708 180.00 1.35024 0.05
1 12 3 o 540.869 652.662 0.00 1.27957 0.11
4 2 6 o 75.145 84.538 0.00 1.29374 0.02
1 5 10 o 191.672 171.795 0.00 1.19882 0.03
2 8 6 o 2710.743 2820.622 0.00 1.35885 0.62
-1 8 7 o 848.587 970.252 0.00 1.35777 0.20
-2 12 2 o 249.463 330.728 0.00 1.24524 0.05
-2 7 7 o 1382.662 1539.056 180.00 1.34152 0.31
1 10 5 o 0.827 0.871 180.00 1.36065 0.00
2 10 4 o 147.222 179.984 0.00 1.33655 0.03
-4 2 6 o 378.226 411.316 0.00 1.29702 0.08
-2 5 9 o 4288.805 3951.256 180.00 1.23764 0.83
-2 8 6 o 2679.462 2608.317 0.00 1.36649 0.62
-1 9 6 o 353.818 478.143 180.00 1.37372 0.08
-3 2 9 o 704.969 585.751 180.00 1.20183 0.13
-1 5 10 o 72.609 62.483 180.00 1.20045 0.01
3 2 9 o 48.488 42.247 180.00 1.19988 0.01
1 9 6 o 273.725 257.837 180.00 1.36934 0.06
2 9 5 o 3753.945 3695.786 180.00 1.35933 0.87
2 12 0 o 919.042 1081.369 180.00 1.25909 0.09
-4 8 0 o 2539.013 3095.072 0.00 1.28715 0.26
3 10 1 o 53.776 63.477 0.00 1.30047 0.01
0 7 9 o 474.015 491.268 0.00 1.23995 0.09
4 7 1 o 692.386 1049.305 180.00 1.33019 0.15
2 11 3 o 993.070 1112.960 180.00 1.29382 0.21
0 12 4 o 19.344 17.127 180.00 1.26416 0.00
-3 10 3 o 146.315 133.869 180.00 1.26360 0.03
-2 4 10 o 3072.373 2614.327 0.00 1.17047 0.53
3 6 7 o 96.675 112.871 180.00 1.25985 0.02
0 11 5 o 219.883 244.469 0.00 1.29891 0.05
0 6 10 o 265.076 280.163 180.00 1.18486 0.05
2 4 10 o 644.521 546.121 0.00 1.16806 0.11
2 1 11 o 1079.514 1761.591 0.00 1.11952 0.17
0 8 8 o 220.085 278.708 0.00 1.28299 0.05
-3 9 4 o 233.223 259.487 180.00 1.29417 0.05
-2 13 1 o 405.171 366.068 180.00 1.17875 0.07
-1 4 11 o 258.890 419.117 0.00 1.13054 0.04
2 12 2 o 2109.690 1849.439 0.00 1.23659 0.41
1 4 11 o 316.598 508.608 180.00 1.12946 0.05
3 7 6 o 262.687 320.139 0.00 1.28730 0.05
0 0 12 o 4.445 7.097 0.00 1.09514 0.00
0 14 0 o 1795.999 1573.009 180.00 1.17395 0.16
-4 1 7 o 537.508 390.862 180.00 1.23151 0.10
-3 8 5 o 212.524 250.977 180.00 1.30543 0.05
4 1 7 o 27.086 18.209 180.00 1.23011 0.01
-4 7 3 o 458.606 568.308 0.00 1.29000 0.10
4 5 5 o 1843.782 1948.710 0.00 1.27643 0.38
4 6 4 o 182.614 221.864 180.00 1.28763 0.04
-2 1 11 o 268.010 435.143 0.00 1.12005 0.04
-4 8 2 o 3130.906 2893.549 180.00 1.26315 0.63
3 8 5 o 143.353 156.515 180.00 1.29548 0.03
0 2 12 o 1026.711 1274.573 180.00 1.08554 0.15
4 4 6 o 2.018 2.851 0.00 1.24670 0.00
0 9 7 o 77.734 90.413 0.00 1.30902 0.02
-3 6 7 o 728.132 612.598 180.00 1.26670 0.15
-4 6 4 o 237.740 244.756 180.00 1.29741 0.05
0 10 6 o 103.222 148.607 180.00 1.31459 0.02
-3 7 6 o 86.842 93.984 0.00 1.29583 0.02
4 8 0 o 1295.587 1079.783 0.00 1.27447 0.13
5 0 1 o 2473.777 2988.577 0.00 1.30397 0.53
-4 5 5 o 324.010 413.842 0.00 1.28435 0.07
3 9 4 o 12.341 15.791 0.00 1.28327 0.00
-1 14 1 o 78.800 77.271 180.00 1.15313 0.01
3 1 10 o 60.897 95.748 0.00 1.12301 0.01
0 5 11 o 51.145 80.598 0.00 1.12284 0.01
4 7 3 o 813.481 1023.347 0.00 1.27881 0.17
5 2 1 o 1053.394 1317.863 0.00 1.28585 0.22
-4 4 6 o 526.441 685.338 180.00 1.25259 0.10
3 10 3 o 510.809 658.399 180.00 1.25234 0.10
4 3 7 o 11.551 9.448 0.00 1.20212 0.00
-2 3 11 o 801.817 1368.098 180.00 1.10031 0.12
5 1 2 o 263.018 347.217 0.00 1.28023 0.05
2 3 11 o 407.533 689.648 180.00 1.09881 0.06
0 14 2 o 373.248 358.159 0.00 1.15565 0.06
-5 1 2 o 559.174 742.180 0.00 1.28221 0.12
-5 2 1 o 487.958 640.428 0.00 1.28988 0.10
-4 3 7 o 1465.826 1019.249 0.00 1.20607 0.27
-3 1 10 o 407.110 635.279 0.00 1.12381 0.07
4 8 2 o 908.056 1117.337 180.00 1.25116 0.18
1 14 1 o 761.158 764.971 0.00 1.14910 0.13
4 0 8 o 0.869 0.769 180.00 1.15992 0.00
2 13 1 o 2457.646 2054.293 180.00 1.17080 0.43
-2 12 4 o 49.591 48.401 180.00 1.18313 0.01
3 11 2 o 673.715 449.566 0.00 1.20651 0.12
5 3 2 o 1241.478 1539.660 0.00 1.24840 0.24
5 0 3 o 21.681 31.898 0.00 1.25547 0.00
-2 14 0 o 370.346 685.473 0.00 1.10872 0.03
4 2 8 o 4.783 4.966 0.00 1.14739 0.00
5 4 1 o 74.485 71.127 180.00 1.23928 0.01
5 2 3 o 310.419 297.379 0.00 1.23927 0.06
-1 12 5 o 11.687 11.150 180.00 1.19618 0.00
-3 3 10 o 21.978 38.726 180.00 1.10412 0.00
2 7 9 o 117.294 108.412 0.00 1.15762 0.02
1 8 9 o 39.415 32.138 180.00 1.16981 0.01
-5 3 2 o 347.338 504.832 0.00 1.25395 0.07
-1 7 10 o 163.475 282.100 180.00 1.13054 0.03
3 3 10 o 42.110 72.812 180.00 1.10185 0.01
-2 13 3 o 78.116 92.375 180.00 1.14256 0.01
2 8 8 o 498.934 582.800 180.00 1.19208 0.09
1 7 10 o 5.346 8.743 0.00 1.12864 0.00
2 6 10 o 4.689 8.572 180.00 1.11267 0.00
-5 4 1 o 6.527 10.563 0.00 1.24652 0.00
-4 2 8 o 1270.223 1250.823 180.00 1.14968 0.21
-1 8 9 o 2268.233 1932.150 0.00 1.17224 0.39
-5 2 3 o 397.175 610.094 0.00 1.24287 0.08
-1 14 3 o 67.974 112.879 180.00 1.11918 0.01
0 15 1 o 296.369 437.641 180.00 1.09190 0.04
-4 9 3 o 711.499 618.007 180.00 1.18025 0.13
1 9 8 o 1.463 1.277 0.00 1.19915 0.00
-2 6 10 o 21.137 36.394 180.00 1.11580 0.00
-2 8 8 o 312.745 288.410 0.00 1.19723 0.06
-4 10 2 o 461.661 461.541 0.00 1.14820 0.08
1 12 5 o 168.396 194.315 180.00 1.19233 0.03
-1 9 8 o 406.186 328.936 0.00 1.20208 0.07
-3 11 4 o 3334.405 2885.916 180.00 1.15934 0.57
1 13 4 o 136.833 118.909 0.00 1.15932 0.02
4 6 6 o 699.245 606.634 0.00 1.17938 0.12
-1 6 11 o 64.683 99.957 0.00 1.08081 0.01
-4 8 4 o 85.535 76.083 180.00 1.19846 0.02
-2 14 2 o 11.518 17.972 0.00 1.09327 0.00
5 4 3 o 3133.701 2864.277 0.00 1.19742 0.57
3 7 8 o 808.695 964.639 180.00 1.14289 0.13
2 12 4 o 467.772 412.206 0.00 1.17571 0.08
5 3 4 o 18.939 21.644 0.00 1.18585 0.00
4 5 7 o 256.876 250.392 0.00 1.15260 0.04
2 11 5 o 1594.514 1274.253 180.00 1.20383 0.29
1 14 3 o 82.217 142.756 180.00 1.11549 0.01
3 12 1 o 292.267 283.835 180.00 1.15063 0.05
4 4 8 o 35.861 64.711 180.00 1.11420 0.01
-3 12 3 o 2015.304 3119.741 0.00 1.12647 0.32
4 7 5 o 42.458 52.473 0.00 1.19172 0.01
-4 7 5 o 253.581 205.405 0.00 1.20076 0.05
4 1 9 o 29.157 32.272 180.00 1.08711 0.00
-3 10 5 o 850.340 731.482 0.00 1.17938 0.15
2 13 3 o 114.615 172.779 180.00 1.13531 0.02
4 8 4 o 20.490 33.101 0.00 1.18820 0.00
3 6 9 o 773.163 1440.375 0.00 1.10748 0.12
5 5 2 o 852.934 931.633 180.00 1.19288 0.15
0 8 10 o 17.454 32.388 0.00 1.10705 0.00
-5 5 2 o 84.376 67.534 180.00 1.20097 0.02
5 0 5 o 7.433 6.367 180.00 1.17276 0.00
-5 6 1 o 102.609 93.258 0.00 1.18202 0.02
0 13 5 o 6.691 7.812 0.00 1.13931 0.00
5 2 5 o 88.884 73.903 0.00 1.15952 0.02
-5 4 3 o 1431.969 1162.112 0.00 1.20395 0.26
-4 5 7 o 18.206 15.958 0.00 1.15842 0.00
-4 6 6 o 119.180 162.259 180.00 1.18688 0.02
2 14 0 o 1822.617 3169.657 0.00 1.10159 0.14
-4 1 9 o 341.472 399.993 0.00 1.08808 0.05
-3 6 9 o 399.013 757.568 0.00 1.11212 0.06
-3 9 6 o 2778.742 2770.568 180.00 1.18440 0.49
4 10 0 o 2864.618 2781.496 180.00 1.15436 0.24
-5 3 4 o 38.261 56.646 0.00 1.19059 0.01
-3 13 2 o 2102.215 2603.515 180.00 1.08396 0.31
0 9 9 o 467.677 551.722 0.00 1.14044 0.08
-4 4 8 o 0.132 0.222 0.00 1.11840 0.00
4 9 3 o 28.391 21.778 180.00 1.16924 0.00
-4 11 1 o 119.595 216.276 180.00 1.10558 0.02
0 14 4 o 341.020 615.843 180.00 1.10550 0.05
-3 7 8 o 2112.294 2036.339 180.00 1.14885 0.35
3 9 6 o 1744.633 1545.987 180.00 1.17603 0.30
-3 8 7 o 1886.833 1606.819 0.00 1.17382 0.33
5 6 1 o 650.022 558.405 0.00 1.17278 0.11
3 10 5 o 1376.396 1094.225 0.00 1.17020 0.24
2 14 2 o 85.177 86.764 0.00 1.08643 0.01
3 11 4 o 2613.593 2464.848 180.00 1.14976 0.44
-5 1 6 o 127.360 200.317 180.00 1.12258 0.02
5 1 6 o 25.309 41.987 180.00 1.12125 0.00
5 5 4 o 2514.316 2872.220 0.00 1.13795 0.41
4 10 2 o 189.347 236.024 0.00 1.13695 0.03
3 12 3 o 1253.009 2084.715 0.00 1.11689 0.20
5 4 5 o 1.775 2.651 0.00 1.12502 0.00
-5 7 2 o 288.589 604.027 0.00 1.13207 0.05
0 11 7 o 4.410 3.231 180.00 1.16907 0.00
-5 6 3 o 548.628 616.697 180.00 1.14553 0.09
5 6 3 o 1087.998 1310.926 180.00 1.13712 0.18
-5 8 1 o 130.329 240.035 180.00 1.10600 0.02
-5 5 4 o 2021.395 2458.205 0.00 1.14497 0.34
5 3 6 o 52.221 88.649 0.00 1.09968 0.01
-4 10 4 o 320.888 541.405 180.00 1.09897 0.05
5 7 2 o 568.659 886.474 0.00 1.12261 0.09
-5 4 5 o 85.280 167.660 180.00 1.13043 0.01
4 11 1 o 543.688 953.902 180.00 1.09453 0.08
-5 3 6 o 746.614 1328.389 0.00 1.10346 0.12
-4 9 5 o 26.769 52.679 180.00 1.11075 0.00
4 7 7 o 716.396 960.819 0.00 1.08909 0.11
-2 12 6 o 484.537 866.147 0.00 1.09752 0.07
4 8 6 o 0.094 0.167 0.00 1.10156 0.00
-4 8 6 o 14.276 29.200 0.00 1.10972 0.00
4 9 5 o 49.805 89.484 0.00 1.10156 0.01
2 10 8 o 588.182 846.873 0.00 1.09257 0.09
-1 13 6 o 19.513 34.182 180.00 1.08152 0.00
-4 7 7 o 2.834 5.980 180.00 1.09597 0.00
5 8 1 o 22.680 47.746 180.00 1.09593 0.00
-2 10 8 o 235.092 415.695 0.00 1.09752 0.04
-2 11 7 o 529.256 918.895 180.00 1.10385 0.08
4 10 4 o 20.432 30.183 180.00 1.08909 0.00
-5 7 4 o 46.971 51.671 0.00 1.08480 0.01
2 12 6 o 4.313 6.492 180.00 1.09158 0.00
2 11 7 o 853.540 1358.294 180.00 1.09831 0.13
-1 12 7 o 462.762 635.258 0.00 1.09249 0.07
1 11 8 o 64.624 95.192 180.00 1.08857 0.01
-5 6 5 o 88.492 157.465 0.00 1.08167 0.01
-3 10 7 o 8.088 23.752 180.00 1.07964 0.00
6 0 0 o 1895.610 2677.031 0.00 1.09203 0.14
6 1 1 o 177.343 170.559 0.00 1.08518 0.03
-1 11 8 o 123.991 198.351 180.00 1.09126 0.02
1 12 7 o 79.662 136.185 180.00 1.08955 0.01
6 2 0 o 130.348 254.944 0.00 1.08108 0.01
-6 1 1 o 1382.250 803.045 0.00 1.08663 0.21
-6 2 0 o 11.581 17.560 180.00 1.08395 0.00
