#------------------------------------------------------------------------------
#$Date: 2016-03-21 01:21:50 +0200 (Mon, 21 Mar 2016) $
#$Revision: 178377 $
#$URL: svn://www.crystallography.net/cod/cif/4/00/21/4002193.cif $
#------------------------------------------------------------------------------
#
# This file is available in the Crystallography Open Database (COD),
# http://www.crystallography.net/
#
# All data on this site have been placed in the public domain by the
# contributors.
#
data_4002193
loop_
_publ_author_name
'Rai, Binod K.'
'Oswald, Iain W. H.'
'Wang, Jiakui K.'
'McCandless, Gregory T.'
'Chan, Julia Y.'
'Morosan, E.'
_publ_section_title
;
 Superconductivity in Single Crystals of Lu3T4Ge13--x(T= Co, Rh, Os) and
 Y3T4Ge13--x(T= Ir, Rh, Os)
;
_journal_issue                   7
_journal_name_full               'Chemistry of Materials'
_journal_page_first              2488
_journal_paper_doi               10.1021/cm504658h
_journal_volume                  27
_journal_year                    2015
_chemical_formula_sum            'Ge12.93 Rh4 Y3'
_chemical_formula_weight         1616.96
_space_group_crystal_system      cubic
_space_group_IT_number           223
_space_group_name_Hall           '-P 4n 2 3'
_space_group_name_H-M_alt        'P m -3 n'
_symmetry_space_group_name_Hall  '-P 4n 2 3'
_symmetry_space_group_name_H-M   'P m -3 n'
_audit_creation_method           SHELXL-2014
_audit_update_record
;
2014-10-31 # Formatted by publCIF
;
_cell_angle_alpha                90
_cell_angle_beta                 90
_cell_angle_gamma                90
_cell_formula_units_Z            2
_cell_length_a                   8.923(2)
_cell_length_b                   8.923(2)
_cell_length_c                   8.923(2)
_cell_measurement_reflns_used    3073
_cell_measurement_temperature    299(2)
_cell_measurement_theta_max      30.46
_cell_measurement_theta_min      3.96
_cell_volume                     710.4(3)
_computing_cell_refinement       'Bruker SAINT'
_computing_data_collection       'Bruker APEX2'
_computing_data_reduction        'Bruker SAINT'
_computing_molecular_graphics    CrystalMaker
_computing_publication_material  'publCIF (Westrip, 2010)'
_computing_structure_refinement  'SHELXL-2014 (Sheldrick, 2014)'
_computing_structure_solution    'SHELXS Direct Methods (Sheldrick, 2013)'
_diffrn_ambient_temperature      299(2)
_diffrn_measured_fraction_theta_full 1.000
_diffrn_measured_fraction_theta_max 1.000
_diffrn_measurement_device_type  'Bruker Kappa D8 Quest CMOS'
_diffrn_measurement_method       '\f scan'
_diffrn_radiation_monochromator  'HELIOS optics'
_diffrn_radiation_type           MoK\a
_diffrn_radiation_wavelength     0.71073
_diffrn_reflns_av_R_equivalents  0.0812
_diffrn_reflns_av_unetI/netI     0.0282
_diffrn_reflns_Laue_measured_fraction_full 1.000
_diffrn_reflns_Laue_measured_fraction_max 1.000
_diffrn_reflns_limit_h_max       12
_diffrn_reflns_limit_h_min       -12
_diffrn_reflns_limit_k_max       12
_diffrn_reflns_limit_k_min       -8
_diffrn_reflns_limit_l_max       9
_diffrn_reflns_limit_l_min       -12
_diffrn_reflns_number            5387
_diffrn_reflns_point_group_measured_fraction_full 1.000
_diffrn_reflns_point_group_measured_fraction_max 1.000
_diffrn_reflns_theta_full        25.242
_diffrn_reflns_theta_max         30.457
_diffrn_reflns_theta_min         3.229
_diffrn_source                   'I\mS microfocus tube'
_exptl_absorpt_coefficient_mu    43.430
_exptl_absorpt_correction_T_max  0.7461
_exptl_absorpt_correction_T_min  0.1349
_exptl_absorpt_correction_type   multi-scan
_exptl_absorpt_process_details   SADABS(2014)
_exptl_crystal_colour            Silver
_exptl_crystal_density_diffrn    7.558
_exptl_crystal_description       Fragment
_exptl_crystal_F_000             1422
_exptl_crystal_size_max          0.12
_exptl_crystal_size_mid          0.08
_exptl_crystal_size_min          0.06
_refine_diff_density_max         2.043
_refine_diff_density_min         -1.896
_refine_diff_density_rms         0.371
_refine_ls_extinction_method     none
_refine_ls_goodness_of_fit_ref   1.116
_refine_ls_hydrogen_treatment    undef
_refine_ls_matrix_type           full
_refine_ls_number_constraints    0
_refine_ls_number_parameters     16
_refine_ls_number_reflns         220
_refine_ls_number_restraints     0
_refine_ls_restrained_S_all      1.116
_refine_ls_R_factor_all          0.0419
_refine_ls_R_factor_gt           0.0393
_refine_ls_shift/su_max          0.000
_refine_ls_shift/su_mean         0.000
_refine_ls_structure_factor_coef Fsqd
_refine_ls_weighting_details
'w=1/[\s^2^(Fo^2^)+(0.0398P)^2^+35.3529P] where P=(Fo^2^+2Fc^2^)/3'
_refine_ls_weighting_scheme      calc
_refine_ls_wR_factor_gt          0.0971
_refine_ls_wR_factor_ref         0.0990
_reflns_Friedel_coverage         0.000
_reflns_number_gt                207
_reflns_number_total             220
_reflns_threshold_expression     'I > 2\s(I)'
_cod_data_source_file            Y3Rh4Ge13_CIF.cif
_cod_data_source_block           shelx
_cod_depositor_comments
'Adding full bibliography for 4002190--4002195.cif.'
_cod_original_cell_volume        710.5(5)
_cod_database_code               4002193
#BEGIN Tags that were not found in dictionaries:
_publcif_datablock.id            {c1e53f67-6ee2-4a30-a9e8-0011f9256c04}
_shelx_space_group_comment
;
The symmetry employed for this shelxl refinement is uniquely defined
by the following loop, which should always be used as a source of
symmetry information in preference to the above space-group names.
They are only intended as comments.
;
_shelxl_version_number           2014-3
_shelx_res_file
;
TITL scd0355_223a in Pm-3n
CELL 0.71073   8.92320   8.92320   8.92320  90.0000  90.0000  90.0000
ZERR    2.00   0.00198   0.00198   0.00198   0.0000   0.0000   0.0000
LATT  1
REM xtal size:   0.06x0.08x0.12
REM VOLUME = 710.49(47)
SYMM -X, -Y, Z
SYMM -X, Y, -Z
SYMM X, -Y, -Z
SYMM Z, X, Y
SYMM Z, -X, -Y
SYMM -Z, -X, Y
SYMM -Z, X, -Y
SYMM Y, Z, X
SYMM -Y, Z, -X
SYMM Y, -Z, -X
SYMM -Y, -Z, X
SYMM 0.5+Y, 0.5+X, 0.5-Z
SYMM 0.5-Y, 0.5-X, 0.5-Z
SYMM 0.5+Y, 0.5-X, 0.5+Z
SYMM 0.5-Y, 0.5+X, 0.5+Z
SYMM 0.5+X, 0.5+Z, 0.5-Y
SYMM 0.5-X, 0.5+Z, 0.5+Y
SYMM 0.5-X, 0.5-Z, 0.5-Y
SYMM 0.5+X, 0.5-Z, 0.5+Y
SYMM 0.5+Z, 0.5+Y, 0.5-X
SYMM 0.5+Z, 0.5-Y, 0.5+X
SYMM 0.5-Z, 0.5+Y, 0.5+X
SYMM 0.5-Z, 0.5-Y, 0.5-X
SFAC GE Y RH

UNIT 25.86 6 8
TEMP 25.63
acta
L.S. 40
BOND
FMAP 2
PLAN 20
acta
EADP GE2A GE2B
rem EXTI    0.000263
WGHT    0.039800   35.352898
FVAR       0.05798   0.38136   0.93025
Y1    2    0.250000    0.500000    0.000000    10.12500    0.00638    0.00357 =
         0.00357    0.00000    0.00000    0.00000
RH1   3    0.250000    0.250000    0.250000    10.16667    0.00083    0.00083 =
         0.00083   -0.00006   -0.00006   -0.00006
GE1   1    0.000000    0.000000    0.000000    30.04167    0.01298    0.01298 =
         0.01298    0.00000    0.00000    0.00000
GE2A  1    0.000000    0.266773    0.133913    20.50000    0.00125    0.02087 =
         0.00803    0.00794    0.00000    0.00000
GE2B  1    0.000000    0.332444    0.156264   -20.50000    0.00125    0.02087 =
         0.00803    0.00794    0.00000    0.00000
HKLF 4

REM  scd0355_223a in Pm-3n
REM R1 =  0.0393 for     207 Fo > 4sig(Fo)  and  0.0419 for all     220 data
REM     16 parameters refined using      0 restraints

END

WGHT      0.0398     35.3560

REM Highest difference peak  2.043,  deepest hole -1.896,  1-sigma level  0.371
Q1    1   0.0000  0.2109  0.1563  10.50000  0.05    2.04
Q2    1   0.1030  0.0000  0.0000  10.25000  0.05    2.00
Q3    1   0.2579  0.1842  0.2504  11.00000  0.05    1.45
Q4    1   0.0000  0.3400  0.0000  10.25000  0.05    1.39
Q5    1   0.0000  0.3043  0.1053  10.50000  0.05    1.18
Q6    1   0.0000  0.1866  0.0000  10.25000  0.05    1.16
Q7    1   0.0824  0.2544  0.2560  11.00000  0.05    1.16
Q8    1   0.0000  0.2210  0.2916  10.50000  0.05    1.11
Q9    1   0.0000  0.3474  0.2073  10.50000  0.05    1.09
Q10   1   0.1624  0.5000  0.0000  10.25000  0.05    1.07
Q11   1   0.1642  0.2802  0.1075  11.00000  0.05    1.07
Q12   1   0.2846  0.2315  0.1647  11.00000  0.05    1.06
Q13   1   0.0000  0.2330  0.2531  10.50000  0.05    1.02
Q14   1   0.0000  0.5000  0.1768  10.25000  0.05    1.01
Q15   1   0.2500  0.3486  0.1514  10.50000  0.05    0.90
Q16   1   0.0000  0.1567  0.2094  10.50000  0.05    0.90
Q17   1   0.0000  0.4173  0.1080  10.50000  0.05    0.84
Q18   1   0.1346  0.3330  0.0733  11.00000  0.05    0.76
Q19   1   0.0000  0.1879  0.2545  10.50000  0.05    0.73
Q20   1   0.0749  0.0749  0.0749  10.33333  0.05    0.68
;
_shelx_res_checksum              51386
_shelx_hkl_file
;
  -1  -1   0    0.48    0.07
  -1   0  -1    0.32    0.17
  -1   1   0    0.33    0.09
  -1   1   0    0.46    0.18
   0  -1   1    0.37    0.08
   0   1  -1    0.64    0.11
   0   1  -1    0.23    0.07
   0   1   1    0.19    0.11
   1  -1   0    0.32    0.09
   1  -1   0    0.42    0.12
   1   0   1    0.36    0.10
   1   0   1    0.36    0.22
   1   1   0    0.51    0.09
   1   1   0    0.25    0.12
  -1  -1  -1   -0.37    0.07
  -1  -1  -1   -0.45    0.09
  -1  -1   1   -0.41    0.04
  -1   1  -1   -0.39    0.07
  -1   1  -1   -0.49    0.13
  -1   1   1   -0.46    0.05
   1  -1  -1   -0.41    0.11
   1  -1   1   -0.40    0.06
   1   1   1   -0.36    0.07
   1   1   1   -0.50    0.24
  -2   0   0  137.61   10.12
  -2   0   0  118.70   10.27
   0   0  -2  123.03   10.19
   0   0   2  132.60   10.20
   2   0   0  132.98   10.12
   2   0   0  126.44   10.26
  -2   0  -1    0.08    0.12
  -2   0   1   -0.09    0.10
  -1   2   0   -0.06    0.11
   0  -1  -2   -0.25    0.12
   0  -1   2   -0.05    0.12
   0  -1   2   -0.17    0.10
   0   1  -2    0.17    0.15
   0   1  -2    0.01    0.13
   0   1   2   -0.06    0.16
   2   0   1   -0.03    0.12
  -2  -1   0    0.17    0.09
  -2  -1   0   -0.22    0.16
  -2   1   0   -0.12    0.10
  -2   1   0   -0.15    0.23
  -1   0  -2   -0.19    0.14
  -1   0   2    0.08    0.13
   0  -2   1   -0.03    0.08
   0   2  -1    0.04    0.10
   0   2   1    0.48    0.25
   1   0   2   -0.05    0.13
   1   0   2   -0.06    0.21
   2  -1   0   -0.08    0.10
   2  -1   0   -0.12    0.18
   2   1   0   -0.07    0.07
   2   1   0    0.12    0.18
  -1  -2   1   -0.26    0.07
  -1  -1  -2   -0.27    0.14
  -1  -1   2   -0.20    0.12
  -1   1  -2    0.12    0.18
  -1   2  -1   -0.49    0.11
   1  -2   1   -0.54    0.09
   1  -1   2   -0.24    0.14
   1  -1   2   -0.49    0.16
   1   1   2   -0.31    0.14
   1   1   2    0.25    0.42
   1   2   1   -0.50    0.18
   2  -1  -1   -0.45    0.19
   2  -1   1   -0.36    0.11
   2  -1   1   -0.02    0.27
   2   1   1   -0.29    0.14
   2   1   1   -0.02    0.28
  -2   0  -2   44.26    4.02
   0  -2   2   47.99    3.78
   0   2  -2   47.74    3.82
   0   2   2   47.30    3.91
   2  -2   0   46.54    3.85
   2   0   2   52.21    3.86
   2   2   0   48.52    3.78
   2   2   0   46.92    3.90
  -2  -1  -2    0.18    0.19
  -2   1  -2    0.34    0.17
  -2   1  -2   -0.02    0.27
  -2   2  -1    0.21    0.14
  -1  -2   2    0.15    0.07
  -1   2  -2    0.11    0.13
  -1   2   2    0.18    0.14
   1  -2  -2    0.04    0.11
   1  -2   2    0.12    0.10
   1  -2   2    0.00    0.10
   1   2  -2    0.08    0.11
   1   2   2    0.14    0.47
   2  -2  -1    0.13    0.17
   2  -2   1    0.05    0.12
   2  -2   1    0.56    0.20
   2  -1  -2   -0.08    0.24
   2  -1  -2    0.02    0.11
   2  -1   2    0.10    0.13
   2  -1   2   -0.13    0.23
   2   1   2    0.54    0.17
   2   1   2    0.24    0.64
   2   2   1    0.21    0.18
  -2  -2  -2  276.21   23.14
  -2  -2   2  277.60   23.05
  -2   2  -2  311.59   23.14
   2  -2  -2  332.24   23.19
   2  -2   2  309.67   23.11
   2  -2   2  290.78   23.18
   2   2   2  277.52   23.15
  -3   0   0   -0.10    0.09
  -3   0   0   -0.02    0.33
   0   0  -3   -0.16    0.17
   0   0   3    0.02    0.15
   0   0   3   -0.05    0.15
   3   0   0   -0.04    0.10
   3   0   0   -0.08    0.23
  -3   0  -1   19.13    2.00
  -3   0   1   22.61    1.71
  -3   0   1   19.73    1.91
   0  -1   3   21.70    1.75
   0  -1   3   20.76    1.77
   0   1  -3   21.78    1.81
   3   0  -1   21.00    1.95
   3   0   1   19.37    1.71
   1   0  -3   20.83    1.77
   1   0   3   21.37    1.77
   1   0   3   21.79    1.90
   3  -1   0   22.48    1.73
   3  -1   0   21.86    1.93
   3   1   0   20.85    1.68
  -1   0   3   21.03    1.77
   0  -3   1   19.28    1.68
   0   3  -1   18.06    1.69
  -3   1   0   22.53    2.05
  -1   0  -3   20.93    1.81
  -1   0  -3   18.67    1.92
  -3   1   0   22.00    1.73
  -3  -1   0   19.85    1.68
  -1  -1   3   -0.61    0.11
   3  -1   1   -0.18    0.35
   1   3   1   -0.42    0.14
   3  -1  -1   -0.61    0.24
   3  -1   1   -0.51    0.13
   1   1  -3   -0.55    0.14
   1   1   3   -0.51    0.17
   1   1   3   -0.57    0.29
   1   3  -1   -0.49    0.08
   3   1  -1   -0.60    0.28
   3   1   1   -0.45    0.14
   3   1   1   -0.46    0.29
   1  -3   1   -0.53    0.10
   1  -1  -3   -0.55    0.15
   1  -1   3   -0.58    0.16
   1  -1   3   -0.45    0.19
  -3  -1  -1   -0.35    0.14
  -3  -1  -1   -0.76    0.20
  -3   1  -1   -0.56    0.13
  -3   1  -1   -0.58    0.41
  -3   1   1   -0.57    0.13
  -3   1   1   -0.43    0.25
  -1  -1  -3   -0.62    0.23
  -1   3   1   -0.51    0.13
  -1  -1   3   -0.53    0.11
  -1   1  -3   -0.45    0.19
  -1   1  -3   -0.36    0.24
  -1   1   3   -0.18    0.20
  -1   3  -1   -0.28    0.15
  -1   3   1   -0.48    0.12
   0  -2  -3  485.97   40.21
   0  -2   3  501.67   40.08
   0  -2   3  536.02   40.29
   0   2   3  556.27   40.24
   2  -3   0  464.36   40.10
   2   3   0  440.74   40.04
   2   3   0  454.82   40.12
   3   0  -2  520.33   40.35
   3   0   2  563.90   40.13
  -3   0  -2  497.34   40.11
  -3   0  -2  461.25   40.31
  -2   3   0  528.77   40.14
   0   3  -2  499.95   40.07
   0   3  -2  575.59   40.28
   2   0  -3  585.95   40.31
   2   0   3  522.21   40.14
   3  -2   0  535.88   40.22
   3   2   0  547.73   40.11
   3   2   0  521.59   40.25
  -2   0  -3  556.45   40.20
   0  -3   2  495.02   40.08
  -3  -2   0  458.99   40.05
  -3   2   0  553.78   40.12
   1  -3  -2   96.33    8.51
   2  -3   1  108.14    8.52
  -3  -1  -2  100.50    8.60
  -3  -2   1  113.87    8.47
  -1  -3   2  117.75    8.48
   3  -1   2  106.11    8.56
   2   1   3  119.26    8.62
   3   2   1  113.42    8.57
   3   2   1  116.19    8.71
   2  -3   1  119.10    8.55
   1  -2   3  104.14    8.55
   1  -2   3  119.71    8.61
   1   2  -3   91.78    8.56
  -3   2  -1  118.59    8.58
  -1   3  -2  116.44    8.83
   2  -1  -3  108.10    8.58
  -1   3  -2  119.98    8.56
  -2   1  -3  109.37    8.62
  -3  -2  -1  107.99    8.56
   1   2   3   92.39    8.62
  -2   3  -1  125.36    8.60
   2   3   1   91.00    8.55
  -3   2   1  109.13    8.72
  -2  -1  -3   94.88    8.62
   1  -2  -3  116.39    8.61
  -1  -3  -2  105.24    8.50
   3  -1  -2   92.31    8.73
  -3   2   1  118.31    8.60
  -3   1  -2  102.84    8.57
   1  -3   2  117.83    8.53
   1  -3   2  103.97    8.48
  -1  -2   3   99.28    8.53
  -1   2  -3  114.92    8.61
   2  -1   3  107.67    8.59
   2   1  -3  107.63    8.59
   3   1   2   98.78    8.58
   2   3   1  100.16    8.58
   3  -2   1  116.48    8.55
   3  -2   1  122.26    8.73
   3   2  -1  114.45    8.78
   2  -3  -1   99.13    8.51
   2  -3  -1  110.08    8.49
  -3  -2  -2   -0.06    0.17
  -3  -2  -2   -0.16    0.17
  -3   2  -2   -0.14    0.17
  -3   2  -2   -0.30    0.49
  -2  -2  -3   -0.05    0.18
  -2  -2   3   -0.17    0.11
  -2   2  -3   -0.09    0.19
  -2   2  -3    0.01    0.43
  -2   2   3   -0.06    0.18
  -2   3  -2    0.04    0.18
  -2   3  -2   -0.36    0.34
  -2   3   2   -0.21    0.15
   2  -3  -2   -0.10    0.16
   2  -3   2   -0.16    0.12
   2  -3   2    0.06    0.15
   2  -2  -3   -0.16    0.14
   2  -2   3    0.03    0.16
   2  -2   3   -0.20    0.20
   2   2  -3   -0.15    0.16
   2   2   3   -0.01    0.20
   2   2   3    0.21    0.91
   2   3   2   -0.27    0.19
   2   3   2   -0.32    0.46
   3  -2  -2    0.03    0.28
   3  -2  -2   -0.11    0.13
   3  -2   2    0.16    0.16
   3  -2   2   -0.30    0.24
   3   2   2   -0.14    0.20
   3   2   2   -0.06    0.45
  -3   0  -3  111.23    8.72
  -3   0  -3   93.38    8.87
  -3   3   0  118.01    8.69
   0  -3   3  105.24    8.59
   0   3  -3   96.13    8.71
   0   3  -3  118.31    8.69
   0   3   3  115.83    8.80
   3  -3   0  112.45    8.66
   3   0  -3  111.39    8.68
   3   3   0  110.60    8.58
   3   3   0  106.30    8.76
  -3  -3  -1   -0.16    0.17
  -3  -1  -3    0.00    0.27
  -3  -1  -3    0.41    0.34
  -3   1  -3   -0.14    0.21
  -3   1  -3   -0.11    0.46
  -3   3  -1   -0.22    0.18
  -3   3  -1    0.09    0.65
  -3   3   1   -0.30    0.22
  -3   3   1   -0.11    0.26
  -1  -3  -3    0.07    0.17
  -1   3  -3   -0.32    0.24
  -1   3   3   -0.18    0.23
   1  -3  -3   -0.02    0.21
   1  -3   3   -0.30    0.13
   1  -3   3   -0.22    0.13
   1   3  -3    0.19    0.26
   1   3   3    1.76    0.85
   3  -3  -1   -0.23    0.21
   3  -3  -1   -0.17    0.12
   3  -3   1   -0.17    0.15
   3  -3   1   -0.06    0.21
   3  -1  -3   -0.29    0.31
   3  -1  -3   -0.04    0.19
   3  -1   3   -0.27    0.22
   3  -1   3    0.12    0.44
   3   1   3   -0.19    0.21
   3   1   3    1.58    1.19
   3   3  -1   -0.31    0.32
   3   3   1   -0.23    0.21
   3   3   1   -0.28    0.24
  -3  -3  -2    4.33    0.52
  -3  -2  -3    2.87    0.55
  -3  -2  -3    2.57    0.51
  -3  -2   3    2.25    0.38
  -3   2  -3    2.96    0.52
  -3   3  -2    3.73    0.52
  -3   3  -2    2.62    0.81
  -2  -3  -3    2.98    0.42
  -2  -3   3    3.44    0.35
  -2   3  -3    3.72    0.53
  -2   3  -3    2.41    0.70
  -2   3   3    3.67    0.53
   2  -3  -3    3.40    0.55
   2  -3  -3    3.74    0.46
   2  -3   3    3.06    0.49
   2  -3   3    3.86    0.49
   2   3   3    2.95    0.56
   3  -3  -2    2.97    0.53
   3  -3  -2    3.37    0.41
   3  -3   2    3.43    0.45
   3  -3   2    2.73    0.48
   3  -2  -3    1.83    0.57
   3  -2   3    3.13    0.63
   3   2   3    3.38    0.61
   3   3   2    4.60    0.60
  -3  -3  -3    0.07    0.17
  -3  -3   3    0.23    0.09
  -3   3  -3    0.12    0.25
  -3   3  -3   -0.05    0.47
   3  -3  -3   -0.02    0.27
   3  -3  -3    0.34    0.20
   3  -3   3    0.24    0.19
   3  -3   3    0.22    0.24
   3   3   3    0.74    0.36
   3   3   3   -0.12    0.77
  -4   0   0  886.76   68.71
  -4   0   0  760.50   68.85
   0   0  -4  900.33   68.71
   0   0   4  740.85   68.60
   0   0   4  945.91   68.71
   4   0   0 1000.00   68.94
   4   0   0  941.28   68.84
  -4   0  -1  129.59    9.86
  -4   0   1  127.68    9.83
  -4   0   1  136.29   10.17
  -1   4   0  127.77    9.90
   0  -1  -4  119.29    9.99
   0  -1   4  118.60    9.88
   0  -1   4  130.68    9.94
   0   1  -4  120.28    9.97
   0   1   4  104.47    9.94
   0   1   4  131.97   10.03
   4   0  -1  128.24   10.14
   4   0   1  129.26    9.85
  -1   0   4  135.32    9.95
   1   0  -4  139.80    9.96
   1   0   4  124.79    9.91
   1   0   4  139.39   10.07
   4  -1   0  130.95    9.86
   4  -1   0  122.21   10.09
   4   1   0  114.85    9.81
  -1   0  -4  125.91   10.11
  -1   0   4  109.22    9.91
  -4   1   0  115.90    9.85
  -4   1   0  129.70   10.29
  -1   0  -4  117.63    9.96
   1  -4   1    1.06    0.20
   1  -1  -4    0.83    0.30
  -1  -1   4    0.58    0.24
  -1  -1   4    0.66    0.22
  -1   1  -4    0.49    0.30
  -1   1  -4    0.73    0.38
  -1   1   4    0.79    0.33
  -1   4  -1    1.11    0.26
  -1   4   1    0.93    0.21
  -1  -1  -4    0.60    0.38
  -4  -1   1    0.67    0.16
  -4   1  -1    0.56    0.22
  -4   1  -1    2.57    0.89
  -4   1   1    0.88    0.22
  -4   1   1    0.70    0.44
   4   1  -1    1.00    0.44
   4   1   1    0.56    0.21
   4   1   1    0.97    0.44
   4  -1   1    0.81    0.23
   4  -1   1    1.08    0.52
   1  -1   4    0.87    0.25
   1  -1   4    0.83    0.33
   1   1  -4    0.63    0.26
   1   1   4    0.79    0.42
   1   4   1    1.21    0.21
   4  -1  -1    0.45    0.38
  -4  -1  -1    0.74    0.22
  -4  -1  -1    0.46    0.37
   0   2   4  256.51   19.35
   4   0  -2  247.38   19.50
  -4  -2   0  241.76   19.12
   0   2  -4  251.22   19.27
  -4   0  -2  235.39   19.18
  -4   0   2  237.06   19.13
  -2   4   0  235.96   19.21
   0  -2  -4  242.70   19.33
   0  -2   4  207.43   19.15
   0  -2   4  235.90   19.18
   0   2  -4  258.89   19.29
   4   0   2  236.26   19.18
   4  -2   0  228.67   19.33
   4   2   0  238.83   19.10
   4   2   0  257.80   19.39
   4  -2   0  275.14   19.18
   2   0  -4  239.05   19.22
   0  -4   2  231.17   19.10
   0   4  -2  261.28   19.13
  -2   0  -4  254.34   19.30
  -4   2   0  275.73   19.64
  -4   2   0  245.21   19.18
  -1   4  -2    1.37    0.28
  -1  -4   2    1.58    0.22
  -1   2   4    1.66    0.43
  -2   1  -4    0.91    0.53
  -2   1  -4    1.46    0.40
  -1  -2  -4    1.23    0.44
  -2  -1   4    1.03    0.29
  -2   4   1    1.30    0.47
  -4   2  -1    1.32    0.31
  -4   2  -1    1.63    0.93
   4  -1   2    2.65    0.78
   2  -4   1    1.39    0.32
   2   4  -1    1.64    0.20
  -4  -2   1    1.38    0.22
   1  -2   4    1.03    0.28
   1  -2   4    1.63    0.37
   1   2  -4    1.17    0.32
   4   2   1    1.74    0.44
  -4   1   2    1.28    0.28
   2   1   4    1.26    0.37
   4  -2  -1    0.67    0.36
   1   4   2    2.81    0.74
   4  -1   2    1.33    0.28
  -4  -1  -2    1.40    0.30
  -1   4  -2    1.79    0.41
   2  -1  -4    1.43    0.32
   4   2   1    1.45    0.30
  -2   4   1    0.87    0.32
  -4  -1  -2    0.76    0.39
  -1   4   2    1.83    0.37
   1  -4   2    1.01    0.21
   1  -2  -4    1.39    0.35
   4  -1  -2    1.33    0.54
   4   1   2    1.53    0.32
   2  -1   4    1.66    0.36
   2  -1   4    1.16    0.43
   2   1  -4    1.31    0.34
  -4  -2  -1    0.69    0.37
  -1   2  -4    1.87    0.43
   4  -2   1    0.90    0.24
   4  -2   1    1.95    0.54
   4   2  -1    1.69    0.57
  -4   1  -2    1.25    0.29
  -4   1  -2    1.25    0.61
  -1   2  -4    1.24    0.47
  -2   1   4    0.86    0.35
  -2  -1  -4    1.01    0.34
  -2  -1  -4    0.92    0.42
  -1  -2   4    1.42    0.30
  -4   2   1    1.11    0.47
   1   4  -2    1.59    0.28
   1   2   4    1.95    0.61
  -2   4  -1    1.22    0.31
  -2   4  -1    0.64    0.67
   4   1   2    2.00    0.86
   1   2   4    1.72    0.44
  -4   2   1    1.12    0.28
   2   4   1    0.87    0.26
   4  -2  -2  390.97   37.14
   4  -2   2  462.39   36.99
   2   4  -2  454.42   36.91
  -4  -2   2  526.14   36.96
  -4   2  -2  498.52   37.04
  -4   2  -2  499.49   37.65
  -4   2   2  501.82   37.06
  -4  -2  -2  475.18   37.05
  -4  -2  -2  389.47   37.07
  -2   2   4  482.43   37.22
  -2   4  -2  514.84   37.04
  -2   4   2  531.76   37.03
   2  -4   2  510.01   36.98
   2  -4   2  406.67   36.92
   2  -2  -4  494.99   37.05
   2  -2   4  442.47   37.02
   2  -2   4  443.52   37.08
   2   2  -4  506.17   37.08
   2   2   4  474.74   37.09
  -2   2  -4  505.36   37.10
   4   2   2  482.91   37.06
  -2  -2   4  458.23   36.98
  -4  -3   0   41.47    3.83
  -3   4   0   53.78    4.14
  -3   0  -4   47.74    4.03
  -4   0  -3   45.33    3.96
  -4   3   0   47.72    3.95
  -4   3   0   51.92    4.34
   0  -4  -3   54.34    3.81
   0  -4   3   47.51    3.83
   0   4  -3   51.31    3.91
   0   4   3   47.91    4.05
   3   0  -4   46.28    3.95
   3   0   4   50.53    3.97
   4  -3   0   54.11    3.94
   4  -3   0   45.11    3.98
   4   3   0   44.85    3.81
   4   3   0   47.24    4.09
   3   4   0   54.43    3.88
   3   4   0   44.93    3.97
   4   0   3   48.36    3.96
   3  -4   0   43.55    3.78
   0   3   4   50.41    4.11
  -3   4   0   51.03    3.98
   0   3  -4   46.35    4.01
   0  -3   4   45.21    3.87
   0  -3   4   46.00    3.86
   0   3  -4   49.18    4.00
   1   3  -4    4.95    0.67
   4  -1   3    4.80    0.65
  -4  -3   1    4.57    0.44
  -4   3  -1    4.66    0.65
  -4   3  -1    6.61    1.41
   4   3   1    4.10    0.77
  -4  -1  -3    5.79    0.73
  -4  -1  -3    4.94    0.80
   3  -1  -4    5.38    0.65
  -3   1  -4    3.03    0.88
  -3   4   1    4.11    0.67
   4   3   1    4.53    0.62
   3  -4   1    5.37    0.52
   1  -3   4    4.34    0.57
   1   3  -4    5.48    0.78
  -1   3   4    5.47    0.81
  -3   4   1    5.95    0.73
  -3   1  -4    4.85    0.70
   3  -4   1    6.03    0.60
   3   1   4    6.43    0.72
  -1   4  -3    5.89    0.66
   4  -3  -1    4.42    0.69
  -4   1  -3    5.34    0.69
   3  -1   4    5.66    0.67
   4  -3   1    4.97    0.58
  -3  -1  -4    4.40    0.73
  -3  -1  -4    4.18    0.87
  -4   1  -3    3.07    0.85
  -1  -4  -3    5.10    0.47
   4   1   3    4.43    0.69
   1   4  -3    5.63    0.62
   1  -3  -4    4.75    0.69
  -4  -3  -1    4.26    0.66
   3   4   1    4.74    0.66
  -3   4  -1    6.49    1.29
   4  -3   1    4.55    0.71
  -3   4  -1    5.93    0.69
  -1  -3   4    4.70    0.56
  -1   3  -4    5.80    0.74
  -1   3  -4    5.12    0.83
   4   3  -1    4.64    0.92
   3   4   1    6.14    0.72
   1  -4   3    6.22    0.56
   1   3   4    3.96    0.76
   3  -4  -1    4.08    0.50
   3  -4  -1    5.65    0.48
   3   1  -4    5.47    0.67
   4  -1  -3    4.60    0.61
  -4   3   1    4.70    0.68
   4  -1  -3    3.56    0.82
   2  -3   4   22.23    1.84
   2  -3   4   20.63    1.79
  -4  -2  -3   18.66    1.88
  -4  -2  -3   16.98    1.84
   3  -4   2   20.51    1.76
   3  -4   2   19.33    1.73
   3  -2  -4   18.73    1.81
  -3   2  -4   18.43    1.86
   4  -2   3   18.38    1.79
   2  -4  -3   21.10    1.74
   2  -4  -3   21.48    1.78
  -4   3  -2   22.81    1.86
  -3   4   2   21.67    1.90
  -2  -3  -4   18.59    1.81
   4   3   2   24.76    1.91
  -3  -2   4   17.14    1.74
  -2   3   4   24.12    1.94
   4   3   2   25.09    2.11
  -2   4  -3   18.03    2.11
   4  -3  -2   19.09    1.89
   2   3  -4   22.81    1.88
  -2  -4   3   22.43    1.65
  -2   4  -3   21.92    1.85
   4  -3  -2   23.18    1.78
  -4   3  -2   21.95    2.55
   2   4   3   17.26    1.93
  -4  -3  -2   21.88    1.85
   3  -4  -2   19.47    1.71
   3  -4  -2   19.26    1.72
  -4   3   2   19.55    1.97
  -3  -2  -4   20.46    1.91
  -3  -2  -4   17.08    1.88
  -2   3  -4   23.10    1.89
  -2   3  -4   17.90    2.17
   4  -2  -3   19.39    1.79
  -4  -2   3   20.39    1.68
  -4   2  -3   18.14    1.83
   4   2   3   21.84    1.90
  -2   4   3   23.53    1.87
   2   3   4   22.89    1.99
   2  -4   3   21.21    1.76
   2  -4   3   20.07    1.70
  -4  -3  -2   21.52    1.83
   3   4   2   21.73    1.92
   3   4   2   23.72    1.96
   4  -2  -3   16.08    2.11
   3  -2   4   18.68    1.82
   3  -2   4   21.50    2.11
   3   2  -4   21.32    1.88
  -3   4  -2   21.79    1.86
  -4   3   2   22.11    1.89
   4  -3   2   21.95    1.79
   4  -3   2   22.53    1.92
   4   3  -2   18.66    2.06
  -2  -3   4   21.75    1.73
   2  -3  -4   22.27    1.83
  -4  -3  -3  160.52   11.94
  -4  -3  -3  137.87   11.86
  -4  -3   3  147.75   11.70
  -4   3  -3  146.04   11.91
  -3  -4  -3  164.18   11.81
  -3  -3  -4  128.71   11.85
  -3  -3   4  139.66   11.77
  -3   3  -4  162.84   11.95
  -3   4  -3  162.64   11.93
   3  -4  -3  168.77   11.86
   3  -4  -3  146.83   11.80
   3  -4   3  154.91   11.83
   3  -4   3  149.60   11.83
   3  -3  -4  164.51   12.01
   3  -3  -4  140.27   11.85
   3  -3   4  133.26   11.84
   3   3  -4  147.03   11.94
   3   3   4  147.71   11.97
   3   4   3  165.29   12.01
   4  -3  -3  135.52   11.97
   4  -3  -3  139.37   11.84
   4  -3   3  171.41   11.97
  -4   0  -4  196.29   15.95
  -4   0  -4  195.60   16.18
  -4   4   0  212.80   15.93
  -4   4   0  194.45   16.10
   0  -4   4  206.94   15.78
   0   4  -4  210.76   15.93
   0   4  -4  210.70   15.94
   0   4   4  211.28   16.05
   4   0  -4  214.01   15.92
   4   0   4  169.03   15.87
   4   4   0  219.41   15.76
   4   4   0  178.28   15.95
  -4  -1  -4    0.55    0.34
  -4  -1  -4    0.11    0.39
  -4   1  -4    0.48    0.33
  -4   1  -4    0.08    0.51
  -4   4  -1    0.01    0.29
  -4   4  -1    1.22    0.80
  -4   4   1    0.13    0.31
  -1  -4  -4    0.15    0.18
  -1  -4   4    0.27    0.16
  -1   4  -4    0.37    0.33
  -1   4  -4    0.18    0.39
  -1   4   4    0.42    0.44
   1  -4  -4    0.42    0.26
   1  -4  -4    0.12    0.29
   1  -4   4    0.18    0.19
   1   4  -4    0.05    0.34
   1   4  -4    0.02    0.26
   1   4   4    0.90    0.71
   4  -4  -1    0.04    0.21
   4  -4   1    0.97    0.29
   4  -1  -4    0.26    0.47
   4  -1   4   -0.01    0.31
   4   1  -4    0.07    0.24
   4   1   4    0.72    0.37
   4   1   4    2.82    1.62
   4   4  -1    0.09    0.40
   4   4   1   -0.14    0.29
   4   4   1    0.25    0.32
  -4  -2  -4   10.85    1.35
  -4  -2  -4    9.82    1.30
  -4   2  -4   10.93    1.30
  -4   4  -2   14.33    1.34
  -4   4  -2   13.62    1.91
  -4   4   2   13.74    1.37
  -4   4   2   12.86    1.37
  -2  -4  -4   11.36    1.13
  -2  -4   4   13.58    1.09
  -2   4  -4   14.54    1.34
  -2   4  -4   11.61    1.69
  -2   4   4   13.72    1.36
   2  -4  -4   13.91    1.27
   2  -4   4   13.59    1.20
   2  -4   4   13.46    1.18
   2   4  -4   13.31    1.31
   2   4   4   12.03    1.51
   4  -4  -2   12.22    1.21
   4  -4  -2   12.75    1.15
   4  -4   2   12.87    1.24
   4  -4   2   11.71    1.20
   4  -2  -4   10.45    1.23
   4  -2   4    9.97    1.24
   4   2   4   16.41    1.42
   4   4   2   13.21    1.40
  -4  -4  -3    0.26    0.22
  -4  -3  -4    0.26    0.28
  -4  -3   4    0.32    0.22
  -4   3  -4    0.63    0.36
  -4   3  -4   -0.33    0.62
  -4   4  -3    0.10    0.36
  -4   4  -3   -0.63    0.67
  -3  -4  -4    0.10    0.19
  -3  -4   4    0.15    0.11
  -3   4  -4    0.33    0.40
  -3   4  -4   -0.15    0.63
   3  -4  -4    0.32    0.30
   3  -4  -4    0.28    0.24
   3  -4   4    0.49    0.25
   3  -4   4    0.25    0.26
   3   4  -4    0.07    0.33
   3   4   4    0.16    0.52
   3   4   4    0.88    1.27
   4  -4  -3   -0.10    0.27
   4  -4  -3    0.16    0.20
   4  -4   3    0.06    0.24
   4  -3  -4   -0.01    0.44
   4  -3  -4    0.29    0.24
   4  -3   4    0.28    0.33
   4   3   4    1.28    0.48
   4   3   4    0.75    1.28
   4   4   3    0.42    0.44
   4   4   3    0.51    0.68
  -4  -4  -4  279.25   21.06
  -4   4  -4  263.98   21.19
   4  -4  -4  264.62   21.06
  -5   0   0    0.77    0.20
  -5   0   0    0.27    0.55
   0   0  -5    0.15    0.31
   0   0   5    0.28    0.28
   0   0   5    0.24    0.34
   0   5   0    0.66    0.26
   5   0   0    0.28    0.19
   5   0   0   -0.10    0.49
  -5   0  -1   16.65    1.35
  -5   0  -1   13.69    1.87
  -5   0   1   15.38    1.29
  -5   0   1   16.90    1.83
   0  -1   5   15.25    1.39
   0  -1   5   13.89    1.44
   0   1  -5   14.02    1.50
   0   1   5   16.07    1.53
   0   1   5   14.48    1.54
   5   0  -1   17.39    1.80
   5   0   1   15.30    1.34
   5   1   0   13.14    1.28
   5   1   0   13.96    1.68
  -5   1   0   12.62    1.31
  -5   1   0   15.44    1.98
  -1   0  -5   15.76    1.49
  -1   0  -5   15.72    1.68
  -1   0   5   16.40    1.49
  -1   0   5   16.69    1.47
   0   5  -1   12.14    1.31
   1   0  -5   15.63    1.47
   1   0   5   17.20    1.43
   1   0   5   16.44    1.60
   5  -1   0   13.69    1.31
   5  -1   0   15.06    1.70
  -5  -1   0   12.91    1.28
  -1   5  -1    0.21    0.18
  -1   5   1   -0.03    0.12
  -1   5   1    0.13    0.15
  -5  -1   1    0.15    0.16
  -5   1  -1   -0.24    0.18
  -1   5  -1   -0.19    0.24
  -5   1   1   -0.23    0.15
  -5   1   1    0.24    0.48
  -1  -1  -5   -0.13    0.39
  -1  -1   5   -0.18    0.20
  -1   1  -5    0.06    0.32
  -1   1  -5    0.05    0.32
  -1   1   5    0.19    0.46
  -5  -1  -1   -0.16    0.47
   5  -1   1    0.21    0.56
   5   1  -1   -0.23    0.49
   5   1   1   -0.06    0.19
   5   1   1    0.08    0.47
  -1   1   5    0.07    0.32
   1  -1  -5    0.00    0.28
   1  -1   5    0.13    0.25
  -5  -1  -1    0.14    0.20
   1   5   1   -0.08    0.11
   5  -1  -1   -0.34    0.39
   5  -1   1   -0.05    0.19
   1   5  -1    0.09    0.16
   1   1   5    0.18    0.33
   1   1   5   -0.27    0.40
   1  -1   5   -0.13    0.30
   1   1  -5    0.07    0.27
  -5   1  -1    0.45    0.80
  -2   0  -5   31.45    2.78
  -5   2   0   28.22    2.59
  -5   2   0   37.45    3.35
  -5  -2   0   28.00    2.52
   0   2   5   31.68    2.89
   0   5  -2   28.74    2.51
   5   0  -2   32.50    3.07
   5   0   2   28.21    2.58
  -5   0  -2   30.42    2.60
  -5   0   2   29.75    2.53
  -2   5   0   30.18    2.66
   5  -2   0   30.98    2.59
   5  -2   0   28.35    2.88
   5   2   0   33.81    2.53
   5   2   0   33.46    2.93
  -2   5   0   34.68    2.69
   0  -2  -5   30.02    2.79
   0  -2   5   31.44    2.61
   0   2  -5   28.93    2.75
  -2   0   5   31.48    2.68
   0  -5   2   33.53    2.52
   0   5  -2   29.01    2.55
   2   0  -5   30.83    2.68
  -2   1  -5    6.23    1.00
  -2   1  -5    5.60    1.23
   5   2   1    8.87    1.20
  -1   5  -2   10.38    1.15
  -5  -2   1    8.43    0.74
  -5   2  -1    8.73    0.87
   5   1  -2    7.47    1.43
   1  -2   5    9.33    0.91
   1  -2   5    8.40    0.97
   1   2  -5    9.18    1.00
  -2  -1   5    6.21    0.89
  -5  -1  -2    7.09    0.87
   5  -2  -1    6.90    1.09
   5  -1   2    6.63    0.82
  -1   2   5    9.19    1.08
  -5   1   2    6.78    0.81
   5   2   1    8.00    0.83
  -1  -2  -5    6.93    1.12
   2  -1  -5    6.76    0.91
   2   1   5    6.85    0.93
   2  -1   5    6.65    1.03
   2  -1   5    8.05    0.90
  -5   2   1    8.28    0.86
  -5  -2  -1    9.49    0.87
  -5  -2  -1    6.58    1.02
   1   2   5    9.77    1.10
  -5   1  -2    5.52    1.34
   2   5   1    7.98    0.78
   5  -1  -2    5.36    1.22
  -5   1  -2    6.46    0.85
   5   1   2    5.77    0.84
  -5  -1   2    6.51    0.72
   5  -2   1    7.66    0.81
   5   2  -1   10.04    1.40
  -2   5  -1   10.31    0.96
  -2   1   5    6.83    0.93
  -5   2   1    8.51    1.28
  -2  -1  -5    6.25    0.93
   1  -2  -5    8.48    0.96
  -1   2  -5    8.95    1.16
   2   1  -5    6.52    0.91
   5   1   2   11.62    1.59
  -1   2  -5    7.92    1.04
  -1  -2   5    8.59    0.88
  -1  -2   5    9.96    0.90
  -2  -2   5    0.43    0.29
  -2  -2  -5    0.20    0.42
  -5   2  -2    0.59    0.95
  -5   2   2    0.11    0.24
  -5   2  -2    0.33    0.30
   5  -2   2    0.53    0.65
   5   2  -2    0.65    0.65
  -5   2   2    0.33    0.47
   2  -5   2    0.76    0.24
   2  -2  -5    0.43    0.30
   2  -2   5   -0.10    0.31
   2  -2   5    0.11    0.33
   2   2  -5    0.03    0.28
   2   2   5    0.33    0.37
   2   2   5    0.81    0.92
   2   5  -2    0.74    0.20
   2   5   2    0.61    0.33
   5  -2  -2    0.11    0.41
  -2   5   2    0.26    0.23
  -2   2  -5    0.30    0.60
  -2   2   5    0.19    0.30
   5   2   2    0.30    0.29
  -2   5  -2   -0.20    0.45
   5  -2   2    0.49    0.25
  -5  -2  -2    0.25    0.27
  -5  -2  -2    0.13    0.30
  -5  -2   2    0.17    0.14
  -2   5  -2    0.43    0.29
  -2   2  -5    0.26    0.33
   5   0   3    2.88    0.54
  -3   0  -5    3.13    0.65
  -3   5   0    2.33    0.54
   0  -3  -5    2.36    0.64
   0  -3   5    1.63    0.40
   0  -3   5    2.38    0.45
   0   3  -5    3.49    0.68
   0   3  -5    2.59    0.61
   0   3   5    2.92    0.73
   3   5   0    2.14    0.44
   5  -3   0    2.92    0.65
   5   3   0    2.80    0.40
   5   3   0    2.81    0.70
  -3   0  -5    3.53    0.95
   0  -5   3    2.83    0.38
  -5   0  -3    1.49    0.64
  -5   0   3    3.55    0.48
   5   0  -3    3.12    0.92
  -5  -3   0    1.91    0.37
   0   5   3    2.78    0.60
   3   0  -5    3.34    0.59
  -3   5   0    3.34    0.59
   3   5   0    2.23    0.47
  -5   0  -3    3.61    0.61
  -5   3   0    2.59    0.49
  -5   3   0    2.33    0.81
   3   0   5    4.23    0.64
   5  -3   0    3.26    0.53
   0   5  -3    2.83    0.52
   0   5  -3    2.66    0.52
   5  -3  -1    8.88    1.14
  -5  -1  -3    9.10    1.20
  -1  -3  -5    7.77    1.15
  -5  -3   1    7.52    0.82
  -5   3  -1    8.57    1.01
  -5   3  -1   12.96    2.30
  -1   3   5   10.47    1.22
   5   3   1    8.90    1.21
  -3   5   1    8.45    1.06
   1  -3   5    8.65    0.96
   3  -1  -5    9.86    1.04
   1  -3   5    7.98    0.96
  -5  -1  -3    9.37    1.06
  -3  -1   5    8.06    1.10
  -3   1  -5   10.45    1.17
   5   3   1    9.46    0.95
  -1  -5   3    8.62    0.81
  -1   5  -3    7.94    0.97
   5  -1   3    9.20    1.01
   5   1  -3    8.49    1.56
   1   3  -5    9.17    1.16
   1   3  -5    9.06    1.07
  -3   1  -5    6.07    1.37
  -5   1   3    9.46    0.98
  -1   5  -3   10.07    1.13
   3   5   1    8.64    1.06
  -3   5  -1    8.32    1.03
  -3   5  -1    7.41    1.36
  -3  -1  -5    8.95    1.36
  -5  -1   3    9.77    0.86
  -1  -3   5    8.24    0.93
  -5   1  -3    9.62    1.04
   1  -3  -5    9.75    1.10
  -5   1  -3    8.04    1.49
   5  -3   1    8.98    0.94
   5  -3   1    9.89    1.22
   5   3  -1   10.42    1.42
   5  -1  -3    8.83    1.50
  -5   3   1    9.53    1.02
  -5   3   1    7.34    1.27
  -3  -1  -5   12.02    1.23
   5   1   3    9.47    1.09
   3   1  -5    9.51    1.04
  -5  -3  -1    8.32    0.96
  -5  -3  -1    8.31    1.04
   1   3   5   11.64    1.40
  -1   3  -5   10.19    1.18
  -1   3  -5    9.10    1.26
  -1   5   3    9.93    1.07
   1  -5   3    8.42    0.87
   1   5  -3    8.07    0.93
  -2   3   5   99.43    7.48
   5  -3  -2   97.67    7.30
  -5   2   3   95.30    7.36
  -5  -2  -3   97.94    7.40
  -3   5   2   79.99    7.30
  -2  -3  -5   87.80    7.42
  -5  -3   2   93.74    7.14
  -5   3  -2   90.14    7.35
  -3   5   2   81.48    7.41
   5   3   2  106.12    7.63
  -5  -2  -3   92.10    7.42
   5  -2   3   91.86    7.31
  -3  -2   5   93.64    7.29
  -3   2  -5   93.76    7.44
  -2   5  -3   91.61    7.34
   2  -3   5   84.35    7.29
   2  -3   5   86.99    7.34
   2   3  -5   91.36    7.40
   5  -3  -2   79.64    7.40
   2   5   3   90.41    7.48
   3  -5   2   93.09    7.26
   3  -2  -5   98.82    7.37
   5   2  -3   88.62    7.69
  -5   3  -2   94.97    8.19
  -5   3   2   88.80    7.52
  -5   3   2   87.76    7.35
  -3  -2  -5   94.67    7.53
   2  -5   3   91.65    7.25
   2   5  -3   83.33    7.25
   5  -2  -3   83.86    7.58
  -2   3  -5   76.90    7.65
   3   5   2   89.60    7.34
   2  -3  -5   89.12    7.34
  -2   3  -5   91.07    7.42
  -2   5   3   99.56    7.36
   3   2  -5   94.77    7.40
   5  -2  -3  103.02    7.35
  -5  -2   3   91.55    7.17
  -5   2  -3   93.29    7.36
  -5  -3  -2   94.13    7.35
  -5  -3  -2   87.28    7.35
  -3   5  -2   91.19    7.38
   5  -3   2   90.82    7.28
  -2  -3   5   91.65    7.26
   2   3   5  107.60    7.55
   5   3  -2   92.49    7.66
   3   5   2   88.38    7.40
   5   2   3   90.44    7.39
  -3   3  -5   -0.21    0.67
  -3   5  -3   -0.12    0.59
   3  -5   3    0.00    0.36
  -5   3  -3    0.52    0.37
  -5  -3   3    0.17    0.10
  -3   5  -3    0.21    0.37
   3  -3   5    0.13    0.34
   3   3  -5    0.38    0.34
   3   3   5   -0.01    0.45
  -5  -3  -3    1.04    0.40
  -5  -3  -3    0.32    0.28
   5  -3  -3    0.10    0.25
   5  -3   3    0.64    0.33
   5  -3   3    0.38    0.45
   5   3  -3    0.06    0.59
   5   3   3    0.40    0.45
   5   3   3    0.50    0.73
   5  -3  -3    0.07    0.43
   3  -5   3    0.24    0.13
   3  -3  -5    0.07    0.37
   3   3   5    4.87    2.03
   3   5   3    1.21    0.52
   3   5   3    1.39    0.73
  -3  -3   5    0.18    0.28
  -3   3  -5    0.09    0.38
   3  -3  -5    0.57    0.32
  -3  -3  -5    0.23    0.32
  -5   3   3    0.16    0.35
  -5   3  -3    0.37    0.88
   5   0   4   71.23    6.07
   4   5   0   65.73    6.07
   5   0  -4   66.65    6.36
  -5   0  -4   69.84    6.09
  -5   0  -4   80.63    6.42
  -4   5   0   68.73    6.08
   0  -4  -5   79.02    6.13
   0   4  -5   80.98    6.19
   0   4   5   86.57    6.32
   4  -5   0   62.66    5.83
   4   5   0   74.50    5.92
  -5   4   0   86.10    6.13
  -5   4   0   76.06    6.40
   0  -4   5   80.60    5.96
  -4   0  -5   69.93    6.40
   0  -5   4   68.88    5.90
   0   5  -4   72.51    6.06
   5   0  -4   78.52    6.09
   0   5  -4   70.25    6.07
   0   5   4   62.12    6.24
   4   0  -5   75.06    6.08
   4   0   5   86.17    6.10
   5  -4   0   73.53    6.04
  -4   0  -5   84.74    6.20
   5   4   0   81.44    6.25
  -5   4  -1    0.26    0.34
   1  -5  -4    0.24    0.13
  -4   1  -5    0.95    0.45
  -5  -1  -4   -0.30    0.34
   4  -1  -5    0.32    0.29
  -1   4   5    0.05    0.49
  -5   4  -1    0.01    0.87
   1  -4   5   -0.09    0.24
   1  -4   5    0.08    0.19
  -4   5   1   -0.08    0.36
  -4   1  -5    0.37    0.64
  -5  -1  -4    0.18    0.41
   4  -5   1    0.15    0.15
  -1   5  -4    0.26    0.34
  -1   5  -4    0.36    0.44
  -1  -4  -5   -0.15    0.27
   1   4  -5    0.00    0.34
   4   1   5    0.86    0.38
   4   1   5    4.46    2.39
   5   4   1    0.74    0.34
   5   4   1    0.22    0.44
   5  -1   4   -0.57    0.34
  -1  -5   4    0.43    0.17
   1   5   4    0.43    0.84
   5  -1   4    0.14    1.01
   5  -4  -1    0.29    0.31
   1  -5  -4    0.18    0.13
   5   1  -4    0.63    0.72
   1   4  -5   -0.25    0.44
  -4   5   1    0.36    0.35
  -4  -1  -5    0.39    0.41
  -5   1  -4    1.23    0.73
   5   1   4    0.31    0.41
   5   1   4    4.37    1.89
   4   5   1    0.90    0.44
  -1   5   4    0.62    0.50
   1   5  -4    0.46    0.42
   1   5  -4    0.18    0.31
  -5   4   1    0.05    0.44
  -5   4   1   -0.12    0.30
   4  -1   5   -0.21    0.36
   4  -1   5    0.39    0.69
   4   1  -5    0.63    0.37
   1   4   5   -0.66    0.72
   1   4   5   -0.16    0.69
  -4  -1  -5   -0.12    0.46
   5  -4   1    0.05    0.24
   5  -1  -4    0.10    0.68
  -1   4  -5    0.30    0.45
  -1   4  -5    0.25    0.52
  -5   1  -4    0.02    0.33
   1  -4  -5    0.36    0.37
  -4   5  -1    0.31    0.34
  -4   5  -1    0.07    0.56
  -1  -5  -4    0.23    0.11
   1  -5   4    0.58    0.23
  -1  -4   5    0.26    0.23
   5  -1  -4    0.08    0.27
   4  -5  -1    0.14    0.17
   4  -5  -1    0.32    0.13
   5  -4   1    0.05    0.29
   5   4  -1    0.03    0.50
   2   5   4   31.54    2.90
  -2   5  -4   23.68    2.88
  -5   4  -2   26.63    3.26
   4  -5   2   28.85    2.40
  -2   4   5   33.52    2.74
  -5  -2  -4   30.10    2.65
   5  -4  -2   28.57    2.54
   5  -2   4   29.43    2.56
   2   4  -5   29.25    2.63
   2  -5  -4   24.18    2.45
  -5  -2  -4   28.32    2.62
   4  -2  -5   29.52    2.74
  -4   5   2   26.14    2.56
  -2  -4  -5   29.96    2.49
  -2  -5   4   31.77    2.34
  -2   5  -4   29.66    2.60
   5  -4  -2   32.01    2.47
   2  -4   5   31.05    2.50
   4  -2  -5   30.52    2.57
  -4   5   2   30.47    2.67
  -4  -2   5   26.52    2.48
  -4   2  -5   27.61    2.63
  -5   4  -2   33.69    2.65
   5   4   2   31.68    2.76
   2  -4   5   29.34    2.49
   5  -4   2   29.66    2.55
  -4   5  -2   30.22    2.64
   5   4  -2   25.18    2.78
  -2   4  -5   30.38    2.67
   2   5  -4   30.96    2.59
  -5  -4  -2   32.40    2.51
   4   2  -5   30.04    2.63
  -4   5  -2   24.00    2.92
  -2   4  -5   26.94    3.00
   2  -4  -5   30.59    2.58
   2  -5   4   29.37    2.45
   2   5  -4   25.54    2.53
  -2   5   4   30.17    2.64
   4  -5  -2   29.32    2.38
  -5   2  -4   28.65    2.61
   4   5   2   28.67    2.60
   5  -2  -4   26.32    2.84
   5  -2  -4   29.38    2.54
  -5   4   2   26.05    2.67
  -4  -2  -5   33.05    2.73
  -4  -2  -5   31.07    2.72
  -5  -2   4   30.34    2.39
  -5   4   2   30.90    2.63
  -2  -4   5   30.36    2.40
  -5   4  -3    0.61    0.80
   5   4   3    0.28    0.52
   5  -3   4    0.04    0.44
   5  -4  -3    0.13    0.36
   5  -4  -3    0.24    0.26
   4  -5   3    0.30    0.24
   4   3   5    0.94    0.53
   4   3   5    0.82    1.90
  -5  -3  -4    0.37    0.40
  -4  -5  -3    0.31    0.20
   3   5   4    0.54    0.63
  -4   5   3    0.14    0.43
  -3  -4  -5   -0.07    0.21
  -4   3  -5    0.29    0.75
  -3   5  -4    0.50    0.76
  -3   5  -4   -0.21    0.41
  -3   4   5   -0.09    0.40
   3  -5  -4    0.67    0.26
   3  -5  -4    0.13    0.27
   3  -4   5    0.26    0.34
   3  -4   5    0.22    0.29
   3   4  -5    0.24    0.38
   3   5   4    0.30    1.02
   4  -3  -5    0.14    0.52
   4  -3  -5    0.21    0.32
  -4   3  -5    0.41    0.41
   5   4   3    0.33    0.67
  -5  -3  -4    0.72    0.32
  -5  -3   4    0.48    0.22
  -5  -3   4    0.15    0.13
  -5  -4  -3   -0.04    0.26
  -5   3  -4    0.17    0.82
  -5   3  -4    0.15    0.40
  -5   4   3    0.44    0.42
  -4  -3  -5   -0.19    0.27
  -4   5  -3   -0.13    0.45
   4  -5  -3    0.16    0.21
  -3  -4   5    0.21    0.20
  -3  -5  -4    0.01    0.16
  -3   4  -5    0.40    0.76
  -3   4  -5    0.21    0.39
   3  -4  -5    1.02    0.42
   3  -4  -5    0.28    0.31
   3  -5   4    0.37    0.22
   3   5  -4   -0.04    0.36
  -4   5  -3   -0.28    0.68
   3   4   5    0.06    0.60
   3   4   5    0.39    1.65
   4  -5  -3   -0.06    0.21
   4  -3   5   -0.01    0.39
   4   3  -5    0.18    0.37
   4   5   3    0.68    0.58
   4   5   3    1.09    0.67
   5  -3  -4   -0.18    0.54
   5  -3  -4    0.01    0.29
   5  -4   3    0.06    0.30
   5   4  -3    0.13    0.54
   5   3   4    2.04    1.27
   5   3   4    0.43    0.49
  -5  -4  -4   -0.02    0.25
  -5   4  -4   -0.20    0.45
  -5   4  -4   -0.19    0.75
  -4  -4  -5    0.02    0.26
  -4  -4   5    0.33    0.18
  -4   4  -5    0.97    0.51
  -4   4  -5   -0.44    0.76
  -4   5  -4    0.47    0.50
  -4   5  -4   -0.26    0.75
   4  -5  -4    0.28    0.29
   4  -5  -4    0.13    0.26
   4  -5   4    0.29    0.29
   4  -4  -5    0.29    0.43
   4  -4  -5    0.11    0.30
   4  -4   5   -0.24    0.31
   4   4  -5    0.35    0.45
   4   4   5   -0.39    0.57
   4   4   5    2.13    1.80
   4   5   4   -0.24    0.70
   4   5   4    0.08    0.89
   5  -4  -4    0.19    0.41
   5  -4  -4    0.49    0.32
   5  -4   4    0.43    0.33
   5   4   4    0.39    0.66
   5   4   4   -0.13    0.96
  -5   0  -5   25.13    2.10
  -5   5   0   19.65    2.00
   0  -5  -5   20.73    1.77
   0  -5   5   19.30    1.77
   0   5  -5   25.02    2.18
   0   5  -5   19.77    2.06
   0   5   5   20.05    2.17
   5  -5   0   21.36    1.74
   5   0  -5   19.78    2.28
   5   5   0   18.96    2.06
  -5  -1  -5    0.08    0.42
  -5  -1  -5    0.95    0.59
  -5   1  -5    0.48    0.46
  -5   1  -5   -0.15    0.64
  -5   5  -1    0.04    0.38
  -5   5  -1    0.11    0.66
  -5   5   1   -0.08    0.38
  -5   5   1    0.03    0.42
  -1  -5  -5    0.05    0.17
  -1  -5   5    0.29    0.21
  -1   5  -5    0.58    0.45
  -1   5  -5    0.16    0.54
  -1   5   5   -0.37    0.56
   1  -5  -5    0.07    0.24
   1  -5  -5   -0.03    0.30
   1  -5   5    0.21    0.27
   1   5  -5   -0.29    0.51
   1   5  -5    0.11    0.39
   1   5   5   -0.64    0.70
   5  -5  -1    0.01    0.24
   5  -5  -1    0.15    0.18
   5  -5   1    0.04    0.26
   5  -1  -5    0.24    0.70
   5  -1  -5    0.25    0.31
   5  -1   5    0.54    1.08
   5   1  -5    0.13    0.33
   5   1   5   -2.06    1.96
   5   5  -1    0.34    0.50
   5   5   1   -0.16    0.38
   5   5   1    0.26    0.42
  -5   2  -5   43.20    3.44
  -5   2  -5   32.48    3.81
  -5   5  -2   40.03    3.40
  -5   5  -2   32.19    3.74
  -5   5   2   39.42    3.40
  -5   5   2   32.37    3.34
  -2  -5  -5   43.34    3.13
  -2  -5   5   41.21    3.10
  -2   5  -5   41.15    3.42
  -2   5  -5   31.26    3.73
  -2   5   5   44.62    3.51
   2  -5  -5   40.48    3.32
   2  -5   5   39.76    3.22
   2  -5   5   37.74    3.14
   2   5  -5   37.55    3.38
   5  -5  -2   34.74    3.17
   5  -5  -2   38.50    3.14
   5  -5   2   35.88    3.18
   5  -2  -5   43.99    3.63
   5  -2  -5   42.06    3.32
   5   2  -5   43.37    3.45
   5   5  -2   33.95    3.44
   5   5   2   37.96    3.40
  -5  -5  -3    0.25    0.24
  -5  -3  -5    0.40    0.36
  -5  -3   5    0.14    0.30
  -5   3  -5    1.26    0.51
  -5   3  -5    0.32    0.79
  -5   5  -3   -0.04    0.47
  -5   5  -3    0.30    0.80
  -5   5   3    0.18    0.51
  -3  -5  -5   -0.06    0.18
  -3  -5   5    0.10    0.15
  -3   5  -5    0.01    0.51
  -3   5  -5    0.80    0.94
  -3   5   5    0.56    0.57
   3  -5  -5    0.32    0.32
   3  -5  -5   -0.03    0.33
   3  -5   5    0.06    0.28
   3   5  -5    0.12    0.42
   3   5   5   -0.05    0.78
   3   5   5   -0.12    1.26
   5  -5  -3   -0.28    0.28
   5  -5  -3    0.03    0.22
   5  -5   3    0.12    0.28
   5  -3  -5    0.18    0.58
   5  -3  -5    0.08    0.32
   5  -3   5    0.38    0.45
   5   3  -5    0.01    0.43
   5   3   5    0.27    0.54
   5   5  -3   -0.24    0.52
   5   5   3    0.41    0.63
  -5  -5  -4    0.56    0.29
  -5  -4  -5    0.98    0.36
  -5   4  -5    0.74    0.58
  -5   4  -5   -0.04    0.88
  -5   5  -4    0.53    0.54
  -5   5  -4    0.22    0.90
  -5   5   4    0.23    0.53
  -4  -5  -5    0.64    0.28
  -4   5  -5    0.44    0.57
  -4   5  -5    0.57    1.00
   4  -5  -5    0.62    0.36
   4  -5   5    1.55    0.52
   4   5  -5    0.32    0.52
   4   5   5    1.61    0.93
   4   5   5    2.22    1.38
   5  -5  -4    0.38    0.57
   5  -5  -4    0.49    0.32
   5  -5   4    0.75    0.45
   5  -5   4    0.56    0.42
   5  -4  -5    1.26    0.61
   5  -4  -5    0.69    0.38
   5  -4   5    1.12    0.45
   5   4  -5    1.19    0.57
   5   4   5    0.85    0.76
   5   5   4    2.27    1.02
  -5  -5  -5   -0.07    0.29
  -5   5  -5    0.08    0.59
  -5   5  -5   -0.35    0.96
   5  -5  -5   -0.07    0.44
   5  -5  -5   -0.08    0.35
   5  -5   5   -0.13    0.37
   5   5  -5    0.09    0.59
   5   5   5    2.06    1.04
   5   5   5   -0.98    1.27
  -6   0   0  108.53    9.23
  -6   0   0  105.97    9.79
   0   0  -6  120.74    9.51
   0   0   6  120.81    9.39
   0   0   6  129.37    9.51
   0   6   0  104.80    9.30
   6   0   0  109.74    9.25
   6   0   0  132.24    9.73
  -6   0  -1   18.84    1.71
  -6   0  -1   16.92    2.38
  -6   0   1   18.02    1.64
  -6   0   1   22.65    2.36
  -1   6   0   18.32    1.78
   0  -1  -6   20.11    1.95
   0  -1   6   23.07    1.83
   0  -1   6   21.17    1.89
   0   1  -6   18.11    1.92
   0   1   6   19.65    2.00
   1   6   0   17.92    1.74
   6   0  -1   18.19    2.20
   6   0   1   18.04    1.69
  -6  -1   0   18.50    1.66
  -6  -1   0   18.05    2.15
  -6   1   0   16.31    1.67
  -6   1   0   20.53    2.63
  -1   0  -6   19.19    2.08
  -1   0   6   21.06    1.93
  -1   0   6   20.10    1.87
   0   6  -1   18.62    1.71
   1   0  -6   19.93    1.89
   1   0   6   18.84    1.99
   6  -1   0   18.22    1.69
   6  -1   0   20.69    2.24
   1  -1  -6    0.96    0.46
   1  -1   6    2.13    0.47
   1  -1   6    1.26    0.52
   1   1  -6    1.18    0.48
   1   1   6    1.01    0.45
   1   1   6    1.54    0.70
   1   6  -1    0.62    0.29
   6  -1  -1    0.53    0.70
   6  -1   1    1.06    0.34
   6  -1   1    2.54    0.94
   6   1  -1    1.52    0.81
  -1   6   1    1.33    0.46
  -1   6   1    1.37    0.27
  -6  -1  -1    1.13    0.35
  -6  -1  -1    0.38    0.60
  -6  -1   1    0.91    0.25
  -6   1  -1    0.94    0.32
  -6   1  -1    1.25    1.13
  -6   1   1    0.57    0.27
  -6   1   1    1.67    0.85
  -1  -1   6    1.42    0.44
   6   1   1    1.40    0.79
  -1   1  -6    1.23    0.56
  -1   1  -6    0.96    0.59
  -1   1   6    1.66    0.69
  -1   1   6    1.29    0.50
  -1   6  -1    0.45    0.35
  -1   6  -1    1.31    0.29
   6   1   1    1.53    0.36
  -6  -2   0   91.32    7.18
   6   0   2   80.50    7.22
  -6   2   0   89.14    7.25
  -2   0  -6   93.22    7.46
  -2   0   6   99.58    7.47
  -2   0   6   82.26    7.34
   0   6  -2   78.75    7.20
   0   6  -2   84.31    7.15
   2   0  -6   79.97    7.33
   6  -2   0  103.88    7.28
   6  -2   0   97.88    7.63
   6   2   0   91.27    7.18
  -6   0   2   79.86    7.16
  -2   6   0   87.38    7.33
  -2   6   0   92.72    7.22
   0  -2  -6   95.38    7.51
   2   6   0   84.07    7.22
   2   6   0   92.64    7.15
   6   0  -2   95.52    7.80
  -6   0  -2   79.73    7.24
   0  -2   6   95.50    7.33
   0   2  -6  105.56    7.52
   0   2  -6   96.61    7.49
   6   2   0  104.71    7.71
   1   2  -6   14.08    1.42
   1  -2   6   13.59    1.36
  -2  -1   6   12.85    1.35
  -2   1  -6   14.99    1.52
  -2   1  -6    8.44    1.68
  -1   2   6   14.43    1.60
  -1   6  -2   11.72    1.24
   6   1  -2   14.38    2.05
   2   1   6   14.09    1.39
   2  -1  -6   11.40    1.30
   6  -2  -1   13.05    1.59
  -6  -1  -2   10.66    1.22
  -6   1   2   10.11    1.15
  -6   2  -1   13.22    1.24
   6   2   1   13.16    1.20
  -6  -2   1   13.51    1.11
  -2   6   1   10.58    1.32
  -1  -2  -6   12.13    1.57
   2   6  -1   11.17    1.09
   6  -1   2   10.84    1.20
  -6   2  -1   17.29    2.88
   6  -2   1   13.33    1.20
   1   2   6   15.52    1.61
  -6   1  -2   11.23    1.22
  -6   1  -2   10.95    2.27
  -1  -2   6   14.27    1.29
  -1   2  -6   15.21    1.55
  -2   1   6   11.13    1.37
  -6   2   1   13.26    1.23
  -6   2   1   15.27    1.89
  -2  -1  -6    9.12    1.59
  -2   6  -1   11.35    1.29
   6   2  -1   15.82    2.25
  -6  -1   2   10.47    1.09
  -6  -2  -1   13.89    1.22
  -6  -2  -1   10.31    1.40
   6   1   2   10.71    1.23
   1  -2  -6   14.33    1.39
  -1   6   2   13.40    1.20
   2   6   1   10.06    1.08
   6  -1  -2   11.52    1.73
   1   6  -2   13.41    1.15
   2  -1   6   11.95    1.45
   2   1  -6   11.93    1.36
  -2  -2   6  507.92   35.65
   6   2   2  468.15   35.63
  -2   2  -6  484.94   35.83
  -2  -2  -6  430.27   35.92
  -6   2  -2  431.52   35.63
  -6   2  -2  509.54   36.79
  -6   2   2  468.69   35.61
  -6  -2  -2  413.28   35.62
  -6  -2   2  460.57   35.48
  -2   6  -2  415.75   35.63
  -2   6   2  458.95   35.58
   2  -6   2  497.44   35.57
   2  -2  -6  456.41   35.70
   2  -2   6  510.98   35.69
   2  -2   6  410.93   35.69
   2   2  -6  475.05   35.75
   2   6  -2  408.57   35.48
   6  -2   2  474.45   35.60
  -2   2  -6  395.64   36.00
   6  -3   0  109.22    7.95
   6   3   0   97.44    7.83
   6   3   0  101.66    8.26
   0   6  -3  100.94    7.92
   6  -3   0  107.24    8.19
  -6   0  -3   88.50    7.94
  -6  -3   0   97.41    7.87
  -6   3   0  101.77    7.97
  -6   3   0  107.96    8.69
  -3   0  -6   92.63    8.09
  -6   0   3   90.33    7.84
  -3   6   0  102.64    8.04
  -3   6   0   98.04    7.92
   0  -3  -6   89.41    8.13
   0  -3   6   89.28    7.90
   0  -3   6   95.50    7.93
   0   3  -6   96.77    8.17
   0   3  -6   94.81    8.12
   0   3   6  105.62    8.26
   3   6   0  107.68    7.93
   3   6   0  108.13    7.90
   6   0  -3  102.29    8.53
   6   0   3   84.87    7.93
   0  -6   3  108.45    7.88
   0   6  -3  101.77    7.92
   3   0  -6   90.38    7.99
   0   6   3  112.01    8.03
   6  -3  -1   58.06    4.99
  -1   6  -3   57.35    4.80
  -1  -3  -6   56.63    5.06
   6   1  -3   68.35    5.52
  -3  -1   6   57.73    4.87
   3  -1  -6   57.79    4.87
   6   3   1   58.34    4.74
   6   3   1   61.33    5.10
  -1   3   6   64.91    5.08
   1  -3   6   50.24    4.77
   1  -3   6   57.75    4.82
   1   3  -6   56.67    4.94
  -3   6   1   64.09    4.94
  -3   6   1   49.72    4.71
   3   6  -1   58.12    4.61
  -6  -3   1   61.65    4.68
  -6  -1  -3   58.59    4.84
   6  -1   3   59.46    4.82
  -6   1   3   56.66    4.75
  -6   3  -1   56.03    4.82
  -3   1  -6   57.39    4.97
  -6  -1  -3   52.58    5.02
   6   1   3   52.72    4.83
   1   6  -3   59.76    4.76
  -6   3   1   58.89    4.82
  -6   3   1   50.53    5.13
  -3  -1  -6   61.72    5.00
  -1  -3   6   64.05    4.79
   1  -3  -6   58.74    4.94
   3   6   1   56.93    4.86
   1  -6   3   68.67    4.72
  -3  -1  -6   53.76    5.18
   1   6  -3   63.89    4.77
   6  -3   1   62.95    4.78
   6   3  -1   65.55    5.29
  -1   3  -6   55.50    5.10
   3   6   1   55.82    4.72
   6  -1  -3   59.76    5.34
  -3   6  -1   66.15    4.98
  -6  -1   3   57.36    4.67
  -6   1  -3   57.47    4.83
  -3   6  -1   57.29    4.88
  -6  -3  -1   60.78    4.78
  -1   3  -6   55.42    4.99
   3   1  -6   55.88    4.88
  -6  -3  -1   61.75    4.90
   2  -3   6   62.42    5.87
  -6   3  -2   76.82    7.10
  -6   3  -2   70.11    5.89
  -6  -2  -3   72.35    5.98
  -6  -3   2   69.14    5.67
  -6   2   3   75.18    5.87
  -6  -2  -3   71.09    5.91
  -3   6   2   67.23    6.00
  -3   6   2   69.09    5.81
  -2  -3  -6   73.79    6.09
   6  -3  -2   62.65    5.98
   3  -2  -6   75.28    5.92
   2   3  -6   66.88    5.96
   6   3   2   67.26    5.86
   6   3   2   81.44    6.23
  -2   3   6   78.15    6.08
  -3  -2   6   72.20    5.86
  -3   2  -6   74.72    6.04
   6  -2   3   73.67    5.93
  -2   6  -3   67.33    5.87
  -3   6  -2   78.60    5.96
  -6  -3  -2   67.81    5.89
   2  -6   3   79.04    5.79
  -3  -2  -6   75.54    6.19
   6  -2  -3   64.63    6.17
   6   2   3   72.85    5.94
  -2   6   3   82.65    5.90
   6   3  -2   76.65    6.35
   3   2  -6   68.61    5.94
  -6   3   2   71.96    5.88
   2   6  -3   76.32    5.82
   2  -3  -6   70.00    5.91
   3   6   2   68.65    5.96
  -6   3   2   67.32    6.13
  -6  -3  -2   74.23    5.88
  -6  -2   3   77.79    5.69
  -6   2  -3   72.30    5.90
  -2   3  -6   74.08    6.05
  -3  -3   6    0.59    0.43
   3   3  -6    0.36    0.41
   3   6   3    0.18    0.62
   3   6   3    0.45    0.61
   6  -3  -3    0.11    0.27
  -6  -3   3    0.38    0.16
  -3   6  -3    0.14    0.67
   3  -3  -6    0.18    0.33
  -6  -3  -3    0.18    0.39
  -6  -3  -3    0.11    0.32
  -3  -3  -6    0.02    0.42
  -6   3  -3    0.29    0.44
  -6   3  -3   -0.18    1.01
  -6   3   3    0.15    0.35
   6  -3  -3   -0.14    0.51
  -3   6  -3    0.36    0.45
   6  -3   3    0.81    0.64
   6   3   3    0.12    0.56
   3  -3   6   -0.02    0.37
  -3   3  -6    0.64    0.88
  -3   3  -6    0.56    0.53
  -6   0   4   70.24    5.09
   0   4  -6   55.62    5.31
   0  -4   6   55.65    5.07
  -6   0  -4   71.36    5.26
  -6   0  -4   71.95    5.59
   0   6   4   70.59    5.32
  -4   6   0   61.40    5.24
  -4   6   0   53.58    5.15
   0  -4  -6   58.93    5.30
   0   6  -4   61.05    5.17
   0   6  -4   65.92    5.22
  -6   4   0   52.08    5.57
   0   4  -6   64.46    5.42
   0   4   6   64.17    5.47
   6   0  -4   73.48    5.79
   0  -6   4   68.50    5.01
   6  -4   0   52.55    5.18
   6   4   0   69.08    5.01
   6   4   0   51.78    5.34
   4   0  -6   70.53    5.25
  -4   0  -6   68.14    5.35
  -4   0  -6   58.45    5.60
  -6   4   0   58.02    5.18
   6   4   1   41.18    3.82
  -1   4   6   46.37    3.92
  -4  -1   6   41.11    3.71
   6   4   1   43.11    3.56
   1  -4   6   40.89    3.57
  -1  -4  -6   45.64    3.76
   1   4  -6   42.89    3.77
  -6   1   4   41.22    3.58
  -6  -1  -4   41.34    3.69
  -6  -1  -4   45.92    3.88
   1   4  -6   43.08    3.87
  -1   6  -4   39.88    3.64
   6   1  -4   37.76    4.15
  -6   4  -1   43.60    3.69
  -6   4  -1   47.02    4.59
   4  -1  -6   42.83    3.67
  -4   1  -6   43.26    3.80
   4   6  -1   43.59    3.64
  -4   6   1   46.94    3.78
   6  -4  -1   42.86    3.68
   1  -4   6   41.46    3.56
  -1   6  -4   45.71    3.83
  -1  -6   4   44.20    3.44
   6  -1  -4   40.96    4.14
  -1   6   4   48.59    3.78
   1   6  -4   42.09    3.67
   6  -1  -4   44.10    3.66
  -1  -4   6   43.27    3.54
   4   6   1   39.75    3.57
  -6   4   1   44.46    3.68
   4   1  -6   44.84    3.72
   1   6  -4   42.68    3.64
   1  -4  -6   44.99    3.78
   6  -4   1   41.65    3.70
   6   4  -1   41.89    3.95
  -1   4  -6   44.19    3.86
  -1   4  -6   42.81    3.95
  -6   1  -4   34.38    4.03
  -6  -1   4   42.94    3.48
   1  -6   4   46.51    3.51
   6   1   4   39.51    3.71
  -4  -1  -6   47.68    4.07
  -4   6  -1   40.40    3.77
  -4   6  -1   41.05    3.72
  -6   1  -4   41.97    3.69
   6  -4  -2  105.92    7.98
  -6  -2  -4  108.80    8.15
   4  -2  -6  100.59    8.07
  -6  -2  -4  106.40    8.16
   6  -4  -2  101.14    8.09
  -2   6  -4  101.43    8.09
  -6   4  -2   99.58    8.90
  -2   6  -4   88.80    8.38
   2  -4   6   94.28    8.07
   2  -4   6   92.38    7.99
  -6   4  -2  100.96    8.11
  -4   6   2  102.73    8.19
  -4   6   2  102.02    8.03
  -2  -4  -6  109.92    8.11
  -4   2  -6   87.12    8.14
   6   4   2  104.80    8.28
   6   2  -4   89.07    8.42
  -2   4   6  106.04    8.27
  -6   2   4   96.36    8.04
   2   4  -6   95.13    8.15
  -4  -2   6   94.28    8.00
   2   6   4  113.26    8.37
   6  -2  -4   95.74    8.40
   6   4  -2   92.99    8.34
   2   6  -4   97.52    8.06
  -6  -2   4  100.08    7.85
   2  -4  -6  101.01    8.10
  -4  -2  -6  116.80    8.35
  -2   6   4  106.79    8.13
   6  -4   2  105.64    8.13
   2  -6   4  105.84    7.94
   6   2   4   97.26    8.15
   6  -2  -4  102.05    8.04
   4   6   2  100.77    8.04
  -2   4  -6   97.14    8.20
  -6   4   2  101.72    8.11
   2   6  -4   86.24    7.99
   4   2  -6   98.90    8.14
  -6  -4  -2  114.51    8.03
  -4   6  -2   97.94    8.14
  -4   6  -2   95.48    8.28
  -6   4   2   87.50    8.18
  -6   2  -4   95.68    8.09
  -6   3   4    2.91    0.71
  -4   6   3    3.88    0.85
  -4  -3   6    3.59    0.60
  -3   6  -4    1.27    0.94
  -6   4  -3    1.77    1.11
   6   4   3    5.41    1.14
  -3   4   6    4.61    0.98
   3   6   4    3.95    0.96
   4  -3  -6    3.07    0.74
   4  -3  -6    2.21    0.57
   3   4  -6    5.26    0.90
  -6  -3  -4    2.98    0.69
  -6  -3  -4    2.31    0.58
  -4   3  -6    0.92    0.95
  -3   6  -4    4.44    0.78
   4   3   6    4.32    1.21
   6  -3   4    4.55    0.92
   3  -4   6    3.56    0.65
   6  -4  -3    4.19    0.63
   3  -4   6    2.86    0.64
  -3  -4  -6    4.28    0.75
  -4   3  -6    2.35    0.73
   6  -4  -3    4.55    0.88
  -3   4  -6    3.19    0.75
  -3  -4   6    3.92    0.64
  -6   3  -4    1.07    1.05
   3   6  -4    4.21    0.87
  -4   6  -3    3.62    0.78
   4  -3   6    2.71    0.70
   3   4   6    5.54    1.30
   4   6   3    6.15    1.49
   6  -3  -4    1.84    0.79
   6   3   4    5.86    1.02
  -6   4   3    4.13    0.73
   6   4  -3    2.74    0.96
  -6  -3   4    2.89    0.38
   6  -3  -4    3.19    0.65
   4  -3   6    1.87    0.58
   4   3  -6    2.49    0.70
   3  -4  -6    4.85    0.75
  -6   3  -4    2.19    0.59
  -4   6  -3    2.32    0.93
  -3   4  -6    2.43    1.16
   6  -4  -4  122.37    8.80
   4   4  -6  108.85    8.98
  -6   4  -4  114.11    8.96
  -6   4   4  103.41    8.92
  -4   4  -6  114.45    9.01
  -4   6  -4   99.21    8.92
   4  -6  -4   98.35    8.59
   4  -6   4  101.23    8.58
  -4  -4   6  126.17    8.68
  -6  -4  -4  123.53    8.80
   6   4  -4   93.93    9.47
   4  -4  -6  110.41    8.81
   6  -5   0   35.49    3.44
   6   5   0   43.58    3.31
   6   5   0   41.20    3.73
   0  -5  -6   43.24    3.52
   0   5   6   46.34    3.91
   5   6   0   43.04    3.59
   5   6   0   45.58    3.30
  -5   6   0   37.96    3.61
  -6   0  -5   37.21    3.61
   0  -5   6   38.87    3.39
   0   5  -6   42.68    3.80
  -6   5   0   44.40    3.64
  -6   5   0   33.17    3.80
  -5   0  -6   41.19    3.68
  -5   0  -6   41.96    4.01
   0  -6   5   40.47    3.35
   0   6  -5   42.17    3.70
   0   6  -5   43.13    3.70
   0   6   5   44.11    3.75
   5   0  -6   40.30    3.58
   6   0  -5   39.70    3.57
   0   5  -6   39.52    3.75
  -6   0  -5   46.91    4.00
  -6   0   5   38.54    3.44
  -5   6   0   42.10    3.66
   1   5  -6    1.91    0.82
  -6   5  -1    3.94    0.78
   5  -1  -6    1.37    0.74
  -1   5   6    2.70    0.90
  -6  -1  -5    1.39    0.63
  -6  -1  -5    0.71    0.55
   6   1  -5    1.42    1.11
   6   1  -5    1.06    0.52
  -1   6  -5    1.80    0.63
  -5   1  -6    1.08    0.63
  -6   5  -1    2.31    1.00
  -5   6   1    3.09    0.69
  -5   6   1    1.66    0.55
  -1  -5  -6    2.45    0.46
  -1   6  -5    1.96    0.82
   6   5   1    2.05    0.52
   6   5   1    2.30    0.70
   5   6  -1    2.59    0.67
  -5   1  -6    1.15    0.87
   6  -5  -1    2.26    0.53
   6  -5  -1    2.92    0.48
   6  -1   5    4.52    1.80
   5  -1  -6    1.30    0.49
   1  -5   6    2.97    0.51
   1   5  -6    2.01    0.66
  -1   5  -6    2.32    0.75
   1   6  -5    1.22    0.69
   5  -1   6    4.52    1.40
  -6  -1   5    1.12    0.37
  -6   5   1    1.81    0.59
   1  -6   5    1.80    0.39
  -5   6  -1    1.33    0.72
  -5  -1  -6    1.66    0.70
   5   1  -6    1.45    0.54
   6  -5   1    1.76    0.49
   1  -5  -6    2.47    0.61
   1   6  -5    1.89    0.62
  -1  -5   6    2.73    0.44
  -1   5  -6    2.47    0.88
  -5   6  -1    2.40    0.67
   5   6   1    3.72    0.65
   5   6   1    2.18    0.59
   6  -1  -5    0.94    0.86
   6  -1  -5    0.87    0.44
   6  -5   1    3.43    0.64
  -6   5   1    2.11    0.70
  -5  -1  -6    1.65    0.64
   6   1   5    2.73    0.77
  -6   1  -5    1.38    0.56
  -6   1  -5    1.48    0.95
   6   5  -1    2.82    0.84
  -1   6   5    1.32    0.73
   5  -6   2    3.01    0.55
  -5   2  -6    1.50    1.04
   2   5  -6    1.68    0.64
  -5   2  -6    1.52    0.65
   6   2  -5    0.80    0.91
   6   2  -5    1.53    0.64
  -2   5   6    1.99    0.78
  -6  -2  -5    2.12    0.64
   2  -5   6    1.81    0.50
  -2  -6   5    2.69    0.37
  -5   6   2    3.67    0.80
  -5   6   2    2.52    0.61
   5  -2  -6    1.85    0.78
  -2   6  -5    2.73    0.74
  -2   6  -5    2.26    1.11
   6   5   2    0.15    0.63
   6  -5  -2    1.47    0.37
  -6   5  -2    1.74    0.63
  -6  -2  -5    1.77    0.60
   6  -2   5    4.26    1.24
  -5  -2   6    1.16    0.51
  -6   5  -2    1.52    1.07
  -2  -5  -6    1.49    0.38
   5   6  -2    2.24    0.70
   5  -6   2    2.29    0.27
   2  -5   6    1.70    0.45
   6   5   2    1.55    0.74
   5  -2  -6    1.76    0.55
   2   6   5    2.23    1.03
   5  -6  -2    1.87    0.39
  -6   5   2    1.14    0.57
  -6   5   2    1.54    0.62
   2  -5  -6    1.13    0.57
  -5  -2  -6    2.02    0.67
  -6   2  -5    1.35    0.60
  -5   6  -2    1.91    0.65
  -5   6  -2    2.01    0.85
  -2  -5   6    1.40    0.35
  -2   5  -6    1.11    0.66
  -5  -2  -6    1.25    0.67
   2  -6   5    2.20    0.45
   6   2   5    2.02    0.75
   6   2   5    7.50    2.54
   6   5  -2    1.89    0.86
  -2   5  -6    0.40    0.99
  -6   2  -5    0.90    0.91
   5   2  -6    1.91    0.61
   2   6  -5    1.22    0.63
   5   6   2    2.66    0.67
   6  -2  -5    1.64    0.89
   6  -2  -5    1.91    0.52
  -6  -2   5    1.52    0.33
   2  -5  -6    1.84    0.52
  -2   6   5    2.00    0.74
   2   6  -5    2.34    0.65
  -6   3   5   33.54    3.29
  -6  -3  -5   40.53    3.27
   3  -6  -5   42.39    2.97
  -5   6   3   39.03    3.44
  -3  -5  -6   39.46    3.09
   5  -3  -6   33.85    3.21
  -3   6  -5   38.39    3.37
  -5   3  -6   37.01    3.41
   3  -5   6   33.44    3.11
   3   5  -6   32.75    3.36
   3  -6  -5   39.23    3.09
   6   3  -5   30.78    3.59
   6  -5  -3   33.72    3.07
   3   6   5   44.35    3.81
   5  -6   3   38.29    3.00
   5   6  -3   38.36    3.36
  -3   5   6   34.44    3.51
  -6   5  -3   34.86    3.36
  -6  -3  -5   45.12    3.43
   6  -5  -3   35.79    3.16
   6   5   3   45.03    3.68
  -5  -3   6   35.21    3.14
   3  -5  -6   35.58    3.22
   5  -6  -3   33.03    3.00
  -3   5  -6   32.70    3.36
   6  -5   3   37.05    3.14
   5   3  -6   33.94    3.36
  -3  -5   6   34.33    2.98
  -6   5   3   35.41    3.35
  -5  -3  -6   40.44    3.32
  -6  -3   5   32.22    3.03
   3   5   6   42.99    3.85
   3  -6   5   42.21    3.19
   3   6  -5   42.40    3.41
   5  -6  -3   39.29    3.02
   6  -3  -5   34.61    3.19
  -6  -3   5   33.29    2.98
  -6   3  -5   35.27    3.34
  -5   6  -3   40.13    3.42
  -5   6  -3   41.12    3.73
   4  -6  -5   73.94    5.28
  -6   5  -4   65.55    5.65
   4   5  -6   62.10    5.65
   5  -6   4   62.98    5.30
  -5  -4   6   71.76    5.27
  -5   4  -6   62.58    5.66
  -6  -4  -5   77.25    5.46
   4  -6  -5   73.17    5.42
  -6   4   5   64.45    5.63
   6  -5  -4   71.41    5.45
   6  -5  -4   62.42    5.36
  -5   6   4   64.30    5.75
  -4   6  -5   65.49    5.64
   5  -4  -6   62.97    5.44
   5  -6  -4   65.54    5.32
   6  -4  -5   65.97    5.44
   5  -6  -4   62.73    5.28
  -6   5   4   63.34    5.64
  -6   4  -5   67.66    5.66
   4  -6   5   63.33    5.27
   4   6  -5   64.57    5.66
   4  -5  -6   62.79    5.43
   5  -4   6   70.85    5.47
   5   4  -6   64.68    5.68
  -5   6  -4   65.12    5.65
   6  -5   4   66.20    5.39
   6   5  -4   65.59    5.76
  -4  -5   6   62.96    5.19
  -4   5  -6   64.24    5.68
  -6  -5  -5   11.46    1.10
  -6   5  -5    9.39    1.53
  -6   5   5    8.29    1.54
  -5  -5  -6   11.09    1.11
  -5   5  -6    7.30    1.33
  -5   6  -5    8.94    1.55
   5  -6  -5   11.12    1.07
   5  -6  -5   10.26    1.14
   5  -6   5    8.30    1.07
   5  -5  -6    8.57    1.17
   5   5  -6    7.70    1.53
   5   6  -5    9.94    1.60
   6  -5  -5   11.95    1.38
   6  -5  -5    7.49    1.10
   6  -5   5    7.31    1.13
  -6   0  -6  384.64   33.95
  -6   0  -6  479.93   34.35
  -6   6   0  420.32   33.97
  -6   6   0  423.82   34.03
   0  -6  -6  489.78   33.65
   0  -6   6  434.89   33.71
   0   6  -6  386.84   34.03
   0   6  -6  499.78   34.17
   0   6   6  445.53   34.10
   6  -6   0  406.64   33.69
   6  -6   0  398.43   33.63
   6   0  -6  484.38   34.90
   6   0  -6  389.75   33.90
   6   6   0  418.24   33.93
  -6  -1  -6    0.17    0.57
  -6  -1  -6    0.60    0.71
  -6   1  -6    0.70    0.54
  -6   1  -6    0.96    0.88
  -6   6  -1    0.01    0.57
  -6   6  -1    0.53    0.74
  -6   6   1   -0.06    0.52
  -6   6   1    0.26    0.52
  -1  -6  -6    0.35    0.21
  -1  -6   6    0.36    0.29
  -1   6  -6    0.47    0.77
  -1   6  -6    0.53    0.80
  -1   6   6    0.25    0.79
   1  -6  -6    0.60    0.27
   1  -6  -6    0.16    0.28
   1  -6   6    0.57    0.40
   1   6  -6    1.14    0.81
   1   6  -6    0.22    0.60
   1   6   6   -0.75    0.86
   6  -6  -1    0.39    0.35
   6  -6  -1    0.43    0.23
   6  -6   1    0.13    0.30
   6  -6   1    0.38    0.23
   6  -1  -6   -0.09    0.94
   6  -1  -6    0.30    0.44
   6  -1   6    2.84    1.74
   6   1  -6    1.85    0.63
   6   6  -1    1.15    0.68
   6   6   1    0.27    0.47
   6   6   1    0.94    0.62
  -6  -2  -6  283.38   19.34
  -6   2  -6  230.81   19.25
  -6   2  -6  214.54   19.60
  -6   6  -2  245.10   19.26
  -6   6  -2  232.59   19.45
  -6   6   2  259.50   19.29
  -6   6   2  244.15   19.18
  -2  -6   6  250.56   18.89
  -2   6  -6  238.97   19.28
  -2   6  -6  216.53   19.64
  -2   6   6  256.76   19.37
   2  -6   6  224.23   18.99
   2   6  -6  247.81   19.29
   6  -6  -2  215.63   18.95
   6  -6  -2  243.97   18.91
   6  -6   2  221.97   18.93
   6  -2  -6  244.86   19.14
   6   2  -6  260.42   19.30
   6   6  -2  265.80   19.30
   6   6   2  228.30   19.13
   6   6   2  264.55   19.25
  -6  -3  -6    0.86    0.55
  -6  -3   6    0.44    0.43
  -6  -3   6    0.41    0.26
  -6   3  -6   -0.35    0.60
  -6   3  -6    0.27    1.05
  -6   6  -3   -0.50    0.63
  -6   6  -3    0.20    0.86
  -6   6   3   -0.46    0.58
  -3  -6  -6    0.33    0.24
  -3  -6   6    0.10    0.20
  -3   6  -6   -0.74    0.63
  -3   6  -6   -0.34    1.18
  -3   6   6    0.37    0.85
   3  -6  -6    0.27    0.31
   3  -6  -6    0.39    0.51
   3  -6   6    0.39    0.76
   3   6  -6   -0.01    0.61
   3   6   6   -0.22    1.33
   6  -6  -3    0.33    0.38
   6  -6  -3    0.31    0.29
   6  -6   3    0.16    0.35
   6  -3  -6    1.38    1.13
   6  -3  -6    0.08    0.44
   6  -3   6    1.09    0.97
   6   3  -6    0.78    0.63
   6   6  -3   -0.30    0.72
   6   6   3    0.28    0.90
   6   6   3    1.23    0.85
  -6  -4   6  108.24    7.79
  -6  -4   6   98.57    7.74
  -6   6  -4  101.52    8.32
  -4   6  -6  100.63    8.30
   4  -6   6  107.10    7.92
   4   6  -6   92.56    8.26
   6  -6  -4  105.38    7.94
   6  -6  -4   94.59    7.89
   6  -6   4   86.88    7.90
   6  -4  -6  100.65    8.06
   6   4  -6   94.79    8.54
  -6  -6  -5    0.08    0.33
  -6  -5  -6    0.08    0.38
  -6   5  -6    0.82    0.78
  -6   5  -6   -0.78    1.20
  -6   6  -5   -0.53    0.76
  -6   6  -5    1.17    1.16
  -6   6   5   -0.48    0.74
  -5  -6  -6   -0.22    0.34
  -5   6  -6    1.04    0.89
  -5   6  -6   -0.78    1.29
   5  -6  -6    0.20    0.48
   5  -6  -6    0.63    0.54
   5  -6   6   -0.36    0.48
   5   6  -6    0.79    0.80
   6  -6  -5   -0.02    0.47
   6  -6  -5    0.14    0.44
   6  -6   5    0.29    0.48
   6  -5  -6    0.11    0.65
   6  -5  -6   -0.17    0.46
   6  -5   6   -0.20    0.50
   6   5  -6    0.37    0.83
   6   6   5   -0.18    1.46
  -6   6  -6   27.42    2.91
  -6   6   6   23.94    2.75
   6  -6  -6   24.86    2.29
   6  -6   6   20.98    2.27
   6   6  -6   26.06    2.92
  -7   0   0    0.08    0.27
  -7   0   0    0.58    0.86
   0   0  -7    0.32    0.43
   0   0   7   -0.01    0.53
   0   7   0    0.24    0.38
   7   0   0    0.33    0.30
   7   0   0    1.45    0.92
  -7   0  -1    9.84    1.04
  -7   0  -1    6.79    1.59
  -7   0   1    8.88    0.96
  -7   0   1   12.97    1.94
  -1   7   0    8.65    1.20
   0  -1  -7    9.78    1.34
   0  -1   7    9.01    1.22
   0   1  -7    8.81    1.34
   0   1   7   10.29    1.51
   1   7   0    9.03    1.11
   7   0  -1   12.07    1.88
   7   0   1    8.44    1.04
   7   0   1   12.92    1.95
   7   1   0   10.82    1.85
   7  -1   0   10.16    1.07
   7  -1   0   11.64    1.80
   7   1   0    8.69    0.99
   1   0   7    8.87    1.36
   0   7   1    7.36    1.22
  -7  -1   0    9.50    0.97
  -7  -1   0    8.09    1.59
  -7   1   0    8.97    0.99
  -7   1   0   11.76    2.29
  -1   0  -7    9.15    1.49
  -1   0   7    9.99    1.26
   0   7  -1    7.57    1.04
   1   0  -7    9.07    1.24
  -7   1  -1   -0.84    1.19
   7   1   1    0.19    0.87
   7  -1   1    0.21    0.88
   7   1  -1   -0.22    0.81
   7   1   1    0.03    0.34
   1   1  -7    0.16    0.46
   1   1   7    0.16    0.62
   1   7  -1    0.11    0.30
   1   7   1    0.18    0.14
   7  -1  -1    0.05    0.74
  -1  -1   7   -0.17    0.37
  -1   1  -7    0.21    0.56
  -1   1   7   -0.29    0.45
  -1   7  -1   -0.08    0.37
  -1   7  -1    0.33    0.29
  -1   7   1    0.05    0.43
  -1   7   1    0.04    0.20
   1  -1  -7   -0.05    0.38
   1  -1   7   -0.15    0.50
   7  -1   1   -0.11    0.28
  -7  -1  -1    0.29    0.31
  -7  -1  -1    0.62    0.70
  -7  -1   1    0.04    0.23
  -7   1  -1    0.26    0.35
  -1  -1  -7    0.07    0.51
  -7   1   1   -0.09    0.82
  -7   1   1    0.10    0.25
   7   2   0    0.24    0.83
   7   2   0    0.36    0.30
   0   7   2    0.15    0.38
   2   0  -7    0.77    0.45
   2   0   7    0.69    0.78
   7  -2   0    0.70    0.45
   7  -2   0    0.97    0.83
   0  -2  -7    0.13    0.44
   0  -2   7    0.73    0.42
   7   0   2   -0.66    1.02
   0   7  -2    0.63    0.28
  -2   7   0    0.37    0.29
   0   7  -2    1.06    0.38
   7   0  -2    0.47    0.84
   7   0   2    0.92    0.43
  -2   7   0    1.21    0.55
  -7   0  -2    0.66    0.35
  -7   0  -2    0.68    0.89
  -7  -2   0    0.52    0.31
  -7  -2   0    0.23    0.55
  -7   2   0    0.57    0.38
  -7   2   0    0.29    1.22
  -2   0  -7   -0.43    0.64
  -2   0   7    0.48    0.47
   0   2  -7    0.07    0.51
   0   2   7    0.01    0.70
   2   7   0    0.48    0.38
  -7   0   2    0.71    0.28
  -7   2  -1    0.96    1.67
  -7   2  -1    0.45    0.37
  -7  -1  -2    0.25    0.65
   7  -1   2    2.79    1.36
   7   1  -2    0.13    1.05
  -2   7   1    0.30    0.49
   1   7   2    0.63    0.45
  -7   1   2    0.39    0.27
   7   2   1    0.83    0.41
   7   2   1    0.24    0.79
  -2   1  -7   -0.30    0.74
   1   2  -7    0.46    0.55
   2  -1  -7    0.15    0.43
   2   7  -1    0.42    0.27
  -7  -1  -2    0.38    0.33
   2   1   7   -0.37    0.92
   7  -2  -1    1.19    0.77
  -7  -2   1    0.46    0.27
  -1   2   7    0.50    0.52
  -2  -1   7    0.63    0.53
  -2   1  -7    0.48    0.55
   1  -2   7    0.33    0.48
   7  -1   2    0.16    0.62
  -1   7  -2    0.69    0.42
   1  -2   7    0.59    0.41
  -1  -2  -7    0.56    0.64
   7  -1  -2   -0.16    0.77
   2  -1   7   -0.02    0.54
  -7  -2  -1    0.55    0.57
   2   1  -7    0.31    0.42
  -1   7   2    0.28    0.30
   1   7  -2    0.33    0.29
   7  -2   1    0.80    0.89
  -1  -2   7    1.06    0.49
   2   7   1    0.30    0.21
  -7   2   1    0.12    0.31
  -7   2   1    1.03    0.91
  -2   1   7    0.19    0.54
   1   2   7    0.82    0.91
  -7  -1   2    0.41    0.24
  -7   1  -2    0.97    0.41
  -7   1  -2    0.92    1.26
  -2  -1  -7    0.68    0.74
  -2   7  -1    0.15    0.43
  -2   7  -1    0.49    0.51
   7   1   2    0.42    0.42
   7   1   2    0.71    1.06
   1  -2  -7    0.63    0.44
  -7  -2  -1    0.21    0.36
  -1  -2   7    0.41    0.41
  -1   2  -7    0.16    0.57
  -1   2  -7    0.22    0.59
   7   2  -1   -0.15    0.82
  -2   7  -2    0.39    0.46
  -2   7  -2   -0.04    0.57
  -7  -2  -2    0.30    0.38
  -7  -2  -2   -0.12    0.44
  -7  -2   2    0.20    0.22
  -7   2  -2   -0.31    0.34
  -7   2  -2    0.54    1.61
  -7   2   2    0.09    0.35
  -2  -2  -7    0.76    0.64
  -2  -2   7   -0.15    0.47
  -2   2  -7   -0.14    0.55
  -2   2  -7    0.03    0.75
  -2   2   7   -0.58    0.46
   2   2   7   -0.09    1.14
   2   7  -2    0.16    0.36
   2   7   2    0.23    0.37
  -2   7   2    0.15    0.54
   2   2  -7    0.11    0.44
   7  -2  -2   -0.50    0.73
   7  -2   2    0.98    1.08
   7   2  -2    0.22    1.01
   7   2   2    0.39    0.46
   7   2   2    0.79    0.90
   2  -2  -7    0.22    0.42
   2  -2   7    0.25    0.51
  -7   0  -3   23.48    1.91
   0   3  -7   17.29    2.10
   3   7   0   17.31    1.83
   3   7   0   21.35    1.77
   3   7   0   20.42    1.69
   7   0  -3   24.11    2.90
   7   0   3   19.25    1.89
   3   0  -7   20.45    1.96
   0  -3   7   21.67    1.87
   0  -3   7   15.82    1.80
   0   3  -7   18.45    2.18
  -7   0  -3   16.81    2.41
  -7   0   3   21.22    1.70
  -3   7   0   18.29    1.96
  -3   7   0   18.34    1.78
   0  -3  -7   15.68    2.07
  -7  -3   0   16.67    1.70
  -7   3   0   15.08    1.77
  -7   3   0   19.43    2.94
  -3   0  -7   17.71    2.41
  -3   0   7   23.11    2.30
   0   7  -3   19.14    1.81
   0   7  -3   22.79    1.83
   7   3   0   15.96    1.67
   7  -3   0   18.54    2.21
   7  -3  -1   10.14    1.47
  -3   1  -7    9.57    1.34
   7   1  -3   10.65    1.99
  -7  -1  -3    6.83    1.38
   7   3   1    8.75    1.03
  -7  -3   1    9.09    0.87
  -7   3  -1    7.82    1.02
  -7   3  -1    9.99    2.21
   1   3  -7    8.35    1.30
   3   7  -1    6.00    0.95
  -3  -1   7    9.86    1.32
  -1  -3  -7    9.53    1.47
   3   7  -1    6.70    0.77
  -1   7  -3    6.90    1.03
  -1   3   7    8.63    1.77
  -7  -1  -3    7.02    1.08
   1  -3   7    7.85    1.05
   3  -1  -7    6.89    1.09
  -3   7   1    8.59    0.95
  -7   1   3    8.93    0.95
  -3   1  -7    7.59    1.61
  -3   7   1    7.80    1.24
  -1   7  -3    7.79    1.18
  -7   3   1   10.35    1.80
   7  -1  -3   10.32    2.05
  -3  -1  -7    7.37    1.59
  -7   3   1    8.96    1.05
   7   1   3    7.88    1.19
   1  -3  -7    9.18    1.26
   3   7   1    6.99    1.09
   3   7   1    7.81    0.86
   3   1  -7    6.43    1.11
   1   7  -3    6.43    0.95
  -1   7   3    8.65    1.07
  -7  -3  -1    9.63    1.15
  -1   3  -7    9.79    1.47
  -1   3  -7    7.60    1.44
   1   7  -3    6.19    1.01
  -3   7  -1    9.82    1.22
  -7  -1   3    8.22    0.83
  -7   1  -3    7.77    1.06
  -7   1  -3    5.34    1.61
  -3   7  -1    6.74    1.16
  -7  -3  -1    7.91    1.00
   2   3  -7   28.26    2.91
  -2   7  -3   33.60    3.29
   3  -2  -7   30.53    2.82
  -2  -3  -7   32.52    3.10
  -7  -2  -3   31.05    2.92
   7  -3  -2   28.40    3.01
  -7   2   3   30.84    2.73
   2  -3   7   26.20    2.77
  -2   7  -3   30.83    2.81
   7   3   2   31.31    2.80
  -7   3  -2   27.61    2.76
  -7  -2  -3   33.12    2.83
  -7   3  -2   34.23    4.54
  -3  -2   7   32.23    2.82
  -3   7   2   31.14    2.96
  -3   2  -7   28.96    2.96
  -7   3   2   34.63    3.25
   3   7   2   35.74    2.72
   2  -3  -7   29.86    2.84
   3  -2   7   35.67    2.96
  -3  -2  -7   30.89    3.17
  -7  -3  -2   31.61    2.76
  -7  -3  -2   29.59    2.79
  -3   7  -2   33.36    2.89
   7  -2  -3   28.82    3.24
   3   7   2   28.24    2.92
  -7  -2   3   31.10    2.55
  -7   2  -3   28.92    2.78
  -7   2  -3   23.73    3.78
   7   2   3   29.02    2.87
  -7   3   2   36.72    2.82
   3   2  -7   30.09    2.88
  -3   7  -2   35.96    3.18
  -2   3  -7   30.87    3.01
   2   7  -3   36.77    2.72
  -3   3   7    0.01    0.67
  -3  -3  -7    0.07    0.58
  -3  -3   7    0.98    0.53
  -3   3  -7    0.02    0.59
  -3   3  -7    0.02    0.96
   7  -3  -3    0.04    0.33
   7   3  -3    0.33    1.11
   7   3   3    0.83    1.12
   3   3  -7   -0.14    0.51
  -3   7  -3    0.16    0.51
  -3   7  -3    0.41    0.98
  -3   7   3    0.13    0.64
   3  -7   3   -0.02    0.37
  -7   3   3   -0.03    0.39
  -7  -3  -3   -0.31    0.45
  -7  -3  -3   -0.05    0.39
  -7  -3   3    0.01    0.21
  -7   3  -3    0.13    0.45
  -7   3  -3   -0.24    1.18
   3   3   7    1.20    2.51
   3   7   3    0.05    0.80
   3   7   3    0.63    0.61
   3  -3  -7    0.30    0.43
   3   3   7   -0.10    1.41
   3  -3   7   -0.65    0.53
   0   4  -7   42.29    3.58
  -4   7   0   34.14    3.24
   0  -4   7   33.95    3.08
  -7   4   0   36.03    3.16
   0  -4  -7   35.71    3.33
  -7   0  -4   35.33    3.19
  -7   0  -4   33.12    3.57
  -7   0   4   34.29    2.98
   0  -7   4   39.75    2.95
   0   7  -4   34.45    3.16
   0   7  -4   39.78    3.32
   0   7   4   39.02    3.23
   4   0  -7   33.42    3.18
   7  -4   0   37.55    3.32
   7   4   0   32.03    2.93
  -7  -4   0   39.20    3.02
  -7   4   0   34.00    3.83
  -4   0  -7   37.83    3.33
  -4   0  -7   30.47    3.62
   7   0   4   29.77    3.17
   4   7   0   36.70    2.95
   4   7   0   36.57    3.04
   0   4  -7   33.87    3.40
   7  -1   4    0.67    1.76
  -4  -1   7    0.19    0.65
  -7   4  -1    0.11    0.43
   7   4   1    0.15    0.49
   1   7   4    0.99    0.68
  -7  -1  -4    0.34    0.46
  -7  -1  -4    1.10    0.69
  -4   1  -7    0.42    0.86
  -7   1   4    0.04    0.32
   1   4  -7    0.14    0.54
  -7  -4   1    0.29    0.28
  -4   7   1   -0.01    0.53
  -7   4  -1    0.76    1.28
   7  -4  -1    0.17    0.56
  -1   7  -4   -0.40    0.48
   7  -1   4    0.96    0.58
   4   1   7    5.02    2.56
  -4   1  -7   -0.23    0.56
   1  -4   7    0.04    0.47
   1  -4   7    0.12    0.42
  -1  -4  -7    0.46    0.60
   4   7  -1    0.25    0.41
   4  -1  -7    0.16    0.40
  -1   7  -4    0.31    0.67
   7   1  -4    0.85    1.23
  -4   7   1    0.18    0.63
  -7  -1   4    0.09    0.24
   1   7  -4   -0.38    0.55
  -4   7  -1    0.19    0.55
   7  -1  -4    1.35    1.15
  -1   4  -7   -0.69    0.67
  -4  -1  -7   -0.15    0.70
   4   1  -7    0.00    0.46
   7   1   4    0.13    0.60
   7   1   4   -0.81    1.77
  -1   4  -7    0.63    0.70
  -7   4   1    0.48    0.44
   7  -4   1    0.15    0.59
  -4  -1  -7    0.58    0.63
  -7   4   1    0.23    0.75
  -1  -4   7    0.31    0.45
  -1   7   4   -0.13    0.51
   1  -7   4    0.41    0.32
   1  -4  -7    0.23    0.56
   1   7  -4    0.02    0.44
  -4   7  -1    0.27    0.73
  -7   1  -4    0.60    0.44
  -7   1  -4   -0.04    0.86
   4   7   1   -0.02    0.36
   4  -1   7   -0.68    0.81
   4   7   1    0.04    0.71
  -7  -4  -1    0.17    0.40
  -7  -2  -4    1.22    0.54
   7   2  -4    1.06    1.31
  -7  -2  -4    1.74    0.63
  -4   7   2    3.37    0.98
  -7   4  -2    1.68    0.61
  -7   4  -2    2.17    1.50
   2   7   4    2.07    0.93
   7  -4  -2    2.07    0.69
   2   4  -7    1.60    0.66
   4  -2  -7    1.60    0.56
   7   4   2    2.18    0.72
   7   4   2    3.67    1.06
  -2   7  -4    1.64    1.25
   4   7  -2    1.82    0.56
  -4  -2   7    2.19    0.64
  -2   4   7    3.36    0.93
  -4   2  -7    0.83    0.95
   2  -4   7    1.70    0.62
   2  -4   7    1.21    0.51
  -7   2   4    1.49    0.51
  -4   7   2    1.36    0.73
  -2   7  -4    1.67    0.63
  -2  -4  -7    3.03    0.76
   7  -4  -2    1.99    0.47
  -4   2  -7    2.89    0.84
   7  -2   4    5.10    1.63
  -7  -4  -2    2.45    0.60
  -2   4  -7    0.76    1.01
  -7   2  -4    1.48    0.54
   4   7   2    1.88    0.92
   4   2  -7    1.31    0.60
   2  -4  -7    1.72    0.63
  -7  -4  -2    2.76    0.54
   7   2   4    0.64    0.78
   7   2   4    6.46    2.07
  -2  -4   7    1.53    0.52
  -4   7  -2    1.29    0.67
  -4   7  -2    2.18    1.23
   4   7   2    1.04    0.51
  -2   7   4    1.17    0.59
   2  -7   4    1.40    0.45
   2   7  -4    1.38    0.56
   7  -4   2    3.11    0.82
   7   4  -2    3.80    1.26
   4  -2   7    2.77    0.80
  -2   4  -7    2.61    0.86
  -7  -2   4    1.32    0.30
   7  -2  -4    0.32    0.94
  -7   2  -4   -0.51    0.84
  -7   4   2    2.00    0.62
  -7   4   2    3.05    0.89
  -4  -2  -7    2.99    0.95
   7  -2  -4    1.29    0.50
  -7  -3  -4    0.44    0.45
  -4   7   3    0.55    0.69
  -3  -4  -7    0.91    0.55
  -4   3  -7    0.67    1.04
   7  -4  -3    0.80    0.40
   3  -4   7    0.41    0.44
  -4   3  -7    0.96    0.66
  -7  -3  -4    0.55    0.53
   3   7   4    1.12    0.89
   7  -4  -3    1.10    0.66
   3   4  -7    0.86    0.61
  -7   3   4    0.57    0.48
  -3   4   7    1.10    0.81
   3   7   4   -0.16    0.89
   4  -3  -7    0.57    0.47
   7   4   3    1.64    1.10
  -7   4  -3    0.09    1.20
  -4  -3   7    1.25    0.57
  -7   4  -3    0.61    0.60
  -3   7  -4    1.00    0.64
  -3   7  -4    1.02    1.68
   7   4   3    1.45    0.86
  -7  -4  -3    0.49    0.51
  -4  -3  -7    1.50    0.70
   4   7   3    0.51    0.94
  -4   7  -3    0.67    1.47
  -3  -4   7    0.68    0.48
  -3   4  -7    0.24    0.70
   4   3  -7    0.51    0.56
   3   7  -4    1.01    0.58
   3  -4  -7    1.04    0.48
  -4   7  -3    0.28    0.65
   3  -4  -7    0.59    0.47
  -7   3  -4    0.53    1.07
  -7  -4  -3    0.78    0.38
  -7   3  -4    0.39    0.50
   4   7   3    1.24    0.68
   7  -3  -4    0.74    0.42
   7   4  -3    0.59    1.09
  -3   4  -7    0.64    1.13
  -7   4   3    1.25    0.58
   7  -4   3    0.79    0.67
  -7   4  -4   -0.58    0.58
  -4   4  -7    0.26    0.69
   7   4   4   -0.32    0.99
  -4  -4  -7    0.44    0.48
  -4   7  -4    0.48    0.68
  -4   7   4    0.95    0.83
   4  -4  -7    0.08    0.43
  -7  -4  -4   -0.01    0.35
   4   7   4   -0.11    1.08
  -7   4  -4   -0.04    1.08
   7  -4  -4   -0.22    0.36
  -7   4   4    0.01    0.58
  -4   4  -7    0.11    1.20
   4   7   4    1.33    0.97
   4   4  -7    0.06    0.60
   7  -5   0    2.96    0.71
   7   5   0    3.53    0.62
   7   5   0    3.62    1.06
   0   7  -5    3.82    0.91
   0   7  -5    6.11    1.16
   0   7   5    4.81    0.98
   5   0  -7    4.94    0.93
   0  -5   7    3.11    0.65
   5   7   0    3.48    0.70
   0  -5  -7    3.67    0.84
   0   5  -7    3.33    1.03
   0   5   7    3.57    1.18
  -5   0  -7    5.38    1.29
   0  -7   5    4.07    0.68
  -7   0  -5    4.46    0.89
  -7   0  -5    4.22    1.13
  -7   0   5    4.25    0.74
  -5   7   0    2.74    0.77
   0   5  -7    2.64    1.08
  -5   0  -7    4.82    0.99
  -7   5   0    3.73    0.82
  -7   5   0    2.15    1.01
   7   0  -5    4.65    0.93
  -5  -1   7    1.49    0.81
   7   1  -5    1.86    0.61
  -1   7  -5    0.99    0.69
   7  -1   5    8.19    3.73
  -5   1  -7    1.13    1.03
  -5   7   1    0.38    0.69
   7   5   1    1.77    0.55
  -7  -1  -5    0.95    0.64
  -7   5  -1    1.71    1.20
   5   7  -1    1.60    0.56
   7   5   1    2.46    0.88
  -7   5  -1    1.65    0.61
  -1  -5  -7    2.25    0.62
  -1   7  -5    1.37    1.01
  -7   1   5    1.14    0.48
   7  -5  -1    1.41    0.41
   7  -5  -1    1.75    0.60
   1   5  -7    1.28    0.75
   5  -1  -7    1.33    0.54
  -7  -1  -5    1.87    0.76
  -5   1  -7    2.15    0.72
  -1   5   7    2.25    1.06
   1   7   5    1.04    0.79
   1   5   7    2.06    1.20
   7  -1  -5    3.57    1.50
   1   7  -5    1.04    0.71
   7  -5   1    1.82    0.59
   7   5  -1    1.51    0.89
   1   7  -5    0.22    0.78
  -7   5   1    1.85    0.83
  -7   5   1    1.31    0.65
   1  -7   5    0.84    0.38
  -5   7  -1    0.24    0.61
  -7  -1   5    1.57    0.39
   5   7   1    0.56    0.48
  -7   1  -5    1.61    0.99
  -1   5  -7    2.74    0.94
  -1   5  -7    1.83    0.98
  -1   7   5    0.24    0.66
   1  -5  -7    1.50    0.72
  -1  -5   7    0.68    0.45
  -5  -1  -7    2.92    0.82
  -5  -1  -7    1.77    0.93
   5   7   1    0.85    0.61
   5   1  -7    1.25    0.53
  -7   1  -5    0.71    0.59
   7  -1  -5    1.94    0.54
  -2   7  -5   -0.15    1.55
   5   7  -2    1.10    0.61
   5  -2  -7    0.25    0.46
  -2   5   7    0.34    0.91
   2   5  -7   -0.20    0.60
   7  -5  -2    0.00    0.52
   7  -5  -2    0.12    0.32
  -7   2   5   -0.06    0.45
  -7   5  -2   -0.72    0.49
  -7  -2  -5    0.55    0.59
  -2  -5  -7    0.19    0.44
   7  -2   5    1.79    1.47
  -7   5  -2    1.04    1.25
  -5  -2   7    0.95    0.57
   2   7   5   -0.61    1.22
   2   7   5    0.08    0.89
   5  -2  -7   -0.40    0.64
  -5   2  -7   -0.20    0.57
   2  -5   7   -0.14    0.53
   2  -5   7    0.18    0.41
   7   5   2    0.48    0.82
  -2   7  -5    0.43    0.67
  -7  -2  -5    0.14    0.58
   7   5   2    0.34    0.63
  -5   2  -7   -0.32    0.99
  -5   7   2    0.41    0.62
   2   7  -5    0.26    0.67
   5   7   2    1.02    0.87
   2   7  -5    0.57    0.61
  -5   7  -2    0.08    0.62
  -7  -2   5    0.16    0.24
   7   5  -2    0.53    0.94
  -5  -2  -7    0.41    0.69
  -2   5  -7    0.10    1.07
  -2   7   5    0.67    0.69
   2  -5  -7   -0.04    0.41
   2  -5  -7   -0.15    0.57
   5  -2   7    0.25    0.86
   5   2  -7    0.35    0.53
  -7   2  -5   -0.47    0.56
  -7   2  -5    0.08    0.98
  -7   5   2   -0.07    0.48
   7  -5   2    0.06    0.48
   5   7   2    0.50    0.55
   7  -2  -5    0.42    1.12
   7  -2  -5    0.18    0.39
  -7   5   2    0.29    0.66
  -2   5  -7    0.38    0.76
   2  -7   5   -0.08    0.37
   2   5   7    1.07    1.63
  -2  -5   7   -0.29    0.38
  -5   7   3   14.69    1.94
  -7   5  -3   13.36    1.74
   7   5   3   11.47    1.99
   7  -5  -3   12.04    1.39
  -5  -3   7   16.67    1.64
  -7   3   5   14.40    1.65
  -5   3  -7   14.05    1.83
   5   7  -3   14.84    1.72
  -3   7  -5   24.09    4.14
  -3   7  -5   13.87    1.81
   7  -5  -3   12.41    1.57
   5  -3  -7   14.71    1.60
  -3  -5  -7   15.77    1.51
   7  -5   3   15.43    1.54
   5   3  -7   14.84    1.91
  -7   3  -5   16.66    1.80
  -7  -5  -3   15.42    1.41
  -7  -3   5   11.91    1.33
  -3  -5   7   10.90    1.43
  -7   5   3   11.13    1.66
   7  -3  -5   17.28    1.60
  -3   5  -7   11.34    1.91
  -7  -3   5   15.16    1.22
  -5   7  -3   15.26    1.87
   3  -5  -7   11.47    1.58
  -7  -4  -5    5.60    0.97
  -5   7   4    3.06    1.08
   4  -5   7    4.19    0.82
   4   5  -7    3.74    1.09
   7  -5  -4    6.02    0.91
  -7   5  -4    5.51    1.15
  -5  -4   7    5.78    0.99
  -5   4  -7    2.49    1.67
  -4   7  -5    2.75    0.97
   7  -5  -4    6.67    1.18
   4   7   5    7.24    1.64
  -7   4   5    5.49    1.02
   7   5   4    7.11    1.56
   5  -4  -7    5.33    1.04
  -5   4  -7    5.96    1.88
   4   7   5    5.22    1.58
  -4   5  -7    2.94    1.64
  -7   4  -5    2.51    1.36
  -5   7  -4    4.00    1.03
  -4  -5   7    4.02    0.68
  -4   5  -7    4.86    1.18
   7  -5   4    7.32    1.05
   7  -4  -5    7.55    1.53
   4  -5  -7    5.14    1.03
   7  -4  -5    6.24    0.97
   5   7   4    6.12    1.37
  -7  -5  -4    5.74    0.84
   4   7  -5    4.64    1.04
   5  -4   7    5.41    1.13
  -7   5   4    3.79    1.36
  -5  -4  -7    7.22    1.10
   5   7   4    8.57    1.55
   5   4  -7    4.97    1.42
  -7   4  -5    5.12    1.10
   5   5  -7    0.85    0.89
   7  -5  -5    0.17    0.47
   7  -5   5    0.40    0.57
  -5  -5  -7    0.64    0.50
  -5  -5   7    0.18    0.22
  -5   5  -7   -0.29    0.86
   5  -5   7    0.17    0.57
   5   7  -5    0.61    0.84
   5   7   5    2.79    1.51
   7  -5  -5    0.67    0.73
  -7   5   5    0.71    0.70
   5  -5  -7   -0.07    0.52
  -5   5  -7   -2.30    1.37
  -5   7  -5    0.04    0.93
  -7  -5  -5    0.38    0.43
  -7   5  -5    0.23    0.84
   5  -5  -7    0.34    0.70
  -5   7   5    0.09    0.88
  -7   5  -5    0.43    1.24
  -6   0  -7   13.92    2.09
  -6   0  -7   10.91    1.64
   0   7  -6   10.86    1.73
   0   7  -6   13.90    2.17
   0   6  -7   11.91    2.08
  -7   6   0   11.07    1.58
  -7   6   0    8.70    1.74
  -6   7   0   10.24    1.60
  -7   0  -6   11.18    1.59
  -7   0  -6   13.46    2.00
   0   6  -7   12.50    1.96
   0   6   7   16.08    2.18
   6   7   0   10.00    1.48
   7   0  -6   10.97    1.44
   0  -7   6   10.04    1.17
   0  -6   7   11.22    1.27
   7  -6   0    9.55    1.27
   7  -6   0   11.70    1.11
  -7   0   6   11.20    1.29
   6   0  -7   11.45    1.45
   0   7   6   10.08    1.76
   1   6  -7    3.20    1.18
  -7   6  -1    2.14    0.92
  -7   6  -1    1.69    1.03
  -1   7  -6    5.11    1.51
  -6   7   1    3.18    0.91
   7   1  -6    3.29    0.81
  -1  -7   6    3.01    0.49
  -7   1   6    2.55    0.66
   1  -6   7    3.01    0.63
   1   7   6    4.08    1.08
   1   6  -7    3.43    1.02
   7  -6  -1    2.56    0.64
  -6   1  -7    4.09    1.02
  -6   1  -7    4.18    1.36
  -1   6   7    3.95    1.29
   7  -6  -1    2.98    0.58
  -7  -1  -6    2.77    0.76
   7   6   1    4.77    1.06
   6  -1  -7    2.41    0.77
   6   7  -1    2.37    0.80
   7   6   1    3.23    0.66
  -1  -6  -7    4.24    0.68
  -7  -1  -6    3.08    1.21
  -1   7  -6    4.74    1.17
   1   7  -6    1.72    1.01
  -7  -1   6    3.00    0.55
   1  -7   6    2.16    0.55
   6   1  -7    2.97    0.84
   7  -6   1    3.10    0.62
  -7   1  -6    2.97    0.91
   7   6  -1    3.89    1.04
   1   6   7    5.39    1.44
  -6   7  -1    1.43    0.86
  -1   7   6    3.36    1.06
  -6  -1  -7    3.91    1.46
   1   7  -6    4.41    1.12
   1  -6  -7    3.96    0.74
  -7   6   1    2.33    0.87
  -7   6   1    2.36    0.82
  -6  -1  -7    4.23    0.95
  -1  -6   7    4.47    0.76
  -1   6  -7    3.74    1.18
   6   7   1    2.79    0.68
   7  -1  -6    2.45    0.77
  -7   1  -6    3.54    1.30
  -1   6  -7    3.70    1.25
   6   7   1    3.29    0.81
   7   2  -6    7.57    1.38
  -6   7   2    6.38    1.39
   2   6  -7    6.01    1.27
   6   7  -2    8.89    1.49
   2  -6   7    9.33    1.23
  -2  -7   6    7.14    0.78
  -7  -2  -6    9.76    1.41
  -7  -2  -6    9.64    1.63
  -2   7  -6    6.09    1.29
   7   6   2    6.42    1.15
   7   6   2   13.07    2.58
  -7   2   6    7.36    1.23
  -6   2  -7    4.57    1.11
  -7   6  -2    4.48    1.25
  -7   6  -2    6.68    1.53
   7  -6  -2    7.18    0.85
  -2   7  -6   13.45    2.65
  -6  -2   7    6.27    1.02
  -6   2  -7    7.14    1.72
   6   7   2    7.78    1.42
  -7   2  -6   10.01    2.07
   6   7   2    5.13    1.18
  -7   2  -6    7.30    1.52
  -7  -2   6    7.83    0.86
  -2   7   6    8.53    1.72
   2  -7   6    9.30    1.10
   2  -6  -7    8.58    1.24
  -6   7  -2    5.98    1.34
   6   2  -7    8.14    1.34
  -7   6   2    4.93    1.18
  -2   6  -7    6.74    1.36
  -6  -2  -7    9.74    1.76
  -2  -6   7    6.96    0.89
  -6  -2  -7    6.95    1.18
  -7   6   2    7.91    1.34
  -2   6  -7    6.69    1.80
  -7  -3  -6   39.16    3.25
  -3   7  -6   32.70    3.33
   6  -3  -7   31.25    3.02
  -6   3  -7   25.84    3.81
  -7   6  -3   30.59    3.62
   7  -6  -3   34.58    2.81
  -6   7   3   38.22    3.36
   7  -6  -3   36.21    2.95
  -3   7  -6   34.27    5.33
   7   6   3   29.66    3.39
   7   3  -6   34.61    3.34
   3   6  -7   31.28    3.32
  -7   6  -3   34.88    3.31
  -6   3  -7   29.93    3.28
  -6  -3   7   33.68    2.95
  -7   3   6   29.10    3.08
   3   7  -6   34.05    3.32
  -3   6  -7   33.45    3.46
   6   3  -7   33.62    3.30
   7  -3  -6   32.68    3.01
  -7  -3   6   31.85    2.68
  -7   3  -6   33.35    3.26
  -6   7  -3   32.86    3.29
   7  -6   3   35.80    2.88
  -3   6  -7   24.42    4.06
  -3  -6   7   34.71    2.70
  -7  -3   6   28.43    2.81
  -7   6   3   39.20    3.31
   7   4  -6   12.07    1.99
  -6   4  -7    8.71    2.25
   4  -6   7   13.11    1.47
   4   6  -7   10.72    2.35
   7  -6  -4   14.97    1.56
  -7   6  -4   15.65    2.04
  -7   4   6   11.54    1.81
  -4   7  -6   13.36    3.30
  -6   7   4   18.60    2.15
  -6  -4   7   11.94    1.15
   6  -4  -7   12.81    1.60
  -4   7  -6   17.81    2.21
   7  -6  -4   13.04    1.38
  -7   6  -4    7.65    2.93
   7   6   4   20.14    2.81
  -6   4  -7   13.43    2.07
  -6  -4   7   13.15    1.41
  -4   6  -7    7.61    2.55
  -6  -4  -7   16.53    1.70
  -7   4  -6   11.43    1.88
   6   4  -7   13.45    1.97
   7  -6   4   11.09    1.43
  -7   6   4   14.22    1.92
   4   7  -6   15.41    2.02
   7  -4  -6   11.34    1.52
  -6   7  -4   16.24    2.17
   4  -6  -7   16.23    1.74
  -6   5  -7    1.97    1.72
  -5   7  -6    1.08    0.99
   5  -7  -6    0.23    0.66
   7   5  -6    1.05    1.10
   5   6  -7    0.80    1.00
   5  -6   7    0.59    0.72
  -7   6  -5    0.55    1.24
   7  -6  -5    0.80    0.75
   6  -5  -7    0.99    0.65
  -7   6  -5   -0.25    0.94
  -7  -5  -6    0.43    0.51
  -6   5  -7    1.04    1.08
   7  -6  -5    0.71    0.51
  -7   5   6    0.73    0.84
  -5  -6  -7    0.80    0.50
  -6   7   5    0.50    0.87
   6  -5  -7    1.14    0.90
  -6   7  -5   -0.17    1.01
  -5   6  -7   -1.68    1.49
  -7  -6  -5    0.61    0.46
  -7   6   5    1.39    0.89
  -6  -5  -7    0.52    0.58
  -7   5  -6    0.57    0.97
   6  -7  -5    0.56    0.56
   7  -5  -6    1.29    0.96
   7  -5  -6    2.06    0.67
   5   7  -6    0.49    1.54
   5  -6  -7    0.73    0.81
  -5   6  -7    0.79    0.99
   6  -5   7    0.27    0.65
   6   5  -7    0.02    0.99
   5  -6  -7    0.80    0.66
  -7   5  -6   -0.57    1.35
   7  -6   5    0.31    0.60
  -7  -6  -6    0.69    0.54
  -7   6  -6    0.10    1.11
  -7   6  -6    1.34    1.56
  -7   6   6    1.00    0.99
  -6  -6  -7   -0.06    0.54
  -6   6  -7    0.21    1.14
  -6   6  -7    0.02    1.71
  -6   7  -6   -1.38    1.14
  -6   7  -6   -0.56    1.74
  -6   7   6    0.33    0.99
   6  -7  -6    0.98    0.85
   6  -6  -7   -0.09    0.64
   6   6  -7    0.73    1.09
   6   7  -6    1.93    1.20
   7  -6  -6    0.77    0.63
   7   6  -6    0.07    1.10
  -7   0  -7   28.46    2.69
  -7   7   0   23.69    2.61
   0  -7   7   22.53    2.18
   0   7  -7   22.22    3.06
   0   7  -7   25.97    3.17
   7   0  -7   24.57    2.51
  -7  -1  -7   -0.13    0.72
  -7  -1  -7    0.47    0.91
  -7  -1   7   -0.28    0.44
  -7   1  -7    1.00    0.83
  -7   1  -7    0.56    1.12
  -7   7  -1    0.00    0.79
  -7   7   1    0.09    0.72
  -1  -7   7   -0.12    0.39
  -1   7  -7    1.03    1.19
  -1   7  -7    1.85    1.36
   1  -7   7    0.22    0.53
   1   7  -7    0.25    1.11
   1   7  -7    0.38    0.94
   7  -1  -7    0.04    0.56
   7   1  -7    1.20    0.72
   7   7   1    0.23    0.51
  -7  -2  -7    0.52    0.74
  -7  -2  -7   -0.14    0.73
  -7  -2   7    0.23    0.70
  -7  -2   7   -0.21    0.41
  -7   2  -7    0.59    0.81
  -7   2  -7    0.33    1.14
  -7   7  -2    0.47    0.78
  -7   7   2   -0.41    0.68
  -2  -7   7   -0.19    0.34
  -2   7  -7    0.48    1.16
  -2   7  -7    0.66    1.70
   2   7  -7    0.14    0.91
   7  -2  -7    0.40    0.60
   7   2  -7    0.10    0.61
   7   7   2    0.15    0.81
  -7  -3  -7    1.53    0.81
  -7  -3   7    0.84    0.98
  -7  -3   7    0.41    0.34
  -7   3  -7    0.87    0.85
  -7   3  -7    0.92    1.31
  -7   7  -3    0.43    0.90
  -7   7   3    1.08    0.85
  -3   7  -7    0.79    1.08
  -3   7  -7    1.04    1.93
   3   7  -7    0.30    0.88
   7  -7  -3    0.59    0.49
   7  -3  -7    0.31    0.56
   7   3  -7    0.22    0.83
   7   7   3   -1.02    1.11
  -7  -4  -7    0.45    0.67
  -7  -4   7    0.47    0.27
  -7   4  -7    0.62    0.96
  -7   4  -7    0.71    1.39
  -7   4   7    0.53    0.80
  -7   7  -4    0.49    0.97
  -7   7   4    1.02    0.94
  -4   7  -7   -0.33    1.04
  -4   7  -7   -0.81    1.80
   4  -7  -7   -0.26    0.58
   4   7  -7    0.62    1.01
   7  -7  -4   -0.30    0.47
   7  -4  -7    0.16    0.63
   7   4  -7    0.41    0.89
   7   7   4    0.10    1.57
  -7  -5  -7    1.00    0.66
  -7   5  -7   -0.44    1.11
  -7   5  -7    0.44    1.66
  -7   5   7    0.69    0.89
  -7   7  -5    0.20    1.09
  -7   7  -5    1.00    1.82
  -7   7   5   -0.49    1.01
  -5   7  -7    0.53    1.25
  -5   7  -7    0.39    1.92
   5   7  -7    0.92    1.17
   7  -7  -5    0.76    0.86
   7   5  -7   -0.19    1.00
  -7   6  -7    8.88    1.85
  -7   6  -7    4.21    1.95
  -7   6   7    5.35    1.43
  -7   7  -6    5.34    1.72
  -7   7  -6    9.34    2.31
  -7   7   6    6.38    1.55
  -6   7  -7    4.63    1.72
  -6   7  -7    4.91    2.23
  -6   7   7    6.93    1.49
   6   7  -7    7.32    1.79
   7  -6  -7    7.35    1.16
   7   6  -7    7.40    1.79
   7   7  -6    6.72    1.81
  -7   7  -7   -1.96    1.66
  -7   7  -7   -0.81    1.80
  -7   7   7   -1.03    1.23
   7   7  -7   -0.24    1.48
  -8   0   0  814.60   65.08
  -8   0   0  856.74   65.93
   0   0  -8  860.68   65.47
   8   0   0  815.68   65.11
  -8   0  -1    6.08    0.87
  -8   0  -1    3.53    1.49
  -8   0   1    4.82    0.76
  -8   0   1    6.50    1.62
  -1   8   0    5.47    0.94
   0  -1  -8    4.36    1.06
   0  -1   8    4.33    0.94
   0   1  -8    3.67    0.92
   0   1   8    8.49    1.31
   0   1   8    4.94    1.19
   1   8   0    5.14    0.87
   8   0  -1    7.91    1.62
   8   0   1    5.09    0.87
   8  -1   0    4.92    0.81
   8  -1   0    5.30    1.46
   8   1   0    4.16    0.73
   8   1   0    7.98    1.72
   0   8   1    3.71    0.93
   1   0  -8    5.60    1.07
   1   0   8    7.14    1.43
  -8  -1   0    4.10    0.77
  -8  -1   0    5.18    1.30
  -8   1   0    3.66    0.68
  -8   1   0    5.82    1.91
  -1   0  -8    4.91    1.21
  -1   0   8    7.17    1.26
   0   8  -1    5.19    0.93
   1   8   1    3.35    0.46
   8  -1   1    3.78    0.67
  -1   8   1    3.70    0.46
  -1   8   1    3.62    0.55
   1  -1  -8    6.11    1.10
   1  -1   8    5.61    1.06
  -8  -1  -1    3.99    1.13
  -8  -1   1    5.20    0.72
  -8   1  -1    5.25    0.83
  -8   1  -1    6.17    2.23
  -8   1   1    6.15    0.82
  -8   1   1    7.80    1.75
  -1   8  -1    3.86    0.80
  -1   8  -1    3.86    0.74
  -1   8   1    3.68    0.89
   1   1  -8    6.02    1.17
   1   8  -1    4.13    0.68
   1   8   1    3.24    0.89
  -8  -1  -1    5.02    0.85
  -1   1  -8    4.63    1.18
  -1  -1   8    4.53    0.89
  -1  -1  -8    5.33    1.16
   8   1   1    4.29    0.85
   2   0  -8  117.44    9.83
   0   8   2  121.58    9.53
  -8  -2   0  130.19    9.58
  -8   2   0  126.19    9.63
   8   2   0  123.12    9.59
   0  -2  -8  131.89   10.02
   8   0   2  104.29    9.62
   2   8   0  122.59    9.66
   2   8   0  121.78    9.44
  -2   0  -8  104.77   10.10
   0  -2   8  127.74    9.80
   0   2  -8  135.47   10.07
   0   8  -2  102.92    9.59
  -8   0  -2  121.92    9.66
  -8   0   2  122.19    9.55
  -2   8   0  113.45    9.77
  -1   2   8   15.21    1.88
  -1  -2  -8   11.77    1.84
  -1   8  -2   12.46    1.45
  -8   2  -1   13.95    2.86
   1  -2   8   11.58    1.51
  -8   1   2   11.86    1.24
   8   1  -2   17.77    2.81
  -2  -1   8   13.72    1.75
  -2   8   1   11.82    1.09
  -2   8   1   12.68    1.63
  -8   2  -1   12.95    1.36
  -2   1  -8    8.85    1.98
   8   2   1   12.96    1.42
   2   8  -1   11.15    1.22
   2  -1  -8   11.12    1.50
  -8  -1  -2   10.24    1.33
  -1   8  -2   14.35    1.38
   8  -2  -1   10.61    2.09
   8  -1   2    9.20    1.38
   1   2  -8   13.66    1.71
  -8  -2   1   12.07    1.19
  -8  -1  -2    7.94    1.64
  -1   2  -8   13.32    1.90
   2   8   1   11.97    1.07
  -1   8   2   10.83    1.18
   8  -1  -2   16.11    2.55
   8   1   2   11.54    1.47
   2   8   1   11.44    1.65
  -1   8   2   10.26    1.70
   8  -2   1   11.26    1.34
  -1  -2   8   12.86    1.52
  -8   2   1   12.12    1.29
   2   1  -8    9.86    1.53
  -8  -1   2   11.14    1.16
  -8   1  -2    9.52    1.31
  -8   1  -2   11.11    2.55
  -2  -1  -8   10.00    1.87
  -2   8  -1   11.36    1.49
  -2   8  -1   13.16    1.31
   1   8  -2   14.24    1.30
  -8  -2  -1   11.19    1.64
  -8  -2  -1   12.10    1.32
   1  -2  -8   13.29    1.65
   2  -2   8   85.61    6.37
  -2   8   2   73.59    6.40
   2  -2  -8   75.41    6.33
  -2   8  -2   76.02    6.26
  -2   8  -2   69.93    6.22
  -8  -2  -2   74.84    6.17
  -8  -2  -2   71.85    6.34
  -8  -2   2   72.76    5.99
  -8   2  -2   69.19    6.16
  -8   2  -2   94.31    8.22
  -8   2   2   77.58    6.13
  -2  -2  -8   75.50    6.60
  -2   2  -8   80.90    6.53
  -2   2  -8   66.24    6.72
   8   2   2   76.25    6.20
   2   2  -8   71.36    6.36
   2   8  -2   75.16    6.04
   0   3  -8   59.75    5.36
   3   8   0   63.29    4.91
   3   8   0   58.44    4.80
   8   0   3   57.86    5.04
   8  -3   0   69.05    6.53
   8   3   0   55.03    4.86
   0   8  -3   54.50    4.95
   0   8  -3   62.43    4.93
  -8   0  -3   64.96    5.04
  -8   0  -3   51.60    5.55
  -8   3   0   58.04    4.97
  -8   3   0   70.61    6.42
   0   8   3   67.00    4.96
  -3   8   0   53.58    5.11
  -3   8   0   50.60    4.79
   0  -3  -8   57.31    5.27
   0  -3   8   61.64    5.19
  -8   0   3   63.67    4.85
  -3   0  -8   62.32    5.62
  -8  -3   0   55.97    4.87
   3   0  -8   63.95    5.16
  -1   8  -3    9.90    1.35
   3   8  -1   10.32    0.96
  -8   1   3    8.40    1.02
   1   3  -8    6.88    1.44
  -3   1  -8    6.78    1.69
  -3   1  -8    7.39    1.35
   3  -1  -8    8.22    1.28
   8   3   1    7.50    1.20
  -1   8  -3    8.20    1.23
   3   8  -1    6.27    1.08
   3   8  -1    8.65    0.91
  -8   3  -1   10.07    2.74
  -8  -1  -3    5.69    1.27
  -8  -3   1    7.79    0.95
  -8   3  -1    5.74    1.11
  -8  -1  -3    8.08    1.23
  -1  -3  -8    7.11    1.40
  -3   8   1    8.62    0.92
  -3   8   1   11.23    1.50
   3   8   1    8.96    0.90
   3   1  -8    7.51    1.27
  -8   1  -3    7.25    1.18
   8   1   3    7.85    1.43
  -8   3   1    9.10    1.88
   1   8  -3    8.14    1.10
   8  -1  -3   11.44    2.13
  -1   3  -8    7.90    1.54
  -3   1   8   10.03    1.87
  -8  -3  -1    9.35    1.27
   3   8   1    8.16    1.20
  -1   8   3    8.66    1.09
  -3   8  -1    8.07    1.36
  -3   8  -1    9.02    1.05
  -1   3  -8    6.82    1.38
  -3  -1  -8    7.86    1.63
   1  -3  -8    7.86    1.39
  -8   3   1    7.83    1.11
   1   8  -3    7.77    1.19
  -8  -1   3    8.27    0.90
  -8  -3  -1    7.72    1.09
  -8   1  -3    6.01    1.95
  -3   2  -8   73.92    5.95
  -8  -2  -3   72.83    5.83
  -2   8  -3   66.17    5.70
  -8  -3   2   64.84    5.42
  -8   3  -2   63.57    5.66
  -8  -2  -3   65.33    5.67
   2   3  -8   64.02    5.86
  -2   8  -3   61.97    5.84
   8   3   2   65.37    5.67
   3  -2  -8   68.68    5.76
  -3   8   2   73.37    5.95
  -2  -3  -8   76.19    6.06
  -8   2   3   72.19    5.60
  -8   3  -2   82.98    7.79
  -3  -2  -8   75.12    6.15
   2   8  -3   68.58    5.61
  -8  -2   3   71.47    5.43
   8   2   3   61.98    5.73
  -2   3  -8   71.70    6.00
  -3   8  -2   71.84    5.79
   2  -3  -8   65.84    5.76
   3   2  -8   65.19    5.81
  -8  -3  -2   67.77    5.63
  -2   8   3   65.89    5.59
  -8   3   2   69.09    5.64
  -2   3  -8   57.32    6.25
  -8   2  -3   64.36    5.67
  -2   8   3   60.36    5.94
  -8   2  -3   54.93    6.76
   3   8   2   74.60    5.60
  -3   8  -2   70.25    5.71
   3   8   2   64.54    5.78
  -8  -3  -2   75.85    5.72
  -3  -3  -8   18.95    2.17
   8   3   3   14.63    2.02
  -8   3  -3   12.65    2.87
  -3   8   3   15.16    2.15
  -8  -3  -3   17.86    1.75
  -8  -3   3   14.56    1.38
  -8   3  -3   14.32    1.76
   3   3  -8   16.06    1.96
   3   8   3   18.66    2.27
  -3   8  -3   17.02    1.92
  -3   8  -3   13.77    2.03
  -8  -3  -3   16.95    1.79
  -3   3  -8   15.20    2.09
  -3   3  -8   11.44    2.59
   3  -3  -8   15.35    1.80
  -8   3   3   16.86    1.72
   8  -3  -3   16.24    1.65
   3  -3   8   15.74    1.90
   4   8   0  242.47   21.40
  -8   0  -4  272.82   21.62
  -8   0  -4  266.38   22.08
  -8   0   4  291.07   21.41
  -8   4   0  301.19   22.46
  -4   0  -8  271.15   22.17
   4   8   0  278.38   21.41
   0   8  -4  282.04   21.59
  -8  -4   0  311.79   21.47
  -8   4   0  287.51   21.60
   0  -4   8  249.93   21.48
   0   4  -8  258.36   21.88
   4   8   0  301.80   21.45
  -4   8   0  255.92   21.68
  -4   8   0  252.18   21.42
   0  -4  -8  287.02   21.78
   0   8   4  292.28   21.57
   4   0  -8  252.07   21.70
   8   4   0  259.12   21.38
   0   8  -4  255.79   21.56
  -8   1   4    2.29    0.59
   4  -1  -8    2.61    0.76
   8   4   1    2.71    0.73
  -4   8   1    3.56    0.92
  -4   8   1    4.26    0.71
  -1   8  -4    2.83    0.81
  -1   8  -4    3.75    0.98
  -8  -1  -4    2.21    0.73
  -8  -1  -4    2.56    0.95
  -4   1  -8    1.85    0.80
  -8   4  -1    2.85    0.75
  -8   4  -1    3.62    1.94
   1   4  -8    3.58    1.04
   1  -4   8    3.96    0.87
  -1  -4  -8    2.49    0.91
  -4  -1   8    2.65    0.91
   1  -4   8    2.94    0.79
  -8   1  -4    2.47    0.78
  -8   4   1    4.28    1.38
  -1   8   4    3.90    0.82
  -4   8  -1    3.77    0.70
  -1   4  -8    2.03    1.08
  -4   1   8    4.67    2.05
  -4  -1  -8    2.25    1.10
  -1  -4   8    3.05    0.78
  -1   4  -8    3.18    1.10
   4   8   1    3.80    1.00
   1  -4  -8    2.27    0.85
  -4   8  -1    2.93    0.84
  -8  -1   4    2.64    0.49
  -8   4   1    2.74    0.68
   1   8  -4    2.89    0.85
  -8   2   4   16.67    1.71
   2   4  -8   13.60    2.05
   4   8  -2   16.54    1.70
  -4   2  -8   16.14    2.06
  -8  -2  -4   18.38    1.88
  -8   4  -2   15.62    1.84
  -2   8  -4   15.66    2.36
  -8  -2  -4   18.28    1.96
  -4   8   2   14.70    2.07
   8   4   2   15.66    1.99
   2   8   4   16.12    2.38
  -2   8  -4   16.12    1.97
   4  -2  -8   17.15    1.88
  -4  -2   8   20.10    2.05
  -8   4  -2   15.62    3.19
  -2  -4  -8   20.08    2.12
  -4   2  -8   11.61    2.53
  -2   4  -8   15.15    2.21
  -8  -4  -2   18.48    1.72
  -2  -4   8   15.05    1.85
   2  -8   4   16.52    1.65
   4   2  -8   16.14    2.00
   4   8   2   18.52    2.36
   4   8   2   17.92    1.75
   8  -2  -4   16.19    1.75
   8   2   4   15.10    2.29
   2  -4  -8   15.94    1.94
  -4   8  -2   19.24    2.08
  -4   8  -2   16.27    1.87
  -8   2  -4   15.78    1.90
  -2   4  -8   11.74    2.65
  -8  -4  -2   18.66    1.85
  -8   4   2   14.79    1.79
  -2   8   4   15.50    1.83
  -8  -2   4   16.94    1.49
   2   8  -4   17.62    1.90
  -4  -2  -8   20.47    2.31
  -8   4   2   18.26    2.34
  -8   3   4    0.79    0.58
  -4   3  -8    0.88    0.76
   3  -4   8    0.24    0.60
   8  -4  -3    0.26    0.89
  -4   8   3   -0.21    0.80
  -3  -4  -8    0.10    0.66
   8   4   3   -1.28    0.91
  -3   8  -4    1.18    1.05
   3   8   4    1.18    1.18
   3   8   4    1.09    0.96
  -4   3  -8    0.55    1.38
  -8  -3  -4    0.73    0.53
  -4  -3   8    1.83    0.75
  -8   4  -3    0.68    0.96
   8  -4  -3    0.42    0.43
  -8  -3  -4    1.63    0.68
   4  -3  -8    0.86    0.61
  -8   4  -3    0.49    2.03
  -3   8  -4    1.55    0.75
   4  -3   8    0.90    0.77
  -3   4  -8    1.72    2.66
  -8  -4  -3    0.37    0.60
  -8  -4  -3    1.00    0.45
   4   8   3    0.52    1.12
  -4   8  -3    0.00    0.73
  -4   8  -3    0.39    0.82
  -8   3  -4   -1.45    1.30
  -3   4  -8    0.03    0.78
   8  -3  -4    0.49    0.46
   8  -4   3   -0.13    0.90
  -3  -4   8    1.13    0.70
   4   3  -8    0.60    0.70
   4   8   3    0.96    0.78
   3   8  -4    0.32    0.67
  -8  -3   4    1.00    0.28
   3  -4  -8    0.47    0.56
  -4  -3  -8    1.13    0.83
   8   3   4    0.07    1.09
  -8   4   3    0.16    0.56
  -4   8   4  269.55   22.97
  -8   4  -4  279.24   22.77
   4  -4  -8  298.89   22.71
  -4  -4   8  317.32   22.56
  -4   4  -8  252.42   23.10
   8  -4  -4  307.22   22.61
   4  -4   8  318.02   22.63
   4   4  -8  269.80   22.86
  -4   8  -4  275.91   22.80
  -4   8  -4  276.42   22.93
  -8   0  -5    0.81    0.97
  -5   8   0    0.11    0.73
   0  -5   8   -0.39    0.58
  -8   0  -5    0.81    0.66
  -5   8   0    0.18    0.47
  -8   0   5    0.58    0.43
  -5   0   8    1.08    1.24
   0   8  -5    0.01    0.88
   0   8  -5    0.18    0.74
   0   8   5    0.25    0.76
   0   5  -8   -0.36    0.91
   8  -5   0    0.66    0.71
  -5   0  -8    1.02    0.88
  -5   0  -8    0.68    1.01
   5   8   0    0.15    0.50
   8   0  -5    0.71    0.56
   5   0  -8    0.88    0.57
   0  -5  -8    1.45    0.80
  -8   5   0    0.23    1.10
   0   5  -8    1.31    1.17
  -5   1  -8    7.09    1.75
   8  -5  -1    6.72    0.99
  -8   1   5    7.48    1.10
  -8   5  -1    6.22    1.25
  -8   5  -1    5.90    1.96
  -5  -1   8    6.92    1.31
   8   5   1    6.28    1.03
  -5   8   1    7.61    1.70
   1  -5   8    8.55    1.39
   1   5  -8    6.04    1.37
   5   8  -1    8.23    1.22
  -8  -1  -5   10.56    1.73
   1   8   5   11.18    1.67
   5  -1  -8    6.36    1.24
  -5   8   1    8.44    1.11
  -1  -5  -8    8.12    1.39
  -1   8  -5    9.30    1.83
  -5   1  -8    5.67    1.14
   8  -5  -1    7.95    1.50
  -1   8  -5    8.48    1.34
  -8  -1  -5    7.73    1.39
   8  -1  -5    6.89    1.19
  -8   5   1    6.06    1.46
   1   8  -5    7.37    1.38
  -5  -1  -8    8.72    1.41
   5   1  -8    7.54    1.30
   5   8   1    6.96    1.09
  -1   5  -8    7.82    1.55
  -8   1  -5    8.56    1.42
  -8   1  -5    7.46    1.71
   1  -8   5   10.03    1.11
  -5   8  -1    6.94    1.26
   5   8   1    9.04    1.16
   1  -5  -8    7.26    1.47
  -1   5  -8    6.28    1.65
  -5  -1  -8    9.74    1.94
   1   8  -5    9.26    1.54
   8  -5   1    6.93    1.23
  -1  -5   8    7.43    1.29
  -8  -1   5    6.95    0.93
  -1   8   5    7.94    1.53
  -5   8  -1    9.54    1.25
  -5  -2   8   18.82    2.27
  -8   5  -2   19.54    2.28
  -5   2  -8   17.35    3.05
  -8   2   5   19.80    2.08
  -2   8  -5   23.93    2.98
   2  -5   8   19.46    2.04
   5   8  -2   21.78    2.13
  -8  -2  -5   20.28    2.24
   5  -2  -8   20.78    2.16
   8  -5  -2   20.29    1.93
   8  -5  -2   20.78    2.27
  -5   8   2   21.05    2.45
   2   5  -8   18.79    2.64
  -8  -2  -5   25.10    2.38
  -5   2  -8   19.31    2.37
   8   5   2   20.30    2.30
  -2   8  -5   17.90    2.34
  -5   8  -2   23.27    2.24
  -2   8   5   19.08    2.30
   8  -5   2   23.53    2.29
   2   8  -5   23.18    2.37
  -2   5  -8   21.10    2.58
  -2   5  -8   17.91    3.81
   5   2  -8   19.97    2.29
  -2  -5   8   21.13    2.05
  -8  -2   5   21.91    1.80
  -5   8  -2   19.82    2.34
   5   8   2   21.10    2.15
  -8   5   2   20.02    2.20
  -8   2  -5   17.13    2.24
   2  -5  -8   20.83    2.29
   8  -2  -5   19.62    2.06
  -8  -3  -5    0.49    1.02
   3   5  -8    0.95    0.83
  -5   8   3   -0.82    0.83
   8   5   3   -0.71    1.01
  -8  -3  -5    1.57    0.75
  -8   3   5    0.69    0.66
   5   8  -3    1.15    0.76
  -5   3  -8    0.43    1.35
  -3   8  -5    1.12    0.84
  -3   8  -5    0.18    1.25
  -3  -5  -8    1.70    0.69
   3   8   5    1.12    1.15
   8  -5  -3    1.33    0.49
   3  -5   8    0.45    0.60
  -5  -3   8    0.77    0.78
   8  -5  -3   -0.08    0.80
  -5   3  -8    0.14    0.85
   5  -3  -8    0.52    0.79
  -8   5  -3    0.48    0.70
  -8   5  -3    2.17    1.56
  -8   3  -5    0.29    1.20
   3   8  -5    1.24    0.85
  -5   8  -3    0.52    0.81
   8  -5   3    1.27    0.75
  -8   5   3    0.92    0.70
   5   3  -8    0.96    0.77
  -5   8  -3   -1.15    1.10
   5   8   3    1.45    1.18
   3  -5  -8    0.97    0.74
  -3  -5   8    1.06    0.61
  -3   5  -8    1.37    1.01
  -3   5  -8    0.70    1.51
   5   8   3    1.34    0.89
   8  -3  -5    1.04    0.69
  -8   3  -5    0.95    0.75
  -8  -3   5    0.97    0.28
  -4   8  -5   11.76    2.41
  -5   4  -8    6.70    2.24
  -4   8  -5   10.47    2.46
  -8   4   5   13.12    1.68
   4   5  -8    9.50    1.94
  -8   5  -4    7.61    1.50
  -5   4  -8    9.41    1.63
   8  -5  -4   10.09    1.30
   4  -5   8   10.02    1.45
   8   5   4    6.72    1.81
  -5   8   4    8.64    1.65
   4  -5  -8    9.52    1.54
  -4  -5   8   10.55    1.27
  -8   5   4   11.15    1.70
  -4   5  -8   11.15    1.81
  -8   4  -5   13.37    1.85
  -8  -5  -4   11.56    1.26
  -5   8  -4   10.43    1.96
  -4   8   5   11.15    1.86
   4   8  -5   10.36    1.84
  -5   8  -4   13.81    2.00
   5   4  -8   15.04    1.94
  -4   5  -8    6.13    2.39
  -8   5   5    3.84    1.01
  -5   8   5    5.12    1.31
   8  -5   5    6.11    1.06
   8  -5  -5    3.20    0.79
   5  -5   8    3.35    0.88
   5   5  -8    3.24    1.17
  -5  -5  -8    5.20    0.97
   5  -5  -8    3.86    0.92
  -5   5  -8    3.61    2.17
  -5   8  -5    6.49    1.63
  -5   8  -5    4.35    1.35
  -8   5  -5    3.68    1.11
  -8   5  -5    1.75    1.54
  -5   5  -8    3.63    1.28
   5   8  -5    5.40    1.42
   6   0  -8   13.75    1.82
   8  -6   0   17.11    1.79
  -8   6   0   17.77    1.99
   0   6  -8   21.63    2.88
   6   8   0   12.63    1.77
   8   0  -6   16.27    1.81
  -8   0  -6   11.81    1.92
  -8   0  -6   19.07    2.50
  -8   0   6   14.71    1.58
  -6   8   0   13.23    1.99
  -6   8   0   13.91    1.73
   0   8  -6   16.84    2.31
   0   8   6   12.33    2.13
   0   8  -6   11.07    2.04
   0   6  -8   19.48    2.94
   0  -8   6   13.89    1.49
  -8   1   6   22.50    2.37
  -1   8  -6   27.25    3.21
  -6   1  -8   26.44    3.37
   8  -6  -1   26.81    2.24
  -8   6  -1   30.05    2.74
  -8  -1  -6   23.66    2.63
  -8   6  -1   24.23    4.74
   8   1  -6   24.28    2.63
  -6  -1   8   27.35    2.88
  -6   1  -8   23.19    2.73
  -6   8   1   25.89    2.46
   8   6   1   22.61    2.32
  -8  -1  -6   31.92    3.05
   1   8   6   30.26    2.91
   6  -1  -8   21.99    2.51
   8  -6  -1   23.45    2.46
  -1  -8   6   25.01    2.18
  -1   8  -6   22.25    3.02
   6   8  -1   27.10    2.57
   1   6  -8   25.09    4.39
  -6   8   1   26.31    2.78
   6   1  -8   24.32    2.61
  -1   6  -8   26.55    3.28
   8  -6   1   26.28    2.44
   1   8  -6   26.74    2.92
  -8  -1   6   23.85    2.24
  -8   1  -6   20.32    2.68
  -8   1  -6   27.43    3.23
   8  -1  -6   23.36    2.48
  -6   8  -1   24.76    2.78
  -6   8  -1   23.97    2.57
  -1   8   6   22.95    2.81
  -1  -6   8   26.85    2.37
   6   8   1   26.07    2.53
  -8   6   1   25.83    2.70
  -8   6   1   22.17    3.66
  -6  -1  -8   29.02    2.79
  -6   2  -8   20.00    2.40
  -6   2  -8   19.23    3.14
   8   2  -6   20.38    2.38
  -8  -2  -6   23.99    2.34
  -2   8  -6   16.28    2.66
  -8   6  -2   20.47    2.36
   2   6  -8   18.83    2.61
  -8   2   6   19.11    2.12
   6  -2  -8   18.92    2.16
   8  -6  -2   19.98    1.85
  -6   8   2   20.58    2.44
   8  -6  -2   19.26    2.13
  -8   6  -2   19.60    3.07
   8   6   2   19.66    2.30
  -2   8  -6   21.16    3.23
  -6  -2   8   20.35    2.26
   6   8   2   24.22    2.35
  -8  -2   6   19.58    1.76
  -8   2  -6   17.55    2.93
  -2   6  -8   22.76    2.71
  -2   6  -8   17.36    3.42
  -8   6   2   21.54    2.37
   8  -6   2   22.16    2.02
  -6   8  -2   20.28    2.28
  -2  -6   8   19.17    1.91
  -6   8  -2   17.99    2.41
   6   2  -8   19.34    2.34
  -8   2  -6   18.45    2.36
  -2   8   6   22.13    2.60
   2   8  -6   18.07    2.47
   8  -2  -6   18.65    2.08
   6   8   2   15.10    2.34
  -8   6   2   18.78    2.26
  -6   3  -8    0.32    0.89
  -8   6  -3    0.71    1.27
   6  -3  -8    1.12    0.69
  -3   8  -6    2.27    1.09
   8  -6  -3    0.57    0.47
  -8   3   6    0.92    0.70
   8   6   3    0.07    1.14
  -3  -6  -8    1.76    0.59
  -6   8   3    1.17    0.95
  -8  -3  -6    0.65    0.72
   8  -6  -3    0.57    0.78
  -8  -3  -6    1.69    0.88
   8   3  -6    0.44    0.86
  -6   3  -8    1.19    1.56
   3   6  -8    0.29    0.98
  -8   6  -3    1.72    0.89
  -3   8  -6    1.21    1.49
   3   8  -6    0.75    0.94
  -8  -3   6    0.85    0.33
   6   3  -8    1.55    0.96
  -3   6  -8    1.43    1.82
   6   8   3    0.49    1.20
   8  -3  -6    1.23    0.64
  -6  -3  -8    0.88    0.87
  -8   3  -6    0.25    1.29
   8  -6   3    1.27    0.62
  -6   8  -3    0.70    0.92
   3  -6  -8    2.08    0.77
  -8   6   3    1.01    0.85
  -8   3  -6    1.21    0.93
  -3   6  -8    0.27    1.17
   3  -6  -8    1.17    0.80
  -6   8  -3    1.25    0.89
   4   6  -8   44.29    4.56
  -4   8  -6   41.41    5.10
  -8   6  -4   36.74    4.75
   6  -4  -8   48.42    4.21
   8   6   4   50.78    4.87
  -6   4  -8   40.87    4.49
  -8   4   6   49.39    4.32
   8  -6  -4   46.80    3.96
  -8   6  -4   46.40    4.51
  -6   4  -8   35.36    5.17
  -6   8   4   53.12    4.66
   8   4  -6   50.73    4.58
  -4   8  -6   47.89    4.61
  -6   8  -4   49.65    4.64
  -8   6   4   52.30    4.43
  -4   6  -8   43.77    4.66
   4  -6  -8   54.60    4.30
   8  -4  -6   46.68    4.12
   4   8  -6   45.31    4.54
  -8   4  -6   44.36    4.48
  -6   8  -4   45.17    4.51
   6   4  -8   50.89    4.63
  -8   6  -5   21.36    2.71
  -6   8   5   19.37    2.75
   6   8  -5   17.91    2.82
  -6   5  -8   18.79    2.78
  -8   5   6   17.83    2.42
   6  -5  -8   17.64    2.30
  -5   8  -6   15.01    2.80
   8  -6  -5   21.77    1.99
  -5   8  -6   14.97    2.85
   5   6  -8   20.59    2.79
   8   5  -6   20.58    2.77
  -6   8  -5   15.83    2.87
   6   5  -8   19.75    2.82
   5  -6  -8   21.72    2.29
  -5   6  -8   13.24    3.26
  -8   5  -6   20.56    2.67
   5   8  -6   18.01    2.72
  -6   8  -5   16.73    2.83
  -5   8   6   15.94    2.58
   8  -5  -6   20.22    2.13
  -8   6   5   18.55    2.45
  -5   6  -8   19.06    2.92
   6  -6  -8   58.36    4.75
   8   6  -6   55.74    5.36
   6   6  -8   50.69    5.30
   6   8  -6   46.39    5.25
  -8   6   6   58.17    5.06
   8  -6  -6   56.23    4.61
  -6   8  -6   48.82    5.36
  -6   8  -6   49.42    5.51
  -6   8   6   50.24    5.12
  -8   6  -6   56.11    5.30
  -6   6  -8   50.22    5.36
   0   8  -7    5.46    1.68
   0   8  -7    7.99    1.77
   7   0  -8    5.01    1.07
   8  -7   0    6.10    0.76
   0   7  -8    3.61    1.63
  -8   7   0    5.09    1.24
  -7   0  -8    4.73    1.20
  -7   0  -8    6.86    1.64
   0   7  -8    5.26    1.74
  -7   8   0    8.45    1.47
   8   0  -7    5.22    1.14
   0  -7   8    9.30    1.32
  -8   0  -7    7.09    1.59
  -8   0   7    5.73    0.94
  -8   0  -7    5.87    1.29
  -7   8   0    6.55    1.18
  -7   1  -8    1.83    1.44
   1   7  -8    0.67    1.27
  -8  -1  -7    1.77    1.04
  -1   8  -7    1.41    1.54
  -7   8   1    0.89    1.02
  -1   8  -7    0.01    1.40
   7  -1  -8    1.16    0.76
  -7  -1   8    1.17    1.24
  -7   8   1    1.32    0.75
  -7   1  -8    1.25    0.92
  -8   7  -1    2.59    1.03
   8   1  -7    1.89    0.90
  -8   1   7    0.96    0.68
   8  -7  -1    1.38    0.41
  -8  -1  -7    1.35    0.93
  -7   8  -1    0.98    0.98
  -1   7  -8    1.68    1.65
   8  -1  -7    0.96    0.71
  -1   7  -8   -0.23    1.45
   7   1  -8    1.86    0.94
  -7  -1  -8    0.69    1.08
   1  -8   7    1.39    0.78
   1   8  -7    0.32    1.23
  -8   7   1    1.57    0.90
  -7  -1  -8    2.76    1.00
  -8  -1   7    0.02    0.49
  -8   1  -7    0.46    0.93
  -8   1  -7    1.42    1.41
  -7   8  -1    0.91    0.88
   8  -7   1    1.50    0.39
   1   8  -7    1.24    1.24
  -2   8  -7   12.48    2.11
  -7   2  -8   14.59    2.89
   8  -7  -2   10.74    1.22
  -7   8   2   12.80    2.02
  -7   2  -8   11.05    2.02
  -8   2   7   13.38    1.75
   2   7  -8    9.94    2.03
   8   2  -7   12.21    1.91
  -2   8  -7   13.25    2.64
  -8   7  -2   11.76    2.08
   7  -2  -8   12.73    1.70
  -7  -2   8   14.09    1.45
  -7   8  -2   10.81    1.83
  -8   2  -7   12.56    2.03
  -2   7  -8    9.48    2.11
   2   8  -7   16.04    2.44
  -8   7   2   10.10    1.89
  -8   2  -7   10.74    2.20
   7   2  -8   15.29    2.07
   8  -7   2   10.39    1.17
  -2   7  -8   12.44    2.80
   8  -2  -7   13.48    1.71
  -8  -2   7   12.98    1.30
  -7   8  -2    9.60    1.95
  -3   8  -7    6.19    1.63
  -8   7  -3    6.38    1.41
  -7  -3   8    3.83    0.66
   7  -3  -8    3.27    0.97
  -7   3  -8    4.69    1.37
  -7   3  -8    4.40    1.83
   3   7  -8    3.37    1.40
  -3   8  -7    4.46    2.15
  -8  -3  -7    6.57    1.27
  -8   7  -3    6.93    2.61
  -7   8   3    6.23    1.39
  -8   3   7    2.97    1.02
   8   3  -7    4.31    1.32
   8  -7  -3    5.16    0.98
  -3   7  -8    7.13    2.47
   7   3  -8    3.32    1.28
  -8  -3   7    4.10    0.71
  -7   8  -3    3.35    1.34
  -8   3  -7    4.84    1.33
  -7   8  -3    6.55    1.41
  -7  -3  -8    6.24    1.28
  -3   7  -8    2.36    1.53
  -8   7   3    6.34    1.33
   8  -3  -7    3.32    0.97
   3   8  -7    6.06    1.67
  -8   3  -7    2.46    1.70
  -4   8  -7    1.25    1.92
  -4   8  -7    2.15    1.33
  -7   4  -8    1.76    1.73
  -7   8   4    1.35    1.14
   7  -4  -8    0.25    0.79
  -7   4  -8    1.16    1.24
   4   7  -8    0.29    1.26
   8   4  -7    0.95    1.10
  -8   7  -4    0.17    1.16
  -8  -4  -7    1.43    0.81
  -8   4   7    0.59    0.89
  -8   7  -4   -0.81    1.82
  -4   7  -8    0.75    1.42
  -7  -4  -8    2.55    0.95
  -8   7   4    0.91    1.05
  -7   8  -4    0.22    1.10
  -8   4  -7    0.70    1.22
   4   8  -7    1.15    1.35
  -4   7  -8    2.41    2.22
   7   4  -8   -0.48    1.16
  -8   4  -7    0.84    1.69
   8  -4  -7    0.85    0.74
  -7   8  -4   -0.44    1.20
  -8   5   7    5.98    1.41
  -7   5  -8    6.41    1.86
   5   7  -8    8.36    1.86
  -8   7  -5    6.11    1.73
   8   5  -7    5.00    1.56
  -5   8  -7    4.82    2.30
  -8   7  -5    4.87    1.73
   7  -5  -8    8.54    1.65
  -7   5  -8    5.48    2.30
  -5   8  -7    5.17    1.91
  -7   8   5    4.25    1.52
  -7   8  -5    4.40    1.71
  -8   5  -7    5.08    1.70
   7   5  -8    5.85    1.78
  -5   7  -8    6.16    1.89
  -5   7  -8    1.58    2.31
  -7   8  -5    4.44    1.66
  -7   5   8    4.97    1.37
  -8   5  -7    2.49    1.85
  -8   7   5    7.09    1.50
   5   8  -7    6.87    1.86
   8  -5  -7    6.87    1.19
   8   6  -7   17.02    3.19
  -6   8  -7   17.77    2.96
   7   8  -6   21.36    3.65
  -8   7  -6   18.58    3.33
  -8   7  -6   14.46    2.94
  -7   6  -8   22.45    3.46
   6   7  -8   20.48    3.42
  -6   8  -7   18.51    3.97
  -8   6   7   24.49    2.95
   7  -6  -8   25.05    2.62
  -8   6  -7   14.89    3.18
  -6   7  -8   20.20    3.09
  -8   7   6   22.01    2.93
  -6   7  -8   15.78    3.56
  -7   8  -6   21.99    3.57
  -7   6   8   18.16    2.76
   8  -6  -7   24.24    2.47
  -8   6  -7   23.11    3.52
  -6   8   7   14.92    2.87
   6   8  -7   18.80    3.50
  -7   8  -6   18.89    2.97
   7   6  -8   23.21    3.51
   8   7  -6   20.87    3.52
  -8   7  -7   -3.03    1.94
  -8   7  -7   -0.19    2.06
  -8   7   7   -0.56    1.38
  -7   7  -8    2.46    2.08
  -7   7  -8    0.11    2.32
  -7   7   8    0.14    1.35
  -7   8  -7   -3.44    1.93
  -7   8  -7    2.63    2.16
  -7   8   7   -0.06    1.41
   7   7  -8    1.07    1.97
   7   8  -7    1.55    1.99
   8   7  -7    0.18    1.80
  -8   0  -8  254.28   20.85
  -8   0   8  239.23   20.50
  -8   8   0  284.68   20.96
  -8   8   0  257.24   20.74
   0   8  -8  279.95   21.37
   8   0  -8  248.10   20.75
  -8  -1  -8    0.21    0.95
  -8  -1  -8   -0.24    1.13
  -8  -1   8    0.10    0.60
  -8   1  -8   -0.50    0.91
  -8   1  -8   -0.65    1.26
  -8   1   8    0.16    0.79
  -8   8  -1    0.96    1.08
  -8   8  -1   -0.31    0.96
  -8   8   1   -1.14    0.95
  -8   8   1   -0.71    0.83
  -1   8  -8   -1.44    1.68
  -1   8  -8    0.83    1.93
   1   8  -8    1.05    1.56
   8  -1  -8    0.32    0.83
   8   1  -8   -0.36    0.83
  -8  -2  -8   64.52    5.18
  -8  -2   8   54.68    4.57
  -8   2  -8   60.02    5.28
  -8   2   8   55.70    4.97
  -8   8  -2   47.58    5.24
  -8   8   2   50.09    5.18
  -2   8  -8   46.83    5.73
  -2   8  -8   52.06    6.27
   2   8  -8   55.62    5.74
   8  -2  -8   59.87    4.99
   8   2  -8   58.03    5.24
  -8  -3  -8    2.11    1.16
  -8   3  -8    0.52    1.18
  -8   3  -8    0.58    1.81
  -8   3   8    0.86    0.98
  -8   8  -3    0.23    1.22
  -8   8  -3    0.71    1.24
  -8   8   3    0.63    1.24
  -3   8  -8    1.38    1.78
  -3   8  -8    0.64    2.29
   3   8  -8    0.18    1.52
   8  -3  -8    0.70    0.82
   8   3  -8    1.23    1.29
  -8   4  -8  216.27   17.84
  -8   4   8  218.90   17.58
  -8   8  -4  223.18   17.87
  -8   8  -4  217.20   17.79
  -4   8  -8  198.95   17.95
  -4   8  -8  187.69   18.38
   4   8  -8  222.73   17.94
   8  -4  -8  246.12   17.50
   8   4  -8  223.29   17.89
  -8  -5  -8    0.25    1.07
  -8   5  -8    1.81    1.73
  -8   5  -8    2.01    2.34
  -8   5   8    0.03    1.28
  -8   8  -5   -0.49    1.63
  -8   8  -5    0.87    1.48
  -8   8   5    1.52    1.78
  -5   8  -8    0.30    1.80
  -5   8  -8   -2.17    2.15
   5   8  -8    0.33    1.79
   8  -5  -8    0.01    1.02
   8   5  -8    0.09    1.50
  -9   0   0    1.43    0.49
  -9   0   0    1.62    2.24
   0   0  -9    0.37    1.03
   0   9   0    1.71    0.80
   9   0   0    0.63    0.64
  -9   0  -1    2.60    0.61
  -9   0   1    1.78    0.51
  -1   9   0    2.36    0.88
   0  -1  -9    1.38    0.89
   0   1  -9    0.57    0.98
   1   9   0    2.87    0.84
   9   0   1    1.51    0.66
   0   9  -1    2.48    0.77
   0   9   1    2.26    0.97
   9   1   0    1.08    0.71
  -9   1   0    3.69    2.50
  -9  -1   0    1.74    1.14
  -9   1   0    0.98    0.51
  -9  -1   0    0.88    0.48
  -9   1  -1    0.61    0.51
  -9   1   1   -0.01    0.39
  -9   1   1    1.24    1.72
  -1  -1  -9    0.57    0.97
  -9   1  -1    1.97    1.97
  -9  -1  -1    0.47    0.93
  -9  -1   1    0.16    0.40
  -9  -1  -1    0.13    0.47
   1  -1  -9   -0.04    0.68
   1   1  -9    0.21    0.71
   1   9  -1    0.23    0.57
   1   9   1    0.05    0.85
   9   1   1    0.49    0.60
   1   9   1    0.35    0.31
  -1   9   1   -0.02    0.74
  -1   1  -9    0.19    0.86
  -1   9  -1    0.44    0.70
  -1   9  -1   -0.08    0.41
   2   9   0   71.88    5.55
  -9   0  -2   62.01    5.46
  -9   0   2   68.69    5.35
  -2   9   0   69.47    5.73
  -2   9   0   63.50    5.22
   0  -2  -9   65.80    5.85
   9   2   0   62.74    5.47
   0   9   2   69.73    5.29
   2   0  -9   60.92    5.70
  -9  -2   0   64.88    5.38
  -9   2   0   67.79    5.45
  -2   0  -9   60.05    6.02
   0   9  -2   66.28    5.49
   0   9   2   57.62    5.81
   2   9   0   70.05    5.21
   1   9   2    9.63    1.68
   2   9  -1   11.41    1.34
  -2   9   1   12.00    1.87
   9   2   1   11.66    1.50
   2  -1  -9    8.39    1.84
  -9   2  -1   11.15    1.37
  -9   2  -1   15.95    3.59
  -9  -2   1    9.80    1.20
  -9   1   2   11.78    1.27
   1   2  -9    9.03    1.69
  -2   1  -9    8.67    1.94
  -1   9  -2   13.69    1.61
  -1   9  -2   12.63    1.43
  -9  -1  -2    9.33    1.42
  -9  -1  -2    8.39    2.06
  -1  -2  -9   10.89    1.86
  -2   9   1   12.41    1.04
  -9  -2  -1   11.63    1.71
  -9   1  -2    7.42    1.33
  -9   2   1   10.39    1.28
  -9  -2  -1   10.61    1.34
   1  -2  -9    9.06    1.68
  -2  -1  -9    8.90    2.10
  -1   9   2   11.15    1.92
   2   9   1   11.89    1.89
   2   9   1   11.49    1.06
   2   1  -9   10.64    1.68
  -9   1  -2   10.22    2.75
  -2   9  -1   11.23    1.71
  -1   2  -9    7.06    1.63
  -9  -1   2   11.52    1.19
  -1   9   2    9.84    1.14
   1   9  -2   10.67    1.40
  -2   9  -1   12.53    1.19
   1   9  -2   10.68    1.22
  -9   2  -2   -0.21    2.40
  -9   2  -2    0.43    0.60
  -9  -2  -2   -0.02    0.54
  -9  -2  -2    0.45    0.81
  -9  -2   2    0.04    0.36
   2   9   2   -0.19    0.58
   9   2   2   -0.11    0.88
  -2   9  -2    1.83    0.79
   2   2  -9    0.35    0.71
   2   9  -2    0.02    0.54
   2  -2  -9    0.42    1.10
  -2   9  -2    0.05    0.63
  -2   9   2   -0.01    0.87
  -2   2  -9   -0.16    1.17
  -9   2   2   -0.22    0.42
  -2  -2  -9    0.84    1.46
  -2  -2   9    1.47    0.91
  -9   3   0   22.05    4.07
   0   9  -3   15.83    1.88
   9   3   0   15.55    1.80
  -3   0  -9   15.75    2.46
   3   0  -9   16.59    1.97
  -9   0  -3   16.17    1.83
   0   9  -3   14.85    1.66
   0   9   3   15.57    1.63
  -3   9   0   14.21    2.09
  -3   9   0   14.37    1.45
   0  -3  -9   16.61    2.17
   0   3  -9   15.68    2.34
   3   9   0   14.74    1.70
   3   9   0   15.23    1.46
  -9  -3   0   15.37    1.65
  -9   3   0   16.41    1.74
  -9   0   3   18.62    1.59
  -9   0  -3   13.87    2.66
   1   3  -9    1.20    0.85
   3   9  -1    0.92    0.40
   9   3   1    2.80    0.78
  -1   9  -3    1.11    0.71
  -1   9  -3    1.33    0.76
  -3   9   1    1.05    0.41
  -1  -3  -9    2.70    1.08
  -3  -1   9    4.55    1.21
  -3   1  -9    2.30    1.28
   3  -1  -9    2.44    0.84
  -9   1   3    2.19    0.57
  -9   3  -1    2.34    0.68
  -9   3  -1    1.14    2.34
  -9  -3   1    1.48    0.50
   3   9  -1    0.54    0.65
   3   9  -1    1.33    0.81
  -9  -1  -3    2.14    0.72
  -9  -1  -3    2.12    1.10
  -3   9   1    1.29    0.87
  -9   1  -3    3.29    0.81
  -9   1  -3    0.56    1.57
   3   1  -9    2.42    0.87
  -1   3  -9    1.96    1.28
   1  -3  -9    2.83    0.93
  -1   9   3    0.41    0.82
   1   9  -3    1.03    0.71
   1   9  -3    1.40    0.60
   3   9   1    0.96    0.88
   3   9   1    0.81    0.41
  -1   9   3    2.53    1.14
  -3   9  -1    1.30    0.47
  -9   3   1    2.47    0.70
  -9   3   1    1.83    1.62
  -3  -1  -9    2.92    1.18
  -3   9  -1    0.30    0.86
   3   9   1    0.43    0.88
  -9  -3  -1    0.95    0.59
  -9  -2  -3    2.48    0.81
   9   3   2    5.27    1.14
  -2   9  -3    3.27    0.95
  -3   9   2    3.11    1.12
  -9   2   3    3.65    0.76
   2   9   3    5.34    1.05
  -3  -2   9    7.37    1.19
  -9  -3   2    3.97    0.63
  -9   3  -2    3.82    1.09
  -9   3  -2    5.29    3.13
   2   3  -9    4.38    1.16
  -2  -3  -9    5.93    1.31
  -2   9  -3    3.74    1.08
  -9  -2  -3    2.83    0.92
  -3   2  -9    6.43    1.50
  -3   2  -9    2.24    1.36
  -3   9  -2    4.44    0.88
  -9  -3  -2    4.69    0.87
  -9  -3  -2    4.63    0.89
  -2   3  -9    4.45    1.22
   3   2  -9    2.74    0.93
  -9   3   2    4.95    0.86
  -3   9  -2    3.66    1.02
  -3  -2  -9    4.69    1.33
  -2   3  -9    4.51    1.50
   2  -3  -9    4.22    1.00
   2   9  -3    2.66    0.81
  -9  -2   3    4.01    0.72
  -2   9   3    2.21    1.21
   2   9  -3    3.06    0.81
   9   2   3    4.22    1.22
   3   9   2    6.30    1.09
   3   9   2    4.71    1.21
  -9   2  -3    2.38    2.10
  -3   3  -9    0.71    1.45
  -3   3  -9    0.60    0.96
  -3  -3   9    1.05    0.86
  -3  -3  -9   -0.25    0.92
  -9   3   3    0.51    0.54
   9   3   3   -0.60    1.06
  -3   9  -3    0.42    0.83
   3   3  -9    0.01    0.77
  -9  -3  -3    0.00    0.65
  -9  -3   3   -0.23    0.36
  -9   3  -3   -0.58    0.68
  -9   3  -3   -0.96    2.13
   3   9   3    0.34    1.17
  -3   9  -3   -0.36    0.82
  -3   9   3    0.21    0.98
   3  -3  -9    0.27    0.67
   3   9   3    0.16    0.82
   0  -4  -9    1.57    0.94
   0   4  -9    1.59    1.14
  -9  -4   0    2.45    0.69
   4   9   0    2.63    0.57
  -9   4   0    1.82    1.74
  -4   0  -9    0.62    1.12
   9  -4   0    2.50    1.38
  -4   9   0    1.69    0.54
  -9   4   0    1.92    0.71
   4   0  -9    0.09    0.67
  -9   0  -4    0.39    0.70
  -9   0  -4    0.84    1.18
  -4   9   0    1.71    0.93
   0   9   4    1.17    0.69
   0   9  -4    1.37    0.89
   0   9  -4    1.78    0.76
   4   9   0    1.61    0.72
  -1  -4  -9    8.16    1.64
  -4   1  -9    4.02    1.48
  -4   9   1    7.52    1.76
  -9  -1  -4    4.58    1.06
   1   4  -9    7.75    1.57
  -1   9  -4    5.37    1.15
  -9  -1  -4    5.18    1.37
   1   9   4    7.01    1.16
   9   4   1    6.60    1.07
  -9   1   4    5.38    0.88
   4  -1  -9    4.07    1.01
   1  -4   9    8.84    1.41
  -9   4  -1    7.59    1.30
  -9   4  -1    9.91    2.75
  -4   1  -9    5.56    1.20
  -1   9  -4    5.70    1.26
  -4  -1   9    6.31    1.43
  -9   4   1    8.06    1.26
   1  -4  -9    6.92    1.31
  -9   1  -4    3.34    1.80
   4   9   1    8.20    1.30
   4   9   1    6.50    1.14
  -4   9  -1    7.36    1.02
  -1   4  -9    5.22    1.58
  -4   9  -1    6.03    1.24
  -1   4  -9    7.91    1.62
   4   1  -9    4.92    1.15
   1   9  -4    5.96    1.17
   1   9  -4    6.17    1.13
   4   9   1    6.74    1.00
  -9  -1   4    4.39    0.85
  -9   1  -4    3.73    1.10
  -1   9   4    4.67    0.97
  -4  -1  -9    5.98    1.55
   4  -2  -9    1.20    0.80
  -9   4  -2    0.48    2.22
  -4   2  -9    0.58    1.31
  -2   9  -4    2.32    0.98
  -2  -4  -9    2.46    1.01
   9  -4  -2    3.26    1.60
   4   9  -2    3.50    0.71
  -4  -2   9    3.33    1.13
  -9  -4   2    2.86    0.54
  -9   4  -2    3.47    0.88
  -2   9  -4    1.43    1.13
  -9  -2  -4    1.48    0.80
  -4   9   2    3.13    1.16
   2   9   4    4.47    1.13
  -4   2  -9    1.72    0.99
  -9  -2  -4    1.19    0.71
   2  -4   9    2.69    0.82
   2   4  -9    1.90    1.02
   9   4   2    3.64    1.11
  -9   4   2    1.52    0.70
  -9   2  -4    0.97    0.72
  -4   9  -2    2.40    0.75
  -9  -2   4    1.35    0.43
   4   2  -9    0.75    0.78
  -2  -4   9    2.81    0.99
   4   9   2    3.41    0.82
   4   9   2    2.77    1.33
  -2   9   4    1.61    0.76
  -2   4  -9    3.24    1.25
  -9  -4  -2    3.81    0.83
  -4  -2  -9    2.36    1.08
  -9   2  -4    0.19    1.53
  -4   9  -2    2.92    1.06
  -2   4  -9    3.45    1.68
   9  -4   2    3.28    2.02
   2   9  -4    0.54    0.85
   2   9  -4    1.95    0.88
   2  -4  -9    2.91    0.98
  -3   9  -4   10.34    2.08
  -9  -3  -4   14.52    1.75
   9   4   3   10.76    1.81
  -4   3  -9   11.15    2.01
  -9   4  -3   11.89    1.72
  -9   4  -3    9.34    2.75
  -4   3  -9    8.02    2.24
  -3   9  -4   15.22    2.08
   9  -4  -3   10.73    1.53
  -9   3   4    9.63    1.81
   3   4  -9   10.77    1.99
   4  -3  -9   11.26    1.67
  -4   9   3   10.45    1.81
  -9  -3  -4   14.27    1.62
  -9   3  -4   11.36    1.72
  -3  -4   9   15.88    1.92
  -4   9  -3   13.44    1.78
   3  -4  -9   11.36    1.73
   4   9   3   16.87    2.14
   9  -3  -4   11.67    1.46
  -3   4  -9   12.80    2.23
   4   3  -9   10.94    1.90
  -9  -3   4   10.15    1.12
  -3   9   4   11.97    1.99
  -9   4   3   10.99    1.58
  -3   4  -9    6.19    2.13
   3   9  -4    9.94    1.81
  -4   9  -4    1.17    1.09
  -9   4  -4    0.12    1.85
  -9   4   4    0.45    0.74
  -4  -4  -9    0.15    0.80
  -4   4  -9   -0.51    0.94
  -9  -4  -4    0.42    0.55
   4   9   4    0.56    1.75
  -4   9  -4    0.02    1.00
  -4   9   4    0.30    1.14
   4  -4  -9   -0.37    0.71
   4   4  -9    0.25    1.03
   4   9  -4    0.64    0.95
   4   9   4    1.12    1.23
   9  -4  -4    0.18    0.53
  -4   4  -9    1.01    1.77
  -9   4  -4   -0.77    0.75
  -9  -4  -4    0.95    0.81
   0   9   5    2.26    0.93
  -9   5   0    0.73    1.51
  -5   0  -9    3.93    1.03
  -5   9   0    2.17    1.03
  -5   9   0    1.44    0.61
   0   5  -9    2.47    1.39
   5   9   0    1.57    0.71
  -5   0  -9    5.07    1.58
   0   9  -5    1.97    1.23
   5   0  -9    2.55    0.90
   9  -5   0    3.89    1.22
   9   0  -5    3.35    0.87
  -9   0   5    3.37    0.67
  -9   5   0    1.95    0.83
  -9   0  -5    3.18    1.01
  -9   0  -5    5.30    1.51
   0   9  -5    2.54    1.02
  -5   9   1   -0.55    0.89
   9  -5  -1    1.16    1.13
  -5   9   1    0.07    0.50
  -1  -5  -9   -0.25    0.79
   5  -1  -9    0.41    0.73
   1   9   5   -0.23    0.85
  -1   9  -5    0.19    1.01
  -5   1  -9   -0.46    1.31
  -5  -1   9    1.00    1.29
  -5   1  -9   -0.19    0.78
   1   5  -9    0.62    1.10
  -9   5  -1   -0.03    0.69
  -1   9  -5    0.66    1.13
  -9  -1  -5   -1.04    0.73
  -9   5  -1   -0.45    1.83
   9   5   1    1.14    0.71
   5   9  -1    0.07    0.58
  -9   1   5   -0.17    0.51
  -9  -1  -5    0.47    1.03
  -1  -5   9    0.53    0.88
  -9   1  -5    0.62    0.82
  -9   5   1    1.36    1.35
   1   9  -5    0.50    0.88
   9  -1  -5    0.31    0.59
  -5   9  -1   -0.16    0.93
   5   9   1   -0.24    0.61
   1  -5  -9   -0.23    0.83
  -9   5   1    0.14    0.63
   5   9   1    0.84    0.64
   5   9   1   -0.49    0.71
  -5  -1  -9    0.03    1.08
  -1   5  -9   -1.25    1.17
  -1   9   5   -0.23    0.79
   1   9  -5    0.55    1.11
   5   1  -9   -0.53    0.66
  -9   1  -5    0.36    1.42
  -9  -1   5    0.07    0.43
  -5   9  -1    0.32    0.54
  -1   5  -9    0.28    1.35
   9  -5   1   -1.06    1.01
  -9  -2  -5   25.27    2.47
   9   5   2   21.35    2.48
   9  -5  -2   22.54    2.00
  -2   9  -5   15.05    2.54
  -2   9  -5   15.09    2.86
  -5   2  -9   22.74    2.53
  -9  -2  -5   17.19    2.31
  -9   2   5   18.77    2.07
  -5   9   2   20.64    2.63
   2   5  -9   18.14    2.76
  -5   2  -9   17.15    3.01
   5  -2  -9   18.79    2.24
  -9   5  -2   18.48    3.47
  -9   5  -2   21.85    2.34
   5   2  -9   17.46    2.31
   2  -5  -9   23.85    2.43
  -9   5   2   21.25    2.27
  -5   9  -2   17.77    2.52
  -2   9   5   17.15    2.35
  -2   5  -9   26.65    4.57
  -2   5  -9   17.35    3.56
  -9  -2   5   21.80    1.78
  -9   2  -5   14.24    2.33
   9  -2  -5   19.75    2.10
   2   9  -5   18.73    2.48
  -5   9  -2   19.41    2.12
  -9   5  -3    0.92    0.84
  -9   5  -3   -0.94    1.90
   5   9  -3    0.31    0.81
  -5   3  -9    0.17    1.56
  -9  -3  -5    0.25    1.37
  -5   9   3    0.18    1.04
  -3   9  -5    0.78    1.02
   3   5  -9    0.80    1.11
   3   9   5    1.22    1.30
   5  -3  -9    0.35    0.81
  -9  -3  -5    0.35    0.68
   9  -5  -3    1.39    1.20
   9  -5  -3    0.64    0.54
   3  -5   9   -0.68    0.77
   9   5   3    1.93    1.52
  -9   3   5    0.69    0.65
  -3   9  -5    0.48    1.28
  -5   3  -9   -0.60    0.99
  -3  -5  -9    1.60    0.87
   5   9   3    0.92    1.10
   3  -5  -9    0.69    0.85
   9  -3  -5    0.50    0.58
  -9  -3   5    0.71    0.36
  -9   3  -5    0.60    0.81
   3   9  -5    0.60    1.08
  -9   3  -5    0.54    1.56
  -3   5  -9   -1.08    1.16
  -3   5  -9    0.56    1.90
   3  -5  -9    1.01    0.80
   9  -5   3    2.20    1.15
  -9   5   3   -0.27    0.68
  -5  -3  -9    0.55    0.96
  -5   9  -3    0.98    1.10
   5   3  -9    0.23    0.83
  -5   9  -3    0.57    0.79
  -5   9   4    1.59    1.23
  -5   4  -9    2.85    2.09
  -5   4  -9    2.38    1.19
  -9   4   5    2.64    0.92
   5  -4  -9    3.12    0.96
  -4   9  -5    1.58    1.27
  -9   5  -4    1.05    1.00
  -9   5  -4    2.36    1.76
  -4  -5  -9    3.34    0.96
   4   5  -9    0.36    1.10
  -4   9  -5    2.74    1.49
  -4   5  -9    2.50    2.11
   4  -5  -9    1.32    1.00
  -5   9  -4    1.85    1.16
   9  -4  -5    2.89    0.79
   4   9  -5    1.11    1.13
  -9   5   4    0.51    0.81
  -4   5  -9    2.80    1.27
  -9   4  -5    1.71    1.02
  -9  -5  -4    2.30    0.64
  -5   9  -4    2.20    1.33
  -4   9   5    1.44    1.31
  -9   4  -5    1.64    1.84
   5   4  -9    2.00    1.13
  -5   9  -5   -0.79    1.25
  -9  -5  -5    0.22    0.58
   9  -5  -5    0.10    0.65
  -9   5  -5   -0.40    1.16
  -9   5  -5    0.70    1.66
  -5   9   5    0.87    1.29
   5  -5  -9    0.40    0.90
   5   5  -9   -0.40    1.13
   5   9  -5    0.58    1.30
  -5   5  -9   -0.50    1.22
  -5  -5  -9    0.10    0.79
  -9   5   5   -0.82    0.87
  -5   5  -9   -1.00    1.99
   0   6  -9   13.43    2.86
   6   9   0   16.92    1.89
  -9   0  -6    9.61    1.80
  -6   0  -9   14.47    2.64
  -6   9   0   15.41    1.77
   0   9  -6   10.58    2.19
  -9   0  -6   18.29    2.73
  -9   0   6   11.12    1.55
  -6   9   0   14.87    2.28
  -9   6   0   18.15    2.14
  -9   6   0   17.13    2.66
   9   0  -6   11.43    1.77
   6   0  -9   10.79    1.85
   9  -6   0   15.11    1.51
  -6   0  -9   14.64    2.11
   0   9   6   13.25    2.29
   0   9  -6   12.65    2.40
  -1   9  -6    8.44    1.85
  -6   9   1    8.30    1.30
  -1  -6  -9    9.25    1.44
   1   9   6    9.45    2.04
  -9   1   6    5.64    0.99
   9  -6  -1    5.44    1.03
  -9   6  -1    5.97    1.90
  -6   9   1    5.74    1.45
   6  -1  -9    6.36    1.22
  -9  -1  -6    6.04    1.25
   1   6  -9    6.47    1.70
  -9   6  -1    6.13    1.24
  -6   1  -9    4.87    1.69
  -9  -1  -6    9.63    1.70
   9   1  -6    4.56    1.15
  -6   1  -9    4.83    1.29
  -1   9  -6    8.35    1.83
  -9   6   1    6.41    1.32
   1   9  -6    5.57    1.49
  -1   9   6    8.11    2.01
   1  -6  -9    6.93    1.27
  -9   6   1    7.24    1.66
  -9   1  -6    8.77    2.04
  -1   6  -9    6.04    2.11
   6   1  -9    5.43    1.23
   9  -1  -6    4.11    0.99
  -6   9  -1   10.44    1.65
  -6   9  -1    7.49    1.38
  -9   1  -6    4.95    1.26
  -1   6  -9    7.19    2.02
   1   9  -6    9.36    1.71
  -6  -1  -9   10.45    2.13
  -9  -1   6    6.04    1.02
  -6   2  -9   11.94    2.15
  -2   9  -6   14.24    2.55
  -9   2   6   12.90    1.78
   6  -2  -9   13.19    1.90
  -9  -2  -6   15.17    2.07
  -9   6  -2   14.72    2.10
  -6   2  -9   13.34    2.58
  -2   9  -6   12.70    2.25
   9  -6  -2   14.80    1.55
  -9   6  -2   13.52    2.53
  -9  -2  -6   17.50    2.22
   2   6  -9   14.47    2.66
  -6   9   2   15.68    2.34
   9   2  -6   13.77    2.13
  -6   9  -2   16.49    2.43
  -6   9  -2   16.27    1.95
  -2   6  -9   12.88    2.77
   9  -2  -6   12.95    1.78
   2   9  -6   14.28    2.52
  -9   2  -6   10.75    2.41
  -9   6   2   14.66    2.03
  -2   6  -9   12.31    2.36
   6   2  -9   13.31    2.08
  -6  -2  -9   18.77    2.40
  -9  -2   6   11.34    1.39
  -9   2  -6   12.41    2.17
  -6   9   3    0.87    1.17
  -9  -3  -6    1.12    0.91
  -3   9  -6    0.41    1.61
  -3   9  -6    1.80    1.30
  -9   6  -3    1.21    1.14
   6  -3  -9    0.32    0.80
  -9   3   6    1.06    0.84
   3   6  -9    0.60    1.34
  -6   3  -9    0.76    1.03
   9   3  -6    1.22    1.09
  -9   6  -3   -1.13    1.66
   9  -6  -3    0.80    0.57
  -6   3  -9    0.54    1.73
  -9  -3  -6    1.21    0.97
  -3  -6  -9    0.82    0.72
  -3   6  -9   -0.64    1.28
  -6   9  -3    1.11    1.20
  -3   6  -9    1.08    2.23
  -6  -3  -9    0.55    1.06
   6   3  -9    0.70    1.15
   3   9  -6    0.66    1.26
   9  -3  -6    0.85    0.69
  -9   3  -6    0.56    0.97
  -6   9  -3    1.06    0.90
   3  -6  -9    0.34    0.92
  -9   3  -6    1.67    1.65
  -9   6   3    0.53    0.93
  -4   9  -6   -0.34    1.41
  -9   4   6    1.21    0.99
   4   6  -9   -0.89    1.28
  -6   9   4    2.45    1.43
   9  -6  -4    0.85    0.63
   6  -4  -9    0.49    0.86
   9   4  -6    0.59    1.08
  -4   9  -6   -1.14    1.61
  -9   6  -4    1.73    1.63
  -6   4  -9    0.70    1.12
  -6   4  -9    1.22    1.97
  -4  -6  -9    1.24    0.82
  -9  -4  -6    1.05    0.83
  -9   6  -4    0.48    1.14
   4  -6  -9    1.04    1.06
  -6   9  -4    2.69    1.50
  -6  -4  -9    0.87    0.96
  -4   9   6    0.92    1.17
   6   4  -9    0.89    1.25
  -9   6   4    0.33    0.99
   9  -4  -6    1.02    0.76
  -4   6  -9    0.98    1.38
  -4   6  -9    1.43    2.23
  -9   4  -6    0.72    1.68
  -9   4  -6   -0.12    1.27
  -6   9  -4    1.09    1.07
  -6   5  -9    7.44    2.78
  -9   6  -5    5.15    1.72
  -6   5  -9    5.53    1.63
  -5   9  -6    6.83    1.97
   9   5  -6    6.90    1.68
  -9   5   6    7.01    1.49
  -9   6  -5    4.68    2.10
  -6   9   5    5.33    1.71
  -5   9  -6    8.04    2.01
   5   6  -9    5.37    1.75
   6  -5  -9    7.77    1.42
   9  -6  -5    5.22    1.07
   6   9  -5    4.92    1.97
  -5   9   6    4.38    1.51
  -5   6  -9    4.28    1.78
  -9   6   5    6.28    1.43
  -5   6  -9    0.72    2.54
   6   5  -9    6.49    1.95
   5  -6  -9    6.99    1.46
  -9   5  -6    6.08    1.72
   5   9  -6    6.27    1.87
  -6   9  -5    4.21    1.79
  -6   9  -5    6.65    1.64
  -9   5  -6    2.49    1.95
   9  -5  -6    5.95    1.13
  -6   6  -9    2.16    2.77
   6  -6  -9   -1.09    1.29
   9   6  -6    0.60    1.50
   6   9  -6   -0.86    1.68
  -6   9  -6    0.71    1.60
  -6   9   6    0.53    1.40
   9  -6  -6    0.29    0.94
  -9   6   6   -0.58    1.24
  -6   6  -9   -0.14    1.69
  -6   9  -6    1.73    1.88
   6   6  -9   -0.98    1.58
  -9   6  -6    1.74    1.62
  -9   6  -6    0.58    1.88
   9   0  -7    7.63    1.62
  -9   7   0    7.42    2.25
   0   7  -9    5.94    2.20
  -7   0  -9    9.54    2.09
  -9   0  -7    9.82    2.01
  -9   7   0    6.40    1.50
  -7   9   0    8.37    1.70
   7   0  -9    5.72    1.29
   0   9  -7    9.79    2.17
  -9   0   7    6.23    1.06
  -7   0  -9    5.67    1.40
  -9   0  -7    7.57    1.52
   0   9  -7    7.90    2.02
   7  -1  -9    0.65    0.83
  -9  -1  -7    4.29    1.51
  -7   1  -9    1.01    0.95
  -7   1  -9    0.89    1.41
  -1   9  -7    1.57    1.86
  -9   1   7    0.46    0.75
  -9   7  -1   -0.46    1.91
  -7   9   1   -0.22    1.06
  -1   9  -7    1.01    2.96
  -9   7  -1    0.57    1.07
  -9  -1  -7    1.36    1.02
   1   7  -9   -2.28    1.48
   9   1  -7    1.14    0.81
  -7   9   1    0.03    1.09
  -9   1  -7    1.13    1.14
  -7  -1  -9    1.97    1.33
   7   1  -9    0.72    0.97
  -1   7  -9   -0.64    1.99
  -7  -1  -9    0.98    0.98
   1   9  -7    2.43    1.42
   9  -1  -7    0.74    0.83
  -7   9  -1    1.93    1.34
  -9   7   1    0.20    1.07
  -9   7   1    1.13    1.57
  -9   1  -7    1.99    1.59
   1   9  -7    0.80    2.01
  -7   9  -1    0.40    1.29
  -9  -1   7    1.00    0.61
  -1   7  -9    1.04    3.29
  -9   7  -2    6.05    1.37
  -7   9   2    5.77    1.55
  -7   2  -9    2.42    1.24
  -7   2  -9    3.69    1.82
  -9   2   7    4.26    1.06
  -2   9  -7    3.32    2.16
   2   7  -9    5.29    1.96
   7  -2  -9    3.52    1.09
  -9  -2  -7    4.55    1.25
   9   2  -7    3.20    1.15
  -2   9  -7    4.20    2.28
  -9  -2  -7    5.73    1.48
  -9   7  -2    5.57    2.39
   7   2  -9    3.13    1.29
  -7  -2  -9    5.68    1.50
  -2   7  -9    5.13    2.61
  -9   7   2    3.24    1.20
  -7   9  -2    6.16    1.38
   9  -2  -7    2.99    0.95
  -9  -2   7    3.62    0.84
  -7   9  -2    5.15    1.56
   2   9  -7    4.71    1.92
  -9   2  -7    2.97    1.19
  -9   2  -7    4.70    1.90
  -2   7  -9    3.17    1.86
  -9   7  -3    3.87    1.45
   7  -3  -9    4.45    1.19
  -7   3  -9    5.71    1.59
  -3   9  -7    4.64    2.29
  -9   7  -3    5.54    2.03
  -9   3   7    4.86    1.21
  -3   9  -7    2.58    1.83
   9   3  -7    5.06    1.42
  -7   9   3    3.77    1.56
   3   7  -9    5.45    1.92
  -7   3  -9    6.88    2.34
  -3   7  -9    6.30    2.76
  -9   3  -7    3.42    1.33
   7   3  -9    5.84    1.60
  -3   7  -9    5.74    1.99
  -7   9  -3    3.73    1.23
  -9   3  -7    3.09    1.86
   9  -3  -7    4.66    1.10
  -7   9  -3    3.03    1.59
   3   9  -7    3.01    1.71
  -9   7   3    4.64    1.36
  -7   4  -9    1.52    1.47
   7  -4  -9    2.11    1.12
  -4   9  -7    3.38    1.75
   4   7  -9    1.68    1.62
   9   4  -7    1.43    1.33
  -9   4   7    1.47    1.14
  -9  -4  -7    4.02    1.16
  -9   7  -4    1.31    1.66
  -7   4  -9    3.32    2.15
  -7   9   4    1.42    1.47
  -9   7  -4    0.71    1.49
  -4   9  -7    1.15    2.01
   9  -4  -7    1.07    0.92
   7   4  -9    2.56    1.44
  -7   9  -4    2.09    1.29
  -7  -4  -9    3.40    1.27
  -7   9  -4    3.58    1.69
  -4   7  -9   -0.12    2.41
  -4   7  -9    2.70    1.84
  -9   4  -7    2.49    1.57
   4   9  -7    2.41    1.79
  -9   7   4   -1.36    1.21
  -9   4  -7    0.14    1.86
  -9   5   7   -0.05    1.20
   7   9  -5    0.34    1.99
   5   7  -9    0.30    1.64
  -5   9  -7   -3.27    1.83
  -5   9  -7   -1.04    1.97
   9   5  -7    0.94    1.40
  -9  -5  -7   -0.42    0.95
  -7   9   5    0.97    1.45
  -9   7  -5    0.89    1.80
  -7   5  -9   -1.24    1.50
  -9   7  -5    0.98    1.64
  -7   5  -9    0.98    2.49
   7  -5  -9   -1.48    1.03
  -7  -5  -9    0.19    1.13
  -9   5  -7    0.15    2.22
  -5   7  -9   -2.42    2.64
  -5   9   7    0.09    1.28
  -9   5  -7   -0.73    1.58
  -9   7   5    0.09    1.37
   5   9  -7    1.01    1.86
   9  -5  -7    0.06    0.96
   7   5  -9    1.23    1.59
  -7   9  -5   -0.07    1.42
  -5   7  -9   -0.77    1.92
  -7   9  -5   -0.69    1.78
  -8   0  -9   13.78    2.40
  -9   0  -8   15.13    2.95
  -9   0   8   10.28    1.74
   0   8  -9   20.29    4.12
   9   0  -8    9.53    2.02
   0   9  -8   15.80    2.61
   8   0  -9    9.53    2.10
  -8   0   9   12.79    1.95
  -8   0  -9   13.18    2.76
  -9   0  -8   11.24    1.94
  -9   8  -1    0.13    1.33
  -9   8  -1   -0.16    1.29
   9   1  -8   -0.62    1.05
  -9  -1  -8    0.50    1.15
   1   8  -9   -0.52    1.92
   8  -1  -9   -0.51    0.89
  -1   9  -8    2.90    2.27
  -9   1   8   -0.85    0.86
  -8   1  -9    0.98    1.25
  -8   1  -9   -0.93    1.56
  -9  -1  -8    0.88    1.50
  -8   9   1   -0.40    1.20
  -8   9   1    1.62    1.02
  -8  -1   9    0.28    0.86
  -1   9  -8    0.16    2.47
  -9   8   1    0.43    1.17
  -8  -1  -9    0.30    1.38
   1   9  -8   -1.47    1.78
  -8  -1  -9    0.40    1.15
  -8   1   9   -0.20    0.96
  -9   1  -8   -0.68    1.55
   8   1  -9   -1.49    1.00
  -9   1  -8    0.85    1.23
  -1   8  -9    1.23    2.50
   9  -1  -8    0.70    0.97
  -9  -1   8    0.55    0.75
  -8   9  -1    1.43    1.16
  -1   8  -9   -0.67    2.22
  -8   9  -1    1.86    1.44
  -9   8   1    2.62    1.20
  -8   9   2    8.11    1.81
  -9   2   8   11.92    1.74
  -2   9  -8   12.89    3.11
   9   2  -8   13.38    2.41
  -9   8  -2   11.76    2.22
   2   8  -9   12.16    2.76
  -9   8  -2   10.26    1.94
  -8   2  -9   18.57    3.49
   8  -2  -9    9.11    1.75
  -2   9  -8   13.20    2.91
  -9  -2  -8   14.51    2.38
  -9   2  -8    9.38    1.93
   2   9  -8   15.57    2.84
  -8   9  -2   12.29    2.01
   9  -2  -8    9.75    1.68
  -9   2  -8   14.84    2.70
  -2   8  -9   11.00    3.40
  -8   9  -2   12.70    2.31
  -8   2   9   10.30    1.82
   8   2  -9   14.20    2.44
  -2   8  -9   10.71    2.87
  -9  -3  -8    3.96    1.38
  -8   3  -9    3.89    1.57
  -8   3  -9    3.50    2.14
  -9   3   8    1.17    1.22
  -3   9  -8    3.62    2.36
  -3   9  -8    1.28    2.54
  -8   9   3    4.05    1.76
   8  -3  -9    2.97    1.16
  -9   8  -3    1.88    1.73
   3   8  -9    2.51    2.18
  -9   8  -3    5.31    1.84
   9   3  -8    2.76    1.51
   3   9  -8    3.43    2.23
   9  -3  -8    2.66    1.10
   8   3  -9    3.95    1.64
  -8   9  -3    4.31    1.76
  -9   3  -8    3.58    1.58
  -9   3  -8    5.78    2.28
  -8   3   9    2.64    1.35
  -9   8   3    5.20    1.91
  -8  -3  -9    5.81    1.56
  -3   8  -9    4.04    2.29
  -8   9  -3    2.20    1.60
  -3   8  -9    5.07    2.88
   9   4  -8    2.54    2.01
   4   8  -9    1.48    2.00
  -9   8  -4    0.21    1.86
  -8   9   4    0.27    1.63
  -8   4  -9    2.93    1.70
   8  -4  -9    1.17    1.22
  -4   9  -8   -0.09    2.32
  -9  -4  -8   -0.12    1.28
  -9   8  -4    0.72    1.72
  -9   4   8   -0.54    1.30
  -4   9  -8   -0.09    2.31
   9  -4  -8    0.62    1.12
  -9   4  -8    3.66    1.77
  -9   8   4    1.92    1.61
  -8  -4  -9    2.12    1.33
  -4   8  -9    3.63    2.12
  -8   4   9    0.76    1.37
  -8   9  -4    2.27    1.53
  -8   9  -4    1.78    1.82
   4   9  -8   -2.29    1.92
  -4   8  -9    1.55    2.88
   8   4  -9    1.17    2.44
  -9   0  -9   17.46    2.78
  -9   0   9    8.42    1.72
  -9   9   0   16.12    2.55
  -9   9   0   12.56    2.43
   0   9  -9   11.58    3.46
 -10   0   0   34.12    3.17
 -10   0   0   46.39    4.97
   0   0 -10   31.42    3.80
   0  10   0   37.23    3.73
 -10   0  -1    5.03    0.95
 -10   0  -1    6.28    1.99
 -10   0   1    6.88    1.07
  -1  10   0    6.99    1.55
   0  -1 -10    5.75    1.48
   0   1 -10    5.81    1.54
   1  10   0    5.93    1.31
 -10   1   0    6.62    1.00
 -10   1   0    7.93    2.87
  -1   0 -10    4.37    1.54
   0  10  -1    5.92    1.23
   0  10   1    6.00    1.57
   1   0 -10    3.87    1.24
 -10  -1   0    6.92    1.13
 -10  -1  -1    4.14    1.45
 -10  -1   1    5.25    0.83
 -10   1  -1    5.50    0.99
  10   1   1    5.50    1.21
 -10   1   1    5.09    0.87
  -1  -1 -10    4.33    1.45
  -1   1 -10    5.87    1.70
  -1  10  -1    5.92    1.36
   1  10  -1    5.67    1.13
   1  10   1    4.83    1.46
 -10  -1  -1    5.98    0.96
   1  -1 -10    5.35    1.32
 -10   1  -1    7.22    2.74
  -1  10  -1    5.35    0.81
  -1  10   1    5.11    1.55
   1   1 -10    5.88    1.38
  -2  10   0   18.88    2.62
 -10  -2   0   14.49    1.92
 -10   2   0   31.72    5.47
  -2   0 -10   18.24    2.87
   0  10  -2   20.45    2.24
   0  10  -2   17.22    1.77
   0  10   2   18.84    2.82
   0  10   2   20.45    1.74
   2   0 -10   19.00    2.43
 -10   0   2   22.20    1.91
   2  10   0   17.63    2.25
   2  10   0   21.86    1.65
 -10   0  -2   18.10    2.08
 -10   0  -2   15.88    3.23
  -2  10   0   17.09    1.65
   0  -2 -10   18.53    2.63
   0   2 -10   19.48    2.80
  -2   1 -10    2.95    1.51
  -1  10  -2    2.13    1.00
  -1  10  -2    2.15    0.74
 -10   1   2    2.43    0.67
  10   2   1    1.04    0.94
   1  10   2    1.26    1.26
   2  -1 -10    3.19    1.08
   1   2 -10    0.83    0.97
 -10  -1  -2    1.96    0.78
 -10  -1  -2    2.62    1.33
 -10   2  -1    1.57    0.71
 -10   2  -1    1.66    3.09
   2  10  -1    2.32    0.50
  -2  10   1    0.95    1.14
 -10  -2   1    2.17    0.65
   2  10  -1    2.23    0.78
  -1  -2 -10    2.67    1.18
 -10   1  -2    0.47    2.26
  -1  10   2    1.93    1.23
  -2  10  -1    1.81    1.09
  -2  10  -1    3.03    0.52
 -10  -2  -1    2.80    1.05
 -10   1  -2    2.09    1.30
 -10   2   1    1.68    0.71
 -10   2   1    4.16    2.57
  -2  -1 -10    1.92    1.26
 -10  -1   2    1.96    0.60
 -10  -2  -1    1.57    0.72
   2  10   1    2.54    1.23
   2  10   1    3.60    0.71
   1  10  -2    1.68    0.82
   1  -2 -10    2.68    1.07
   2   1 -10    1.09    0.87
  -1   2 -10    2.27    1.39
   1  10  -2    1.68    0.57
 -10   2   2   75.78    6.16
 -10   2  -2   80.77    9.03
 -10  -2   2   71.62    5.91
 -10   2  -2   70.11    6.13
   2  -2 -10   79.27    6.48
   2   2 -10   67.06    6.46
   2  10  -2   81.11    6.04
  -2  10  -2   70.28    5.98
 -10  -2  -2   70.62    6.31
 -10  -2  -2   69.24    6.12
  -2   2 -10   60.33    6.91
  -2  10  -2   74.82    6.37
  -2  -2 -10   79.07    6.67
   0   3 -10   86.83    8.06
  -3  10   0   96.47    9.00
 -10   3   0   97.03    7.48
   0  10  -3   92.76    7.32
   0  10   3   82.99    7.90
 -10   0  -3   82.51    7.56
   3   0 -10   91.14    7.74
 -10  -3   0   79.29    7.33
  -3   0 -10   88.20    8.14
   3  10   0   90.43    7.34
  -3  10   0   96.79    7.20
   0  -3 -10   83.69    7.76
   0  10   3  101.81    7.36
 -10   0   3  101.37    7.31
 -10   0  -3   76.38    8.24
 -10   3  -1   31.68    6.15
 -10   3  -1   21.55    2.18
 -10  -1  -3   19.15    2.23
 -10  -1  -3   18.65    2.73
  -3  10   1   21.04    2.85
  -3   1 -10   16.40    3.13
  -1  10  -3   22.84    2.50
  -1  10  -3   20.66    2.30
   3  10  -1   17.94    1.90
  10   3   1   13.64    2.37
   1   3 -10   16.36    2.65
 -10  -3   1   18.42    1.97
  -3  10   1   23.09    1.80
  -1  -3 -10   21.06    2.60
 -10   1   3   20.07    1.98
   3  -1 -10   15.40    2.33
  -1   3 -10   19.23    3.14
  -3  -1 -10   18.69    2.88
  -3  10  -1   24.56    3.00
  -3  10  -1   18.36    1.80
 -10   3   1   22.24    2.10
 -10  -1   3   20.01    1.87
 -10   1  -3   16.03    2.18
 -10   1  -3   14.43    3.24
   3  10   1   27.32    2.95
   1  -3 -10   20.40    2.56
   3   1 -10   16.29    2.39
   1  10  -3   20.78    2.36
   1  10  -3   16.92    1.99
 -10  -3  -1   18.86    2.09
   3  10   1   17.09    2.41
  -1  10   3   20.89    2.37
 -10   3  -2    0.77    0.69
 -10  -2  -3   -0.10    0.76
 -10  -3   2    0.69    0.55
  -3   2 -10    0.51    1.53
  -2  10  -3    0.08    0.96
  -2  10  -3    0.51    0.87
  -2  -3 -10    0.57    1.01
  10   3   2    0.66    1.14
 -10  -2  -3    1.05    0.90
   2   3 -10   -0.31    0.94
  -3  10   2    1.76    1.31
   3  -2 -10   -0.03    0.80
 -10   3  -2   -0.60    3.08
 -10  -3  -2    1.04    0.73
   2  10  -3    0.98    0.80
   3   2 -10   -0.08    0.92
 -10  -3  -2    1.02    0.74
  -3  -2 -10    0.23    1.04
 -10   3   2    1.52    0.68
   2  -3 -10    1.12    0.98
 -10  -2   3    0.95    0.48
 -10   2  -3    0.19    0.74
 -10   2  -3   -0.38    2.54
  -3  10  -2    1.21    1.16
  -3  10  -2    0.96    0.64
   3  10   2    1.27    1.48
  -2  10   3   -0.02    1.23
  -2   3 -10    0.77    1.63
   2  10  -3    1.23    0.87
   3  10   2    0.07    1.10
 -10   3   3    9.35    1.55
 -10   3  -3    7.39    3.33
  -3   3 -10    9.86    1.80
  -3   3 -10    6.71    2.11
   3  10  -3    7.84    1.52
  -3  -3 -10   12.60    2.13
   3  -3 -10    9.68    1.90
   3   3 -10    8.35    1.66
 -10  -3  -3   12.20    1.59
 -10   3  -3    8.89    1.63
  -3  10  -3   10.30    1.72
  -3  10   3    7.51    1.85
 -10  -3   3   10.90    1.23
 -10  -3  -3    9.61    1.45
  -4  10   0  105.18    9.59
   0  10  -4  103.36    9.21
   0  10  -4  128.05    9.49
 -10   0  -4  109.45    9.38
 -10   0  -4  129.22   10.19
 -10   0   4  121.84    9.09
  -4  10   0  109.00    9.05
   0  -4 -10  116.89    9.55
   0   4 -10   95.79    9.81
  -4   0 -10  116.19    9.97
   4   0 -10  111.86    9.49
 -10   4   0  115.86    9.31
 -10  -4   0  113.32    9.17
  -4  10   1    3.36    1.45
  -4  10   1    4.64    0.76
 -10   1   4    4.69    0.84
 -10  -1  -4    3.41    1.06
 -10  -1  -4    4.11    1.43
  -1  10  -4    4.25    1.24
  -4   1 -10    4.24    1.63
   4  -1 -10    3.81    1.09
 -10   4  -1    5.16    1.07
 -10   4  -1    7.62    3.03
   1   4 -10    3.94    1.46
  -1  -4 -10    6.46    1.43
  -1  10  -4    2.08    1.29
 -10  -4   1    4.89    0.89
 -10   1  -4    2.95    1.82
   1  -4 -10    5.92    1.31
  -1   4 -10    4.28    1.78
  -4  10  -1    3.00    0.73
 -10   4   1    4.26    0.98
 -10   4   1    8.44    2.40
  -4  -1 -10    4.53    1.50
 -10  -4  -1    4.58    1.01
   4  10   1    2.79    0.92
  -4  10  -1    2.74    1.34
  -1  10   4    3.40    1.43
   1  10  -4    2.41    1.24
   1  10  -4    3.18    0.98
 -10   1  -4    1.55    0.94
   4   1 -10    3.58    1.16
 -10  -1   4    5.39    0.92
 -10   4  -2  176.78   12.69
 -10   4  -2  175.44   14.76
 -10  -2  -4  144.17   12.58
  -2  10  -4  143.32   12.68
  -4  10   2  162.24   12.99
  -4   2 -10  132.60   13.31
  -2  10  -4  171.20   12.82
  -4   2 -10  169.21   12.91
 -10  -2  -4  178.42   12.81
   4  -2 -10  145.85   12.69
   2   4 -10  142.22   12.95
 -10   2   4  161.84   12.46
   2  10  -4  149.39   12.59
   2  -4 -10  166.53   12.81
 -10  -2   4  160.38   12.25
 -10   2  -4  136.54   12.57
  10  -2  -4  141.24   12.50
  -4  10  -2  163.25   12.88
  -4  10  -2  148.79   12.37
   4   2 -10  135.33   12.75
 -10   4   2  170.96   12.59
  -3  10  -4   14.75    2.49
   4  -3 -10   12.66    1.98
   3   4 -10   11.02    2.08
  10  -4  -3   10.85    1.53
  -4   3 -10   11.34    2.66
  -4  10   3    8.69    1.97
 -10   3   4   12.15    1.73
  -4   3 -10   14.15    2.43
 -10   4  -3   10.27    1.68
  -3  -4 -10   14.95    2.14
  -3  10  -4    9.57    1.83
 -10   4  -3   10.74    3.38
 -10  -3  -4   13.83    1.79
   4   3 -10   10.78    2.32
 -10   3  -4    9.77    1.68
 -10  -4  -3   13.18    1.95
  -3   4 -10    8.79    2.66
   3  -4 -10   11.95    2.10
  -3  10   4    9.15    2.10
   3  10  -4   13.26    2.27
 -10   4   3    9.56    1.74
 -10   3  -4    7.78    2.81
  -4  10  -3   12.07    1.98
  -4  10  -3   11.73    1.86
 -10  -4  -3   14.53    1.60
  -3   4 -10   13.58    2.29
  10  -3  -4   10.24    1.57
 -10  -4  -4   34.35    3.32
  -4  10   4   26.83    3.90
   4  -4 -10   36.43    3.47
   4   4 -10   31.33    3.72
   4  10  -4   23.64    3.56
  10  -4  -4   31.93    3.00
  -4  10  -4   30.78    3.82
 -10   4  -4   28.63    3.33
 -10  -4  -4   37.62    3.08
 -10   4   4   31.95    3.18
  -4   4 -10   27.73    4.89
   5   0 -10    0.41    0.91
   0   5 -10    0.20    1.49
 -10   5   0    0.01    1.89
  -5   0 -10    1.09    1.43
   0  10  -5    0.92    1.45
 -10   0  -5    0.70    0.94
 -10   0   5    0.05    0.60
  -5  10   0    0.09    1.14
   0  10  -5    0.39    1.05
 -10   5   0    0.73    0.78
  10   0  -5    1.08    0.77
  -5  10   0    0.61    0.64
 -10   0  -5    0.36    1.41
  -1  10  -5    9.63    1.90
 -10   5  -1    9.35    1.49
  -5   1 -10    7.07    1.93
 -10   5  -1   10.18    2.92
  -5  10   1    8.81    1.84
   1   5 -10    5.41    1.84
 -10   1   5    5.83    1.08
 -10  -1  -5    6.82    1.41
 -10  -1  -5    8.90    1.74
  -1  10  -5    9.12    1.76
  -5   1 -10    5.69    1.39
   5  -1 -10    5.43    1.35
 -10   1  -5    6.36    1.43
 -10  -1   5    7.50    1.14
 -10   1  -5    6.58    2.08
  -1   5 -10    5.55    2.27
  -5  10  -1    9.19    1.89
  -5  10  -1    9.97    1.38
 -10   5   1    7.82    1.36
  10  -1  -5    5.81    1.20
   1  10  -5    9.89    1.67
   1  10  -5    8.50    1.57
  -5  -1 -10    7.72    1.74
   5   1 -10    5.77    1.38
 -10   5   1   12.04    2.32
   1  -5 -10    7.94    1.75
 -10  -2  -5    0.25    0.97
  -2  10  -5    0.57    1.38
 -10   5  -2   -0.63    0.92
  10  -5  -2    0.77    0.63
  -5  10   2    0.49    1.30
   2   5 -10    0.49    1.39
  -2  10  -5    0.65    1.34
 -10  -2  -5   -0.28    0.91
   5  -2 -10    1.17    0.96
  -5   2 -10    2.15    1.15
 -10   2   5    0.95    0.78
 -10   5  -2   -1.28    2.26
  -5   2 -10   -0.16    1.71
  -2  -5 -10    0.86    0.97
  -5  10  -2    1.72    1.32
 -10   5   2   -0.31    0.79
   2  10  -5    0.08    1.19
   5   2 -10    0.62    0.93
   2  -5 -10    1.19    1.01
 -10   2  -5    1.13    1.03
 -10  -2   5    0.61    0.50
  -5  10  -2    0.49    0.75
 -10   2  -5    1.41    2.02
  -2   5 -10    1.04    2.11
   5  10   2    0.48    0.93
  10  -2  -5    0.47    0.70
  -2   5 -10    2.65    1.63
  -5  -2 -10    1.71    1.25
  10  -5  -3   10.63    1.58
  -5  10   3   18.09    2.93
  -5   3 -10   10.25    2.85
 -10   5  -3   12.97    2.18
   3   5 -10   12.93    2.41
 -10   5  -3    8.00    2.90
  -3  10  -5   19.87    2.91
  -3  10  -5   14.72    2.66
 -10   3   5   11.67    1.85
  -5   3 -10   11.27    2.00
   5  -3 -10   13.25    2.10
  -3  10   5   17.46    2.51
  -5  10  -3   17.82    2.78
 -10   3  -5   13.15    2.31
   3  -5 -10   12.50    2.28
  -5  10  -3   14.11    1.92
  -3   5 -10   13.39    2.39
   5   3 -10   12.99    2.41
 -10   5   3   11.39    1.98
  -3   5 -10    7.84    2.98
 -10   3  -5    7.31    2.64
  10  -3  -5   12.97    1.73
 -10   5  -4    8.18    1.61
   4   5 -10    7.48    2.00
 -10   5  -4    4.73    2.62
  10  -5  -4   10.82    1.54
   5  10  -4    6.93    1.99
  -5  10   4    7.89    2.03
  -5   4 -10    8.37    1.82
  -5   4 -10    6.44    2.66
  -4  10  -5    7.70    1.97
   5  -4 -10   10.62    2.11
  -4  10  -5    9.08    1.95
 -10   4   5    8.95    1.52
 -10   4  -5    8.95    1.67
   4  -5 -10   12.06    2.28
 -10   4  -5    3.97    2.32
   4  10  -5    7.69    1.97
   5   4 -10    9.13    1.96
  -5  10  -4    8.68    1.64
  -4  10   5    7.93    1.93
  -4   5 -10    8.51    2.98
  -5  10  -4    9.35    2.06
  -4   5 -10    9.10    2.15
  10  -4  -5    9.38    1.59
 -10   5   4    9.91    1.60
  -5   5 -10   13.22    2.55
   5   5 -10   14.30    3.07
   5  10  -5   14.53    2.64
  10  -5  -5   16.09    2.03
  -5  10  -5   15.98    2.68
 -10   5   5   15.36    2.46
   5  -5 -10   17.27    2.63
  -5  10  -5   18.50    2.91
  -5  10   5   18.29    2.79
 -10   0   6   43.97    3.71
 -10   0  -6   39.78    4.18
 -10   6   0   47.37    4.16
   0  10  -6   41.15    4.47
  10  -6   0   38.44    3.65
 -10   0  -6   52.21    4.97
  -6  10   0   46.34    4.51
  -6  10   0   44.80    3.84
 -10   6   0   49.52    4.99
  -6   0 -10   46.44    4.80
   6   0 -10   33.89    4.02
   0   6 -10   38.34    5.13
  10   0  -6   36.21    3.97
 -10  -1  -6    6.89    1.54
  -1  10  -6    9.52    2.64
  -1  10  -6    9.60    2.02
 -10   6  -1    7.31    1.53
   1   6 -10    5.81    2.08
  -6  10   1   10.22    1.54
   6  -1 -10    6.24    1.45
 -10   1   6    7.30    1.19
  -1  -6 -10   10.82    1.77
  10  -6  -1    6.37    1.25
  10   1  -6    5.77    1.38
  -6   1 -10    4.60    1.50
 -10   6  -1    8.68    2.26
  -6  10   1    7.45    1.70
 -10  -1  -6   10.16    1.90
  -6   1 -10    6.29    2.04
  10  -1  -6    4.97    1.19
 -10   1  -6    6.58    2.09
   1  10  -6    8.67    1.87
  -6  10  -1    7.27    1.78
  -6  10  -1    8.01    1.62
  -1   6 -10    8.26    2.77
 -10   6   1    8.15    1.52
   6   1 -10    4.72    1.39
   1  -6 -10    7.81    1.47
  -6  -1 -10   11.94    2.44
 -10  -1   6    6.15    0.98
 -10   1  -6    7.63    1.58
 -10   6   1   10.67    2.07
  -6   2 -10  179.20   14.48
  -2  10  -6  173.56   14.16
  -6   2 -10  182.40   13.88
   6  -2 -10  156.80   13.60
  -6  10   2  191.88   14.06
   2   6 -10  167.92   14.21
  10   2  -6  153.94   13.69
 -10  -2  -6  181.84   13.70
  10  -6  -2  160.45   13.27
  -2  10  -6  148.43   13.88
 -10   6  -2  170.89   14.50
 -10   2   6  173.73   13.42
   6   2 -10  147.15   13.73
   2  10  -6  166.13   13.86
 -10   2  -6  143.80   14.32
  -2   6 -10  185.71   14.35
 -10   6   2  188.50   13.71
  -6  10  -2  160.73   13.44
  -6  10  -2  172.10   13.95
 -10   2  -6  156.81   13.71
  10  -2  -6  158.83   13.49
 -10   3   6   15.58    2.21
  -3  10  -6   12.67    3.77
 -10  -3  -6   20.55    2.50
 -10   6  -3   15.72    3.15
   6  -3 -10   19.24    2.43
  -6   3 -10   12.73    2.19
  -6   3 -10   15.71    3.10
  10   3  -6   14.66    2.51
   3   6 -10   13.00    2.60
  -6  10   3   20.54    3.17
   6   3 -10   12.51    2.67
 -10   3  -6   10.82    2.91
 -10   6   3   15.92    2.39
  10  -3  -6   15.90    2.09
  -6  10  -3   18.39    2.72
  -3  10   6   12.56    2.27
 -10   3  -6   14.29    2.61
  -3   6 -10   14.83    2.80
   3  10  -6   17.69    3.02
   3  -6 -10   18.39    2.61
  -6  10  -3   13.94    2.59
 -10   6  -4   30.51    4.33
  -6   4 -10   34.38    4.12
   6  -4 -10   39.41    3.75
 -10   4   6   33.85    3.50
  -6   4 -10   28.79    5.38
 -10   6  -4   21.68    4.77
  -4  10  -6   43.12    4.61
  -4  10  -6   30.26    4.18
  10  -6  -4   31.82    3.11
   4   6 -10   30.39    4.40
  -6  10   4   36.93    4.32
  10   4  -6   28.59    3.80
  -4   6 -10   36.52    4.55
  -6  10  -4   41.58    4.51
  10  -4  -6   37.59    3.32
   4  10  -6   33.91    4.43
 -10   4  -6   29.71    3.84
 -10   4  -6   22.61    4.90
  -4   6 -10   25.92    5.67
 -10   6   4   31.58    3.59
  -4  10   6   30.81    3.99
   6   4 -10   31.25    4.04
   4  -6 -10   39.41    4.03
  -6  10  -4   30.11    3.55
  -5  10  -6    6.65    2.19
  -6   5 -10   10.23    3.35
  -6   5 -10    8.91    2.18
 -10   6  -5   11.80    2.27
 -10   6  -5    6.06    2.52
 -10   5   6    6.54    1.63
  10   5  -6    6.79    1.98
   5   6 -10    5.79    2.18
  -6  10   5   12.04    2.46
  -5  10  -6    5.27    2.43
   6  -5 -10    8.07    1.74
   6  10  -5    8.70    2.56
 -10   5  -6    4.29    2.59
  -5   6 -10    4.76    3.43
  -6  10  -5    5.71    2.27
  -5  10   6    5.76    1.87
  10  -5  -6    7.55    1.37
  -6  10  -5    7.82    1.92
   6   5 -10    8.48    2.36
   5  10  -6    6.76    2.45
 -10   6   5   12.30    1.98
 -10   5  -6    6.03    2.08
  -5   6 -10    6.74    2.35
 -10   7   0    3.11    1.77
  -7   0 -10    0.41    1.69
   0  10  -7    1.21    1.80
   7   0 -10    1.94    1.16
  -7  10   0    2.16    1.60
  10   0  -7    2.80    1.14
 -10   0  -7   -0.84    1.64
 -10   0  -7    1.02    1.20
  -7  10   0    2.09    1.04
   0   7 -10    2.28    2.45
 -10   7   0    2.43    1.21
 -10  -1  -7    2.68    1.35
   1   7 -10    1.00    2.11
  -7   1 -10    4.02    1.43
 -10   1   7    1.82    0.94
  10   1  -7    1.93    1.12
  -1  10  -7    2.38    2.34
  -7   1 -10    3.51    1.88
  -7  10   1    0.55    1.51
  -7  10   1    2.43    1.05
   7  -1 -10    3.37    1.19
  -1  10  -7    2.28    1.98
 -10   7  -1    2.76    1.85
 -10  -1  -7    2.65    1.69
  -7  10  -1    2.44    1.62
 -10   1  -7    4.04    2.20
   1  10  -7    0.38    1.80
   7   1 -10    2.75    1.46
  -7  10  -1    0.60    1.08
  -1   7 -10    3.70    2.80
 -10   7   1    3.40    1.58
 -10   1  -7    2.69    1.45
 -10   7   1    3.82    1.38
  10  -1  -7    3.23    1.15
  -7  -1 -10    5.48    1.75
  -2  10  -7    6.13    2.62
  -2  10  -7    7.81    2.24
 -10   7  -2    2.99    2.11
  10   2  -7    4.01    1.38
   2   7 -10    4.06    2.21
 -10   7  -2    4.70    1.55
 -10  -2  -7    6.46    1.49
 -10  -2  -7    7.77    1.70
  -7   2 -10    8.61    2.30
  -7   2 -10    5.12    1.50
 -10   2   7    3.49    1.20
  -7  10   2    3.67    1.63
   7  -2 -10    4.46    1.34
 -10   2  -7    2.66    1.41
  -2   7 -10    6.04    2.74
  -2   7 -10    1.52    3.02
  -7  10  -2    4.54    1.34
  10  -2  -7    5.11    1.25
 -10   7   2    4.55    1.47
  -7  -2 -10    5.59    1.66
 -10   2  -7    8.03    2.50
  -7  10  -2    3.15    1.90
   2  10  -7    4.27    2.18
   7   2 -10    7.24    1.71
  10   3  -7    6.17    1.71
 -10   7  -3   12.93    2.26
 -10   7  -3    7.31    2.44
  -7  10   3    8.66    2.33
  -3  10  -7    5.80    2.34
  -7   3 -10    9.68    1.93
   3   7 -10    7.72    2.50
  -3  10  -7    6.51    2.56
 -10  -3  -7    8.28    1.70
  -7   3 -10   10.83    3.02
   7  -3 -10    5.73    1.56
 -10   3   7    7.14    1.46
  -7  10  -3    5.23    2.07
  -7  10  -3    6.98    1.63
 -10   7   3   10.47    1.97
  -7  -3 -10    9.21    1.79
  -3   7 -10    7.90    3.34
 -10   3  -7   10.18    2.09
  10  -3  -7    6.13    1.32
  -3   7 -10    9.25    2.62
   3  10  -7    7.07    2.46
 -10   3  -7    7.60    2.93
   7   3 -10    6.32    1.96
 -11   0   0    0.10    0.66
   0   0 -11    0.47    1.22
   0  11   0    2.12    1.45
 -11   0  -1    1.36    0.81
 -11   0  -1    2.12    2.19
 -11   0   1    1.72    0.69
  -1  11   0    1.53    1.44
   0  -1 -11    0.80    1.38
   0   1 -11    2.73    1.56
   1  11   0    0.78    1.25
   0  11  -1    1.42    1.27
   0  11   1    0.64    1.68
   1   0 -11    0.84    1.32
 -11   1   0    1.15    2.84
  -1   0 -11    0.46    1.53
 -11  -1   0    0.98    0.73
 -11   1   0    1.09    0.70
   1   1 -11   -0.15    1.25
   1  11  -1    0.95    1.07
  -1  -1 -11    1.75    1.34
  -1   1 -11   -0.30    1.51
   1  -1 -11    1.68    1.29
 -11  -1  -1   -0.31    0.73
 -11  -1  -1   -0.06    1.35
 -11  -1   1    0.08    0.61
  -1  11  -1   -0.54    1.35
  -1  11   1    0.08    1.86
 -11   1  -1    0.01    0.76
 -11   1  -1    0.73    2.61
 -11   1   1    1.23    0.73
   1  11   1    0.62    1.59
 -11   0  -2   43.38    5.45
  -2  11   0   50.20    4.95
   0  -2 -11   47.62    4.75
   0   2 -11   41.49    4.90
   2  11   0   38.08    4.17
   0  11   2   41.38    4.87
  -2   0 -11   50.97    5.11
   0  11  -2   44.73    4.41
   2   0 -11   50.25    4.67
 -11   0  -2   46.58    4.15
 -11   2   0   49.74    4.13
 -11  -2   0   41.84    3.99
   1  11   2    9.64    2.24
  -1  11  -2   12.05    1.94
   1   2 -11    6.76    1.78
 -11  -2   1   10.39    1.49
   2  -1 -11    9.76    1.96
   2  11  -1   15.16    1.81
 -11  -1  -2    9.36    1.55
 -11  -1  -2   13.86    2.54
  -1  -2 -11   10.12    2.02
  -2  11   1   10.52    2.33
 -11   2  -1    9.59    1.67
 -11   2  -1   21.02    5.17
  -2   1 -11   11.08    2.37
 -11   1   2   12.70    1.58
 -11   2   1   10.31    1.63
   2  11   1   10.66    1.96
 -11  -1   2   12.31    1.50
   1  11  -2   11.53    1.96
   2   1 -11   10.60    2.25
   1  -2 -11   12.73    2.45
 -11  -2  -1    9.78    1.72
 -11   1  -2   13.33    3.57
  -2  -1 -11    9.45    2.00
  -2  11  -1   11.64    3.85
 -11   1  -2    9.61    1.76
  -1  11   2   10.24    2.23
  -1   2 -11    9.23    2.17
   2  -2 -11   -1.11    1.09
   2   2 -11   -1.78    1.04
  -2  11   2    0.15    1.68
 -11  -2  -2    0.98    0.90
  -2  11  -2   -0.46    2.09
 -11   2   2   -0.38    0.70
   2  11   2   -1.07    1.37
  -2   2 -11    0.63    1.61
 -11   2  -2    0.08    0.81
  -2  -2 -11   -0.03    1.23
 -11  -2   2    0.30    0.66
 -11   2  -2    0.22    3.42
 -11  -2  -2    0.69    0.99
 -11   0  -3    5.52    2.27
   0   3 -11    7.82    2.16
 -11  -3   0    8.05    1.25
  -3   0 -11    7.60    2.02
 -11   3   0   18.34    4.64
   0  -3 -11   10.31    1.84
  -3  11   0    6.43    1.97
 -11   0  -3    5.88    1.30
   0  11   3    7.56    1.96
 -11   0   3    6.32    1.04
 -11   3   0    9.35    1.63
   3   0 -11    6.79    1.63
   0  11  -3   11.06    1.68
 -11  -1  -3    2.52    1.44
  -1  11  -3    2.31    1.41
 -11   1   3    2.04    0.74
   3  -1 -11    0.98    1.12
   1   3 -11    1.30    1.47
 -11   3  -1    1.26    0.85
 -11  -1  -3    2.58    1.05
  -3   1 -11    0.57    1.58
  -3  11   1    1.64    1.63
 -11   3  -1    2.45    3.89
  -1  -3 -11    0.63    1.14
 -11  -3   1    0.32    0.77
 -11  -3  -1    0.74    0.85
  -3  -1 -11    0.26    1.44
   3  11   1    0.88    1.12
  -1  11   3    1.69    1.67
  -1   3 -11    0.55    1.88
   1  11  -3    1.72    1.19
   1  -3 -11    0.16    1.20
   3   1 -11   -0.40    1.00
 -11   1  -3   -0.59    2.34
 -11  -1   3    1.50    0.68
 -11   3   1    0.18    0.78
  -3  11  -1    2.24    1.66
 -11   1  -3    1.35    0.92
  -2  -3 -11   17.33    2.72
 -11  -2  -3   18.01    2.35
 -11   2   3   21.99    2.19
   3  -2 -11   17.55    2.63
   2  11   3   15.43    2.43
  -3  11   2   19.43    2.97
 -11   3  -2   14.97    2.22
 -11   3  -2   28.64    5.73
  -3   2 -11   15.65    3.15
   2   3 -11   13.80    2.86
 -11   2  -3   18.30    2.36
 -11  -2   3   20.26    1.87
   3   2 -11   15.02    2.69
 -11   2  -3   17.71    4.38
 -11  -3  -2   16.35    2.23
  -2   3 -11   13.53    3.06
   2  -3 -11   19.07    2.86
  -2  11   3   17.93    2.87
   3  11   2   14.06    2.28
 -11   3   2   20.27    2.21
  -3  -2 -11   19.47    2.91
 -11  -3  -3   -1.26    1.08
 -11  -3  -3    0.58    0.84
  -3   3 -11    0.27    2.06
  -3  11  -3   -0.53    1.54
 -11   3  -3   -0.03    0.87
 -11   3  -3   -0.73    3.25
   3   3 -11   -0.53    1.21
   3  11   3   -0.73    1.41
  11  -3  -3   -0.13    0.69
   3  -3 -11   -0.90    1.18
  -3  -3 -11    0.23    1.11
  -3  11   3    0.58    1.64
 -11   3   3    0.63    0.84
 -11   0  -4    4.18    1.29
 -11   0  -4    5.78    2.17
 -11   4   0    4.72    1.16
   0  11   4    3.14    1.59
 -11   4   0    7.78    3.76
  -4   0 -11    2.82    1.68
   4   0 -11    2.95    1.28
   0  11  -4    9.18    1.80
  -4  11   0    2.87    1.75
   0  -4 -11    6.03    1.53
 -11   0   4    5.39    0.93
   0   4 -11    3.92    2.04
  -1  -4 -11   -0.12    1.10
  -4  11   1    0.29    1.56
 -11   1   4    0.25    0.74
 -11   4  -1    0.65    3.53
   1   4 -11    0.67    1.63
   4  -1 -11   -0.68    0.99
  -4   1 -11    0.38    1.61
 -11  -1  -4    0.17    1.05
 -11  -1  -4   -0.15    1.36
  -1  11  -4   -1.91    1.48
 -11   4  -1    1.82    0.93
 -11   4   1   -0.01    0.81
   4   1 -11   -0.17    1.12
   1  -4 -11    0.60    1.19
 -11   4   1    2.30    2.68
 -11  -4  -1    0.35    1.41
 -11   1  -4    0.77    0.97
  -1   4 -11    3.17    2.15
  -1  11   4    1.95    1.58
  -4  -1 -11    0.45    1.39
 -11   1  -4   -2.76    2.05
 -11  -1   4    0.04    0.60
  -4  11  -1    3.53    1.82
  -4  11   2   13.53    2.54
 -11  -2  -4   18.17    2.42
   4  -2 -11   15.33    2.40
  -2  -4 -11   12.64    2.32
 -11   2   4   14.48    1.87
  -2  11  -4   15.56    2.54
   2   4 -11   10.45    2.31
 -11  -2  -4   14.96    2.20
 -11   4  -2   10.50    4.00
  -4   2 -11   12.49    2.87
 -11   4  -2   12.30    2.11
 -11  -4  -2   16.24    2.26
 -11   2  -4   10.99    1.89
 -11   2  -4    7.09    3.13
 -11   4   2   12.33    2.08
  -4  11  -2   13.77    2.42
  11  -2  -4   11.45    1.79
   4   2 -11   12.24    2.23
  -2  11   4   12.09    2.42
   2  -4 -11    8.89    1.98
  -4  -2 -11   17.74    2.72
 -11   3   4   12.64    1.94
  -4   3 -11   10.28    2.94
  -4  11   3   12.82    2.66
  -3  11  -4   10.01    2.31
   4  -3 -11   12.19    2.37
 -11  -3  -4   13.57    1.93
   3   4 -11   10.31    2.30
 -11   4  -3   11.04    1.84
 -11   4  -3    7.40    3.71
 -11  -3  -4    9.15    1.68
  11  -4  -3   11.72    1.72
  -3  11   4    6.30    2.20
 -11  -4  -3   11.90    1.82
 -11   4   3   11.24    1.96
  -4  -3 -11   16.46    2.48
  -3   4 -11   10.95    3.07
 -11   3  -4    3.39    3.26
   3  -4 -11   14.60    2.63
  -4  11  -3    9.65    2.34
  11  -3  -4   11.86    1.77
   4   3 -11    8.01    2.00
 -11   3  -4    9.19    1.74
  -4  11  -4    3.63    1.89
 -11   4  -4    1.04    1.26
  -4   4 -11    0.17    1.65
 -11   4  -4   -0.29    3.13
  -4  11   4    0.03    1.81
   4   4 -11    0.02    1.47
  11  -4  -4   -0.33    0.75
  -4   4 -11   -3.08    2.34
 -11  -4  -4   -0.88    1.11
 -11  -4  -4    0.84    0.88
  -4  -4 -11   -0.87    1.19
 -11   4   4   -0.68    1.06
   4  -4 -11   -1.52    1.31
 -11   0  -5    6.44    2.14
  -5  11   0    9.33    2.20
 -11   0  -5    4.37    1.44
   0  -5 -11    6.88    1.56
 -11   5   0    5.00    1.31
  11   0  -5    4.93    1.24
 -11   0   5    6.61    1.18
 -11   5   0    7.23    2.96
  -5   0 -11    8.95    2.14
   5   0 -11    4.55    1.47
   0   5 -11    4.57    2.43
 -11   1   5    1.43    0.87
  11  -5  -1    1.25    0.82
  -5  11   1    2.26    1.79
   1   5 -11    1.16    1.98
  -5   1 -11    2.21    1.88
  -1  11  -5    5.64    1.97
  -1  -5 -11    1.98    1.22
   5  -1 -11    1.58    1.12
 -11   5  -1    0.08    2.76
 -11  -1  -5    1.38    1.60
 -11  -1  -5    0.67    1.16
 -11   5  -1    0.58    1.08
  11  -1  -5    1.61    1.01
  -1   5 -11    0.96    2.39
   1  -5 -11    2.07    1.26
 -11   1  -5    1.21    2.26
  -1  11   5    3.79    1.66
 -11   5   1    2.81    1.09
  -5  -1 -11    3.38    1.58
   5   1 -11    0.87    1.18
 -11   1  -5    1.71    1.24
  -5  11  -1    1.56    1.85
 -11   5   1    2.63    2.31
  11  -5  -2   18.22    2.31
  -5   2 -11   27.51    4.38
  -2  11  -5   29.54    4.08
 -11   2   5   21.30    2.49
  -5  11   2   22.22    3.79
 -11   5  -2   23.64    2.89
   5  -2 -11   18.92    2.86
 -11  -2  -5   24.92    2.98
 -11   5  -2   17.77    4.30
  11  -2  -5   18.34    2.42
  -2  11   5   18.63    2.95
   5   2 -11   26.65    3.27
  -5  11  -2   23.79    3.81
 -11   5   2   23.36    2.74
 -11   2  -5   22.32    4.51
 -11   2  -5   17.94    2.89
   2  -5 -11   24.08    3.06
 -11   3   5   -0.03    1.00
  -3  -5 -11    0.00    1.14
 -11  -3  -5    0.23    1.04
 -11   5  -3   -0.07    1.19
 -11   5  -3   -0.61    2.93
   5  -3 -11    0.03    1.22
   3   5 -11    0.67    1.86
  -5   3 -11    0.86    1.51
  -5  11   3   -0.25    1.92
  11  -5  -3    0.33    0.78
 -11  -3  -5    2.56    1.31
  -5   3 -11   -0.56    2.21
  -3  11  -5    0.44    2.11
   3  -5 -11    0.94    1.40
  -3   5 -11   -0.17    1.82
  -3   5 -11    4.13    3.08
 -11   5   3    0.14    1.03
   5   3 -11   -0.22    1.52
  11  -3  -5   -0.06    0.83
 -11   3  -5    0.09    2.54
 -11   3  -5   -2.18    1.23
  -3  11   5    1.89    1.74
  -5  -3 -11    0.10    1.29
  -5  11  -3   -0.48    2.00
  -5  11   4    1.25    2.10
   5  -4 -11    0.38    1.47
  11  -5  -4    0.63    0.93
  -4  -5 -11    1.07    1.29
 -11  -4  -5    0.74    1.02
 -11   5  -4   -0.76    1.45
 -11   5  -4   -2.66    3.42
   4   5 -11    0.80    1.91
  -4  11  -5    1.14    2.18
  -5   4 -11    1.00    1.73
 -11   4   5    1.06    1.22
 -11   4  -5    0.81    1.49
 -11   5   4   -2.04    1.18
  11  -4  -5    0.41    1.01
  -4   5 -11    0.68    3.00
  -4   5 -11    1.00    1.90
  -5  11  -4    3.30    2.19
   4  -5 -11    2.55    1.63
  -4  11   5   -1.01    1.88
  -5  -4 -11    0.69    1.30
   6   0 -11   35.96    4.03
 -11   0  -6   28.19    3.89
  -6  11   0   34.79    4.65
 -11   6   0   43.12    4.01
  11   0  -6   38.58    3.78
 -11   6   0   32.43    5.03
  11   1  -6    5.61    1.52
  -6  11   1    3.21    2.02
   6  -1 -11    5.23    1.49
   1   6 -11    2.73    2.30
 -11   1   6    3.98    1.19
 -11   6  -1    4.30    2.66
 -11  -1  -6    3.26    1.47
  -6   1 -11    5.10    2.35
 -11   6  -1    5.56    1.63
  -1   6 -11    3.10    2.84
   6   1 -11    4.77    1.59
  -6  -1 -11    9.16    1.97
  11  -1  -6    4.53    1.23
 -11   6   1    6.83    2.22
 -11   6   1    5.91    1.50
 -11   1  -6    4.47    1.59
  -6  11  -1    5.43    2.18
 -11  -2  -6    0.03    1.56
   2   6 -11    0.06    2.13
  -6   2 -11    3.32    1.56
  -6  11   2   -0.13    1.95
   6  -2 -11    1.67    1.40
  -2  11  -6    1.78    2.43
 -11   2   6    0.66    1.06
 -11  -2  -6    2.16    1.37
 -11   6  -2   -1.60    2.50
 -11   6  -2    2.48    1.57
  11  -2  -6    1.59    1.12
 -11   6   2    2.93    1.46
  -6  -2 -11    2.26    1.70
  -2   6 -11   -0.58    3.06
 -11   2  -6    0.98    1.48
  -2  11   6    1.72    1.68
  -6  11  -2   -1.74    1.89
 -12   0   0  570.08   42.70
   0  12   0  518.69   43.10
 -12   0  -1    6.39    1.28
 -12   0  -1    6.33    2.67
 -12   0   1    6.05    1.19
  -1  12   0    3.52    2.33
   0  -1 -12    3.37    1.89
   0   1 -12    4.74    2.10
   1  12   0    6.66    1.79
   0  12  -1    7.15    1.95
   0  12   1    6.46    2.45
   1   0 -12    4.90    1.91
  -1   0 -12    7.37    2.19
 -12  -1   0    4.74    1.13
  -1  12   1   -1.36    2.26
   1   1 -12   -0.92    1.56
   1  12   1   -1.01    1.79
 -12  -1   1    4.18    1.69
 -12   1  -1    1.68    1.00
  -1  -1 -12    4.05    1.83
 -12  -1  -1    2.32    1.03
 -12   1   1    2.68    0.98
 -12   1  -1    7.62    3.75
  -1  12  -1    2.00    2.04
  -1   1 -12    0.24    2.00
   1  -1 -12    3.19    1.81
   0   2 -12   56.17    6.57
   0  -2 -12   54.03    6.09
 -12   2   0   65.26    5.53
 -12  -2   0   70.10    5.52
   0  12   2   51.74    6.49
   2   0 -12   65.12    6.22
  -2   0 -12   67.34    6.65
 -12   0  -2   59.89    5.63
 -12   0  -2   62.25    6.99
 -12   0   2   73.81    5.42
  -2  12   0   52.47    6.85
 -12   2  -1    1.00    4.99
  -2  12   1   -1.62    2.06
   2  -1 -12   -2.44    1.40
  -2   1 -12    1.38    2.04
 -12   2  -1   -0.36    1.00
 -12  -1  -2    1.63    1.13
 -12  -1  -2    2.24    1.65
  -1  -2 -12    0.98    1.48
   1   2 -12   -0.85    1.70
   1  12   2   -0.86    1.90
 -12   1   2    1.46    0.89
 -12   1  -2    6.76    3.50
 -12   2   1    1.49    0.99
 -12  -1   2    0.43    0.87
  -2  -1 -12   -0.22    1.58
   1  -2 -12    0.00    1.65
 -12   1  -2    0.74    1.07
  -2  12  -1    1.40    2.24
   2   1 -12    0.10    1.59
 -12  -2  -1    1.47    1.11
  -1  12   2   -1.67    2.16
  -1   2 -12   -0.40    2.27
  -2  12  -2   82.94    7.32
 -12   2  -2   75.72    6.35
 -12  -2  -2   59.89    6.23
  -2   2 -12   83.92    7.73
  -2  12   2   60.82    7.34
   2  -2 -12   65.56    6.84
   2  12   2   74.37    7.91
  -2  -2 -12   65.71    6.82
 -12   2   2   82.27    6.23
 -12   0  -3   10.71    2.91
 -12   3   0    6.21    1.44
  -3  12   0    3.65    2.43
   0  -3 -12    5.28    1.91
   3   0 -12    8.54    2.01
   0   3 -12    5.71    2.40
 -12   3   0    7.55    5.51
  -3   0 -12    6.27    2.24
 -12   0  -3    5.46    1.46
   0  12   3    2.09    1.95
 -12   0   3    6.23    1.14
 -12  -1  -3    3.33    1.35
   1  12   3    0.25    1.70
   3  -1 -12    3.09    1.71
  -1  12  -3    5.95    3.07
 -12  -1  -3    3.08    1.82
   1   3 -12    3.10    1.93
 -12   3  -1    1.39    1.10
 -12   3  -1   -1.37    5.08
  -3  12   1    2.72    2.38
 -12   1   3    2.79    0.99
  -3   1 -12    3.00    2.03
  -1  -3 -12    1.99    1.62
 -12   1  -3    1.70    1.27
  -3  12  -1    4.49    2.54
 -12   3   1    0.93    1.00
 -12   1  -3    0.39    3.23
  -1   3 -12    2.31    2.43
   1  -3 -12    5.29    1.71
   3   1 -12    3.06    1.67
  -1  12   3    3.60    2.15
  -3  -1 -12    2.99    1.87
   2  12   3   28.67    4.20
   3  -2 -12   45.88    4.61
 -12   3  -2   37.96    3.86
 -12   2   3   35.33    3.64
 -12  -2  -3   32.22    3.84
  -3  12   2   32.55    5.23
  -2  -3 -12   33.19    4.17
  -3   2 -12   43.51    5.69
  -2  12  -3   49.19    5.17
   2   3 -12   34.90    4.74
 -12   2  -3   39.40    3.95
 -12   3   2   40.68    3.78
   3   2 -12   38.20    4.54
   2  -3 -12   32.70    4.40
  -2  12   3   32.76    5.11
  -3  12  -2   46.79    5.47
 -12   2  -3   40.22    7.78
  -2   3 -12   40.52    5.58
 -12  -3  -3   18.59    2.77
   3  -3 -12   17.26    3.45
  -3  12   3   22.63    3.53
  -3  -3 -12   19.28    3.09
  -3  12  -3   31.42    4.73
 -12   3  -3   22.39    2.96
  12  -3  -3   14.71    2.33
 -12   3   3   20.78    2.58
   4   0 -12  134.09   11.16
   0   4 -12  146.56   12.97
   0  -4 -12  121.84   10.87
 -12   4   0  121.99   10.61
  -4  12   0  119.31   11.58
   1   4 -12    1.03    3.17
 -12  -1  -4    1.83    1.42
  -1  -4 -12    0.14    1.37
 -12   1   4    2.44    1.04
   4  -1 -12    0.61    1.53
 -12  -1  -4    3.15    1.85
   1  12   4    1.36    1.65
 -12   4  -1    2.22    1.23
  -4  12   1    2.24    2.21
  -4  12  -1    0.41    2.56
  -1   4 -12    3.31    3.95
 -12   4   1    0.38    1.09
  -4  -1 -12    0.86    1.78
  -1  12   4    3.84    2.02
 -12   1  -4    2.19    1.47
   1  -4 -12    0.70    1.65
   0   0   0    0.00    0.00
;
_shelx_hkl_checksum              18895
#END Tags that were not found in dictionaries
loop_
_space_group_symop_operation_xyz
'x, y, z'
'-x, -y, z'
'-x, y, -z'
'x, -y, -z'
'z, x, y'
'z, -x, -y'
'-z, -x, y'
'-z, x, -y'
'y, z, x'
'-y, z, -x'
'y, -z, -x'
'-y, -z, x'
'y+1/2, x+1/2, -z+1/2'
'-y+1/2, -x+1/2, -z+1/2'
'y+1/2, -x+1/2, z+1/2'
'-y+1/2, x+1/2, z+1/2'
'x+1/2, z+1/2, -y+1/2'
'-x+1/2, z+1/2, y+1/2'
'-x+1/2, -z+1/2, -y+1/2'
'x+1/2, -z+1/2, y+1/2'
'z+1/2, y+1/2, -x+1/2'
'z+1/2, -y+1/2, x+1/2'
'-z+1/2, y+1/2, x+1/2'
'-z+1/2, -y+1/2, -x+1/2'
'-x, -y, -z'
'x, y, -z'
'x, -y, z'
'-x, y, z'
'-z, -x, -y'
'-z, x, y'
'z, x, -y'
'z, -x, y'
'-y, -z, -x'
'y, -z, x'
'-y, z, x'
'y, z, -x'
'-y-1/2, -x-1/2, z-1/2'
'y-1/2, x-1/2, z-1/2'
'-y-1/2, x-1/2, -z-1/2'
'y-1/2, -x-1/2, -z-1/2'
'-x-1/2, -z-1/2, y-1/2'
'x-1/2, -z-1/2, -y-1/2'
'x-1/2, z-1/2, y-1/2'
'-x-1/2, z-1/2, -y-1/2'
'-z-1/2, -y-1/2, x-1/2'
'-z-1/2, y-1/2, -x-1/2'
'z-1/2, -y-1/2, -x-1/2'
'z-1/2, y-1/2, x-1/2'
loop_
_atom_site_label
_atom_site_type_symbol
_atom_site_fract_x
_atom_site_fract_y
_atom_site_fract_z
_atom_site_U_iso_or_equiv
_atom_site_adp_type
_atom_site_occupancy
_atom_site_site_symmetry_order
_atom_site_calc_flag
_atom_site_refinement_flags_posn
_atom_site_refinement_flags_adp
_atom_site_refinement_flags_occupancy
Y1 Y 0.2500 0.5000 0.0000 0.0045(4) Uani 1 8 d S T P
Rh1 Rh 0.2500 0.2500 0.2500 0.0008(4) Uani 1 6 d S T P
Ge1 Ge 0.0000 0.0000 0.0000 0.0130(15) Uani 0.93(3) 24 d S T P
Ge2A Ge 0.0000 0.2668(5) 0.1339(4) 0.0100(5) Uani 0.381(4) 2 d S T P
Ge2B Ge 0.0000 0.3324(3) 0.1563(2) 0.0100(5) Uani 0.619(4) 2 d S T P
loop_
_atom_site_aniso_label
_atom_site_aniso_U_11
_atom_site_aniso_U_22
_atom_site_aniso_U_33
_atom_site_aniso_U_23
_atom_site_aniso_U_13
_atom_site_aniso_U_12
Y1 0.0064(8) 0.0036(5) 0.0036(5) 0.000 0.000 0.000
Rh1 0.0008(4) 0.0008(4) 0.0008(4) -0.0001(2) -0.0001(2) -0.0001(2)
Ge1 0.0130(15) 0.0130(15) 0.0130(15) 0.000 0.000 0.000
Ge2A 0.0013(5) 0.0209(13) 0.0080(8) 0.0079(9) 0.000 0.000
Ge2B 0.0013(5) 0.0209(13) 0.0080(8) 0.0079(9) 0.000 0.000
loop_
_atom_type_symbol
_atom_type_description
_atom_type_scat_dispersion_real
_atom_type_scat_dispersion_imag
_atom_type_scat_source
Ge Ge 0.1547 1.8001 'International Tables Vol C Tables 4.2.6.8 and 6.1.1.4'
Y Y -2.7962 3.5667 'International Tables Vol C Tables 4.2.6.8 and 6.1.1.4'
Rh Rh -1.1178 0.9187 'International Tables Vol C Tables 4.2.6.8 and 6.1.1.4'
loop_
_geom_angle_atom_site_label_1
_geom_angle_atom_site_label_2
_geom_angle_atom_site_label_3
_geom_angle
_geom_angle_site_symmetry_1
_geom_angle_site_symmetry_3
Ge2B Y1 Ge2B 122.92(4) . 17
Ge2B Y1 Ge2B 54.88(9) . 26
Ge2B Y1 Ge2B 177.30(11) 17 26
Ge2B Y1 Ge2B 95.06(6) . 42_666
Ge2B Y1 Ge2B 54.88(9) 17 42_666
Ge2B Y1 Ge2B 122.92(4) 26 42_666
Ge2B Y1 Ge2B 177.30(11) . 18_554
Ge2B Y1 Ge2B 59.22(10) 17 18_554
Ge2B Y1 Ge2B 122.92(4) 26 18_554
Ge2B Y1 Ge2B 85.01(6) 42_666 18_554
Ge2B Y1 Ge2B 85.01(6) . 25_565
Ge2B Y1 Ge2B 122.92(4) 17 25_565
Ge2B Y1 Ge2B 59.22(10) 26 25_565
Ge2B Y1 Ge2B 177.30(11) 42_666 25_565
Ge2B Y1 Ge2B 95.06(6) 18_554 25_565
Ge2B Y1 Ge2B 122.92(4) . 41_665
Ge2B Y1 Ge2B 85.01(6) 17 41_665
Ge2B Y1 Ge2B 95.06(6) 26 41_665
Ge2B Y1 Ge2B 59.22(10) 42_666 41_665
Ge2B Y1 Ge2B 54.88(9) 18_554 41_665
Ge2B Y1 Ge2B 122.92(4) 25_565 41_665
Ge2B Y1 Ge2B 59.22(10) . 2_565
Ge2B Y1 Ge2B 95.06(6) 17 2_565
Ge2B Y1 Ge2B 85.01(6) 26 2_565
Ge2B Y1 Ge2B 122.92(4) 42_666 2_565
Ge2B Y1 Ge2B 122.92(4) 18_554 2_565
Ge2B Y1 Ge2B 54.88(9) 25_565 2_565
Ge2B Y1 Ge2B 177.30(11) 41_665 2_565
Ge2B Y1 Ge2B 106.03(4) . 37_665
Ge2B Y1 Ge2B 130.725(12) 17 37_665
Ge2B Y1 Ge2B 51.68(8) 26 37_665
Ge2B Y1 Ge2B 130.725(12) 42_666 37_665
Ge2B Y1 Ge2B 72.03(10) 18_554 37_665
Ge2B Y1 Ge2B 51.68(8) 25_565 37_665
Ge2B Y1 Ge2B 72.03(10) 41_665 37_665
Ge2B Y1 Ge2B 106.03(4) 2_565 37_665
Ge2B Y1 Ge2B 130.725(12) . 34_565
Ge2B Y1 Ge2B 51.68(8) 17 34_565
Ge2B Y1 Ge2B 130.725(12) 26 34_565
Ge2B Y1 Ge2B 106.03(4) 42_666 34_565
Ge2B Y1 Ge2B 51.68(8) 18_554 34_565
Ge2B Y1 Ge2B 72.03(10) 25_565 34_565
Ge2B Y1 Ge2B 106.03(4) 41_665 34_565
Ge2B Y1 Ge2B 72.03(10) 2_565 34_565
Ge2B Y1 Ge2B 93.12(2) 37_665 34_565
Ge2B Y1 Ge2B 51.68(8) . 14
Ge2B Y1 Ge2B 72.03(10) 17 14
Ge2B Y1 Ge2B 106.03(4) 26 14
Ge2B Y1 Ge2B 72.03(10) 42_666 14
Ge2B Y1 Ge2B 130.725(12) 18_554 14
Ge2B Y1 Ge2B 106.03(4) 25_565 14
Ge2B Y1 Ge2B 130.725(12) 41_665 14
Ge2B Y1 Ge2B 51.68(8) 2_565 14
Ge2B Y1 Ge2B 153.03(11) 37_665 14
Ge2B Y1 Ge2B 93.12(2) 34_565 14
Ge2B Y1 Ge2B 72.03(10) . 9
Ge2B Y1 Ge2B 106.03(4) 17 9
Ge2B Y1 Ge2B 72.03(10) 26 9
Ge2B Y1 Ge2B 51.68(8) 42_666 9
Ge2B Y1 Ge2B 106.03(4) 18_554 9
Ge2B Y1 Ge2B 130.725(12) 25_565 9
Ge2B Y1 Ge2B 51.68(8) 41_665 9
Ge2B Y1 Ge2B 130.725(12) 2_565 9
Ge2B Y1 Ge2B 93.12(2) 37_665 9
Ge2B Y1 Ge2B 153.03(11) 34_565 9
Ge2B Y1 Ge2B 93.12(2) 14 9
Ge2A Rh1 Ge2A 139.89(17) . 45_666
Ge2A Rh1 Ge2A 140.22(18) . 42_666
Ge2A Rh1 Ge2A 72.54(18) 45_666 42_666
Ge2A Rh1 Ge2A 93.8(2) . 14
Ge2A Rh1 Ge2A 72.54(18) 45_666 14
Ge2A Rh1 Ge2A 72.54(18) 42_666 14
Ge2A Rh1 Ge2A 72.54(18) . 9
Ge2A Rh1 Ge2A 140.22(18) 45_666 9
Ge2A Rh1 Ge2A 93.8(2) 42_666 9
Ge2A Rh1 Ge2A 139.89(17) 14 9
Ge2A Rh1 Ge2A 72.54(18) . 5
Ge2A Rh1 Ge2A 93.8(2) 45_666 5
Ge2A Rh1 Ge2A 139.89(17) 42_666 5
Ge2A Rh1 Ge2A 140.22(18) 14 5
Ge2A Rh1 Ge2A 72.54(18) 9 5
Ge2A Rh1 Ge2B 134.24(8) . 45_666
Ge2A Rh1 Ge2B 14.33(9) 45_666 45_666
Ge2A Rh1 Ge2B 82.80(14) 42_666 45_666
Ge2A Rh1 Ge2B 84.91(14) 14 45_666
Ge2A Rh1 Ge2B 131.72(10) 9 45_666
Ge2A Rh1 Ge2B 79.61(17) 5 45_666
Ge2A Rh1 Ge2B 84.92(14) . 9
Ge2A Rh1 Ge2B 131.72(10) 45_666 9
Ge2A Rh1 Ge2B 79.61(17) 42_666 9
Ge2A Rh1 Ge2B 134.24(8) 14 9
Ge2A Rh1 Ge2B 14.33(9) 9 9
Ge2A Rh1 Ge2B 82.80(14) 5 9
Ge2B Rh1 Ge2B 127.05(9) 45_666 9
Ge2A Rh1 Ge2B 131.72(10) . 42_666
Ge2A Rh1 Ge2B 84.91(14) 45_666 42_666
Ge2A Rh1 Ge2B 14.33(9) 42_666 42_666
Ge2A Rh1 Ge2B 82.80(14) 14 42_666
Ge2A Rh1 Ge2B 79.61(17) 9 42_666
Ge2A Rh1 Ge2B 134.24(8) 5 42_666
Ge2B Rh1 Ge2B 93.60(9) 45_666 42_666
Ge2B Rh1 Ge2B 65.46(13) 9 42_666
Ge2A Rh1 Ge2B 79.61(17) . 14
Ge2A Rh1 Ge2B 82.80(14) 45_666 14
Ge2A Rh1 Ge2B 84.91(14) 42_666 14
Ge2A Rh1 Ge2B 14.33(9) 14 14
Ge2A Rh1 Ge2B 134.24(8) 9 14
Ge2A Rh1 Ge2B 131.72(10) 5 14
Ge2B Rh1 Ge2B 93.60(9) 45_666 14
Ge2B Rh1 Ge2B 133.41(9) 9 14
Ge2B Rh1 Ge2B 93.60(9) 42_666 14
Ge2A Rh1 Ge2B 82.80(14) . 5
Ge2A Rh1 Ge2B 79.61(17) 45_666 5
Ge2A Rh1 Ge2B 134.24(8) 42_666 5
Ge2A Rh1 Ge2B 131.72(10) 14 5
Ge2A Rh1 Ge2B 84.91(14) 9 5
Ge2A Rh1 Ge2B 14.33(9) 5 5
Ge2B Rh1 Ge2B 65.46(13) 45_666 5
Ge2B Rh1 Ge2B 93.60(9) 9 5
Ge2B Rh1 Ge2B 133.41(9) 42_666 5
Ge2B Rh1 Ge2B 127.05(9) 14 5
Ge2A Rh1 Ge2B 14.33(9) . .
Ge2A Rh1 Ge2B 134.24(8) 45_666 .
Ge2A Rh1 Ge2B 131.72(10) 42_666 .
Ge2A Rh1 Ge2B 79.61(17) 14 .
Ge2A Rh1 Ge2B 82.80(14) 9 .
Ge2A Rh1 Ge2B 84.92(14) 5 .
Ge2B Rh1 Ge2B 133.41(9) 45_666 .
Ge2B Rh1 Ge2B 93.60(9) 9 .
Ge2B Rh1 Ge2B 127.05(9) 42_666 .
Ge2B Rh1 Ge2B 65.46(13) 14 .
Ge2B Rh1 Ge2B 93.60(9) 5 .
Ge2A Ge1 Ge2A 180.00(9) 33 9
Ge2A Ge1 Ge2A 66.36(5) 33 29
Ge2A Ge1 Ge2A 113.64(5) 9 29
Ge2A Ge1 Ge2A 113.64(5) 33 5
Ge2A Ge1 Ge2A 66.36(5) 9 5
Ge2A Ge1 Ge2A 180.00(9) 29 5
Ge2A Ge1 Ge2A 66.36(5) 33 25
Ge2A Ge1 Ge2A 113.64(5) 9 25
Ge2A Ge1 Ge2A 66.36(5) 29 25
Ge2A Ge1 Ge2A 113.64(5) 5 25
Ge2A Ge1 Ge2A 126.69(16) 33 34
Ge2A Ge1 Ge2A 53.31(16) 9 34
Ge2A Ge1 Ge2A 113.64(5) 29 34
Ge2A Ge1 Ge2A 66.36(5) 5 34
Ge2A Ge1 Ge2A 66.36(5) 25 34
Ge2A Ge1 Ge2A 66.36(5) 33 2
Ge2A Ge1 Ge2A 113.64(5) 9 2
Ge2A Ge1 Ge2A 113.64(5) 29 2
Ge2A Ge1 Ge2A 66.36(5) 5 2
Ge2A Ge1 Ge2A 53.31(16) 25 2
Ge2A Ge1 Ge2A 66.36(5) 34 2
Ge2A Ge1 Ge2A 113.64(5) 33 6
Ge2A Ge1 Ge2A 66.36(5) 9 6
Ge2A Ge1 Ge2A 53.31(16) 29 6
Ge2A Ge1 Ge2A 126.69(16) 5 6
Ge2A Ge1 Ge2A 66.36(5) 25 6
Ge2A Ge1 Ge2A 66.36(5) 34 6
Ge2A Ge1 Ge2A 113.64(5) 2 6
Ge2A Ge1 Ge2A 66.36(5) 33 30
Ge2A Ge1 Ge2A 113.64(5) 9 30
Ge2A Ge1 Ge2A 126.69(16) 29 30
Ge2A Ge1 Ge2A 53.31(16) 5 30
Ge2A Ge1 Ge2A 113.64(5) 25 30
Ge2A Ge1 Ge2A 113.64(5) 34 30
Ge2A Ge1 Ge2A 66.36(5) 2 30
Ge2A Ge1 Ge2A 180.00(15) 6 30
Ge2A Ge1 Ge2A 113.64(5) 33 26
Ge2A Ge1 Ge2A 66.36(5) 9 26
Ge2A Ge1 Ge2A 66.36(5) 29 26
Ge2A Ge1 Ge2A 113.64(5) 5 26
Ge2A Ge1 Ge2A 126.69(16) 25 26
Ge2A Ge1 Ge2A 113.64(5) 34 26
Ge2A Ge1 Ge2A 180.00(9) 2 26
Ge2A Ge1 Ge2A 66.36(5) 6 26
Ge2A Ge1 Ge2A 113.64(5) 30 26
Ge2A Ge1 Ge2A 53.31(16) 33 10
Ge2A Ge1 Ge2A 126.69(16) 9 10
Ge2A Ge1 Ge2A 66.36(5) 29 10
Ge2A Ge1 Ge2A 113.64(5) 5 10
Ge2A Ge1 Ge2A 113.64(5) 25 10
Ge2A Ge1 Ge2A 180.00(9) 34 10
Ge2A Ge1 Ge2A 113.64(5) 2 10
Ge2A Ge1 Ge2A 113.64(5) 6 10
Ge2A Ge1 Ge2A 66.36(5) 30 10
Ge2A Ge1 Ge2A 66.36(5) 26 10
Ge2A Ge1 Ge2A 113.64(5) 33 .
Ge2A Ge1 Ge2A 66.36(5) 9 .
Ge2A Ge1 Ge2A 113.64(5) 29 .
Ge2A Ge1 Ge2A 66.36(5) 5 .
Ge2A Ge1 Ge2A 180.0 25 .
Ge2A Ge1 Ge2A 113.64(5) 34 .
Ge2A Ge1 Ge2A 126.69(16) 2 .
Ge2A Ge1 Ge2A 113.64(5) 6 .
Ge2A Ge1 Ge2A 66.36(5) 30 .
Ge2A Ge1 Ge2A 53.31(16) 26 .
Ge2A Ge1 Ge2A 66.36(5) 10 .
Ge2B Ge2A Ge2A 108.8(5) . 26
Ge2B Ge2A Rh1 85.5(2) . .
Ge2A Ge2A Rh1 114.86(8) 26 .
Ge2B Ge2A Rh1 85.5(2) . 28
Ge2A Ge2A Rh1 114.86(8) 26 28
Rh1 Ge2A Rh1 129.73(16) . 28
Ge2B Ge2A Ge2B 96.0(5) . 26
Ge2A Ge2A Ge2B 12.75(9) 26 26
Rh1 Ge2A Ge2B 115.05(8) . 26
Rh1 Ge2A Ge2B 115.05(8) 28 26
Ge2B Ge2A Ge1 172.1(5) . .
Ge2A Ge2A Ge1 63.34(8) 26 .
Rh1 Ge2A Ge1 97.72(12) . .
Rh1 Ge2A Ge1 97.72(12) 28 .
Ge2B Ge2A Ge1 76.10(10) 26 .
Ge2B Ge2A Ge2A 121.1(2) . 10
Ge2A Ge2A Ge2A 65.80(9) 26 10
Rh1 Ge2A Ge2A 152.47(16) . 10
Rh1 Ge2A Ge2A 53.73(9) 28 10
Ge2B Ge2A Ge2A 71.94(10) 26 10
Ge1 Ge2A Ge2A 56.82(3) . 10
Ge2B Ge2A Ge2A 129.9(4) . 30
Ge2A Ge2A Ge2A 113.99(9) 26 30
Rh1 Ge2A Ge2A 98.66(19) . 30
Rh1 Ge2A Ge2A 53.73(9) 28 30
Ge2B Ge2A Ge2A 125.23(11) 26 30
Ge1 Ge2A Ge2A 56.82(3) . 30
Ge2A Ge2A Ge2A 60.0 10 30
Ge2B Ge2A Ge2A 121.1(2) . 9
Ge2A Ge2A Ge2A 65.80(9) 26 9
Rh1 Ge2A Ge2A 53.73(9) . 9
Rh1 Ge2A Ge2A 152.47(16) 28 9
Ge2B Ge2A Ge2A 71.94(10) 26 9
Ge1 Ge2A Ge2A 56.82(3) . 9
Ge2A Ge2A Ge2A 109.470(1) 10 9
Ge2A Ge2A Ge2A 99.75(14) 30 9
Ge2B Ge2A Ge2A 129.9(4) . 5
Ge2A Ge2A Ge2A 113.99(9) 26 5
Rh1 Ge2A Ge2A 53.73(9) . 5
Rh1 Ge2A Ge2A 98.66(19) 28 5
Ge2B Ge2A Ge2A 125.23(11) 26 5
Ge1 Ge2A Ge2A 56.82(3) . 5
Ge2A Ge2A Ge2A 99.75(14) 10 5
Ge2A Ge2A Ge2A 48.39(18) 30 5
Ge2A Ge2A Ge2A 60.0 9 5
Ge2B Ge2A Y1 73.8(5) . 5
Ge2A Ge2A Y1 177.38(9) 26 5
Rh1 Ge2A Y1 64.99(8) . 5
Rh1 Ge2A Y1 64.99(8) 28 5
Ge2B Ge2A Y1 169.87(17) 26 5
Ge1 Ge2A Y1 114.03(14) . 5
Ge2A Ge2A Y1 113.01(11) 10 5
Ge2A Ge2A Y1 63.67(14) 30 5
Ge2A Ge2A Y1 113.01(11) 9 5
Ge2A Ge2A Y1 63.67(14) 5 5
Ge2B Ge2A Y1 61.1(3) . .
Ge2A Ge2A Y1 68.61(7) 26 .
Rh1 Ge2A Y1 64.88(5) . .
Rh1 Ge2A Y1 143.93(18) 28 .
Ge2B Ge2A Y1 60.27(7) 26 .
Ge1 Ge2A Y1 113.83(11) . .
Ge2A Ge2A Y1 131.66(17) 10 .
Ge2A Ge2A Y1 161.08(12) 30 .
Ge2A Ge2A Y1 63.44(11) 9 .
Ge2A Ge2A Y1 112.82(7) 5 .
Y1 Ge2A Y1 113.17(11) 5 .
Ge2A Ge2B Rh1 80.1(2) . .
Ge2A Ge2B Rh1 80.1(2) . 28
Rh1 Ge2B Rh1 126.93(9) . 28
Ge2A Ge2B Ge2A 58.5(5) . 26
Rh1 Ge2B Ge2A 105.19(6) . 26
Rh1 Ge2B Ge2A 105.19(6) 28 26
Ge2A Ge2B Ge2B 136.5(3) . 14
Rh1 Ge2B Ge2B 57.27(7) . 14
Rh1 Ge2B Ge2B 116.85(11) 28 14
Ge2A Ge2B Ge2B 136.68(10) 26 14
Ge2A Ge2B Ge2B 136.5(3) . 13_455
Rh1 Ge2B Ge2B 116.85(11) . 13_455
Rh1 Ge2B Ge2B 57.27(7) 28 13_455
Ge2A Ge2B Ge2B 136.68(10) 26 13_455
Ge2B Ge2B Ge2B 67.36(9) 14 13_455
Ge2A Ge2B Ge2B 71.2(5) . 26
Rh1 Ge2B Ge2B 109.60(5) . 26
Rh1 Ge2B Ge2B 109.60(5) 28 26
Ge2A Ge2B Ge2B 12.75(9) 26 26
Ge2B Ge2B Ge2B 128.35(8) 14 26
Ge2B Ge2B Ge2B 128.35(8) 13_455 26
Ge2A Ge2B Y1 108.6(3) . .
Rh1 Ge2B Y1 68.948(16) . .
Rh1 Ge2B Y1 163.73(9) 28 .
Ge2A Ge2B Y1 70.10(8) 26 .
Ge2B Ge2B Y1 66.61(7) 14 .
Ge2B Ge2B Y1 114.88(6) 13_455 .
Ge2B Ge2B Y1 62.56(4) 26 .
Ge2A Ge2B Y1 108.6(3) . 25_565
Rh1 Ge2B Y1 163.73(9) . 25_565
Rh1 Ge2B Y1 68.948(16) 28 25_565
Ge2A Ge2B Y1 70.10(8) 26 25_565
Ge2B Ge2B Y1 114.88(6) 14 25_565
Ge2B Ge2B Y1 66.61(7) 13_455 25_565
Ge2B Ge2B Y1 62.56(4) 26 25_565
Y1 Ge2B Y1 94.99(6) . 25_565
Ge2A Ge2B Y1 95.3(5) . 5
Rh1 Ge2B Y1 66.73(4) . 5
Rh1 Ge2B Y1 66.73(4) 28 5
Ge2A Ge2B Y1 153.76(10) 26 5
Ge2B Ge2B Y1 61.71(8) 14 5
Ge2B Ge2B Y1 61.71(8) 13_455 5
Ge2B Ge2B Y1 166.51(5) 26 5
Y1 Ge2B Y1 124.29(5) . 5
Y1 Ge2B Y1 124.29(5) 25_565 5
loop_
_geom_bond_atom_site_label_1
_geom_bond_atom_site_label_2
_geom_bond_distance
_geom_bond_site_symmetry_2
Y1 Ge2B 3.0259(17) .
Y1 Ge2B 3.0259(17) 17
Y1 Ge2B 3.0259(17) 26
Y1 Ge2B 3.0259(17) 42_666
Y1 Ge2B 3.0259(17) 18_554
Y1 Ge2B 3.0259(17) 25_565
Y1 Ge2B 3.0259(17) 41_665
Y1 Ge2B 3.0259(17) 2_565
Y1 Ge2B 3.154(2) 37_665
Y1 Ge2B 3.154(2) 34_565
Y1 Ge2B 3.154(2) 14
Y1 Ge2B 3.154(2) 9
Rh1 Ge2A 2.4641(17) .
Rh1 Ge2A 2.4641(17) 45_666
Rh1 Ge2A 2.4641(17) 42_666
Rh1 Ge2A 2.4641(17) 14
Rh1 Ge2A 2.4641(17) 9
Rh1 Ge2A 2.4641(17) 5
Rh1 Ge2B 2.4934(11) 45_666
Rh1 Ge2B 2.4934(11) 9
Rh1 Ge2B 2.4934(11) 42_666
Rh1 Ge2B 2.4934(11) 14
Rh1 Ge2B 2.4934(11) 5
Rh1 Ge2B 2.4934(11) .
Ge1 Ge2A 2.664(5) 33
Ge1 Ge2A 2.664(5) 9
Ge1 Ge2A 2.664(5) 29
Ge1 Ge2A 2.664(5) 5
Ge1 Ge2A 2.664(5) 25
Ge1 Ge2A 2.664(5) 34
Ge1 Ge2A 2.664(5) 2
Ge1 Ge2A 2.664(5) 6
Ge1 Ge2A 2.664(5) 30
Ge1 Ge2A 2.664(5) 26
Ge1 Ge2A 2.664(5) 10
Ge1 Ge2A 2.664(5) .
Ge2A Ge2B 0.619(4) .
Ge2A Ge2A 2.390(8) 26
Ge2A Rh1 2.4641(17) 28
Ge2A Ge2B 2.655(4) 26
Ge2A Ge2A 2.915(6) 10
Ge2A Ge2A 2.915(6) 30
Ge2A Ge2A 2.915(6) 9
Ge2A Ge2A 2.915(6) 5
Ge2A Y1 3.270(4) 5
Ge2B Rh1 2.4934(11) 28
Ge2B Ge2A 2.655(4) 26
Ge2B Ge2B 2.696(5) 14
Ge2B Ge2B 2.696(5) 13_455
Ge2B Ge2B 2.789(4) 26
Ge2B Y1 3.0259(17) 25_565
Ge2B Y1 3.154(2) 5
#BEGIN Loops that were not found in dictionaries:
loop_
_publcif_info_datablock.id
_publcif_info_datablock.publ_exptl
_publcif_info_datablock.publ_geom
_publcif_info_datablock.structure
{c1e53f67-6ee2-4a30-a9e8-0011f9256c04} y y y
#END Loops that were not found in dictionaries
