#------------------------------------------------------------------------------
#$Date: 2016-03-21 01:21:50 +0200 (Mon, 21 Mar 2016) $
#$Revision: 178377 $
#$URL: svn://www.crystallography.net/cod/cif/4/00/20/4002096.cif $
#------------------------------------------------------------------------------
#
# This file is available in the Crystallography Open Database (COD),
# http://www.crystallography.net/
#
# All data on this site have been placed in the public domain by the
# contributors.
#
data_4002096
loop_
_publ_author_name
'Nanthamathee, Chompoonoot'
'Ling, Sanliang'
'Slater, Ben'
'Attfield, Martin P.'
_publ_section_title
;
 Contradistinct Thermoresponsive Behavior of Isostructural MIL-53 Type
 Metal--Organic Frameworks by Modifying the Framework Inorganic Anion
;
_journal_name_full               'Chemistry of Materials'
_journal_page_first              141223143002002
_journal_paper_doi               10.1021/cm503311x
_journal_year                    2014
_chemical_formula_sum            'C8 Al F O4'
_chemical_formula_weight         206.06
_chemical_name_systematic        ' ?'
_space_group_IT_number           74
_symmetry_cell_setting           orthorhombic
_symmetry_space_group_name_Hall  '-I 2b 2'
_symmetry_space_group_name_H-M   'I m m a'
_audit_creation_date             2014-08-28T13:15
_audit_creation_method           'from EXP file using GSAS2CIF'
_audit_update_record
' 2014-08-28T13:15  Initial CIF as created by GSAS2CIF'
_cell_angle_alpha                90.0
_cell_angle_beta                 90.0
_cell_angle_gamma                90.0
_cell_formula_units_Z            4
_cell_length_a                   6.56782(15)
_cell_length_b                   16.4055(5)
_cell_length_c                   13.1687(6)
_cell_volume                     1418.91(8)
_computing_structure_refinement  GSAS
_diffrn_radiation_polarisn_ratio 0.95
_diffrn_radiation_probe          x-ray
_diffrn_radiation_wavelength     0.825993
_exptl_absorpt_correction_T_max  1.00000
_exptl_absorpt_correction_T_min  1.00000
_exptl_absorpt_process_details
;   GSAS Absorption/surface roughness correction: function number 0
 No correction is applied.
;
_pd_block_id                     2014-08-28T13:15|300K|300k|i11
_pd_calc_method                  'Rietveld Refinement'
_pd_instr_location               ' ?'
_pd_meas_2theta_range_inc        0.003
_pd_meas_2theta_range_max        149.9955
_pd_meas_2theta_range_min        0.0015
_pd_meas_number_of_points        49999
_pd_phase_name                   300K
_pd_proc_2theta_range_inc        0.003
_pd_proc_2theta_range_max        150.00519
_pd_proc_2theta_range_min        0.011195
_pd_proc_info_datetime           2014-08-28T13:15:17
_pd_proc_info_excluded_regions   ' ?'
_pd_proc_ls_background_function
;   GSAS Background function number 1 with  2 terms.
 Shifted Chebyshev function of 1st kind
      1:    0.00000     2:    0.00000    
;
_pd_proc_ls_peak_cutoff          0.00010
_pd_proc_ls_profile_function
;
 CW Profile function number 4 with  18 terms
 Pseudovoigt profile coefficients as parameterized in
 P. Thompson, D.E. Cox & J.B. Hastings (1987). J. Appl. Cryst.,20,79-83.
 Asymmetry correction of L.W. Finger, D.E. Cox & A. P. Jephcoat (1994).
 J. Appl. Cryst.,27,892-900.
 Microstrain broadening by P.W. Stephens,  (1999). J. Appl. Cryst.,32,281-289.
 Peak tails are ignored  where the intensity is below 0.0001 times the peak
   Aniso. broadening axis   1.0   0.0   1.0
;
_pd_proc_ls_prof_R_factor        0.0331
_pd_proc_ls_prof_wR_expected     0.0246
_pd_proc_ls_prof_wR_factor       0.0424
_pd_proc_number_of_points        49999
_pd_spec_mounting                ' ?'
_refine_ls_goodness_of_fit_all   1.73
_refine_ls_matrix_type           full
_refine_ls_number_parameters     30
_refine_ls_number_restraints     0
_refine_ls_R_Fsqd_factor         0.19119
_refine_ls_shift/su_max          0.02
_refine_ls_shift/su_mean         0.01
_reflns_d_resolution_high        1.209
_reflns_d_resolution_low         8.203
_reflns_limit_h_max              5
_reflns_limit_h_min              0
_reflns_limit_k_max              13
_reflns_limit_k_min              0
_reflns_limit_l_max              11
_reflns_limit_l_min              0
_reflns_number_total             252
_cod_data_source_file            alf300K.cif
_cod_data_source_block           300K_publ
_cod_depositor_comments
;
The following automatic conversions were performed:

'_geom_bond_publ_flag' value 'N' changed to 'n' according to
/home/saulius/struct/COD-crude-data--automatic-downloads/rss-feeds/ACS/lib/dictionaries/cif_core.dic
dictionary named 'cif_core.dic' version 2.4.2 from 2011-04-26 (18
times).

'_geom_angle_publ_flag' value 'N' changed to 'n' according
to
/home/saulius/struct/COD-crude-data--automatic-downloads/rss-feeds/ACS/lib/dictionaries/cif_core.dic
dictionary named 'cif_core.dic' version 2.4.2 from 2011-04-26 (24
times).

Automatic conversion script
Id: cif_fix_values 2935 2014-11-11 08:27:57Z andrius 
;
_cod_original_cell_volume        1418.90(8)
_cod_database_code               4002096
#BEGIN Tags that were not found in dictionaries:
_gsas_exptl_extinct_corr_t_min   1.00000
_gsas_exptl_extinct_corr_t_max   1.00000
#END Tags that were not found in dictionaries
loop_
_symmetry_equiv_pos_site_id
_symmetry_equiv_pos_as_xyz
1 +x,+y,+z
2 -x,+y,+z
3 +x,-y+1/2,+z
4 -x,-y+1/2,+z
-1 -x,-y,-z
-2 +x,-y,-z
-3 -x,+y+1/2,-z
-4 +x,+y+1/2,-z
101 +x+1/2,+y+1/2,+z+1/2
102 -x+1/2,+y+1/2,+z+1/2
103 +x+1/2,-y,+z+1/2
104 -x+1/2,-y,+z+1/2
-101 -x+1/2,-y+1/2,-z+1/2
-102 +x+1/2,-y+1/2,-z+1/2
-103 -x+1/2,+y,-z+1/2
-104 +x+1/2,+y,-z+1/2
loop_
_atom_site_type_symbol
_atom_site_label
_atom_site_fract_x
_atom_site_fract_y
_atom_site_fract_z
_atom_site_occupancy
_atom_site_thermal_displace_type
_atom_site_U_iso_or_equiv
_atom_site_symmetry_multiplicity
Al Al1 0.25 0.25 0.75 1.0 Uiso 0.0221(18) 4
F F1 0.0 0.25 0.6939(6) 1.0 Uiso 0.0179(14) 4
O O1 0.1694(6) 0.16805(25) 0.84015(35) 1.0 Uiso 0.0179(14) 16
C C1 -0.1932(7) 0.0298(6) 0.9591(7) 1.0 Uiso 0.0236(23) 16
C C2 0.0 0.0644(6) 0.9479(9) 1.0 Uiso 0.0236(23) 8
C C3 0.0 0.1376(7) 0.8698(9) 1.0 Uiso 0.0236(23) 8
loop_
_atom_type_symbol
_atom_type_number_in_cell
_atom_type_scat_dispersion_real
_atom_type_scat_dispersion_imag
_atom_type_scat_Cromer_Mann_a1
_atom_type_scat_Cromer_Mann_a2
_atom_type_scat_Cromer_Mann_a3
_atom_type_scat_Cromer_Mann_a4
_atom_type_scat_Cromer_Mann_b1
_atom_type_scat_Cromer_Mann_b2
_atom_type_scat_Cromer_Mann_b3
_atom_type_scat_Cromer_Mann_b4
_atom_type_scat_Cromer_Mann_c
_atom_type_scat_source
Al 4.0 0.000 0.000 6.42020 3.03870 1.90020 0.74260 1.59360 31.5472 1.96460
85.0886 1.11510 International_Tables_Vol_C
F 4.0 0.000 0.000 3.53920 10.2825 2.64120 4.29440 1.51700 0.26150 1.02430
26.1476 0.27760 International_Tables_Vol_C
O 16.0 0.000 0.000 3.04850 13.2771 2.28680 5.70110 1.54630 0.32390 0.86700
32.9089 0.25080 International_Tables_Vol_C
C 32.0 0.000 0.000 2.31000 20.8439 1.02000 10.2075 1.58860 0.56870 0.86500
51.6512 0.21560 International_Tables_Vol_C
loop_
_geom_angle_atom_site_label_1
_geom_angle_atom_site_label_2
_geom_angle_atom_site_label_3
_geom_angle
_geom_angle_site_symmetry_1
_geom_angle_site_symmetry_3
_geom_angle_publ_flag
F1 Al1 F1 180.0 1_555 -101_546 n
F1 Al1 O1 90.13(19) 1_555 1_555 n
F1 Al1 O1 90.13(19) 1_555 3_555 n
F1 Al1 O1 89.87(19) 1_555 -101_566 n
F1 Al1 O1 89.87(19) 1_555 -103_566 n
F1 Al1 O1 89.87(19) -101_566 1_555 n
F1 Al1 O1 89.87(19) -101_566 3_555 n
F1 Al1 O1 90.13(19) -101_566 -101_566 n
F1 Al1 O1 90.13(19) -101_566 -103_566 n
O1 Al1 O1 91.94(31) 1_555 3_555 n
O1 Al1 O1 180.0 1_555 -101_566 n
O1 Al1 O1 88.06(31) 1_555 -103_566 n
O1 Al1 O1 88.06(31) 3_555 -101_566 n
O1 Al1 O1 180.0 3_555 -103_566 n
O1 Al1 O1 91.94(31) -101_566 -103_566 n
Al1 F1 Al1 131.6(4) 1_555 2_555 n
Al1 O1 C3 136.0(6) 1_555 1_555 n
C1 C1 C2 110.6(6) -2_557 1_555 n
C1 C2 C1 130.3(11) 1_555 2_555 n
C1 C2 C3 112.2(6) 1_555 1_555 n
C1 C2 C3 112.2(6) 2_555 1_555 n
O1 C3 O1 120.6(9) 1_555 2_555 n
O1 C3 C2 119.6(5) 1_555 1_555 n
O1 C3 C2 119.6(5) 2_555 1_555 n
loop_
_geom_bond_atom_site_label_1
_geom_bond_atom_site_label_2
_geom_bond_distance
_geom_bond_site_symmetry_2
_geom_bond_publ_flag
Al1 F1 1.8004(32) 1_555 n
Al1 F1 1.8004(32) -101_445 n
Al1 O1 1.8700(33) 1_555 n
Al1 O1 1.8700(33) 3_555 n
Al1 O1 1.8700(33) -101_445 n
Al1 O1 1.8700(33) -103_445 n
F1 Al1 1.8004(32) 1_555 n
F1 Al1 1.8004(32) 2_555 n
O1 Al1 1.8700(33) 1_555 n
O1 C3 1.281(5) 1_555 n
C1 C1 1.454(11) -2_557 n
C1 C2 1.398(6) 1_555 n
C2 C1 1.398(6) 1_555 n
C2 C1 1.398(6) 2_555 n
C2 C3 1.580(10) 1_555 n
C3 O1 1.281(5) 1_555 n
C3 O1 1.281(5) 2_555 n
C3 C2 1.580(10) 1_555 n
loop_
_pd_meas_intensity_total
_pd_proc_ls_weight
_pd_proc_intensity_bkg_calc
_pd_calc_intensity_total
19.3(25) 0.0 0.00 .
16.8(22) 0.0 0.00 .
14.4(20) 0.0 0.00 .
23.2(26) 0.0 0.00 .
48(4) 0.0 0.0 .
151(7) 0.0 0.0 .
132(7) 0.0 0.0 .
855(15) 0.0 0.0 .
1546(21) 0.0 0.0 .
2946(30) 0.0 0.0 .
3471(31) 0.0 0.0 .
3417(30) 0.0 0.0 .
3369(31) 0.0 0.0 .
1207(20) 0.0 0.0 .
116(6) 0.0 0.0 .
54(4) 0.0 0.0 .
50(4) 0.0 0.0 .
39.5(33) 0.0 0.00 .
45(4) 0.0 0.0 .
69(5) 0.0 0.0 .
238(8) 0.0 0.0 .
383(10) 0.0 0.0 .
790(15) 0.0 0.0 .
1030(18) 0.0 0.0 .
1133(18) 0.0 0.0 .
1252(19) 0.0 0.0 .
1392(19) 0.0 0.0 .
1559(21) 0.0 0.0 .
1819(24) 0.0 0.0 .
1883(23) 0.0 0.0 .
2045(23) 0.0 0.0 .
2128(24) 0.0 0.0 .
1873(23) 0.0 0.0 .
1634(22) 0.0 0.0 .
1157(18) 0.0 0.0 .
686(14) 0.0 0.0 .
322(10) 0.0 0.0 .
209(8) 0.0 0.0 .
139(6) 0.0 0.0 .
89(5) 0.0 0.0 .
49(4) 0.0 0.0 .
35.2(31) 0.0 0.00 .
32.6(30) 0.0 0.00 .
32.8(30) 0.0 0.00 .
28.6(29) 0.0 0.00 .
37.4(32) 0.0 0.00 .
23.6(27) 0.0 0.00 .
25.3(27) 0.0 0.00 .
25.5(27) 0.0 0.00 .
33.5(30) 0.0 0.00 .
27.1(28) 0.0 0.00 .
30.9(32) 0.0 0.00 .
31.0(30) 0.0 0.00 .
31.8(30) 0.0 0.00 .
29.6(29) 0.0 0.00 .
31.3(30) 0.0 0.00 .
28.1(30) 0.0 0.00 .
34.2(33) 0.0 0.00 .
35.7(33) 0.0 0.00 .
29.4(33) 0.0 0.00 .
22.6(25) 0.0 0.00 .
32.5(33) 0.0 0.00 .
31.0(32) 0.0 0.00 .
25.9(27) 0.0 0.00 .
25.2(27) 0.0 0.00 .
23.2(25) 0.0 0.00 .
36.5(34) 0.0 0.00 .
32.5(31) 0.0 0.00 .
38.8(34) 0.0 0.00 .
30.0(28) 0.0 0.00 .
26.2(27) 0.0 0.00 .
33.2(31) 0.0 0.00 .
30.9(30) 0.0 0.00 .
42(4) 0.0 0.0 .
36.0(31) 0.0 0.00 .
41.9(34) 0.0 0.00 .
33.5(32) 0.0 0.00 .
29.7(35) 0.0 0.00 .
24.4(27) 0.0 0.00 .
39.2(33) 0.0 0.00 .
31.1(30) 0.0 0.00 .
33.7(32) 0.0 0.00 .
34.4(34) 0.0 0.00 .
34.0(31) 0.0 0.00 .
34.7(31) 0.0 0.00 .
43.5(35) 0.0 0.00 .
36.0(31) 0.0 0.00 .
38.0(34) 0.0 0.00 .
30.8(30) 0.0 0.00 .
32.8(30) 0.0 0.00 .
46(4) 0.0 0.0 .
45(4) 0.0 0.0 .
44(4) 0.0 0.0 .
57(4) 0.0 0.0 .
70(4) 0.0 0.0 .
71(4) 0.0 0.0 .
73(4) 0.0 0.0 .
86(5) 0.0 0.0 .
98(5) 0.0 0.0 .
98(5) 0.0 0.0 .
100(5) 0.0 0.0 .
115(6) 0.0 0.0 .
115(6) 0.0 0.0 .
133(6) 0.0 0.0 .
131(6) 0.0 0.0 .
138(6) 0.0 0.0 .
160(7) 0.0 0.0 .
168(7) 0.0 0.0 .
170(7) 0.0 0.0 .
178(7) 0.0 0.0 .
206(8) 0.0 0.0 .
199(8) 0.0 0.0 .
204(8) 0.0 0.0 .
203(7) 0.0 0.0 .
247(8) 0.0 0.0 .
234(8) 0.0 0.0 .
243(9) 0.0 0.0 .
233(8) 0.0 0.0 .
263(8) 0.0 0.0 .
260(8) 0.0 0.0 .
266(9) 0.0 0.0 .
293(10) 0.0 0.0 .
290(9) 0.0 0.0 .
315(9) 0.0 0.0 .
324(9) 0.0 0.0 .
319(10) 0.0 0.0 .
324(10) 0.0 0.0 .
348(10) 0.0 0.0 .
359(10) 0.0 0.0 .
358(10) 0.0 0.0 .
387(11) 0.0 0.0 .
386(11) 0.0 0.0 .
388(11) 0.0 0.0 .
415(11) 0.0 0.0 .
381(10) 0.0 0.0 .
392(11) 0.0 0.0 .
418(11) 0.0 0.0 .
436(11) 0.0 0.0 .
415(11) 0.0 0.0 .
449(11) 0.0 0.0 .
458(11) 0.0 0.0 .
464(12) 0.0 0.0 .
491(12) 0.0 0.0 .
481(11) 0.0 0.0 .
485(12) 0.0 0.0 .
479(12) 0.0 0.0 .
494(12) 0.0 0.0 .
498(12) 0.0 0.0 .
498(12) 0.0 0.0 .
514(12) 0.0 0.0 .
515(12) 0.0 0.0 .
531(12) 0.0 0.0 .
529(12) 0.0 0.0 .
532(12) 0.0 0.0 .
526(12) 0.0 0.0 .
535(13) 0.0 0.0 .
508(12) 0.0 0.0 .
529(12) 0.0 0.0 .
518(12) 0.0 0.0 .
536(12) 0.0 0.0 .
536(13) 0.0 0.0 .
549(13) 0.0 0.0 .
577(13) 0.0 0.0 .
556(12) 0.0 0.0 .
561(13) 0.0 0.0 .
577(13) 0.0 0.0 .
609(13) 0.0 0.0 .
553(12) 0.0 0.0 .
566(12) 0.0 0.0 .
592(13) 0.0 0.0 .
570(13) 0.0 0.0 .
569(13) 0.0 0.0 .
633(13) 0.0 0.0 .
582(13) 0.0 0.0 .
589(13) 0.0 0.0 .
605(14) 0.0 0.0 .
616(13) 0.0 0.0 .
569(12) 0.0 0.0 .
605(13) 0.0 0.0 .
621(13) 0.0 0.0 .
656(14) 0.0 0.0 .
628(13) 0.0 0.0 .
618(13) 0.0 0.0 .
603(13) 0.0 0.0 .
595(13) 0.0 0.0 .
634(14) 0.0 0.0 .
648(14) 0.0 0.0 .
674(13) 0.0 0.0 .
636(13) 0.0 0.0 .
647(14) 0.0 0.0 .
706(15) 0.0 0.0 .
629(13) 0.0 0.0 .
660(13) 0.0 0.0 .
643(13) 0.0 0.0 .
621(13) 0.0 0.0 .
657(14) 0.0 0.0 .
657(14) 0.0 0.0 .
674(14) 0.0 0.0 .
697(14) 0.0 0.0 .
688(14) 0.0 0.0 .
679(14) 0.0 0.0 .
684(14) 0.0 0.0 .
673(13) 0.0 0.0 .
680(14) 0.0 0.0 .
678(14) 0.0 0.0 .
682(14) 0.0 0.0 .
704(14) 0.0 0.0 .
727(14) 0.0 0.0 .
690(14) 0.0 0.0 .
691(14) 0.0 0.0 .
718(14) 0.0 0.0 .
720(14) 0.0 0.0 .
713(14) 0.0 0.0 .
702(14) 0.0 0.0 .
713(15) 0.0 0.0 .
686(14) 0.0 0.0 .
720(14) 0.0 0.0 .
748(14) 0.0 0.0 .
749(15) 0.0 0.0 .
743(15) 0.0 0.0 .
740(15) 0.0 0.0 .
790(15) 0.0 0.0 .
809(15) 0.0 0.0 .
726(14) 0.0 0.0 .
781(15) 0.0 0.0 .
788(15) 0.0 0.0 .
793(15) 0.0 0.0 .
781(15) 0.0 0.0 .
808(15) 0.0 0.0 .
785(15) 0.0 0.0 .
790(15) 0.0 0.0 .
778(14) 0.0 0.0 .
787(15) 0.0 0.0 .
797(15) 0.0 0.0 .
749(15) 0.0 0.0 .
796(15) 0.0 0.0 .
786(14) 0.0 0.0 .
793(15) 0.0 0.0 .
777(15) 0.0 0.0 .
809(16) 0.0 0.0 .
823(15) 0.0 0.0 .
837(15) 0.0 0.0 .
783(15) 0.0 0.0 .
784(15) 0.0 0.0 .
806(15) 0.0 0.0 .
850(16) 0.0 0.0 .
827(15) 0.0 0.0 .
805(15) 0.0 0.0 .
859(16) 0.0 0.0 .
846(16) 0.0 0.0 .
831(16) 0.0 0.0 .
812(15) 0.0 0.0 .
817(15) 0.0 0.0 .
839(16) 0.0 0.0 .
875(16) 0.0 0.0 .
829(15) 0.0 0.0 .
852(15) 0.0 0.0 .
869(16) 0.0 0.0 .
832(16) 0.0 0.0 .
846(16) 0.0 0.0 .
823(15) 0.0 0.0 .
862(15) 0.0 0.0 .
884(16) 0.0 0.0 .
910(17) 0.0 0.0 .
866(16) 0.0 0.0 .
863(15) 0.0 0.0 .
848(15) 0.0 0.0 .
871(16) 0.0 0.0 .
893(16) 0.0 0.0 .
880(16) 0.0 0.0 .
879(15) 0.0 0.0 .
870(15) 0.0 0.0 .
882(16) 0.0 0.0 .
890(17) 0.0 0.0 .
870(16) 0.0 0.0 .
882(16) 0.0 0.0 .
865(15) 0.0 0.0 .
857(16) 0.0 0.0 .
848(16) 0.0 0.0 .
894(16) 0.0 0.0 .
926(16) 0.0 0.0 .
901(16) 0.0 0.0 .
915(16) 0.0 0.0 .
912(17) 0.0 0.0 .
913(16) 0.0 0.0 .
908(16) 0.0 0.0 .
880(16) 0.0 0.0 .
915(16) 0.0 0.0 .
903(17) 0.0 0.0 .
901(16) 0.0 0.0 .
904(16) 0.0 0.0 .
927(16) 0.0 0.0 .
911(16) 0.0 0.0 .
964(17) 0.0 0.0 .
867(16) 0.0 0.0 .
906(16) 0.0 0.0 .
926(16) 0.0 0.0 .
883(16) 0.0 0.0 .
935(17) 0.0 0.0 .
911(16) 0.0 0.0 .
935(16) 0.0 0.0 .
972(17) 0.0 0.0 .
920(16) 0.0 0.0 .
939(17) 0.0 0.0 .
973(17) 0.0 0.0 .
954(16) 0.0 0.0 .
951(16) 0.0 0.0 .
925(16) 0.0 0.0 .
960(17) 0.0 0.0 .
945(16) 0.0 0.0 .
929(16) 0.0 0.0 .
975(17) 0.0 0.0 .
986(17) 0.0 0.0 .
950(17) 0.0 0.0 .
931(16) 0.0 0.0 .
920(16) 0.0 0.0 .
953(17) 0.0 0.0 .
1001(18) 0.0 0.0 .
973(17) 0.0 0.0 .
977(16) 0.0 0.0 .
992(16) 0.0 0.0 .
947(16) 0.0 0.0 .
993(17) 0.0 0.0 .
988(17) 0.0 0.0 .
953(16) 0.0 0.0 .
990(16) 0.0 0.0 .
934(16) 0.0 0.0 .
955(17) 0.0 0.0 .
947(16) 0.0 0.0 .
982(16) 0.0 0.0 .
1005(16) 0.0 0.0 .
1002(17) 0.0 0.0 .
1013(18) 0.0 0.0 .
1012(17) 0.0 0.0 .
940(16) 0.0 0.0 .
1008(17) 0.0 0.0 .
994(17) 0.0 0.0 .
1022(18) 0.0 0.0 .
1058(18) 0.0 0.0 .
1007(16) 0.0 0.0 .
1016(17) 0.0 0.0 .
1078(18) 0.0 0.0 .
1045(18) 0.0 0.0 .
1041(18) 0.0 0.0 .
1047(17) 0.0 0.0 .
1025(17) 0.0 0.0 .
1075(18) 0.0 0.0 .
1101(18) 0.0 0.0 .
1049(17) 0.0 0.0 .
1066(17) 0.0 0.0 .
1069(18) 0.0 0.0 .
1062(18) 0.0 0.0 .
1060(18) 0.0 0.0 .
1095(18) 0.0 0.0 .
1093(17) 0.0 0.0 .
1084(18) 0.0 0.0 .
1119(18) 0.0 0.0 .
1127(18) 0.0 0.0 .
1122(18) 0.0 0.0 .
1118(17) 0.0 0.0 .
1094(18) 0.0 0.0 .
1125(18) 0.0 0.0 .
1107(18) 0.0 0.0 .
1099(17) 0.0 0.0 .
1182(18) 0.0 0.0 .
1139(18) 0.0 0.0 .
1143(19) 0.0 0.0 .
1111(18) 0.0 0.0 .
1130(18) 0.0 0.0 .
1138(18) 0.0 0.0 .
1151(18) 0.0 0.0 .
1150(19) 0.0 0.0 .
1146(18) 0.0 0.0 .
1190(18) 0.0 0.0 .
1204(18) 0.0 0.0 .
1167(18) 0.0 0.0 .
1192(19) 0.0 0.0 .
1169(18) 0.0 0.0 .
1217(18) 0.0 0.0 .
1196(18) 0.0 0.0 .
1160(18) 0.0 0.0 .
1169(19) 0.0 0.0 .
1224(19) 0.0 0.0 .
1209(18) 0.0 0.0 .
1168(18) 0.0 0.0 .
1193(18) 0.0 0.0 .
1244(20) 0.0 0.0 .
1190(18) 0.0 0.0 .
1253(18) 0.0 0.0 .
1220(18) 0.0 0.0 .
1229(19) 0.0 0.0 .
1300(20) 0.0 0.0 .
1242(19) 0.0 0.0 .
1229(18) 0.0 0.0 .
1246(19) 0.0 0.0 .
1214(19) 0.0 0.0 .
1222(19) 0.0 0.0 .
1249(19) 0.0 0.0 .
1264(18) 0.0 0.0 .
1238(19) 0.0 0.0 .
1259(19) 0.0 0.0 .
1259(19) 0.0 0.0 .
1261(19) 0.0 0.0 .
1273(19) 0.0 0.0 .
1252(19) 0.0 0.0 .
1243(19) 0.0 0.0 .
1251(19) 0.0 0.0 .
1285(19) 0.0 0.0 .
1269(18) 0.0 0.0 .
1227(19) 0.0 0.0 .
1248(19) 0.0 0.0 .
1272(19) 0.0 0.0 .
1281(19) 0.0 0.0 .
1266(19) 0.0 0.0 .
1272(19) 0.0 0.0 .
1243(19) 0.0 0.0 .
1216(19) 0.0 0.0 .
1316(19) 0.0 0.0 .
1304(19) 0.0 0.0 .
1303(20) 0.0 0.0 .
1290(20) 0.0 0.0 .
1272(19) 0.0 0.0 .
1286(19) 0.0 0.0 .
1300(19) 0.0 0.0 .
1242(19) 0.0 0.0 .
1329(20) 0.0 0.0 .
1281(19) 0.0 0.0 .
1269(18) 0.0 0.0 .
1252(18) 0.0 0.0 .
1306(19) 0.0 0.0 .
1310(20) 0.0 0.0 .
1267(19) 0.0 0.0 .
1282(19) 0.0 0.0 .
1253(18) 0.0 0.0 .
1327(19) 0.0 0.0 .
1336(20) 0.0 0.0 .
1278(19) 0.0 0.0 .
1310(19) 0.0 0.0 .
1292(19) 0.0 0.0 .
1346(20) 0.0 0.0 .
1347(20) 0.0 0.0 .
1302(19) 0.0 0.0 .
1277(19) 0.0 0.0 .
1348(19) 0.0 0.0 .
1325(20) 0.0 0.0 .
1277(19) 0.0 0.0 .
1330(20) 0.0 0.0 .
1327(19) 0.0 0.0 .
1291(19) 0.0 0.0 .
1301(19) 0.0 0.0 .
1345(20) 0.0 0.0 .
1344(20) 0.0 0.0 .
1321(19) 0.0 0.0 .
1278(19) 0.0 0.0 .
1341(20) 0.0 0.0 .
1306(20) 0.0 0.0 .
1356(20) 0.0 0.0 .
1302(19) 0.0 0.0 .
1303(19) 0.0 0.0 .
1287(20) 0.0 0.0 .
1294(19) 0.0 0.0 .
1300(19) 0.0 0.0 .
1280(19) 0.0 0.0 .
1319(20) 0.0 0.0 .
1331(20) 0.0 0.0 .
1338(20) 0.0 0.0 .
1326(19) 0.0 0.0 .
1311(19) 0.0 0.0 .
1341(20) 0.0 0.0 .
1291(20) 0.0 0.0 .
1316(20) 0.0 0.0 .
1243(18) 0.0 0.0 .
1299(19) 0.0 0.0 .
1328(20) 0.0 0.0 .
1337(20) 0.0 0.0 .
1304(19) 0.0 0.0 .
1321(19) 0.0 0.0 .
1276(19) 0.0 0.0 .
1287(19) 0.0 0.0 .
1340(21) 0.0 0.0 .
1301(19) 0.0 0.0 .
1318(19) 0.0 0.0 .
1330(19) 0.0 0.0 .
1344(20) 0.0 0.0 .
1343(20) 0.0 0.0 .
1300(19) 0.0 0.0 .
1320(19) 0.0 0.0 .
1313(19) 0.0 0.0 .
1323(19) 0.0 0.0 .
1306(20) 0.0 0.0 .
1273(19) 0.0 0.0 .
1286(19) 0.0 0.0 .
1328(19) 0.0 0.0 .
1301(19) 0.0 0.0 .
1309(20) 0.0 0.0 .
1336(20) 0.0 0.0 .
1331(19) 0.0 0.0 .
1310(19) 0.0 0.0 .
1316(20) 0.0 0.0 .
1369(20) 0.0 0.0 .
1309(19) 0.0 0.0 .
1317(19) 0.0 0.0 .
1334(19) 0.0 0.0 .
1365(20) 0.0 0.0 .
1323(19) 0.0 0.0 .
1287(19) 0.0 0.0 .
1325(19) 0.0 0.0 .
1293(19) 0.0 0.0 .
1272(19) 0.0 0.0 .
1313(20) 0.0 0.0 .
1328(19) 0.0 0.0 .
1335(19) 0.0 0.0 .
1307(20) 0.0 0.0 .
1283(19) 0.0 0.0 .
1256(19) 0.0 0.0 .
1279(19) 0.0 0.0 .
1302(19) 0.0 0.0 .
1292(19) 0.0 0.0 .
1299(20) 0.0 0.0 .
1334(20) 0.0 0.0 .
1310(19) 0.0 0.0 .
1304(19) 0.0 0.0 .
1263(19) 0.0 0.0 .
1249(20) 0.0 0.0 .
1316(20) 0.0 0.0 .
1294(19) 0.0 0.0 .
1254(18) 0.0 0.0 .
1231(19) 0.0 0.0 .
1291(20) 0.0 0.0 .
1294(19) 0.0 0.0 .
1304(19) 0.0 0.0 .
1298(19) 0.0 0.0 .
1330(19) 0.0 0.0 .
1318(20) 0.0 0.0 .
1254(19) 0.0 0.0 .
1269(19) 0.0 0.0 .
1302(19) 0.0 0.0 .
1290(20) 0.0 0.0 .
1312(20) 0.0 0.0 .
1340(20) 0.0 0.0 .
1350(19) 0.0 0.0 .
1329(19) 0.0 0.0 .
1308(19) 0.0 0.0 .
1341(20) 0.0 0.0 .
1317(20) 0.0 0.0 .
1272(18) 0.0 0.0 .
1250(19) 0.0 0.0 .
1256(19) 0.0 0.0 .
1341(20) 0.0 0.0 .
1339(20) 0.0 0.0 .
1270(18) 0.0 0.0 .
1260(19) 0.0 0.0 .
1289(20) 0.0 0.0 .
1248(19) 0.0 0.0 .
1325(19) 0.0 0.0 .
1243(18) 0.0 0.0 .
1254(19) 0.0 0.0 .
1276(20) 0.0 0.0 .
1316(20) 0.0 0.0 .
1282(19) 0.0 0.0 .
1255(18) 0.0 0.0 .
1318(19) 0.0 0.0 .
1295(20) 0.0 0.0 .
1291(19) 0.0 0.0 .
1232(18) 0.0 0.0 .
1278(19) 0.0 0.0 .
1280(19) 0.0 0.0 .
1259(19) 0.0 0.0 .
1252(19) 0.0 0.0 .
1252(18) 0.0 0.0 .
1292(19) 0.0 0.0 .
1256(19) 0.0 0.0 .
1270(20) 0.0 0.0 .
1285(19) 0.0 0.0 .
1281(19) 0.0 0.0 .
1270(19) 0.0 0.0 .
1255(19) 0.0 0.0 .
1237(20) 0.0 0.0 .
1235(19) 0.0 0.0 .
1281(19) 0.0 0.0 .
1210(18) 0.0 0.0 .
1200(19) 0.0 0.0 .
1240(20) 0.0 0.0 .
1267(19) 0.0 0.0 .
1241(18) 0.0 0.0 .
1211(18) 0.0 0.0 .
1218(19) 0.0 0.0 .
1228(19) 0.0 0.0 .
1234(19) 0.0 0.0 .
1241(18) 0.0 0.0 .
1225(18) 0.0 0.0 .
1228(19) 0.0 0.0 .
1254(20) 0.0 0.0 .
1218(19) 0.0 0.0 .
1282(19) 0.0 0.0 .
1305(19) 0.0 0.0 .
1231(19) 0.0 0.0 .
1199(19) 0.0 0.0 .
1210(19) 0.0 0.0 .
1220(18) 0.0 0.0 .
1171(18) 0.0 0.0 .
1261(19) 0.0 0.0 .
1203(19) 0.0 0.0 .
1202(19) 0.0 0.0 .
1157(18) 0.0 0.0 .
1221(19) 0.0 0.0 .
1179(19) 0.0 0.0 .
1203(19) 0.0 0.0 .
1195(18) 0.0 0.0 .
1251(18) 0.0 0.0 .
1228(19) 0.0 0.0 .
1219(19) 0.0 0.0 .
1236(19) 0.0 0.0 .
1243(18) 0.0 0.0 .
1251(18) 0.0 0.0 .
1218(19) 0.0 0.0 .
1218(19) 0.0 0.0 .
1239(19) 0.0 0.0 .
1231(18) 0.0 0.0 .
1160(18) 0.0 0.0 .
1199(19) 0.0 0.0 .
1200(19) 0.0 0.0 .
1193(18) 0.0 0.0 .
1204(18) 0.0 0.0 .
1239(18) 0.0 0.0 .
1229(19) 0.0 0.0 .
1207(19) 0.0 0.0 .
1215(19) 0.0 0.0 .
1194(18) 0.0 0.0 .
1237(18) 0.0 0.0 .
1207(19) 0.0 0.0 .
1183(19) 0.0 0.0 .
1242(19) 0.0 0.0 .
1273(19) 0.0 0.0 .
1269(18) 0.0 0.0 .
1178(18) 0.0 0.0 .
1167(19) 0.0 0.0 .
1212(19) 0.0 0.0 .
1189(18) 0.0 0.0 .
1186(18) 0.0 0.0 .
1219(19) 0.0 0.0 .
1213(19) 0.0 0.0 .
1179(19) 0.0 0.0 .
1210(18) 0.0 0.0 .
1220(18) 0.0 0.0 .
1192(19) 0.0 0.0 .
1209(19) 0.0 0.0 .
1179(18) 0.0 0.0 .
1127(17) 0.0 0.0 .
1186(18) 0.0 0.0 .
1191(19) 0.0 0.0 .
1212(19) 0.0 0.0 .
1164(18) 0.0 0.0 .
1168(18) 0.0 0.0 .
1161(18) 0.0 0.0 .
1175(19) 0.0 0.0 .
1130(18) 0.0 0.0 .
1148(18) 0.0 0.0 .
1142(18) 0.0 0.0 .
1192(19) 0.0 0.0 .
1192(19) 0.0 0.0 .
1166(18) 0.0 0.0 .
1126(18) 0.0 0.0 .
1168(18) 0.0 0.0 .
1125(18) 0.0 0.0 .
1132(18) 0.0 0.0 .
1117(18) 0.0 0.0 .
1137(18) 0.0 0.0 .
1161(18) 0.0 0.0 .
1159(18) 0.0 0.0 .
1173(19) 0.0 0.0 .
1167(18) 0.0 0.0 .
1175(18) 0.0 0.0 .
1082(17) 0.0 0.0 .
1146(18) 0.0 0.0 .
1097(18) 0.0 0.0 .
1129(18) 0.0 0.0 .
1110(17) 0.0 0.0 .
1128(17) 0.0 0.0 .
1151(18) 0.0 0.0 .
1164(19) 0.0 0.0 .
1126(18) 0.0 0.0 .
1096(17) 0.0 0.0 .
1097(17) 0.0 0.0 .
1130(18) 0.0 0.0 .
1144(19) 0.0 0.0 .
1132(18) 0.0 0.0 .
1109(17) 0.0 0.0 .
1121(17) 0.0 0.0 .
1149(18) 0.0 0.0 .
1121(19) 0.0 0.0 .
1116(18) 0.0 0.0 .
1129(17) 0.0 0.0 .
1143(18) 0.0 0.0 .
1099(18) 0.0 0.0 .
1127(18) 0.0 0.0 .
1150(18) 0.0 0.0 .
1105(17) 0.0 0.0 .
1119(18) 0.0 0.0 .
1150(18) 0.0 0.0 .
1106(18) 0.0 0.0 .
1131(18) 0.0 0.0 .
1104(17) 0.0 0.0 .
1149(18) 0.0 0.0 .
1084(18) 0.0 0.0 .
1098(18) 0.0 0.0 .
1124(18) 0.0 0.0 .
1096(17) 0.0 0.0 .
1154(18) 0.0 0.0 .
1133(18) 0.0 0.0 .
1130(18) 0.0 0.0 .
1127(18) 0.0 0.0 .
1104(17) 0.0 0.0 .
1090(18) 0.0 0.0 .
1117(18) 0.0 0.0 .
1132(18) 0.0 0.0 .
1102(17) 0.0 0.0 .
1111(17) 0.0 0.0 .
1115(18) 0.0 0.0 .
1107(18) 0.0 0.0 .
1099(18) 0.0 0.0 .
1108(17) 0.0 0.0 .
1104(17) 0.0 0.0 .
1102(18) 0.0 0.0 .
1099(18) 0.0 0.0 .
1089(18) 0.0 0.0 .
1112(17) 0.0 0.0 .
1067(17) 0.0 0.0 .
1080(18) 0.0 0.0 .
1056(18) 0.0 0.0 .
1078(18) 0.0 0.0 .
1050(17) 0.0 0.0 .
1079(17) 0.0 0.0 .
1049(17) 0.0 0.0 .
1082(18) 0.0 0.0 .
1087(18) 0.0 0.0 .
1069(17) 0.0 0.0 .
1074(17) 0.0 0.0 .
1094(18) 0.0 0.0 .
1077(18) 0.0 0.0 .
1045(17) 0.0 0.0 .
1101(17) 0.0 0.0 .
1092(17) 0.0 0.0 .
1073(18) 0.0 0.0 .
1041(18) 0.0 0.0 .
1062(18) 0.0 0.0 .
1064(17) 0.0 0.0 .
1023(17) 0.0 0.0 .
1033(17) 0.0 0.0 .
1055(18) 0.0 0.0 .
1075(17) 0.0 0.0 .
1048(17) 0.0 0.0 .
1052(17) 0.0 0.0 .
1081(18) 0.0 0.0 .
1065(18) 0.0 0.0 .
1050(17) 0.0 0.0 .
1070(17) 0.0 0.0 .
1004(17) 0.0 0.0 .
1026(17) 0.0 0.0 .
1063(18) 0.0 0.0 .
1082(18) 0.0 0.0 .
1036(17) 0.0 0.0 .
1050(17) 0.0 0.0 .
1037(18) 0.0 0.0 .
1027(17) 0.0 0.0 .
1063(17) 0.0 0.0 .
1054(17) 0.0 0.0 .
1079(18) 0.0 0.0 .
1031(18) 0.0 0.0 .
1053(17) 0.0 0.0 .
1058(17) 0.0 0.0 .
985(16) 0.0 0.0 .
1083(18) 0.0 0.0 .
1059(18) 0.0 0.0 .
1020(17) 0.0 0.0 .
1032(17) 0.0 0.0 .
1048(17) 0.0 0.0 .
1021(17) 0.0 0.0 .
977(17) 0.0 0.0 .
1065(18) 0.0 0.0 .
1015(17) 0.0 0.0 .
1032(17) 0.0 0.0 .
1068(18) 0.0 0.0 .
1056(18) 0.0 0.0 .
1056(17) 0.0 0.0 .
1047(17) 0.0 0.0 .
1006(16) 0.0 0.0 .
1047(17) 0.0 0.0 .
1041(18) 0.0 0.0 .
1032(17) 0.0 0.0 .
1044(17) 0.0 0.0 .
1063(17) 0.0 0.0 .
1033(17) 0.0 0.0 .
1017(17) 0.0 0.0 .
1057(18) 0.0 0.0 .
1004(16) 0.0 0.0 .
1037(17) 0.0 0.0 .
1023(17) 0.0 0.0 .
1030(18) 0.0 0.0 .
989(17) 0.0 0.0 .
1041(17) 0.0 0.0 .
1014(17) 0.0 0.0 .
1019(17) 0.0 0.0 .
972(17) 0.0 0.0 .
997(17) 0.0 0.0 .
970(16) 0.0 0.0 .
1010(17) 0.0 0.0 .
1063(18) 0.0 0.0 .
1045(17) 0.0 0.0 .
1006(17) 0.0 0.0 .
1020(17) 0.0 0.0 .
996(17) 0.0 0.0 .
973(17) 0.0 0.0 .
994(17) 0.0 0.0 .
985(16) 0.0 0.0 .
1025(17) 0.0 0.0 .
1018(17) 0.0 0.0 .
1012(17) 0.0 0.0 .
979(17) 0.0 0.0 .
1001(17) 0.0 0.0 .
970(16) 0.0 0.0 .
1007(17) 0.0 0.0 .
989(17) 0.0 0.0 .
1007(17) 0.0 0.0 .
1010(17) 0.0 0.0 .
1012(16) 0.0 0.0 .
976(17) 0.0 0.0 .
1040(18) 0.0 0.0 .
1006(17) 0.0 0.0 .
1015(17) 0.0 0.0 .
988(16) 0.0 0.0 .
958(17) 0.0 0.0 .
962(17) 0.0 0.0 .
930(16) 0.0 0.0 .
1019(17) 0.0 0.0 .
971(16) 0.0 0.0 .
963(17) 0.0 0.0 .
1029(18) 0.0 0.0 .
992(17) 0.0 0.0 .
972(16) 0.0 0.0 .
1000(16) 0.0 0.0 .
960(17) 0.0 0.0 .
996(17) 0.0 0.0 .
976(17) 0.0 0.0 .
1007(16) 0.0 0.0 .
1021(17) 0.0 0.0 .
966(17) 0.0 0.0 .
1020(18) 0.0 0.0 .
982(17) 0.0 0.0 .
962(16) 0.0 0.0 .
1007(17) 0.0 0.0 .
978(17) 0.0 0.0 .
932(17) 0.0 0.0 .
983(17) 0.0 0.0 .
966(16) 0.0 0.0 .
923(16) 0.0 0.0 .
964(17) 0.0 0.0 .
952(17) 0.0 0.0 .
941(16) 0.0 0.0 .
945(16) 0.0 0.0 .
943(17) 0.0 0.0 .
956(17) 0.0 0.0 .
957(17) 0.0 0.0 .
981(17) 0.0 0.0 .
954(16) 0.0 0.0 .
968(17) 0.0 0.0 .
990(17) 0.0 0.0 .
985(17) 0.0 0.0 .
923(16) 0.0 0.0 .
956(16) 0.0 0.0 .
956(17) 0.0 0.0 .
1018(18) 0.0 0.0 .
980(17) 0.0 0.0 .
940(16) 0.0 0.0 .
927(16) 0.0 0.0 .
961(17) 0.0 0.0 .
946(17) 0.0 0.0 .
966(17) 0.0 0.0 .
937(16) 0.0 0.0 .
909(16) 0.0 0.0 .
929(17) 0.0 0.0 .
890(17) 0.0 0.0 .
969(17) 0.0 0.0 .
981(16) 0.0 0.0 .
964(16) 0.0 0.0 .
990(17) 0.0 0.0 .
1001(18) 0.0 0.0 .
951(16) 0.0 0.0 .
895(16) 0.0 0.0 .
911(16) 0.0 0.0 .
921(16) 0.0 0.0 .
900(17) 0.0 0.0 .
927(16) 0.0 0.0 .
935(16) 0.0 0.0 .
932(16) 0.0 0.0 .
938(17) 0.0 0.0 .
943(17) 0.0 0.0 .
959(17) 0.0 0.0 .
919(16) 0.0 0.0 .
961(16) 0.0 0.0 .
893(16) 0.0 0.0 .
939(17) 0.0 0.0 .
921(16) 0.0 0.0 .
944(16) 0.0 0.0 .
955(16) 0.0 0.0 .
952(17) 0.0 0.0 .
938(17) 0.0 0.0 .
950(16) 0.0 0.0 .
965(16) 0.0 0.0 .
936(16) 0.0 0.0 .
937(17) 0.0 0.0 .
954(17) 0.0 0.0 .
970(16) 0.0 0.0 .
927(16) 0.0 0.0 .
889(16) 0.0 0.0 .
896(16) 0.0 0.0 .
918(16) 0.0 0.0 .
877(16) 0.0 0.0 .
908(16) 0.0 0.0 .
885(16) 0.0 0.0 .
904(16) 0.0 0.0 .
970(17) 0.0 0.0 .
922(16) 0.0 0.0 .
914(16) 0.0 0.0 .
903(16) 0.0 0.0 .
919(17) 0.0 0.0 .
885(16) 0.0 0.0 .
894(16) 0.0 0.0 .
948(16) 0.0 0.0 .
917(16) 0.0 0.0 .
887(16) 0.0 0.0 .
897(16) 0.0 0.0 .
924(16) 0.0 0.0 .
891(16) 0.0 0.0 .
923(16) 0.0 0.0 .
896(16) 0.0 0.0 .
921(17) 0.0 0.0 .
888(15) 0.0 0.0 .
948(16) 0.0 0.0 .
900(16) 0.0 0.0 .
857(16) 0.0 0.0 .
865(16) 0.0 0.0 .
866(15) 0.0 0.0 .
910(16) 0.0 0.0 .
899(16) 0.0 0.0 .
932(17) 0.0 0.0 .
917(16) 0.0 0.0 .
894(16) 0.0 0.0 .
891(16) 0.0 0.0 .
866(16) 0.0 0.0 .
876(16) 0.0 0.0 .
872(16) 0.0 0.0 .
877(15) 0.0 0.0 .
911(16) 0.0 0.0 .
888(16) 0.0 0.0 .
927(17) 0.0 0.0 .
889(16) 0.0 0.0 .
931(16) 0.0 0.0 .
890(16) 0.0 0.0 .
889(16) 0.0 0.0 .
930(16) 0.0 0.0 .
881(16) 0.0 0.0 .
889(15) 0.0 0.0 .
867(16) 0.0 0.0 .
883(16) 0.0 0.0 .
878(16) 0.0 0.0 .
860(15) 0.0 0.0 .
881(15) 0.0 0.0 .
862(16) 0.0 0.0 .
856(16) 0.0 0.0 .
883(16) 0.0 0.0 .
876(15) 0.0 0.0 .
922(16) 0.0 0.0 .
924(16) 0.0 0.0 .
835(16) 0.0 0.0 .
867(16) 0.0 0.0 .
880(15) 0.0 0.0 .
858(15) 0.0 0.0 .
865(16) 0.0 0.0 .
862(16) 0.0 0.0 .
900(16) 0.0 0.0 .
877(15) 0.0 0.0 .
864(15) 0.0 0.0 .
856(16) 0.0 0.0 .
839(16) 0.0 0.0 .
870(16) 0.0 0.0 .
866(15) 0.0 0.0 .
894(16) 0.0 0.0 .
861(16) 0.0 0.0 .
854(16) 0.0 0.0 .
818(15) 0.0 0.0 .
874(15) 0.0 0.0 .
864(15) 0.0 0.0 .
831(15) 0.0 0.0 .
844(16) 0.0 0.0 .
875(16) 0.0 0.0 .
858(15) 0.0 0.0 .
844(15) 0.0 0.0 .
849(16) 0.0 0.0 .
872(16) 0.0 0.0 .
862(16) 0.0 0.0 .
824(15) 0.0 0.0 .
826(15) 0.0 0.0 .
839(16) 0.0 0.0 .
834(16) 0.0 0.0 .
858(16) 0.0 0.0 .
832(15) 0.0 0.0 .
848(16) 0.0 0.0 .
839(16) 0.0 0.0 .
833(16) 0.0 0.0 .
872(16) 0.0 0.0 .
850(15) 0.0 0.0 .
855(16) 0.0 0.0 .
797(15) 0.0 0.0 .
821(15) 0.0 0.0 .
860(16) 0.0 0.0 .
834(15) 0.0 0.0 .
807(15) 0.0 0.0 .
786(15) 0.0 0.0 .
796(15) 0.0 0.0 .
858(15) 0.0 0.0 .
823(15) 0.0 0.0 .
847(16) 0.0 0.0 .
848(16) 0.0 0.0 .
824(15) 0.0 0.0 .
833(15) 0.0 0.0 .
885(15) 0.0 0.0 .
813(15) 0.0 0.0 .
822(16) 0.0 0.0 .
837(16) 0.0 0.0 .
843(15) 0.0 0.0 .
862(15) 0.0 0.0 .
823(15) 0.0 0.0 .
783(15) 0.0 0.0 .
842(15) 0.0 0.0 .
838(15) 0.0 0.0 .
829(15) 0.0 0.0 .
790(15) 0.0 0.0 .
823(16) 0.0 0.0 .
825(15) 0.0 0.0 .
847(15) 0.0 0.0 .
830(15) 0.0 0.0 .
803(15) 0.0 0.0 .
808(16) 0.0 0.0 .
797(15) 0.0 0.0 .
803(15) 0.0 0.0 .
806(15) 0.0 0.0 .
801(15) 0.0 0.0 .
837(16) 0.0 0.0 .
794(15) 0.0 0.0 .
814(15) 0.0 0.0 .
821(15) 0.0 0.0 .
821(15) 0.0 0.0 .
809(16) 0.0 0.0 .
795(15) 0.0 0.0 .
823(15) 0.0 0.0 .
788(15) 0.0 0.0 .
835(16) 0.0 0.0 .
802(15) 0.0 0.0 .
820(15) 0.0 0.0 .
802(15) 0.0 0.0 .
829(15) 0.0 0.0 .
805(15) 0.0 0.0 .
818(15) 0.0 0.0 .
815(15) 0.0 0.0 .
817(15) 0.0 0.0 .
835(16) 0.0 0.0 .
811(15) 0.0 0.0 .
800(15) 0.0 0.0 .
794(15) 0.0 0.0 .
769(14) 0.0 0.0 .
776(15) 0.0 0.0 .
761(15) 0.0 0.0 .
788(15) 0.0 0.0 .
739(14) 0.0 0.0 .
786(15) 0.0 0.0 .
789(15) 0.0 0.0 .
777(15) 0.0 0.0 .
809(15) 0.0 0.0 .
835(15) 0.0 0.0 .
773(14) 0.0 0.0 .
741(14) 0.0 0.0 .
799(16) 0.0 0.0 .
780(15) 0.0 0.0 .
785(15) 0.0 0.0 .
770(14) 0.0 0.0 .
770(15) 0.0 0.0 .
827(16) 0.0 0.0 .
787(15) 0.0 0.0 .
796(15) 0.0 0.0 .
774(15) 0.0 0.0 .
745(15) 0.0 0.0 .
748(15) 0.0 0.0 .
729(14) 0.0 0.0 .
767(14) 0.0 0.0 .
778(15) 0.0 0.0 .
784(15) 0.0 0.0 .
768(15) 0.0 0.0 .
737(15) 0.0 0.0 .
826(15) 0.0 0.0 .
754(14) 0.0 0.0 .
770(15) 0.0 0.0 .
775(15) 0.0 0.0 .
792(15) 0.0 0.0 .
770(14) 0.0 0.0 .
732(14) 0.0 0.0 .
751(15) 0.0 0.0 .
759(15) 0.0 0.0 .
779(15) 0.0 0.0 .
782(14) 0.0 0.0 .
758(15) 0.0 0.0 .
758(15) 0.0 0.0 .
761(15) 0.0 0.0 .
764(15) 0.0 0.0 .
758(14) 0.0 0.0 .
786(15) 0.0 0.0 .
752(15) 0.0 0.0 .
746(15) 0.0 0.0 .
747(14) 0.0 0.0 .
797(15) 0.0 0.0 .
769(15) 0.0 0.0 .
768(15) 0.0 0.0 .
767(15) 0.0 0.0 .
771(15) 0.0 0.0 .
723(14) 0.0 0.0 .
751(15) 0.0 0.0 .
729(15) 0.0 0.0 .
794(15) 0.0 0.0 .
787(15) 0.0 0.0 .
775(14) 0.0 0.0 .
775(15) 0.0 0.0 .
763(15) 0.0 0.0 .
758(15) 0.0 0.0 .
730(14) 0.0 0.0 .
769(14) 0.0 0.0 .
776(15) 0.0 0.0 .
764(15) 0.0 0.0 .
758(15) 0.0 0.0 .
755(14) 0.0 0.0 .
739(14) 0.0 0.0 .
774(15) 0.0 0.0 .
738(15) 0.0 0.0 .
759(15) 0.0 0.0 .
761(14) 0.0 0.0 .
751(14) 0.0 0.0 .
740(15) 0.0 0.0 .
722(15) 0.0 0.0 .
745(15) 0.0 0.0 .
767(14) 0.0 0.0 .
724(14) 0.0 0.0 .
761(15) 0.0 0.0 .
723(15) 0.0 0.0 .
737(15) 0.0 0.0 .
801(15) 0.0 0.0 .
727(14) 0.0 0.0 .
705(14) 0.0 0.0 .
718(15) 0.0 0.0 .
752(15) 0.0 0.0 .
794(15) 0.0 0.0 .
771(15) 0.0 0.0 .
750(15) 0.0 0.0 .
704(14) 0.0 0.0 .
698(14) 0.0 0.0 .
737(14) 0.0 0.0 .
735(15) 0.0 0.0 .
740(15) 0.0 0.0 .
717(14) 0.0 0.0 .
741(14) 0.0 0.0 .
725(14) 0.0 0.0 .
764(15) 0.0 0.0 .
706(14) 0.0 0.0 .
747(15) 0.0 0.0 .
750(14) 0.0 0.0 .
724(14) 0.0 0.0 .
706(14) 0.0 0.0 .
736(15) 0.0 0.0 .
730(15) 0.0 0.0 .
702(14) 0.0 0.0 .
720(14) 0.0 0.0 .
729(15) 0.0 0.0 .
753(15) 0.0 0.0 .
747(14) 0.0 0.0 .
746(14) 0.0 0.0 .
716(14) 0.0 0.0 .
733(14) 0.0 0.0 .
729(15) 0.0 0.0 .
677(14) 0.0 0.0 .
730(14) 0.0 0.0 .
768(14) 0.0 0.0 .
742(15) 0.0 0.0 .
704(15) 0.0 0.0 .
737(15) 0.0 0.0 .
715(14) 0.0 0.0 .
715(14) 0.0 0.0 .
758(15) 0.0 0.0 .
765(15) 0.0 0.0 .
727(14) 0.0 0.0 .
742(14) 0.0 0.0 .
760(15) 0.0 0.0 .
676(14) 0.0 0.0 .
689(14) 0.0 0.0 .
716(14) 0.0 0.0 .
713(14) 0.0 0.0 .
733(14) 0.0 0.0 .
719(15) 0.0 0.0 .
730(15) 0.0 0.0 .
740(14) 0.0 0.0 .
757(14) 0.0 0.0 .
759(15) 0.0 0.0 .
765(15) 0.0 0.0 .
702(14) 0.0 0.0 .
735(14) 0.0 0.0 .
724(14) 0.0 0.0 .
757(15) 0.0 0.0 .
709(14) 0.0 0.0 .
715(14) 0.0 0.0 .
717(14) 0.0 0.0 .
696(14) 0.0 0.0 .
674(14) 0.0 0.0 .
695(14) 0.0 0.0 .
672(14) 0.0 0.0 .
718(14) 0.0 0.0 .
672(13) 0.0 0.0 .
730(15) 0.0 0.0 .
738(15) 0.0 0.0 .
716(14) 0.0 0.0 .
718(14) 0.0 0.0 .
706(14) 0.0 0.0 .
704(14) 0.0 0.0 .
724(15) 0.0 0.0 .
710(14) 0.0 0.0 .
710(14) 0.0 0.0 .
720(14) 0.0 0.0 .
698(14) 0.0 0.0 .
701(15) 0.0 0.0 .
694(14) 0.0 0.0 .
688(14) 0.0 0.0 .
717(14) 0.0 0.0 .
685(14) 0.0 0.0 .
697(15) 0.0 0.0 .
676(14) 0.0 0.0 .
670(13) 0.0 0.0 .
722(14) 0.0 0.0 .
720(14) 0.0 0.0 .
721(15) 0.0 0.0 .
682(14) 0.0 0.0 .
711(14) 0.0 0.0 .
731(14) 0.0 0.0 .
725(14) 0.0 0.0 .
745(15) 0.0 0.0 .
709(14) 0.0 0.0 .
686(14) 0.0 0.0 .
658(14) 0.0 0.0 .
739(15) 0.0 0.0 .
706(15) 0.0 0.0 .
690(14) 0.0 0.0 .
668(13) 0.0 0.0 .
699(14) 0.0 0.0 .
750(15) 0.0 0.0 .
682(14) 0.0 0.0 .
700(14) 0.0 0.0 .
693(14) 0.0 0.0 .
711(14) 0.0 0.0 .
690(14) 0.0 0.0 .
729(15) 0.0 0.0 .
690(14) 0.0 0.0 .
676(13) 0.0 0.0 .
669(14) 0.0 0.0 .
658(14) 0.0 0.0 .
703(14) 0.0 0.0 .
715(14) 0.0 0.0 .
694(14) 0.0 0.0 .
690(14) 0.0 0.0 .
697(15) 0.0 0.0 .
710(14) 0.0 0.0 .
692(14) 0.0 0.0 .
696(14) 0.0 0.0 .
736(15) 0.0 0.0 .
689(15) 0.0 0.0 .
731(15) 0.0 0.0 .
736(14) 0.0 0.0 .
707(14) 0.0 0.0 .
709(14) 0.0 0.0 .
679(15) 0.0 0.0 .
703(14) 0.0 0.0 .
688(14) 0.0 0.0 .
711(14) 0.0 0.0 .
673(14) 0.0 0.0 .
708(15) 0.0 0.0 .
677(14) 0.0 0.0 .
668(13) 0.0 0.0 .
666(13) 0.0 0.0 .
686(14) 0.0 0.0 .
692(15) 0.0 0.0 .
673(14) 0.0 0.0 .
690(14) 0.0 0.0 .
675(14) 0.0 0.0 .
677(14) 0.0 0.0 .
675(14) 0.0 0.0 .
690(14) 0.0 0.0 .
670(13) 0.0 0.0 .
695(14) 0.0 0.0 .
656(14) 0.0 0.0 .
699(15) 0.0 0.0 .
680(14) 0.0 0.0 .
664(13) 0.0 0.0 .
692(14) 0.0 0.0 .
685(14) 0.0 0.0 .
680(14) 0.0 0.0 .
655(14) 0.0 0.0 .
660(13) 0.0 0.0 .
669(14) 0.0 0.0 .
689(14) 0.0 0.0 .
702(14) 0.0 0.0 .
719(14) 0.0 0.0 .
690(14) 0.0 0.0 .
689(14) 0.0 0.0 .
707(15) 0.0 0.0 .
646(14) 0.0 0.0 .
642(13) 0.0 0.0 .
677(14) 0.0 0.0 .
720(14) 0.0 0.0 .
724(15) 0.0 0.0 .
663(14) 0.0 0.0 .
693(14) 0.0 0.0 .
677(14) 0.0 0.0 .
693(14) 0.0 0.0 .
693(15) 0.0 0.0 .
697(14) 0.0 0.0 .
704(14) 0.0 0.0 .
647(13) 0.0 0.0 .
673(14) 0.0 0.0 .
650(14) 0.0 0.0 .
710(14) 0.0 0.0 .
675(13) 0.0 0.0 .
740(14) 0.0 0.0 .
628(13) 0.0 0.0 .
686(15) 0.0 0.0 .
669(14) 0.0 0.0 .
663(13) 0.0 0.0 .
645(13) 0.0 0.0 .
684(14) 0.0 0.0 .
659(14) 0.0 0.0 .
656(14) 0.0 0.0 .
675(13) 0.0 0.0 .
667(14) 0.0 0.0 .
641(13) 0.0 0.0 .
644(14) 0.0 0.0 .
644(14) 0.0 0.0 .
665(13) 0.0 0.0 .
663(14) 0.0 0.0 .
673(14) 0.0 0.0 .
678(14) 0.0 0.0 .
682(14) 0.0 0.0 .
657(13) 0.0 0.0 .
666(14) 0.0 0.0 .
674(14) 0.0 0.0 .
666(14) 0.0 0.0 .
676(14) 0.0 0.0 .
674(13) 0.0 0.0 .
682(14) 0.0 0.0 .
659(14) 0.0 0.0 .
686(14) 0.0 0.0 .
672(14) 0.0 0.0 .
644(13) 0.0 0.0 .
608(13) 0.0 0.0 .
685(15) 0.0 0.0 .
633(14) 0.0 0.0 .
696(14) 0.0 0.0 .
681(14) 0.0 0.0 .
656(14) 0.0 0.0 .
643(14) 0.0 0.0 .
674(14) 0.0 0.0 .
653(13) 0.0 0.0 .
690(14) 0.0 0.0 .
661(14) 0.0 0.0 .
707(15) 0.0 0.0 .
680(14) 0.0 0.0 .
688(14) 0.0 0.0 .
660(13) 0.0 0.0 .
683(14) 0.0 0.0 .
703(15) 0.0 0.0 .
645(13) 0.0 0.0 .
660(13) 0.0 0.0 .
666(13) 0.0 0.0 .
642(14) 0.0 0.0 .
653(14) 0.0 0.0 .
670(14) 0.0 0.0 .
657(13) 0.0 0.0 .
686(14) 0.0 0.0 .
682(14) 0.0 0.0 .
662(14) 0.0 0.0 .
641(14) 0.0 0.0 .
677(13) 0.0 0.0 .
681(14) 0.0 0.0 .
678(14) 0.0 0.0 .
674(14) 0.0 0.0 .
701(14) 0.0 0.0 .
663(13) 0.0 0.0 .
680(14) 0.0 0.0 .
687(14) 0.0 0.0 .
676(14) 0.0 0.0 .
626(14) 0.0 0.0 .
611(13) 0.0 0.0 .
666(14) 0.0 0.0 .
675(14) 0.0 0.0 .
669(14) 0.0 0.0 .
695(14) 0.0 0.0 .
710(14) 0.0 0.0 .
680(14) 0.0 0.0 .
677(14) 0.0 0.0 .
687(14) 0.0 0.0 .
694(14) 0.0 0.0 .
693(14) 0.0 0.0 .
692(14) 0.0 0.0 .
652(14) 0.0 0.0 .
677(14) 0.0 0.0 .
641(13) 0.0 0.0 .
689(14) 0.0 0.0 .
681(14) 0.0 0.0 .
644(14) 0.0 0.0 .
663(14) 0.0 0.0 .
715(14) 0.0 0.0 .
657(13) 0.0 0.0 .
666(14) 0.0 0.0 .
660(14) 0.0 0.0 .
678(14) 0.0 0.0 .
687(14) 0.0 0.0 .
685(14) 0.0 0.0 .
698(14) 0.0 0.0 .
681(14) 0.0 0.0 .
693(14) 0.0 0.0 .
675(14) 0.0 0.0 .
706(14) 0.0 0.0 .
683(14) 0.0 0.0 .
684(15) 0.0 0.0 .
665(14) 0.0 0.0 .
674(13) 0.0 0.0 .
717(14) 0.0 0.0 .
683(14) 0.0 0.0 .
691(14) 0.0 0.0 .
677(14) 0.0 0.0 .
683(14) 0.0 0.0 .
710(14) 0.0 0.0 .
685(14) 0.0 0.0 .
692(14) 0.0 0.0 .
737(14) 0.0 0.0 .
741(14) 0.0 0.0 .
685(14) 0.0 0.0 .
718(14) 0.0 0.0 .
692(14) 0.0 0.0 .
693(14) 0.0 0.0 .
695(14) 0.0 0.0 .
711(14) 0.0 0.0 .
763(15) 0.0 0.0 .
749(15) 0.0 0.0 .
718(14) 0.0 0.0 .
706(14) 0.0 0.0 .
719(14) 0.0 0.0 .
726(15) 0.0 0.0 .
723(15) 0.0 0.0 .
721(14) 0.0 0.0 .
689(14) 0.0 0.0 .
692(14) 0.0 0.0 .
741(15) 0.0 0.0 .
722(15) 0.0 0.0 .
683(14) 0.0 0.0 .
722(14) 0.0 0.0 .
730(15) 0.0 0.0 .
716(15) 0.0 0.0 .
744(15) 0.0 0.0 .
770(15) 0.0 0.0 .
688(14) 0.0 0.0 .
757(15) 0.0 0.0 .
734(15) 0.0 0.0 .
794(15) 0.0 0.0 .
760(14) 0.0 0.0 .
746(14) 0.0 0.0 .
814(15) 0.0 0.0 .
845(16) 0.0 0.0 .
849(16) 0.0 0.0 .
795(15) 0.0 0.0 .
820(15) 0.0 0.0 .
909(16) 0.0 0.0 .
893(17) 0.0 0.0 .
866(16) 0.0 0.0 .
886(16) 0.0 0.0 .
945(16) 0.0 0.0 .
963(17) 0.0 0.0 .
944(17) 0.0 0.0 .
991(17) 0.0 0.0 .
979(16) 0.0 0.0 .
1046(17) 0.0 0.0 .
1090(18) 0.0 0.0 .
1129(19) 0.0 0.0 .
1178(19) 0.0 0.0 .
1225(18) 0.0 0.0 .
1312(19) 0.0 0.0 .
1376(20) 0.0 0.0 .
1420(21) 0.0 0.0 .
1468(21) 0.0 0.0 .
1438(20) 0.0 0.0 .
1589(21) 0.0 0.0 .
1631(22) 0.0 0.0 .
1666(22) 0.0 0.0 .
1807(23) 0.0 0.0 .
1877(22) 0.0 0.0 .
2120(24) 0.0 0.0 .
2218(25) 0.0 0.0 .
2331(26) 0.0 0.0 .
2711(28) 0.0 0.0 .
3050(29) 0.0 0.0 .
3432(31) 0.0 0.0 .
3926(34) 0.0 0.0 .
4535(37) 0.0 0. .
5260(39) 0.0 0. .
6040(41) 0.0 0. .
7094(45) 0.0 0. .
8040(49) 0.0 0. .
9150(52) 0.0 0. .
10359(54) 0.0 0. .
11668(57) 0.0 0. .
13046(62) 0.0 0. .
14301(66) 0.0 0. .
15740(68) 0.0 0. .
17326(70) 0.0 0. .
18972(73) 0.0 0. .
21204(79) 0.0 0. .
23684(86) 0.0 0. .
26628(90) 0.0 0. .
30108(93) 0.0 0. .
33434(97) 0.0 0. .
36570(110) 0.0 0. .
38360(110) 0.0 0. .
37390(110) 0.0 0. .
33882(98) 0.0 0. .
28892(91) 0.0 0. .
24309(86) 0.0 0. .
20068(80) 0.0 0. .
16541(69) 0.0 0. .
13576(61) 0.0 0. .
11575(57) 0.0 0. .
9556(53) 0.0 0. .
8154(50) 0.0 0. .
6810(44) 0.0 0. .
5942(40) 0.0 0. .
5185(38) 0.0 0. .
4555(36) 0.0 0. .
4036(35) 0.0 0.0 .
3550(32) 0.0 0.0 .
3093(29) 0.0 0.0 .
2888(28) 0.0 0.0 .
2625(27) 0.0 0.0 .
2304(26) 0.0 0.0 .
2219(26) 0.0 0.0 .
2043(23) 0.0 0.0 .
1911(23) 0.0 0.0 .
1734(22) 0.0 0.0 .
1674(22) 0.0 0.0 .
1576(21) 0.0 0.0 .
1445(20) 0.0 0.0 .
1361(20) 0.0 0.0 .
1378(20) 0.0 0.0 .
1291(19) 0.0 0.0 .
1217(19) 0.0 0.0 .
1139(17) 0.0 0.0 .
1152(18) 0.0 0.0 .
1065(18) 0.0 0.0 .
1074(18) 0.0 0.0 .
1076(17) 0.0 0.0 .
1025(17) 0.0 0.0 .
968(17) 0.0 0.0 .
936(17) 0.0 0.0 .
930(16) 0.0 0.0 .
930(16) 0.0 0.0 .
897(16) 0.0 0.0 .
872(16) 0.0 0.0 .
894(16) 0.0 0.0 .
877(16) 0.0 0.0 .
814(15) 0.0 0.0 .
864(15) 0.0 0.0 .
829(15) 0.0 0.0 .
807(16) 0.0 0.0 .
839(16) 0.0 0.0 .
758(14) 0.0 0.0 .
794(15) 0.0 0.0 .
780(15) 0.0 0.0 .
790(16) 0.0 0.0 .
752(15) 0.0 0.0 .
760(14) 0.0 0.0 .
786(15) 0.0 0.0 .
768(15) 0.0 0.0 .
736(15) 0.0 0.0 .
755(15) 0.0 0.0 .
750(14) 0.0 0.0 .
743(14) 0.0 0.0 .
684(14) 0.0 0.0 .
699(15) 0.0 0.0 .
696(14) 0.0 0.0 .
708(14) 0.0 0.0 .
689(14) 0.0 0.0 .
722(15) 0.0 0.0 .
685(14) 0.0 0.0 .
688(14) 0.0 0.0 .
680(14) 0.0 0.0 .
665(14) 0.0 0.0 .
658(14) 0.0 0.0 .
686(14) 0.0 0.0 .
697(14) 0.0 0.0 .
686(14) 0.0 0.0 .
648(13) 0.0 0.0 .
668(14) 0.0 0.0 .
688(14) 0.0 0.0 .
669(14) 0.0 0.0 .
695(14) 0.0 0.0 .
687(14) 0.0 0.0 .
642(14) 0.0 0.0 .
666(14) 0.0 0.0 .
653(14) 0.0 0.0 .
675(14) 0.0 0.0 .
687(14) 0.0 0.0 .
658(14) 0.0 0.0 .
653(14) 0.0 0.0 .
615(13) 0.0 0.0 .
623(13) 0.0 0.0 .
640(14) 0.0 0.0 .
620(14) 0.0 0.0 .
639(14) 0.0 0.0 .
639(13) 0.0 0.0 .
625(13) 0.0 0.0 .
649(14) 0.0 0.0 .
644(14) 0.0 0.0 .
639(13) 0.0 0.0 .
619(13) 0.0 0.0 .
602(13) 0.0 0.0 .
597(13) 0.0 0.0 .
616(14) 0.0 0.0 .
604(13) 0.0 0.0 .
603(13) 0.0 0.0 .
637(13) 0.0 0.0 .
625(13) 0.0 0.0 .
626(14) 0.0 0.0 .
637(14) 0.0 0.0 .
637(13) 0.0 0.0 .
637(13) 0.0 0.0 .
619(13) 0.0 0.0 .
605(13) 0.0 0.0 .
637(14) 0.0 0.0 .
649(13) 0.0 0.0 .
585(13) 0.0 0.0 .
614(13) 0.0 0.0 .
607(13) 0.0 0.0 .
596(13) 0.0 0.0 .
620(13) 0.0 0.0 .
593(13) 0.0 0.0 .
598(13) 0.0 0.0 .
616(13) 0.0 0.0 .
626(13) 0.0 0.0 .
577(12) 0.0 0.0 .
646(14) 0.0 0.0 .
605(13) 0.0 0.0 .
584(13) 0.0 0.0 .
615(13) 0.0 0.0 .
594(13) 0.0 0.0 .
611(13) 0.0 0.0 .
617(14) 0.0 0.0 .
593(13) 0.0 0.0 .
629(13) 0.00567 607.8 39.2
600(13) 0.00619 607.8 38.6
645(14) 0.00529 607.6 38.0
598(13) 0.00589 607.2 37.5
615(13) 0.00575 606.8 37.0
606(13) 0.00603 606.5 36.4
627(13) 0.00595 606.1 35.9
628(13) 0.00553 605.7 35.4
610(13) 0.00571 605.4 34.9
619(13) 0.00567 605.0 34.5
638(13) 0.00577 604.6 34.0
582(13) 0.00639 604.2 33.5
606(13) 0.00565 603.9 33.1
643(14) 0.00504 603.5 32.6
623(13) 0.00562 603.1 32.2
586(13) 0.00623 602.8 31.8
553(12) 0.00671 602.4 31.4
596(13) 0.00575 602.0 31.0
579(13) 0.00568 601.6 30.6
612(13) 0.00575 601.3 30.2
585(13) 0.00632 600.9 29.8
584(13) 0.00631 600.5 29.4
607(13) 0.00581 600.2 29.0
598(13) 0.00556 599.8 28.7
603(13) 0.00567 599.4 28.3
564(12) 0.00662 599.0 28.0
580(13) 0.00631 598.7 27.6
581(13) 0.00604 598.3 27.3
580(13) 0.00572 597.9 27.0
557(13) 0.00638 597.6 26.6
557(12) 0.00667 597.2 26.3
601(13) 0.00609 596.8 26.0
586(13) 0.00577 596.5 25.7
563(13) 0.00581 596.1 25.4
570(13) 0.00583 595.7 25.1
585(13) 0.00631 595.3 24.8
581(13) 0.00634 595.0 24.5
600(13) 0.00574 594.6 24.3
572(13) 0.00589 594.2 24.0
578(13) 0.00597 593.9 23.7
597(13) 0.00621 593.5 23.5
615(13) 0.00586 593.1 23.2
611(14) 0.00541 592.7 22.9
575(13) 0.00585 592.4 22.7
593(13) 0.00579 592.0 22.5
582(13) 0.00636 591.6 22.2
584(13) 0.00596 591.3 22.0
572(13) 0.00597 590.9 21.7
581(13) 0.00585 590.5 21.5
572(13) 0.00622 590.1 21.3
598(13) 0.00627 589.8 21.1
612(13) 0.00566 589.4 20.8
576(13) 0.00606 589.0 20.6
579(13) 0.00585 588.7 20.4
575(13) 0.00621 588.3 20.2
547(12) 0.00685 587.9 20.0
552(12) 0.00647 587.5 19.8
583(13) 0.00573 587.2 19.6
575(13) 0.00607 586.8 19.4
568(12) 0.00648 586.4 19.2
578(12) 0.00646 586.1 19.0
535(12) 0.00643 585.7 18.8
564(13) 0.00572 585.3 18.7
582(13) 0.00612 584.9 18.5
627(13) 0.00588 584.6 18.3
572(12) 0.00649 584.2 18.1
602(13) 0.00581 583.8 17.9
581(13) 0.00553 583.5 17.8
557(13) 0.00638 583.1 17.6
547(12) 0.00678 582.7 17.4
536(12) 0.00699 582.3 17.3
586(13) 0.00591 582.0 17.1
585(14) 0.00546 581.6 17.0
551(13) 0.00629 581.2 16.8
576(13) 0.00638 580.9 16.7
591(13) 0.00636 580.5 16.5
592(13) 0.00587 580.1 16.4
555(13) 0.00601 579.8 16.2
573(13) 0.00612 579.4 16.1
594(13) 0.00628 579.0 15.9
575(13) 0.00631 578.6 15.8
568(13) 0.00617 578.3 15.7
583(13) 0.00569 577.9 15.5
564(13) 0.00619 577.5 15.4
558(12) 0.00672 577.2 15.3
558(12) 0.00643 576.8 15.1
547(13) 0.00627 576.4 15.0
577(13) 0.00578 576.0 14.9
555(13) 0.00613 575.7 14.8
576(12) 0.00644 575.3 14.7
582(13) 0.00615 574.9 14.5
556(13) 0.00623 574.6 14.4
582(13) 0.00579 574.2 14.3
548(12) 0.00659 573.8 14.2
583(13) 0.00636 573.4 14.1
544(12) 0.00652 573.1 14.0
581(13) 0.00590 572.7 13.9
568(13) 0.00600 572.3 13.8
592(13) 0.00595 572.0 13.6
561(12) 0.00675 571.6 13.5
566(13) 0.00600 571.2 13.4
586(13) 0.00584 570.8 13.3
570(13) 0.00613 570.5 13.2
588(13) 0.00603 570.1 13.1
553(12) 0.00670 569.7 13.1
540(12) 0.00647 569.4 13.0
585(13) 0.00570 569.0 12.9
577(13) 0.00605 568.6 12.8
568(12) 0.00640 568.2 12.7
565(12) 0.00657 567.9 12.6
580(13) 0.00582 567.5 12.5
561(13) 0.00579 567.1 12.4
560(13) 0.00615 566.8 12.3
559(12) 0.00661 566.4 12.3
578(12) 0.00644 566.0 12.2
572(13) 0.00610 565.6 12.1
579(13) 0.00567 565.3 12.0
571(13) 0.00616 564.9 11.9
563(12) 0.00658 564.5 11.9
573(12) 0.00651 564.2 11.8
550(13) 0.00637 563.8 11.7
559(13) 0.00578 563.4 11.6
529(12) 0.00664 563.1 11.6
533(12) 0.00687 562.7 11.5
581(12) 0.00641 562.3 11.4
553(13) 0.00627 561.9 11.4
524(13) 0.00630 561.6 11.3
548(12) 0.00649 561.2 11.2
536(12) 0.00692 560.8 11.2
556(12) 0.00662 560.5 11.1
522(12) 0.00674 560.1 11.0
530(13) 0.00626 559.7 11.0
567(13) 0.00606 559.3 10.9
534(12) 0.00686 559.0 10.9
546(12) 0.00668 558.6 10.8
568(13) 0.00612 558.2 10.8
583(13) 0.00569 557.9 10.7
575(13) 0.00599 557.5 10.7
566(12) 0.00656 557.1 10.6
566(13) 0.00629 556.7 10.6
549(13) 0.00622 556.4 10.5
561(13) 0.00607 556.0 10.5
569(13) 0.00615 555.6 10.4
545(12) 0.00687 555.3 10.4
542(12) 0.00652 554.9 10.3
561(13) 0.00615 554.5 10.3
565(13) 0.00600 554.1 10.2
559(13) 0.00612 553.8 10.2
563(12) 0.00661 553.4 10.2
556(13) 0.00618 553.0 10.1
544(13) 0.00614 552.7 10.1
550(13) 0.00624 552.3 10.1
557(12) 0.00653 551.9 10.0
545(12) 0.00684 551.5 10.0
592(13) 0.00582 551.3 10.0
551(13) 0.00616 551.1 9.9
548(13) 0.00614 550.9 9.9
548(12) 0.00661 550.8 9.9
545(12) 0.00685 550.6 9.9
562(13) 0.00616 550.4 9.8
570(13) 0.00583 550.3 9.8
548(13) 0.00631 550.1 9.8
553(12) 0.00646 549.9 9.8
542(12) 0.00683 549.8 9.8
584(13) 0.00598 549.6 9.8
572(13) 0.00573 549.4 9.7
577(13) 0.00604 549.3 9.7
567(12) 0.00653 549.1 9.7
574(12) 0.00647 549.0 9.7
572(13) 0.00617 548.8 9.7
536(13) 0.00607 548.6 9.7
549(13) 0.00621 548.5 9.7
524(12) 0.00712 548.3 9.7
529(12) 0.00705 548.1 9.7
538(12) 0.00652 548.0 9.7
559(13) 0.00584 547.8 9.8
544(12) 0.00647 547.6 9.8
571(12) 0.00650 547.5 9.8
553(12) 0.00664 547.3 9.8
556(13) 0.00635 547.1 9.8
559(13) 0.00600 547.0 9.9
556(13) 0.00613 546.8 9.9
552(12) 0.00670 546.6 9.9
574(13) 0.00636 546.5 10.0
551(13) 0.00614 546.3 10.0
562(13) 0.00595 546.1 10.0
574(13) 0.00594 546.0 10.1
533(12) 0.00696 545.8 10.1
564(13) 0.00639 545.6 10.2
571(13) 0.00595 545.5 10.3
533(13) 0.00623 545.3 10.3
517(12) 0.00660 545.1 10.4
577(12) 0.00641 545.0 10.5
549(12) 0.00651 544.8 10.6
568(13) 0.00589 544.6 10.7
553(13) 0.00596 544.5 10.8
501(12) 0.00714 544.3 10.9
538(12) 0.00690 544.1 11.0
596(13) 0.00596 544.0 11.1
540(12) 0.00660 543.8 11.2
549(13) 0.00636 543.6 11.4
567(13) 0.00635 543.5 11.5
550(12) 0.00674 543.3 11.7
535(12) 0.00652 543.1 11.9
555(13) 0.00621 543.0 12.1
565(13) 0.00583 542.8 12.3
551(12) 0.00648 542.6 12.5
562(12) 0.00665 542.5 12.7
574(13) 0.00590 542.3 13.0
583(13) 0.00553 542.1 13.3
586(13) 0.00583 542.0 13.5
584(13) 0.00620 541.8 13.9
548(12) 0.00678 541.6 14.2
551(13) 0.00635 541.5 14.6
559(13) 0.00600 541.3 15.0
548(12) 0.00657 541.1 15.4
572(12) 0.00640 541.0 15.8
589(13) 0.00630 540.8 16.3
591(13) 0.00574 540.6 16.9
552(13) 0.00579 540.5 17.5
582(13) 0.00593 540.3 18.1
576(12) 0.00644 540.1 18.8
562(12) 0.00665 540.0 19.6
564(13) 0.00605 539.8 20.5
550(13) 0.00603 539.6 21.4
586(13) 0.00607 539.5 22.5
575(13) 0.00640 539.3 23.6
537(12) 0.00693 539.1 25.0
572(13) 0.00598 539.0 26.5
552(13) 0.00606 538.8 28.3
557(13) 0.00626 538.6 30.4
598(13) 0.00624 538.5 32.8
643(13) 0.00567 538.3 35.6
606(13) 0.00581 538.2 39.0
629(14) 0.00521 538.0 43.0
591(13) 0.00589 537.8 47.7
601(13) 0.00619 537.7 53.3
621(13) 0.00585 537.5 60.0
635(13) 0.00553 537.3 67.9
633(14) 0.00542 537.2 77.1
651(14) 0.00520 537.0 87.7
625(13) 0.00596 536.8 99.9
652(14) 0.00546 536.7 113.7
659(14) 0.00520 536.5 129.1
675(14) 0.00501 536.3 146.1
664(14) 0.00533 536.2 164.5
705(14) 0.00531 536.0 184.0
725(14) 0.00491 535.8 204.2
699(14) 0.00502 535.7 224.5
741(15) 0.00452 535.5 244.0
703(14) 0.00491 535.3 261.4
742(14) 0.00502 535.2 275.6
758(15) 0.00443 535.0 285.4
739(15) 0.00447 534.8 289.6
766(15) 0.00440 534.7 287.8
728(14) 0.00492 534.5 280.3
724(14) 0.00513 534.3 267.8
703(14) 0.00500 534.2 251.5
654(14) 0.00515 534.0 232.8
680(14) 0.00511 533.8 212.7
675(14) 0.00547 533.7 192.3
659(13) 0.00562 533.5 172.3
637(14) 0.00540 533.3 153.3
598(13) 0.00562 533.2 135.7
611(13) 0.00573 533.0 119.5
599(13) 0.00615 532.8 105.0
588(13) 0.00636 532.7 92.1
615(13) 0.00568 532.5 80.7
619(14) 0.00517 532.3 70.9
570(13) 0.00610 532.2 62.5
567(12) 0.00665 532.0 55.3
541(12) 0.00687 531.8 49.1
552(13) 0.00633 531.7 44.0
518(13) 0.00637 531.5 39.6
574(13) 0.00610 531.3 36.0
529(12) 0.00691 531.2 32.9
565(12) 0.00655 531.0 30.2
538(12) 0.00671 530.8 28.0
563(13) 0.00568 530.7 26.0
526(12) 0.00666 530.5 24.4
540(12) 0.00682 530.3 22.9
520(12) 0.00705 530.2 21.6
540(12) 0.00640 530.0 20.4
552(13) 0.00600 529.8 19.4
531(12) 0.00652 529.7 18.5
548(12) 0.00680 529.5 17.6
549(12) 0.00660 529.3 16.8
531(12) 0.00660 529.2 16.1
505(12) 0.00686 529.0 15.4
535(13) 0.00637 528.8 14.8
555(12) 0.00667 528.7 14.2
544(12) 0.00667 528.5 13.7
533(12) 0.00652 528.3 13.2
544(13) 0.00621 528.2 12.8
514(12) 0.00690 528.0 12.3
533(12) 0.00700 527.8 11.9
571(13) 0.00615 527.7 11.6
517(12) 0.00684 527.5 11.2
507(12) 0.00670 527.4 10.9
529(12) 0.00676 527.2 10.6
561(12) 0.00661 527.0 10.3
529(12) 0.00660 526.9 10.0
488(12) 0.00694 526.7 9.7
513(12) 0.00667 526.5 9.5
533(12) 0.00669 526.4 9.2
558(12) 0.00664 526.2 9.0
545(12) 0.00648 526.0 8.8
508(12) 0.00671 525.9 8.6
502(12) 0.00691 525.7 8.4
538(12) 0.00671 525.5 8.2
537(12) 0.00690 525.4 8.1
533(13) 0.00625 525.2 7.9
533(13) 0.00617 525.0 7.7
532(12) 0.00652 524.9 7.6
553(12) 0.00653 524.7 7.4
525(12) 0.00711 524.5 7.3
543(13) 0.00633 524.4 7.2
521(12) 0.00643 524.2 7.0
521(12) 0.00679 524.0 6.9
535(12) 0.00688 523.9 6.8
544(12) 0.00678 523.7 6.7
517(12) 0.00676 523.5 6.6
519(13) 0.00631 523.4 6.5
503(12) 0.00707 523.2 6.4
499(12) 0.00748 523.0 6.3
525(12) 0.00710 522.9 6.2
553(13) 0.00630 522.7 6.1
560(13) 0.00569 522.5 6.0
537(13) 0.00633 522.4 5.9
525(12) 0.00709 522.2 5.8
513(12) 0.00720 522.0 5.8
499(12) 0.00701 521.9 5.7
543(13) 0.00617 521.7 5.6
519(12) 0.00683 521.5 5.5
513(12) 0.00731 521.4 5.5
545(12) 0.00650 521.2 5.4
538(12) 0.00644 521.0 5.3
534(13) 0.00636 520.9 5.3
544(13) 0.00630 520.7 5.2
516(12) 0.00720 520.5 5.2
546(12) 0.00641 520.4 5.1
494(12) 0.00717 520.2 5.0
522(13) 0.00639 520.0 5.0
533(12) 0.00655 519.9 4.9
545(12) 0.00679 519.7 4.9
553(12) 0.00645 519.6 4.8
527(12) 0.00667 519.5 4.8
506(12) 0.00664 519.5 4.7
525(12) 0.00670 519.4 4.7
520(12) 0.00719 519.4 4.6
536(12) 0.00653 519.4 4.6
511(12) 0.00693 519.3 4.5
541(12) 0.00645 519.3 4.5
539(12) 0.00667 519.3 4.5
538(12) 0.00689 519.2 4.4
514(12) 0.00687 519.2 4.4
532(13) 0.00632 519.1 4.3
503(12) 0.00709 519.1 4.3
523(12) 0.00700 519.1 4.3
580(13) 0.00639 519.0 4.2
518(12) 0.00671 519.0 4.2
484(12) 0.00704 519.0 4.2
536(12) 0.00647 518.9 4.1
539(12) 0.00682 518.9 4.1
521(12) 0.00715 518.8 4.1
521(12) 0.00653 518.8 4.0
504(12) 0.00667 518.8 4.0
538(12) 0.00648 518.7 4.0
520(12) 0.00708 518.7 3.9
507(12) 0.00726 518.7 3.9
509(12) 0.00670 518.6 3.9
523(13) 0.00600 518.6 3.8
522(12) 0.00674 518.5 3.8
510(12) 0.00724 518.5 3.8
523(12) 0.00716 518.5 3.8
554(13) 0.00627 518.4 3.7
542(13) 0.00596 518.4 3.7
528(12) 0.00662 518.3 3.7
518(12) 0.00708 518.3 3.7
513(12) 0.00717 518.3 3.6
532(12) 0.00648 518.2 3.6
545(13) 0.00594 518.2 3.6
520(12) 0.00679 518.2 3.6
554(12) 0.00668 518.1 3.5
549(12) 0.00661 518.1 3.5
521(12) 0.00695 518.0 3.5
519(12) 0.00644 518.0 3.5
521(12) 0.00672 518.0 3.4
545(12) 0.00676 517.9 3.4
511(12) 0.00713 517.9 3.4
521(12) 0.00661 517.9 3.4
536(13) 0.00633 517.8 3.4
547(13) 0.00640 517.8 3.3
535(12) 0.00695 517.7 3.3
507(12) 0.00698 517.7 3.3
530(13) 0.00635 517.7 3.3
536(13) 0.00632 517.6 3.3
512(12) 0.00682 517.6 3.2
526(12) 0.00701 517.5 3.2
540(13) 0.00638 517.5 3.2
529(13) 0.00634 517.5 3.2
485(12) 0.00696 517.4 3.2
487(12) 0.00720 517.4 3.1
512(12) 0.00726 517.4 3.1
515(12) 0.00662 517.3 3.1
524(12) 0.00644 517.3 3.1
523(12) 0.00663 517.2 3.1
560(12) 0.00643 517.2 3.1
517(12) 0.00716 517.2 3.0
523(12) 0.00662 517.1 3.0
519(12) 0.00648 517.1 3.0
519(12) 0.00662 517.1 3.0
557(12) 0.00657 517.0 3.0
530(12) 0.00693 517.0 3.0
517(12) 0.00667 516.9 2.9
519(13) 0.00614 516.9 2.9
523(12) 0.00663 516.9 2.9
505(12) 0.00729 516.8 2.9
508(12) 0.00730 516.8 2.9
513(12) 0.00683 516.7 2.9
527(13) 0.00608 516.7 2.9
536(13) 0.00635 516.7 2.8
522(12) 0.00703 516.6 2.8
519(12) 0.00707 516.6 2.8
512(12) 0.00666 516.6 2.8
526(13) 0.00615 516.5 2.8
498(12) 0.00710 516.5 2.8
495(12) 0.00752 516.4 2.8
513(12) 0.00711 516.4 2.7
511(12) 0.00695 516.4 2.7
511(13) 0.00637 516.3 2.7
505(12) 0.00683 516.3 2.7
524(12) 0.00711 516.3 2.7
497(12) 0.00725 516.2 2.7
505(12) 0.00668 516.2 2.7
511(12) 0.00656 516.1 2.7
505(12) 0.00705 516.1 2.6
527(12) 0.00707 516.1 2.6
536(12) 0.00675 516.0 2.6
504(12) 0.00700 516.0 2.6
508(12) 0.00646 515.9 2.6
518(12) 0.00659 515.9 2.6
518(12) 0.00715 515.9 2.6
504(12) 0.00709 515.8 2.6
536(13) 0.00622 515.8 2.6
507(12) 0.00682 515.8 2.5
493(12) 0.00733 515.7 2.5
538(12) 0.00694 515.7 2.5
526(12) 0.00665 515.6 2.5
478(12) 0.00716 515.6 2.5
522(12) 0.00648 515.6 2.5
507(12) 0.00719 515.5 2.5
537(12) 0.00695 515.5 2.5
502(12) 0.00702 515.5 2.5
538(12) 0.00642 515.4 2.4
530(12) 0.00654 515.4 2.4
548(12) 0.00664 515.3 2.4
509(12) 0.00726 515.3 2.4
526(12) 0.00646 515.3 2.4
519(12) 0.00645 515.2 2.4
509(12) 0.00685 515.2 2.4
547(12) 0.00662 515.1 2.4
538(12) 0.00684 515.1 2.4
528(12) 0.00661 515.1 2.4
533(13) 0.00623 515.0 2.6
526(12) 0.00658 515.0 2.6
553(12) 0.00661 515.0 2.6
528(12) 0.00697 514.9 2.6
530(12) 0.00656 514.9 2.6
529(13) 0.00624 514.8 2.6
498(12) 0.00703 514.8 2.6
552(12) 0.00673 514.8 2.6
517(12) 0.00714 514.7 2.6
546(13) 0.00625 514.7 2.6
529(13) 0.00617 514.7 2.6
547(13) 0.00639 514.6 2.6
512(12) 0.00714 514.6 2.5
505(12) 0.00740 514.5 2.5
543(13) 0.00634 514.5 2.5
521(13) 0.00640 514.5 2.5
507(12) 0.00701 514.4 2.5
522(12) 0.00717 514.4 2.5
507(12) 0.00727 514.3 2.5
545(12) 0.00645 514.3 2.5
532(13) 0.00634 514.3 2.5
509(12) 0.00695 514.2 2.5
514(12) 0.00730 514.2 2.5
509(12) 0.00709 514.2 2.5
519(12) 0.00676 514.1 2.5
553(13) 0.00605 514.1 2.5
546(13) 0.00627 514.0 2.4
514(12) 0.00723 514.0 2.4
526(12) 0.00681 514.0 2.4
553(13) 0.00623 513.9 2.4
553(13) 0.00619 513.9 2.4
530(12) 0.00658 513.9 2.4
541(12) 0.00687 513.8 2.4
532(12) 0.00661 513.8 2.4
527(12) 0.00661 513.7 2.4
552(13) 0.00617 513.7 2.4
539(12) 0.00656 513.7 2.4
523(12) 0.00716 513.6 2.4
498(12) 0.00706 513.6 2.4
515(12) 0.00653 513.6 2.4
544(12) 0.00642 513.5 2.4
548(12) 0.00664 513.5 2.4
529(12) 0.00703 513.4 2.4
539(12) 0.00642 513.4 2.4
521(12) 0.00649 513.4 2.3
558(13) 0.00607 513.3 2.3
513(12) 0.00709 513.3 2.3
535(12) 0.00698 513.2 2.3
549(13) 0.00631 513.2 2.3
527(13) 0.00632 513.2 2.3
513(12) 0.00664 513.1 2.3
519(12) 0.00711 513.1 2.3
521(12) 0.00709 513.1 2.3
482(12) 0.00705 513.0 2.3
528(13) 0.00608 513.0 2.3
545(12) 0.00642 512.9 2.3
549(12) 0.00664 512.9 2.3
540(12) 0.00683 512.9 2.3
529(12) 0.00677 512.8 2.3
522(13) 0.00612 512.8 2.3
523(12) 0.00656 512.8 2.3
527(12) 0.00700 512.7 2.3
495(12) 0.00742 512.7 2.3
529(12) 0.00659 512.6 2.3
530(13) 0.00627 512.6 2.3
532(12) 0.00663 512.6 2.3
519(12) 0.00720 512.5 2.3
515(12) 0.00708 512.5 2.2
497(12) 0.00701 512.4 2.2
506(12) 0.00648 512.4 2.2
520(12) 0.00683 512.4 2.2
523(12) 0.00709 512.4 2.2
527(12) 0.00699 512.4 2.2
491(12) 0.00716 512.5 2.2
532(13) 0.00619 512.5 2.2
517(12) 0.00656 512.5 2.2
497(12) 0.00754 512.5 2.2
497(12) 0.00728 512.5 2.2
506(12) 0.00676 512.6 2.2
510(12) 0.00667 512.6 2.2
504(12) 0.00709 512.6 2.2
513(12) 0.00722 512.6 2.2
543(12) 0.00658 512.6 2.2
509(12) 0.00685 512.7 2.2
531(12) 0.00646 512.7 2.2
488(12) 0.00729 512.7 2.2
511(12) 0.00730 512.7 2.2
517(12) 0.00672 512.7 2.2
563(13) 0.00585 512.8 2.2
515(12) 0.00672 512.8 2.2
480(12) 0.00749 512.8 2.2
545(12) 0.00685 512.8 2.2
518(12) 0.00675 512.8 2.2
537(13) 0.00626 512.8 2.2
509(12) 0.00672 512.9 2.2
505(12) 0.00716 512.9 2.2
543(12) 0.00681 512.9 2.2
529(12) 0.00646 512.9 2.2
530(12) 0.00643 512.9 2.2
575(13) 0.00585 513.0 2.2
487(12) 0.00742 513.0 2.2
510(12) 0.00736 513.0 2.2
460(11) 0.00770 513.0 2.2
518(13) 0.00620 513.0 2.2
541(13) 0.00626 513.1 2.2
494(11) 0.00756 513.1 2.2
495(12) 0.00737 513.1 2.2
533(12) 0.00640 513.1 2.1
508(12) 0.00641 513.1 2.1
497(12) 0.00720 513.2 2.1
524(12) 0.00709 513.2 2.1
489(11) 0.00760 513.2 2.1
506(12) 0.00678 513.2 2.1
500(12) 0.00648 513.2 2.1
528(12) 0.00666 513.3 2.1
512(12) 0.00724 513.3 2.1
552(12) 0.00663 513.3 2.1
507(12) 0.00700 513.3 2.1
529(13) 0.00610 513.3 2.1
497(12) 0.00718 513.4 2.1
500(12) 0.00738 513.4 2.1
505(12) 0.00712 513.4 2.1
509(12) 0.00687 513.4 2.1
516(12) 0.00649 513.4 2.1
533(13) 0.00627 513.5 2.1
486(11) 0.00760 513.5 2.1
506(12) 0.00714 513.5 2.1
516(12) 0.00648 513.5 2.1
520(13) 0.00639 513.5 2.1
539(12) 0.00640 513.6 2.1
524(12) 0.00710 513.6 2.1
511(12) 0.00696 513.6 2.1
522(12) 0.00649 513.6 2.1
514(12) 0.00654 513.6 2.1
505(12) 0.00694 513.7 2.1
507(12) 0.00734 513.7 2.2
512(12) 0.00680 513.7 2.2
513(12) 0.00670 513.7 2.2
510(12) 0.00671 513.7 2.2
507(12) 0.00686 513.7 2.2
512(12) 0.00731 513.8 2.2
496(12) 0.00705 513.8 2.2
473(12) 0.00736 513.8 2.2
494(12) 0.00705 513.8 2.2
546(12) 0.00658 513.8 2.2
541(12) 0.00682 513.9 2.2
530(13) 0.00635 513.9 2.2
554(13) 0.00598 513.9 2.2
502(12) 0.00697 513.9 2.2
552(12) 0.00655 513.9 2.2
499(12) 0.00734 514.0 2.2
491(12) 0.00731 514.0 2.2
537(13) 0.00599 514.0 2.2
517(12) 0.00680 514.0 2.2
495(12) 0.00744 514.0 2.2
487(12) 0.00753 514.1 2.2
537(13) 0.00634 514.1 2.2
508(13) 0.00638 514.1 2.2
502(12) 0.00691 514.1 2.2
563(12) 0.00647 514.1 2.2
532(12) 0.00703 514.2 2.2
502(12) 0.00711 514.2 2.2
509(12) 0.00644 514.2 2.2
518(12) 0.00701 514.2 2.2
538(12) 0.00695 514.2 2.3
502(12) 0.00736 514.3 2.3
489(12) 0.00704 514.3 2.3
486(12) 0.00675 514.3 2.3
519(12) 0.00642 514.3 2.3
536(12) 0.00695 514.3 2.3
518(12) 0.00713 514.4 2.3
512(12) 0.00694 514.4 2.3
497(12) 0.00686 514.4 2.3
515(12) 0.00676 514.4 2.3
497(12) 0.00746 514.4 2.3
501(12) 0.00729 514.5 2.3
492(12) 0.00702 514.5 2.3
527(13) 0.00620 514.5 2.4
494(12) 0.00698 514.5 2.4
498(12) 0.00742 514.5 2.4
521(12) 0.00697 514.5 2.4
518(12) 0.00677 514.6 2.8
526(12) 0.00646 514.6 2.8
505(12) 0.00681 514.6 2.8
560(12) 0.00663 514.6 2.9
510(12) 0.00693 514.6 2.9
526(12) 0.00656 514.7 2.9
523(12) 0.00660 514.7 2.9
520(12) 0.00681 514.7 2.9
528(12) 0.00703 514.7 2.9
508(12) 0.00686 514.7 3.0
499(12) 0.00696 514.8 3.0
520(12) 0.00675 514.8 3.0
504(12) 0.00729 514.8 3.0
497(12) 0.00751 514.8 3.0
498(12) 0.00697 514.8 3.1
528(13) 0.00620 514.9 3.1
507(12) 0.00672 514.9 3.1
531(12) 0.00682 514.9 3.1
505(12) 0.00738 514.9 3.1
504(12) 0.00697 514.9 3.2
497(12) 0.00663 515.0 3.2
501(12) 0.00707 515.0 3.2
531(12) 0.00693 515.0 3.3
561(12) 0.00659 515.0 3.3
541(12) 0.00643 515.0 3.3
526(13) 0.00617 515.1 3.4
516(12) 0.00667 515.1 3.4
521(12) 0.00719 515.1 3.4
519(12) 0.00708 515.1 3.5
482(12) 0.00754 515.1 3.5
523(13) 0.00622 515.2 3.6
501(12) 0.00689 515.2 3.6
481(11) 0.00767 515.2 3.7
510(12) 0.00728 515.2 3.7
484(12) 0.00714 515.2 3.8
491(12) 0.00641 515.3 3.8
495(12) 0.00705 515.3 3.9
512(12) 0.00728 515.3 4.0
521(12) 0.00715 515.3 4.0
513(12) 0.00676 515.3 4.1
501(12) 0.00672 515.3 4.2
530(12) 0.00645 515.4 4.3
536(12) 0.00694 515.4 4.4
499(12) 0.00729 515.4 4.5
513(12) 0.00670 515.4 4.6
499(12) 0.00675 515.4 4.7
501(12) 0.00676 515.5 4.9
535(12) 0.00696 515.5 5.0
508(12) 0.00698 515.5 5.2
506(12) 0.00668 515.5 5.3
512(12) 0.00666 515.5 5.5
511(12) 0.00687 515.6 5.7
522(12) 0.00714 515.6 6.0
519(12) 0.00701 515.6 6.2
550(13) 0.00609 515.6 6.5
542(12) 0.00641 515.6 6.8
529(12) 0.00669 515.7 7.1
513(12) 0.00733 515.7 7.5
514(12) 0.00683 515.7 7.9
518(12) 0.00651 515.7 8.3
517(12) 0.00669 515.7 8.8
509(12) 0.00690 515.8 9.3
533(12) 0.00699 515.8 9.8
525(12) 0.00656 515.8 10.4
523(12) 0.00655 515.8 11.0
532(12) 0.00652 515.8 11.6
521(12) 0.00704 515.9 12.3
501(12) 0.00744 515.9 13.0
479(12) 0.00730 515.9 13.8
530(13) 0.00615 515.9 14.5
506(12) 0.00692 515.9 15.4
507(12) 0.00737 516.0 16.2
566(12) 0.00654 516.0 17.0
541(12) 0.00645 516.0 17.8
533(13) 0.00604 516.0 18.7
500(12) 0.00698 516.0 19.4
499(12) 0.00731 516.1 20.2
541(12) 0.00687 516.1 20.8
483(12) 0.00730 516.1 21.4
536(13) 0.00587 516.1 21.8
511(12) 0.00687 516.1 22.2
494(11) 0.00759 516.2 22.3
521(12) 0.00709 516.2 22.4
521(12) 0.00656 516.2 22.3
510(13) 0.00633 516.2 22.0
527(12) 0.00656 516.2 21.6
511(12) 0.00732 516.2 21.1
507(12) 0.00726 516.3 20.5
526(12) 0.00644 516.3 19.8
530(13) 0.00618 516.3 19.1
521(12) 0.00681 516.3 18.3
528(12) 0.00702 516.3 17.5
487(12) 0.00743 516.4 16.6
532(12) 0.00659 516.4 15.8
517(12) 0.00650 516.4 15.0
515(12) 0.00678 516.4 14.2
517(12) 0.00718 516.4 13.5
546(12) 0.00664 516.5 12.8
524(12) 0.00657 516.5 12.1
511(12) 0.00668 516.5 11.4
512(12) 0.00683 516.5 10.8
477(11) 0.00776 516.5 10.3
485(12) 0.00734 516.6 9.7
494(12) 0.00679 516.6 9.2
525(12) 0.00644 516.6 8.8
508(12) 0.00695 516.6 8.4
511(12) 0.00732 516.6 8.0
536(12) 0.00660 516.7 7.6
522(12) 0.00649 516.7 7.3
535(13) 0.00637 516.7 7.0
512(12) 0.00706 516.7 6.7
543(12) 0.00679 516.7 6.5
478(12) 0.00714 516.8 6.3
513(12) 0.00645 516.8 6.0
499(12) 0.00712 516.8 5.9
498(12) 0.00730 516.8 5.7
493(12) 0.00748 516.8 5.5
524(12) 0.00669 516.9 5.4
539(13) 0.00638 516.9 5.3
560(13) 0.00625 516.9 5.2
539(12) 0.00672 516.9 5.1
534(12) 0.00705 516.9 5.0
484(12) 0.00703 517.0 4.9
497(13) 0.00636 517.0 4.8
518(12) 0.00662 517.0 4.7
500(12) 0.00736 517.0 4.7
501(12) 0.00743 517.0 4.6
525(12) 0.00641 517.0 4.6
517(12) 0.00641 517.1 4.5
530(12) 0.00675 517.1 4.5
502(12) 0.00734 517.1 4.4
507(12) 0.00731 517.1 4.4
537(12) 0.00643 517.1 4.3
522(13) 0.00595 517.2 4.3
495(12) 0.00688 517.2 4.3
506(12) 0.00738 517.2 4.3
520(12) 0.00709 517.2 4.2
496(12) 0.00706 517.2 4.2
493(12) 0.00667 517.3 4.2
491(12) 0.00706 517.3 4.2
517(12) 0.00722 517.3 4.2
542(12) 0.00679 517.3 4.1
523(12) 0.00661 517.3 4.1
507(12) 0.00659 517.4 4.1
520(12) 0.00671 517.4 4.1
511(12) 0.00729 517.4 4.1
535(12) 0.00674 517.4 4.1
516(12) 0.00682 517.4 4.1
518(12) 0.00662 517.5 4.1
560(13) 0.00622 517.5 4.1
528(12) 0.00703 517.5 4.1
473(11) 0.00763 517.5 4.1
516(13) 0.00637 517.5 4.1
504(12) 0.00684 517.6 4.1
524(12) 0.00641 517.6 4.1
524(12) 0.00720 517.6 4.1
532(12) 0.00648 517.6 4.1
516(12) 0.00670 517.6 4.1
544(13) 0.00619 517.7 4.1
513(12) 0.00704 517.7 4.1
522(12) 0.00710 517.7 4.1
529(12) 0.00649 517.7 4.1
519(13) 0.00634 517.7 4.1
497(12) 0.00707 517.8 4.1
506(12) 0.00713 517.8 4.1
532(12) 0.00704 517.8 4.1
532(12) 0.00642 517.8 4.1
493(12) 0.00683 517.8 4.1
516(12) 0.00663 517.8 4.1
522(12) 0.00701 517.9 4.2
500(12) 0.00742 517.9 4.2
495(12) 0.00724 517.9 4.2
526(13) 0.00634 517.9 4.2
537(12) 0.00643 517.9 4.2
528(12) 0.00699 518.0 4.2
504(12) 0.00742 518.0 4.2
511(12) 0.00683 518.0 4.3
553(13) 0.00574 518.0 4.3
523(12) 0.00651 518.0 4.3
519(12) 0.00713 518.1 4.3
516(12) 0.00726 518.1 4.3
559(13) 0.00634 518.1 4.3
536(13) 0.00596 518.1 4.4
527(12) 0.00647 518.1 4.4
530(12) 0.00696 518.2 4.4
546(12) 0.00673 518.2 4.4
540(12) 0.00643 518.2 4.5
524(13) 0.00638 518.2 4.5
511(12) 0.00701 518.2 4.5
540(12) 0.00684 518.3 4.5
502(12) 0.00717 518.3 4.6
517(12) 0.00676 518.3 4.6
543(13) 0.00607 518.3 4.6
512(12) 0.00679 518.3 4.6
501(12) 0.00742 518.4 4.7
539(12) 0.00658 518.4 4.7
496(12) 0.00704 518.4 4.7
533(13) 0.00621 518.4 4.7
545(13) 0.00627 518.4 4.8
539(12) 0.00690 518.5 4.8
529(12) 0.00690 518.5 4.8
503(12) 0.00680 518.5 4.9
518(12) 0.00644 518.5 4.9
538(13) 0.00635 518.5 4.9
525(12) 0.00708 518.6 5.0
503(12) 0.00703 518.8 5.0
531(13) 0.00639 519.0 5.0
514(12) 0.00675 519.2 5.1
527(12) 0.00675 519.4 5.1
515(12) 0.00729 519.6 5.2
527(12) 0.00675 519.8 5.2
529(12) 0.00667 520.1 5.2
550(13) 0.00632 520.3 5.3
575(13) 0.00611 520.5 5.3
520(12) 0.00719 520.7 5.4
539(13) 0.00627 520.9 5.5
526(13) 0.00634 521.1 5.5
523(12) 0.00658 521.3 5.6
543(12) 0.00668 521.5 5.6
491(12) 0.00746 521.7 5.7
531(12) 0.00656 521.9 5.7
525(13) 0.00621 522.2 5.8
526(12) 0.00646 522.4 5.8
523(12) 0.00693 522.6 5.9
532(12) 0.00696 522.8 5.9
545(13) 0.00630 523.0 6.0
557(13) 0.00561 523.2 6.0
514(12) 0.00682 523.4 6.1
528(12) 0.00700 523.6 6.2
500(12) 0.00748 523.8 6.2
530(12) 0.00655 524.0 6.3
527(13) 0.00621 524.3 6.3
521(12) 0.00666 524.5 6.4
522(12) 0.00707 524.7 6.5
520(12) 0.00707 524.9 6.5
529(12) 0.00659 525.1 6.6
549(13) 0.00571 525.3 6.7
535(12) 0.00641 525.5 6.8
523(12) 0.00714 525.7 6.8
524(12) 0.00698 525.9 6.9
546(13) 0.00628 526.1 7.0
534(13) 0.00639 526.4 7.1
531(12) 0.00658 526.6 7.2
530(12) 0.00706 526.8 7.2
502(12) 0.00712 527.0 7.3
523(12) 0.00664 527.2 7.4
507(12) 0.00670 527.4 7.5
527(13) 0.00639 527.6 7.6
523(12) 0.00713 527.8 7.7
536(12) 0.00669 528.0 7.8
517(12) 0.00651 528.2 7.9
529(13) 0.00634 528.5 8.0
527(12) 0.00674 528.7 8.1
524(12) 0.00705 528.9 8.2
499(12) 0.00718 529.1 8.3
545(13) 0.00623 529.3 8.4
547(13) 0.00617 529.5 8.5
556(13) 0.00624 529.7 8.7
544(12) 0.00688 529.9 8.8
561(13) 0.00605 530.1 8.9
501(12) 0.00692 530.3 9.0
541(13) 0.00635 530.6 9.2
522(12) 0.00703 530.8 9.3
544(12) 0.00680 531.0 9.5
531(12) 0.00653 531.2 9.6
541(13) 0.00597 531.4 9.7
541(12) 0.00641 531.6 9.9
513(12) 0.00709 531.8 10.1
511(12) 0.00727 532.0 10.2
532(13) 0.00639 532.2 10.4
560(13) 0.00589 532.4 10.6
571(13) 0.00612 532.7 10.7
543(12) 0.00686 532.9 10.9
519(12) 0.00712 533.1 11.1
548(12) 0.00641 533.3 11.3
534(13) 0.00618 533.5 11.5
548(13) 0.00635 533.7 11.7
568(12) 0.00648 533.9 11.9
529(12) 0.00706 534.1 12.1
525(12) 0.00668 534.3 12.4
529(13) 0.00621 534.5 12.6
590(13) 0.00574 534.8 12.8
538(12) 0.00687 535.0 13.1
546(12) 0.00677 535.2 13.3
540(12) 0.00646 535.4 13.6
541(13) 0.00595 535.6 13.9
544(13) 0.00632 535.8 14.2
535(12) 0.00699 536.0 14.5
537(12) 0.00676 536.2 14.8
528(12) 0.00663 536.4 15.1
513(13) 0.00632 536.6 15.4
535(12) 0.00644 536.9 15.8
536(12) 0.00698 537.1 16.1
545(12) 0.00673 537.3 16.5
574(13) 0.00598 537.5 16.9
555(13) 0.00600 537.7 17.3
528(12) 0.00663 537.9 17.7
530(12) 0.00700 538.1 18.1
511(12) 0.00705 538.3 18.6
530(12) 0.00653 538.5 19.0
571(13) 0.00582 538.7 19.5
528(12) 0.00665 539.0 20.0
564(12) 0.00659 539.2 20.6
545(12) 0.00654 539.4 21.1
540(13) 0.00613 539.6 21.7
562(13) 0.00609 539.8 22.3
546(12) 0.00651 540.0 22.9
542(12) 0.00681 540.2 23.6
503(12) 0.00698 540.4 24.3
535(13) 0.00639 540.6 25.0
549(13) 0.00627 540.8 25.8
550(12) 0.00642 541.1 26.6
567(12) 0.00655 541.3 27.4
546(12) 0.00651 541.5 28.3
539(13) 0.00631 541.7 29.2
564(13) 0.00602 541.9 30.2
545(12) 0.00668 542.1 31.2
566(12) 0.00643 542.3 32.3
585(13) 0.00589 542.5 33.5
581(13) 0.00574 542.7 34.7
567(13) 0.00600 542.9 36.0
578(13) 0.00631 543.2 37.3
577(12) 0.00644 543.4 38.8
593(13) 0.00590 543.6 40.3
548(13) 0.00616 543.8 42.0
571(13) 0.00603 544.0 43.7
572(12) 0.00648 544.2 45.6
564(12) 0.00657 544.4 47.6
568(13) 0.00624 544.6 49.7
578(13) 0.00563 544.8 51.9
575(13) 0.00601 545.0 54.4
614(13) 0.00605 545.3 57.0
593(13) 0.00618 545.5 59.8
595(13) 0.00591 545.7 62.8
597(14) 0.00528 545.9 66.1
577(13) 0.00589 546.1 69.7
595(13) 0.00618 546.3 73.5
566(12) 0.00661 546.5 77.7
595(13) 0.00586 546.7 82.2
613(14) 0.00546 546.9 87.2
609(13) 0.00553 547.1 92.6
597(13) 0.00624 547.4 98.6
607(13) 0.00601 547.6 105.1
621(13) 0.00564 547.8 112.3
656(14) 0.00512 548.0 120.3
666(14) 0.00520 548.2 129.2
714(14) 0.00516 548.4 139.2
666(13) 0.00556 548.6 150.3
687(14) 0.00503 548.8 162.9
678(14) 0.00509 549.0 177.3
679(14) 0.00513 549.2 193.9
758(14) 0.00493 549.5 213.3
770(15) 0.00467 549.7 236.4
823(16) 0.00416 549.9 264.4
852(16) 0.00398 550.1 299.1
939(16) 0.00369 550.3 342.8
941(16) 0.00395 550.5 398.7
1082(18) 0.003244 550.7 470.6
1139(18) 0.003020 550.9 563.3
1297(20) 0.002623 551.1 682.1
1427(20) 0.002452 551.3 832.4
1635(21) 0.002272 551.6 1019.5
1822(23) 0.001909 551.8 1247.3
2090(25) 0.001597 552.0 1517.8
2322(26) 0.001487 552.2 1829.8
2622(27) 0.001356 552.4 2176.9
2934(28) 0.001265 552.6 2547.0
3300(31) 0.001031 552.8 2918.4
3689(33) 0.000907 553.0 3258.7
4097(35) 0.000834 553.2 3525.7
4357(35) 0.000831 553.4 3675.7
4514(35) 0.000819 553.6 3679.4
4401(36) 0.000775 554. 3536.
3920(35) 0.000840 554.1 3273.7
3396(31) 0.001024 554.3 2935.9
2924(28) 0.001255 554.5 2565.2
2588(27) 0.001422 554.7 2194.5
2330(26) 0.001470 554.9 1845.9
2029(25) 0.001624 555.1 1532.1
1817(23) 0.001933 555.3 1259.5
1602(21) 0.002320 555.5 1029.7
1495(20) 0.002456 555.7 840.7
1298(19) 0.002706 556.0 688.7
1206(20) 0.002614 556.2 568.6
1140(18) 0.003000 556.4 474.8
1064(17) 0.003502 556.6 402.0
982(16) 0.00370 556.8 345.4
941(17) 0.00358 557.0 301.2
863(16) 0.00369 557.2 266.2
818(16) 0.00415 557.4 237.9
786(15) 0.00474 557.6 214.6
790(15) 0.00457 557.8 195.0
796(15) 0.00435 558.1 178.4
743(15) 0.00462 558.3 163.9
766(15) 0.00450 558.5 151.2
729(14) 0.00510 558.7 140.0
684(14) 0.00532 558.9 130.1
690(14) 0.00501 559.1 121.1
683(14) 0.00488 559.3 113.1
666(14) 0.00516 559.5 105.9
664(13) 0.00561 559.7 99.3
680(14) 0.00512 559.9 93.3
635(14) 0.00548 560.2 87.9
636(14) 0.00545 560.4 82.9
628(13) 0.00557 560.6 78.4
641(13) 0.00579 560.8 74.2
659(14) 0.00529 561.0 70.4
617(13) 0.00549 561.2 66.8
610(13) 0.00570 561.4 63.6
622(13) 0.00575 561.6 60.5
561(12) 0.00660 561.8 57.7
594(13) 0.00565 562.0 55.1
594(13) 0.00557 562.3 52.7
602(13) 0.00578 562.5 50.4
603(13) 0.00596 562.7 48.3
592(13) 0.00629 562.9 46.3
599(13) 0.00585 563.1 44.5
654(14) 0.00509 563.3 42.7
569(13) 0.00611 563.5 41.1
595(13) 0.00614 563.7 39.6
593(13) 0.00623 563.9 38.2
601(13) 0.00581 564.1 36.8
597(13) 0.00562 564.4 35.5
571(13) 0.00606 564.6 34.3
569(12) 0.00648 564.8 33.2
583(13) 0.00635 565.0 32.1
561(13) 0.00617 565.2 31.1
541(13) 0.00618 565.4 30.1
557(12) 0.00640 565.6 29.2
579(12) 0.00641 565.8 28.3
551(12) 0.00677 566.0 27.5
602(13) 0.00574 566.2 26.7
599(14) 0.00531 566.5 26.0
585(13) 0.00594 566.7 25.3
580(13) 0.00640 566.9 24.6
567(12) 0.00648 567.1 23.9
611(13) 0.00575 567.3 23.3
578(13) 0.00582 567.5 22.7
601(13) 0.00577 567.7 22.2
588(13) 0.00634 567.9 21.6
558(12) 0.00672 568.1 21.1
615(13) 0.00552 568.3 20.6
589(13) 0.00559 568.6 20.2
549(12) 0.00655 568.8 19.7
579(12) 0.00646 569.0 19.3
556(12) 0.00650 569.2 18.9
570(13) 0.00612 569.4 18.5
587(13) 0.00580 569.6 18.1
572(13) 0.00604 569.8 17.7
592(13) 0.00628 570.0 17.4
570(13) 0.00624 570.2 17.0
582(13) 0.00594 570.4 16.7
556(13) 0.00606 570.7 16.4
597(13) 0.00583 570.9 16.1
601(13) 0.00617 571.1 15.8
583(13) 0.00611 571.3 15.5
544(12) 0.00642 571.5 15.3
584(13) 0.00583 571.7 15.0
576(13) 0.00611 571.9 14.8
595(13) 0.00625 572.1 14.5
593(13) 0.00600 572.3 14.3
563(13) 0.00602 572.5 14.1
575(13) 0.00592 572.8 13.9
580(13) 0.00621 573.0 13.7
606(13) 0.00611 573.2 13.5
592(13) 0.00575 573.4 13.3
549(13) 0.00623 573.6 13.1
582(13) 0.00589 573.8 12.9
581(13) 0.00616 574.0 12.7
569(12) 0.00656 574.2 12.6
552(13) 0.00624 574.4 12.4
599(13) 0.00550 574.6 12.2
586(13) 0.00587 574.9 12.1
591(13) 0.00621 575.1 12.0
608(13) 0.00613 575.3 11.8
577(13) 0.00593 575.5 11.7
596(14) 0.00543 575.7 11.5
559(13) 0.00629 575.9 11.4
613(13) 0.00601 576.1 11.3
593(13) 0.00621 576.3 11.2
577(13) 0.00607 576.5 11.1
593(14) 0.00538 576.7 11.0
549(13) 0.00638 577.0 10.9
566(12) 0.00646 577.2 10.7
601(13) 0.00617 577.4 10.7
585(13) 0.00599 577.6 10.6
567(13) 0.00602 577.8 10.5
594(13) 0.00587 578.0 10.4
581(12) 0.00643 578.2 10.3
571(13) 0.00640 578.4 10.2
572(13) 0.00625 578.6 10.1
581(13) 0.00576 578.8 10.0
573(13) 0.00612 579.1 10.0
590(13) 0.00627 579.3 9.9
558(12) 0.00670 579.5 9.8
572(13) 0.00619 579.7 9.8
616(14) 0.00537 579.9 9.7
579(13) 0.00605 580.1 9.6
596(13) 0.00620 580.3 9.6
566(13) 0.00639 580.5 9.5
574(13) 0.00600 580.7 9.5
584(13) 0.00577 580.9 9.4
590(13) 0.00584 581.2 9.4
572(12) 0.00650 581.4 9.3
618(13) 0.00587 581.6 9.3
574(13) 0.00608 581.8 9.2
566(13) 0.00596 582.0 9.2
559(13) 0.00630 582.2 9.2
576(12) 0.00649 582.4 9.1
591(13) 0.00598 582.6 9.1
591(13) 0.00578 582.8 9.0
565(13) 0.00615 583.0 9.0
614(13) 0.00584 583.3 9.0
602(13) 0.00617 583.5 8.9
571(13) 0.00608 583.7 8.9
574(13) 0.00586 583.9 8.9
565(13) 0.00593 584.1 8.9
599(13) 0.00596 584.3 8.8
605(13) 0.00614 584.5 8.8
621(14) 0.00539 584.7 8.8
585(13) 0.00568 584.9 8.8
579(13) 0.00603 585.1 8.8
572(13) 0.00634 585.4 8.8
570(12) 0.00642 585.6 8.7
579(13) 0.00592 585.8 8.7
560(13) 0.00597 586.0 8.7
600(13) 0.00567 586.2 8.7
585(13) 0.00627 586.6 8.7
577(12) 0.00642 587.0 8.7
602(13) 0.00578 587.5 8.7
616(14) 0.00507 587.9 8.7
608(13) 0.00556 588.3 8.7
607(13) 0.00606 588.8 8.7
597(13) 0.00614 589.2 8.7
596(13) 0.00581 589.6 8.7
606(14) 0.00542 590.1 8.7
569(12) 0.00642 590.5 8.7
609(13) 0.00611 590.9 8.8
593(13) 0.00627 591.4 8.8
609(13) 0.00570 591.8 8.8
599(14) 0.00541 592.2 8.8
586(13) 0.00600 592.7 8.8
611(13) 0.00610 593.1 8.8
619(13) 0.00600 593.5 8.8
602(13) 0.00579 594.0 8.8
589(13) 0.00561 594.4 8.8
597(13) 0.00574 594.9 8.9
592(13) 0.00624 595.3 8.9
587(13) 0.00611 595.7 8.9
598(13) 0.00574 596.2 8.9
610(14) 0.00548 596.6 8.9
612(13) 0.00575 597.0 9.0
591(13) 0.00625 597.5 9.0
617(13) 0.00574 597.9 9.0
613(13) 0.00562 598.3 9.0
592(13) 0.00579 598.8 9.1
608(13) 0.00585 599.2 9.1
611(13) 0.00612 599.6 9.1
595(13) 0.00587 600.1 9.2
597(13) 0.00571 600.5 9.2
639(14) 0.00515 600.9 9.2
627(13) 0.00564 601.4 9.3
598(13) 0.00621 601.8 9.3
574(13) 0.00620 602.2 9.3
592(13) 0.00575 602.7 9.4
609(13) 0.00576 603.1 9.4
614(13) 0.00592 603.6 9.5
592(13) 0.00627 604.0 9.5
592(13) 0.00589 604.4 9.5
598(14) 0.00548 604.9 9.6
601(13) 0.00566 605.3 9.6
581(13) 0.00629 605.7 9.7
604(13) 0.00613 606.2 9.7
593(13) 0.00592 606.6 9.8
620(14) 0.00525 607.0 9.9
618(13) 0.00557 607.5 9.9
580(13) 0.00627 607.9 10.0
600(13) 0.00616 608.3 10.0
606(13) 0.00567 608.8 10.1
600(14) 0.00536 609.2 10.1
601(13) 0.00576 609.6 10.2
614(13) 0.00601 610.1 10.3
663(13) 0.00553 610.5 10.3
635(14) 0.00546 610.9 10.4
628(14) 0.00518 611.4 10.5
628(13) 0.00553 611.8 10.6
583(13) 0.00634 612.2 10.6
613(13) 0.00590 612.7 10.7
603(13) 0.00573 613.1 10.8
598(14) 0.00546 613.6 10.9
631(14) 0.00546 614.0 10.9
631(13) 0.00584 614.4 11.0
611(13) 0.00600 614.9 11.1
599(13) 0.00586 615.3 11.2
623(14) 0.00534 615.7 11.3
599(13) 0.00578 616.2 11.4
587(13) 0.00635 616.6 11.5
614(13) 0.00592 617.0 11.6
612(13) 0.00555 617.5 11.7
617(14) 0.00542 617.9 11.8
594(13) 0.00579 618.3 11.9
628(13) 0.00592 618.8 12.0
578(13) 0.00635 619.2 12.1
600(13) 0.00568 619.6 12.2
634(14) 0.00527 620.1 12.3
624(13) 0.00568 620.5 12.4
596(13) 0.00627 620.9 12.5
580(13) 0.00616 621.4 12.7
629(14) 0.00537 621.8 12.8
634(14) 0.00523 622.2 12.9
628(13) 0.00572 622.7 13.0
606(13) 0.00609 623.1 13.2
616(13) 0.00583 623.6 13.3
627(14) 0.00535 624.0 13.4
661(14) 0.00524 624.4 13.6
656(14) 0.00548 624.9 13.7
619(13) 0.00595 625.3 13.9
610(13) 0.00574 625.7 14.0
608(13) 0.00553 626.2 14.2
598(13) 0.00588 626.6 14.3
597(13) 0.00603 627.0 14.5
640(13) 0.00578 627.5 14.7
670(14) 0.00523 627.9 14.8
638(14) 0.00512 628.3 15.0
626(14) 0.00544 628.8 15.2
634(13) 0.00585 629.2 15.4
615(13) 0.00600 629.6 15.6
664(14) 0.00521 630.1 15.8
637(14) 0.00505 630.5 16.0
625(13) 0.00560 630.9 16.2
652(13) 0.00564 631.4 16.4
621(13) 0.00587 631.8 16.6
645(14) 0.00526 632.3 16.8
630(14) 0.00503 632.7 17.0
642(14) 0.00533 633.1 17.3
632(13) 0.00583 633.6 17.5
637(13) 0.00578 634.0 17.7
635(14) 0.00537 634.4 18.0
630(14) 0.00524 634.9 18.2
662(14) 0.00526 635.3 18.5
623(13) 0.00588 635.7 18.8
655(13) 0.00563 636.2 19.0
612(13) 0.00570 636.6 19.3
623(14) 0.00541 637.0 19.6
680(14) 0.00487 637.5 19.9
622(13) 0.00596 637.9 20.2
654(14) 0.00546 638.3 20.5
603(13) 0.00571 638.8 20.8
610(14) 0.00534 639.2 21.2
654(14) 0.00521 639.6 21.5
642(13) 0.00581 640.1 21.9
672(14) 0.00529 640.5 22.2
609(13) 0.00588 640.9 22.6
637(14) 0.00534 641.4 23.0
619(13) 0.00564 641.8 23.3
634(13) 0.00594 642.3 23.7
645(13) 0.00551 642.7 24.2
614(13) 0.00572 643.1 24.6
630(14) 0.00533 643.6 25.0
642(14) 0.00547 644.0 25.5
641(13) 0.00578 644.4 25.9
659(14) 0.00545 644.9 26.4
648(14) 0.00544 645.3 26.9
643(13) 0.00549 645.7 27.4
659(14) 0.00546 646.2 27.9
642(13) 0.00579 646.6 28.5
636(14) 0.00547 647.0 29.0
668(14) 0.00499 647.5 29.6
664(14) 0.00509 647.9 30.2
646(13) 0.00549 648.3 30.8
634(13) 0.00583 648.8 31.5
675(14) 0.00502 649.2 32.1
651(14) 0.00506 649.6 32.8
628(13) 0.00564 650.1 33.5
654(13) 0.00556 650.5 34.2
652(13) 0.00566 650.9 35.0
633(13) 0.00551 651.4 35.8
649(14) 0.00505 651.8 36.6
672(14) 0.00526 652.3 37.4
699(14) 0.00527 652.7 38.3
677(13) 0.00551 653.1 39.2
632(13) 0.00568 653.6 40.1
683(15) 0.00465 654.0 41.1
702(14) 0.00484 654.4 42.1
639(13) 0.00571 654.9 43.2
671(13) 0.00560 655.3 44.3
666(14) 0.00534 655.7 45.4
697(15) 0.00457 656.2 46.6
690(14) 0.00498 656.6 47.8
669(13) 0.00551 657.0 49.1
690(14) 0.00527 657.5 50.4
686(14) 0.00504 657.9 51.8
717(15) 0.00458 658.3 53.3
732(15) 0.00470 658.8 54.8
725(14) 0.00513 659.2 56.4
690(14) 0.00529 659.6 58.1
710(15) 0.00469 660.1 59.8
674(14) 0.00505 660.5 61.6
761(15) 0.00453 661.0 63.5
728(14) 0.00515 661.4 65.5
726(14) 0.00507 661.8 67.6
728(14) 0.00479 662.3 69.8
735(15) 0.00457 662.7 72.2
719(14) 0.00487 663.1 74.6
684(14) 0.00540 663.6 77.2
711(14) 0.00496 664.0 79.9
713(14) 0.00478 664.4 82.7
697(14) 0.00501 664.9 85.7
717(14) 0.00502 665.3 88.9
717(14) 0.00519 665.7 92.2
694(14) 0.00517 666.2 95.8
750(15) 0.00448 666.6 99.6
734(15) 0.00465 667.0 103.6
719(14) 0.00506 667.5 107.8
726(14) 0.00511 667.9 112.3
726(15) 0.00469 668.3 117.1
714(15) 0.00457 668.8 122.2
728(14) 0.00481 669.2 127.7
738(14) 0.00497 669.6 133.5
772(14) 0.00483 670.1 139.8
728(14) 0.00489 670.5 146.5
754(15) 0.00451 671.0 153.7
773(15) 0.00449 671.4 161.4
805(15) 0.00445 671.8 169.8
806(15) 0.00458 672.3 178.8
802(15) 0.00425 672.7 188.5
808(16) 0.00393 673.1 199.0
846(16) 0.00405 673.6 210.5
817(15) 0.00455 674.0 222.9
833(15) 0.00445 674.4 236.5
866(16) 0.00395 674.9 251.4
865(16) 0.00379 675.3 267.8
893(16) 0.00388 675.7 285.9
919(16) 0.00402 676.2 306.0
928(16) 0.00399 676.6 328.5
933(16) 0.00370 677.0 353.9
1012(18) 0.003181 677.5 382.7
1069(17) 0.003277 677.9 415.7
1051(17) 0.00358 678.3 454.1
1149(18) 0.003156 678.8 499.0
1168(18) 0.003017 679.2 552.1
1263(20) 0.002601 679.6 615.4
1325(20) 0.002590 680.1 691.2
1435(20) 0.002596 680.5 782.4
1542(20) 0.002388 681.0 892.0
1583(21) 0.002216 681.4 1023.6
1833(24) 0.001783 681.8 1180.7
1948(24) 0.001785 682.3 1366.8
2255(25) 0.001645 682.7 1585.2
2482(26) 0.001475 683.1 1838.6
2828(29) 0.001216 683.6 2128.4
3132(31) 0.001056 684.0 2455.0
3554(32) 0.000954 684.4 2816.3
4050(33) 0.000910 684.9 3207.6
4505(35) 0.000795 685. 3620.
5139(39) 0.000661 686. 4038.
5601(41) 0.000590 686. 4442.
5838(41) 0.000588 687. 4803.
6094(41) 0.000605 687. 5088.
6337(43) 0.000552 687. 5266.
6219(43) 0.000541 688. 5312.
5789(41) 0.000589 688. 5222.
5514(40) 0.000640 689. 5007.
5087(37) 0.000728 689. 4693.
4678(37) 0.000739 690. 4315.
4309(36) 0.000785 690. 3905.
3931(34) 0.000878 690.5 3486.4
3561(31) 0.001011 691.0 3080.3
3277(30) 0.001130 691.4 2698.3
3045(30) 0.001119 691.8 2348.2
2752(29) 0.001218 692.3 2033.9
2684(28) 0.001290 692.7 1756.3
2380(25) 0.001543 693.1 1515.0
2163(24) 0.001712 693.6 1307.8
2041(24) 0.001685 694.0 1132.0
1917(24) 0.001719 694.4 984.1
1729(22) 0.002040 694.9 860.5
1701(22) 0.002149 695.3 757.8
1630(21) 0.002263 695.7 672.5
1447(20) 0.002422 696.2 601.7
1428(21) 0.002300 696.6 542.7
1381(20) 0.002501 697.0 493.2
1303(19) 0.002834 697.5 451.4
1300(19) 0.002850 697.9 415.8
1258(19) 0.002735 698.3 385.2
1202(19) 0.002708 698.8 358.7
1178(18) 0.003010 699.2 335.6
1085(17) 0.003440 699.7 315.3
1112(17) 0.003315 700.1 297.5
1083(18) 0.003194 700.5 281.8
990(17) 0.003326 701.0 268.1
1001(17) 0.003479 701.4 256.1
1047(17) 0.00353 701.8 245.9
971(16) 0.00374 702.3 237.2
958(17) 0.00364 702.7 230.2
920(17) 0.00357 703.1 224.7
1004(17) 0.003342 703.6 220.9
918(16) 0.00406 704.0 218.8
954(16) 0.00383 704.4 218.3
948(17) 0.00365 704.9 219.6
911(16) 0.00371 705.3 222.6
908(16) 0.00382 705.7 227.4
943(16) 0.00394 706.2 233.8
934(16) 0.00382 706.6 241.9
902(16) 0.00387 707.0 251.2
974(17) 0.00351 707.5 261.6
988(17) 0.00352 707.9 272.6
981(16) 0.00381 708.3 283.3
983(17) 0.00361 708.8 293.1
977(17) 0.00353 709.2 300.8
931(17) 0.00365 709.7 305.3
1003(17) 0.00353 710.1 305.8
972(16) 0.00384 710.5 301.7
927(16) 0.00380 711.0 293.3
938(17) 0.00366 711.4 280.9
944(17) 0.00363 711.8 265.7
907(16) 0.00394 712.3 248.7
904(16) 0.00410 712.7 230.8
910(16) 0.00368 713.1 212.8
893(16) 0.00376 713.6 195.3
850(16) 0.00415 714.0 178.8
839(15) 0.00431 714.4 163.4
868(15) 0.00427 714.9 149.3
836(16) 0.00407 715.3 136.6
791(15) 0.00422 715.7 125.2
771(15) 0.00455 716.2 115.0
780(15) 0.00475 716.6 106.1
783(14) 0.00479 717.0 98.3
759(15) 0.00463 717.5 91.5
783(16) 0.00414 717.9 85.5
750(15) 0.00471 718.4 80.3
775(14) 0.00480 718.8 75.7
774(14) 0.00476 719.2 71.7
777(15) 0.00438 719.7 68.2
753(15) 0.00427 720.1 65.0
763(15) 0.00453 720.5 62.2
732(14) 0.00504 721.0 59.6
754(14) 0.00487 721.4 57.3
795(15) 0.00431 721.8 55.2
770(15) 0.00427 722.3 53.2
782(15) 0.00439 722.7 51.4
792(15) 0.00467 723.1 49.7
753(14) 0.00493 723.6 48.1
753(15) 0.00467 724.0 46.6
748(15) 0.00439 724.4 45.2
762(15) 0.00460 724.9 43.9
752(14) 0.00495 725.3 42.7
756(14) 0.00484 725.7 41.5
733(14) 0.00477 726.2 40.4
734(15) 0.00449 726.6 39.3
723(15) 0.00475 727.0 38.3
752(14) 0.00492 727.5 37.3
752(14) 0.00480 727.9 36.4
780(15) 0.00447 728.4 35.5
792(15) 0.00434 728.8 34.6
770(15) 0.00454 729.2 33.8
737(14) 0.00505 729.7 33.1
734(14) 0.00488 730.1 32.3
728(14) 0.00479 730.5 31.6
740(15) 0.00458 731.0 30.9
696(14) 0.00503 731.4 30.3
731(14) 0.00509 731.8 29.6
752(15) 0.00471 732.3 29.0
749(15) 0.00456 732.7 28.4
771(15) 0.00435 733.1 27.9
739(14) 0.00481 733.6 27.3
729(14) 0.00509 734.0 26.8
741(15) 0.00468 734.4 26.3
783(15) 0.00431 734.9 25.8
776(15) 0.00438 735.3 25.3
750(14) 0.00480 735.7 24.9
730(14) 0.00506 736.2 24.4
718(14) 0.00487 736.6 24.0
763(15) 0.00439 737.0 23.6
736(15) 0.00474 737.5 23.2
753(14) 0.00488 737.9 22.8
776(14) 0.00477 738.4 22.5
759(15) 0.00450 738.8 22.1
735(15) 0.00450 739.2 21.7
750(15) 0.00467 739.7 21.4
767(14) 0.00481 740.1 21.1
751(14) 0.00502 740.5 20.8
747(15) 0.00465 741.0 20.5
694(14) 0.00480 741.4 20.2
725(14) 0.00489 741.8 19.9
699(14) 0.00533 742.3 19.6
770(14) 0.00482 742.7 19.3
737(15) 0.00471 743.1 19.1
766(16) 0.00413 743.6 18.8
781(15) 0.00438 744.0 18.6
775(14) 0.00478 744.4 18.3
762(14) 0.00487 744.9 18.1
771(15) 0.00444 745.3 17.9
766(15) 0.00428 745.7 17.7
774(15) 0.00445 746.2 17.5
796(15) 0.00470 746.6 17.3
717(14) 0.00507 747.0 17.1
751(15) 0.00463 747.5 16.9
741(15) 0.00437 747.9 16.7
750(15) 0.00453 748.4 16.5
778(14) 0.00481 748.8 16.4
773(15) 0.00463 749.2 16.2
740(15) 0.00471 749.7 16.0
769(15) 0.00432 750.1 15.9
735(15) 0.00471 750.5 15.7
751(14) 0.00495 751.0 15.6
755(15) 0.00474 751.4 15.5
756(15) 0.00451 751.8 15.3
711(14) 0.00481 752.3 15.2
771(15) 0.00447 752.7 15.1
756(14) 0.00492 753.1 15.0
760(15) 0.00457 753.6 14.9
743(15) 0.00457 754.2 14.8
769(15) 0.00442 754.8 14.7
752(14) 0.00478 755.4 14.6
755(14) 0.00489 756.0 14.5
776(15) 0.00448 756.6 14.4
776(15) 0.00442 757.2 14.3
762(15) 0.00440 757.8 14.3
755(14) 0.00484 758.4 14.2
774(14) 0.00478 759.0 14.1
764(15) 0.00455 759.6 14.1
781(15) 0.00428 760.2 14.0
778(15) 0.00440 760.8 14.0
761(15) 0.00475 761.4 14.0
758(14) 0.00490 762.0 13.9
795(15) 0.00438 762.6 13.9
780(15) 0.00420 763.2 13.9
776(15) 0.00446 763.8 13.9
777(14) 0.00476 764.4 13.9
791(15) 0.00469 765.0 13.9
756(15) 0.00465 765.6 13.9
762(15) 0.00436 766.2 13.9
761(15) 0.00442 766.8 14.0
756(14) 0.00489 767.4 14.0
762(14) 0.00482 768.0 14.1
757(15) 0.00462 768.6 14.1
781(16) 0.00407 769.2 14.2
756(15) 0.00462 769.8 14.3
742(14) 0.00508 770.4 14.4
763(15) 0.00473 771.0 14.5
775(15) 0.00439 771.6 14.6
814(16) 0.00395 772.2 14.7
753(15) 0.00467 772.8 14.9
763(14) 0.00486 773.4 15.1
759(14) 0.00487 774.0 15.3
786(15) 0.00436 774.6 15.5
778(15) 0.00426 775.2 15.7
769(15) 0.00451 775.8 15.9
806(15) 0.00459 776.4 16.2
785(15) 0.00456 777.0 16.5
761(15) 0.00451 777.6 16.8
788(16) 0.00413 778.2 17.2
724(14) 0.00480 778.8 17.6
791(15) 0.00467 779.4 18.0
831(15) 0.00435 780.0 18.5
790(15) 0.00431 780.6 19.0
844(16) 0.00399 781.2 19.6
862(16) 0.00404 781.8 20.3
801(15) 0.00468 782.4 21.0
813(15) 0.00436 783.0 21.8
825(16) 0.00412 783.6 22.6
828(16) 0.00416 784.2 23.6
783(15) 0.00457 784.8 24.7
794(15) 0.00469 785.4 25.9
813(15) 0.00432 786.0 27.2
827(16) 0.00412 786.6 28.7
843(16) 0.00411 787.2 30.4
789(15) 0.00460 787.8 32.3
807(15) 0.00460 788.4 34.5
841(16) 0.00409 789.0 37.0
864(16) 0.00384 789.6 39.9
856(16) 0.00402 790.2 43.4
834(15) 0.00433 790.8 47.4
900(16) 0.00414 791.4 52.4
880(16) 0.00390 792.0 58.6
856(16) 0.00388 792.6 66.6
900(16) 0.00386 793.2 77.1
917(16) 0.00397 793.8 91.1
928(16) 0.00401 794.4 110.0
951(16) 0.00374 795.0 135.4
1048(18) 0.003082 795.6 168.9
1068(18) 0.003223 796.2 212.2
1072(17) 0.003427 796.8 266.7
1157(18) 0.003206 797.4 332.7
1225(19) 0.002861 798.0 409.5
1308(20) 0.002448 798.6 494.5
1383(20) 0.002501 799.2 582.4
1463(20) 0.002520 799.8 664.3
1528(20) 0.002404 800.4 728.0
1577(21) 0.002184 801.0 760.0
1536(22) 0.002141 801.6 752.5
1591(21) 0.002209 802.2 707.3
1461(20) 0.002522 802.8 635.2
1340(19) 0.002708 803.4 549.7
1161(18) 0.002974 804.0 462.0
1118(18) 0.002930 804.6 379.5
1078(18) 0.003178 805.2 306.5
1027(17) 0.00365 805.8 244.6
979(16) 0.00370 806.4 194.4
946(16) 0.00372 807.0 154.8
926(16) 0.00371 807.6 124.4
865(16) 0.00411 808.2 101.6
875(15) 0.00424 808.8 84.6
851(15) 0.00423 809.4 71.9
863(16) 0.00398 810.0 62.4
882(16) 0.00373 810.6 55.1
878(16) 0.00400 811.2 49.3
813(15) 0.00461 811.8 44.6
827(15) 0.00424 812.4 40.8
797(15) 0.00439 813.0 37.5
836(16) 0.00405 813.6 34.7
861(16) 0.00407 814.2 32.2
825(15) 0.00450 814.8 30.0
826(15) 0.00420 815.4 28.1
811(15) 0.00430 816.0 26.4
856(16) 0.00399 816.5 24.9
810(15) 0.00443 817.1 23.6
870(15) 0.00427 817.7 22.3
848(16) 0.00406 818.3 21.2
837(16) 0.00394 818.9 20.2
847(16) 0.00400 819.5 19.3
840(15) 0.00431 820.1 18.5
851(15) 0.00436 820.7 17.8
830(15) 0.00421 821.3 17.1
867(16) 0.00372 821.9 16.4
822(15) 0.00420 822.5 15.8
853(15) 0.00429 823.1 15.3
819(15) 0.00455 823.7 14.8
837(16) 0.00412 824.3 14.3
844(16) 0.00381 824.9 13.9
821(15) 0.00426 825.5 13.5
861(15) 0.00426 826.1 13.1
808(15) 0.00457 826.7 12.8
822(15) 0.00427 827.3 12.5
851(16) 0.00374 827.9 12.2
809(15) 0.00432 828.5 11.9
831(15) 0.00446 829.1 11.6
846(15) 0.00436 829.7 11.4
848(16) 0.00410 830.3 11.1
796(16) 0.00413 830.9 10.9
824(16) 0.00414 831.5 10.7
816(15) 0.00455 832.1 10.5
848(15) 0.00433 832.7 10.3
824(15) 0.00421 833.3 10.2
827(16) 0.00395 833.9 10.0
852(16) 0.00404 834.5 9.9
891(15) 0.00417 835.1 9.7
847(15) 0.00432 835.7 9.6
844(16) 0.00408 836.3 9.4
859(16) 0.00392 836.9 9.3
908(16) 0.00374 837.5 9.2
892(15) 0.00417 838.1 9.1
861(15) 0.00421 838.7 9.0
852(16) 0.00400 839.3 8.9
893(16) 0.00371 839.9 8.8
870(16) 0.00404 840.5 8.7
843(15) 0.00443 841.1 8.6
876(16) 0.00411 841.7 8.6
871(16) 0.00393 842.3 8.5
860(16) 0.00394 842.9 8.4
868(16) 0.00407 843.5 8.4
822(15) 0.00450 844.1 8.3
836(15) 0.00418 844.7 8.3
835(16) 0.00409 845.3 8.2
879(16) 0.00385 845.9 8.2
848(15) 0.00424 846.5 8.1
810(15) 0.00460 847.1 8.1
796(15) 0.00434 847.7 8.0
851(16) 0.00393 848.3 8.0
873(16) 0.00400 848.9 8.0
866(15) 0.00420 849.5 7.9
866(15) 0.00428 850.1 7.9
858(16) 0.00398 850.7 7.9
842(16) 0.00392 851.3 7.9
853(16) 0.00406 851.9 7.8
913(16) 0.00402 852.5 7.8
881(15) 0.00419 853.1 7.8
841(15) 0.00420 853.7 7.8
867(16) 0.00382 854.3 7.8
896(16) 0.00383 854.9 7.8
874(15) 0.00424 855.5 7.8
872(15) 0.00425 856.1 7.8
898(16) 0.00396 856.7 7.8
850(16) 0.00391 857.3 7.8
837(15) 0.00422 857.9 7.8
861(15) 0.00430 858.5 7.8
874(15) 0.00423 859.1 7.8
829(15) 0.00425 859.7 7.8
878(17) 0.00366 860.3 7.8
838(15) 0.00420 860.9 7.9
890(15) 0.00417 861.5 7.9
846(15) 0.00440 862.1 7.9
857(16) 0.00415 862.7 7.9
869(16) 0.00374 863.3 8.0
845(16) 0.00407 863.9 8.0
894(16) 0.00416 864.5 8.0
858(15) 0.00423 865.1 8.0
844(16) 0.00413 865.7 8.1
890(17) 0.00365 866.3 8.1
892(16) 0.00382 866.8 8.2
866(15) 0.00431 867.3 8.2
879(16) 0.00413 867.7 8.3
901(16) 0.00384 868.2 8.3
896(16) 0.00377 868.7 8.4
875(16) 0.00396 869.1 8.4
913(16) 0.00408 869.6 8.5
877(16) 0.00407 870.1 8.5
870(16) 0.00401 870.6 8.6
870(16) 0.00394 871.0 8.7
889(16) 0.00395 871.5 8.7
932(16) 0.00401 872.0 8.8
917(16) 0.00384 872.4 8.9
885(16) 0.00381 872.9 9.0
840(16) 0.00411 873.4 9.1
905(16) 0.00391 873.8 9.1
868(15) 0.00431 874.3 9.2
857(16) 0.00412 874.8 9.3
873(16) 0.00389 875.3 9.4
893(16) 0.00392 875.7 9.5
892(16) 0.00403 876.2 9.6
897(15) 0.00421 876.7 9.8
882(16) 0.00402 877.1 9.9
914(16) 0.00369 877.6 10.0
891(16) 0.00392 878.1 10.1
888(16) 0.00409 878.5 10.3
881(15) 0.00420 879.0 10.4
903(16) 0.00375 879.5 10.5
866(16) 0.00386 880.0 10.7
907(16) 0.00384 880.4 10.8
851(15) 0.00430 880.9 11.0
881(15) 0.00417 881.4 11.2
916(16) 0.00377 881.8 11.4
908(17) 0.00361 882.3 11.5
865(16) 0.00414 882.8 11.7
891(15) 0.00419 883.2 11.9
919(16) 0.00403 883.7 12.1
910(16) 0.00386 884.2 12.4
875(17) 0.00367 884.6 12.6
902(16) 0.00389 885.1 12.8
923(16) 0.00406 885.6 13.1
895(15) 0.00418 886.1 13.3
903(16) 0.00386 886.5 13.6
891(16) 0.00369 887.0 13.9
870(16) 0.00402 887.5 14.2
917(16) 0.00404 887.9 14.5
932(16) 0.00394 888.4 14.8
925(16) 0.00378 888.9 15.1
919(17) 0.003505 889.3 15.5
878(16) 0.00393 889.8 15.8
908(16) 0.00411 890.3 16.2
887(16) 0.00410 890.8 16.6
885(16) 0.00389 891.2 17.0
917(17) 0.00357 891.7 17.5
886(16) 0.00387 892.2 17.9
901(16) 0.00413 892.6 18.4
915(16) 0.00392 893.1 18.9
892(16) 0.00380 893.6 19.4
909(16) 0.00375 894.0 20.0
931(16) 0.00368 894.5 20.6
936(16) 0.00396 895.0 21.2
927(16) 0.00387 895.5 21.9
883(16) 0.00389 895.9 22.6
908(16) 0.00380 896.4 23.3
913(16) 0.00390 896.9 24.1
882(15) 0.00422 897.3 24.9
963(17) 0.00358 897.8 25.8
930(16) 0.00368 898.3 26.7
911(16) 0.00380 898.7 27.6
950(16) 0.00377 899.2 28.7
933(16) 0.00397 899.7 29.8
966(17) 0.00355 900.1 30.9
927(17) 0.00362 900.6 32.2
931(16) 0.00377 901.1 33.5
957(16) 0.00376 901.6 34.9
919(16) 0.00406 902.0 36.5
955(17) 0.00357 902.5 38.1
948(17) 0.003474 903.0 39.8
937(16) 0.00379 903.4 41.7
975(16) 0.00377 903.9 43.7
931(16) 0.00399 904.4 45.9
962(16) 0.00371 904.8 48.3
951(17) 0.003477 905.3 50.9
979(17) 0.00355 905.8 53.7
978(16) 0.00375 906.3 56.9
981(16) 0.00374 906.7 60.3
966(17) 0.00361 907.2 64.1
916(17) 0.00355 907.7 68.3
997(17) 0.003464 908.1 73.0
1005(16) 0.00369 908.6 78.4
988(16) 0.00373 909.1 84.4
978(17) 0.00352 909.5 91.2
1013(18) 0.003162 910.0 99.0
1009(17) 0.003443 910.5 107.8
1013(17) 0.00364 910.9 118.0
1045(17) 0.00355 911.4 129.5
1049(17) 0.003313 911.9 142.7
1013(17) 0.003301 912.4 157.8
1076(18) 0.003239 912.8 174.9
1050(17) 0.00354 913.3 194.3
1053(17) 0.003461 913.8 216.2
1127(18) 0.003105 914.2 240.7
1196(19) 0.002816 914.7 267.9
1195(19) 0.002849 915.2 298.1
1268(18) 0.002923 915.6 331.2
1253(19) 0.002849 916.1 367.0
1298(20) 0.002619 916.6 405.5
1334(20) 0.002527 917.1 446.3
1435(20) 0.002412 917.5 488.6
1521(20) 0.002444 918.0 531.6
1604(22) 0.002156 918.5 574.1
1624(22) 0.002084 918.9 614.3
1627(22) 0.002096 919.4 650.2
1682(22) 0.002054 919.9 679.7
1686(21) 0.002201 920.3 700.8
1685(22) 0.002113 920.8 711.6
1635(22) 0.002088 921.3 711.3
1685(22) 0.002018 921.8 699.9
1645(22) 0.002142 922.2 678.3
1561(20) 0.002382 922.7 648.4
1555(21) 0.002204 923.2 612.1
1526(21) 0.002221 923.6 571.7
1467(21) 0.002375 924.1 529.2
1372(20) 0.002626 924.6 486.2
1399(19) 0.002641 925.0 443.9
1339(20) 0.002591 925.5 403.3
1295(20) 0.002606 926.0 364.9
1294(19) 0.002659 926.4 329.1
1248(19) 0.002902 926.9 296.2
1235(18) 0.003006 927.4 266.2
1172(18) 0.002956 927.9 239.1
1193(19) 0.002697 928.3 214.7
1169(18) 0.002973 928.8 193.0
1157(18) 0.003176 929.3 173.7
1164(18) 0.003160 929.7 156.7
1142(18) 0.003017 930.2 141.7
1127(19) 0.002859 930.7 128.5
1072(17) 0.003270 931.1 117.0
1091(17) 0.003350 931.6 107.0
1075(17) 0.003458 932.1 98.2
1057(17) 0.003271 932.6 90.4
1080(18) 0.002953 933.0 83.6
1049(17) 0.003361 933.5 77.7
1021(17) 0.00365 934.0 72.3
1088(17) 0.003385 934.4 67.6
1035(17) 0.003337 934.9 63.4
1044(18) 0.003145 935.4 59.6
1016(17) 0.003408 935.8 56.2
979(16) 0.00380 936.3 53.1
1060(17) 0.003399 936.8 50.2
1036(17) 0.003319 937.2 47.6
1020(17) 0.003278 937.7 45.3
1008(17) 0.003446 938.2 43.1
1017(17) 0.00367 938.7 41.0
1030(17) 0.00353 939.1 39.1
1043(17) 0.003323 939.6 37.4
1016(17) 0.003372 940.1 35.7
1000(17) 0.00356 940.5 34.2
993(16) 0.00374 941.0 32.8
999(17) 0.00360 941.5 31.4
974(17) 0.003507 941.9 30.2
985(17) 0.003442 942.4 29.0
1017(17) 0.003492 942.9 27.9
1024(17) 0.00361 943.4 26.8
1004(17) 0.003491 943.8 25.8
1017(17) 0.003348 944.3 24.9
973(17) 0.00357 944.8 24.0
1012(17) 0.00354 945.2 23.2
1025(17) 0.00361 945.7 22.4
985(17) 0.00357 946.2 21.7
937(17) 0.00365 946.6 21.0
978(17) 0.003500 947.1 20.3
951(16) 0.00377 947.6 19.7
990(16) 0.00374 948.1 19.0
998(17) 0.003425 948.5 18.5
984(17) 0.003411 949.0 17.9
1018(17) 0.003334 949.5 17.4
1011(17) 0.00360 949.9 16.9
994(16) 0.00372 950.4 16.4
969(17) 0.003475 950.9 16.0
1003(18) 0.003197 951.3 15.5
1001(17) 0.003421 951.8 15.1
994(16) 0.00370 952.3 14.7
964(16) 0.00383 952.7 14.3
1032(17) 0.003350 953.2 14.0
994(17) 0.003280 953.7 13.6
970(17) 0.00365 954.2 13.3
1003(16) 0.00368 954.6 12.9
968(16) 0.00380 955.1 12.6
998(17) 0.003472 955.6 12.3
1004(18) 0.003207 956.0 12.1
963(17) 0.00359 956.5 11.8
993(16) 0.00369 957.0 11.5
1029(17) 0.00354 957.4 11.3
993(17) 0.00352 957.9 11.0
968(17) 0.003378 958.4 10.8
994(17) 0.003457 958.9 10.5
932(16) 0.00400 959.3 10.3
1014(17) 0.00359 959.8 10.1
968(17) 0.00358 960.3 9.9
994(17) 0.003348 960.7 9.7
1018(17) 0.003418 961.2 9.5
1001(17) 0.00367 961.7 9.3
986(17) 0.00365 962.1 9.2
1027(17) 0.003304 962.6 9.0
1012(17) 0.003353 963.1 8.9
984(17) 0.00359 963.5 8.7
981(16) 0.00376 964.0 8.5
970(17) 0.00364 964.5 8.4
982(17) 0.00351 965.0 8.3
1000(17) 0.003360 965.4 8.1
1019(17) 0.003476 965.9 8.0
1043(17) 0.00358 966.4 7.8
1020(17) 0.00351 966.8 7.7
1011(17) 0.003407 967.3 7.6
948(17) 0.00364 967.8 7.5
976(17) 0.00367 968.2 7.3
970(16) 0.00382 968.7 7.2
978(17) 0.00362 969.2 7.1
991(17) 0.003380 969.7 7.0
953(17) 0.00359 970.1 6.9
1008(17) 0.00354 970.6 6.8
996(16) 0.00374 971.1 6.7
1009(17) 0.003354 971.5 6.6
1013(18) 0.003224 972.0 6.5
986(17) 0.003504 972.5 6.4
980(16) 0.00370 972.9 6.3
982(16) 0.00380 973.4 6.2
1012(17) 0.003415 973.9 6.1
986(17) 0.003418 974.4 6.1
1039(17) 0.003324 974.8 6.0
1001(16) 0.00368 975.3 5.9
1015(17) 0.00365 975.8 5.8
1018(17) 0.003428 976.2 5.8
1044(18) 0.003074 976.7 5.7
969(16) 0.00371 977.2 5.6
1049(17) 0.003488 977.6 5.5
1032(17) 0.00356 978.1 5.5
952(16) 0.00370 978.6 5.4
1031(18) 0.003120 979.0 5.4
1035(17) 0.003348 979.5 5.3
1046(17) 0.00357 980.0 5.2
945(16) 0.00394 980.5 5.2
997(17) 0.003453 980.9 5.1
1001(18) 0.003186 981.4 5.1
981(17) 0.003477 981.9 5.0
1002(16) 0.00369 982.3 5.0
975(16) 0.00376 982.8 4.9
1031(17) 0.003314 983.3 4.8
996(17) 0.003312 983.7 4.8
1041(17) 0.003313 984.2 4.8
1034(17) 0.00360 984.7 4.7
1086(17) 0.003330 985.2 4.7
1047(17) 0.003327 985.6 4.6
1009(17) 0.003295 986.1 4.6
993(17) 0.003431 986.6 4.5
992(16) 0.00375 987.0 4.5
1001(17) 0.00361 987.5 4.5
994(17) 0.003444 988.0 4.4
1031(18) 0.003228 988.4 4.4
1004(17) 0.003458 988.9 4.3
1010(17) 0.00367 989.4 4.3
1061(17) 0.003378 989.8 4.3
1011(17) 0.003430 990.3 4.2
1083(18) 0.003126 990.8 4.2
1018(17) 0.003479 991.3 4.2
971(16) 0.00384 991.7 4.2
1011(17) 0.003488 992.2 4.1
1063(18) 0.003192 992.7 4.1
1028(17) 0.003359 993.1 4.1
1014(17) 0.003499 993.6 4.1
997(16) 0.00373 994.1 4.0
1024(17) 0.003453 994.5 4.0
1046(18) 0.003207 995.0 4.0
1065(17) 0.003279 995.5 4.0
986(16) 0.00370 996.0 4.0
964(16) 0.00384 996.4 3.9
1017(17) 0.003369 996.9 3.9
1049(18) 0.003117 997.4 3.9
1032(17) 0.003366 997.8 3.9
983(16) 0.00375 998.3 3.9
1018(17) 0.00367 998.8 3.9
989(17) 0.00357 999.2 3.9
1006(18) 0.003260 999.7 3.9
1034(17) 0.003397 1000.2 3.9
1026(17) 0.00359 1000.7 3.9
943(16) 0.00397 1001.1 3.9
1020(17) 0.003408 1001.6 3.9
988(18) 0.003255 1002.1 3.9
988(17) 0.00352 1002.5 3.9
996(16) 0.00376 1003.0 3.9
986(16) 0.00375 1003.5 3.9
1044(17) 0.003367 1003.9 3.9
1038(18) 0.003126 1004.4 4.0
1009(17) 0.003459 1004.9 4.0
1026(17) 0.00359 1005.3 4.0
998(16) 0.00370 1005.8 4.0
1013(17) 0.003405 1006.3 4.0
1016(18) 0.003226 1006.8 4.0
1021(17) 0.003418 1007.2 4.1
1034(17) 0.00359 1007.7 4.1
1043(17) 0.003473 1008.2 4.1
1020(17) 0.003421 1008.6 4.1
1020(17) 0.003361 1009.1 4.1
1030(17) 0.003348 1009.6 4.1
1025(17) 0.00362 1010.0 4.1
1014(17) 0.003484 1010.5 4.2
1038(17) 0.003307 1011.0 4.2
1000(17) 0.003432 1011.5 4.2
1014(17) 0.003456 1011.9 4.2
1031(17) 0.00360 1012.4 4.2
1008(17) 0.00355 1012.9 4.1
1016(17) 0.003460 1013.3 4.1
1027(17) 0.003356 1013.8 4.1
1056(17) 0.003306 1014.0 4.1
1068(17) 0.003477 1014.2 4.0
1029(17) 0.003478 1014.4 4.0
1004(17) 0.003371 1014.6 4.0
999(17) 0.003418 1014.8 3.9
1028(17) 0.003491 1014.9 3.9
995(16) 0.00374 1015.1 3.9
991(17) 0.003506 1015.3 3.8
1022(17) 0.003270 1015.5 3.8
1026(17) 0.003297 1015.7 3.7
1010(17) 0.00361 1015.8 3.7
994(16) 0.00374 1016.0 3.7
975(17) 0.003499 1016.2 3.6
1015(17) 0.003270 1016.4 3.6
1061(18) 0.003256 1016.6 3.5
1028(17) 0.00358 1016.7 3.5
1044(17) 0.00357 1016.9 3.5
1045(17) 0.003387 1017.1 3.4
1041(18) 0.003166 1017.3 3.4
1072(18) 0.003248 1017.5 3.4
1039(17) 0.003494 1017.6 3.4
1019(16) 0.00371 1017.8 3.3
1087(18) 0.003151 1018.0 3.3
991(17) 0.003336 1018.2 3.3
1008(17) 0.003496 1018.4 3.3
950(16) 0.00389 1018.5 3.2
1028(17) 0.00360 1018.7 3.2
1040(17) 0.003349 1018.9 3.2
1048(18) 0.003094 1019.1 3.2
1064(17) 0.003277 1019.3 3.2
1047(17) 0.00358 1019.5 3.2
1044(17) 0.003487 1019.6 3.2
1006(17) 0.003501 1019.8 3.2
1028(18) 0.003234 1020.0 3.2
1047(17) 0.003362 1020.2 3.2
1078(17) 0.003431 1020.4 3.1
1008(17) 0.00362 1020.5 3.1
1058(17) 0.003290 1020.7 3.1
1036(18) 0.003254 1020.9 3.1
1014(17) 0.003405 1021.1 3.2
1005(16) 0.00371 1021.3 3.2
1032(17) 0.00353 1021.4 3.2
1083(18) 0.003169 1021.6 3.2
1046(18) 0.003182 1021.8 3.2
1059(18) 0.003220 1022.0 3.2
1011(16) 0.00369 1022.2 3.2
1045(17) 0.003363 1022.3 3.2
1096(18) 0.003035 1022.5 3.2
1042(18) 0.003245 1022.7 3.2
1002(17) 0.00357 1022.9 3.3
992(16) 0.00375 1023.1 3.3
1078(18) 0.003258 1023.2 3.3
1059(18) 0.003194 1023.4 3.3
1062(18) 0.003209 1023.6 3.4
1048(17) 0.003341 1023.8 3.4
1037(17) 0.00362 1024.0 3.4
1079(18) 0.003192 1024.1 3.4
1058(18) 0.003170 1024.3 3.5
1041(17) 0.003349 1024.5 3.5
1034(17) 0.00352 1024.7 3.5
1043(17) 0.00357 1024.9 3.6
1021(17) 0.003330 1025.1 3.6
1034(18) 0.003241 1025.2 3.7
1073(18) 0.003226 1025.4 3.7
1092(17) 0.003352 1025.6 3.8
1054(17) 0.003492 1025.8 3.8
1034(17) 0.003337 1026.0 3.9
1079(18) 0.002955 1026.1 3.9
1079(18) 0.003183 1026.3 4.0
1067(17) 0.003422 1026.5 4.1
1052(17) 0.00355 1026.7 4.1
1041(17) 0.003388 1026.9 4.2
1025(18) 0.003116 1027.0 4.3
1001(17) 0.00354 1027.2 4.4
1037(17) 0.00356 1027.4 4.5
1018(17) 0.00364 1027.6 4.6
1012(17) 0.003439 1027.8 4.7
1060(18) 0.003035 1027.9 4.8
1041(17) 0.003347 1028.1 4.9
1049(17) 0.00357 1028.3 5.0
1038(17) 0.00353 1028.5 5.2
1018(17) 0.003408 1028.7 5.3
1082(18) 0.002971 1028.8 5.5
1021(17) 0.003471 1029.0 5.7
1030(17) 0.00362 1029.2 5.9
1052(17) 0.003451 1029.4 6.1
1035(17) 0.003332 1029.6 6.3
1052(18) 0.003152 1029.7 6.6
1075(18) 0.003262 1029.9 6.8
1050(17) 0.00354 1030.1 7.1
1097(17) 0.003342 1030.3 7.5
1071(18) 0.003264 1030.5 7.8
1079(18) 0.003100 1030.7 8.2
1022(17) 0.003364 1030.8 8.7
1044(17) 0.00356 1031.0 9.0
1093(17) 0.003277 1031.2 9.5
1063(17) 0.003282 1031.4 10.1
1055(18) 0.003221 1031.6 10.7
1035(17) 0.003414 1031.7 11.4
1009(16) 0.00369 1031.9 12.2
1021(17) 0.003450 1032.1 13.0
1078(18) 0.003009 1032.3 13.8
1052(18) 0.003183 1032.5 14.8
1061(17) 0.003339 1032.6 15.8
1060(17) 0.00352 1032.8 16.9
1103(18) 0.003139 1033.0 18.1
1089(18) 0.003091 1033.2 19.4
1079(18) 0.003194 1033.4 20.7
1081(17) 0.003341 1033.5 22.1
1108(17) 0.003353 1033.7 23.6
1082(18) 0.003111 1033.9 25.2
1101(18) 0.002978 1034.1 26.8
1070(18) 0.003246 1034.3 28.4
1111(17) 0.003278 1034.4 30.1
1110(17) 0.003349 1034.6 31.8
1081(18) 0.003192 1034.8 33.5
1071(18) 0.003138 1035.0 35.1
1044(17) 0.003381 1035.2 36.6
1078(17) 0.003430 1035.3 38.0
1071(17) 0.003486 1035.5 39.2
1103(18) 0.003151 1035.7 40.2
1090(18) 0.002992 1035.9 41.0
1139(18) 0.003033 1036.1 41.5
1095(17) 0.003352 1036.3 41.7
1068(17) 0.003452 1036.4 41.5
1072(18) 0.003237 1036.6 41.1
1118(19) 0.002824 1036.8 40.4
1106(18) 0.003172 1037.0 39.5
1103(17) 0.003387 1037.2 38.3
1084(17) 0.003386 1037.3 36.9
1080(18) 0.003203 1037.5 35.4
1117(19) 0.002851 1037.7 33.8
1067(17) 0.003290 1037.9 32.1
1087(17) 0.003421 1038.1 30.4
1061(17) 0.003452 1038.2 28.8
1043(17) 0.003318 1038.4 27.1
1051(18) 0.003100 1038.6 25.5
1042(17) 0.003315 1038.8 23.9
1036(17) 0.00359 1039.0 22.4
1051(17) 0.003462 1039.1 20.9
1042(17) 0.003442 1039.3 19.5
1054(18) 0.003199 1039.5 18.3
1006(17) 0.003389 1039.7 17.0
1033(17) 0.00359 1039.9 15.9
1075(17) 0.003328 1040.0 14.8
1063(18) 0.003235 1040.2 13.9
1065(18) 0.003145 1040.4 13.0
1058(17) 0.003274 1040.6 12.1
1002(16) 0.00370 1040.8 11.3
1078(17) 0.003307 1040.9 10.6
1073(18) 0.003167 1041.1 10.0
1012(17) 0.003464 1041.3 9.4
1046(17) 0.003374 1041.5 8.8
1052(17) 0.00353 1041.7 8.3
1052(17) 0.003443 1041.9 7.9
1066(18) 0.003205 1042.0 7.5
1045(18) 0.003258 1042.2 7.1
1016(17) 0.003491 1042.4 6.7
1047(17) 0.00356 1042.6 6.4
1089(18) 0.003141 1042.8 6.1
1072(18) 0.003206 1042.9 5.9
1048(17) 0.003344 1043.1 5.6
1041(17) 0.003462 1043.3 5.4
1054(17) 0.00352 1043.5 5.2
1069(18) 0.003216 1043.7 5.0
1010(17) 0.003365 1043.8 4.8
1058(17) 0.003326 1044.0 4.6
1070(17) 0.003425 1044.2 4.5
1042(17) 0.00358 1044.4 4.3
1027(17) 0.003367 1044.6 4.2
1042(18) 0.003174 1044.7 4.1
1028(17) 0.003443 1044.9 4.0
1030(17) 0.00355 1045.1 3.8
1045(17) 0.00357 1045.3 3.7
1066(18) 0.003218 1045.5 3.6
1057(18) 0.003075 1045.6 3.5
1076(18) 0.003244 1045.8 3.5
1088(17) 0.003436 1046.0 3.4
1044(17) 0.00354 1046.2 3.3
1025(17) 0.003319 1046.4 3.2
1043(18) 0.003030 1046.5 3.1
1079(18) 0.003189 1046.7 3.1
1092(17) 0.003377 1046.9 3.0
1099(17) 0.003364 1047.1 2.9
1089(18) 0.003133 1047.3 2.9
1057(18) 0.003115 1047.5 2.8
1047(17) 0.003299 1047.6 2.8
1030(17) 0.00361 1047.8 2.7
1057(17) 0.003440 1048.0 2.7
1074(18) 0.003223 1048.2 2.6
1068(18) 0.003100 1048.4 2.6
1035(17) 0.003351 1048.5 2.5
1057(17) 0.003494 1048.7 2.5
1071(17) 0.003363 1048.9 2.4
1013(17) 0.003407 1049.1 2.4
1069(18) 0.003097 1049.3 2.4
1059(17) 0.003310 1049.4 2.3
1074(17) 0.003450 1049.6 2.3
1094(17) 0.003307 1049.7 2.2
1059(17) 0.003269 1049.3 2.2
1049(18) 0.003201 1048.9 2.2
1051(17) 0.003365 1048.6 2.2
1114(17) 0.003333 1048.2 2.1
1071(18) 0.003259 1047.8 2.1
1020(17) 0.003399 1047.4 2.1
1082(18) 0.003191 1047.0 2.0
1072(17) 0.003334 1046.7 2.0
1071(17) 0.003467 1046.3 2.0
1136(18) 0.003001 1045.9 2.0
1082(18) 0.003149 1045.5 1.9
1073(18) 0.003218 1045.1 1.9
1022(17) 0.00354 1044.8 1.9
1048(17) 0.00354 1044.4 1.9
1057(17) 0.003270 1044.0 1.8
1023(17) 0.003278 1043.6 1.8
1048(17) 0.003354 1043.2 1.8
1053(17) 0.003442 1042.9 1.8
1080(17) 0.003421 1042.5 1.8
1043(17) 0.003330 1042.1 1.7
1034(18) 0.003171 1041.7 1.7
1111(18) 0.003094 1041.3 1.7
1089(17) 0.003337 1041.0 1.7
1051(17) 0.00354 1040.6 1.7
1022(17) 0.003346 1040.2 1.7
1023(18) 0.003195 1039.8 1.6
1041(17) 0.003309 1039.4 1.6
1055(17) 0.00352 1039.1 1.6
1089(17) 0.003390 1038.7 1.6
1027(17) 0.003451 1038.3 1.6
1063(18) 0.003033 1037.9 1.6
1012(17) 0.003443 1037.5 1.6
1012(17) 0.00365 1037.2 1.5
1044(17) 0.00353 1036.8 1.5
1049(17) 0.003299 1036.4 1.5
1032(18) 0.003116 1036.0 1.5
1027(17) 0.003380 1035.6 1.5
1115(17) 0.003343 1035.3 1.5
1032(17) 0.00356 1034.9 1.5
1076(18) 0.003117 1034.5 1.5
1025(17) 0.003343 1034.1 1.5
1074(18) 0.003223 1033.7 1.4
1041(17) 0.00357 1033.3 1.4
1076(17) 0.003403 1033.0 1.4
1083(18) 0.003228 1032.6 1.4
1063(18) 0.003131 1032.2 1.4
1007(17) 0.003438 1031.8 1.4
1060(17) 0.003494 1031.4 1.4
1072(17) 0.003296 1031.1 1.4
1064(18) 0.003260 1030.7 1.4
1032(17) 0.003287 1030.3 1.4
1027(17) 0.003418 1029.9 1.3
1025(17) 0.00365 1029.5 1.3
1060(17) 0.003346 1029.2 1.3
1084(18) 0.003082 1028.8 1.3
1078(18) 0.003183 1028.4 1.3
1026(17) 0.003465 1028.0 1.3
1050(17) 0.00354 1027.6 1.3
1034(17) 0.003328 1027.3 1.3
1021(17) 0.003355 1026.9 1.3
1072(18) 0.003235 1026.5 1.3
1032(17) 0.00351 1026.1 1.3
1051(17) 0.00354 1025.7 1.3
1069(18) 0.003186 1025.4 1.3
1076(18) 0.003140 1025.0 1.3
1090(18) 0.003176 1024.6 1.2
1063(17) 0.003461 1024.2 1.2
1026(17) 0.00362 1023.8 1.2
1048(18) 0.003255 1023.5 1.2
1027(18) 0.003203 1023.1 1.2
1055(18) 0.003217 1022.7 1.2
1066(17) 0.003443 1022.3 1.2
983(16) 0.00376 1021.9 1.2
1001(17) 0.003504 1021.6 1.2
1046(18) 0.003066 1021.2 1.2
983(17) 0.00362 1020.8 1.3
1050(17) 0.00355 1020.4 1.3
1100(17) 0.003407 1020.0 1.3
1046(17) 0.003324 1019.7 1.2
1008(18) 0.003153 1019.3 1.2
1001(17) 0.003487 1018.9 1.2
1069(17) 0.003435 1018.5 1.2
1034(17) 0.00357 1018.1 1.2
987(17) 0.00351 1017.8 1.2
1033(18) 0.003151 1017.4 1.2
1062(18) 0.003259 1017.0 1.2
1021(17) 0.00362 1016.6 1.2
1033(17) 0.00356 1016.2 1.2
1020(17) 0.003405 1015.8 1.2
1017(17) 0.003270 1015.5 1.2
1053(17) 0.003319 1015.1 1.2
1011(17) 0.00367 1014.7 1.2
1040(17) 0.00353 1014.3 1.2
1032(17) 0.003341 1013.9 1.2
1036(18) 0.003195 1013.6 1.2
1037(17) 0.003307 1013.2 1.2
1049(17) 0.00352 1012.8 1.2
1040(17) 0.003455 1012.4 1.2
1032(17) 0.003314 1012.0 1.2
1044(18) 0.003250 1011.7 1.2
996(17) 0.00361 1011.3 1.2
1033(17) 0.00362 1010.9 1.2
1044(17) 0.003394 1010.5 1.2
1080(18) 0.003167 1010.1 1.2
1020(17) 0.003382 1009.8 1.2
1005(17) 0.00352 1009.4 1.1
1018(17) 0.00366 1009.0 1.1
1034(17) 0.003439 1008.6 1.1
1031(17) 0.003298 1008.2 1.1
1026(17) 0.003339 1007.9 1.1
1037(17) 0.003391 1007.5 1.1
1067(17) 0.003499 1007.1 1.1
1064(18) 0.003175 1006.7 1.1
975(17) 0.003499 1006.3 1.1
1068(18) 0.003163 1006.0 1.1
1026(17) 0.00355 1005.6 1.1
1060(17) 0.003487 1005.2 1.1
974(17) 0.00351 1004.8 1.1
1022(18) 0.003226 1004.4 1.1
1029(17) 0.003372 1004.1 1.1
991(16) 0.00369 1003.7 1.1
1000(16) 0.00374 1003.3 1.1
1037(17) 0.003405 1002.9 1.1
1009(18) 0.003242 1002.5 1.1
1077(18) 0.003123 1002.2 1.1
1037(17) 0.00353 1001.8 1.1
1036(17) 0.00357 1001.4 1.1
1058(18) 0.003262 1001.0 1.1
1031(18) 0.003140 1000.6 1.1
1012(17) 0.003443 1000.3 1.1
1006(17) 0.00366 999.9 1.1
998(16) 0.00370 999.5 1.1
966(17) 0.00353 999.1 1.1
980(18) 0.003262 998.7 1.1
1028(17) 0.003313 998.3 1.1
1040(17) 0.00358 998.0 1.1
1043(17) 0.003507 997.6 1.1
1034(17) 0.003346 997.2 1.1
1008(17) 0.003287 996.8 1.1
1003(17) 0.003477 996.4 1.1
972(16) 0.00381 996.1 1.1
975(16) 0.00373 995.7 1.1
1015(17) 0.003393 995.3 1.1
976(17) 0.003442 994.9 1.1
1019(17) 0.003280 994.5 1.1
1038(17) 0.00357 994.2 1.1
957(16) 0.00381 993.8 1.1
965(17) 0.00355 993.4 1.1
1009(18) 0.003238 993.0 1.1
1006(17) 0.003409 992.6 1.1
1002(16) 0.00370 992.3 1.1
1003(17) 0.00356 991.9 1.1
1049(17) 0.003267 991.5 1.1
1009(17) 0.003460 991.1 1.1
998(17) 0.00358 990.7 1.1
1007(16) 0.00368 990.4 1.1
1035(17) 0.003387 990.0 1.1
1025(17) 0.003290 989.6 1.1
977(17) 0.003481 989.2 1.1
964(16) 0.00371 988.8 1.1
978(16) 0.00383 988.5 1.1
965(17) 0.00354 988.1 1.1
931(17) 0.00359 987.7 1.1
986(17) 0.003472 987.3 1.1
1023(17) 0.00353 986.9 1.1
1011(17) 0.00367 986.6 1.1
995(17) 0.003433 986.2 1.1
1002(17) 0.003354 985.8 1.1
989(17) 0.003479 985.4 1.1
998(17) 0.00366 985.0 1.1
999(16) 0.00369 984.7 1.1
987(17) 0.00352 984.3 1.1
1005(17) 0.003272 983.9 1.1
1010(17) 0.003384 983.5 1.1
970(16) 0.00381 983.1 1.1
957(16) 0.00389 982.8 1.1
1003(17) 0.003465 982.4 1.1
996(18) 0.003234 982.0 1.1
1025(17) 0.003412 981.6 1.1
979(16) 0.00380 981.2 1.1
990(16) 0.00369 980.8 1.1
1007(17) 0.003438 980.5 1.1
974(17) 0.003299 980.1 1.1
950(17) 0.00363 979.7 1.1
984(16) 0.00378 979.3 1.1
981(16) 0.00378 978.9 1.1
1002(17) 0.00351 978.4 1.1
989(17) 0.003325 977.9 1.1
986(17) 0.003477 977.3 1.1
1023(17) 0.00362 976.8 1.1
1007(17) 0.00359 976.3 1.1
974(17) 0.00359 975.7 1.1
973(17) 0.003430 975.2 1.1
1015(17) 0.003395 974.7 1.1
991(16) 0.00375 974.2 1.1
988(16) 0.00370 973.6 1.1
969(17) 0.00358 973.1 1.1
965(17) 0.00353 972.6 1.1
961(17) 0.00360 972.0 1.1
993(16) 0.00372 971.5 1.1
1005(17) 0.00360 971.0 1.1
1037(17) 0.003329 970.5 1.1
999(17) 0.003454 969.9 1.1
977(17) 0.00364 969.4 1.1
978(16) 0.00382 968.9 1.1
957(17) 0.00367 968.3 1.1
969(17) 0.003482 967.8 1.1
977(17) 0.003441 967.3 1.1
976(17) 0.00363 966.8 1.1
980(16) 0.00380 966.2 1.1
973(17) 0.00361 965.7 1.1
970(17) 0.003478 965.2 1.1
976(17) 0.00351 964.6 1.1
978(16) 0.00370 964.1 1.1
955(16) 0.00389 963.6 1.1
1002(17) 0.003403 963.0 1.1
962(17) 0.00353 962.5 1.1
1014(17) 0.003472 962.0 1.1
965(16) 0.00384 961.5 1.1
955(16) 0.00388 960.9 1.1
931(16) 0.00375 960.4 1.1
977(17) 0.003343 959.9 1.1
986(17) 0.00355 959.3 1.1
972(16) 0.00379 958.8 1.1
912(16) 0.00400 958.3 1.1
948(17) 0.00357 957.8 1.1
956(17) 0.003376 957.2 1.1
951(16) 0.00370 956.7 1.1
1025(17) 0.00353 956.2 1.1
974(16) 0.00378 955.6 1.1
986(17) 0.00359 955.1 1.1
950(17) 0.003445 954.6 1.1
945(16) 0.00369 954.0 1.1
963(16) 0.00387 953.5 1.1
952(16) 0.00388 953.0 1.1
919(16) 0.00374 952.5 1.1
925(17) 0.003485 951.9 1.1
976(17) 0.00354 951.4 1.1
948(16) 0.00389 950.9 1.1
955(16) 0.00389 950.3 1.1
999(17) 0.00354 949.8 1.1
978(17) 0.003473 949.3 1.1
938(16) 0.00374 948.8 1.1
944(16) 0.00395 948.2 1.1
952(16) 0.00374 947.7 1.1
936(16) 0.00367 947.2 1.1
934(17) 0.00362 946.6 1.1
956(17) 0.00359 946.1 1.1
952(16) 0.00389 945.6 1.1
942(16) 0.00386 945.1 1.1
951(16) 0.00369 944.5 1.2
945(17) 0.00365 944.0 1.2
961(17) 0.00367 943.5 1.2
933(16) 0.00398 942.9 1.2
950(16) 0.00371 942.4 1.2
973(17) 0.00355 941.9 1.2
934(16) 0.00380 941.3 1.2
973(17) 0.00366 940.8 1.2
939(16) 0.00394 940.3 1.2
939(16) 0.00377 939.8 1.2
934(17) 0.00364 939.2 1.2
943(17) 0.00361 938.7 1.2
952(16) 0.00375 938.2 1.2
907(16) 0.00410 937.6 1.2
962(17) 0.00359 937.1 1.2
951(17) 0.003457 936.6 1.2
979(17) 0.003497 936.1 1.2
996(16) 0.00368 935.5 1.2
1004(16) 0.00370 935.0 1.2
945(16) 0.00368 934.5 1.2
979(17) 0.003346 933.9 1.2
986(17) 0.003450 933.4 1.2
910(16) 0.00404 932.9 1.2
963(16) 0.00387 932.4 1.2
959(17) 0.00364 931.8 1.2
930(17) 0.00353 931.3 1.2
903(16) 0.00395 930.8 1.2
956(16) 0.00388 930.2 1.2
961(16) 0.00385 929.7 1.3
924(16) 0.00383 929.2 1.3
946(17) 0.003479 928.6 1.3
919(16) 0.00383 928.1 1.3
894(16) 0.00415 927.6 1.3
915(16) 0.00405 927.1 1.3
910(16) 0.00383 926.5 1.3
940(17) 0.003478 926.0 1.3
898(16) 0.00391 925.5 1.3
962(16) 0.00386 924.9 1.3
917(16) 0.00401 924.4 1.3
941(17) 0.00366 923.9 1.3
949(17) 0.003481 923.4 1.3
915(16) 0.00389 922.8 1.3
953(16) 0.00390 922.3 1.3
965(16) 0.00375 921.8 1.3
923(16) 0.00371 921.2 1.3
951(17) 0.003499 920.7 1.3
910(16) 0.00386 920.2 1.3
900(16) 0.00414 919.7 1.4
918(16) 0.00385 919.1 1.4
959(17) 0.00359 918.6 1.4
955(17) 0.00365 918.1 1.4
941(16) 0.00370 917.5 1.4
892(16) 0.00415 917.0 1.4
930(16) 0.00379 916.5 1.4
910(16) 0.00376 915.9 1.4
926(17) 0.00364 915.4 1.4
932(16) 0.00375 914.9 1.4
906(16) 0.00409 914.4 1.4
917(16) 0.00370 913.8 1.4
910(17) 0.00367 913.3 1.4
939(17) 0.00355 912.8 1.5
923(16) 0.00386 912.2 1.5
931(16) 0.00393 911.7 1.5
892(16) 0.00386 911.2 1.5
895(17) 0.00364 910.7 1.5
882(16) 0.00388 910.1 1.5
938(16) 0.00393 909.6 1.5
914(16) 0.00397 909.1 1.5
908(16) 0.00382 908.5 1.5
899(17) 0.00366 908.0 1.5
896(16) 0.00398 907.5 1.5
930(16) 0.00389 907.0 1.6
901(16) 0.00408 906.4 1.6
921(16) 0.00374 905.9 1.6
885(17) 0.00361 905.4 1.6
926(17) 0.00361 904.8 1.6
849(15) 0.00424 904.3 1.6
910(16) 0.00403 903.8 1.6
931(16) 0.00377 903.2 1.6
863(16) 0.00374 902.7 1.7
877(16) 0.00403 902.2 1.7
923(16) 0.00402 901.7 1.7
909(16) 0.00407 901.1 1.7
927(16) 0.00370 900.6 1.7
886(16) 0.00374 900.1 1.7
901(16) 0.00385 899.6 1.7
931(16) 0.00396 899.1 1.8
874(15) 0.00417 898.6 1.8
905(16) 0.00380 898.2 1.8
934(17) 0.00358 897.7 1.8
901(16) 0.00386 897.3 1.8
908(16) 0.00410 896.8 1.9
904(16) 0.00400 896.4 1.9
929(16) 0.00371 895.9 1.9
907(17) 0.00363 895.4 1.9
918(16) 0.00371 895.0 1.9
884(15) 0.00418 894.5 2.0
870(16) 0.00413 894.1 2.0
865(16) 0.00405 893.6 2.0
908(16) 0.00372 893.2 2.0
897(16) 0.00388 892.7 2.1
906(16) 0.00412 892.2 2.1
909(16) 0.00394 891.8 2.1
931(17) 0.00361 891.3 2.2
907(16) 0.00377 890.9 2.2
912(16) 0.00393 890.4 2.2
898(16) 0.00413 890.0 2.3
867(16) 0.00406 889.5 2.3
888(16) 0.00376 889.1 2.3
892(16) 0.00388 888.6 2.4
893(16) 0.00397 888.1 2.4
905(16) 0.00413 887.7 2.5
896(16) 0.00389 887.2 2.5
882(16) 0.00383 886.8 2.6
905(16) 0.00378 886.3 2.6
868(15) 0.00425 885.9 2.7
942(16) 0.00395 885.4 2.8
933(17) 0.00365 884.9 2.8
869(16) 0.00386 884.5 2.9
886(16) 0.00388 884.0 3.0
875(15) 0.00422 883.6 3.1
899(16) 0.00414 883.1 3.2
888(16) 0.00393 882.7 3.3
866(16) 0.00381 882.2 3.4
902(16) 0.00390 881.7 3.5
919(16) 0.00402 881.3 3.6
894(15) 0.00417 880.8 3.7
875(16) 0.00404 880.4 3.9
880(17) 0.00365 879.9 4.0
865(16) 0.00395 879.5 4.2
849(15) 0.00437 879.0 4.3
886(15) 0.00421 878.6 4.5
907(16) 0.00381 878.1 4.7
849(16) 0.00379 877.6 4.9
885(16) 0.00380 877.2 5.0
865(15) 0.00437 876.7 5.2
873(15) 0.00418 876.3 5.4
913(16) 0.00381 875.8 5.7
906(17) 0.00358 875.4 5.9
905(16) 0.00383 874.9 6.1
849(15) 0.00436 874.4 6.3
863(15) 0.00419 874.0 6.6
873(16) 0.00405 873.5 6.8
886(16) 0.00381 873.1 7.0
889(16) 0.00391 872.6 7.2
905(16) 0.00413 872.2 7.5
853(16) 0.00414 871.7 7.7
841(15) 0.00419 871.2 7.8
934(17) 0.00354 870.8 8.0
873(16) 0.00409 870.3 8.2
877(15) 0.00422 869.9 8.3
862(16) 0.00414 869.4 8.4
894(16) 0.00378 869.0 8.5
859(16) 0.00394 868.5 8.5
888(16) 0.00393 868.0 8.5
870(15) 0.00432 867.6 8.5
891(16) 0.00393 867.1 8.4
912(16) 0.00374 866.7 8.4
918(17) 0.00366 866.2 8.2
878(16) 0.00411 865.8 8.1
875(15) 0.00427 865.3 8.0
863(16) 0.00400 864.9 7.8
861(16) 0.00390 864.4 7.6
850(16) 0.00411 863.9 7.4
880(16) 0.00406 863.5 7.3
859(15) 0.00432 863.0 7.1
863(16) 0.00408 862.6 6.9
867(16) 0.00380 862.1 6.7
845(16) 0.00411 861.7 6.5
901(16) 0.00402 861.2 6.3
863(15) 0.00432 860.7 6.2
848(16) 0.00400 860.3 6.0
845(16) 0.00393 859.8 5.8
875(16) 0.00407 859.4 5.7
851(15) 0.00435 858.9 5.5
911(16) 0.00410 858.5 5.4
881(16) 0.00400 858.0 5.3
894(17) 0.00366 857.5 5.2
863(16) 0.00410 857.1 5.1
821(15) 0.00455 856.6 5.0
848(15) 0.00436 856.2 4.9
877(16) 0.00392 855.7 4.8
890(17) 0.00361 855.3 4.7
889(16) 0.00388 854.8 4.7
836(15) 0.00444 854.4 4.6
827(15) 0.00444 853.9 4.6
812(15) 0.00429 853.4 4.5
825(16) 0.00402 853.0 4.5
829(15) 0.00418 852.5 4.4
823(15) 0.00455 852.1 4.4
856(15) 0.00427 851.6 4.4
871(16) 0.00399 851.2 4.4
890(16) 0.00376 850.7 4.4
864(16) 0.00401 850.2 4.4
817(15) 0.00458 849.8 4.4
842(15) 0.00435 849.3 4.4
860(16) 0.00393 848.9 4.4
843(16) 0.00405 848.4 4.4
862(16) 0.00388 848.0 4.4
855(15) 0.00435 847.5 4.5
835(15) 0.00438 847.0 4.5
794(15) 0.00435 846.6 4.5
864(16) 0.00383 846.1 4.6
826(15) 0.00426 845.7 4.6
864(15) 0.00433 845.2 4.7
852(15) 0.00420 844.8 4.7
847(16) 0.00400 844.3 4.8
849(16) 0.00401 843.8 4.8
843(15) 0.00422 843.4 4.9
835(15) 0.00448 842.9 4.9
883(16) 0.00400 842.5 5.0
817(15) 0.00429 842.0 5.1
828(16) 0.00416 841.6 5.1
849(15) 0.00418 841.1 5.2
854(15) 0.00436 840.6 5.3
850(16) 0.00412 840.1 5.4
844(16) 0.00393 839.6 5.5
858(16) 0.00402 839.1 5.6
815(15) 0.00450 838.6 5.7
857(15) 0.00435 838.1 5.8
860(16) 0.00398 837.6 5.9
836(16) 0.00387 837.1 6.0
848(16) 0.00402 836.6 6.2
864(15) 0.00422 836.1 6.3
856(15) 0.00433 835.6 6.4
860(16) 0.00402 835.1 6.6
830(16) 0.00392 834.6 6.8
866(16) 0.00398 834.1 6.9
846(15) 0.00434 833.6 7.1
851(15) 0.00434 833.1 7.3
832(15) 0.00419 832.6 7.5
826(16) 0.00385 832.1 7.7
816(15) 0.00423 831.6 7.9
847(15) 0.00434 831.1 8.1
868(15) 0.00424 830.6 8.4
810(15) 0.00429 830.1 8.6
852(16) 0.00385 829.6 8.9
863(16) 0.00404 829.1 9.2
794(15) 0.00466 828.6 9.5
811(15) 0.00449 828.1 9.8
830(15) 0.00418 827.6 10.2
795(15) 0.00419 827.1 10.5
847(16) 0.00404 826.6 10.9
801(15) 0.00467 826.1 11.4
820(15) 0.00445 825.6 11.8
834(16) 0.00415 825.2 12.3
835(16) 0.00399 824.7 12.8
810(15) 0.00431 824.2 13.4
807(15) 0.00460 823.7 14.0
852(15) 0.00423 823.2 14.7
827(16) 0.00416 822.7 15.4
792(15) 0.00432 822.2 16.2
813(15) 0.00430 821.7 17.0
835(15) 0.00444 821.2 17.9
862(16) 0.00409 820.7 19.0
853(16) 0.00398 820.2 20.1
822(15) 0.00422 819.7 21.3
844(15) 0.00426 819.2 22.7
817(15) 0.00455 818.7 24.2
853(16) 0.00412 818.2 25.8
851(16) 0.00399 817.7 27.7
857(16) 0.00401 817.2 29.8
852(15) 0.00422 816.7 32.1
781(15) 0.00473 816.2 34.8
812(15) 0.00432 815.7 37.8
816(16) 0.00413 815.2 41.3
853(16) 0.00402 814.7 45.3
841(15) 0.00431 814.2 49.9
869(15) 0.00430 813.7 55.5
896(16) 0.00379 813.2 62.1
881(16) 0.00376 812.7 70.3
892(16) 0.00390 812.2 80.7
859(15) 0.00431 811.7 94.3
907(16) 0.00412 811.2 112.3
890(16) 0.00401 810.7 136.5
972(17) 0.003383 810.2 169.1
1064(18) 0.003247 809.7 212.5
1030(17) 0.00360 809.2 269.1
1099(17) 0.003405 808.7 340.8
1172(18) 0.002983 808.2 428.5
1254(20) 0.002565 807.7 531.0
1373(20) 0.002522 807.2 643.9
1430(20) 0.002606 806.7 757.6
1562(21) 0.002358 806.2 856.0
1727(22) 0.001997 805.7 917.8
1710(23) 0.001902 805.2 925.6
1750(22) 0.001980 804.7 876.9
1638(21) 0.002266 804.3 786.1
1490(20) 0.002466 803.8 674.6
1364(20) 0.002519 803.3 560.4
1230(19) 0.002697 802.8 454.7
1133(18) 0.003088 802.3 362.9
1068(17) 0.003505 801.8 287.0
1061(17) 0.003395 801.3 226.6
1016(17) 0.003386 800.8 180.0
973(17) 0.003447 800.3 144.9
915(16) 0.00376 799.8 118.7
950(16) 0.00390 799.3 99.4
901(16) 0.00398 798.8 84.8
919(16) 0.00369 798.3 73.8
888(16) 0.00384 797.8 65.1
931(16) 0.00371 797.3 58.2
877(15) 0.00421 796.8 52.5
834(15) 0.00441 796.3 47.7
854(16) 0.00394 795.8 43.6
865(16) 0.00390 795.3 40.0
854(16) 0.00415 794.8 37.0
834(15) 0.00447 794.3 34.3
840(15) 0.00416 793.8 31.9
789(15) 0.00432 793.3 29.9
782(15) 0.00436 792.8 28.0
814(15) 0.00434 792.3 26.4
785(15) 0.00474 791.8 24.9
771(15) 0.00457 791.3 23.6
803(15) 0.00421 790.8 22.4
835(16) 0.00413 790.3 21.3
822(15) 0.00444 789.8 20.4
781(14) 0.00477 789.3 19.5
783(15) 0.00435 788.8 18.7
781(15) 0.00420 788.3 18.0
777(15) 0.00450 787.8 17.4
818(15) 0.00449 787.3 16.8
778(15) 0.00476 786.8 16.2
811(15) 0.00428 786.3 15.7
810(16) 0.00398 785.8 15.3
763(15) 0.00468 785.3 14.9
790(15) 0.00463 784.8 14.5
803(15) 0.00462 784.3 14.2
803(15) 0.00423 783.8 13.9
757(15) 0.00425 783.4 13.6
778(15) 0.00435 782.9 13.3
793(15) 0.00464 782.4 13.1
766(14) 0.00478 781.9 12.9
766(15) 0.00456 781.4 12.7
783(16) 0.00410 780.9 12.6
789(15) 0.00438 780.4 12.4
781(15) 0.00474 779.9 12.3
780(15) 0.00471 779.4 12.2
752(15) 0.00460 778.9 12.1
812(16) 0.00400 778.4 12.0
800(15) 0.00437 777.9 11.9
777(14) 0.00483 777.4 11.9
779(15) 0.00469 776.9 11.8
790(15) 0.00440 776.4 11.8
772(15) 0.00425 775.9 11.8
779(15) 0.00438 775.4 11.8
771(14) 0.00486 774.9 11.8
743(14) 0.00486 774.4 11.8
752(15) 0.00462 773.9 11.8
756(15) 0.00445 773.4 11.9
794(15) 0.00443 772.9 12.0
815(15) 0.00456 772.4 12.0
817(15) 0.00434 771.9 12.1
793(15) 0.00425 771.4 12.2
793(16) 0.00409 770.9 12.3
763(15) 0.00459 770.4 12.5
755(14) 0.00495 769.9 12.6
735(14) 0.00488 769.4 12.8
760(15) 0.00464 768.9 12.9
778(15) 0.00443 768.4 13.1
779(15) 0.00456 767.9 13.3
781(15) 0.00474 767.4 13.6
735(15) 0.00472 766.9 13.8
790(15) 0.00427 766.4 14.0
782(15) 0.00443 765.9 14.2
761(15) 0.00474 765.4 14.4
809(15) 0.00458 764.9 14.5
764(15) 0.00451 764.4 14.7
736(15) 0.00456 763.9 14.9
754(15) 0.00458 763.4 15.1
741(14) 0.00498 762.9 15.3
797(15) 0.00466 762.4 15.6
758(15) 0.00458 761.9 15.8
745(15) 0.00446 761.4 16.1
736(15) 0.00468 760.9 16.4
761(15) 0.00475 760.4 16.8
774(14) 0.00481 759.9 17.1
764(15) 0.00453 759.4 17.5
750(15) 0.00434 758.9 17.9
761(15) 0.00462 758.4 18.4
787(15) 0.00473 757.9 18.8
744(14) 0.00500 757.4 19.3
749(15) 0.00464 756.9 19.8
723(15) 0.00447 756.4 20.4
748(15) 0.00452 755.9 20.9
728(14) 0.00508 755.4 21.6
799(15) 0.00466 754.9 22.2
757(15) 0.00464 754.4 22.9
761(15) 0.00419 753.9 23.6
756(15) 0.00458 753.4 24.4
761(14) 0.00485 752.9 25.2
738(14) 0.00498 752.4 26.0
733(14) 0.00479 751.9 26.9
734(15) 0.00452 751.4 27.9
736(15) 0.00472 750.9 28.9
758(14) 0.00492 750.5 30.0
754(14) 0.00484 750.0 31.1
740(14) 0.00477 749.5 32.4
776(15) 0.00429 749.0 33.7
771(15) 0.00440 748.5 35.1
777(14) 0.00479 748.0 36.6
775(15) 0.00460 747.5 38.2
816(15) 0.00417 747.0 39.9
758(15) 0.00457 746.5 41.8
762(15) 0.00452 746.0 43.8
768(14) 0.00485 745.5 45.9
760(15) 0.00456 745.0 48.3
700(14) 0.00484 744.5 50.8
773(15) 0.00432 744.0 53.6
779(15) 0.00453 743.5 56.6
785(15) 0.00470 743.0 60.0
768(15) 0.00457 742.5 63.7
762(15) 0.00434 742.0 67.8
791(15) 0.00433 741.5 72.4
801(15) 0.00444 741.0 77.5
789(15) 0.00471 740.5 83.3
803(15) 0.00436 740.0 89.9
795(15) 0.00433 739.5 97.3
823(15) 0.00419 739.0 105.8
828(15) 0.00442 738.5 115.4
854(15) 0.00438 738.0 126.4
830(15) 0.00418 737.5 138.9
849(16) 0.00383 737.0 153.1
871(16) 0.00406 736.5 169.2
930(16) 0.00394 736.0 187.4
917(16) 0.00408 735.5 207.9
934(17) 0.00367 735.0 230.9
932(17) 0.00353 734.5 256.5
988(17) 0.00354 734.0 284.8
1013(17) 0.00362 733.5 315.8
1009(17) 0.00366 733.0 349.6
1091(18) 0.003186 732.5 386.0
1192(19) 0.002648 732.0 424.6
1207(19) 0.002893 731.5 465.0
1251(18) 0.002974 731.0 506.4
1379(19) 0.002653 730.5 547.7
1404(20) 0.002494 730.0 587.6
1386(20) 0.002386 729.5 624.1
1459(20) 0.002403 729.0 655.4
1456(20) 0.002556 728.5 679.3
1509(20) 0.002446 728.0 694.2
1501(21) 0.002318 727.5 698.6
1413(21) 0.002343 727.0 692.4
1403(20) 0.002472 726.5 676.0
1318(19) 0.002800 726.0 650.7
1246(19) 0.002871 725.5 618.4
1207(19) 0.002831 725.0 581.2
1156(19) 0.002918 724.5 541.1
1155(18) 0.003022 724.0 499.7
1169(18) 0.003197 723.5 458.5
1113(18) 0.003223 723.0 418.4
1074(18) 0.003231 722.5 380.2
1030(17) 0.003274 722.0 344.4
1034(17) 0.003311 721.5 311.1
978(16) 0.00383 721.0 280.6
963(16) 0.00368 720.5 252.9
974(17) 0.00356 720.0 227.8
972(17) 0.003497 719.5 205.3
942(16) 0.00382 719.0 185.3
936(16) 0.00396 718.5 167.6
921(16) 0.00387 718.0 151.9
887(16) 0.00395 717.5 138.1
904(16) 0.00379 717.0 125.9
819(15) 0.00441 716.5 115.3
811(15) 0.00459 716.0 106.0
804(15) 0.00421 715.5 97.8
828(16) 0.00401 715.0 90.7
831(15) 0.00417 714.5 84.4
802(15) 0.00452 714.0 78.8
820(15) 0.00456 713.5 73.9
779(15) 0.00450 713.0 69.5
791(15) 0.00419 712.5 65.6
802(15) 0.00431 712.0 62.1
794(15) 0.00460 711.5 58.9
782(14) 0.00479 711.0 56.1
777(15) 0.00450 710.5 53.5
769(15) 0.00425 710.0 51.1
734(14) 0.00481 709.5 49.0
753(14) 0.00493 709.0 47.0
735(14) 0.00501 708.5 45.3
758(15) 0.00463 708.0 43.6
753(15) 0.00446 707.5 42.1
743(14) 0.00478 707.0 40.8
731(14) 0.00504 706.5 39.5
783(15) 0.00475 706.0 38.4
748(15) 0.00466 705.5 37.4
712(15) 0.00457 705.0 36.4
732(14) 0.00484 704.5 35.6
746(14) 0.00496 704.0 34.9
736(14) 0.00502 703.5 34.2
741(15) 0.00475 703.0 33.7
767(15) 0.00435 702.5 33.2
796(15) 0.00431 702.0 32.8
770(14) 0.00483 701.5 32.6
742(14) 0.00485 701.0 32.4
737(15) 0.00461 700.5 32.3
730(15) 0.00451 700.0 32.3
736(15) 0.00468 699.5 32.5
720(14) 0.00517 699.0 32.8
757(14) 0.00478 698.5 33.2
736(15) 0.00467 698.0 33.7
707(14) 0.00488 697.5 34.5
740(15) 0.00469 697.0 35.4
741(14) 0.00502 696.5 36.5
774(15) 0.00464 696.0 37.8
752(15) 0.00461 695.5 39.3
758(15) 0.00452 695.0 41.1
716(14) 0.00506 694.5 43.1
728(14) 0.00511 694.0 45.4
719(14) 0.00490 693.5 48.0
745(15) 0.00457 693.0 50.8
759(15) 0.00461 692.5 54.0
756(14) 0.00479 692.0 57.4
723(14) 0.00513 691.5 61.0
754(15) 0.00455 691.0 64.9
731(15) 0.00465 690.5 68.9
768(15) 0.00451 690.1 73.1
819(15) 0.00440 689.6 77.3
807(15) 0.00461 689.1 81.3
775(15) 0.00458 688.6 85.0
791(15) 0.00424 688.1 88.3
772(15) 0.00450 687.6 91.0
772(15) 0.00469 687.1 92.9
764(14) 0.00487 686.6 93.8
738(14) 0.00481 686.1 93.8
770(15) 0.00426 685.6 92.8
771(15) 0.00453 685.1 90.9
763(14) 0.00477 684.6 88.2
758(14) 0.00490 684.1 85.0
722(14) 0.00495 683.6 81.4
780(16) 0.00412 683.1 77.6
773(15) 0.00445 682.6 73.7
702(14) 0.00527 682.1 69.8
692(14) 0.00536 681.6 66.1
729(15) 0.00474 681.1 62.7
697(14) 0.00483 680.6 59.5
731(15) 0.00473 680.1 56.7
739(14) 0.00502 679.6 54.2
726(14) 0.00507 679.1 52.0
746(15) 0.00462 678.6 50.2
711(15) 0.00463 678.1 48.8
732(15) 0.00461 677.6 47.7
726(14) 0.00513 677.1 47.0
734(14) 0.00492 676.6 46.6
696(14) 0.00489 676.1 46.6
679(14) 0.00479 675.6 46.8
713(14) 0.00484 675.1 47.4
739(14) 0.00505 674.6 48.3
699(14) 0.00518 674.1 49.5
686(14) 0.00511 673.6 50.9
699(14) 0.00481 673.1 52.6
728(15) 0.00469 672.6 54.5
735(14) 0.00507 672.1 56.7
694(14) 0.00511 671.6 59.0
669(14) 0.00524 671.1 61.4
699(14) 0.00499 670.6 64.0
743(15) 0.00470 670.1 66.6
730(14) 0.00512 669.6 69.3
713(14) 0.00509 669.1 71.8
776(15) 0.00444 668.6 74.2
715(14) 0.00482 668.1 76.3
733(14) 0.00488 667.6 78.1
737(14) 0.00503 667.1 79.5
726(14) 0.00479 666.6 80.4
756(15) 0.00437 666.1 80.8
713(14) 0.00485 665.6 80.5
731(14) 0.00478 665.1 79.7
707(14) 0.00529 664.6 78.4
713(14) 0.00483 664.1 76.5
697(14) 0.00489 663.6 74.2
718(14) 0.00489 663.1 71.5
690(14) 0.00524 662.6 68.5
719(14) 0.00520 662.1 65.4
696(14) 0.00480 661.6 62.2
698(15) 0.00469 661.1 58.9
696(14) 0.00508 660.6 55.6
726(14) 0.00503 660.1 52.4
708(14) 0.00528 659.6 49.3
686(14) 0.00502 659.1 46.3
687(15) 0.00464 658.6 43.5
679(14) 0.00516 658.1 40.8
657(13) 0.00568 657.6 38.2
644(13) 0.00574 657.1 35.8
624(13) 0.00570 656.6 33.6
651(14) 0.00497 656.1 31.5
681(14) 0.00507 655.6 29.6
627(13) 0.00590 655.1 27.8
658(13) 0.00559 654.6 26.1
705(14) 0.00496 654.1 24.6
661(14) 0.00489 653.6 23.3
662(14) 0.00515 653.1 22.0
652(13) 0.00572 652.6 20.8
666(13) 0.00555 652.1 19.8
653(14) 0.00542 651.6 18.8
656(14) 0.00505 651.1 18.0
667(14) 0.00521 650.6 17.2
682(13) 0.00550 650.1 16.5
684(14) 0.00525 649.6 15.8
661(14) 0.00536 649.1 15.3
686(14) 0.00496 648.6 14.7
680(14) 0.00505 648.1 14.3
635(13) 0.00585 647.6 13.8
619(13) 0.00590 647.2 13.4
679(14) 0.00491 646.8 13.1
671(14) 0.00500 646.3 12.8
643(14) 0.00540 645.9 12.5
628(13) 0.00595 645.4 12.3
657(14) 0.00538 645.0 12.0
669(14) 0.00518 644.5 11.9
664(14) 0.00517 644.1 11.7
628(13) 0.00560 643.7 11.6
629(13) 0.00595 643.2 11.5
649(14) 0.00534 642.8 11.4
665(14) 0.00490 642.3 11.4
638(14) 0.00535 641.9 11.4
632(13) 0.00568 641.4 11.4
611(13) 0.00611 641.0 11.5
647(14) 0.00526 640.5 11.6
609(13) 0.00550 640.1 11.7
617(13) 0.00558 639.7 11.9
645(13) 0.00572 639.2 12.2
690(14) 0.00538 638.8 12.6
680(14) 0.00514 638.3 13.0
636(14) 0.00511 637.9 13.6
628(14) 0.00547 637.4 14.3
677(14) 0.00534 637.0 15.3
664(13) 0.00563 636.5 16.6
707(14) 0.00489 636.1 18.4
675(14) 0.00490 635.7 21.0
667(14) 0.00518 635.2 24.8
700(14) 0.00523 634.8 30.5
691(14) 0.00538 634.3 38.7
737(15) 0.00470 633.9 50.1
719(15) 0.00443 633.4 65.1
715(14) 0.00490 633.0 83.6
718(14) 0.00520 632.5 104.4
758(14) 0.00489 632.1 124.7
776(15) 0.00446 631.7 139.6
827(16) 0.00387 631.2 143.7
790(15) 0.00437 630.8 135.1
722(14) 0.00515 630.3 117.4
710(14) 0.00515 629.9 96.2
705(14) 0.00492 629.4 75.8
693(14) 0.00481 629.0 58.3
684(14) 0.00503 628.6 44.4
646(13) 0.00575 628.1 34.0
670(14) 0.00535 627.7 26.5
653(14) 0.00539 627.2 21.4
656(14) 0.00518 626.8 17.8
659(14) 0.00530 626.3 15.3
632(13) 0.00587 625.9 13.5
632(13) 0.00576 625.4 12.2
637(14) 0.00533 625.0 11.1
648(14) 0.00508 624.6 10.2
632(14) 0.00543 624.1 9.5
618(13) 0.00604 623.7 8.9
612(13) 0.00573 623.2 8.3
597(13) 0.00577 622.8 7.8
626(13) 0.00549 622.3 7.4
648(14) 0.00541 621.9 7.1
614(13) 0.00611 621.4 6.7
578(13) 0.00596 621.0 6.4
609(13) 0.00562 620.6 6.2
646(14) 0.00518 620.1 5.9
599(13) 0.00587 619.7 5.7
604(13) 0.00613 619.2 5.5
615(13) 0.00574 618.8 5.3
593(13) 0.00586 618.3 5.2
602(13) 0.00588 617.9 5.0
650(13) 0.00550 617.4 4.9
617(13) 0.00605 617.0 4.7
575(13) 0.00603 616.6 4.6
610(14) 0.00543 616.1 4.5
613(13) 0.00565 615.7 4.4
623(13) 0.00576 615.2 4.3
620(13) 0.00599 614.8 4.2
608(13) 0.00556 614.3 4.1
584(13) 0.00569 613.9 4.0
605(13) 0.00596 613.4 3.9
613(13) 0.00586 613.0 3.8
615(13) 0.00608 612.6 3.8
591(13) 0.00595 612.1 3.7
577(13) 0.00567 611.7 3.6
596(13) 0.00588 611.2 3.5
610(13) 0.00612 610.8 3.5
592(13) 0.00617 610.3 3.4
628(13) 0.00555 609.9 3.4
619(14) 0.00505 609.5 3.3
568(13) 0.00603 609.0 3.3
630(13) 0.00586 608.6 3.2
601(13) 0.00610 608.1 3.2
639(14) 0.00540 607.7 3.1
596(13) 0.00551 607.2 3.1
591(13) 0.00576 606.8 3.0
596(13) 0.00621 606.3 3.0
587(13) 0.00621 605.9 3.0
596(13) 0.00592 605.5 2.9
639(14) 0.00515 605.0 2.9
582(13) 0.00596 604.6 2.8
604(13) 0.00611 604.1 2.8
615(13) 0.00572 603.7 2.8
602(13) 0.00553 603.2 2.7
646(14) 0.00518 602.8 2.7
623(13) 0.00550 602.3 2.7
624(13) 0.00596 601.9 2.6
616(13) 0.00588 601.5 2.6
635(13) 0.00551 601.0 2.6
606(13) 0.00570 600.6 2.6
624(13) 0.00553 600.1 2.5
567(12) 0.00654 599.7 2.5
608(13) 0.00574 599.2 2.5
604(13) 0.00581 598.8 2.5
646(14) 0.00531 598.3 2.4
626(13) 0.00564 597.9 2.4
592(13) 0.00631 597.5 2.4
574(13) 0.00592 597.0 2.4
586(13) 0.00581 596.6 2.4
629(14) 0.00542 596.1 2.4
578(13) 0.00635 595.7 2.3
577(13) 0.00635 595.2 2.3
635(14) 0.00540 594.8 2.3
617(14) 0.00539 594.4 2.3
573(13) 0.00607 593.9 2.3
580(13) 0.00637 593.6 2.3
598(13) 0.00621 593.2 2.2
608(13) 0.00568 592.8 2.2
602(13) 0.00557 592.5 2.2
570(12) 0.00640 592.1 2.2
598(13) 0.00614 591.8 2.2
590(13) 0.00629 591.4 2.2
587(13) 0.00597 591.0 2.2
584(13) 0.00560 590.7 2.1
614(13) 0.00569 590.3 2.1
594(13) 0.00630 589.9 2.1
621(13) 0.00592 589.6 2.1
601(13) 0.00593 589.2 2.1
648(14) 0.00493 588.8 2.1
608(13) 0.00570 588.5 2.1
587(13) 0.00627 588.1 2.1
575(13) 0.00628 587.7 2.0
599(13) 0.00579 587.4 2.0
573(13) 0.00576 587.0 2.0
594(13) 0.00575 586.6 2.0
592(13) 0.00628 586.3 2.0
622(13) 0.00579 585.9 2.0
609(13) 0.00585 585.5 2.0
603(13) 0.00551 585.2 2.0
550(13) 0.00626 584.8 2.0
598(13) 0.00623 584.4 2.0
579(13) 0.00619 584.1 2.0
577(13) 0.00611 583.7 2.0
588(13) 0.00582 583.3 2.0
594(13) 0.00579 583.0 1.9
541(12) 0.00690 582.6 1.9
605(13) 0.00584 582.2 1.9
574(13) 0.00593 581.9 1.9
562(13) 0.00605 581.5 1.9
578(13) 0.00615 581.1 1.9
567(12) 0.00658 580.8 1.9
549(12) 0.00654 580.4 1.9
568(13) 0.00600 580.0 1.9
591(13) 0.00585 579.7 1.9
559(12) 0.00643 579.3 1.9
583(12) 0.00647 579.0 1.9
597(13) 0.00585 578.6 1.9
559(13) 0.00616 578.2 1.9
601(13) 0.00568 577.9 1.9
568(13) 0.00637 577.5 2.0
554(12) 0.00675 577.1 2.0
569(13) 0.00616 576.8 2.0
582(13) 0.00582 576.4 2.0
576(13) 0.00620 576.0 2.0
582(13) 0.00638 575.7 2.0
578(12) 0.00646 575.3 2.0
564(13) 0.00607 574.9 2.0
573(13) 0.00565 574.6 2.0
539(12) 0.00646 574.2 2.1
575(13) 0.00634 573.8 2.1
571(12) 0.00648 573.5 2.1
574(13) 0.00619 573.1 2.1
571(13) 0.00562 572.7 2.1
576(13) 0.00594 572.4 2.1
585(13) 0.00626 572.0 2.2
572(12) 0.00648 571.6 2.2
562(13) 0.00617 571.3 2.2
560(13) 0.00581 570.9 2.2
584(13) 0.00592 570.5 2.2
548(12) 0.00667 570.2 2.2
533(12) 0.00697 569.8 2.3
550(13) 0.00636 569.4 2.3
568(13) 0.00581 569.1 2.3
591(13) 0.00587 568.7 2.3
589(13) 0.00634 568.3 2.3
588(13) 0.00629 568.0 2.3
617(13) 0.00574 567.6 2.3
590(13) 0.00555 567.2 2.2
580(13) 0.00585 566.9 2.2
592(13) 0.00633 566.5 2.2
604(13) 0.00582 566.1 2.2
566(13) 0.00620 565.8 2.2
560(13) 0.00611 565.4 2.2
584(13) 0.00598 565.1 2.2
553(12) 0.00674 564.7 2.2
541(12) 0.00659 564.3 2.1
560(13) 0.00611 564.0 2.1
541(13) 0.00620 563.6 2.1
571(13) 0.00604 563.2 2.1
575(12) 0.00646 562.9 2.1
547(12) 0.00650 562.5 2.1
547(13) 0.00620 562.1 2.1
564(13) 0.00600 561.8 2.1
565(13) 0.00623 561.4 2.1
578(12) 0.00642 561.0 2.1
571(13) 0.00625 560.7 2.1
567(13) 0.00605 560.3 2.1
573(13) 0.00606 559.9 2.1
552(12) 0.00662 559.6 2.1
547(12) 0.00682 559.2 2.1
575(13) 0.00595 558.9 2.2
560(13) 0.00594 558.6 2.2
552(13) 0.00612 558.3 2.2
543(12) 0.00663 558.0 2.2
581(12) 0.00644 557.7 2.2
554(13) 0.00635 557.5 2.2
547(13) 0.00610 557.2 2.3
561(13) 0.00622 556.9 2.3
551(12) 0.00676 556.6 2.3
552(12) 0.00673 556.3 2.3
578(13) 0.00599 556.0 2.4
546(13) 0.00614 555.7 2.4
567(13) 0.00606 555.4 2.5
570(12) 0.00643 555.1 2.5
555(12) 0.00669 554.8 2.5
563(13) 0.00624 554.5 2.6
542(13) 0.00598 554.2 2.6
561(13) 0.00630 553.9 2.7
560(12) 0.00670 553.7 2.8
549(12) 0.00668 553.4 2.8
573(13) 0.00578 553.1 2.9
537(13) 0.00608 552.8 3.0
573(13) 0.00615 552.5 3.1
566(12) 0.00659 552.2 3.1
535(12) 0.00683 551.9 3.2
535(13) 0.00638 551.6 3.4
534(13) 0.00628 551.3 3.5
546(13) 0.00633 551.0 3.6
581(13) 0.00636 550.7 3.7
555(12) 0.00667 550.4 3.9
569(13) 0.00612 550.1 4.0
550(13) 0.00616 549.8 4.2
582(13) 0.00578 549.6 4.4
556(12) 0.00673 549.3 4.6
541(12) 0.00668 549.0 4.9
579(13) 0.00588 548.7 5.1
569(13) 0.00596 548.4 5.4
562(13) 0.00609 548.1 5.8
547(12) 0.00683 547.8 6.1
545(12) 0.00662 547.5 6.6
551(12) 0.00642 547.2 7.0
555(13) 0.00617 546.9 7.6
541(12) 0.00666 546.6 8.2
546(12) 0.00682 546.3 8.9
556(13) 0.00637 546.0 9.8
543(12) 0.00640 545.8 10.7
570(13) 0.00606 545.5 11.9
522(12) 0.00684 545.2 13.4
541(12) 0.00690 544.9 15.1
549(13) 0.00629 544.6 17.5
564(13) 0.00591 544.3 20.5
554(13) 0.00615 544.0 24.6
564(12) 0.00640 543.7 30.1
597(13) 0.00625 543.4 37.6
601(13) 0.00562 543.1 47.6
608(13) 0.00553 542.8 60.5
636(14) 0.00544 542.5 76.7
669(13) 0.00550 542.2 96.1
666(13) 0.00556 541.9 117.9
682(14) 0.00508 541.7 140.3
698(15) 0.00471 541.4 159.5
758(15) 0.00449 541.1 170.9
732(14) 0.00508 540.8 170.5
719(14) 0.00516 540.5 158.6
682(14) 0.00496 540.2 139.1
640(14) 0.00504 539.9 116.7
623(13) 0.00557 539.6 95.0
602(13) 0.00616 539.3 75.8
605(13) 0.00611 539.0 59.8
597(13) 0.00590 538.7 47.0
600(14) 0.00537 538.4 37.2
614(13) 0.00567 538.1 29.9
582(12) 0.00644 537.9 24.4
546(12) 0.00662 537.6 20.4
551(13) 0.00634 537.3 17.4
585(13) 0.00560 537.0 15.2
563(13) 0.00612 536.7 13.4
534(12) 0.00700 536.4 12.0
549(12) 0.00657 536.1 10.9
556(13) 0.00607 535.8 9.9
570(13) 0.00574 535.5 9.1
542(12) 0.00641 535.2 8.4
499(12) 0.00751 534.9 7.8
528(12) 0.00693 534.6 7.3
552(13) 0.00621 534.3 6.8
536(12) 0.00644 534.0 6.4
545(12) 0.00647 533.8 6.0
548(12) 0.00680 533.5 5.7
542(12) 0.00671 533.2 5.4
547(13) 0.00623 532.9 5.2
538(12) 0.00643 532.6 5.0
561(13) 0.00616 532.3 4.8
549(12) 0.00679 532.0 4.6
551(13) 0.00635 531.7 4.4
500(12) 0.00678 531.4 4.3
528(13) 0.00630 531.1 4.1
502(12) 0.00705 530.8 4.0
525(12) 0.00708 530.5 3.9
536(12) 0.00658 530.2 3.8
547(13) 0.00606 530.0 3.7
520(12) 0.00656 529.7 3.7
530(12) 0.00675 529.4 3.6
526(12) 0.00704 529.1 3.5
531(12) 0.00642 528.8 3.5
539(13) 0.00612 528.5 3.4
549(13) 0.00639 528.2 3.4
565(12) 0.00647 527.9 3.4
518(12) 0.00718 527.6 3.3
525(12) 0.00657 527.3 3.3
508(13) 0.00638 527.0 3.3
512(12) 0.00664 526.7 3.3
525(12) 0.00703 526.4 3.3
539(12) 0.00687 526.1 3.3
527(12) 0.00678 525.9 3.2
537(13) 0.00616 525.6 3.2
555(13) 0.00609 525.3 3.3
539(12) 0.00688 525.0 3.3
508(12) 0.00730 524.7 3.3
525(12) 0.00646 524.4 3.3
514(13) 0.00630 524.1 3.3
537(13) 0.00633 523.8 3.3
522(12) 0.00709 523.5 3.4
523(12) 0.00703 523.2 3.4
539(12) 0.00644 523.0 3.4
528(12) 0.00642 522.8 3.5
534(12) 0.00668 522.5 3.5
497(12) 0.00749 522.3 3.6
512(12) 0.00717 522.0 3.6
515(12) 0.00677 521.8 3.7
536(13) 0.00615 521.6 3.7
530(12) 0.00653 521.3 3.8
520(12) 0.00711 521.1 3.9
533(12) 0.00674 520.8 4.0
521(12) 0.00665 520.6 4.1
533(13) 0.00626 520.4 4.2
525(12) 0.00666 520.1 4.3
518(12) 0.00716 519.9 4.4
530(12) 0.00678 519.6 4.5
520(12) 0.00650 519.4 4.6
515(12) 0.00641 519.2 4.8
534(12) 0.00647 518.9 4.9
533(12) 0.00698 518.7 5.1
532(12) 0.00665 518.4 5.2
539(13) 0.00632 518.2 5.4
509(12) 0.00697 517.9 5.6
525(12) 0.00673 517.7 5.8
543(12) 0.00687 517.5 6.0
542(12) 0.00663 517.2 6.2
534(13) 0.00637 517.0 6.5
504(12) 0.00693 516.7 6.7
487(11) 0.00764 516.5 7.0
528(12) 0.00697 516.3 7.2
509(12) 0.00672 516.0 7.5
502(12) 0.00647 515.8 7.8
510(12) 0.00669 515.5 8.1
558(12) 0.00659 515.3 8.4
543(12) 0.00681 515.1 8.8
533(12) 0.00678 514.8 9.1
523(12) 0.00644 514.6 9.5
479(12) 0.00717 514.3 9.9
499(12) 0.00730 514.1 10.2
540(12) 0.00681 513.9 10.6
530(12) 0.00672 513.6 11.1
551(13) 0.00582 513.4 11.5
528(12) 0.00644 513.1 11.9
526(12) 0.00711 512.9 12.3
546(12) 0.00669 512.6 12.8
498(12) 0.00697 512.4 13.2
515(13) 0.00630 512.2 13.7
514(12) 0.00678 511.9 14.1
531(12) 0.00692 511.7 14.6
531(12) 0.00696 511.4 15.0
531(12) 0.00651 511.2 15.4
581(14) 0.00542 511.0 15.8
544(13) 0.00636 510.7 16.2
514(12) 0.00728 510.5 16.6
551(12) 0.00659 510.2 16.9
545(13) 0.00629 510.0 17.2
576(13) 0.00558 509.8 17.5
537(12) 0.00646 509.5 17.8
513(12) 0.00724 509.3 18.0
549(12) 0.00663 509.0 18.2
542(12) 0.00649 508.8 18.3
535(12) 0.00650 508.6 18.5
546(13) 0.00632 508.3 18.6
516(12) 0.00722 508.1 18.8
529(12) 0.00681 507.8 18.9
523(12) 0.00669 507.6 19.1
558(13) 0.00611 507.3 19.4
548(12) 0.00650 507.1 19.6
536(12) 0.00700 506.9 19.9
528(12) 0.00664 506.6 20.1
536(13) 0.00633 506.4 20.2
533(13) 0.00639 506.1 20.1
531(12) 0.00674 505.9 19.8
556(12) 0.00672 505.7 19.1
523(12) 0.00654 505.4 18.3
512(12) 0.00670 505.2 17.3
546(13) 0.00624 504.9 16.2
496(12) 0.00727 504.7 15.2
481(11) 0.00775 504.5 14.3
524(12) 0.00649 504.2 13.4
543(13) 0.00621 504.0 12.7
536(12) 0.00645 503.7 12.0
522(12) 0.00683 503.5 11.3
535(12) 0.00697 503.2 10.7
494(12) 0.00711 503.0 10.2
487(12) 0.00684 502.8 9.7
485(12) 0.00720 502.5 9.3
509(12) 0.00715 502.3 8.9
517(12) 0.00715 502.0 8.5
511(12) 0.00687 501.8 8.1
466(12) 0.00730 501.6 7.8
485(12) 0.00725 501.3 7.4
483(11) 0.00766 501.1 7.1
508(12) 0.00727 500.8 6.8
499(12) 0.00689 500.6 6.5
471(12) 0.00693 500.4 6.3
520(12) 0.00668 500.1 6.0
507(12) 0.00727 499.9 5.8
520(12) 0.00715 499.6 5.5
478(12) 0.00747 499.4 5.3
511(12) 0.00649 499.2 5.1
510(12) 0.00697 498.9 4.9
488(12) 0.00756 498.7 4.7
499(12) 0.00739 498.4 4.6
505(12) 0.00692 498.2 4.4
531(13) 0.00608 497.9 4.2
514(12) 0.00690 497.7 4.1
530(12) 0.00707 497.5 4.0
506(12) 0.00722 497.2 3.8
503(12) 0.00693 497.0 3.7
512(13) 0.00629 496.7 3.6
498(12) 0.00676 496.5 3.5
492(11) 0.00758 496.3 3.4
525(12) 0.00677 496.0 3.3
513(12) 0.00672 495.8 3.2
504(12) 0.00669 495.5 3.1
500(12) 0.00696 495.3 3.0
503(12) 0.00745 495.1 2.9
482(12) 0.00743 494.8 2.9
483(12) 0.00709 494.6 2.8
503(12) 0.00685 494.3 2.7
518(12) 0.00680 494.1 2.7
496(12) 0.00753 493.9 2.6
493(12) 0.00710 493.6 2.5
497(12) 0.00697 493.4 2.5
506(12) 0.00695 493.1 2.4
482(11) 0.00763 492.9 2.4
498(12) 0.00752 492.6 2.3
502(12) 0.00685 492.4 2.3
497(12) 0.00672 492.2 2.2
495(12) 0.00679 491.9 2.2
514(12) 0.00700 491.7 2.2
499(12) 0.00743 491.4 2.1
486(12) 0.00716 491.2 2.1
530(13) 0.00633 491.0 2.1
468(11) 0.00772 490.8 2.0
498(12) 0.00730 490.5 2.0
497(12) 0.00751 490.3 2.0
505(12) 0.00677 490.1 2.0
513(13) 0.00622 489.9 2.0
466(11) 0.00766 489.7 1.9
497(12) 0.00746 489.4 1.9
498(12) 0.00736 489.2 1.9
509(12) 0.00677 489.0 1.9
483(12) 0.00659 488.8 1.8
487(12) 0.00708 488.6 1.8
510(12) 0.00721 488.3 1.8
492(11) 0.00757 488.1 1.8
486(12) 0.00710 487.9 1.8
488(12) 0.00666 487.7 1.7
495(12) 0.00689 487.5 1.7
490(11) 0.00763 487.2 1.7
478(11) 0.00775 487.0 1.7
459(11) 0.00770 486.8 1.7
500(12) 0.00642 486.6 1.7
500(12) 0.00686 486.4 1.6
516(12) 0.00703 486.1 1.6
483(11) 0.00777 485.9 1.6
498(12) 0.00694 485.7 1.6
484(12) 0.00676 485.5 1.6
504(12) 0.00661 485.3 1.6
481(11) 0.00778 485.0 1.6
475(11) 0.00767 484.8 1.5
453(11) 0.00792 484.6 1.5
480(12) 0.00707 484.4 1.5
481(12) 0.00728 484.2 1.5
492(11) 0.00760 483.9 1.5
477(11) 0.00756 483.7 1.5
508(12) 0.00651 483.5 1.5
506(12) 0.00665 483.3 1.5
500(12) 0.00701 483.1 1.5
498(12) 0.00750 482.8 1.5
499(12) 0.00697 482.6 1.4
507(12) 0.00662 482.4 1.4
498(12) 0.00684 482.2 1.4
485(12) 0.00727 482.0 1.4
463(11) 0.00796 481.7 1.4
515(12) 0.00674 481.5 1.4
479(12) 0.00720 481.3 1.4
509(12) 0.00683 481.1 1.4
499(12) 0.00726 480.9 1.4
469(11) 0.00796 480.6 1.4
480(12) 0.00717 480.4 1.4
493(12) 0.00687 480.2 1.4
501(12) 0.00702 480.0 1.4
493(12) 0.00740 479.8 1.4
503(12) 0.00737 479.5 1.4
454(11) 0.00775 479.3 1.4
473(12) 0.00708 479.1 1.4
476(12) 0.00730 478.9 1.4
489(12) 0.00745 478.7 1.4
474(11) 0.00778 478.5 1.4
473(11) 0.00757 478.2 1.4
473(12) 0.00687 478.0 1.4
459(12) 0.00714 477.8 1.4
498(12) 0.00746 477.6 1.4
515(12) 0.00725 477.4 1.4
470(11) 0.00764 477.1 1.4
472(12) 0.00694 476.9 1.4
453(12) 0.00749 476.7 1.4
469(11) 0.00791 476.5 1.4
498(12) 0.00739 476.3 1.4
487(12) 0.00710 476.0 1.4
470(12) 0.00703 475.8 1.4
485(12) 0.00723 475.6 1.4
439(11) 0.00843 475.4 1.4
483(11) 0.00765 475.2 1.4
491(12) 0.00719 474.9 1.4
474(12) 0.00689 474.7 1.4
463(12) 0.00743 474.5 1.4
465(11) 0.00800 474.3 1.4
497(12) 0.00721 474.1 1.4
468(12) 0.00741 473.8 1.4
492(12) 0.00670 473.6 1.4
488(12) 0.00712 473.4 1.4
463(11) 0.00806 473.2 1.4
467(11) 0.00764 473.0 1.4
471(12) 0.00730 472.7 1.5
479(12) 0.00714 472.5 1.5
486(12) 0.00719 472.3 1.5
463(11) 0.00807 472.1 1.5
464(11) 0.00784 471.9 1.5
457(11) 0.00758 471.6 1.5
450(11) 0.00775 471.4 1.6
479(12) 0.00717 471.2 1.6
453(11) 0.00827 471.0 1.6
497(12) 0.00700 470.8 1.6
472(12) 0.00714 470.6 1.6
480(12) 0.00719 470.4 1.7
467(11) 0.00785 470.2 1.7
482(11) 0.00773 470.0 1.7
457(12) 0.00744 469.8 1.8
493(12) 0.00678 469.6 1.8
499(12) 0.00699 469.4 1.8
462(11) 0.00792 469.2 1.9
476(11) 0.00773 469.0 1.9
498(12) 0.00694 468.8 2.0
466(12) 0.00708 468.6 2.1
452(11) 0.00782 468.4 2.1
488(12) 0.00748 468.2 2.2
478(11) 0.00774 468.1 2.3
463(11) 0.00760 467.9 2.4
483(12) 0.00672 467.7 2.5
463(11) 0.00758 467.5 2.6
455(11) 0.00808 467.3 2.7
474(11) 0.00784 467.1 2.8
491(12) 0.00723 466.9 3.0
472(12) 0.00686 466.7 3.2
476(12) 0.00744 466.5 3.4
494(11) 0.00757 466.3 3.7
498(12) 0.00737 466.1 4.0
443(11) 0.00790 465.9 4.3
454(12) 0.00711 465.7 4.8
471(12) 0.00731 465.6 5.2
454(11) 0.00818 465.4 5.8
482(11) 0.00757 465.2 6.5
498(12) 0.00678 465.0 7.2
490(12) 0.00654 464.8 8.1
484(12) 0.00703 464.6 9.1
466(11) 0.00795 464.4 10.1
478(11) 0.00763 464.2 11.3
480(12) 0.00709 464.0 12.5
474(12) 0.00723 463.8 13.8
479(12) 0.00730 463.6 15.1
474(11) 0.00788 463.4 16.2
486(12) 0.00746 463.2 17.2
468(12) 0.00727 463.1 17.8
491(12) 0.00691 462.9 18.1
488(12) 0.00709 462.7 18.0
492(11) 0.00759 462.5 17.5
479(12) 0.00731 462.3 16.7
474(12) 0.00727 462.1 15.6
471(12) 0.00729 461.9 14.4
489(12) 0.00716 461.7 13.1
470(11) 0.00792 461.5 11.9
494(12) 0.00722 461.3 10.7
484(12) 0.00693 461.1 9.6
485(12) 0.00708 460.9 8.6
466(11) 0.00770 460.7 7.7
459(11) 0.00813 460.6 6.9
477(12) 0.00723 460.4 6.2
467(12) 0.00735 460.2 5.6
445(11) 0.00785 460.0 5.1
435(11) 0.00838 459.8 4.6
459(11) 0.00815 459.6 4.3
433(11) 0.00820 459.4 3.9
446(12) 0.00744 459.2 3.7
449(11) 0.00763 459.0 3.4
434(11) 0.00827 458.8 3.3
449(11) 0.00828 458.6 3.1
463(12) 0.00746 458.4 2.9
478(12) 0.00680 458.2 2.8
436(11) 0.00814 458.1 2.7
494(12) 0.00738 457.9 2.6
456(11) 0.00806 457.7 2.6
446(11) 0.00795 457.5 2.5
440(12) 0.00751 457.3 2.4
457(11) 0.00785 457.1 2.4
491(11) 0.00761 456.9 2.3
472(11) 0.00788 456.7 2.3
463(11) 0.00773 456.5 2.3
456(12) 0.00728 456.3 2.2
444(11) 0.00791 456.1 2.2
469(11) 0.00791 455.9 2.2
462(11) 0.00806 455.7 2.2
437(11) 0.00807 455.6 2.2
455(12) 0.00723 455.4 2.2
463(12) 0.00742 455.2 2.2
443(11) 0.00837 455.0 2.2
434(11) 0.00836 454.8 2.2
451(11) 0.00773 454.6 2.2
462(12) 0.00732 454.4 2.2
460(11) 0.00759 454.2 2.2
451(11) 0.00827 454.0 2.2
445(11) 0.00797 453.8 2.3
458(12) 0.00749 453.6 2.3
475(12) 0.00710 453.4 2.3
454(11) 0.00768 453.2 2.3
460(11) 0.00811 453.1 2.4
456(11) 0.00784 452.9 2.4
461(12) 0.00725 452.7 2.5
438(11) 0.00773 452.5 2.5
417(11) 0.00855 452.3 2.5
460(11) 0.00815 452.1 2.6
447(11) 0.00784 451.9 2.6
466(12) 0.00726 451.7 2.7
452(11) 0.00775 451.5 2.7
469(12) 0.00748 451.3 2.8
447(11) 0.00829 451.1 2.8
432(11) 0.00821 450.9 2.9
446(12) 0.00739 450.7 2.9
429(11) 0.00801 450.6 3.0
429(11) 0.00850 450.4 3.0
488(11) 0.00761 450.2 3.1
468(12) 0.00748 450.0 3.1
446(12) 0.00732 449.9 3.2
431(11) 0.00790 449.7 3.2
392(10) 0.00942 449.6 3.3
477(11) 0.00774 449.4 3.3
465(12) 0.00729 449.3 3.3
455(12) 0.00726 449.1 3.4
447(11) 0.00775 449.0 3.4
435(11) 0.00850 448.8 3.4
450(11) 0.00822 448.7 3.4
462(12) 0.00705 448.5 3.5
451(12) 0.00727 448.4 3.5
479(12) 0.00727 448.2 3.5
420(11) 0.00886 448.1 3.4
450(11) 0.00827 447.9 3.4
444(11) 0.00773 447.8 3.4
449(12) 0.00702 447.6 3.4
452(11) 0.00795 447.5 3.4
458(11) 0.00813 447.3 3.3
482(11) 0.00762 447.2 3.3
463(12) 0.00748 447.0 3.2
467(12) 0.00695 446.9 3.2
441(11) 0.00786 446.7 3.1
449(11) 0.00822 446.6 3.1
455(11) 0.00807 446.4 3.0
437(11) 0.00804 446.3 3.0
407(11) 0.00837 446.1 2.9
443(11) 0.00773 446.0 2.9
459(11) 0.00813 445.9 2.8
467(11) 0.00776 445.7 2.7
482(12) 0.00715 445.6 2.7
429(11) 0.00799 445.4 2.6
432(11) 0.00789 445.3 2.6
417(11) 0.00888 445.1 2.5
437(11) 0.00809 445.0 2.5
423(11) 0.00811 444.8 2.4
451(12) 0.00738 444.7 2.4
447(11) 0.00801 444.5 2.3
451(11) 0.00827 444.4 2.3
459(11) 0.00768 444.2 2.2
456(12) 0.00727 444.1 2.2
450(12) 0.00749 443.9 2.1
451(11) 0.00779 443.8 2.1
465(11) 0.00796 443.6 2.0
452(11) 0.00798 443.5 2.0
438(11) 0.00766 443.3 2.0
461(12) 0.00719 443.2 1.9
454(11) 0.00787 443.0 1.9
440(11) 0.00848 442.9 1.9
435(11) 0.00789 442.7 1.8
420(11) 0.00802 442.6 1.8
447(11) 0.00782 442.4 1.8
437(11) 0.00841 442.3 1.8
445(11) 0.00843 442.1 1.7
452(11) 0.00760 442.0 1.7
451(12) 0.00729 441.8 1.7
451(11) 0.00780 441.7 1.7
441(11) 0.00835 441.5 1.7
427(11) 0.00869 441.4 1.7
426(11) 0.00827 441.2 1.6
456(12) 0.00707 441.1 1.6
435(11) 0.00803 440.9 1.6
471(11) 0.00780 440.8 1.6
447(11) 0.00834 440.6 1.6
457(11) 0.00759 440.5 1.6
450(12) 0.00723 440.3 1.6
456(12) 0.00736 440.2 1.6
423(11) 0.00879 440.1 1.5
456(11) 0.00800 439.9 1.5
403(11) 0.00880 439.8 1.5
416(11) 0.00790 439.6 1.5
428(11) 0.00839 439.5 1.5
439(11) 0.00841 439.3 1.5
433(11) 0.00845 439.2 1.5
429(11) 0.00818 439.0 1.5
411(11) 0.00834 438.9 1.5
426(11) 0.00832 438.7 1.5
474(11) 0.00787 438.6 1.5
414(11) 0.00853 438.4 1.5
435(12) 0.00747 438.3 1.5
429(11) 0.00789 438.1 1.5
435(11) 0.00798 438.0 1.5
468(11) 0.00794 437.8 1.5
416(11) 0.00864 437.7 1.5
416(11) 0.00863 437.5 1.5
438(11) 0.00793 437.4 1.5
448(11) 0.00775 437.2 1.5
445(11) 0.00841 437.1 1.5
438(11) 0.00827 436.9 1.5
438(11) 0.00793 436.8 1.5
435(11) 0.00782 436.6 1.5
442(11) 0.00796 436.5 1.5
412(11) 0.00900 436.3 1.5
442(11) 0.00759 436.2 1.5
448(12) 0.00754 436.0 1.5
468(12) 0.00745 435.9 1.5
458(11) 0.00782 435.7 1.5
443(11) 0.00839 435.6 1.5
433(11) 0.00785 435.4 1.5
431(11) 0.00785 435.3 1.5
429(11) 0.00809 435.1 1.5
434(11) 0.00828 435.0 1.5
449(11) 0.00828 434.8 1.5
470(12) 0.00738 434.7 1.5
430(11) 0.00771 434.5 1.5
423(11) 0.00799 434.4 1.6
422(11) 0.00873 434.3 1.6
443(11) 0.00836 434.1 1.6
438(11) 0.00807 434.0 1.6
436(12) 0.00740 433.8 1.6
437(11) 0.00823 433.7 1.6
412(11) 0.00901 433.6 1.6
409(11) 0.00892 433.5 1.6
428(11) 0.00798 433.4 1.6
436(12) 0.00720 433.3 1.6
431(11) 0.00802 433.2 1.6
446(11) 0.00834 433.1 1.6
464(11) 0.00790 433.0 1.6
466(12) 0.00751 433.0 1.6
441(12) 0.00737 432.9 1.6
439(11) 0.00788 432.8 1.7
428(11) 0.00857 432.7 1.7
415(11) 0.00855 432.6 1.7
416(11) 0.00825 432.5 1.7
420(11) 0.00795 432.4 1.7
426(11) 0.00810 432.3 1.7
417(11) 0.00886 432.2 1.7
446(11) 0.00825 432.1 1.7
436(11) 0.00816 432.1 1.7
448(12) 0.00755 432.0 1.7
403(11) 0.00859 431.9 1.7
419(11) 0.00881 431.8 1.8
447(11) 0.00796 431.7 1.8
444(11) 0.00790 431.6 1.8
448(12) 0.00751 431.5 1.8
428(11) 0.00806 431.4 1.8
436(11) 0.00854 431.3 1.8
436(11) 0.00828 431.2 1.8
437(11) 0.00798 431.1 1.8
424(11) 0.00809 431.1 1.9
429(11) 0.00815 431.0 1.9
450(11) 0.00827 430.9 1.9
453(11) 0.00762 430.8 1.9
439(11) 0.00773 430.7 1.9
420(11) 0.00818 430.6 1.9
420(11) 0.00842 430.5 1.9
404(10) 0.00922 430.4 2.0
441(11) 0.00785 430.3 2.0
450(12) 0.00740 430.2 2.0
429(11) 0.00785 430.1 2.0
423(11) 0.00856 430.1 2.0
410(10) 0.00912 430.0 2.0
424(11) 0.00808 429.9 2.1
439(12) 0.00735 429.8 2.1
428(11) 0.00850 429.7 2.1
425(11) 0.00874 429.6 2.1
442(11) 0.00836 429.5 2.1
430(11) 0.00818 429.4 2.1
421(11) 0.00811 429.3 2.2
424(11) 0.00817 429.2 2.2
462(11) 0.00781 429.1 2.2
452(11) 0.00827 429.1 2.2
415(11) 0.00817 429.0 2.3
419(11) 0.00777 428.9 2.3
440(11) 0.00791 428.8 2.3
426(11) 0.00877 428.7 2.3
426(11) 0.00869 428.6 2.3
411(11) 0.00819 428.5 2.4
414(12) 0.00753 428.4 2.4
430(11) 0.00814 428.3 2.4
414(11) 0.00904 428.2 2.4
452(11) 0.00810 428.1 2.5
420(11) 0.00847 428.1 2.5
439(12) 0.00742 428.0 2.5
440(11) 0.00810 427.9 2.6
417(11) 0.00894 427.8 2.6
430(11) 0.00856 427.7 2.6
428(11) 0.00799 427.6 2.7
412(11) 0.00810 427.5 2.7
431(11) 0.00792 427.4 2.7
456(11) 0.00814 427.3 2.8
441(11) 0.00810 427.2 2.8
411(11) 0.00861 427.1 2.8
417(11) 0.00815 427.1 2.9
427(11) 0.00803 427.0 2.9
420(11) 0.00883 426.9 2.9
412(11) 0.00854 426.8 3.0
428(11) 0.00810 426.7 3.0
433(11) 0.00785 426.6 3.1
455(11) 0.00759 426.5 3.1
428(11) 0.00876 426.4 3.2
440(11) 0.00791 426.3 3.2
434(11) 0.00778 426.2 3.3
441(11) 0.00767 426.2 3.3
421(11) 0.00850 426.1 3.4
413(11) 0.00894 426.0 3.4
435(11) 0.00781 425.9 3.5
446(12) 0.00736 425.8 3.5
441(11) 0.00773 425.7 3.6
413(11) 0.00861 425.6 3.6
436(11) 0.00855 425.5 3.7
418(11) 0.00859 425.4 3.8
433(11) 0.00801 425.3 3.8
425(11) 0.00810 425.2 3.9
425(11) 0.00855 425.1 4.0
429(11) 0.00868 425.0 4.1
424(11) 0.00825 424.9 4.1
442(12) 0.00726 424.8 4.2
414(11) 0.00846 424.7 4.3
409(10) 0.00919 424.6 4.4
443(11) 0.00831 424.5 4.5
420(11) 0.00844 424.4 4.6
419(11) 0.00793 424.3 4.7
436(11) 0.00812 424.2 4.8
397(10) 0.00933 424.1 4.9
446(11) 0.00822 424.0 5.0
410(11) 0.00875 423.8 5.1
422(11) 0.00769 423.7 5.3
421(11) 0.00817 423.6 5.4
397(10) 0.00937 423.5 5.5
420(11) 0.00876 423.4 5.7
418(11) 0.00827 423.3 5.8
400(11) 0.00817 423.2 6.0
408(11) 0.00842 423.1 6.2
432(11) 0.00850 423.0 6.3
415(11) 0.00893 422.9 6.5
418(11) 0.00858 422.8 6.7
413(11) 0.00848 422.7 6.9
430(11) 0.00820 422.6 7.2
410(10) 0.00918 422.5 7.4
405(11) 0.00900 422.4 7.7
413(11) 0.00842 422.3 7.9
439(12) 0.00742 422.2 8.2
407(11) 0.00839 422.1 8.5
431(11) 0.00860 422.0 8.8
423(11) 0.00864 421.9 9.2
444(11) 0.00762 421.8 9.6
439(11) 0.00757 421.7 10.0
431(11) 0.00825 421.6 10.4
388(10) 0.00961 421.5 10.9
430(11) 0.00829 421.4 11.4
423(11) 0.00820 421.2 12.0
429(11) 0.00800 421.1 12.6
437(11) 0.00825 421.0 13.3
429(11) 0.00871 420.9 14.0
433(11) 0.00804 420.8 14.9
414(11) 0.00820 420.7 15.8
450(11) 0.00764 420.6 16.8
441(11) 0.00809 420.5 17.9
428(11) 0.00874 420.4 19.2
443(11) 0.00788 420.3 20.6
457(12) 0.00714 420.2 22.2
435(11) 0.00799 420.1 24.1
437(11) 0.00830 420.0 26.4
439(11) 0.00854 419.9 29.0
454(11) 0.00776 419.8 32.2
464(12) 0.00704 419.7 36.0
448(12) 0.00754 419.6 40.6
475(11) 0.00765 419.5 46.3
479(11) 0.00777 419.4 53.3
484(12) 0.00704 419.3 61.8
461(12) 0.00707 419.2 72.0
487(12) 0.00709 419.1 84.2
502(12) 0.00739 419.0 98.7
538(12) 0.00694 418.9 115.3
590(13) 0.00592 418.7 134.1
615(14) 0.00529 418.6 154.6
598(13) 0.00582 418.5 175.8
611(13) 0.00606 418.4 196.3
670(14) 0.00546 418.3 213.6
699(14) 0.00505 418.2 225.2
710(15) 0.00458 418.1 228.9
673(14) 0.00517 418.0 223.9
614(13) 0.00605 417.9 211.4
609(13) 0.00606 417.8 193.8
596(13) 0.00576 417.7 173.6
574(13) 0.00586 417.6 153.1
565(13) 0.00623 417.5 133.6
529(12) 0.00707 417.4 116.0
525(12) 0.00684 417.3 100.7
513(12) 0.00686 417.2 87.6
516(12) 0.00655 417.1 76.8
525(12) 0.00640 417.0 68.1
499(12) 0.00742 416.9 61.3
476(12) 0.00756 416.8 56.1
488(12) 0.00696 416.7 52.4
482(12) 0.00682 416.6 50.0
464(12) 0.00744 416.5 48.7
469(11) 0.00794 416.4 48.6
481(12) 0.00730 416.3 49.4
488(12) 0.00707 416.1 51.2
479(12) 0.00727 416.0 54.0
493(12) 0.00720 415.9 57.6
496(12) 0.00748 415.8 62.0
477(12) 0.00734 415.7 67.0
496(12) 0.00696 415.6 72.4
504(12) 0.00687 415.5 77.6
508(12) 0.00701 415.4 82.1
500(12) 0.00743 415.3 85.2
491(12) 0.00709 415.2 86.1
537(13) 0.00614 415.1 84.8
508(12) 0.00681 415.0 81.3
488(12) 0.00742 414.9 76.3
514(12) 0.00719 414.8 70.4
461(11) 0.00769 414.7 64.4
469(12) 0.00697 414.6 58.6
469(12) 0.00741 414.5 53.3
425(11) 0.00861 414.4 48.6
451(11) 0.00823 414.3 44.7
451(11) 0.00757 414.2 41.3
449(12) 0.00721 414.1 38.6
429(11) 0.00808 414.0 36.5
412(11) 0.00896 413.9 34.9
435(11) 0.00867 413.8 33.7
433(11) 0.00819 413.7 32.9
449(12) 0.00692 413.5 32.4
432(11) 0.00833 413.4 32.2
419(11) 0.00879 413.3 32.2
437(11) 0.00836 413.2 32.4
423(11) 0.00836 413.1 32.8
422(11) 0.00779 413.0 33.4
427(11) 0.00808 412.9 34.0
439(11) 0.00852 412.8 34.9
440(11) 0.00831 412.7 35.8
465(12) 0.00733 412.6 36.9
446(12) 0.00728 412.5 38.1
421(11) 0.00810 412.4 39.5
420(11) 0.00879 412.3 41.0
425(11) 0.00850 412.2 42.7
434(11) 0.00795 412.1 44.5
449(12) 0.00728 412.0 46.6
436(11) 0.00784 411.9 48.8
441(11) 0.00843 411.8 51.3
485(12) 0.00747 411.7 54.0
452(11) 0.00771 411.6 57.1
472(12) 0.00710 411.5 60.5
482(12) 0.00730 411.4 64.4
488(11) 0.00762 411.3 68.9
477(11) 0.00761 411.2 74.2
449(11) 0.00774 411.0 80.4
495(12) 0.00680 410.9 87.8
498(12) 0.00713 410.8 96.9
542(12) 0.00691 410.7 108.2
494(12) 0.00723 410.6 122.3
523(12) 0.00644 410.5 139.9
534(12) 0.00651 410.4 161.9
583(13) 0.00610 410.3 189.2
579(12) 0.00643 410.2 222.7
631(13) 0.00555 410.1 263.0
687(14) 0.00489 410.0 310.5
715(14) 0.00486 409.9 365.1
778(15) 0.00467 409.8 425.5
851(15) 0.00437 409.7 489.0
918(16) 0.00382 409.6 550.3
987(17) 0.003401 409.5 601.7
1007(17) 0.003481 409.4 634.0
1004(17) 0.00365 409.3 640.1
942(16) 0.00394 409.2 618.4
944(16) 0.00370 409.1 573.7
895(16) 0.00368 409.0 515.0
800(15) 0.00445 408.9 450.9
767(15) 0.00475 408.8 387.7
755(14) 0.00495 408.7 329.4
680(14) 0.00499 408.6 277.8
640(14) 0.00500 408.4 233.4
610(13) 0.00584 408.3 196.2
588(13) 0.00634 408.2 165.5
546(12) 0.00681 408.1 140.5
546(13) 0.00633 408.0 120.4
531(13) 0.00607 407.9 104.2
550(13) 0.00612 407.8 91.3
542(12) 0.00689 407.7 80.8
508(12) 0.00725 407.6 72.3
503(12) 0.00681 407.5 65.3
475(12) 0.00674 407.4 59.4
423(11) 0.00824 407.3 54.4
454(11) 0.00822 407.2 50.2
463(11) 0.00788 407.1 46.4
458(12) 0.00755 407.0 43.2
451(12) 0.00731 406.9 40.3
434(11) 0.00805 406.8 37.8
433(11) 0.00856 406.7 35.5
454(11) 0.00791 406.6 33.5
450(11) 0.00761 406.5 31.7
456(12) 0.00738 406.4 30.1
460(12) 0.00756 406.3 28.6
407(10) 0.00907 406.2 27.3
428(11) 0.00847 406.1 26.1
410(11) 0.00849 405.9 25.0
414(11) 0.00828 405.8 24.0
429(11) 0.00836 405.7 23.1
425(11) 0.00872 405.6 22.3
448(11) 0.00812 405.5 21.6
446(11) 0.00772 405.4 20.9
414(11) 0.00831 405.3 20.3
424(11) 0.00835 405.2 19.8
397(10) 0.00938 405.1 19.3
407(11) 0.00837 405.0 18.8
378(10) 0.00908 404.9 18.4
397(11) 0.00863 404.8 18.1
424(11) 0.00852 404.7 17.8
426(11) 0.00871 404.6 17.5
406(11) 0.00859 404.5 17.3
405(11) 0.00829 404.4 17.1
394(10) 0.00909 404.3 16.9
435(11) 0.00858 404.2 16.8
421(11) 0.00880 404.1 16.7
419(11) 0.00832 404.0 16.7
408(11) 0.00802 403.7 16.6
397(11) 0.00895 403.5 16.7
413(11) 0.00883 403.3 16.7
430(11) 0.00873 403.1 16.8
410(11) 0.00830 402.9 16.9
395(11) 0.00820 402.7 17.0
412(11) 0.00868 402.4 17.2
424(11) 0.00888 402.2 17.4
428(11) 0.00861 402.0 17.7
384(10) 0.00916 401.8 18.0
400(11) 0.00807 401.6 18.3
400(11) 0.00849 401.3 18.7
432(11) 0.00850 401.1 19.2
407(10) 0.00908 400.9 19.7
433(11) 0.00811 400.7 20.2
442(12) 0.00743 400.5 20.9
433(11) 0.00796 400.3 21.6
430(11) 0.00867 400.0 22.5
440(11) 0.00836 399.8 23.4
444(11) 0.00776 399.6 24.4
437(12) 0.00744 399.4 25.6
434(11) 0.00816 399.2 27.0
438(11) 0.00846 399.0 28.6
422(11) 0.00862 398.7 30.3
458(12) 0.00744 398.5 32.4
452(12) 0.00732 398.3 34.7
410(11) 0.00852 398.1 37.3
436(11) 0.00856 397.9 40.3
436(11) 0.00817 397.7 43.8
441(11) 0.00775 397.4 47.7
438(11) 0.00767 397.2 52.1
447(11) 0.00787 397.0 57.0
503(12) 0.00741 396.8 62.6
484(12) 0.00727 396.6 68.8
486(12) 0.00703 396.4 75.8
494(12) 0.00685 396.1 83.4
497(12) 0.00699 395.9 91.6
516(12) 0.00719 395.7 100.6
522(12) 0.00666 395.5 110.2
526(13) 0.00628 395.3 120.2
531(13) 0.00632 395.1 130.6
529(12) 0.00703 394.8 141.0
562(12) 0.00658 394.6 151.2
568(13) 0.00611 394.4 160.6
598(13) 0.00552 394.2 168.8
568(13) 0.00616 394.0 175.3
569(12) 0.00650 393.7 179.6
577(12) 0.00650 393.5 181.3
603(13) 0.00579 393.3 180.2
580(13) 0.00576 393.1 176.6
586(13) 0.00598 392.9 170.6
566(12) 0.00652 392.7 162.7
570(12) 0.00659 392.4 153.4
541(12) 0.00640 392.2 143.4
522(13) 0.00613 392.0 132.9
524(12) 0.00654 391.8 122.4
510(12) 0.00722 391.6 112.2
496(12) 0.00733 391.4 102.4
480(12) 0.00722 391.1 93.2
437(12) 0.00752 390.9 84.6
459(11) 0.00766 390.7 76.7
463(11) 0.00798 390.5 69.6
454(11) 0.00812 390.3 63.1
434(11) 0.00818 390.1 57.2
433(12) 0.00753 389.8 52.0
404(11) 0.00881 389.6 47.4
452(11) 0.00818 389.4 43.2
446(11) 0.00792 389.2 39.6
404(11) 0.00873 389.0 36.4
399(11) 0.00809 388.8 33.6
392(11) 0.00882 388.5 31.1
404(10) 0.00932 388.3 28.9
409(11) 0.00884 388.1 26.9
399(11) 0.00859 387.9 25.2
389(11) 0.00873 387.7 23.7
415(11) 0.00814 387.5 22.3
405(10) 0.00913 387.2 21.1
390(10) 0.00924 387.0 20.0
390(11) 0.00872 386.8 19.0
383(11) 0.00849 386.6 18.1
384(11) 0.00905 386.4 17.3
405(10) 0.00922 386.1 16.6
413(11) 0.00860 385.9 15.9
419(11) 0.00769 385.7 15.3
371(10) 0.00926 385.5 14.7
415(11) 0.00841 385.3 14.1
375(10) 0.00985 385.1 13.7
383(10) 0.00915 384.8 13.2
409(11) 0.00841 384.6 12.8
441(11) 0.00777 384.4 12.4
429(11) 0.00848 384.2 12.0
395(10) 0.00930 384.0 11.7
403(11) 0.00870 383.8 11.3
425(11) 0.00771 383.5 11.0
371(10) 0.00944 383.3 10.7
352(10) 0.01024 383.1 10.5
368(10) 0.01007 382.9 10.2
362(10) 0.00969 382.7 10.0
382(11) 0.00878 382.5 9.8
384(11) 0.00889 382.2 9.6
369(10) 0.00993 382.0 9.4
406(10) 0.00923 381.8 9.2
377(10) 0.00922 381.6 9.0
390(11) 0.00831 381.4 8.9
340(10) 0.01041 381.2 8.7
375(10) 0.00981 380.9 8.6
401(10) 0.00916 380.7 8.4
382(11) 0.00906 380.5 8.3
374(11) 0.00851 380.3 8.2
377(10) 0.00926 380.1 8.1
386(10) 0.00966 379.9 8.0
389(10) 0.00945 379.6 7.9
378(10) 0.00940 379.4 7.8
391(11) 0.00832 379.2 7.7
411(11) 0.00839 379.0 7.6
357(10) 0.01049 378.8 7.6
394(10) 0.00915 378.5 7.5
383(10) 0.00910 378.3 7.4
379(11) 0.00881 378.1 7.4
400(11) 0.00876 377.9 7.3
383(10) 0.00967 377.7 7.3
372(10) 0.00993 377.5 7.3
362(10) 0.00969 377.2 7.2
381(11) 0.00886 377.0 7.2
351(10) 0.00991 376.9 7.2
382(10) 0.00971 376.8 7.1
366(10) 0.01008 376.7 7.1
369(10) 0.00929 376.6 7.1
393(11) 0.00842 376.5 7.1
343(10) 0.01044 376.4 7.1
380(10) 0.00976 376.4 7.1
366(10) 0.00979 376.3 7.1
373(10) 0.00929 376.2 7.1
382(11) 0.00881 376.1 7.2
370(10) 0.00961 376.0 7.2
409(10) 0.00911 375.9 7.2
386(11) 0.00897 375.9 7.2
388(11) 0.00861 375.8 7.3
380(11) 0.00883 375.7 7.3
373(10) 0.00940 375.6 7.4
381(10) 0.00980 375.5 7.4
400(11) 0.00830 375.4 7.5
395(11) 0.00839 375.3 7.6
375(10) 0.00914 375.3 7.7
351(10) 0.01046 375.2 7.8
368(10) 0.01011 375.1 7.9
367(10) 0.00926 375.0 8.0
367(11) 0.00898 374.9 8.2
399(11) 0.00862 374.8 8.4
380(10) 0.00969 374.7 8.5
388(10) 0.00966 374.7 8.8
382(11) 0.00899 374.6 9.0
396(11) 0.00788 374.5 9.3
368(10) 0.00967 374.4 9.7
383(10) 0.00954 374.3 10.1
376(10) 0.00987 374.2 10.6
401(11) 0.00872 374.1 11.3
375(11) 0.00859 374.1 12.3
390(11) 0.00896 374.0 13.5
405(10) 0.00912 373.9 15.2
385(10) 0.00963 373.8 17.5
375(10) 0.00935 373.7 20.6
383(11) 0.00870 373.6 24.5
405(11) 0.00876 373.5 29.2
400(10) 0.00921 373.5 34.4
411(11) 0.00892 373.4 39.6
423(11) 0.00836 373.3 43.6
489(12) 0.00649 373.2 44.9
414(11) 0.00844 373.1 43.2
425(11) 0.00874 373.0 39.1
404(11) 0.00903 372.9 34.0
396(11) 0.00889 372.9 29.1
381(11) 0.00873 372.8 24.8
379(11) 0.00900 372.7 21.4
399(10) 0.00927 372.6 18.8
388(10) 0.00932 372.5 16.9
395(11) 0.00858 372.4 15.6
389(11) 0.00848 372.3 14.7
365(10) 0.00936 372.3 14.1
384(10) 0.00965 372.2 13.7
383(10) 0.00929 372.1 13.5
393(11) 0.00844 372.0 13.4
398(11) 0.00843 371.9 13.3
410(11) 0.00870 371.8 13.3
381(10) 0.00975 371.7 13.4
383(10) 0.00912 371.7 13.5
368(10) 0.00938 371.6 13.6
412(11) 0.00803 371.5 13.8
392(11) 0.00899 371.4 14.0
370(10) 0.01007 371.3 14.2
388(11) 0.00887 371.2 14.4
363(10) 0.00928 371.1 14.7
416(11) 0.00810 371.1 15.0
391(10) 0.00913 371.0 15.3
375(10) 0.00989 370.9 15.6
392(11) 0.00867 370.8 15.9
361(10) 0.00917 370.7 16.3
364(10) 0.00941 370.6 16.7
376(10) 0.00949 370.5 17.1
383(10) 0.00988 370.5 17.5
374(10) 0.00920 370.4 17.9
390(11) 0.00831 370.3 18.4
374(10) 0.00920 370.2 18.9
355(10) 0.01002 370.1 19.4
393(10) 0.00948 370.0 20.0
382(10) 0.00923 369.9 20.5
388(11) 0.00863 369.9 21.2
407(11) 0.00839 369.8 21.8
423(11) 0.00857 369.7 22.5
396(10) 0.00947 369.6 23.2
401(11) 0.00858 369.5 23.9
440(12) 0.00701 369.4 24.7
396(11) 0.00900 369.3 25.6
397(10) 0.00932 369.3 26.5
395(10) 0.00929 369.2 27.5
380(10) 0.00915 369.1 28.5
406(11) 0.00797 369.0 29.6
379(10) 0.00948 368.9 30.8
398(10) 0.00946 368.8 32.1
411(11) 0.00871 368.7 33.4
399(11) 0.00863 368.7 34.8
414(11) 0.00781 368.6 36.4
400(11) 0.00878 368.5 38.0
409(11) 0.00899 368.4 39.8
418(11) 0.00872 368.3 41.6
447(11) 0.00764 368.2 43.6
432(12) 0.00756 368.2 45.7
421(11) 0.00799 368.1 47.9
444(11) 0.00841 368.0 50.2
413(11) 0.00885 367.9 52.6
391(11) 0.00902 367.8 55.1
417(11) 0.00836 367.7 57.6
440(11) 0.00813 367.6 60.2
412(11) 0.00901 367.6 62.8
426(11) 0.00835 367.5 65.3
444(12) 0.00742 367.4 67.8
428(11) 0.00807 367.3 70.0
464(11) 0.00779 367.2 72.1
458(11) 0.00813 367.1 73.8
448(11) 0.00773 367.0 75.1
468(12) 0.00718 367.0 76.0
477(12) 0.00708 366.9 76.4
463(11) 0.00777 366.8 76.3
448(11) 0.00827 366.7 75.8
420(11) 0.00815 366.6 74.8
450(12) 0.00715 366.5 73.4
422(11) 0.00834 366.4 71.7
437(11) 0.00828 366.4 69.8
410(11) 0.00906 366.3 67.7
421(11) 0.00800 366.2 65.5
439(12) 0.00727 366.1 63.2
462(12) 0.00743 366.0 61.0
432(11) 0.00856 365.9 58.8
418(11) 0.00889 365.8 56.7
468(12) 0.00735 365.8 54.6
435(11) 0.00789 365.7 52.7
453(11) 0.00775 365.6 51.0
399(10) 0.00935 365.5 49.4
424(11) 0.00885 365.4 47.9
429(11) 0.00829 365.3 46.5
419(11) 0.00773 365.2 45.4
425(11) 0.00831 365.2 44.3
420(11) 0.00870 365.1 43.4
394(10) 0.00949 365.0 42.7
388(11) 0.00888 364.9 42.1
393(11) 0.00837 364.8 41.6
390(10) 0.00918 364.7 41.3
396(10) 0.00947 364.6 41.1
403(11) 0.00880 364.6 41.1
377(11) 0.00900 364.5 41.2
410(11) 0.00774 364.4 41.5
393(11) 0.00882 364.3 41.8
421(11) 0.00892 364.2 42.4
412(11) 0.00880 364.1 43.1
408(11) 0.00840 364.0 43.9
378(10) 0.00915 364.0 44.9
403(11) 0.00864 363.9 46.1
425(11) 0.00874 363.8 47.5
406(11) 0.00902 363.7 49.1
415(11) 0.00831 363.6 51.0
406(11) 0.00808 363.5 53.0
413(11) 0.00837 363.4 55.4
415(10) 0.00909 363.4 58.1
425(11) 0.00825 363.3 61.1
429(11) 0.00795 363.2 64.5
434(11) 0.00780 363.1 68.2
428(11) 0.00828 363.0 72.4
430(11) 0.00862 362.9 77.1
416(11) 0.00863 362.8 82.3
436(11) 0.00789 362.8 88.1
429(11) 0.00805 362.7 94.4
445(11) 0.00801 362.6 101.4
459(11) 0.00809 362.5 109.0
462(12) 0.00748 362.4 117.3
471(12) 0.00713 362.3 126.3
492(12) 0.00700 362.2 136.1
485(12) 0.00743 362.2 146.6
508(12) 0.00736 362.1 157.8
500(12) 0.00701 362.0 169.8
536(13) 0.00623 361.9 182.4
540(12) 0.00644 361.8 195.6
563(12) 0.00650 361.7 209.3
569(12) 0.00659 361.6 223.3
614(13) 0.00563 361.6 237.4
629(14) 0.00512 361.5 251.4
613(13) 0.00567 361.4 264.9
654(13) 0.00567 361.3 277.5
659(13) 0.00565 361.2 289.0
656(14) 0.00511 361.1 298.7
626(14) 0.00519 361.0 306.6
625(13) 0.00560 361.0 312.1
615(13) 0.00597 360.9 315.3
624(13) 0.00594 360.8 315.9
636(14) 0.00536 360.7 314.2
616(14) 0.00538 360.6 310.2
627(14) 0.00538 360.5 304.2
596(13) 0.00621 360.4 296.5
571(12) 0.00645 360.4 287.2
594(13) 0.00585 360.3 276.7
553(13) 0.00605 360.2 265.1
554(13) 0.00630 360.1 252.7
583(13) 0.00633 360.0 239.5
520(12) 0.00700 359.9 226.0
523(12) 0.00672 359.9 212.1
532(13) 0.00636 359.8 198.3
526(12) 0.00659 359.7 184.6
486(11) 0.00765 359.6 171.4
507(12) 0.00726 359.5 158.6
524(12) 0.00664 359.4 146.5
497(12) 0.00671 359.3 135.2
463(11) 0.00756 359.3 124.5
465(11) 0.00799 359.2 114.7
429(11) 0.00832 359.1 105.7
422(11) 0.00827 359.0 97.4
455(11) 0.00760 358.9 89.8
459(11) 0.00762 358.8 82.9
426(11) 0.00887 358.7 76.6
429(11) 0.00835 358.7 71.0
422(11) 0.00806 358.6 65.9
418(11) 0.00826 358.5 61.3
426(11) 0.00830 358.4 57.1
449(11) 0.00836 358.3 53.4
408(11) 0.00851 358.2 50.0
402(11) 0.00839 358.1 47.0
413(11) 0.00831 358.1 44.3
411(11) 0.00880 358.0 41.8
408(11) 0.00899 357.9 39.5
392(11) 0.00888 357.8 37.5
388(11) 0.00841 357.7 35.6
390(11) 0.00874 357.6 33.9
398(11) 0.00905 357.5 32.3
387(10) 0.00961 357.5 30.9
404(11) 0.00833 357.4 29.6
362(10) 0.00912 357.3 28.3
405(11) 0.00858 357.2 27.2
372(10) 0.01007 357.1 26.1
389(10) 0.00937 357.0 25.1
354(10) 0.00998 356.9 24.2
388(11) 0.00814 356.9 23.3
368(10) 0.00966 356.8 22.5
372(10) 0.00983 356.7 21.7
362(10) 0.01016 356.6 21.0
361(10) 0.00956 356.5 20.3
341(10) 0.00993 356.4 19.7
380(11) 0.00889 356.3 19.1
350(10) 0.01058 356.3 18.5
396(10) 0.00922 356.2 17.9
354(10) 0.00983 356.1 17.4
357(10) 0.00935 356.0 16.9
358(10) 0.00965 355.9 16.5
371(10) 0.01014 355.8 16.1
380(10) 0.00953 355.7 15.7
355(10) 0.00978 355.7 15.3
364(10) 0.00915 355.6 14.9
351(10) 0.00993 355.5 14.6
364(10) 0.01016 355.4 14.2
354(10) 0.01023 355.3 13.9
360(10) 0.00956 355.2 13.6
343(10) 0.00973 355.1 13.4
341(10) 0.01049 355.1 13.1
353(10) 0.01042 355.0 12.9
351(10) 0.01015 354.9 12.7
356(10) 0.00980 354.8 12.5
354(10) 0.00964 354.7 12.3
367(10) 0.00956 354.6 12.2
345(10) 0.01077 354.5 12.0
337(10) 0.01045 354.5 11.9
363(10) 0.00908 354.4 11.8
367(10) 0.00925 354.3 11.7
359(10) 0.00974 354.2 11.6
368(10) 0.01012 354.1 11.6
354(10) 0.00986 354.0 11.6
347(10) 0.00993 353.9 11.6
360(10) 0.00966 353.9 11.6
348(10) 0.00972 353.8 11.6
354(10) 0.01050 353.7 11.7
356(10) 0.00998 353.6 11.8
354(10) 0.00950 353.5 11.9
346(10) 0.00969 353.4 12.0
354(10) 0.01023 353.3 12.1
365(10) 0.01023 353.3 12.3
360(10) 0.00974 353.2 12.5
364(11) 0.00883 353.1 12.7
352(10) 0.00986 353.0 12.9
351(10) 0.01050 352.9 13.1
367(10) 0.01005 352.8 13.3
348(10) 0.00980 352.7 13.5
338(10) 0.00957 352.7 13.8
366(10) 0.00937 352.6 14.0
345(10) 0.01074 352.5 14.2
364(10) 0.01016 352.4 14.4
346(10) 0.01014 352.3 14.5
370(11) 0.00855 352.2 14.6
343(10) 0.01019 352.2 14.6
336(10) 0.01103 352.1 14.6
352(10) 0.01055 352.0 14.5
365(10) 0.00957 351.9 14.4
354(10) 0.00930 351.8 14.2
357(10) 0.00923 351.7 14.0
342(10) 0.01086 351.6 13.7
314(9) 0.01201 351.6 13.3
352(10) 0.00961 351.5 13.0
362(11) 0.00882 351.4 12.6
354(10) 0.00960 351.3 12.2
330(9) 0.01123 351.2 11.8
351(10) 0.01039 351.1 11.4
355(10) 0.01007 351.0 11.0
368(11) 0.00906 351.0 10.6
358(10) 0.00965 350.9 10.2
346(10) 0.01074 350.8 9.9
352(10) 0.01020 350.7 9.5
385(10) 0.00930 350.6 9.2
355(10) 0.00976 350.5 8.9
333(10) 0.01078 350.4 8.6
330(9) 0.01124 350.4 8.3
342(10) 0.01043 350.3 8.0
340(10) 0.00990 350.2 7.8
321(10) 0.01065 350.1 7.5
342(10) 0.01019 350.0 7.3
363(10) 0.01033 349.9 7.1
361(10) 0.00979 349.8 6.9
330(10) 0.01048 349.8 6.7
330(10) 0.01026 349.7 6.6
353(10) 0.01032 349.6 6.4
341(10) 0.01088 349.5 6.3
369(11) 0.00903 349.4 6.2
380(11) 0.00871 349.3 6.0
356(10) 0.00988 349.2 5.9
341(10) 0.01064 349.2 5.8
328(9) 0.01144 349.1 5.7
371(10) 0.00920 349.0 5.7
355(10) 0.00923 348.9 5.6
344(10) 0.00995 348.8 5.5
329(9) 0.01122 348.7 5.5
347(10) 0.01076 348.6 5.4
343(10) 0.01048 348.6 5.3
349(10) 0.00934 348.5 5.3
367(10) 0.00940 348.4 5.3
362(10) 0.01031 348.3 5.2
347(10) 0.01076 348.2 5.2
341(10) 0.01032 348.1 5.2
345(10) 0.00908 348.0 5.1
315(9) 0.01121 347.8 5.1
361(10) 0.01013 347.7 5.1
358(10) 0.01042 347.6 5.1
344(10) 0.01026 347.5 5.1
349(10) 0.00920 347.3 5.0
347(10) 0.00995 347.2 5.0
338(9) 0.01119 347.1 5.0
355(10) 0.01031 347.0 5.0
368(10) 0.00949 346.8 5.0
357(10) 0.00922 346.7 5.1
352(10) 0.00968 346.6 5.1
341(10) 0.01087 346.5 5.1
351(10) 0.01014 346.3 5.1
345(10) 0.01009 346.2 5.1
336(10) 0.01018 346.1 5.2
350(10) 0.00999 346.0 5.2
334(10) 0.01103 345.8 5.2
321(9) 0.01140 345.7 5.3
316(10) 0.01088 345.6 5.3
336(10) 0.00975 345.5 5.4
326(10) 0.01049 345.3 5.4
360(10) 0.01039 345.2 5.5
359(10) 0.00975 345.1 5.6
338(10) 0.00999 345.0 5.7
332(10) 0.01003 344.8 5.8
331(10) 0.01071 344.7 5.9
379(10) 0.00974 344.6 6.0
356(10) 0.00978 344.5 6.1
334(10) 0.01020 344.3 6.2
335(10) 0.01019 344.2 6.4
341(10) 0.01037 344.1 6.5
359(10) 0.01033 344.0 6.7
367(10) 0.00962 343.8 6.8
336(10) 0.01032 343.7 7.0
348(10) 0.01000 343.6 7.3
375(10) 0.00967 343.5 7.5
347(10) 0.01064 343.3 7.7
355(10) 0.00985 343.2 8.0
371(11) 0.00889 343.1 8.3
332(10) 0.01062 343.0 8.6
330(10) 0.01105 342.8 8.9
340(10) 0.01100 342.7 9.3
352(10) 0.00991 342.6 9.6
363(11) 0.00890 342.5 10.0
341(10) 0.01015 342.3 10.4
373(10) 0.00999 342.2 10.9
363(10) 0.01013 342.1 11.4
376(10) 0.00934 342.0 11.9
354(10) 0.00927 341.8 12.4
360(10) 0.00945 341.7 13.0
339(10) 0.01086 341.6 13.6
348(10) 0.01063 341.5 14.2
342(10) 0.01055 341.3 14.8
371(11) 0.00861 341.2 15.5
362(10) 0.00961 341.1 16.2
348(10) 0.01062 341.0 16.9
340(10) 0.01065 340.8 17.6
359(10) 0.00976 340.7 18.3
358(10) 0.00922 340.6 19.0
348(10) 0.01010 340.5 19.8
348(10) 0.01043 340.3 20.5
358(10) 0.01054 340.2 21.2
372(10) 0.00948 340.1 21.9
368(11) 0.00904 340.0 22.5
333(10) 0.01060 339.8 23.1
352(10) 0.01050 339.7 23.6
326(9) 0.01123 339.6 24.1
341(10) 0.01031 339.5 24.5
352(10) 0.00990 339.3 24.8
377(10) 0.00915 339.2 24.9
345(10) 0.01080 339.1 25.0
343(10) 0.01058 339.0 25.0
349(10) 0.00973 338.8 24.9
348(10) 0.00969 338.7 24.7
383(10) 0.00911 338.6 24.4
376(10) 0.00993 338.5 23.9
359(10) 0.01003 338.3 23.5
370(10) 0.00910 338.2 22.9
355(10) 0.00939 338.1 22.3
358(10) 0.00964 338.0 21.6
356(10) 0.01062 337.8 20.9
352(10) 0.01008 337.7 20.2
385(11) 0.00852 337.6 19.5
349(10) 0.00989 337.5 18.8
363(10) 0.00996 337.3 18.1
334(9) 0.01116 337.2 17.3
371(11) 0.00902 337.1 16.6
342(10) 0.00988 337.0 15.9
362(10) 0.00949 336.8 15.2
352(10) 0.01029 336.7 14.6
356(10) 0.01054 336.6 14.0
330(10) 0.01037 336.5 13.4
323(10) 0.01026 336.3 12.8
349(10) 0.00980 336.2 12.2
336(10) 0.01090 336.1 11.7
345(10) 0.01070 336.0 11.2
346(10) 0.01009 335.8 10.7
340(10) 0.00951 335.7 10.3
347(10) 0.01011 335.6 9.9
325(9) 0.01137 335.5 9.5
339(10) 0.01090 335.3 9.2
374(10) 0.00917 335.2 8.8
337(10) 0.00951 335.1 8.5
313(10) 0.01080 335.0 8.2
358(10) 0.01011 334.8 7.9
336(10) 0.01056 334.7 7.7
331(10) 0.01089 334.6 7.5
339(10) 0.00952 334.5 7.3
333(10) 0.01036 334.3 7.1
348(10) 0.01059 334.2 6.9
329(9) 0.01127 334.1 6.7
356(10) 0.00959 334.0 6.6
332(10) 0.01017 333.8 6.5
333(10) 0.01074 333.7 6.3
320(9) 0.01151 333.6 6.2
339(10) 0.01045 333.5 6.1
318(9) 0.01108 333.3 6.1
360(10) 0.00911 333.2 6.0
335(10) 0.01057 333.1 5.9
371(10) 0.00998 333.0 5.9
339(10) 0.01064 332.8 5.8
352(10) 0.00973 332.7 5.8
318(10) 0.01090 332.6 5.7
339(10) 0.01031 332.5 5.7
347(10) 0.01071 332.3 5.7
333(10) 0.01070 332.2 5.7
315(10) 0.01094 332.1 5.7
329(10) 0.01045 332.0 5.7
358(10) 0.01005 331.8 5.7
347(10) 0.01079 331.7 5.7
356(10) 0.00950 331.6 5.7
346(10) 0.00963 331.5 5.8
340(10) 0.01026 331.3 5.8
355(10) 0.01033 331.2 5.8
356(10) 0.01044 331.1 5.8
364(11) 0.00899 331.0 5.9
330(10) 0.01005 330.8 5.9
314(10) 0.01092 330.7 6.0
341(10) 0.01055 330.6 6.0
308(9) 0.01205 330.5 6.0
314(10) 0.01096 330.3 6.1
361(11) 0.00869 330.2 6.1
316(9) 0.01113 330.1 6.2
331(10) 0.01086 330.0 6.2
353(10) 0.01049 329.8 6.3
353(10) 0.00971 329.7 6.4
357(11) 0.00899 329.6 6.4
347(10) 0.00993 329.5 6.5
331(9) 0.01122 329.3 6.5
358(10) 0.01016 329.2 6.6
331(10) 0.01063 329.1 6.6
334(10) 0.00958 329.0 6.6
341(10) 0.01024 328.8 6.7
348(10) 0.01059 328.7 6.7
313(9) 0.01172 328.6 6.7
330(10) 0.01088 328.5 6.8
328(10) 0.00983 328.3 6.8
309(10) 0.01091 328.2 6.8
322(9) 0.01143 328.1 6.8
326(10) 0.01104 327.9 6.8
315(10) 0.01095 327.8 6.8
302(9) 0.01133 327.7 6.8
326(10) 0.01048 327.6 6.8
338(10) 0.01100 327.4 6.8
333(10) 0.01087 327.3 6.7
345(10) 0.01033 327.2 6.7
335(10) 0.01059 327.1 6.6
339(10) 0.01000 326.9 6.6
339(10) 0.01089 326.8 6.5
356(10) 0.01011 326.7 6.5
342(10) 0.01016 326.6 6.4
328(10) 0.01069 326.4 6.4
340(10) 0.01043 326.3 6.3
338(10) 0.01106 326.2 6.2
324(9) 0.01108 326.1 6.1
330(10) 0.01078 325.9 6.0
344(10) 0.00986 325.8 5.9
349(10) 0.01006 325.7 5.8
357(10) 0.01033 325.6 5.7
331(10) 0.01054 325.4 5.6
301(9) 0.01155 325.3 5.6
340(10) 0.01011 325.2 5.5
329(9) 0.01111 325.1 5.4
346(10) 0.01072 324.9 5.3
324(10) 0.01063 324.8 5.2
313(10) 0.01052 324.7 5.1
336(10) 0.01022 324.6 5.0
331(10) 0.01107 324.4 4.9
337(10) 0.01099 324.3 4.8
341(10) 0.00997 324.2 4.7
322(10) 0.01062 324.1 4.6
339(10) 0.01012 323.9 4.5
305(9) 0.01169 323.8 4.4
335(9) 0.01116 323.7 4.3
338(10) 0.01042 323.6 4.2
350(10) 0.00944 323.4 4.1
334(10) 0.01055 323.3 4.1
308(9) 0.01212 323.2 4.0
318(9) 0.01159 323.1 3.9
305(9) 0.01139 322.9 3.8
305(10) 0.01063 322.8 3.7
337(10) 0.01056 322.7 3.7
353(10) 0.01051 322.6 3.6
308(9) 0.01201 322.4 3.5
317(10) 0.01091 322.3 3.5
310(10) 0.01001 322.2 3.4
308(9) 0.01115 322.1 3.3
321(9) 0.01161 321.9 3.3
325(9) 0.01149 321.8 3.2
330(10) 0.01058 321.7 3.2
306(10) 0.01064 321.6 3.1
294(9) 0.01129 321.4 3.1
317(9) 0.01171 321.3 3.0
298(9) 0.01238 321.2 3.0
305(9) 0.01118 321.1 2.9
295(9) 0.01168 321.0 2.9
301(9) 0.01155 320.9 2.8
314(9) 0.01182 320.9 2.8
315(9) 0.01170 320.8 2.7
343(10) 0.01004 320.7 2.7
305(9) 0.01122 320.7 2.7
309(9) 0.01137 320.6 2.6
324(9) 0.01152 320.5 2.6
318(9) 0.01155 320.4 2.6
344(10) 0.00978 320.4 2.5
316(10) 0.01066 320.3 2.5
319(10) 0.01094 320.2 2.5
300(9) 0.01262 320.1 2.5
322(10) 0.01075 320.1 2.4
323(10) 0.01088 320.0 2.4
315(9) 0.01141 319.9 2.4
340(10) 0.01067 319.9 2.4
330(9) 0.01129 319.8 2.3
305(10) 0.01098 319.7 2.3
308(9) 0.01109 319.6 2.3
351(10) 0.00975 319.6 2.3
314(9) 0.01139 319.5 2.3
313(9) 0.01195 319.4 2.3
293(9) 0.01180 319.3 2.2
320(10) 0.01040 319.3 2.2
334(10) 0.01043 319.2 2.2
306(9) 0.01210 319.1 2.2
295(9) 0.01243 319.1 2.2
328(10) 0.01038 319.0 2.2
315(10) 0.01041 318.9 2.2
303(9) 0.01168 318.8 2.2
325(9) 0.01126 318.8 2.2
338(10) 0.01079 318.7 2.2
351(10) 0.00998 318.6 2.1
332(10) 0.00985 318.5 2.1
339(10) 0.00997 318.5 2.1
306(9) 0.01215 318.4 2.1
296(9) 0.01241 318.3 2.1
312(9) 0.01116 318.3 2.1
345(10) 0.00907 318.2 2.1
312(9) 0.01131 318.1 2.1
337(9) 0.01110 318.0 2.1
302(9) 0.01223 318.0 2.1
310(9) 0.01154 317.9 2.1
317(10) 0.01068 317.8 2.1
339(10) 0.01013 317.7 2.1
318(9) 0.01178 317.7 2.2
323(9) 0.01125 317.6 2.2
315(10) 0.01059 317.5 2.2
334(10) 0.00968 317.5 2.2
298(9) 0.01169 317.4 2.2
299(9) 0.01236 317.3 2.2
312(9) 0.01160 317.2 2.2
320(10) 0.01090 317.2 2.2
318(10) 0.01093 317.1 2.2
312(9) 0.01136 317.0 2.3
296(9) 0.01243 316.9 2.3
331(9) 0.01117 316.9 2.3
322(10) 0.01089 316.8 2.3
308(10) 0.01106 316.7 2.4
303(9) 0.01163 316.7 2.4
317(9) 0.01179 316.6 2.4
315(9) 0.01123 316.5 2.4
332(10) 0.01058 316.4 2.5
321(10) 0.01091 316.4 2.5
318(9) 0.01144 316.3 2.6
313(9) 0.01177 316.2 2.6
318(10) 0.01095 316.1 2.7
333(10) 0.00981 316.1 2.7
320(10) 0.01050 316.0 2.8
311(9) 0.01148 315.9 2.8
335(9) 0.01117 315.9 2.9
316(10) 0.01093 315.8 3.0
304(9) 0.01128 315.7 3.1
320(10) 0.01066 315.6 3.2
320(9) 0.01140 315.6 3.3
318(9) 0.01175 315.5 3.4
329(10) 0.01045 315.4 3.6
316(10) 0.01081 315.3 3.7
341(10) 0.01017 315.3 3.9
339(10) 0.01087 315.2 4.1
308(9) 0.01210 315.1 4.4
303(9) 0.01164 315.1 4.7
336(10) 0.00972 315.0 5.0
328(10) 0.01040 314.9 5.4
326(9) 0.01134 314.8 5.9
313(9) 0.01149 314.8 6.5
314(10) 0.01100 314.7 7.2
308(9) 0.01121 314.6 8.1
342(10) 0.01028 314.5 9.2
324(9) 0.01149 314.5 10.4
290(9) 0.01297 314.4 11.8
314(10) 0.01093 314.3 13.5
343(10) 0.00958 314.3 15.4
301(9) 0.01189 314.2 17.4
339(10) 0.01083 314.1 19.6
309(9) 0.01157 314.0 21.7
317(10) 0.01099 314.0 23.7
332(10) 0.00992 313.9 25.2
315(10) 0.01053 313.8 26.1
331(9) 0.01115 313.7 26.1
320(9) 0.01161 313.7 25.2
338(10) 0.01017 313.6 23.8
326(10) 0.01046 313.5 21.8
362(10) 0.00944 313.5 19.7
333(9) 0.01115 313.4 17.6
338(10) 0.01047 313.3 15.6
338(10) 0.01009 313.2 13.8
318(10) 0.01059 313.2 12.1
334(10) 0.00994 313.1 10.8
316(9) 0.01179 313.0 9.6
302(9) 0.01187 312.9 8.6
308(10) 0.01101 312.9 7.8
276(9) 0.01281 312.8 7.1
325(9) 0.01108 312.7 6.5
322(9) 0.01157 312.7 6.1
314(10) 0.01106 312.6 5.7
310(10) 0.01043 312.5 5.4
315(10) 0.01072 312.4 5.2
312(9) 0.01164 312.4 5.0
328(9) 0.01133 312.3 4.8
301(9) 0.01138 312.2 4.7
318(10) 0.01054 312.1 4.6
307(9) 0.01142 312.1 4.5
329(9) 0.01110 312.0 4.4
332(9) 0.01111 311.9 4.4
304(9) 0.01155 311.9 4.3
304(10) 0.01108 311.8 4.3
314(10) 0.01097 311.7 4.3
305(9) 0.01206 311.6 4.3
296(9) 0.01238 311.6 4.3
316(10) 0.01076 311.5 4.3
317(10) 0.01016 311.4 4.3
300(9) 0.01209 311.3 4.4
336(10) 0.01092 311.3 4.4
293(9) 0.01279 311.2 4.5
331(10) 0.01044 311.1 4.5
309(9) 0.01108 311.1 4.6
319(10) 0.01095 311.0 4.7
299(9) 0.01219 310.9 4.8
309(9) 0.01190 310.8 4.9
302(9) 0.01151 310.8 5.0
307(10) 0.01086 310.7 5.2
322(9) 0.01115 310.6 5.3
313(9) 0.01199 310.5 5.5
321(9) 0.01142 310.5 5.7
325(10) 0.01068 310.4 5.9
314(10) 0.01004 310.3 6.1
308(9) 0.01110 310.3 6.3
297(9) 0.01260 310.2 6.4
305(9) 0.01195 310.1 6.6
276(9) 0.01298 310.0 6.8
308(10) 0.01061 310.0 6.9
316(10) 0.01072 309.9 6.9
317(9) 0.01163 309.8 6.9
308(9) 0.01169 309.8 6.8
302(9) 0.01156 309.7 6.7
316(10) 0.01096 309.6 6.5
305(9) 0.01167 309.6 6.3
297(9) 0.01249 309.5 6.1
293(9) 0.01218 309.4 5.9
320(10) 0.01084 309.4 5.7
309(10) 0.01106 309.3 5.5
324(10) 0.01077 309.2 5.4
315(9) 0.01190 309.2 5.2
311(9) 0.01130 309.1 5.1
319(10) 0.01027 309.1 4.9
318(10) 0.01060 309.0 4.8
319(9) 0.01133 308.9 4.8
327(9) 0.01137 308.9 4.7
323(10) 0.01018 308.8 4.6
321(10) 0.01023 308.7 4.6
295(9) 0.01159 308.7 4.6
295(9) 0.01212 308.6 4.5
286(9) 0.01301 308.5 4.5
309(10) 0.01096 308.5 4.5
317(10) 0.01016 308.4 4.6
314(9) 0.01135 308.4 4.6
313(9) 0.01166 308.3 4.6
293(9) 0.01272 308.2 4.6
287(9) 0.01231 308.2 4.7
300(10) 0.01068 308.1 4.7
304(9) 0.01115 308.0 4.8
305(9) 0.01232 308.0 4.8
302(9) 0.01240 307.9 4.9
321(10) 0.01081 307.8 5.0
306(10) 0.01012 307.8 5.1
311(10) 0.01082 307.7 5.2
289(9) 0.01281 307.6 5.2
291(9) 0.01263 307.6 5.3
302(10) 0.01095 307.5 5.5
337(10) 0.00956 307.5 5.6
317(9) 0.01115 307.4 5.7
313(9) 0.01170 307.3 5.8
317(9) 0.01172 307.3 5.9
324(10) 0.01078 307.2 6.1
310(10) 0.01098 307.1 6.2
324(10) 0.01097 307.1 6.4
299(9) 0.01238 307.0 6.5
284(9) 0.01289 306.9 6.7
335(10) 0.01012 306.9 6.8
328(10) 0.00992 306.8 7.0
307(10) 0.01108 306.8 7.2
294(9) 0.01258 306.7 7.4
294(9) 0.01214 306.6 7.5
306(9) 0.01152 306.6 7.7
307(10) 0.01103 306.5 7.9
321(10) 0.01101 306.4 8.1
327(9) 0.01133 306.4 8.3
311(9) 0.01136 306.3 8.6
297(9) 0.01145 306.2 8.8
304(10) 0.01099 306.2 9.0
315(9) 0.01110 306.1 9.2
319(9) 0.01173 306.1 9.4
300(9) 0.01183 306.0 9.6
303(9) 0.01129 305.9 9.9
313(10) 0.01090 305.9 10.1
315(9) 0.01146 305.8 10.3
305(9) 0.01207 305.7 10.5
302(10) 0.01090 305.7 10.7
321(10) 0.00970 305.6 10.9
297(9) 0.01142 305.5 11.1
332(10) 0.01053 305.5 11.3
317(9) 0.01185 305.4 11.5
319(9) 0.01115 305.4 11.7
325(10) 0.01000 305.3 11.9
301(9) 0.01146 305.2 12.0
318(9) 0.01121 305.2 12.2
317(9) 0.01162 305.1 12.3
334(10) 0.01058 305.0 12.4
311(10) 0.01041 305.0 12.5
291(9) 0.01217 304.9 12.6
314(9) 0.01165 304.8 12.7
327(9) 0.01137 304.8 12.8
332(10) 0.01022 304.7 12.8
312(10) 0.01036 304.6 12.9
307(9) 0.01147 304.6 12.9
304(9) 0.01210 304.5 12.9
312(9) 0.01187 304.5 12.9
325(9) 0.01109 304.4 12.9
293(9) 0.01184 304.3 12.9
329(10) 0.01049 304.3 12.9
320(9) 0.01152 304.2 12.9
311(9) 0.01185 304.1 12.9
322(10) 0.01086 304.1 12.9
310(10) 0.01081 304.0 13.0
310(9) 0.01120 303.9 13.0
342(10) 0.01079 303.9 13.0
319(9) 0.01146 303.8 13.0
319(10) 0.01076 303.8 13.1
296(9) 0.01132 303.7 13.1
304(9) 0.01159 303.6 13.2
325(9) 0.01140 303.6 13.3
332(10) 0.01070 303.5 13.3
317(9) 0.01120 303.4 13.5
316(10) 0.01067 303.4 13.6
296(9) 0.01143 303.3 13.8
331(9) 0.01125 303.2 13.9
322(9) 0.01127 303.2 14.1
335(10) 0.01017 303.1 14.3
307(9) 0.01125 303.1 14.6
290(9) 0.01222 303.0 14.8
294(9) 0.01261 302.9 15.1
309(9) 0.01177 302.9 15.4
309(10) 0.01090 302.8 15.7
326(10) 0.01025 302.7 16.1
318(10) 0.01102 302.7 16.4
336(10) 0.01098 302.6 16.8
345(10) 0.00994 302.5 17.2
354(10) 0.00938 302.5 17.6
315(9) 0.01151 302.4 18.0
345(10) 0.01050 302.4 18.4
334(9) 0.01111 302.3 18.8
345(10) 0.00986 302.2 19.2
323(10) 0.01031 302.2 19.6
332(10) 0.01042 302.1 20.0
344(10) 0.01057 302.0 20.3
336(9) 0.01109 302.0 20.6
347(10) 0.01023 301.9 20.9
343(10) 0.00944 301.8 21.2
344(10) 0.01000 301.8 21.3
331(9) 0.01126 301.7 21.5
308(9) 0.01225 301.6 21.5
323(10) 0.01047 301.6 21.6
334(10) 0.00963 301.5 21.5
340(10) 0.01041 301.5 21.4
365(10) 0.01029 301.4 21.2
346(10) 0.01057 301.3 20.9
310(9) 0.01154 301.3 20.6
330(10) 0.00994 301.2 20.3
341(10) 0.01025 301.1 19.9
319(9) 0.01163 301.1 19.4
301(9) 0.01239 301.0 19.0
322(10) 0.01078 300.9 18.5
313(10) 0.01020 300.9 17.9
340(10) 0.00952 300.8 17.4
334(9) 0.01114 300.8 16.9
344(10) 0.01056 300.7 16.3
302(9) 0.01162 300.6 15.8
300(10) 0.01096 300.6 15.2
328(10) 0.01031 300.5 14.7
307(9) 0.01222 300.4 14.2
340(10) 0.01062 300.4 13.7
324(10) 0.01087 300.3 13.2
319(10) 0.01061 300.2 12.7
333(10) 0.01020 300.2 12.3
295(9) 0.01242 300.1 11.8
309(9) 0.01169 300.1 11.4
297(9) 0.01168 300.0 11.0
323(10) 0.01036 299.9 10.7
321(10) 0.01093 299.9 10.3
303(9) 0.01230 299.8 10.0
308(10) 0.01105 299.7 9.7
296(9) 0.01171 299.7 9.4
310(9) 0.01149 299.6 9.1
349(10) 0.00995 299.5 8.8
320(9) 0.01158 299.5 8.6
309(9) 0.01110 299.4 8.4
331(10) 0.00981 299.4 8.2
309(9) 0.01110 299.3 8.0
296(9) 0.01236 299.2 7.8
297(9) 0.01247 299.2 7.7
303(9) 0.01190 299.1 7.5
299(9) 0.01125 299.0 7.4
283(9) 0.01213 299.0 7.2
306(9) 0.01188 298.9 7.1
314(9) 0.01163 298.8 7.0
303(9) 0.01130 298.8 6.9
306(10) 0.01077 298.7 6.8
308(9) 0.01145 298.6 6.7
301(9) 0.01232 298.6 6.6
283(9) 0.01319 298.5 6.5
317(9) 0.01112 298.5 6.5
316(10) 0.01037 298.4 6.4
316(10) 0.01094 298.3 6.3
306(9) 0.01192 298.3 6.2
313(9) 0.01190 298.2 6.1
290(9) 0.01210 298.1 6.0
299(10) 0.01083 298.1 5.9
305(9) 0.01129 298.0 5.8
305(9) 0.01198 297.9 5.8
310(9) 0.01192 297.9 5.7
311(9) 0.01118 297.8 5.6
287(9) 0.01132 297.8 5.4
299(9) 0.01132 297.7 5.3
316(9) 0.01189 297.6 5.2
294(9) 0.01249 297.6 5.1
288(9) 0.01200 297.5 5.0
288(9) 0.01153 297.4 4.9
295(9) 0.01179 297.4 4.8
291(9) 0.01283 297.3 4.7
285(9) 0.01249 297.2 4.6
282(9) 0.01226 297.2 4.5
279(9) 0.01205 297.1 4.4
307(9) 0.01116 297.1 4.3
296(9) 0.01233 297.0 4.2
311(9) 0.01147 296.9 4.1
282(9) 0.01272 296.9 4.0
300(9) 0.01141 296.8 3.9
305(9) 0.01134 296.7 3.8
301(9) 0.01243 296.7 3.8
287(9) 0.01229 296.6 3.7
294(9) 0.01191 296.5 3.6
303(9) 0.01109 296.5 3.5
294(9) 0.01185 296.4 3.4
299(9) 0.01239 296.4 3.4
304(9) 0.01179 296.3 3.3
292(9) 0.01137 296.2 3.2
280(9) 0.01196 296.2 3.2
291(9) 0.01205 296.1 3.1
317(9) 0.01185 296.0 3.1
286(9) 0.01192 296.0 3.0
295(9) 0.01140 295.9 3.0
310(9) 0.01140 295.8 2.9
296(9) 0.01232 295.8 2.9
301(9) 0.01238 295.7 2.8
293(9) 0.01231 295.6 2.8
312(10) 0.01068 295.6 2.7
290(9) 0.01229 295.5 2.7
277(9) 0.01343 295.5 2.7
312(9) 0.01199 295.5 2.6
309(9) 0.01110 295.5 2.6
300(10) 0.01073 295.4 2.6
291(9) 0.01205 295.4 2.5
279(9) 0.01311 295.4 2.5
296(9) 0.01262 295.4 2.5
285(9) 0.01204 295.4 2.5
314(10) 0.00998 295.4 2.5
281(9) 0.01280 295.3 2.5
298(9) 0.01263 295.3 2.4
291(9) 0.01278 295.3 2.4
286(9) 0.01231 295.3 2.4
300(9) 0.01113 295.3 2.4
291(9) 0.01235 295.3 2.4
299(9) 0.01218 295.2 2.4
320(9) 0.01154 295.2 2.4
302(9) 0.01221 295.2 2.4
319(10) 0.01067 295.2 2.4
326(10) 0.01038 295.2 2.4
296(9) 0.01266 295.2 2.4
288(9) 0.01281 295.2 2.4
294(9) 0.01193 295.1 2.3
309(10) 0.01096 295.1 2.3
273(9) 0.01317 295.1 2.3
289(9) 0.01277 295.1 2.3
279(9) 0.01350 295.1 2.3
276(9) 0.01268 295.1 2.3
266(9) 0.01279 295.0 2.2
289(9) 0.01202 295.0 2.2
294(9) 0.01277 295.0 2.2
313(10) 0.01100 295.0 2.2
307(10) 0.01075 295.0 2.1
292(9) 0.01185 295.0 2.1
309(9) 0.01139 294.9 2.1
298(9) 0.01243 294.9 2.1
290(9) 0.01183 294.9 2.1
285(9) 0.01237 294.9 2.0
308(10) 0.01078 294.9 2.0
258(9) 0.01363 294.9 2.0
282(9) 0.01312 294.9 2.0
281(9) 0.01266 294.8 2.0
290(9) 0.01156 294.8 2.0
300(9) 0.01150 294.8 1.9
304(9) 0.01219 294.8 1.9
300(9) 0.01244 294.8 1.9
289(9) 0.01241 294.8 1.9
298(9) 0.01145 294.7 1.9
301(9) 0.01136 294.7 1.9
301(9) 0.01154 294.7 1.9
278(9) 0.01348 294.7 1.9
272(9) 0.01262 294.7 1.9
284(9) 0.01188 294.7 1.9
293(9) 0.01168 294.7 1.9
296(9) 0.01235 294.6 1.9
280(9) 0.01324 294.6 1.9
297(9) 0.01186 294.6 1.8
286(9) 0.01125 294.6 1.8
288(9) 0.01236 294.6 1.8
302(9) 0.01197 294.6 1.8
292(9) 0.01272 294.5 1.8
288(9) 0.01200 294.5 1.8
295(10) 0.01045 294.5 1.8
288(9) 0.01170 294.5 1.8
287(9) 0.01295 294.5 1.8
287(9) 0.01266 294.5 1.8
319(10) 0.01098 294.4 1.8
298(9) 0.01147 294.4 1.8
290(9) 0.01241 294.4 1.8
300(9) 0.01249 294.4 1.8
294(9) 0.01223 294.4 1.8
288(9) 0.01213 294.4 1.8
300(9) 0.01130 294.4 1.8
276(9) 0.01269 294.3 1.8
292(9) 0.01283 294.3 1.8
308(9) 0.01152 294.3 1.8
305(9) 0.01114 294.3 1.8
298(9) 0.01109 294.3 1.8
268(9) 0.01325 294.3 1.8
294(9) 0.01270 294.2 1.8
285(9) 0.01239 294.2 1.8
304(9) 0.01116 294.2 1.8
300(9) 0.01149 294.2 1.8
291(9) 0.01258 294.2 1.8
290(9) 0.01271 294.2 1.8
262(9) 0.01368 294.1 1.8
265(9) 0.01273 294.1 1.8
292(9) 0.01148 294.1 1.9
284(9) 0.01261 294.1 1.9
306(9) 0.01208 294.1 1.9
293(9) 0.01175 294.1 1.9
293(9) 0.01136 294.1 1.9
304(9) 0.01157 294.0 1.9
307(9) 0.01177 294.0 1.9
285(9) 0.01294 294.0 1.9
270(9) 0.01291 294.0 1.9
297(10) 0.01096 294.0 1.9
302(9) 0.01149 294.0 1.9
290(9) 0.01270 293.9 1.9
295(9) 0.01249 293.9 1.9
292(9) 0.01201 293.9 1.9
295(10) 0.01095 293.9 1.9
306(9) 0.01137 293.9 1.9
286(9) 0.01258 293.9 1.9
300(9) 0.01251 293.9 1.9
320(10) 0.01045 293.8 1.9
306(10) 0.01057 293.8 2.0
295(9) 0.01181 293.8 2.0
296(9) 0.01261 293.8 2.0
276(9) 0.01353 293.8 2.0
292(9) 0.01237 293.8 2.0
277(9) 0.01213 293.7 2.0
269(9) 0.01295 293.7 2.0
325(9) 0.01159 293.7 2.0
304(9) 0.01197 293.7 2.0
295(9) 0.01181 293.7 2.0
297(10) 0.01088 293.7 2.0
299(9) 0.01199 293.6 2.0
310(9) 0.01190 293.6 2.1
290(9) 0.01258 293.6 2.1
280(9) 0.01221 293.6 2.1
302(10) 0.01068 293.6 2.1
284(9) 0.01217 293.6 2.1
264(8) 0.01405 293.6 2.1
295(9) 0.01236 293.5 2.1
306(9) 0.01112 293.5 2.1
283(9) 0.01199 293.5 2.1
317(10) 0.01086 293.5 2.2
297(9) 0.01257 293.5 2.2
287(9) 0.01220 293.5 2.2
302(9) 0.01164 293.4 2.2
314(10) 0.01082 293.5 2.2
293(9) 0.01229 293.5 2.2
289(9) 0.01295 293.5 2.2
318(9) 0.01111 293.5 2.3
304(9) 0.01150 293.5 2.3
294(9) 0.01219 293.5 2.3
297(9) 0.01174 293.6 2.3
289(9) 0.01292 293.6 2.3
309(9) 0.01129 293.6 2.4
287(9) 0.01212 293.6 2.4
272(9) 0.01297 293.6 2.4
299(9) 0.01181 293.7 2.4
276(9) 0.01354 293.7 2.5
272(9) 0.01305 293.7 2.5
312(10) 0.01080 293.7 2.5
293(9) 0.01158 293.7 2.5
281(9) 0.01292 293.8 2.6
272(9) 0.01349 293.8 2.6
256(8) 0.01386 293.8 2.6
284(9) 0.01176 293.8 2.6
308(10) 0.01105 293.8 2.7
303(9) 0.01202 293.8 2.7
283(9) 0.01276 293.9 2.7
299(9) 0.01160 293.9 2.8
262(9) 0.01282 293.9 2.8
277(9) 0.01255 293.9 2.9
279(9) 0.01324 293.9 2.9
290(9) 0.01277 294.0 2.9
327(10) 0.01045 294.0 3.0
298(10) 0.01063 294.0 3.0
308(10) 0.01082 294.0 3.1
275(9) 0.01372 294.0 3.1
287(9) 0.01278 294.1 3.2
291(9) 0.01210 294.1 3.2
289(9) 0.01156 294.1 3.2
327(10) 0.01045 294.1 3.3
280(9) 0.01329 294.1 3.3
295(9) 0.01230 294.1 3.4
303(9) 0.01147 294.2 3.4
324(10) 0.00985 294.2 3.5
299(9) 0.01118 294.2 3.5
278(9) 0.01341 294.2 3.6
290(9) 0.01253 294.2 3.6
291(9) 0.01175 294.3 3.6
302(9) 0.01134 294.3 3.7
310(10) 0.01095 294.3 3.7
301(9) 0.01242 294.3 3.7
286(9) 0.01255 294.3 3.7
294(9) 0.01148 294.4 3.8
285(9) 0.01160 294.4 3.8
281(9) 0.01224 294.4 3.8
260(8) 0.01430 294.4 3.8
262(9) 0.01353 294.4 3.8
290(9) 0.01151 294.4 3.8
278(9) 0.01237 294.5 3.8
297(9) 0.01206 294.5 3.8
277(9) 0.01345 294.5 3.9
281(9) 0.01204 294.5 3.9
264(9) 0.01235 294.5 3.9
300(10) 0.01106 294.6 3.9
301(9) 0.01202 294.6 3.9
302(9) 0.01235 294.6 3.9
289(9) 0.01211 294.6 3.9
297(9) 0.01151 294.6 3.9
315(10) 0.01087 294.7 3.9
268(9) 0.01368 294.7 4.0
284(9) 0.01312 294.7 4.0
279(9) 0.01261 294.7 4.0
311(10) 0.01044 294.7 4.0
287(9) 0.01230 294.7 4.1
270(9) 0.01370 294.8 4.1
302(9) 0.01234 294.8 4.1
271(9) 0.01282 294.8 4.2
281(9) 0.01143 294.8 4.2
274(9) 0.01262 294.8 4.2
286(9) 0.01271 294.9 4.3
275(9) 0.01364 294.9 4.3
289(9) 0.01178 294.9 4.4
286(9) 0.01114 294.9 4.4
311(10) 0.01081 294.9 4.4
312(9) 0.01165 294.9 4.5
270(9) 0.01364 295.0 4.5
314(10) 0.01101 295.0 4.6
299(10) 0.01077 295.0 4.7
299(9) 0.01162 295.0 4.7
314(9) 0.01179 295.0 4.8
305(9) 0.01204 295.1 4.8
271(9) 0.01286 295.1 4.9
298(10) 0.01100 295.1 5.0
281(9) 0.01269 295.1 5.0
299(9) 0.01238 295.1 5.1
295(9) 0.01208 295.2 5.2
279(9) 0.01249 295.2 5.3
286(9) 0.01193 295.2 5.4
299(9) 0.01206 295.2 5.4
310(9) 0.01194 295.2 5.5
288(9) 0.01289 295.2 5.6
288(9) 0.01204 295.3 5.7
294(9) 0.01111 295.3 5.8
292(9) 0.01153 295.3 5.9
293(9) 0.01288 295.3 6.0
303(9) 0.01196 295.3 6.1
283(9) 0.01274 295.4 6.2
287(9) 0.01207 295.4 6.3
302(9) 0.01186 295.4 6.4
303(9) 0.01236 295.4 6.6
295(9) 0.01202 295.4 6.7
315(10) 0.01056 295.5 6.8
273(9) 0.01313 295.5 6.9
300(9) 0.01193 295.5 7.1
298(9) 0.01244 295.5 7.2
291(9) 0.01206 295.5 7.4
301(10) 0.01085 295.5 7.5
288(9) 0.01227 295.6 7.7
289(9) 0.01250 295.6 7.8
273(9) 0.01368 295.6 8.0
293(9) 0.01195 295.6 8.2
306(10) 0.01094 295.6 8.3
283(9) 0.01182 295.7 8.5
306(9) 0.01170 295.7 8.7
283(9) 0.01321 295.7 8.9
285(9) 0.01239 295.7 9.1
311(10) 0.01055 295.7 9.3
289(9) 0.01189 295.8 9.5
313(9) 0.01174 295.8 9.8
291(9) 0.01289 295.8 10.0
310(9) 0.01133 295.8 10.3
312(10) 0.01014 295.8 10.5
300(9) 0.01139 295.8 10.8
297(9) 0.01254 295.9 11.1
297(9) 0.01259 295.9 11.3
310(10) 0.01093 295.9 11.6
287(9) 0.01134 295.9 11.9
301(9) 0.01119 295.9 12.2
296(9) 0.01247 296.0 12.6
330(9) 0.01127 296.0 12.9
296(9) 0.01160 296.0 13.3
299(10) 0.01073 296.0 13.6
287(9) 0.01209 296.0 14.0
314(9) 0.01164 296.1 14.4
305(9) 0.01214 296.1 14.8
311(10) 0.01091 296.1 15.3
307(10) 0.01062 296.1 15.7
323(10) 0.01063 296.1 16.2
312(9) 0.01195 296.1 16.7
308(9) 0.01157 296.2 17.2
323(10) 0.01031 296.2 17.8
310(10) 0.01094 296.2 18.4
322(10) 0.01083 296.2 19.0
321(9) 0.01166 296.2 19.6
295(9) 0.01242 296.3 20.3
324(10) 0.01019 296.3 21.0
305(10) 0.01058 296.3 21.7
313(9) 0.01127 296.3 22.5
291(9) 0.01264 296.3 23.3
325(10) 0.01090 296.3 24.2
315(10) 0.01059 296.4 25.1
313(10) 0.01097 296.4 26.1
311(9) 0.01144 296.4 27.1
337(10) 0.01099 296.4 28.2
308(9) 0.01116 296.4 29.4
324(10) 0.01032 296.5 30.7
335(10) 0.01052 296.5 32.1
328(10) 0.01105 296.5 33.5
324(9) 0.01137 296.5 35.1
321(10) 0.01105 296.5 36.8
325(10) 0.01020 296.6 38.6
345(10) 0.01029 296.6 40.6
354(10) 0.01043 296.6 42.7
362(10) 0.01026 296.6 45.1
368(10) 0.00938 296.6 47.7
349(10) 0.00954 296.6 50.5
329(10) 0.01093 296.7 53.7
380(10) 0.00968 296.7 57.3
366(10) 0.00997 296.7 61.3
397(11) 0.00876 296.7 65.8
357(10) 0.00952 296.7 71.0
389(11) 0.00883 296.8 76.9
376(10) 0.00983 296.8 83.8
419(11) 0.00873 296.8 91.7
408(11) 0.00859 296.8 100.8
439(12) 0.00723 296.8 111.4
429(11) 0.00818 296.9 123.7
440(11) 0.00842 296.9 137.9
462(11) 0.00790 296.9 154.2
487(12) 0.00699 296.9 172.9
456(12) 0.00736 296.9 194.1
509(12) 0.00680 296.9 217.9
550(12) 0.00674 297.0 244.5
604(13) 0.00605 297.0 273.7
619(13) 0.00570 297.0 305.2
663(14) 0.00496 297.0 338.2
676(14) 0.00517 297.0 371.6
736(14) 0.00505 297.1 404.1
755(14) 0.00487 297.1 433.7
750(15) 0.00468 297.1 458.6
744(15) 0.00455 297.1 477.1
798(15) 0.00434 297.1 488.8
781(14) 0.00476 297.2 493.8
745(14) 0.00491 297.2 493.3
750(15) 0.00455 297.2 488.5
768(15) 0.00437 297.2 480.5
788(15) 0.00449 297.2 470.0
782(14) 0.00478 297.2 456.8
720(14) 0.00496 297.3 440.6
736(15) 0.00461 297.3 421.0
701(14) 0.00492 297.3 398.0
668(14) 0.00534 297.3 372.0
691(14) 0.00537 297.3 343.9
640(13) 0.00551 297.4 314.9
631(14) 0.00532 297.4 286.0
582(13) 0.00606 297.4 258.1
533(12) 0.00685 297.4 232.0
508(12) 0.00741 297.4 207.9
500(12) 0.00696 297.4 186.0
481(12) 0.00715 297.5 166.3
469(12) 0.00744 297.5 148.9
433(11) 0.00845 297.5 133.5
414(11) 0.00901 297.5 119.9
414(11) 0.00830 297.5 108.1
406(11) 0.00802 297.6 97.7
385(10) 0.00911 297.6 88.7
389(10) 0.00955 297.6 80.9
388(10) 0.00956 297.6 74.0
359(10) 0.00977 297.6 68.1
377(11) 0.00858 297.7 62.9
341(10) 0.01039 297.7 58.3
360(10) 0.01043 297.7 54.3
361(10) 0.01023 297.7 50.7
325(10) 0.01066 297.7 47.5
357(11) 0.00849 297.7 44.7
335(10) 0.01044 297.8 42.1
322(9) 0.01141 297.8 39.8
346(10) 0.01070 297.8 37.7
341(10) 0.00985 297.8 35.7
353(11) 0.00861 297.8 34.0
327(10) 0.01044 297.9 32.3
327(9) 0.01126 297.9 30.8
303(9) 0.01229 297.9 29.5
312(10) 0.01083 297.9 28.2
328(10) 0.01001 297.9 27.0
309(10) 0.01108 298.0 25.9
328(9) 0.01134 298.0 24.9
328(10) 0.01094 298.0 23.9
311(9) 0.01134 298.0 23.0
325(10) 0.01025 298.0 22.2
330(10) 0.01032 298.0 21.4
349(10) 0.01070 298.1 20.6
298(9) 0.01202 298.1 20.0
296(9) 0.01147 298.1 19.3
338(10) 0.00965 298.1 18.7
340(10) 0.01020 298.1 18.1
312(9) 0.01190 298.2 17.6
325(9) 0.01123 298.2 17.1
322(10) 0.01082 298.2 16.6
308(10) 0.01080 298.2 16.2
317(9) 0.01128 298.2 15.8
310(9) 0.01197 298.3 15.4
305(9) 0.01135 298.3 15.0
301(9) 0.01145 298.3 14.7
318(10) 0.01062 298.3 14.4
296(9) 0.01197 298.3 14.1
321(9) 0.01148 298.3 13.8
315(10) 0.01096 298.4 13.5
316(10) 0.01077 298.4 13.3
331(10) 0.01006 298.4 13.1
311(9) 0.01153 298.4 12.9
310(9) 0.01183 298.4 12.7
301(9) 0.01113 298.5 12.6
305(10) 0.01078 298.5 12.4
311(9) 0.01117 298.5 12.3
308(9) 0.01202 298.5 12.2
321(9) 0.01148 298.5 12.1
296(9) 0.01164 298.6 12.1
294(9) 0.01126 298.6 12.1
334(10) 0.01037 298.6 12.1
318(9) 0.01134 298.6 12.1
308(9) 0.01214 298.6 12.2
307(9) 0.01150 298.6 12.3
320(10) 0.00991 298.7 12.4
306(9) 0.01148 298.7 12.6
296(9) 0.01253 298.7 12.8
293(9) 0.01255 298.7 13.1
320(10) 0.01061 298.7 13.5
328(10) 0.00969 298.8 14.0
332(10) 0.01070 298.8 14.5
300(9) 0.01237 298.8 15.2
315(9) 0.01138 298.8 16.1
315(10) 0.01088 298.8 17.1
344(10) 0.00971 298.8 18.4
358(10) 0.00990 298.9 20.1
299(9) 0.01246 298.9 22.3
330(10) 0.01099 298.9 25.1
325(10) 0.01073 298.9 28.9
364(11) 0.00903 298.9 33.9
343(10) 0.01023 299.0 40.5
338(10) 0.01089 299.0 49.0
345(10) 0.01039 299.0 59.7
378(10) 0.00919 299.0 72.6
376(10) 0.00915 299.0 87.4
399(11) 0.00844 299.1 102.4
418(11) 0.00892 299.1 114.7
416(11) 0.00853 299.1 120.4
435(11) 0.00772 299.1 117.2
381(11) 0.00887 299.1 106.4
364(10) 0.00975 299.1 91.7
362(10) 0.01035 299.2 76.5
369(10) 0.00950 299.2 62.8
375(11) 0.00869 299.2 51.2
336(10) 0.00997 299.2 41.9
347(10) 0.01027 299.2 34.7
356(10) 0.01045 299.3 29.1
346(10) 0.01012 299.3 24.8
360(10) 0.00920 299.3 21.6
335(10) 0.01039 299.3 19.1
313(9) 0.01147 299.3 17.1
308(9) 0.01226 299.4 15.6
308(10) 0.01099 299.4 14.3
314(10) 0.01057 299.4 13.2
306(9) 0.01124 299.4 12.3
309(9) 0.01182 299.4 11.6
304(9) 0.01222 299.4 10.9
300(9) 0.01182 299.5 10.4
310(10) 0.01101 299.5 9.9
320(10) 0.01107 299.5 9.4
304(9) 0.01191 299.5 9.1
274(9) 0.01350 299.5 8.7
302(9) 0.01164 299.6 8.4
309(10) 0.01067 299.6 8.1
315(9) 0.01137 299.6 7.9
343(10) 0.01082 299.6 7.7
307(9) 0.01204 299.6 7.5
289(9) 0.01225 299.7 7.3
305(10) 0.01046 299.7 7.1
323(10) 0.01080 299.7 7.0
301(9) 0.01193 299.7 6.8
288(9) 0.01295 299.7 6.7
297(9) 0.01177 299.7 6.6
293(9) 0.01170 299.8 6.5
311(9) 0.01150 299.8 6.4
318(9) 0.01172 299.8 6.3
309(9) 0.01163 299.8 6.2
311(10) 0.01099 299.8 6.1
315(10) 0.01031 299.9 6.1
290(9) 0.01183 299.9 6.0
296(9) 0.01248 299.9 5.9
305(9) 0.01192 299.9 5.9
305(9) 0.01157 299.9 5.8
296(9) 0.01161 300.0 5.8
308(9) 0.01127 300.0 5.7
267(8) 0.01395 300.0 5.7
289(9) 0.01254 300.0 5.7
306(9) 0.01164 300.0 5.6
318(10) 0.01044 300.0 5.6
319(10) 0.01080 300.1 5.6
285(9) 0.01298 300.1 5.5
334(10) 0.01040 300.1 5.5
293(9) 0.01194 300.1 5.5
322(10) 0.01087 300.1 5.5
293(9) 0.01209 300.2 5.5
294(9) 0.01272 300.2 5.5
306(9) 0.01133 300.2 5.4
293(9) 0.01143 300.2 5.4
302(9) 0.01161 300.2 5.4
294(9) 0.01206 300.2 5.4
277(9) 0.01355 300.3 5.4
303(9) 0.01117 300.3 5.4
302(10) 0.01084 300.3 5.4
289(9) 0.01233 300.3 5.4
293(9) 0.01271 300.3 5.4
284(9) 0.01300 300.4 5.5
291(9) 0.01214 300.4 5.5
303(10) 0.01066 300.4 5.5
300(9) 0.01124 300.4 5.5
303(9) 0.01216 300.4 5.5
285(9) 0.01311 300.5 5.5
301(9) 0.01159 300.5 5.5
325(10) 0.00966 300.5 5.6
306(9) 0.01131 300.5 5.6
309(9) 0.01186 300.5 5.6
285(9) 0.01307 300.5 5.6
291(9) 0.01177 300.6 5.7
331(10) 0.00975 300.6 5.7
331(10) 0.01042 300.6 5.7
316(9) 0.01169 300.6 5.8
322(9) 0.01133 300.6 5.8
290(9) 0.01223 300.6 5.8
287(9) 0.01169 300.6 5.9
288(9) 0.01206 300.6 5.9
326(9) 0.01130 300.6 6.0
295(9) 0.01237 300.6 6.0
318(10) 0.01108 300.6 6.1
340(10) 0.00968 300.5 6.1
299(9) 0.01145 300.5 6.2
300(9) 0.01222 300.5 6.2
329(9) 0.01108 300.5 6.3
305(9) 0.01158 300.5 6.3
314(10) 0.01060 300.5 6.4
294(9) 0.01162 300.5 6.5
290(9) 0.01271 300.5 6.5
284(9) 0.01273 300.5 6.6
307(9) 0.01122 300.5 6.7
317(10) 0.01040 300.5 6.7
282(9) 0.01184 300.4 6.8
308(9) 0.01203 300.4 6.9
328(10) 0.01064 300.4 6.9
312(10) 0.01088 300.4 7.0
286(9) 0.01156 300.4 7.1
305(9) 0.01190 300.4 7.2
305(9) 0.01220 300.4 7.3
306(9) 0.01116 300.4 7.4
302(9) 0.01148 300.4 7.4
286(9) 0.01213 300.4 7.5
297(9) 0.01218 300.4 7.6
300(9) 0.01233 300.3 7.7
289(9) 0.01200 300.3 7.8
297(9) 0.01127 300.3 7.9
301(9) 0.01159 300.3 8.0
321(10) 0.01106 300.3 8.1
325(9) 0.01134 300.3 8.2
337(10) 0.01060 300.3 8.3
330(10) 0.00994 300.3 8.4
312(9) 0.01154 300.3 8.5
308(9) 0.01206 300.3 8.7
317(9) 0.01165 300.3 8.8
309(9) 0.01118 300.2 8.9
296(9) 0.01152 300.2 9.0
327(10) 0.01053 300.2 9.1
295(9) 0.01270 300.2 9.2
278(9) 0.01325 300.2 9.3
291(9) 0.01237 300.2 9.5
336(10) 0.00974 300.2 9.6
306(9) 0.01194 300.2 9.7
315(9) 0.01184 300.2 9.8
313(9) 0.01181 300.2 10.0
291(9) 0.01138 300.2 10.1
301(10) 0.01040 300.1 10.2
309(9) 0.01140 300.1 10.3
308(9) 0.01217 300.1 10.5
323(9) 0.01118 300.1 10.6
319(10) 0.01046 300.1 10.7
310(10) 0.01041 300.1 10.9
303(9) 0.01141 300.1 11.0
282(9) 0.01333 300.1 11.2
308(9) 0.01187 300.1 11.3
289(9) 0.01201 300.1 11.5
278(9) 0.01261 300.1 11.6
302(9) 0.01118 300.0 11.8
312(9) 0.01193 300.0 11.9
304(9) 0.01226 300.0 12.1
313(10) 0.01097 300.0 12.3
280(9) 0.01188 300.0 12.5
306(9) 0.01162 300.0 12.7
292(9) 0.01273 300.0 12.9
319(10) 0.01071 300.0 13.1
308(10) 0.01106 300.0 13.3
313(10) 0.01081 300.0 13.5
313(10) 0.01105 300.0 13.8
292(9) 0.01276 299.9 14.1
303(9) 0.01137 299.9 14.4
298(10) 0.01093 299.9 14.7
299(9) 0.01148 299.9 15.0
327(10) 0.01087 299.9 15.3
309(9) 0.01212 299.9 15.7
300(9) 0.01195 299.9 16.1
312(10) 0.01055 299.9 16.5
308(9) 0.01138 299.9 17.0
312(9) 0.01158 299.9 17.5
300(9) 0.01231 299.9 18.0
311(10) 0.01079 299.9 18.6
298(9) 0.01108 299.8 19.2
323(10) 0.01022 299.8 19.9
317(9) 0.01149 299.8 20.7
316(9) 0.01180 299.8 21.5
344(10) 0.00998 299.8 22.4
297(9) 0.01166 299.8 23.3
314(10) 0.01081 299.8 24.4
303(9) 0.01164 299.8 25.6
317(9) 0.01185 299.8 26.9
332(10) 0.01050 299.8 28.3
314(10) 0.01039 299.8 29.9
320(10) 0.01091 299.7 31.7
330(9) 0.01110 299.7 33.7
337(10) 0.01086 299.7 36.0
356(10) 0.00990 299.7 38.5
352(11) 0.00895 299.7 41.4
346(10) 0.01008 299.7 44.8
361(10) 0.01031 299.7 48.6
365(10) 0.00996 299.7 53.3
352(10) 0.01029 299.7 58.8
386(11) 0.00864 299.7 65.7
389(11) 0.00885 299.7 74.4
410(11) 0.00907 299.6 85.8
418(11) 0.00869 299.6 101.0
427(11) 0.00811 299.6 121.2
439(11) 0.00759 299.6 148.1
473(12) 0.00727 299.6 182.9
549(12) 0.00670 299.6 226.3
587(13) 0.00626 299.6 277.7
670(14) 0.00514 299.6 332.2
693(14) 0.00497 299.6 379.4
730(15) 0.00472 299.6 403.7
749(14) 0.00491 299.6 394.9
675(14) 0.00522 299.5 357.8
671(14) 0.00494 299.5 307.4
612(13) 0.00561 299.5 256.7
559(13) 0.00631 299.5 212.6
536(12) 0.00687 299.5 177.0
480(12) 0.00736 299.5 149.6
483(12) 0.00719 299.5 129.2
445(11) 0.00789 299.5 114.3
428(11) 0.00835 299.5 103.5
427(11) 0.00868 299.5 95.6
459(12) 0.00745 299.5 89.7
420(11) 0.00818 299.4 85.2
445(11) 0.00771 299.4 81.7
412(11) 0.00867 299.4 78.9
415(11) 0.00882 299.4 76.6
387(11) 0.00859 299.4 74.7
367(10) 0.00938 299.4 73.2
385(10) 0.00913 299.4 72.0
393(10) 0.00935 299.4 71.1
379(10) 0.00992 299.4 70.4
371(10) 0.00918 299.4 69.9
357(10) 0.00932 299.4 69.6
400(11) 0.00852 299.3 69.4
378(10) 0.00975 299.3 69.4
369(10) 0.00997 299.3 69.6
373(10) 0.00953 299.3 69.8
376(11) 0.00848 299.3 70.2
356(10) 0.00954 299.3 70.6
367(10) 0.01004 299.3 71.0
388(10) 0.00959 299.3 71.4
381(11) 0.00879 299.3 71.9
373(11) 0.00849 299.3 72.2
381(10) 0.00939 299.3 72.5
360(10) 0.01038 299.2 72.7
382(10) 0.00970 299.2 72.7
388(11) 0.00892 299.2 72.6
392(11) 0.00829 299.2 72.2
369(10) 0.00945 299.2 71.7
372(10) 0.01001 299.2 71.1
359(10) 0.01024 299.2 70.2
373(10) 0.00965 299.2 69.1
391(11) 0.00858 299.2 67.9
397(11) 0.00879 299.2 66.5
391(10) 0.00950 299.2 65.1
389(10) 0.00920 299.1 63.5
369(10) 0.00910 299.1 61.9
369(10) 0.00907 299.1 60.2
351(10) 0.00981 299.1 58.5
353(10) 0.01050 299.1 56.9
348(10) 0.01041 299.1 55.3
351(10) 0.00983 299.1 53.7
345(10) 0.00980 299.1 52.1
360(10) 0.00955 299.1 50.5
366(10) 0.01015 299.1 48.9
342(10) 0.01063 299.1 47.1
333(10) 0.01033 299.0 45.4
362(11) 0.00902 299.0 43.6
334(10) 0.01097 299.0 42.0
334(10) 0.01105 299.0 40.4
363(10) 0.00983 299.0 38.9
330(10) 0.01034 299.0 37.5
326(10) 0.01067 299.0 36.3
330(9) 0.01110 299.0 35.1
317(9) 0.01163 299.0 34.0
323(10) 0.01076 299.0 33.1
325(10) 0.01036 299.0 32.2
318(9) 0.01117 298.9 31.4
319(9) 0.01144 298.9 30.6
337(9) 0.01113 298.9 30.0
317(9) 0.01134 298.9 29.4
328(10) 0.00995 298.9 28.8
331(10) 0.01012 298.9 28.4
317(9) 0.01123 298.9 28.0
321(9) 0.01158 298.9 27.6
330(10) 0.01099 298.9 27.3
357(10) 0.00912 298.9 27.1
330(10) 0.01062 298.9 26.9
334(10) 0.01106 298.8 26.7
349(10) 0.01053 298.8 26.6
326(10) 0.01086 298.8 26.6
349(10) 0.00941 298.8 26.6
317(10) 0.01096 298.8 26.6
303(9) 0.01223 298.8 26.7
321(9) 0.01121 298.8 26.8
314(9) 0.01139 298.8 26.9
314(10) 0.01020 298.8 27.1
310(9) 0.01110 298.8 27.4
309(9) 0.01205 298.8 27.7
314(9) 0.01158 298.7 28.0
326(10) 0.01084 298.7 28.4
329(10) 0.00960 298.7 28.8
339(10) 0.00979 298.7 29.2
338(9) 0.01110 298.7 29.7
334(10) 0.01066 298.7 30.3
330(10) 0.01021 298.7 30.9
353(10) 0.00939 298.7 31.6
352(10) 0.00979 298.7 32.3
328(9) 0.01129 298.7 33.1
331(10) 0.01064 298.7 34.0
326(10) 0.01061 298.6 35.0
345(10) 0.00989 298.6 36.0
340(10) 0.01046 298.6 37.2
334(9) 0.01117 298.6 38.4
312(9) 0.01188 298.6 39.8
358(10) 0.00922 298.6 41.3
355(10) 0.00968 298.6 43.0
336(10) 0.01071 298.6 44.8
335(9) 0.01116 298.6 46.7
346(10) 0.01016 298.6 48.9
343(10) 0.00977 298.6 51.2
343(10) 0.01004 298.5 53.8
356(10) 0.01023 298.5 56.6
367(10) 0.01019 298.5 59.6
357(10) 0.00953 298.5 62.9
362(11) 0.00903 298.5 66.4
375(10) 0.00940 298.5 70.2
378(10) 0.00984 298.5 74.3
384(10) 0.00962 298.5 78.7
388(10) 0.00928 298.5 83.3
404(11) 0.00825 298.5 88.2
393(11) 0.00884 298.5 93.3
405(11) 0.00905 298.4 98.7
385(10) 0.00975 298.4 104.2
402(11) 0.00850 298.4 109.8
389(11) 0.00855 298.4 115.4
439(11) 0.00795 298.4 121.0
438(11) 0.00834 298.4 126.3
432(11) 0.00858 298.4 131.3
447(11) 0.00787 298.4 135.8
440(12) 0.00723 298.4 139.7
424(11) 0.00822 298.4 142.9
442(11) 0.00830 298.4 145.3
460(11) 0.00805 298.4 146.8
428(11) 0.00837 298.3 147.6
456(12) 0.00726 298.3 147.5
450(11) 0.00802 298.3 146.9
488(11) 0.00765 298.3 145.9
443(11) 0.00817 298.3 144.6
467(12) 0.00731 298.3 143.3
472(12) 0.00698 298.3 142.2
479(12) 0.00727 298.3 141.4
448(11) 0.00829 298.3 141.3
437(11) 0.00835 298.3 141.9
432(11) 0.00814 298.3 143.6
442(11) 0.00760 298.2 146.5
449(11) 0.00788 298.2 150.8
458(11) 0.00813 298.2 156.6
438(11) 0.00834 298.2 164.3
468(12) 0.00747 298.2 173.8
500(12) 0.00686 298.2 185.2
508(12) 0.00673 298.2 198.4
498(12) 0.00750 298.2 212.9
516(12) 0.00697 298.2 228.2
529(12) 0.00654 298.2 242.9
531(12) 0.00653 298.2 255.6
546(12) 0.00655 298.1 264.4
559(12) 0.00663 298.1 268.3
542(12) 0.00663 298.1 267.0
507(12) 0.00665 298.1 261.5
492(12) 0.00700 298.1 253.3
542(12) 0.00648 298.1 244.0
534(12) 0.00689 298.1 235.2
523(12) 0.00661 298.1 227.6
513(12) 0.00661 298.1 221.7
513(12) 0.00680 298.1 217.8
533(12) 0.00681 298.1 215.8
537(12) 0.00694 298.0 215.7
520(12) 0.00659 298.0 217.3
521(13) 0.00637 298.0 220.4
521(12) 0.00651 298.0 224.9
566(12) 0.00644 298.0 230.5
532(12) 0.00701 298.0 237.0
564(13) 0.00603 298.0 244.1
581(13) 0.00565 298.0 251.8
553(12) 0.00648 298.0 259.6
578(13) 0.00639 298.0 267.4
588(13) 0.00632 298.0 275.0
581(13) 0.00606 297.9 282.0
632(14) 0.00514 297.9 288.3
623(13) 0.00554 297.9 293.7
591(13) 0.00629 297.9 297.8
595(13) 0.00610 297.9 300.6
568(13) 0.00615 297.9 301.9
584(14) 0.00532 297.9 301.6
560(13) 0.00613 297.9 299.7
581(12) 0.00642 297.9 296.3
570(13) 0.00634 297.9 291.4
555(13) 0.00620 297.9 285.1
545(13) 0.00594 297.8 277.6
553(13) 0.00635 297.8 269.1
526(12) 0.00700 297.8 259.6
539(12) 0.00679 297.8 249.4
538(13) 0.00640 297.8 238.6
536(13) 0.00614 297.8 227.5
492(12) 0.00704 297.8 216.2
516(12) 0.00721 297.8 205.0
465(11) 0.00779 297.8 194.0
491(12) 0.00708 297.8 183.3
445(11) 0.00774 297.8 172.9
468(12) 0.00726 297.7 163.0
451(11) 0.00828 297.7 153.5
451(11) 0.00779 297.7 144.5
429(11) 0.00796 297.7 135.9
418(11) 0.00823 297.7 127.9
432(11) 0.00814 297.7 120.3
423(11) 0.00881 297.7 113.2
388(10) 0.00937 297.7 106.5
411(11) 0.00833 297.7 100.3
397(11) 0.00856 297.7 94.5
381(10) 0.00955 297.7 89.1
405(10) 0.00910 297.6 84.1
394(11) 0.00887 297.6 79.4
396(11) 0.00840 297.6 75.1
349(10) 0.01005 297.6 71.1
371(10) 0.00983 297.6 67.4
364(10) 0.01019 297.6 64.0
378(11) 0.00905 297.6 60.8
373(10) 0.00920 297.6 57.9
376(10) 0.00925 297.6 55.2
354(10) 0.01052 297.6 52.8
385(10) 0.00964 297.6 50.5
356(10) 0.01006 297.5 48.3
361(10) 0.00965 297.5 46.4
383(10) 0.00909 297.5 44.5
373(10) 0.00960 297.5 42.9
370(10) 0.01013 297.5 41.3
347(10) 0.01029 297.5 39.8
364(11) 0.00884 297.5 38.5
355(10) 0.00994 297.5 37.2
396(10) 0.00922 297.5 36.0
385(10) 0.00964 297.5 34.9
337(10) 0.01034 297.5 33.9
325(10) 0.00984 297.4 32.9
330(10) 0.01035 297.4 32.0
352(10) 0.01028 297.4 31.1
349(10) 0.01070 297.4 30.3
331(10) 0.01059 297.4 29.5
346(10) 0.00944 297.4 28.8
361(10) 0.00986 297.4 28.1
340(10) 0.01104 297.4 27.4
338(10) 0.01060 297.4 26.8
340(10) 0.01004 297.4 26.2
336(10) 0.00997 297.4 25.6
352(10) 0.00994 297.3 25.0
316(9) 0.01171 297.3 24.5
338(10) 0.01036 297.3 23.9
320(10) 0.01087 297.3 23.4
320(10) 0.01086 297.3 22.9
350(10) 0.00977 297.3 22.5
335(9) 0.01117 297.3 22.0
327(10) 0.01086 297.3 21.6
325(10) 0.01081 297.3 21.1
317(10) 0.01104 297.3 20.7
305(9) 0.01146 297.3 20.3
328(9) 0.01141 297.2 20.0
330(10) 0.01086 297.2 19.6
327(10) 0.01050 297.2 19.3
332(10) 0.01017 297.2 18.9
339(10) 0.01061 297.2 18.6
314(9) 0.01183 297.2 18.3
296(9) 0.01218 297.2 18.0
332(10) 0.00996 297.2 17.7
332(10) 0.01013 297.2 17.5
315(9) 0.01145 297.2 17.2
324(9) 0.01138 297.2 17.0
307(10) 0.01106 297.1 16.8
323(10) 0.00999 297.1 16.6
329(10) 0.01025 297.1 16.5
324(9) 0.01122 297.1 16.3
331(9) 0.01111 297.1 16.2
321(10) 0.01099 297.1 16.1
322(10) 0.01009 297.1 16.0
290(9) 0.01228 297.1 15.9
329(9) 0.01111 297.1 15.9
339(10) 0.01094 297.1 15.9
318(9) 0.01125 297.1 15.9
318(10) 0.01039 297.0 15.9
309(9) 0.01139 297.0 16.0
330(9) 0.01138 297.0 16.2
313(9) 0.01182 297.0 16.3
340(10) 0.01042 297.0 16.6
307(10) 0.01089 297.0 16.9
335(10) 0.01025 297.0 17.2
319(9) 0.01160 297.0 17.6
341(10) 0.01089 297.0 18.1
351(10) 0.00974 297.0 18.6
348(10) 0.00960 297.0 19.2
336(10) 0.01024 296.9 19.9
347(10) 0.01078 296.9 20.7
305(9) 0.01170 296.9 21.5
300(9) 0.01156 296.9 22.5
323(10) 0.01020 296.9 23.5
344(10) 0.00996 296.9 24.6
344(10) 0.01081 296.9 25.8
340(10) 0.01074 296.9 27.1
355(10) 0.00953 296.9 28.4
345(10) 0.00998 296.9 29.7
364(10) 0.00935 296.9 31.1
340(10) 0.01090 296.9 32.4
356(10) 0.00991 296.8 33.6
347(10) 0.00976 296.8 34.7
333(10) 0.00982 296.8 35.6
347(10) 0.01015 296.8 36.2
343(10) 0.01087 296.8 36.6
328(10) 0.01096 296.8 36.7
354(10) 0.00991 296.8 36.4
323(10) 0.01099 296.8 35.9
341(10) 0.01036 296.8 35.0
340(10) 0.01087 296.8 33.9
353(10) 0.00989 296.8 32.7
337(10) 0.00997 296.7 31.3
318(10) 0.01073 296.7 29.8
326(10) 0.01084 296.7 28.2
342(10) 0.01082 296.7 26.7
337(10) 0.01046 296.7 25.2
329(10) 0.01031 296.7 23.8
333(10) 0.01019 296.7 22.4
321(10) 0.01103 296.7 21.1
302(9) 0.01236 296.7 19.9
326(10) 0.01051 296.7 18.7
335(10) 0.00994 296.7 17.7
324(10) 0.01059 296.6 16.7
340(10) 0.01081 296.6 15.8
301(9) 0.01234 296.6 15.0
293(9) 0.01154 296.6 14.2
326(10) 0.00984 296.6 13.6
301(9) 0.01184 296.6 13.0
315(9) 0.01183 296.6 12.4
342(10) 0.01081 296.6 11.9
336(10) 0.01023 296.6 11.4
306(10) 0.01074 296.6 11.0
305(9) 0.01117 296.6 10.7
301(9) 0.01234 296.5 10.3
300(9) 0.01256 296.5 10.0
334(10) 0.01006 296.5 9.8
304(10) 0.01070 296.5 9.5
331(10) 0.01072 296.5 9.3
318(9) 0.01161 296.5 9.1
314(9) 0.01127 296.5 8.9
341(10) 0.01004 296.5 8.8
313(10) 0.01070 296.5 8.6
318(10) 0.01070 296.5 8.5
321(9) 0.01155 296.5 8.4
312(9) 0.01175 296.4 8.3
312(9) 0.01130 296.4 8.2
293(9) 0.01149 296.4 8.1
312(10) 0.01096 296.4 8.0
319(9) 0.01162 296.4 8.0
313(9) 0.01156 296.4 7.9
297(9) 0.01139 296.4 7.9
281(9) 0.01221 296.4 7.8
303(9) 0.01178 296.4 7.8
294(9) 0.01266 296.4 7.8
315(10) 0.01095 296.4 7.8
290(9) 0.01217 296.3 7.8
316(10) 0.01072 296.3 7.9
316(10) 0.01107 296.3 7.9
313(9) 0.01199 296.3 8.0
292(9) 0.01183 296.3 8.1
303(9) 0.01113 296.3 8.2
304(9) 0.01151 296.3 8.3
315(9) 0.01130 296.3 8.5
290(9) 0.01269 296.3 8.6
293(9) 0.01145 296.3 8.8
317(10) 0.01056 296.3 9.0
312(10) 0.01094 296.2 9.3
306(9) 0.01168 296.2 9.6
321(9) 0.01174 296.2 9.9
332(10) 0.01020 296.2 10.2
327(10) 0.01010 296.2 10.6
306(9) 0.01150 296.2 11.0
301(9) 0.01203 296.2 11.5
297(9) 0.01248 296.2 11.9
288(9) 0.01181 296.2 12.5
312(10) 0.01033 296.2 13.0
324(10) 0.01028 296.2 13.6
293(9) 0.01261 296.1 14.2
300(9) 0.01232 296.1 14.8
315(10) 0.01099 296.1 15.5
315(10) 0.01077 296.1 16.1
311(10) 0.01107 296.1 16.8
272(9) 0.01368 296.1 17.4
315(9) 0.01159 296.1 17.9
308(9) 0.01152 296.1 18.4
319(10) 0.01010 296.1 18.8
336(10) 0.01032 296.1 19.1
300(9) 0.01240 296.1 19.2
315(9) 0.01178 296.0 19.2
319(10) 0.01056 296.0 19.1
317(10) 0.01046 296.0 18.9
318(9) 0.01116 296.0 18.5
326(9) 0.01143 296.0 18.1
320(9) 0.01147 296.0 17.5
304(9) 0.01181 296.0 16.9
316(10) 0.01065 296.0 16.2
325(10) 0.01055 296.0 15.6
297(9) 0.01259 296.0 14.9
321(9) 0.01127 296.0 14.2
299(9) 0.01152 295.9 13.5
333(10) 0.00971 295.9 12.8
318(10) 0.01053 295.9 12.2
316(9) 0.01178 295.9 11.6
311(9) 0.01138 295.9 11.0
316(10) 0.01076 295.9 10.5
310(9) 0.01112 295.9 10.0
323(9) 0.01123 295.9 9.5
323(9) 0.01153 295.9 9.1
288(9) 0.01216 295.9 8.7
291(9) 0.01168 295.9 8.3
317(10) 0.01081 295.8 8.0
305(9) 0.01187 295.8 7.7
310(9) 0.01191 295.8 7.4
298(9) 0.01127 295.8 7.1
275(9) 0.01204 295.8 6.9
306(10) 0.01070 295.8 6.7
310(9) 0.01146 295.8 6.5
311(9) 0.01183 295.8 6.3
297(9) 0.01214 295.8 6.1
303(10) 0.01100 295.8 6.0
303(9) 0.01178 295.8 5.9
301(9) 0.01226 295.7 5.7
285(9) 0.01280 295.7 5.6
292(9) 0.01209 295.7 5.5
289(9) 0.01113 295.7 5.4
291(9) 0.01184 295.7 5.3
285(9) 0.01272 295.7 5.3
302(9) 0.01210 295.7 5.2
308(9) 0.01136 295.7 5.1
295(10) 0.01065 295.7 5.1
309(10) 0.01092 295.7 5.0
298(9) 0.01258 295.7 5.0
296(9) 0.01253 295.6 4.9
301(9) 0.01158 295.6 4.9
308(10) 0.01041 295.6 4.8
315(9) 0.01111 295.6 4.8
319(9) 0.01142 295.6 4.8
280(9) 0.01338 295.6 4.7
312(10) 0.01104 295.6 4.7
315(10) 0.01070 295.6 4.7
303(9) 0.01197 295.6 4.7
326(9) 0.01138 295.6 4.6
295(9) 0.01214 295.6 4.6
294(9) 0.01188 295.5 4.6
269(9) 0.01269 295.5 4.6
285(9) 0.01172 295.5 4.6
293(9) 0.01268 295.5 4.5
277(9) 0.01296 295.5 4.5
309(9) 0.01124 295.5 4.5
296(9) 0.01117 295.5 4.5
292(9) 0.01165 295.5 4.5
280(9) 0.01333 295.5 4.5
301(9) 0.01180 295.4 4.5
282(9) 0.01261 295.4 4.5
304(9) 0.01159 295.4 4.5
305(9) 0.01150 295.4 4.5
281(9) 0.01326 295.4 4.5
312(9) 0.01173 295.4 4.5
323(10) 0.01055 295.4 4.5
308(9) 0.01126 295.3 4.5
288(9) 0.01263 295.3 4.5
306(9) 0.01215 295.3 4.5
331(10) 0.01022 295.3 4.5
308(10) 0.01082 295.3 4.5
307(9) 0.01113 295.3 4.6
302(9) 0.01184 295.2 4.6
337(10) 0.01107 295.2 4.6
324(10) 0.01042 295.2 4.6
304(10) 0.01088 295.2 4.6
304(10) 0.01099 295.2 4.6
276(9) 0.01353 295.2 4.7
306(9) 0.01206 295.1 4.7
285(9) 0.01218 295.1 4.7
285(9) 0.01187 295.1 4.7
316(9) 0.01121 295.1 4.8
326(9) 0.01125 295.1 4.8
300(9) 0.01233 295.1 4.8
301(9) 0.01186 295.0 4.8
297(9) 0.01137 295.0 4.9
313(10) 0.01101 295.0 4.9
302(9) 0.01231 295.0 4.9
308(9) 0.01214 295.0 5.0
304(9) 0.01137 295.0 5.0
296(10) 0.01036 294.9 5.1
287(9) 0.01172 294.9 5.1
317(9) 0.01157 294.9 5.1
314(9) 0.01175 294.9 5.2
295(9) 0.01153 294.9 5.2
290(10) 0.01095 294.9 5.3
294(9) 0.01130 294.8 5.3
293(9) 0.01266 294.8 5.4
303(9) 0.01210 294.8 5.5
306(9) 0.01141 294.8 5.5
305(10) 0.01094 294.8 5.6
297(9) 0.01190 294.8 5.7
313(9) 0.01174 294.7 5.7
324(9) 0.01110 294.7 5.8
279(9) 0.01272 294.7 5.9
315(10) 0.01009 294.7 6.0
268(9) 0.01312 294.7 6.0
297(9) 0.01245 294.7 6.1
304(9) 0.01183 294.6 6.2
290(9) 0.01160 294.6 6.3
300(9) 0.01119 294.6 6.4
304(10) 0.01103 294.6 6.5
304(9) 0.01210 294.6 6.6
304(9) 0.01219 294.6 6.7
325(10) 0.01073 294.5 6.9
324(10) 0.01039 294.5 7.0
310(9) 0.01155 294.5 7.1
309(9) 0.01195 294.5 7.3
297(9) 0.01210 294.5 7.4
297(9) 0.01197 294.5 7.6
311(9) 0.01140 294.5 7.7
301(9) 0.01170 294.4 7.9
278(9) 0.01337 294.4 8.1
295(9) 0.01206 294.4 8.3
311(10) 0.01054 294.4 8.5
311(9) 0.01121 294.4 8.7
287(9) 0.01278 294.4 8.9
302(9) 0.01233 294.3 9.2
304(9) 0.01121 294.3 9.4
309(10) 0.01057 294.3 9.7
300(9) 0.01124 294.3 10.0
322(9) 0.01125 294.3 10.3
286(9) 0.01317 294.3 10.6
303(9) 0.01136 294.2 11.0
317(10) 0.00997 294.2 11.4
309(10) 0.01090 294.2 11.7
301(9) 0.01217 294.2 12.2
330(9) 0.01131 294.2 12.6
289(9) 0.01224 294.2 13.1
296(9) 0.01135 294.1 13.6
314(10) 0.01089 294.1 14.2
291(9) 0.01272 294.1 14.8
310(9) 0.01192 294.1 15.5
323(10) 0.01101 294.1 16.2
297(9) 0.01126 294.1 17.0
302(9) 0.01185 294.0 17.8
308(9) 0.01212 294.0 18.7
317(9) 0.01138 294.0 19.7
310(9) 0.01136 294.0 20.8
298(9) 0.01149 294.0 22.0
322(10) 0.01059 294.0 23.3
347(10) 0.01078 293.9 24.8
314(9) 0.01157 293.9 26.3
319(9) 0.01114 293.9 28.0
310(10) 0.01104 293.9 29.9
309(9) 0.01151 293.9 31.9
301(9) 0.01250 293.9 34.0
339(10) 0.01053 293.8 36.3
331(10) 0.01051 293.8 38.8
331(10) 0.01046 293.8 41.4
328(10) 0.01077 293.8 44.2
343(10) 0.01100 293.8 47.1
334(10) 0.01074 293.8 50.1
346(10) 0.00994 293.7 53.1
371(10) 0.00917 293.7 56.0
362(10) 0.00986 293.7 58.9
360(10) 0.01025 293.7 61.6
355(10) 0.01016 293.7 63.9
371(10) 0.00938 293.7 65.9
374(10) 0.00924 293.6 67.3
372(10) 0.00920 293.6 68.1
365(10) 0.01032 293.6 68.4
361(10) 0.00947 293.6 68.0
366(10) 0.00933 293.6 67.0
357(10) 0.00971 293.6 65.5
351(10) 0.01040 293.6 63.6
388(10) 0.00958 293.5 61.5
406(11) 0.00845 293.5 59.1
366(11) 0.00896 293.5 56.6
347(10) 0.00969 293.5 54.1
348(10) 0.01048 293.5 51.6
351(10) 0.01064 293.5 49.2
358(10) 0.00980 293.4 46.9
358(10) 0.00935 293.4 44.7
313(9) 0.01176 293.4 42.6
333(10) 0.01102 293.4 40.7
365(10) 0.01009 293.4 38.9
325(10) 0.01063 293.4 37.2
360(11) 0.00827 293.3 35.7
312(9) 0.01110 293.3 34.3
320(9) 0.01155 293.3 33.0
337(10) 0.01091 293.3 31.8
341(10) 0.01008 293.3 30.8
352(10) 0.00917 293.3 29.9
328(10) 0.01098 293.2 29.0
344(10) 0.01067 293.2 28.3
341(10) 0.01075 293.2 27.6
336(10) 0.01023 293.2 27.0
310(10) 0.01098 293.2 26.5
343(10) 0.00973 293.2 26.0
325(9) 0.01134 293.1 25.6
312(9) 0.01191 293.1 25.3
330(10) 0.01056 293.1 25.0
314(10) 0.01077 293.1 24.8
310(10) 0.01103 293.1 24.6
326(9) 0.01132 293.1 24.4
332(10) 0.01104 293.0 24.3
335(10) 0.01038 293.0 24.2
326(10) 0.01014 293.0 24.2
344(10) 0.00965 293.0 24.2
308(9) 0.01206 293.0 24.2
326(10) 0.01103 293.0 24.3
335(10) 0.01020 292.9 24.3
308(10) 0.01107 292.9 24.5
311(9) 0.01139 292.9 24.6
320(9) 0.01160 292.9 24.8
321(9) 0.01129 292.9 25.0
330(10) 0.01046 292.9 25.2
326(10) 0.01051 292.8 25.5
319(10) 0.01071 292.8 25.7
297(9) 0.01253 292.8 26.1
298(9) 0.01175 292.8 26.4
345(10) 0.01003 292.8 26.8
350(10) 0.00990 292.8 27.2
331(10) 0.01081 292.7 27.7
340(10) 0.01078 292.7 28.3
332(10) 0.01047 292.7 28.9
337(10) 0.00991 292.7 29.6
359(11) 0.00902 292.7 30.5
354(10) 0.01007 292.7 31.5
340(10) 0.01097 292.7 32.6
372(10) 0.00912 292.6 34.1
337(10) 0.00995 292.6 35.7
343(10) 0.00988 292.6 37.8
345(10) 0.01075 292.6 40.2
363(10) 0.01011 292.6 43.0
346(10) 0.01011 292.6 46.3
378(11) 0.00869 292.5 50.0
387(10) 0.00920 292.5 54.1
400(10) 0.00925 292.5 58.4
399(10) 0.00928 292.5 62.5
387(11) 0.00885 292.5 66.1
391(11) 0.00820 292.5 68.6
387(11) 0.00884 292.4 69.4
390(10) 0.00959 292.4 68.5
379(10) 0.00979 292.4 66.1
358(10) 0.00961 292.4 62.7
359(10) 0.00919 292.4 58.9
363(10) 0.00964 292.4 55.0
338(10) 0.01097 292.3 51.5
382(10) 0.00935 292.3 48.3
355(10) 0.00974 292.3 45.6
367(10) 0.00914 292.3 43.3
352(10) 0.00993 292.3 41.5
357(10) 0.01042 292.3 40.0
325(9) 0.01125 292.2 38.8
338(10) 0.01014 292.2 37.9
340(10) 0.01005 292.2 37.2
370(11) 0.00899 292.2 36.6
344(10) 0.01080 292.2 36.2
320(9) 0.01140 292.2 35.9
338(10) 0.01031 292.1 35.6
346(10) 0.01004 292.1 35.4
341(10) 0.01036 292.1 35.2
355(10) 0.01034 292.1 35.1
330(10) 0.01085 292.1 35.0
341(10) 0.01001 292.1 34.8
328(10) 0.01058 292.0 34.7
327(10) 0.01073 292.0 34.5
363(10) 0.01030 292.0 34.3
313(10) 0.01084 292.0 34.2
310(10) 0.01093 292.0 33.9
328(10) 0.01014 292.0 33.7
338(10) 0.01048 291.9 33.4
354(10) 0.01032 291.9 33.2
333(10) 0.01032 291.9 32.9
313(10) 0.01082 291.9 32.5
338(10) 0.00993 291.9 32.2
326(9) 0.01118 291.9 31.8
328(9) 0.01119 291.8 31.4
332(10) 0.01041 291.8 31.0
331(10) 0.00991 291.8 30.6
323(10) 0.01041 291.8 30.2
325(10) 0.01100 291.8 29.7
315(9) 0.01181 291.8 29.3
326(10) 0.01075 291.8 28.9
319(10) 0.00982 291.7 28.4
298(9) 0.01162 291.7 28.0
311(9) 0.01181 291.7 27.6
315(9) 0.01186 291.7 27.2
310(10) 0.01097 291.7 26.8
310(10) 0.01010 291.7 26.4
305(9) 0.01169 291.6 26.0
310(9) 0.01185 291.6 25.6
313(9) 0.01158 291.6 25.3
328(10) 0.01064 291.6 25.0
340(10) 0.00971 291.6 24.7
300(9) 0.01184 291.6 24.4
309(9) 0.01195 291.5 24.1
335(10) 0.01084 291.5 23.9
312(9) 0.01124 291.5 23.6
310(10) 0.01061 291.5 23.4
322(10) 0.01044 291.5 23.3
317(9) 0.01168 291.5 23.1
317(9) 0.01148 291.4 23.0
297(9) 0.01170 291.4 22.9
319(10) 0.01042 291.4 22.8
300(9) 0.01179 291.4 22.7
324(9) 0.01163 291.4 22.6
324(10) 0.01102 291.4 22.6
329(10) 0.01045 291.3 22.6
298(9) 0.01145 291.3 22.5
326(10) 0.01010 291.3 22.5
336(10) 0.01098 291.3 22.5
306(9) 0.01156 291.3 22.5
287(9) 0.01219 291.3 22.5
303(9) 0.01121 291.2 22.5
310(9) 0.01137 291.2 22.5
292(9) 0.01275 291.2 22.5
310(9) 0.01118 291.2 22.4
348(10) 0.00961 291.2 22.4
329(10) 0.01063 291.2 22.3
310(9) 0.01182 291.1 22.2
332(9) 0.01126 291.1 22.1
318(9) 0.01108 291.1 22.0
303(9) 0.01137 291.1 21.9
302(9) 0.01159 291.1 21.7
299(9) 0.01202 291.1 21.5
281(9) 0.01305 291.0 21.3
314(10) 0.01067 291.0 21.0
294(9) 0.01203 291.0 20.8
312(9) 0.01118 291.0 20.5
338(10) 0.01077 291.0 20.2
317(9) 0.01180 291.0 20.0
324(10) 0.01035 290.9 19.7
348(10) 0.00929 290.9 19.4
339(10) 0.01019 290.9 19.1
322(9) 0.01159 290.9 18.8
299(9) 0.01246 290.9 18.6
313(10) 0.01103 290.9 18.3
298(9) 0.01115 290.8 18.1
303(9) 0.01178 290.8 17.8
346(10) 0.01084 290.8 17.6
299(9) 0.01252 290.8 17.4
346(10) 0.00991 290.8 17.3
306(10) 0.01084 290.8 17.1
322(10) 0.01100 290.8 17.0
293(9) 0.01283 290.7 16.9
321(9) 0.01145 290.7 16.9
332(10) 0.01079 290.7 16.8
307(9) 0.01136 290.7 16.8
326(10) 0.01036 290.7 16.9
289(9) 0.01292 290.7 16.9
319(9) 0.01143 290.6 17.1
303(9) 0.01160 290.6 17.2
311(10) 0.01061 290.6 17.5
309(10) 0.01079 290.6 17.7
309(9) 0.01204 290.6 18.1
308(9) 0.01124 290.6 18.5
334(10) 0.01017 290.5 19.0
291(9) 0.01190 290.5 19.6
328(10) 0.01030 290.5 20.4
311(9) 0.01189 290.5 21.2
308(9) 0.01164 290.5 22.2
334(10) 0.00980 290.5 23.4
316(10) 0.01071 290.4 24.7
326(10) 0.01043 290.4 26.2
310(9) 0.01201 290.4 28.0
342(10) 0.01018 290.4 29.9
338(10) 0.01031 290.4 32.1
334(10) 0.01019 290.4 34.5
360(10) 0.00993 290.3 37.1
345(10) 0.01071 290.3 39.9
341(10) 0.01033 290.3 42.8
360(10) 0.00938 290.3 45.8
348(10) 0.01015 290.3 48.7
342(10) 0.01058 290.3 51.4
352(10) 0.01055 290.2 53.8
367(10) 0.00919 290.2 55.7
339(10) 0.00995 290.2 57.1
372(10) 0.00924 290.2 58.1
360(10) 0.01009 290.2 58.7
374(10) 0.01008 290.2 59.1
356(10) 0.00951 290.1 59.6
359(10) 0.00923 290.1 60.4
374(10) 0.00926 290.1 61.5
380(10) 0.00970 290.1 63.1
408(10) 0.00926 290.1 65.3
388(11) 0.00886 290.1 68.1
373(11) 0.00842 290.0 71.7
361(10) 0.00969 290.0 76.0
409(10) 0.00907 290.0 81.1
383(10) 0.00975 290.0 86.8
415(11) 0.00848 290.0 93.2
421(12) 0.00748 290.0 100.2
432(11) 0.00797 289.9 107.6
452(11) 0.00823 289.9 115.2
460(11) 0.00801 289.9 122.8
479(12) 0.00751 289.9 129.9
521(13) 0.00633 289.9 136.2
470(12) 0.00742 289.9 141.1
498(12) 0.00740 289.9 144.3
488(11) 0.00758 289.8 145.5
469(12) 0.00736 289.8 144.5
460(12) 0.00743 289.8 141.4
464(12) 0.00755 289.8 136.4
432(11) 0.00860 289.8 129.9
419(11) 0.00889 289.8 122.3
412(11) 0.00834 289.7 114.1
415(11) 0.00800 289.7 105.7
406(11) 0.00849 289.7 97.2
408(10) 0.00912 289.7 89.1
392(10) 0.00907 289.7 81.3
380(11) 0.00884 289.7 74.1
365(10) 0.00918 289.6 67.4
371(10) 0.00953 289.6 61.2
368(10) 0.01009 289.6 55.7
362(10) 0.00962 289.6 50.6
327(10) 0.01065 289.6 46.1
350(10) 0.00992 289.6 42.1
345(10) 0.01054 289.5 38.5
342(10) 0.01094 289.5 35.4
334(10) 0.01035 289.5 32.6
348(10) 0.00970 289.5 30.1
329(10) 0.01066 289.5 27.9
332(10) 0.01084 289.5 26.0
305(9) 0.01214 289.4 24.3
329(10) 0.01081 289.4 22.8
334(10) 0.01004 289.4 21.5
325(10) 0.01075 289.4 20.4
307(9) 0.01177 289.4 19.3
318(9) 0.01164 289.4 18.4
318(10) 0.01082 289.3 17.5
321(10) 0.01017 289.3 16.8
301(9) 0.01179 289.3 16.1
303(9) 0.01198 289.3 15.5
324(9) 0.01153 289.3 15.0
324(10) 0.01066 289.3 14.5
329(10) 0.00985 289.2 14.0
315(9) 0.01136 289.2 13.6
286(9) 0.01304 289.2 13.3
318(9) 0.01134 289.2 12.9
314(9) 0.01157 289.2 12.6
304(10) 0.01098 289.2 12.4
290(9) 0.01214 289.1 12.1
279(9) 0.01335 289.1 11.9
279(9) 0.01309 289.1 11.7
287(9) 0.01225 289.1 11.6
296(10) 0.01104 289.1 11.5
317(10) 0.01094 289.1 11.4
310(9) 0.01198 289.0 11.3
302(9) 0.01205 289.0 11.2
315(10) 0.01087 289.0 11.2
300(9) 0.01119 289.0 11.2
291(9) 0.01199 289.0 11.2
292(9) 0.01264 289.0 11.2
315(9) 0.01185 289.0 11.2
295(9) 0.01183 288.9 11.3
298(9) 0.01126 288.9 11.4
297(9) 0.01197 288.9 11.4
296(9) 0.01267 288.9 11.6
309(9) 0.01116 288.9 11.7
289(9) 0.01246 288.9 11.8
301(9) 0.01136 288.8 12.0
307(9) 0.01154 288.8 12.1
298(9) 0.01246 288.8 12.3
325(10) 0.01097 288.8 12.5
345(10) 0.00992 288.8 12.7
297(9) 0.01210 288.8 12.9
285(9) 0.01203 288.7 13.1
302(9) 0.01243 288.7 13.3
289(9) 0.01233 288.7 13.5
286(9) 0.01236 288.7 13.7
284(9) 0.01216 288.7 13.9
309(9) 0.01151 288.7 14.1
304(9) 0.01235 288.6 14.2
318(10) 0.01080 288.6 14.4
311(10) 0.01093 288.6 14.5
308(10) 0.01044 288.6 14.5
271(9) 0.01327 288.6 14.6
286(9) 0.01295 288.6 14.6
283(9) 0.01219 288.5 14.6
283(9) 0.01197 288.5 14.5
301(9) 0.01109 288.5 14.4
289(9) 0.01281 288.5 14.3
299(9) 0.01248 288.5 14.1
300(9) 0.01160 288.5 14.0
285(9) 0.01160 288.4 13.7
300(9) 0.01162 288.4 13.5
327(9) 0.01118 288.4 13.2
312(9) 0.01198 288.4 13.0
294(9) 0.01213 288.4 12.7
286(9) 0.01186 288.4 12.4
326(10) 0.01059 288.3 12.1
295(9) 0.01243 288.3 11.7
299(9) 0.01247 288.3 11.4
306(9) 0.01160 288.3 11.1
299(9) 0.01116 288.3 10.8
295(9) 0.01198 288.3 10.5
283(9) 0.01316 288.2 10.2
286(9) 0.01290 288.2 9.9
287(9) 0.01220 288.2 9.7
262(9) 0.01250 288.2 9.4
300(9) 0.01121 288.2 9.2
295(9) 0.01259 288.2 8.9
293(9) 0.01272 288.1 8.7
314(10) 0.01106 288.1 8.4
294(9) 0.01133 288.1 8.2
301(9) 0.01116 288.1 8.0
295(9) 0.01254 288.1 7.8
300(9) 0.01213 288.1 7.7
286(9) 0.01181 288.1 7.5
301(9) 0.01124 288.0 7.3
308(9) 0.01117 288.0 7.2
283(9) 0.01314 288.0 7.1
290(9) 0.01214 288.0 6.9
302(9) 0.01132 288.0 6.8
298(9) 0.01158 288.0 6.7
298(9) 0.01187 287.9 6.6
312(9) 0.01183 287.9 6.5
278(9) 0.01263 287.9 6.4
283(9) 0.01205 287.9 6.3
277(9) 0.01233 287.9 6.2
285(9) 0.01244 287.9 6.2
278(9) 0.01340 287.8 6.1
285(9) 0.01234 287.8 6.1
287(9) 0.01166 287.8 6.0
296(9) 0.01182 287.8 6.0
278(9) 0.01319 287.8 5.9
289(9) 0.01264 287.8 5.9
293(9) 0.01173 287.7 5.9
287(9) 0.01176 287.7 5.8
296(9) 0.01210 287.7 5.8
270(9) 0.01331 287.7 5.8
303(9) 0.01227 287.7 5.8
284(9) 0.01239 287.7 5.7
290(9) 0.01129 287.6 5.7
292(9) 0.01188 287.6 5.7
286(9) 0.01290 287.6 5.7
288(9) 0.01293 287.6 5.7
287(9) 0.01203 287.6 5.7
292(10) 0.01108 287.6 5.7
290(9) 0.01186 287.5 5.7
292(9) 0.01290 287.5 5.7
298(9) 0.01224 287.5 5.7
296(9) 0.01177 287.5 5.7
301(10) 0.01054 287.5 5.7
266(9) 0.01334 287.5 5.7
299(9) 0.01236 287.4 5.7
294(9) 0.01265 287.4 5.7
277(9) 0.01284 287.4 5.7
290(9) 0.01172 287.4 5.7
288(9) 0.01226 287.4 5.7
300(9) 0.01235 287.4 5.7
290(9) 0.01290 287.3 5.7
295(9) 0.01195 287.3 5.7
304(10) 0.01093 287.3 5.8
297(9) 0.01192 287.3 5.8
272(9) 0.01357 287.3 5.8
265(9) 0.01354 287.2 5.8
248(8) 0.01408 287.2 5.8
288(9) 0.01115 287.1 5.7
270(9) 0.01267 287.1 5.7
270(9) 0.01373 287.1 5.7
294(9) 0.01236 287.0 5.7
289(9) 0.01172 287.0 5.7
264(9) 0.01209 286.9 5.7
284(9) 0.01232 286.9 5.7
296(9) 0.01266 286.8 5.7
290(9) 0.01229 286.8 5.7
282(9) 0.01219 286.8 5.7
281(9) 0.01220 286.7 5.6
304(9) 0.01155 286.7 5.6
302(9) 0.01232 286.6 5.6
278(9) 0.01264 286.6 5.6
286(9) 0.01187 286.5 5.5
277(9) 0.01260 286.5 5.5
306(9) 0.01161 286.5 5.5
274(9) 0.01365 286.4 5.5
275(9) 0.01311 286.4 5.4
295(9) 0.01136 286.3 5.4
283(9) 0.01184 286.3 5.4
272(9) 0.01300 286.2 5.3
314(9) 0.01177 286.2 5.3
295(9) 0.01208 286.2 5.3
295(9) 0.01149 286.1 5.2
287(9) 0.01213 286.1 5.2
287(9) 0.01294 286.0 5.1
290(9) 0.01267 286.0 5.1
298(9) 0.01140 285.9 5.1
301(10) 0.01053 285.9 5.0
293(9) 0.01193 285.9 5.0
274(9) 0.01344 285.8 4.9
283(9) 0.01293 285.8 4.9
284(9) 0.01222 285.7 4.9
266(9) 0.01258 285.7 4.8
281(9) 0.01243 285.6 4.8
274(9) 0.01353 285.6 4.7
294(9) 0.01269 285.6 4.7
280(9) 0.01259 285.5 4.6
268(9) 0.01203 285.5 4.6
296(10) 0.01070 285.4 4.6
277(9) 0.01340 285.4 4.5
298(9) 0.01242 285.3 4.5
287(9) 0.01233 285.3 4.4
303(10) 0.01053 285.3 4.4
277(9) 0.01258 285.2 4.3
290(9) 0.01296 285.2 4.3
287(9) 0.01268 285.1 4.3
282(9) 0.01238 285.1 4.2
273(9) 0.01238 285.0 4.2
289(9) 0.01173 285.0 4.2
276(9) 0.01350 285.0 4.1
297(9) 0.01202 284.9 4.1
290(9) 0.01197 284.9 4.1
301(10) 0.01085 284.8 4.0
294(9) 0.01179 284.8 4.0
274(9) 0.01368 284.7 3.9
286(9) 0.01226 284.7 3.9
278(9) 0.01253 284.7 3.9
294(9) 0.01209 284.6 3.9
297(9) 0.01185 284.6 3.8
273(9) 0.01366 284.5 3.8
282(9) 0.01257 284.5 3.8
291(9) 0.01168 284.4 3.7
283(9) 0.01225 284.4 3.7
274(9) 0.01297 284.4 3.7
254(8) 0.01479 284.3 3.7
270(9) 0.01267 284.3 3.6
292(9) 0.01129 284.2 3.6
291(9) 0.01185 284.2 3.6
286(9) 0.01296 284.1 3.6
292(9) 0.01281 284.1 3.5
279(9) 0.01254 284.1 3.5
278(9) 0.01203 284.0 3.5
271(9) 0.01243 284.0 3.5
279(9) 0.01311 283.9 3.5
278(9) 0.01347 283.9 3.5
277(9) 0.01314 283.8 3.4
282(9) 0.01203 283.8 3.4
302(9) 0.01190 283.8 3.4
303(9) 0.01212 283.7 3.4
262(8) 0.01438 283.7 3.4
263(9) 0.01306 283.6 3.4
279(9) 0.01170 283.6 3.4
305(10) 0.01077 283.5 3.3
284(9) 0.01270 283.5 3.3
292(9) 0.01274 283.5 3.3
271(9) 0.01298 283.4 3.3
255(9) 0.01256 283.4 3.3
277(9) 0.01219 283.3 3.3
272(8) 0.01385 283.3 3.3
270(9) 0.01357 283.2 3.3
277(9) 0.01205 283.2 3.3
274(9) 0.01181 283.2 3.3
297(9) 0.01140 283.1 3.3
265(8) 0.01403 283.1 3.3
267(8) 0.01414 283.0 3.3
277(9) 0.01269 283.0 3.3
274(9) 0.01239 282.9 3.3
279(9) 0.01220 282.9 3.3
297(9) 0.01243 282.9 3.3
287(9) 0.01286 282.8 3.3
296(9) 0.01185 282.8 3.3
289(9) 0.01169 282.7 3.3
295(9) 0.01197 282.7 3.3
303(9) 0.01226 282.6 3.3
274(9) 0.01329 282.6 3.3
276(9) 0.01274 282.6 3.3
290(9) 0.01177 282.5 3.3
305(9) 0.01141 282.5 3.3
276(9) 0.01346 282.4 3.4
299(9) 0.01210 282.4 3.4
279(9) 0.01185 282.3 3.4
261(9) 0.01287 282.3 3.4
284(9) 0.01233 282.3 3.4
258(8) 0.01444 282.2 3.4
297(9) 0.01187 282.2 3.4
264(9) 0.01315 282.1 3.5
275(9) 0.01280 282.1 3.5
272(9) 0.01272 282.1 3.5
275(9) 0.01355 282.1 3.5
293(9) 0.01162 282.1 3.5
274(9) 0.01254 282.1 3.6
282(9) 0.01239 282.1 3.6
282(9) 0.01342 282.0 3.6
291(9) 0.01266 282.0 3.6
252(8) 0.01385 282.0 3.7
274(9) 0.01169 282.0 3.7
282(9) 0.01248 282.0 3.7
299(9) 0.01220 282.0 3.8
270(9) 0.01381 282.0 3.8
244(8) 0.01451 281.9 3.8
270(9) 0.01168 281.9 3.9
281(9) 0.01280 281.9 3.9
285(9) 0.01271 281.9 4.0
257(8) 0.01469 281.9 4.0
283(9) 0.01243 281.9 4.1
303(10) 0.01078 281.8 4.1
318(10) 0.01090 281.8 4.2
274(9) 0.01338 281.8 4.2
293(9) 0.01217 281.8 4.3
283(9) 0.01219 281.8 4.4
292(9) 0.01148 281.8 4.4
273(9) 0.01204 281.8 4.5
277(9) 0.01359 281.7 4.6
274(9) 0.01302 281.7 4.7
260(9) 0.01374 281.7 4.8
281(9) 0.01219 281.7 4.9
280(9) 0.01238 281.7 5.0
286(9) 0.01305 281.7 5.2
274(9) 0.01326 281.6 5.3
306(9) 0.01148 281.6 5.4
280(9) 0.01244 281.6 5.6
266(9) 0.01290 281.6 5.8
265(8) 0.01410 281.6 6.0
293(9) 0.01194 281.6 6.3
277(9) 0.01231 281.6 6.5
292(9) 0.01126 281.5 6.8
290(9) 0.01243 281.5 7.2
290(9) 0.01275 281.5 7.6
284(9) 0.01262 281.5 8.1
301(9) 0.01125 281.5 8.7
291(9) 0.01189 281.5 9.5
292(9) 0.01212 281.5 10.3
287(9) 0.01303 281.4 11.3
281(9) 0.01208 281.4 12.5
275(9) 0.01234 281.4 13.8
299(9) 0.01156 281.4 15.4
314(9) 0.01153 281.4 17.2
310(9) 0.01207 281.4 19.1
326(10) 0.01055 281.3 21.2
306(10) 0.01070 281.3 23.4
303(10) 0.01101 281.3 25.5
296(9) 0.01227 281.3 27.3
303(9) 0.01218 281.3 28.7
297(9) 0.01181 281.3 29.4
330(10) 0.00998 281.3 29.3
310(9) 0.01143 281.2 28.4
330(9) 0.01123 281.2 26.9
304(9) 0.01215 281.2 25.1
332(10) 0.01044 281.2 23.1
295(10) 0.01107 281.2 21.1
319(10) 0.01074 281.2 19.2
292(9) 0.01253 281.1 17.5
283(9) 0.01319 281.1 15.9
285(9) 0.01213 281.1 14.6
266(9) 0.01242 281.1 13.5
281(9) 0.01263 281.1 12.6
286(9) 0.01298 281.1 11.8
285(9) 0.01289 281.1 11.2
303(10) 0.01104 281.0 10.7
290(9) 0.01126 281.0 10.3
291(9) 0.01191 281.0 10.0
270(9) 0.01373 281.0 9.8
297(9) 0.01256 281.0 9.7
285(9) 0.01188 281.0 9.6
294(10) 0.01101 281.0 9.5
284(9) 0.01225 280.9 9.5
288(9) 0.01286 280.9 9.6
264(9) 0.01350 280.9 9.6
297(9) 0.01135 280.9 9.7
290(9) 0.01161 280.9 9.9
296(9) 0.01130 280.9 10.1
280(9) 0.01322 280.8 10.3
287(9) 0.01251 280.8 10.5
315(10) 0.01071 280.8 10.8
285(9) 0.01203 280.8 11.1
295(9) 0.01157 280.8 11.5
290(9) 0.01270 280.8 11.9
296(9) 0.01211 280.8 12.4
296(9) 0.01147 280.7 12.9
275(9) 0.01235 280.7 13.5
291(9) 0.01211 280.7 14.1
300(9) 0.01249 280.7 14.8
289(9) 0.01217 280.7 15.6
286(9) 0.01186 280.7 16.4
284(9) 0.01238 280.6 17.3
316(9) 0.01126 280.6 18.3
292(9) 0.01269 280.6 19.3
292(9) 0.01204 280.6 20.4
304(9) 0.01128 280.6 21.5
324(10) 0.01043 280.6 22.7
309(9) 0.01164 280.6 23.9
289(9) 0.01284 280.5 25.0
292(9) 0.01173 280.5 26.1
303(10) 0.01094 280.5 27.1
298(9) 0.01140 280.5 28.0
316(9) 0.01156 280.5 28.7
322(9) 0.01146 280.5 29.2
305(9) 0.01162 280.5 29.5
309(10) 0.01031 280.4 29.5
278(9) 0.01275 280.4 29.4
296(9) 0.01225 280.4 29.1
320(9) 0.01155 280.4 28.6
295(9) 0.01177 280.4 28.1
290(9) 0.01109 280.4 27.5
283(9) 0.01258 280.3 27.0
331(9) 0.01115 280.3 26.4
311(9) 0.01208 280.3 25.9
305(9) 0.01155 280.3 25.5
301(10) 0.01030 280.3 25.1
269(9) 0.01242 280.3 24.9
316(9) 0.01177 280.3 24.7
325(9) 0.01112 280.2 24.6
301(9) 0.01135 280.2 24.7
298(10) 0.01060 280.2 24.8
307(9) 0.01140 280.2 25.1
325(9) 0.01130 280.2 25.5
301(9) 0.01233 280.2 26.0
312(10) 0.01103 280.1 26.5
319(10) 0.01041 280.1 27.2
297(9) 0.01185 280.1 28.1
331(9) 0.01126 280.1 29.0
326(9) 0.01110 280.1 30.0
312(9) 0.01112 280.1 31.2
303(10) 0.01067 280.1 32.5
304(9) 0.01159 280.0 33.8
307(9) 0.01211 280.0 35.3
332(10) 0.01069 280.0 37.0
296(9) 0.01170 280.0 38.7
318(10) 0.01059 280.0 40.5
322(10) 0.01103 280.0 42.5
306(9) 0.01218 280.0 44.6
332(10) 0.01069 279.9 46.8
318(10) 0.01065 279.9 49.1
337(10) 0.01008 279.9 51.5
310(9) 0.01175 279.9 53.9
347(10) 0.01058 279.9 56.5
295(9) 0.01159 279.9 59.1
350(10) 0.00958 279.8 61.7
326(9) 0.01144 279.8 64.4
356(10) 0.01029 279.8 67.0
352(10) 0.01045 279.8 69.6
350(10) 0.00986 279.8 72.1
370(11) 0.00884 279.8 74.4
363(10) 0.00961 279.8 76.6
365(10) 0.01020 279.7 78.5
371(10) 0.00993 279.7 80.2
359(10) 0.00948 279.7 81.5
360(10) 0.00949 279.7 82.5
390(11) 0.00866 279.7 83.2
344(10) 0.01082 279.7 83.4
377(10) 0.00962 279.6 83.3
366(10) 0.00966 279.6 82.8
372(11) 0.00901 279.6 82.0
355(10) 0.01002 279.6 80.9
342(10) 0.01089 279.6 79.5
362(10) 0.01021 279.6 77.9
333(10) 0.01050 279.6 76.2
323(10) 0.01006 279.5 74.3
347(10) 0.00988 279.5 72.3
329(9) 0.01131 279.5 70.3
336(10) 0.01072 279.5 68.2
365(10) 0.00953 279.5 66.2
329(10) 0.00994 279.5 64.2
342(10) 0.00992 279.5 62.2
343(10) 0.01085 279.4 60.3
332(10) 0.01088 279.4 58.5
354(10) 0.00964 279.4 56.8
319(10) 0.01054 279.4 55.1
317(9) 0.01126 279.4 53.5
346(10) 0.01060 279.4 51.9
326(9) 0.01137 279.3 50.5
344(10) 0.00974 279.3 49.1
311(10) 0.01087 279.3 47.8
323(10) 0.01082 279.3 46.5
331(9) 0.01129 279.3 45.4
341(10) 0.01059 279.3 44.2
327(10) 0.01049 279.3 43.2
327(10) 0.01034 279.2 42.2
321(9) 0.01129 279.2 41.2
318(9) 0.01173 279.2 40.2
312(9) 0.01110 279.2 39.3
335(10) 0.01018 279.2 38.4
335(10) 0.01052 279.2 37.6
311(9) 0.01145 279.2 36.8
307(9) 0.01222 279.1 36.0
326(10) 0.01083 279.1 35.2
318(10) 0.01061 279.1 34.4
322(10) 0.01045 279.1 33.7
282(9) 0.01305 279.1 32.9
306(9) 0.01223 279.1 32.2
305(9) 0.01163 279.0 31.5
304(9) 0.01131 279.0 30.8
319(10) 0.01086 279.0 30.1
310(9) 0.01178 279.0 29.4
325(9) 0.01157 279.0 28.7
333(10) 0.01057 279.0 28.1
292(9) 0.01186 279.0 27.4
297(9) 0.01184 278.9 26.8
299(9) 0.01241 278.9 26.2
291(9) 0.01260 278.9 25.5
276(9) 0.01272 278.9 24.9
284(9) 0.01132 278.9 24.4
295(9) 0.01159 278.9 23.8
307(9) 0.01211 278.8 23.2
293(9) 0.01251 278.8 22.7
278(9) 0.01263 278.8 22.1
296(10) 0.01083 278.8 21.6
308(9) 0.01187 278.8 21.1
297(9) 0.01248 278.8 20.6
282(9) 0.01294 278.8 20.2
270(9) 0.01286 278.7 19.7
281(9) 0.01191 278.7 19.2
298(9) 0.01188 278.7 18.8
281(9) 0.01327 278.7 18.4
281(9) 0.01287 278.7 18.0
282(9) 0.01260 278.7 17.6
285(9) 0.01186 278.7 17.2
303(9) 0.01146 278.6 16.9
296(9) 0.01250 278.6 16.5
302(9) 0.01229 278.6 16.2
274(9) 0.01265 278.6 15.9
254(9) 0.01331 278.6 15.6
287(9) 0.01184 278.6 15.3
257(8) 0.01433 278.5 15.0
281(9) 0.01271 278.5 14.7
275(9) 0.01293 278.5 14.5
296(9) 0.01177 278.5 14.3
272(9) 0.01294 278.5 14.0
271(9) 0.01354 278.5 13.8
272(9) 0.01321 278.5 13.6
306(9) 0.01126 278.4 13.4
289(9) 0.01224 278.4 13.3
293(9) 0.01209 278.4 13.1
280(9) 0.01311 278.4 13.0
284(9) 0.01229 278.4 12.8
288(9) 0.01136 278.4 12.7
290(9) 0.01171 278.3 12.6
293(9) 0.01223 278.3 12.5
279(9) 0.01322 278.3 12.4
300(9) 0.01128 278.3 12.4
296(9) 0.01112 278.3 12.3
285(9) 0.01219 278.3 12.3
297(9) 0.01212 278.3 12.2
289(9) 0.01287 278.2 12.2
292(9) 0.01187 278.2 12.2
285(9) 0.01127 278.2 12.2
295(9) 0.01161 278.2 12.2
306(9) 0.01192 278.2 12.3
270(9) 0.01378 278.2 12.3
287(9) 0.01178 278.2 12.4
280(9) 0.01163 278.1 12.4
275(9) 0.01235 278.1 12.5
273(9) 0.01343 278.1 12.6
293(9) 0.01256 278.1 12.7
281(9) 0.01242 278.1 12.8
298(10) 0.01104 278.1 12.9
277(9) 0.01308 278.0 13.0
286(9) 0.01258 278.0 13.2
265(8) 0.01411 278.0 13.3
262(9) 0.01323 278.0 13.5
299(10) 0.01060 278.0 13.6
294(9) 0.01215 278.0 13.8
291(9) 0.01271 278.0 13.9
290(9) 0.01234 277.9 14.1
299(9) 0.01124 277.9 14.3
298(9) 0.01129 277.9 14.4
281(9) 0.01176 277.9 14.6
273(9) 0.01373 277.9 14.7
288(9) 0.01223 277.9 14.9
287(9) 0.01165 277.8 15.0
296(9) 0.01146 277.8 15.1
285(9) 0.01189 277.8 15.2
306(9) 0.01217 277.8 15.3
296(9) 0.01208 277.8 15.4
303(9) 0.01134 277.8 15.5
295(9) 0.01147 277.8 15.6
306(9) 0.01175 277.7 15.7
305(9) 0.01221 277.7 15.8
307(9) 0.01136 277.7 15.9
285(9) 0.01260 277.7 16.0
305(10) 0.01102 277.7 16.1
284(9) 0.01278 277.7 16.2
278(9) 0.01328 277.7 16.3
282(9) 0.01255 277.6 16.4
304(10) 0.01062 277.6 16.5
306(10) 0.01102 277.6 16.6
273(9) 0.01341 277.6 16.7
295(9) 0.01258 277.6 16.9
291(9) 0.01201 277.6 17.0
313(10) 0.01076 277.5 17.1
306(9) 0.01126 277.5 17.2
311(9) 0.01146 277.5 17.3
291(9) 0.01284 277.5 17.5
305(9) 0.01137 277.5 17.6
299(10) 0.01091 277.5 17.7
297(9) 0.01194 277.5 17.8
301(9) 0.01245 277.4 17.9
324(9) 0.01133 277.4 18.0
315(10) 0.01078 277.4 18.1
306(10) 0.01022 277.4 18.2
306(9) 0.01163 277.4 18.3
296(9) 0.01241 277.4 18.4
285(9) 0.01303 277.3 18.5
302(9) 0.01181 277.3 18.5
301(10) 0.01088 277.3 18.6
304(9) 0.01150 277.3 18.7
308(9) 0.01195 277.3 18.7
314(9) 0.01182 277.3 18.7
290(9) 0.01173 277.3 18.8
281(9) 0.01148 277.2 18.8
298(9) 0.01143 277.2 18.8
288(9) 0.01301 277.2 18.8
283(9) 0.01322 277.2 18.8
287(9) 0.01197 277.2 18.8
260(9) 0.01261 277.2 18.8
286(9) 0.01217 277.2 18.8
268(9) 0.01372 277.1 18.8
298(9) 0.01218 277.1 18.8
317(10) 0.01098 277.1 18.8
324(10) 0.01047 277.1 18.8
289(9) 0.01176 277.1 18.8
290(9) 0.01273 277.1 18.8
282(9) 0.01295 277.0 18.8
295(9) 0.01143 277.0 18.8
295(9) 0.01158 277.0 18.8
294(9) 0.01174 277.0 18.8
315(9) 0.01187 277.0 18.9
326(10) 0.01070 277.0 18.9
286(9) 0.01228 277.0 19.0
284(9) 0.01242 276.9 19.0
293(9) 0.01221 276.9 19.2
300(9) 0.01238 276.9 19.3
298(9) 0.01144 276.9 19.4
292(9) 0.01179 276.9 19.7
307(10) 0.01102 276.9 19.9
295(9) 0.01190 276.8 20.2
316(9) 0.01175 276.8 20.6
299(9) 0.01133 276.8 21.0
295(9) 0.01136 276.8 21.6
307(9) 0.01156 276.8 22.3
301(9) 0.01185 276.8 23.1
308(9) 0.01203 276.8 24.1
277(9) 0.01276 276.7 25.3
310(10) 0.01036 276.7 26.7
309(9) 0.01113 276.7 28.3
315(9) 0.01171 276.7 30.2
324(9) 0.01145 276.7 32.3
312(9) 0.01120 276.7 34.6
329(10) 0.01013 276.7 37.2
360(10) 0.00965 276.6 39.8
342(10) 0.01057 276.6 42.4
319(9) 0.01185 276.6 44.7
371(10) 0.00916 276.6 46.5
338(10) 0.00967 276.6 47.5
348(10) 0.00982 276.6 47.7
344(10) 0.01079 276.5 46.9
338(10) 0.01106 276.5 45.4
323(10) 0.01092 276.5 43.5
332(10) 0.00992 276.5 41.3
347(10) 0.00995 276.5 39.1
351(10) 0.01051 276.5 37.1
333(9) 0.01113 276.5 35.2
319(10) 0.01070 276.4 33.7
325(10) 0.00999 276.4 32.5
312(9) 0.01112 276.4 31.6
302(9) 0.01221 276.4 31.0
308(9) 0.01173 276.4 30.6
318(9) 0.01111 276.4 30.4
312(10) 0.01079 276.3 30.3
314(10) 0.01060 276.3 30.2
292(9) 0.01284 276.3 30.1
333(10) 0.01088 276.3 29.8
339(10) 0.01004 276.3 29.4
298(9) 0.01164 276.3 28.8
301(9) 0.01132 276.3 28.0
302(9) 0.01231 276.2 27.2
296(9) 0.01239 276.2 26.3
317(10) 0.01092 276.2 25.5
302(9) 0.01120 276.2 24.7
289(9) 0.01243 276.2 23.9
288(9) 0.01310 276.2 23.2
294(9) 0.01192 276.2 22.6
302(9) 0.01139 276.1 22.1
305(9) 0.01119 276.1 21.7
290(9) 0.01239 276.1 21.3
287(9) 0.01308 276.1 21.0
310(9) 0.01111 276.1 20.7
298(9) 0.01119 276.1 20.5
282(9) 0.01230 276.0 20.3
282(9) 0.01268 276.0 20.2
297(9) 0.01253 276.0 20.1
323(10) 0.01051 276.0 20.1
288(9) 0.01166 276.0 20.0
279(9) 0.01231 276.0 20.0
294(9) 0.01248 276.0 20.0
297(9) 0.01255 275.9 20.1
306(10) 0.01095 275.9 20.1
297(9) 0.01160 275.9 20.2
287(9) 0.01189 275.9 20.3
290(9) 0.01288 275.9 20.4
297(9) 0.01241 275.9 20.5
281(9) 0.01278 275.9 20.6
294(10) 0.01088 275.8 20.8
302(9) 0.01117 275.8 20.9
316(9) 0.01185 275.8 21.1
308(9) 0.01215 275.8 21.3
279(9) 0.01302 275.8 21.4
300(10) 0.01039 275.8 21.6
281(9) 0.01227 275.7 21.8
298(9) 0.01244 275.7 22.1
263(8) 0.01414 275.7 22.3
281(9) 0.01270 275.7 22.5
318(10) 0.01052 275.7 22.8
292(9) 0.01189 275.7 23.0
291(9) 0.01291 275.7 23.3
288(9) 0.01265 275.6 23.5
320(10) 0.01066 275.6 23.8
304(10) 0.01107 275.6 24.0
301(9) 0.01170 275.6 24.3
301(9) 0.01240 275.6 24.6
288(9) 0.01284 275.6 24.8
295(9) 0.01173 275.5 25.1
305(10) 0.01093 275.5 25.4
290(9) 0.01188 275.5 25.7
289(9) 0.01283 275.5 25.9
291(9) 0.01224 275.5 26.3
313(10) 0.01073 275.5 26.6
267(9) 0.01344 275.5 26.9
295(9) 0.01217 275.4 27.3
291(9) 0.01282 275.4 27.6
294(9) 0.01145 275.4 28.0
298(9) 0.01155 275.4 28.4
318(10) 0.01023 275.4 28.8
307(9) 0.01145 275.4 29.2
308(9) 0.01218 275.4 29.5
316(9) 0.01108 275.3 29.8
316(10) 0.01068 275.3 30.1
313(10) 0.01088 275.3 30.2
320(9) 0.01144 275.3 30.3
323(9) 0.01139 275.3 30.3
316(9) 0.01121 275.3 30.3
314(10) 0.01089 275.2 30.2
312(10) 0.01099 275.2 30.2
302(9) 0.01191 275.2 30.3
312(9) 0.01190 275.2 30.5
302(9) 0.01171 275.2 30.8
316(10) 0.01029 275.2 31.3
306(10) 0.01106 275.2 32.1
300(9) 0.01232 275.1 33.0
319(9) 0.01173 275.1 34.3
334(10) 0.01068 275.1 35.8
337(10) 0.00984 275.1 37.7
318(10) 0.01091 275.1 40.0
308(9) 0.01173 275.1 42.6
345(10) 0.01071 275.0 45.6
329(10) 0.01077 275.0 48.9
352(11) 0.00906 275.0 52.5
340(10) 0.01036 275.0 56.0
357(10) 0.01039 275.0 59.4
361(10) 0.01026 275.0 62.3
361(10) 0.00924 275.0 64.3
340(10) 0.00981 274.9 65.3
366(10) 0.00961 274.9 65.3
353(10) 0.01051 274.9 64.5
331(9) 0.01116 274.9 63.2
344(10) 0.00999 274.9 61.4
340(10) 0.00987 274.9 59.5
322(10) 0.01063 274.9 57.5
344(10) 0.01092 274.8 55.4
321(9) 0.01135 274.8 53.2
330(10) 0.00999 274.8 51.1
327(10) 0.01027 274.8 49.0
331(10) 0.01047 274.8 46.9
316(9) 0.01165 274.8 44.9
293(9) 0.01227 274.7 42.9
317(10) 0.01063 274.7 41.1
330(10) 0.01036 274.7 39.4
293(9) 0.01179 274.7 37.8
311(9) 0.01197 274.7 36.4
293(9) 0.01242 274.7 35.1
317(10) 0.01017 274.7 34.0
291(9) 0.01145 274.6 33.0
308(9) 0.01139 274.6 32.2
307(9) 0.01208 274.6 31.6
321(10) 0.01090 274.6 31.1
323(10) 0.01053 274.6 30.8
323(10) 0.01062 274.6 30.6
310(9) 0.01148 274.5 30.6
308(9) 0.01192 274.5 30.8
284(9) 0.01155 274.5 31.1
297(9) 0.01130 274.5 31.6
306(9) 0.01180 274.5 32.2
310(9) 0.01183 274.5 33.0
308(9) 0.01210 274.5 33.9
311(9) 0.01122 274.4 35.0
305(9) 0.01137 274.4 36.3
308(9) 0.01158 274.4 37.7
322(9) 0.01171 274.4 39.2
312(9) 0.01169 274.4 40.9
323(10) 0.01066 274.4 42.7
326(10) 0.01004 274.4 44.6
304(9) 0.01162 274.3 46.5
311(9) 0.01210 274.3 48.6
329(9) 0.01145 274.3 50.6
329(9) 0.01111 274.3 52.7
344(10) 0.00938 274.3 54.7
318(10) 0.01093 274.3 56.6
313(9) 0.01173 274.2 58.3
338(10) 0.01093 274.2 59.8
320(10) 0.01104 274.2 61.1
311(10) 0.01042 274.2 62.1
326(10) 0.01040 274.2 62.7
350(10) 0.01055 274.2 62.9
301(9) 0.01241 274.2 62.7
342(10) 0.00981 274.1 62.0
312(10) 0.01091 274.1 60.9
336(10) 0.01020 274.1 59.4
316(9) 0.01190 274.1 57.6
301(9) 0.01216 274.1 55.5
340(10) 0.01006 274.1 53.2
311(10) 0.01079 274.0 50.7
307(9) 0.01134 274.0 48.1
332(9) 0.01112 274.0 45.6
294(9) 0.01198 274.0 43.0
304(10) 0.01100 274.0 40.6
292(9) 0.01155 274.0 38.2
292(9) 0.01156 274.0 35.9
279(9) 0.01340 273.9 33.7
319(10) 0.01068 273.9 31.7
292(9) 0.01155 273.9 29.8
302(10) 0.01094 273.9 28.0
298(9) 0.01185 273.9 26.3
289(9) 0.01271 273.9 24.8
296(9) 0.01185 273.9 23.4
290(9) 0.01212 273.8 22.0
282(9) 0.01252 273.8 20.8
290(9) 0.01255 273.8 19.8
294(9) 0.01265 273.8 18.8
306(10) 0.01100 273.8 17.8
285(9) 0.01198 273.8 17.0
308(10) 0.01074 273.7 16.3
310(9) 0.01158 273.7 15.6
295(9) 0.01267 273.7 15.0
271(9) 0.01299 273.7 14.4
292(9) 0.01171 273.7 13.9
284(9) 0.01234 273.7 13.5
283(9) 0.01272 273.7 13.1
280(9) 0.01320 273.6 12.7
276(9) 0.01267 273.6 12.4
292(9) 0.01129 273.6 12.2
298(9) 0.01192 273.6 11.9
275(9) 0.01339 273.6 11.8
265(9) 0.01373 273.6 11.6
290(9) 0.01114 273.5 11.5
281(9) 0.01183 273.5 11.4
299(9) 0.01145 273.5 11.3
279(9) 0.01320 273.5 11.3
266(8) 0.01403 273.5 11.3
289(9) 0.01229 273.5 11.3
293(9) 0.01136 273.5 11.4
270(9) 0.01291 273.4 11.4
287(9) 0.01268 273.4 11.6
274(9) 0.01350 273.4 11.7
289(9) 0.01230 273.4 11.8
295(9) 0.01109 273.4 12.0
279(9) 0.01238 273.4 12.2
247(8) 0.01505 273.4 12.4
270(9) 0.01325 273.3 12.6
254(9) 0.01328 273.3 12.8
245(8) 0.01418 273.3 13.0
292(9) 0.01162 273.3 13.1
280(9) 0.01334 273.3 13.3
274(9) 0.01327 273.3 13.4
260(9) 0.01341 273.2 13.5
281(9) 0.01219 273.2 13.5
253(8) 0.01386 273.2 13.4
291(9) 0.01278 273.2 13.4
271(9) 0.01318 273.2 13.2
255(9) 0.01363 273.2 13.0
289(9) 0.01162 273.2 12.8
266(9) 0.01351 273.1 12.5
276(9) 0.01325 273.1 12.2
265(9) 0.01315 273.1 11.9
254(9) 0.01350 273.1 11.6
256(9) 0.01382 273.1 11.3
272(9) 0.01323 273.1 10.9
298(9) 0.01243 273.0 10.6
275(9) 0.01191 273.0 10.3
261(9) 0.01358 273.0 10.0
275(9) 0.01276 273.0 9.7
260(8) 0.01403 273.0 9.5
252(8) 0.01482 273.0 9.2
264(9) 0.01332 273.0 9.0
252(9) 0.01355 272.9 8.8
283(9) 0.01161 272.9 8.6
282(9) 0.01285 272.9 8.5
301(9) 0.01233 272.9 8.3
302(10) 0.01102 272.9 8.2
268(9) 0.01234 272.9 8.0
273(9) 0.01284 272.9 7.9
283(9) 0.01316 272.8 7.9
274(9) 0.01324 272.8 7.8
286(9) 0.01209 272.8 7.7
259(9) 0.01322 272.8 7.7
271(9) 0.01288 272.8 7.6
286(9) 0.01272 272.8 7.6
275(9) 0.01348 272.7 7.6
262(9) 0.01331 272.7 7.6
266(9) 0.01202 272.7 7.6
272(9) 0.01321 272.7 7.6
285(9) 0.01317 272.7 7.7
295(9) 0.01251 272.7 7.7
272(9) 0.01326 272.7 7.7
263(9) 0.01282 272.6 7.8
281(9) 0.01219 272.6 7.9
273(9) 0.01346 272.6 8.0
275(9) 0.01355 272.6 8.0
276(9) 0.01308 272.6 8.1
272(9) 0.01231 272.6 8.3
281(9) 0.01196 272.6 8.4
266(8) 0.01391 272.5 8.5
261(9) 0.01383 272.5 8.7
267(9) 0.01342 272.5 8.8
289(9) 0.01214 272.5 9.0
290(9) 0.01226 272.5 9.2
286(9) 0.01290 272.5 9.4
284(9) 0.01284 272.5 9.6
309(10) 0.01056 272.4 9.9
275(9) 0.01250 272.4 10.1
270(9) 0.01301 272.4 10.4
283(9) 0.01316 272.4 10.7
278(9) 0.01307 272.4 11.0
274(9) 0.01228 272.4 11.4
286(9) 0.01204 272.4 11.7
268(9) 0.01332 272.3 12.1
282(9) 0.01325 272.3 12.6
285(9) 0.01249 272.3 13.0
278(9) 0.01277 272.3 13.5
285(9) 0.01218 272.3 14.1
283(9) 0.01286 272.3 14.6
269(9) 0.01379 272.3 15.3
256(9) 0.01379 272.2 15.9
261(9) 0.01334 272.2 16.6
316(10) 0.01080 272.2 17.3
310(9) 0.01161 272.2 18.1
276(9) 0.01351 272.2 18.9
289(9) 0.01196 272.2 19.8
289(9) 0.01159 272.1 20.7
276(9) 0.01264 272.1 21.7
280(9) 0.01305 272.1 22.7
286(9) 0.01296 272.1 23.8
275(9) 0.01300 272.1 24.9
290(9) 0.01117 272.1 26.1
282(9) 0.01242 272.1 27.3
287(9) 0.01295 272.0 28.6
293(9) 0.01283 272.0 29.9
307(9) 0.01115 272.0 31.2
292(10) 0.01088 272.0 32.6
291(9) 0.01170 272.0 34.0
322(9) 0.01155 272.0 35.4
310(9) 0.01175 272.0 36.8
332(10) 0.01067 271.9 38.3
333(10) 0.00976 271.9 39.7
308(9) 0.01124 271.9 41.0
308(9) 0.01202 271.9 42.4
322(9) 0.01153 271.9 43.6
302(9) 0.01175 271.9 44.8
318(10) 0.01065 271.9 45.9
322(10) 0.01074 271.8 46.9
307(9) 0.01201 271.8 47.7
313(9) 0.01165 271.8 48.3
311(9) 0.01161 271.8 48.8
341(10) 0.00983 271.8 49.1
323(10) 0.01063 271.8 49.2
315(9) 0.01176 271.8 49.1
298(9) 0.01204 271.7 48.8
300(9) 0.01167 271.7 48.3
307(10) 0.01092 271.7 47.7
300(9) 0.01188 271.7 46.9
294(9) 0.01263 271.7 45.9
327(10) 0.01093 271.7 44.9
309(9) 0.01135 271.6 43.7
304(9) 0.01139 271.6 42.4
287(9) 0.01212 271.6 41.1
295(9) 0.01257 271.6 39.8
306(9) 0.01148 271.6 38.4
294(9) 0.01205 271.6 37.0
289(9) 0.01160 271.6 35.6
278(9) 0.01308 271.5 34.2
291(9) 0.01280 271.5 32.8
281(9) 0.01218 271.5 31.5
308(10) 0.01080 271.5 30.1
292(9) 0.01188 271.5 28.9
291(9) 0.01273 271.5 27.6
287(9) 0.01277 271.5 26.5
283(9) 0.01230 271.4 25.3
296(9) 0.01162 271.4 24.2
292(9) 0.01216 271.4 23.2
272(9) 0.01342 271.4 22.2
276(9) 0.01340 271.4 21.3
270(9) 0.01209 271.4 20.4
291(10) 0.01087 271.4 19.6
303(9) 0.01134 271.3 18.8
298(9) 0.01225 271.3 18.1
282(9) 0.01324 271.3 17.4
289(9) 0.01196 271.3 16.7
280(9) 0.01150 271.3 16.1
302(9) 0.01155 271.3 15.6
267(8) 0.01390 271.3 15.1
280(9) 0.01305 271.2 14.6
270(9) 0.01351 271.2 14.1
314(10) 0.01011 271.2 13.7
281(9) 0.01243 271.2 13.4
301(9) 0.01237 271.2 13.0
273(9) 0.01334 271.2 12.7
261(9) 0.01356 271.1 12.4
272(9) 0.01230 271.1 12.2
271(9) 0.01241 271.1 12.0
257(8) 0.01442 271.1 11.8
289(9) 0.01265 271.1 11.6
300(9) 0.01161 271.1 11.5
296(9) 0.01117 271.1 11.3
269(9) 0.01285 271.0 11.2
295(9) 0.01253 271.0 11.2
278(9) 0.01327 271.0 11.1
280(9) 0.01272 271.0 11.1
266(9) 0.01320 271.0 11.1
288(9) 0.01164 271.0 11.1
280(9) 0.01325 271.0 11.1
295(9) 0.01201 270.9 11.2
295(9) 0.01197 270.9 11.3
277(9) 0.01300 270.9 11.4
286(9) 0.01233 270.9 11.5
267(9) 0.01371 270.9 11.7
281(9) 0.01275 270.9 11.9
304(9) 0.01151 270.9 12.2
293(9) 0.01218 270.8 12.4
278(9) 0.01289 270.8 12.7
284(9) 0.01311 270.8 13.1
286(9) 0.01220 270.8 13.5
264(9) 0.01271 270.8 13.9
281(9) 0.01243 270.8 14.4
291(9) 0.01248 270.8 15.0
286(9) 0.01317 270.7 15.6
265(9) 0.01311 270.7 16.2
272(9) 0.01199 270.7 17.0
295(9) 0.01160 270.7 17.7
301(9) 0.01189 270.7 18.6
275(9) 0.01347 270.7 19.5
265(9) 0.01306 270.7 20.5
283(9) 0.01123 270.6 21.5
298(9) 0.01169 270.6 22.7
295(9) 0.01249 270.6 23.9
305(9) 0.01228 270.6 25.1
297(9) 0.01155 270.6 26.4
288(9) 0.01126 270.6 27.8
330(10) 0.00988 270.5 29.2
315(9) 0.01140 270.5 30.6
322(9) 0.01144 270.5 32.1
330(10) 0.01040 270.5 33.5
307(10) 0.01048 270.5 34.9
296(9) 0.01212 270.5 36.2
336(9) 0.01109 270.5 37.4
326(9) 0.01125 270.4 38.5
297(9) 0.01190 270.4 39.4
326(10) 0.00963 270.4 40.1
315(9) 0.01116 270.4 40.6
329(9) 0.01128 270.4 40.8
294(9) 0.01241 270.4 40.8
294(9) 0.01181 270.4 40.5
298(9) 0.01118 270.3 39.9
303(10) 0.01101 270.3 39.2
317(9) 0.01181 270.3 38.2
309(9) 0.01188 270.3 37.1
326(10) 0.01044 270.3 35.9
293(9) 0.01146 270.3 34.6
317(10) 0.01070 270.3 33.3
318(9) 0.01159 270.2 31.9
301(9) 0.01200 270.2 30.5
306(9) 0.01159 270.2 29.2
312(9) 0.01131 270.2 27.9
316(10) 0.01062 270.2 26.6
300(9) 0.01235 270.2 25.4
302(9) 0.01191 270.2 24.3
282(9) 0.01218 270.1 23.2
307(9) 0.01148 270.1 22.2
295(9) 0.01176 270.1 21.3
264(8) 0.01397 270.1 20.4
261(9) 0.01297 270.1 19.7
277(9) 0.01206 270.1 19.0
287(9) 0.01223 270.0 18.3
296(9) 0.01195 270.0 17.8
310(9) 0.01205 270.0 17.3
296(9) 0.01164 270.0 16.9
277(9) 0.01237 270.0 16.5
291(9) 0.01197 270.0 16.2
283(9) 0.01317 270.0 15.9
274(9) 0.01366 269.9 15.7
289(9) 0.01200 269.9 15.6
278(9) 0.01186 269.9 15.5
271(9) 0.01300 269.9 15.4
295(9) 0.01218 269.9 15.4
277(9) 0.01347 269.9 15.4
297(9) 0.01166 269.9 15.5
296(10) 0.01078 269.8 15.6
287(9) 0.01199 269.8 15.7
280(9) 0.01325 269.8 15.9
273(9) 0.01317 269.8 16.1
272(9) 0.01252 269.8 16.3
276(9) 0.01175 269.8 16.5
287(9) 0.01200 269.8 16.8
285(9) 0.01319 269.7 17.1
298(9) 0.01210 269.7 17.4
290(9) 0.01215 269.7 17.7
295(9) 0.01117 269.7 18.0
284(9) 0.01224 269.7 18.4
316(9) 0.01171 269.7 18.7
295(9) 0.01237 269.7 19.1
306(9) 0.01126 269.6 19.4
309(9) 0.01114 269.6 19.8
304(9) 0.01163 269.6 20.1
314(9) 0.01176 269.6 20.5
304(9) 0.01201 269.6 20.8
308(9) 0.01121 269.6 21.1
305(10) 0.01103 269.5 21.4
332(10) 0.01029 269.5 21.7
314(9) 0.01175 269.5 21.9
299(9) 0.01166 269.5 22.1
285(9) 0.01154 269.5 22.3
299(9) 0.01123 269.5 22.4
313(10) 0.01058 269.5 22.4
313(9) 0.01202 269.4 22.5
305(9) 0.01147 269.4 22.5
294(9) 0.01152 269.4 22.4
274(9) 0.01269 269.4 22.3
284(9) 0.01257 269.4 22.1
325(9) 0.01133 269.4 21.9
293(9) 0.01220 269.4 21.7
294(9) 0.01151 269.3 21.4
290(9) 0.01202 269.3 21.1
321(10) 0.01091 269.3 20.8
316(9) 0.01182 269.3 20.5
311(10) 0.01100 269.3 20.1
292(9) 0.01138 269.3 19.7
299(9) 0.01141 269.3 19.3
295(9) 0.01235 269.2 18.9
287(9) 0.01303 269.2 18.4
291(9) 0.01148 269.2 18.0
296(9) 0.01142 269.2 17.6
305(9) 0.01119 269.2 17.2
281(9) 0.01283 269.2 16.7
279(9) 0.01346 269.2 16.3
275(9) 0.01297 269.1 15.9
295(10) 0.01103 269.1 15.5
271(9) 0.01271 269.1 15.1
273(9) 0.01348 269.1 14.8
284(9) 0.01315 269.1 14.4
282(9) 0.01251 269.1 14.1
282(9) 0.01114 269.1 13.8
288(9) 0.01162 269.0 13.4
276(9) 0.01349 269.0 13.2
248(8) 0.01515 269.0 12.9
293(9) 0.01172 269.0 12.6
278(9) 0.01200 269.0 12.4
268(9) 0.01337 269.0 12.2
297(9) 0.01236 268.9 11.9
275(9) 0.01350 268.9 11.8
276(9) 0.01320 268.9 11.6
292(9) 0.01143 268.9 11.4
277(9) 0.01254 268.9 11.3
265(8) 0.01391 268.9 11.2
287(9) 0.01260 268.9 11.1
283(9) 0.01222 268.8 11.0
275(9) 0.01219 268.8 10.9
272(9) 0.01232 268.8 10.9
247(8) 0.01465 268.8 10.8
292(9) 0.01211 268.8 10.8
289(9) 0.01194 268.8 10.8
291(9) 0.01146 268.8 10.9
265(9) 0.01322 268.7 10.9
261(8) 0.01428 268.7 10.9
261(9) 0.01320 268.7 11.0
268(9) 0.01249 268.8 11.1
278(9) 0.01184 268.8 11.2
278(9) 0.01228 268.8 11.3
282(9) 0.01310 268.8 11.4
255(9) 0.01315 268.8 11.6
291(9) 0.01147 268.8 11.8
291(9) 0.01195 268.8 11.9
294(9) 0.01227 268.9 12.1
274(9) 0.01348 268.9 12.3
294(9) 0.01132 268.9 12.6
260(9) 0.01308 268.9 12.8
291(9) 0.01184 268.9 13.1
305(9) 0.01195 268.9 13.3
279(9) 0.01308 269.0 13.6
288(9) 0.01164 269.0 13.9
290(9) 0.01123 269.0 14.3
280(9) 0.01250 269.0 14.6
275(9) 0.01335 269.0 14.9
299(9) 0.01218 269.0 15.3
282(9) 0.01199 269.0 15.7
292(10) 0.01106 269.1 16.0
284(9) 0.01201 269.1 16.4
299(9) 0.01221 269.1 16.8
283(9) 0.01268 269.1 17.2
286(9) 0.01247 269.1 17.6
268(9) 0.01193 269.1 18.1
294(9) 0.01170 269.1 18.5
281(9) 0.01309 269.2 18.9
295(9) 0.01245 269.2 19.3
291(9) 0.01215 269.2 19.7
300(9) 0.01118 269.2 20.2
337(10) 0.01054 269.2 20.6
327(9) 0.01137 269.2 21.0
289(9) 0.01293 269.2 21.3
294(9) 0.01168 269.3 21.7
306(10) 0.01064 269.3 22.0
311(10) 0.01087 269.3 22.3
276(9) 0.01338 269.3 22.6
292(9) 0.01235 269.3 22.9
301(9) 0.01181 269.3 23.1
292(9) 0.01139 269.3 23.3
295(9) 0.01181 269.4 23.4
311(9) 0.01196 269.4 23.5
312(9) 0.01150 269.4 23.6
309(9) 0.01114 269.4 23.6
274(9) 0.01252 269.4 23.6
301(9) 0.01144 269.4 23.5
306(9) 0.01220 269.4 23.4
288(9) 0.01217 269.5 23.3
257(9) 0.01343 269.5 23.1
286(9) 0.01165 269.5 22.8
282(9) 0.01230 269.5 22.6
289(9) 0.01273 269.5 22.3
294(9) 0.01193 269.5 22.0
290(9) 0.01175 269.6 21.6
282(9) 0.01243 269.6 21.2
285(9) 0.01269 269.6 20.9
273(9) 0.01369 269.6 20.4
277(9) 0.01250 269.6 20.0
301(9) 0.01115 269.6 19.6
295(9) 0.01186 269.6 19.2
280(9) 0.01301 269.7 18.7
295(9) 0.01265 269.7 18.3
274(9) 0.01263 269.7 17.9
267(9) 0.01254 269.7 17.4
280(9) 0.01213 269.7 17.0
267(9) 0.01354 269.7 16.6
279(9) 0.01338 269.7 16.1
281(9) 0.01267 269.8 15.7
293(10) 0.01083 269.8 15.3
274(9) 0.01266 269.8 14.9
268(8) 0.01408 269.8 14.6
294(9) 0.01262 269.8 14.2
276(9) 0.01268 269.8 13.8
287(10) 0.01097 269.8 13.5
264(9) 0.01324 269.9 13.2
285(9) 0.01318 269.9 12.8
280(9) 0.01283 269.9 12.5
293(9) 0.01209 269.9 12.2
294(9) 0.01113 269.9 12.0
269(9) 0.01325 269.9 11.7
307(9) 0.01236 269.9 11.4
284(9) 0.01310 270.0 11.2
266(9) 0.01338 270.0 10.9
286(9) 0.01172 270.0 10.7
299(9) 0.01181 270.0 10.5
281(9) 0.01336 270.0 10.3
281(9) 0.01313 270.0 10.1
291(9) 0.01153 270.1 10.0
258(9) 0.01325 270.1 9.8
282(9) 0.01210 270.1 9.6
285(9) 0.01317 270.1 9.5
260(8) 0.01424 270.1 9.4
269(9) 0.01256 270.1 9.2
272(9) 0.01217 270.1 9.1
277(9) 0.01271 270.2 9.0
258(8) 0.01445 270.2 8.9
275(9) 0.01311 270.2 8.9
280(9) 0.01253 270.2 8.8
278(9) 0.01251 270.2 8.7
305(9) 0.01117 270.2 8.6
301(9) 0.01240 270.2 8.6
277(9) 0.01256 270.3 8.6
267(9) 0.01286 270.3 8.5
259(9) 0.01304 270.3 8.5
276(9) 0.01289 270.3 8.5
252(8) 0.01478 270.3 8.4
286(9) 0.01201 270.3 8.4
296(9) 0.01126 270.3 8.4
282(9) 0.01201 270.4 8.4
280(9) 0.01276 270.4 8.5
278(9) 0.01356 270.4 8.5
260(9) 0.01305 270.4 8.5
260(9) 0.01233 270.4 8.5
280(9) 0.01222 270.4 8.6
266(9) 0.01370 270.4 8.6
274(9) 0.01361 270.5 8.7
285(9) 0.01212 270.5 8.7
265(9) 0.01227 270.5 8.8
263(9) 0.01357 270.5 8.8
267(8) 0.01396 270.5 8.9
265(8) 0.01387 270.5 9.0
267(9) 0.01287 270.5 9.1
267(9) 0.01230 270.6 9.2
287(9) 0.01155 270.6 9.3
303(9) 0.01178 270.6 9.4
282(9) 0.01328 270.6 9.5
281(9) 0.01174 270.6 9.6
263(9) 0.01216 270.6 9.8
268(9) 0.01312 270.7 9.9
261(8) 0.01429 270.7 10.0
277(9) 0.01287 270.7 10.2
281(9) 0.01264 270.7 10.3
262(9) 0.01271 270.7 10.5
302(9) 0.01113 270.7 10.7
264(8) 0.01427 270.7 10.8
287(9) 0.01268 270.8 11.0
277(9) 0.01250 270.8 11.2
261(9) 0.01285 270.8 11.4
278(9) 0.01240 270.8 11.6
273(9) 0.01354 270.8 11.8
286(9) 0.01279 270.8 11.9
283(9) 0.01176 270.8 12.1
260(9) 0.01295 270.9 12.3
276(9) 0.01233 270.9 12.5
277(9) 0.01347 270.9 12.7
290(9) 0.01271 270.9 12.9
293(9) 0.01163 270.9 13.1
277(9) 0.01202 270.9 13.2
274(9) 0.01288 270.9 13.4
266(8) 0.01391 271.0 13.6
279(9) 0.01253 271.0 13.7
269(9) 0.01264 271.0 13.9
268(9) 0.01273 271.0 14.0
281(9) 0.01250 271.0 14.2
281(9) 0.01322 271.0 14.3
280(9) 0.01251 271.0 14.4
289(9) 0.01177 271.1 14.6
305(9) 0.01127 271.1 14.7
283(9) 0.01282 271.1 14.8
281(9) 0.01307 271.1 14.9
283(9) 0.01203 271.1 15.1
292(9) 0.01163 271.1 15.2
290(9) 0.01183 271.1 15.4
286(9) 0.01275 271.2 15.5
295(9) 0.01241 271.2 15.7
281(9) 0.01180 271.2 15.9
299(10) 0.01075 271.2 16.1
290(9) 0.01190 271.2 16.3
262(8) 0.01424 271.2 16.5
278(9) 0.01334 271.3 16.8
280(9) 0.01238 271.3 17.0
276(9) 0.01196 271.3 17.3
288(9) 0.01197 271.3 17.6
286(9) 0.01303 271.3 18.0
252(8) 0.01486 271.3 18.3
292(9) 0.01172 271.3 18.8
304(10) 0.01068 271.4 19.2
277(9) 0.01306 271.4 19.7
280(9) 0.01336 271.4 20.3
284(9) 0.01306 271.4 21.0
309(9) 0.01151 271.4 21.8
300(10) 0.01075 271.4 22.7
301(9) 0.01131 271.4 23.9
304(9) 0.01217 271.5 25.3
317(9) 0.01143 271.5 27.1
256(8) 0.01460 271.5 29.2
311(10) 0.01050 271.5 31.9
298(9) 0.01151 271.5 35.2
312(9) 0.01202 271.5 39.1
331(10) 0.01088 271.5 43.5
297(9) 0.01192 271.6 48.3
316(10) 0.01070 271.6 52.9
338(10) 0.01040 271.6 56.6
332(9) 0.01125 271.6 58.4
333(10) 0.01061 271.6 57.8
316(9) 0.01114 271.6 55.0
316(10) 0.01072 271.6 50.8
313(9) 0.01152 271.7 46.2
297(9) 0.01251 271.7 41.8
296(9) 0.01244 271.7 37.9
288(9) 0.01222 271.7 34.6
297(9) 0.01155 271.7 31.9
279(9) 0.01286 271.7 29.7
311(9) 0.01201 271.7 28.0
299(9) 0.01150 271.8 26.5
304(10) 0.01079 271.8 25.4
303(10) 0.01107 271.8 24.5
287(9) 0.01184 271.8 23.7
277(9) 0.01333 271.8 23.1
289(9) 0.01196 271.8 22.5
294(9) 0.01150 271.9 22.0
302(9) 0.01157 271.9 21.5
310(9) 0.01130 271.9 21.0
277(9) 0.01345 271.9 20.6
274(9) 0.01266 271.9 20.2
275(9) 0.01226 271.9 19.8
299(9) 0.01199 271.9 19.4
317(9) 0.01170 272.0 19.0
280(9) 0.01315 272.0 18.6
288(9) 0.01229 272.0 18.2
300(10) 0.01040 272.0 17.9
277(9) 0.01255 272.0 17.5
283(9) 0.01308 272.0 17.2
264(8) 0.01410 272.0 16.8
318(10) 0.01063 272.1 16.5
300(10) 0.01060 272.1 16.1
295(9) 0.01184 272.1 15.8
295(9) 0.01261 272.1 15.5
280(9) 0.01344 272.1 15.1
289(9) 0.01235 272.1 14.8
287(9) 0.01116 272.1 14.5
295(9) 0.01162 272.2 14.2
267(8) 0.01387 272.2 13.9
296(9) 0.01247 272.2 13.6
282(9) 0.01221 272.2 13.3
293(9) 0.01110 272.2 13.0
281(9) 0.01261 272.2 12.8
294(9) 0.01263 272.2 12.5
295(9) 0.01250 272.3 12.2
270(9) 0.01310 272.3 12.0
310(10) 0.01043 272.3 11.7
274(9) 0.01231 272.3 11.5
273(9) 0.01366 272.3 11.3
271(9) 0.01336 272.3 11.0
293(9) 0.01174 272.3 10.8
310(10) 0.01081 272.4 10.6
290(9) 0.01205 272.4 10.4
290(9) 0.01292 272.4 10.2
281(9) 0.01242 272.4 10.0
273(9) 0.01257 272.4 9.8
263(9) 0.01301 272.4 9.7
283(9) 0.01289 272.5 9.5
275(9) 0.01351 272.5 9.3
294(9) 0.01230 272.5 9.2
286(9) 0.01245 272.5 9.0
285(9) 0.01196 272.5 8.9
269(9) 0.01367 272.5 8.8
273(9) 0.01356 272.5 8.6
295(9) 0.01198 272.6 8.5
291(9) 0.01192 272.6 8.4
282(9) 0.01224 272.6 8.3
249(8) 0.01469 272.6 8.2
285(9) 0.01304 272.6 8.1
284(9) 0.01182 272.6 8.0
281(9) 0.01190 272.6 7.9
292(9) 0.01167 272.7 7.8
277(9) 0.01313 272.7 7.7
290(9) 0.01296 272.7 7.7
276(9) 0.01226 272.7 7.6
279(9) 0.01187 272.7 7.5
271(9) 0.01297 272.7 7.5
267(8) 0.01395 272.7 7.4
261(8) 0.01399 272.8 7.4
273(9) 0.01244 272.8 7.4
289(10) 0.01102 272.8 7.3
274(9) 0.01291 272.8 7.3
263(9) 0.01369 272.8 7.3
281(9) 0.01341 272.8 7.3
263(9) 0.01343 272.9 7.3
270(9) 0.01159 272.9 7.3
269(9) 0.01311 272.9 7.3
273(9) 0.01370 272.9 7.3
268(9) 0.01355 272.9 7.3
277(9) 0.01256 273.0 7.3
271(9) 0.01221 273.0 7.4
280(9) 0.01267 273.0 7.4
265(8) 0.01403 273.0 7.4
259(8) 0.01420 273.0 7.5
283(9) 0.01207 273.0 7.6
278(9) 0.01213 273.1 7.6
285(9) 0.01210 273.1 7.7
280(9) 0.01318 273.1 7.8
275(9) 0.01337 273.1 7.9
268(9) 0.01323 273.1 8.1
282(9) 0.01165 273.2 8.2
267(9) 0.01299 273.2 8.4
278(9) 0.01328 273.2 8.6
273(9) 0.01345 273.2 8.8
296(9) 0.01159 273.2 9.0
282(9) 0.01247 273.3 9.3
301(9) 0.01161 273.3 9.6
277(9) 0.01339 273.3 10.0
280(9) 0.01249 273.3 10.5
286(9) 0.01215 273.3 11.0
300(9) 0.01124 273.4 11.6
269(9) 0.01347 273.4 12.4
296(9) 0.01269 273.4 13.4
272(9) 0.01256 273.4 14.6
287(9) 0.01173 273.4 16.1
276(9) 0.01282 273.5 18.0
328(10) 0.01059 273.5 20.4
303(9) 0.01226 273.5 23.3
306(9) 0.01172 273.5 26.9
306(9) 0.01109 273.5 31.2
315(10) 0.01105 273.6 36.2
340(10) 0.01074 273.6 41.8
337(10) 0.01105 273.6 47.7
329(10) 0.01063 273.6 53.3
340(10) 0.00963 273.6 57.8
357(10) 0.00970 273.7 60.1
336(9) 0.01112 273.7 59.6
320(9) 0.01173 273.7 56.4
328(10) 0.01037 273.7 51.5
321(10) 0.01010 273.7 45.6
294(9) 0.01187 273.8 39.7
300(9) 0.01234 273.8 34.3
283(9) 0.01298 273.8 29.5
281(9) 0.01235 273.8 25.4
267(9) 0.01265 273.8 22.0
298(9) 0.01188 273.9 19.3
298(9) 0.01241 273.9 17.1
292(9) 0.01268 273.9 15.3
283(9) 0.01218 273.9 13.9
284(9) 0.01180 273.9 12.7
288(9) 0.01224 274.0 11.8
301(9) 0.01232 274.0 11.0
280(9) 0.01308 274.0 10.4
285(9) 0.01218 274.0 9.9
277(9) 0.01239 274.0 9.5
289(9) 0.01234 274.0 9.1
276(9) 0.01350 274.1 8.7
295(9) 0.01238 274.1 8.5
296(9) 0.01132 274.1 8.2
257(9) 0.01295 274.1 8.0
274(9) 0.01278 274.1 7.8
291(9) 0.01267 274.2 7.6
289(9) 0.01246 274.2 7.4
268(9) 0.01262 274.2 7.3
266(9) 0.01301 274.2 7.2
278(9) 0.01232 274.2 7.1
261(8) 0.01429 274.3 7.0
263(8) 0.01388 274.3 6.9
263(9) 0.01347 274.3 6.8
271(9) 0.01253 274.3 6.7
305(9) 0.01161 274.3 6.6
274(9) 0.01363 274.4 6.6
269(9) 0.01293 274.4 6.5
300(9) 0.01129 274.4 6.5
294(9) 0.01161 274.4 6.4
287(9) 0.01242 274.4 6.4
269(8) 0.01386 274.5 6.3
284(9) 0.01215 274.5 6.3
280(9) 0.01218 274.5 6.3
291(9) 0.01181 274.5 6.2
266(9) 0.01380 274.5 6.2
271(8) 0.01387 274.6 6.2
287(9) 0.01186 274.6 6.2
277(9) 0.01178 274.6 6.2
290(9) 0.01176 274.6 6.1
277(9) 0.01343 274.6 6.1
314(9) 0.01172 274.7 6.1
279(9) 0.01295 274.7 6.2
279(9) 0.01169 274.7 6.2
260(9) 0.01333 274.7 6.2
295(9) 0.01245 274.7 6.2
278(9) 0.01333 274.8 6.3
286(9) 0.01218 274.8 6.4
290(9) 0.01129 274.8 6.5
299(9) 0.01179 274.8 6.6
288(9) 0.01302 274.8 6.8
278(9) 0.01295 274.9 7.0
304(9) 0.01153 274.9 7.2
302(9) 0.01113 274.9 7.6
307(10) 0.01107 274.9 8.0
293(9) 0.01280 274.9 8.5
255(8) 0.01446 274.9 9.0
268(9) 0.01269 275.0 9.6
270(9) 0.01211 275.0 10.3
286(9) 0.01190 275.0 10.9
271(9) 0.01359 275.0 11.3
312(9) 0.01167 275.0 11.5
306(9) 0.01127 275.1 11.4
312(10) 0.01093 275.1 11.0
297(9) 0.01197 275.1 10.4
279(9) 0.01333 275.1 9.8
268(9) 0.01366 275.1 9.1
297(9) 0.01165 275.2 8.5
302(9) 0.01119 275.2 7.9
297(9) 0.01176 275.2 7.4
294(9) 0.01276 275.2 7.0
270(9) 0.01328 275.2 6.7
282(9) 0.01214 275.3 6.4
276(9) 0.01220 275.3 6.1
278(9) 0.01239 275.3 5.9
285(9) 0.01310 275.3 5.8
275(9) 0.01293 275.3 5.7
296(9) 0.01131 275.4 5.6
281(9) 0.01195 275.4 5.5
257(8) 0.01401 275.4 5.4
252(8) 0.01461 275.4 5.3
268(9) 0.01297 275.4 5.3
277(9) 0.01229 275.5 5.2
268(9) 0.01305 275.5 5.2
251(8) 0.01447 275.5 5.2
274(9) 0.01365 275.5 5.1
292(9) 0.01186 275.5 5.1
286(9) 0.01151 275.6 5.1
286(9) 0.01194 275.6 5.1
303(9) 0.01165 275.6 5.1
267(9) 0.01381 275.6 5.1
275(9) 0.01236 275.6 5.1
265(9) 0.01260 275.7 5.1
274(9) 0.01265 275.7 5.1
276(9) 0.01307 275.7 5.1
275(9) 0.01342 275.7 5.1
280(9) 0.01244 275.7 5.1
286(9) 0.01139 275.8 5.1
292(9) 0.01161 275.8 5.1
275(9) 0.01359 275.8 5.1
262(8) 0.01419 275.8 5.1
272(9) 0.01253 275.8 5.2
270(9) 0.01179 275.9 5.2
294(9) 0.01110 275.9 5.2
285(9) 0.01300 275.9 5.3
269(9) 0.01350 275.9 5.3
272(9) 0.01248 275.9 5.3
282(9) 0.01212 276.0 5.4
272(9) 0.01305 276.0 5.4
259(8) 0.01421 276.0 5.4
277(9) 0.01330 276.0 5.5
301(9) 0.01175 276.1 5.5
278(9) 0.01202 276.1 5.6
262(9) 0.01383 276.1 5.7
282(9) 0.01317 276.1 5.7
282(9) 0.01278 276.1 5.8
259(9) 0.01347 276.2 5.8
281(9) 0.01170 276.2 5.9
285(9) 0.01207 276.2 6.0
287(9) 0.01288 276.2 6.1
276(9) 0.01291 276.3 6.1
282(9) 0.01218 276.3 6.2
279(9) 0.01273 276.3 6.3
259(8) 0.01387 276.3 6.4
277(9) 0.01346 276.4 6.5
284(9) 0.01243 276.4 6.6
300(9) 0.01119 276.4 6.7
287(9) 0.01217 276.4 6.8
283(9) 0.01262 276.5 7.0
283(9) 0.01308 276.5 7.1
266(9) 0.01344 276.5 7.2
281(9) 0.01204 276.5 7.4
278(9) 0.01237 276.5 7.5
280(9) 0.01289 276.6 7.7
272(9) 0.01360 276.6 7.8
292(9) 0.01153 276.6 8.0
266(9) 0.01219 276.6 8.2
279(9) 0.01231 276.7 8.4
285(9) 0.01294 276.7 8.6
256(8) 0.01458 276.7 8.8
268(9) 0.01269 276.7 9.1
263(9) 0.01261 276.8 9.3
297(9) 0.01147 276.8 9.6
301(9) 0.01202 276.8 9.9
287(9) 0.01288 276.8 10.2
302(9) 0.01179 276.8 10.6
302(10) 0.01054 276.9 10.9
297(9) 0.01158 276.9 11.4
286(9) 0.01315 276.9 11.8
289(9) 0.01278 276.9 12.3
274(9) 0.01313 277.0 12.9
302(10) 0.01015 277.0 13.5
267(9) 0.01331 277.0 14.2
286(9) 0.01302 277.0 15.0
278(9) 0.01307 277.1 15.8
277(9) 0.01166 277.1 16.8
306(10) 0.01085 277.1 17.8
279(9) 0.01335 277.1 18.9
284(9) 0.01299 277.2 20.1
292(9) 0.01171 277.2 21.3
308(10) 0.01079 277.2 22.7
319(10) 0.01084 277.2 24.0
317(9) 0.01173 277.2 25.4
312(9) 0.01153 277.3 26.8
313(10) 0.01095 277.3 28.0
293(9) 0.01138 277.3 29.2
333(10) 0.01007 277.3 30.1
304(9) 0.01227 277.4 30.8
303(9) 0.01173 277.4 31.1
299(9) 0.01132 277.4 31.2
316(10) 0.01075 277.4 31.0
279(9) 0.01297 277.5 30.6
287(9) 0.01295 277.5 29.9
289(9) 0.01204 277.5 29.1
296(9) 0.01140 277.5 28.1
284(9) 0.01262 277.6 27.0
301(9) 0.01182 277.6 25.9
303(9) 0.01238 277.6 24.8
295(9) 0.01137 277.6 23.7
289(9) 0.01199 277.6 22.6
305(9) 0.01144 277.7 21.6
295(9) 0.01182 277.7 20.7
300(9) 0.01239 277.7 19.8
296(9) 0.01192 277.7 19.0
305(10) 0.01103 277.8 18.3
292(9) 0.01187 277.8 17.7
275(9) 0.01365 277.8 17.1
306(9) 0.01217 277.8 16.6
277(9) 0.01227 277.9 16.1
286(10) 0.01108 277.9 15.7
296(9) 0.01129 277.9 15.3
291(9) 0.01260 277.9 15.0
284(9) 0.01326 278.0 14.6
268(9) 0.01308 278.0 14.4
280(9) 0.01140 278.0 14.1
246(8) 0.01477 278.0 13.9
311(9) 0.01190 278.0 13.6
271(9) 0.01369 278.1 13.4
264(9) 0.01326 278.1 13.3
301(10) 0.01034 278.1 13.1
269(9) 0.01323 278.1 12.9
276(9) 0.01342 278.2 12.8
292(9) 0.01224 278.2 12.6
297(9) 0.01184 278.2 12.5
303(10) 0.01082 278.2 12.3
314(10) 0.01098 278.3 12.2
274(9) 0.01335 278.3 12.1
292(9) 0.01265 278.3 11.9
298(9) 0.01141 278.3 11.8
297(9) 0.01116 278.3 11.7
282(9) 0.01235 278.4 11.6
279(9) 0.01330 278.4 11.5
282(9) 0.01281 278.4 11.4
274(9) 0.01304 278.4 11.3
284(9) 0.01157 278.5 11.2
295(9) 0.01114 278.5 11.1
282(9) 0.01330 278.5 11.0
275(9) 0.01312 278.5 10.9
288(9) 0.01223 278.6 10.9
279(9) 0.01217 278.6 10.8
284(9) 0.01185 278.6 10.7
258(8) 0.01438 278.6 10.7
290(9) 0.01247 278.7 10.6
274(9) 0.01264 278.7 10.5
273(9) 0.01300 278.7 10.5
297(9) 0.01169 278.7 10.4
297(9) 0.01256 278.7 10.4
266(9) 0.01349 278.8 10.3
280(9) 0.01281 278.8 10.3
282(9) 0.01240 278.8 10.2
298(9) 0.01197 278.8 10.2
269(8) 0.01397 278.9 10.1
271(9) 0.01288 278.9 10.1
295(10) 0.01106 278.9 10.0
290(9) 0.01178 278.9 10.0
296(9) 0.01220 279.0 10.0
275(9) 0.01360 279.0 9.9
278(9) 0.01237 279.0 9.9
305(10) 0.01023 279.0 9.9
285(9) 0.01159 279.1 9.9
280(9) 0.01313 279.1 9.8
280(9) 0.01296 279.1 9.8
264(9) 0.01327 279.1 9.8
272(9) 0.01148 279.1 9.7
280(9) 0.01294 279.2 9.7
316(9) 0.01131 279.2 9.7
300(9) 0.01254 279.2 9.6
279(9) 0.01202 279.2 9.6
276(9) 0.01204 279.3 9.6
286(9) 0.01189 279.3 9.6
263(8) 0.01420 279.3 9.5
299(9) 0.01249 279.3 9.5
299(9) 0.01147 279.4 9.4
285(9) 0.01149 279.4 9.4
305(9) 0.01126 279.4 9.4
288(9) 0.01299 279.4 9.3
289(9) 0.01229 279.5 9.3
279(9) 0.01231 279.5 9.3
267(9) 0.01224 279.5 9.2
284(9) 0.01168 279.5 9.2
270(9) 0.01359 279.5 9.1
279(9) 0.01304 279.6 9.1
273(9) 0.01239 279.6 9.0
295(10) 0.01091 279.6 9.0
266(9) 0.01340 279.6 9.0
288(9) 0.01294 279.7 8.9
280(9) 0.01291 279.7 8.9
295(9) 0.01121 279.7 8.9
292(10) 0.01104 279.7 8.8
267(9) 0.01304 279.8 8.8
280(9) 0.01324 279.8 8.8
278(9) 0.01277 279.8 8.7
291(9) 0.01167 279.8 8.7
298(9) 0.01131 279.8 8.7
293(9) 0.01205 279.9 8.7
307(9) 0.01215 279.9 8.7
301(9) 0.01169 279.9 8.7
288(9) 0.01186 279.9 8.7
281(9) 0.01193 280.0 8.7
255(8) 0.01413 280.0 8.7
260(8) 0.01432 280.0 8.8
303(9) 0.01108 280.0 8.8
291(9) 0.01194 280.1 8.8
299(9) 0.01156 280.1 8.9
290(9) 0.01248 280.1 8.9
287(9) 0.01292 280.1 9.0
306(9) 0.01144 280.2 9.1
332(10) 0.01016 280.2 9.2
311(10) 0.01100 280.2 9.3
277(9) 0.01348 280.2 9.4
300(9) 0.01234 280.2 9.6
287(9) 0.01205 280.3 9.8
292(9) 0.01148 280.3 9.9
274(9) 0.01312 280.3 10.2
298(9) 0.01242 280.3 10.4
283(9) 0.01312 280.4 10.7
287(9) 0.01243 280.4 11.1
302(10) 0.01075 280.4 11.5
297(9) 0.01194 280.4 12.0
289(9) 0.01286 280.5 12.6
271(9) 0.01337 280.5 13.3
275(9) 0.01259 280.5 14.2
293(10) 0.01061 280.5 15.3
285(9) 0.01208 280.6 16.5
282(9) 0.01305 280.6 18.0
313(9) 0.01175 280.6 19.8
308(9) 0.01130 280.6 21.8
292(9) 0.01125 280.6 24.1
293(9) 0.01191 280.7 26.6
310(9) 0.01188 280.7 29.1
305(9) 0.01200 280.7 31.6
299(9) 0.01176 280.7 33.6
305(10) 0.01059 280.8 35.0
289(9) 0.01214 280.8 35.4
289(9) 0.01286 280.8 34.8
326(9) 0.01130 280.8 33.4
303(9) 0.01153 280.9 31.4
325(10) 0.01017 280.9 29.2
301(9) 0.01150 280.9 27.0
305(9) 0.01228 280.9 25.0
298(9) 0.01220 281.0 23.2
304(9) 0.01128 281.0 21.7
292(9) 0.01165 281.0 20.4
296(9) 0.01197 281.0 19.4
325(9) 0.01140 281.0 18.6
302(9) 0.01221 281.1 18.0
294(9) 0.01161 281.1 17.6
294(9) 0.01193 281.1 17.4
297(9) 0.01203 281.1 17.2
304(9) 0.01224 281.2 17.2
293(9) 0.01231 281.2 17.2
312(10) 0.01088 281.2 17.3
281(9) 0.01276 281.2 17.5
289(9) 0.01270 281.3 17.8
291(9) 0.01276 281.3 18.1
317(10) 0.01090 281.3 18.4
288(9) 0.01228 281.3 18.8
294(9) 0.01204 281.3 19.3
327(10) 0.01096 281.4 19.8
299(9) 0.01261 281.4 20.4
333(10) 0.01071 281.4 21.1
314(10) 0.01081 281.4 21.9
310(9) 0.01147 281.5 22.8
312(9) 0.01156 281.5 23.8
307(9) 0.01207 281.5 25.0
280(9) 0.01315 281.5 26.4
326(10) 0.00987 281.6 28.1
312(9) 0.01137 281.6 30.0
331(9) 0.01115 281.6 32.3
330(10) 0.01102 281.6 35.0
324(10) 0.01062 281.7 38.2
337(10) 0.00936 281.7 41.9
289(9) 0.01252 281.7 46.1
322(9) 0.01156 281.7 50.9
352(10) 0.01043 281.7 56.2
336(10) 0.01034 281.8 62.0
333(10) 0.00979 281.8 68.0
341(10) 0.00987 281.8 73.9
341(10) 0.01078 281.8 79.1
373(10) 0.00978 281.9 83.0
367(10) 0.00948 281.9 85.0
363(10) 0.00916 281.9 84.9
364(10) 0.00952 281.9 82.8
367(10) 0.01002 282.0 79.2
361(10) 0.01004 282.0 74.8
346(10) 0.01006 282.0 70.1
332(10) 0.01033 282.0 65.6
352(10) 0.00983 282.1 61.7
312(9) 0.01202 282.1 58.5
324(9) 0.01114 282.1 56.0
346(10) 0.01020 282.1 54.3
333(10) 0.01006 282.1 53.4
318(9) 0.01150 282.2 53.0
331(9) 0.01115 282.2 53.1
325(10) 0.01069 282.2 53.3
337(10) 0.01024 282.2 53.4
355(10) 0.00937 282.3 53.0
332(10) 0.01084 282.3 52.0
310(9) 0.01208 282.3 50.3
330(10) 0.01062 282.3 48.0
328(10) 0.00998 282.4 45.3
304(9) 0.01146 282.4 42.6
335(10) 0.01064 282.4 39.8
324(9) 0.01148 282.4 37.3
310(9) 0.01151 282.5 35.0
305(9) 0.01126 282.5 33.0
316(10) 0.01059 282.5 31.3
281(9) 0.01295 282.5 29.9
291(9) 0.01283 282.5 28.8
290(9) 0.01200 282.6 27.9
285(9) 0.01198 282.6 27.2
306(9) 0.01126 282.6 26.7
289(9) 0.01282 282.6 26.5
299(9) 0.01225 282.7 26.4
298(10) 0.01106 282.7 26.4
288(10) 0.01091 282.7 26.5
282(9) 0.01254 282.7 26.8
304(9) 0.01230 282.8 27.2
308(9) 0.01186 282.8 27.7
298(9) 0.01136 282.8 28.3
299(10) 0.01044 282.8 29.0
288(9) 0.01179 282.8 29.7
314(9) 0.01168 282.9 30.6
314(9) 0.01169 282.9 31.4
314(10) 0.01051 282.9 32.4
314(10) 0.01009 282.9 33.4
309(9) 0.01124 283.0 34.4
321(9) 0.01153 283.0 35.4
322(9) 0.01153 283.0 36.4
321(10) 0.01072 283.0 37.4
314(10) 0.01045 283.1 38.4
323(9) 0.01112 283.1 39.3
331(9) 0.01114 283.1 40.1
311(9) 0.01181 283.1 40.9
315(10) 0.01095 283.2 41.6
310(10) 0.01103 283.2 42.3
318(10) 0.01080 283.2 42.8
309(9) 0.01201 283.2 43.2
301(9) 0.01193 283.2 43.5
317(9) 0.01111 283.3 43.7
342(10) 0.00987 283.3 43.8
333(10) 0.01071 283.3 43.7
333(9) 0.01125 283.3 43.4
318(10) 0.01070 283.4 43.0
312(10) 0.01067 283.4 42.4
311(9) 0.01140 283.4 41.7
313(9) 0.01122 283.4 40.8
319(9) 0.01169 283.5 39.8
305(9) 0.01165 283.5 38.7
297(9) 0.01220 283.5 37.5
322(10) 0.01053 283.5 36.3
292(9) 0.01210 283.6 35.0
302(9) 0.01240 283.6 33.7
304(9) 0.01127 283.6 32.5
311(10) 0.01058 283.6 31.2
331(10) 0.00987 283.6 30.0
322(10) 0.01108 283.7 28.8
293(9) 0.01268 283.7 27.6
312(9) 0.01110 283.7 26.6
286(9) 0.01201 283.7 25.6
274(9) 0.01352 283.8 24.6
311(9) 0.01184 283.8 23.7
319(9) 0.01171 283.8 22.9
331(10) 0.01053 283.8 22.2
317(10) 0.01024 283.9 21.5
276(9) 0.01286 283.9 20.9
294(9) 0.01216 283.9 20.3
290(9) 0.01255 283.9 19.8
296(9) 0.01179 284.0 19.4
295(10) 0.01097 284.0 18.9
285(9) 0.01254 284.0 18.6
294(9) 0.01258 284.0 18.3
290(9) 0.01265 284.0 18.0
276(9) 0.01244 284.1 17.7
297(10) 0.01051 284.1 17.4
319(10) 0.01038 284.1 17.2
292(9) 0.01254 284.1 17.0
290(9) 0.01290 284.2 16.8
309(9) 0.01122 284.2 16.6
317(10) 0.01034 284.2 16.4
291(9) 0.01214 284.2 16.3
310(9) 0.01191 284.3 16.1
283(9) 0.01296 284.3 16.0
277(9) 0.01277 284.3 15.9
324(10) 0.00965 284.3 15.8
312(10) 0.01093 284.3 15.8
309(9) 0.01207 284.4 15.8
279(9) 0.01292 284.4 15.9
270(9) 0.01282 284.4 16.1
297(10) 0.01107 284.4 16.3
295(9) 0.01115 284.5 16.6
301(9) 0.01253 284.5 17.0
332(10) 0.01030 284.5 17.6
304(10) 0.01099 284.5 18.2
308(10) 0.01100 284.6 19.1
312(10) 0.01091 284.6 20.1
316(9) 0.01182 284.6 21.2
309(9) 0.01147 284.6 22.6
280(9) 0.01256 284.7 24.2
339(10) 0.00977 284.7 26.0
310(9) 0.01187 284.7 28.0
309(9) 0.01197 284.7 30.1
328(10) 0.01015 284.7 32.5
345(10) 0.00965 284.8 34.9
342(10) 0.00972 284.8 37.3
337(10) 0.01082 284.8 39.7
347(10) 0.01057 284.8 41.7
327(10) 0.01038 284.9 43.3
333(10) 0.00982 284.9 44.2
313(9) 0.01110 284.9 44.5
315(9) 0.01157 284.9 43.9
333(9) 0.01121 285.0 42.7
345(10) 0.01018 285.0 40.9
322(10) 0.01028 285.0 38.7
321(10) 0.01100 285.0 36.3
299(9) 0.01229 285.1 33.9
313(9) 0.01182 285.1 31.5
320(10) 0.01083 285.1 29.2
300(9) 0.01144 285.1 27.1
317(9) 0.01113 285.1 25.2
319(9) 0.01159 285.2 23.5
289(9) 0.01281 285.2 22.0
320(10) 0.01063 285.2 20.7
301(9) 0.01123 285.2 19.6
306(9) 0.01142 285.3 18.7
292(9) 0.01253 285.3 18.0
306(9) 0.01198 285.3 17.4
310(10) 0.01096 285.3 16.9
312(10) 0.01049 285.4 16.6
284(9) 0.01242 285.4 16.5
294(9) 0.01254 285.4 16.4
315(9) 0.01187 285.4 16.4
316(10) 0.01089 285.5 16.6
313(10) 0.01014 285.5 16.8
278(9) 0.01268 285.5 17.2
300(9) 0.01236 285.5 17.7
306(9) 0.01192 285.5 18.2
309(9) 0.01141 285.6 18.9
322(10) 0.01060 285.6 19.8
287(9) 0.01227 285.6 20.7
290(9) 0.01279 285.6 21.8
295(9) 0.01221 285.7 23.0
305(10) 0.01104 285.7 24.4
301(9) 0.01128 285.7 25.9
315(10) 0.01098 285.7 27.6
327(9) 0.01141 285.8 29.3
335(10) 0.01069 285.8 31.3
309(9) 0.01136 285.8 33.3
320(10) 0.01042 285.8 35.5
320(9) 0.01147 285.8 37.7
355(10) 0.01049 285.9 39.9
332(10) 0.01047 285.9 42.1
326(10) 0.01021 285.9 44.2
296(9) 0.01201 285.9 46.1
350(10) 0.01044 286.0 47.7
302(9) 0.01236 286.0 48.9
328(10) 0.01018 286.0 49.7
350(10) 0.00921 286.0 50.0
311(9) 0.01161 286.1 49.8
322(9) 0.01143 286.1 49.1
297(9) 0.01275 286.1 47.9
299(9) 0.01134 286.1 46.3
312(10) 0.01021 286.2 44.4
338(10) 0.01029 286.2 42.3
337(10) 0.01076 286.2 40.0
324(9) 0.01158 286.2 37.7
299(9) 0.01170 286.2 35.4
329(10) 0.00924 286.3 33.1
325(10) 0.01065 286.3 30.9
302(9) 0.01250 286.3 28.8
281(9) 0.01302 286.3 26.9
298(9) 0.01175 286.4 25.1
282(9) 0.01261 286.4 23.4
311(10) 0.01103 286.4 21.9
304(9) 0.01204 286.4 20.5
324(9) 0.01139 286.5 19.2
286(9) 0.01215 286.5 18.1
295(10) 0.01103 286.5 17.1
270(9) 0.01291 286.5 16.2
303(9) 0.01222 286.6 15.4
318(9) 0.01115 286.6 14.7
300(9) 0.01130 286.6 14.1
278(9) 0.01192 286.6 13.6
306(9) 0.01132 286.6 13.2
295(9) 0.01263 286.7 12.9
303(9) 0.01220 286.7 12.6
322(10) 0.01068 286.7 12.4
303(10) 0.01087 286.7 12.3
299(9) 0.01163 286.8 12.3
289(9) 0.01303 286.8 12.3
296(9) 0.01205 286.8 12.4
298(9) 0.01159 286.8 12.6
299(9) 0.01109 286.9 12.8
290(9) 0.01205 286.9 13.1
292(9) 0.01280 286.9 13.5
306(9) 0.01194 286.9 13.9
312(10) 0.01073 287.0 14.3
284(9) 0.01184 287.0 14.8
289(9) 0.01222 287.0 15.3
315(9) 0.01180 287.0 15.8
304(9) 0.01114 287.0 16.3
317(10) 0.01046 287.1 16.7
290(9) 0.01267 287.1 17.1
289(9) 0.01233 287.1 17.3
284(9) 0.01331 287.1 17.3
308(9) 0.01118 287.2 17.2
291(9) 0.01166 287.2 17.0
305(9) 0.01135 287.2 16.6
300(9) 0.01227 287.2 16.0
329(9) 0.01132 287.3 15.5
312(9) 0.01111 287.3 14.8
299(10) 0.01089 287.3 14.2
273(9) 0.01278 287.3 13.5
310(9) 0.01185 287.3 12.9
293(9) 0.01251 287.4 12.3
288(9) 0.01198 287.4 11.8
305(10) 0.01050 287.4 11.3
278(9) 0.01293 287.4 10.8
312(9) 0.01165 287.5 10.4
308(9) 0.01205 287.5 10.1
290(9) 0.01226 287.5 9.8
291(10) 0.01074 287.5 9.5
307(9) 0.01131 287.6 9.3
316(9) 0.01183 287.6 9.2
284(9) 0.01287 287.6 9.0
300(9) 0.01151 287.6 8.9
285(9) 0.01156 287.7 8.9
296(9) 0.01184 287.7 8.9
295(9) 0.01259 287.7 8.9
297(9) 0.01235 287.7 9.0
296(9) 0.01190 287.7 9.1
292(9) 0.01112 287.8 9.2
271(9) 0.01269 287.8 9.4
280(9) 0.01329 287.8 9.6
311(9) 0.01132 287.8 9.9
276(9) 0.01259 287.9 10.3
283(9) 0.01165 287.9 10.7
304(9) 0.01149 287.9 11.2
291(9) 0.01271 287.9 11.8
284(9) 0.01240 288.0 12.5
310(10) 0.01082 288.0 13.3
298(10) 0.01096 288.0 14.1
285(9) 0.01247 288.0 15.1
295(9) 0.01272 288.1 16.2
315(10) 0.01086 288.1 17.3
286(9) 0.01176 288.1 18.6
276(9) 0.01253 288.1 19.9
301(9) 0.01170 288.1 21.2
281(9) 0.01333 288.2 22.5
319(10) 0.01106 288.2 23.7
313(10) 0.01084 288.2 24.7
282(9) 0.01204 288.2 25.4
302(9) 0.01160 288.3 25.8
314(9) 0.01181 288.3 25.9
319(10) 0.01027 288.3 25.5
316(10) 0.01053 288.3 24.9
305(9) 0.01151 288.4 24.1
312(9) 0.01179 288.4 23.1
289(9) 0.01289 288.4 22.1
314(10) 0.01085 288.4 21.1
295(9) 0.01131 288.5 20.1
310(10) 0.01103 288.5 19.3
305(9) 0.01193 288.5 18.5
300(9) 0.01235 288.5 17.8
288(9) 0.01223 288.5 17.3
283(9) 0.01138 288.6 16.9
294(9) 0.01177 288.6 16.6
283(9) 0.01270 288.6 16.4
285(9) 0.01297 288.6 16.4
290(9) 0.01199 288.7 16.4
301(10) 0.01050 288.7 16.5
304(10) 0.01100 288.7 16.7
288(9) 0.01303 288.7 17.0
287(9) 0.01274 288.8 17.4
319(9) 0.01117 288.8 17.8
325(10) 0.00981 288.8 18.3
291(9) 0.01187 288.8 18.9
331(9) 0.01126 288.8 19.5
309(9) 0.01192 288.9 20.2
323(10) 0.01069 288.9 21.0
313(10) 0.01074 288.9 21.7
308(9) 0.01139 288.9 22.6
321(9) 0.01167 289.0 23.4
335(10) 0.01055 289.0 24.3
305(9) 0.01161 289.0 25.3
309(10) 0.01098 289.0 26.2
318(9) 0.01109 289.1 27.2
295(9) 0.01259 289.1 28.2
305(9) 0.01188 289.1 29.1
294(9) 0.01171 289.1 30.1
319(10) 0.01036 289.2 31.0
325(10) 0.01070 289.2 31.9
327(9) 0.01147 289.2 32.7
326(9) 0.01116 289.2 33.4
322(10) 0.01074 289.2 34.1
345(10) 0.00972 289.3 34.6
317(9) 0.01115 289.3 35.0
324(9) 0.01144 289.3 35.3
331(10) 0.01067 289.3 35.4
313(9) 0.01130 289.4 35.4
319(10) 0.01035 289.4 35.2
304(9) 0.01230 289.4 34.9
327(9) 0.01128 289.4 34.5
311(10) 0.01099 289.5 34.0
303(9) 0.01167 289.5 33.3
329(10) 0.01059 289.5 32.5
331(10) 0.01089 289.5 31.7
315(9) 0.01169 289.6 30.8
314(10) 0.01040 289.6 29.8
295(9) 0.01137 289.6 28.8
298(9) 0.01176 289.6 27.8
307(9) 0.01194 289.6 26.8
319(9) 0.01167 289.7 25.7
303(9) 0.01148 289.7 24.7
329(10) 0.01010 289.7 23.7
284(9) 0.01208 289.7 22.7
309(9) 0.01157 289.8 21.8
302(9) 0.01252 289.8 20.8
302(9) 0.01122 289.8 19.9
295(10) 0.01070 289.8 19.1
327(10) 0.01022 289.9 18.3
314(9) 0.01192 289.9 17.5
294(9) 0.01275 289.9 16.7
300(9) 0.01143 289.9 16.0
292(9) 0.01193 290.0 15.4
309(9) 0.01142 290.0 14.8
310(9) 0.01183 290.0 14.2
303(9) 0.01194 290.0 13.6
311(10) 0.01090 290.0 13.1
319(10) 0.00999 290.1 12.6
310(9) 0.01152 290.1 12.2
304(9) 0.01213 290.1 11.8
308(9) 0.01185 290.1 11.4
322(10) 0.01051 290.2 11.0
289(9) 0.01130 290.2 10.7
283(9) 0.01192 290.2 10.4
275(9) 0.01345 290.2 10.1
300(9) 0.01241 290.3 9.9
270(9) 0.01324 290.3 9.6
299(9) 0.01135 290.3 9.4
318(10) 0.01081 290.3 9.2
311(9) 0.01192 290.3 9.1
319(9) 0.01110 290.4 8.9
288(9) 0.01230 290.4 8.8
285(9) 0.01195 290.4 8.6
301(9) 0.01130 290.4 8.5
296(9) 0.01262 290.5 8.4
276(9) 0.01269 290.5 8.3
271(9) 0.01274 290.5 8.3
295(9) 0.01154 290.5 8.2
287(9) 0.01237 290.6 8.1
280(9) 0.01313 290.6 8.1
315(9) 0.01108 290.6 8.0
300(9) 0.01133 290.6 8.0
282(9) 0.01225 290.7 8.0
310(9) 0.01160 290.7 7.9
303(9) 0.01224 290.7 7.9
283(9) 0.01207 290.7 7.9
283(9) 0.01176 290.7 7.8
301(9) 0.01136 290.8 7.8
307(9) 0.01201 290.8 7.8
287(9) 0.01298 290.8 7.7
314(10) 0.01100 290.8 7.7
329(10) 0.00969 290.9 7.7
307(10) 0.01107 290.9 7.6
268(9) 0.01356 290.9 7.6
306(9) 0.01220 290.9 7.5
298(9) 0.01175 291.0 7.5
288(9) 0.01157 291.0 7.5
305(9) 0.01115 291.0 7.4
291(9) 0.01294 291.0 7.3
288(9) 0.01274 291.1 7.3
305(9) 0.01133 291.1 7.2
303(10) 0.01063 291.1 7.2
310(9) 0.01127 291.1 7.1
307(9) 0.01216 291.1 7.0
296(9) 0.01243 291.2 7.0
307(9) 0.01109 291.2 6.9
294(10) 0.01060 291.2 6.8
293(9) 0.01123 291.2 6.8
301(9) 0.01235 291.3 6.7
289(9) 0.01275 291.3 6.6
287(9) 0.01219 291.3 6.6
303(10) 0.01095 291.3 6.5
289(9) 0.01174 291.4 6.4
295(9) 0.01268 291.4 6.4
298(9) 0.01203 291.4 6.3
292(9) 0.01210 291.4 6.3
306(10) 0.01105 291.4 6.2
281(9) 0.01236 291.5 6.2
310(9) 0.01202 291.5 6.1
304(9) 0.01217 291.5 6.1
314(10) 0.01093 291.5 6.0
292(9) 0.01132 291.5 6.0
291(9) 0.01210 291.6 6.0
291(9) 0.01273 291.6 6.0
283(9) 0.01273 291.6 6.0
269(9) 0.01316 291.6 6.0
291(9) 0.01184 291.7 6.0
280(9) 0.01245 291.7 6.0
292(9) 0.01264 291.7 6.0
308(9) 0.01135 291.7 6.0
294(9) 0.01146 291.7 6.0
293(9) 0.01160 291.8 6.1
292(9) 0.01217 291.8 6.1
277(9) 0.01335 291.8 6.2
292(9) 0.01178 291.8 6.3
306(10) 0.01092 291.9 6.4
279(9) 0.01270 291.9 6.5
279(9) 0.01312 291.9 6.6
298(9) 0.01241 291.9 6.7
302(9) 0.01147 291.9 6.9
296(9) 0.01161 292.0 7.1
316(10) 0.01090 292.0 7.3
312(9) 0.01155 292.0 7.6
305(9) 0.01232 292.0 7.9
298(9) 0.01211 292.0 8.2
297(10) 0.01087 292.1 8.7
313(10) 0.01023 292.1 9.1
293(9) 0.01259 292.1 9.7
307(9) 0.01207 292.1 10.3
324(10) 0.01069 292.2 11.1
289(9) 0.01136 292.2 11.9
303(9) 0.01112 292.2 12.9
331(10) 0.01102 292.2 14.0
300(9) 0.01215 292.2 15.2
322(10) 0.01057 292.3 16.5
330(10) 0.00955 292.3 18.0
293(9) 0.01218 292.3 19.6
303(9) 0.01241 292.3 21.3
316(9) 0.01177 292.4 23.1
326(10) 0.01046 292.4 24.8
324(10) 0.00980 292.4 26.5
305(9) 0.01148 292.4 28.1
322(9) 0.01161 292.4 29.4
323(9) 0.01127 292.5 30.4
319(10) 0.01074 292.5 30.9
316(10) 0.01037 292.5 31.0
342(10) 0.00984 292.5 30.7
316(9) 0.01176 292.5 29.9
298(9) 0.01198 292.6 28.7
319(10) 0.01082 292.6 27.3
320(10) 0.01049 292.6 25.7
311(10) 0.01088 292.6 24.0
282(9) 0.01315 292.7 22.3
312(9) 0.01112 292.7 20.6
283(9) 0.01251 292.7 19.0
304(9) 0.01140 292.7 17.5
299(9) 0.01249 292.7 16.2
294(9) 0.01263 292.8 14.9
331(10) 0.01079 292.8 13.8
302(9) 0.01142 292.8 12.8
303(10) 0.01081 292.8 11.9
317(9) 0.01120 292.9 11.2
283(9) 0.01312 292.9 10.5
302(9) 0.01171 292.9 9.9
316(10) 0.01066 292.9 9.4
317(9) 0.01125 292.9 9.0
304(9) 0.01201 293.0 8.6
264(8) 0.01404 293.0 8.3
310(10) 0.01079 293.0 8.0
285(9) 0.01157 293.0 7.8
295(9) 0.01156 293.0 7.6
310(9) 0.01171 293.1 7.4
290(9) 0.01287 293.1 7.3
319(9) 0.01115 293.1 7.1
314(10) 0.01020 293.1 7.0
308(9) 0.01118 293.2 6.9
301(9) 0.01229 293.2 6.9
289(9) 0.01303 293.2 6.8
298(9) 0.01175 293.2 6.8
326(10) 0.00945 293.2 6.7
285(9) 0.01259 293.3 6.7
311(9) 0.01151 293.3 6.7
289(9) 0.01286 293.3 6.7
297(9) 0.01193 293.3 6.7
317(10) 0.00978 293.4 6.7
323(10) 0.01071 293.4 6.7
285(9) 0.01313 293.4 6.8
320(9) 0.01124 293.4 6.8
306(9) 0.01113 293.4 6.8
311(10) 0.01049 293.5 6.9
314(10) 0.01078 293.5 6.9
306(9) 0.01212 293.5 7.0
309(9) 0.01140 293.5 7.1
318(10) 0.01100 293.5 7.1
319(10) 0.01039 293.6 7.2
303(9) 0.01126 293.6 7.3
311(9) 0.01194 293.6 7.4
316(9) 0.01133 293.6 7.5
283(9) 0.01280 293.7 7.6
306(10) 0.01096 293.7 7.7
312(9) 0.01124 293.7 7.8
297(9) 0.01263 293.7 8.0
314(10) 0.01097 293.7 8.1
313(9) 0.01117 293.8 8.2
317(10) 0.01069 293.8 8.4
312(10) 0.01071 293.8 8.5
299(9) 0.01245 293.8 8.7
323(9) 0.01124 293.9 8.9
325(10) 0.01046 293.9 9.1
308(9) 0.01109 293.9 9.3
311(9) 0.01118 293.9 9.5
339(10) 0.01084 293.9 9.7
331(10) 0.01043 294.0 9.9
313(10) 0.01098 294.0 10.2
323(10) 0.01066 294.0 10.5
344(10) 0.01063 294.0 10.7
319(9) 0.01156 294.0 11.0
298(9) 0.01158 294.1 11.4
292(9) 0.01172 294.1 11.7
306(9) 0.01135 294.1 12.1
340(10) 0.01053 294.1 12.5
312(9) 0.01203 294.2 12.9
331(10) 0.01036 294.2 13.3
310(10) 0.01023 294.2 13.9
310(10) 0.01082 294.2 14.4
302(9) 0.01191 294.2 15.0
355(10) 0.01058 294.3 15.7
349(10) 0.00983 294.3 16.5
323(10) 0.00995 294.3 17.4
338(10) 0.01021 294.3 18.4
320(9) 0.01142 294.4 19.5
340(10) 0.01093 294.4 20.8
336(10) 0.01049 294.4 22.3
349(10) 0.00923 294.4 23.9
352(10) 0.00967 294.4 25.8
345(10) 0.01065 294.5 27.9
349(10) 0.01058 294.5 30.2
339(10) 0.01010 294.5 32.7
364(11) 0.00896 294.5 35.5
378(10) 0.00913 294.5 38.4
360(10) 0.01036 294.6 41.4
377(10) 0.00948 294.6 44.3
361(10) 0.00947 294.6 46.9
394(11) 0.00804 294.6 49.1
361(10) 0.00955 294.7 50.6
376(10) 0.00980 294.7 51.3
363(10) 0.01009 294.7 51.2
346(10) 0.01008 294.7 50.2
350(10) 0.00953 294.7 48.6
334(10) 0.01013 294.8 46.7
361(10) 0.01018 294.8 44.6
344(10) 0.01048 294.8 42.4
356(10) 0.00949 294.8 40.4
310(10) 0.01107 294.9 38.5
334(10) 0.00992 294.9 36.9
327(9) 0.01138 294.9 35.6
330(10) 0.01059 294.9 34.5
351(10) 0.00926 294.9 33.7
353(10) 0.00931 295.0 33.2
329(10) 0.01094 295.0 33.0
323(9) 0.01146 295.0 33.0
331(10) 0.01070 295.0 33.2
312(9) 0.01122 295.0 33.8
336(10) 0.00984 295.1 34.5
337(10) 0.01066 295.1 35.6
361(10) 0.01037 295.1 36.9
338(10) 0.00997 295.1 38.6
334(10) 0.01015 295.2 40.5
344(10) 0.00980 295.2 42.7
346(10) 0.01060 295.2 45.2
391(10) 0.00956 295.2 47.9
368(10) 0.00911 295.2 51.0
381(11) 0.00839 295.3 54.3
368(10) 0.00954 295.3 57.7
378(10) 0.00960 295.3 61.2
373(10) 0.00999 295.3 64.5
371(10) 0.00916 295.4 67.5
385(11) 0.00827 295.4 69.9
394(11) 0.00880 295.4 71.5
371(10) 0.00999 295.4 72.1
380(10) 0.00968 295.4 71.7
388(11) 0.00881 295.5 70.2
379(11) 0.00845 295.5 67.7
382(11) 0.00903 295.5 64.6
360(10) 0.01025 295.5 61.1
336(10) 0.01089 295.5 57.3
349(10) 0.00993 295.6 53.4
361(11) 0.00892 295.6 49.7
361(10) 0.00964 295.6 46.1
314(9) 0.01167 295.6 42.8
334(10) 0.01105 295.7 39.7
348(10) 0.00983 295.7 37.0
334(10) 0.00975 295.7 34.5
349(10) 0.00982 295.7 32.2
325(9) 0.01154 295.7 30.2
347(10) 0.01054 295.8 28.4
333(10) 0.01009 295.8 26.9
322(10) 0.01042 295.8 25.5
350(10) 0.00946 295.8 24.3
346(10) 0.01079 295.9 23.2
309(9) 0.01170 295.9 22.2
332(10) 0.00999 295.9 21.4
303(9) 0.01122 295.9 20.6
339(10) 0.01025 295.9 20.0
338(10) 0.01107 296.0 19.4
313(9) 0.01134 296.0 18.8
319(10) 0.01080 296.0 18.4
304(9) 0.01185 296.0 17.9
335(10) 0.01079 296.0 17.5
311(9) 0.01207 296.1 17.2
311(9) 0.01120 296.1 16.8
315(10) 0.01060 296.1 16.5
301(9) 0.01149 296.1 16.3
303(9) 0.01194 296.2 16.0
312(9) 0.01198 296.2 15.8
328(10) 0.01039 296.2 15.6
313(10) 0.01089 296.2 15.4
331(10) 0.01047 296.2 15.2
319(9) 0.01135 296.3 15.1
340(10) 0.01089 296.3 15.0
325(10) 0.01048 296.3 14.9
325(10) 0.01019 296.3 14.8
313(9) 0.01136 296.4 14.7
318(9) 0.01129 296.4 14.7
314(9) 0.01202 296.4 14.6
321(10) 0.01087 296.4 14.6
304(9) 0.01111 296.4 14.6
316(10) 0.01089 296.5 14.7
316(9) 0.01151 296.5 14.7
319(9) 0.01172 296.5 14.8
295(9) 0.01186 296.5 14.9
304(10) 0.01037 296.5 15.0
295(9) 0.01194 296.6 15.1
301(9) 0.01245 296.6 15.3
290(9) 0.01275 296.6 15.4
291(9) 0.01189 296.6 15.6
312(10) 0.01019 296.7 15.9
314(10) 0.01106 296.7 16.1
282(9) 0.01326 296.7 16.4
291(9) 0.01264 296.7 16.7
294(9) 0.01203 296.7 17.0
315(10) 0.01050 296.8 17.4
303(9) 0.01159 296.8 17.8
299(9) 0.01263 296.8 18.2
332(10) 0.01094 296.8 18.7
331(10) 0.01050 296.9 19.2
346(10) 0.00926 296.9 19.7
324(10) 0.01069 296.9 20.3
324(9) 0.01145 296.9 20.9
321(10) 0.01089 296.9 21.5
346(10) 0.00977 297.0 22.1
340(10) 0.00972 297.0 22.8
315(10) 0.01093 297.0 23.6
314(9) 0.01177 297.0 24.3
325(10) 0.01104 297.0 25.1
314(10) 0.01090 297.1 25.9
335(10) 0.00994 297.1 26.7
331(10) 0.01084 297.1 27.5
328(9) 0.01146 297.1 28.3
327(10) 0.01053 297.2 29.1
325(10) 0.01019 297.2 29.9
294(9) 0.01188 297.2 30.7
333(10) 0.01098 297.2 31.4
334(9) 0.01120 297.2 32.2
307(9) 0.01138 297.3 32.9
307(10) 0.01068 297.3 33.5
300(9) 0.01137 297.3 34.1
341(10) 0.01021 297.3 34.7
327(9) 0.01147 297.4 35.2
354(10) 0.00974 297.4 35.7
317(10) 0.01050 297.4 36.2
315(9) 0.01134 297.4 36.6
329(9) 0.01113 297.4 37.0
312(9) 0.01190 297.5 37.4
325(10) 0.01028 297.5 37.7
325(10) 0.01003 297.5 38.0
309(9) 0.01149 297.5 38.2
310(9) 0.01188 297.5 38.4
336(10) 0.01105 297.6 38.6
337(10) 0.01029 297.6 38.7
319(10) 0.01009 297.6 38.7
317(9) 0.01125 297.6 38.7
333(10) 0.01103 297.7 38.7
333(9) 0.01122 297.7 38.6
323(10) 0.01041 297.7 38.4
334(10) 0.00970 297.7 38.2
342(10) 0.01027 297.7 38.0
321(9) 0.01170 297.8 37.8
309(9) 0.01187 297.8 37.5
318(10) 0.01100 297.8 37.2
319(10) 0.01012 297.8 36.8
335(10) 0.00995 297.9 36.5
305(9) 0.01200 297.9 36.1
309(9) 0.01212 297.9 35.8
335(10) 0.01038 297.9 35.5
321(10) 0.01043 297.9 35.1
325(10) 0.01078 298.0 34.8
360(10) 0.01036 298.0 34.5
333(10) 0.01094 298.0 34.2
336(10) 0.01028 298.0 34.0
344(10) 0.00978 298.1 33.7
310(9) 0.01128 298.1 33.5
323(9) 0.01142 298.1 33.3
329(10) 0.01081 298.1 33.2
351(10) 0.00970 298.1 33.1
332(10) 0.01022 298.2 33.0
352(10) 0.01014 298.2 32.9
315(9) 0.01185 298.2 32.9
338(10) 0.01047 298.2 32.9
359(11) 0.00904 298.2 33.0
340(10) 0.01036 298.3 33.0
338(10) 0.01060 298.3 33.2
335(10) 0.01106 298.3 33.3
351(10) 0.00981 298.3 33.5
331(10) 0.01049 298.4 33.8
359(10) 0.00982 298.4 34.1
366(10) 0.00983 298.4 34.5
350(10) 0.01056 298.4 34.9
356(10) 0.00965 298.4 35.4
320(10) 0.01069 298.5 35.9
329(10) 0.01041 298.5 36.5
361(10) 0.00988 298.5 37.3
355(10) 0.01056 298.5 38.1
333(10) 0.01040 298.6 39.0
327(10) 0.01017 298.6 40.1
361(10) 0.00936 298.6 41.2
359(10) 0.01017 298.6 42.5
337(9) 0.01110 298.6 43.9
343(10) 0.01017 298.7 45.4
357(11) 0.00862 298.7 47.1
340(10) 0.01051 298.7 48.9
351(10) 0.01059 298.7 50.8
335(9) 0.01121 298.7 52.7
362(10) 0.00956 298.8 54.7
371(11) 0.00824 298.8 56.7
340(10) 0.01038 298.8 58.5
368(10) 0.01013 298.8 60.2
343(10) 0.01052 298.9 61.6
367(10) 0.00942 298.9 62.6
374(11) 0.00849 298.9 63.1
338(10) 0.00985 298.9 63.1
353(10) 0.01046 298.9 62.5
354(10) 0.01040 299.0 61.4
357(10) 0.00973 299.0 59.7
317(10) 0.01070 299.0 57.7
329(10) 0.01079 299.0 55.4
335(10) 0.01103 299.1 52.9
338(10) 0.01099 299.1 50.2
330(10) 0.01070 299.1 47.6
328(10) 0.01062 299.1 45.0
340(10) 0.00956 299.1 42.4
339(10) 0.01097 299.2 40.0
327(10) 0.01101 299.2 37.7
336(10) 0.01031 299.2 35.6
318(10) 0.01070 299.2 33.6
331(10) 0.01054 299.2 31.8
342(10) 0.01069 299.3 30.1
327(10) 0.01102 299.3 28.5
347(10) 0.00966 299.3 27.1
340(10) 0.00993 299.3 25.8
310(9) 0.01135 299.4 24.6
333(9) 0.01110 299.4 23.5
319(9) 0.01111 299.4 22.6
319(10) 0.01074 299.4 21.7
306(9) 0.01137 299.4 20.9
322(9) 0.01111 299.5 20.2
324(9) 0.01136 299.5 19.5
348(10) 0.00998 299.5 18.9
365(11) 0.00868 299.5 18.3
305(9) 0.01152 299.6 17.8
326(9) 0.01124 299.6 17.3
311(9) 0.01193 299.6 16.9
323(10) 0.01073 299.6 16.5
309(10) 0.01079 299.6 16.1
318(10) 0.01083 299.7 15.8
310(9) 0.01177 299.7 15.5
315(9) 0.01182 299.7 15.2
312(9) 0.01115 299.7 14.9
313(10) 0.01055 299.7 14.6
304(9) 0.01188 299.8 14.4
319(9) 0.01168 299.8 14.2
312(9) 0.01181 299.8 14.0
300(9) 0.01140 299.8 13.8
334(10) 0.00923 299.9 13.6
302(9) 0.01112 299.9 13.4
304(9) 0.01227 299.9 13.2
319(9) 0.01173 299.9 13.1
320(10) 0.01065 299.9 13.0
324(10) 0.00991 300.0 12.8
321(10) 0.01103 300.0 12.7
313(9) 0.01191 300.0 12.6
308(9) 0.01188 300.0 12.5
314(10) 0.01067 300.1 12.4
328(10) 0.00999 300.1 12.3
308(9) 0.01143 300.1 12.2
312(9) 0.01199 300.1 12.2
297(9) 0.01225 300.1 12.1
314(10) 0.01083 300.2 12.0
335(10) 0.00957 300.2 12.0
305(10) 0.01103 300.2 11.9
319(9) 0.01161 300.2 11.9
314(9) 0.01154 300.2 11.9
322(10) 0.01082 300.3 11.8
332(10) 0.00993 300.3 11.8
318(10) 0.01098 300.3 11.8
323(9) 0.01149 300.3 11.8
317(9) 0.01134 300.4 11.8
299(9) 0.01212 300.4 11.8
306(9) 0.01124 300.4 11.9
325(10) 0.01057 300.4 11.9
304(9) 0.01219 300.4 11.9
319(9) 0.01120 300.5 12.0
283(9) 0.01220 300.5 12.0
326(10) 0.01029 300.5 12.1
327(10) 0.01104 300.5 12.2
311(9) 0.01199 300.6 12.2
356(10) 0.00945 300.6 12.3
318(10) 0.01100 300.6 12.5
320(9) 0.01135 300.6 12.6
310(9) 0.01146 300.6 12.7
331(9) 0.01127 300.7 12.9
324(10) 0.01036 300.7 13.1
313(10) 0.01034 300.7 13.2
334(10) 0.01023 300.7 13.5
322(9) 0.01152 300.7 13.7
338(10) 0.01097 300.8 13.9
329(10) 0.01034 300.8 14.2
323(10) 0.01004 300.8 14.5
321(10) 0.01064 300.8 14.8
331(9) 0.01113 300.9 15.1
348(10) 0.01062 300.9 15.4
316(10) 0.01072 300.9 15.7
336(10) 0.00957 300.9 16.1
332(10) 0.01050 300.9 16.4
297(9) 0.01261 301.0 16.7
355(10) 0.01038 301.0 17.0
319(10) 0.01084 301.0 17.3
308(10) 0.01043 301.0 17.5
339(10) 0.01034 301.1 17.7
336(10) 0.01103 301.1 17.8
341(10) 0.01085 301.1 17.9
324(10) 0.01084 301.1 17.9
342(10) 0.00956 301.1 17.8
340(10) 0.01003 301.2 17.6
327(9) 0.01156 301.2 17.4
317(9) 0.01134 301.2 17.1
329(10) 0.01054 301.2 16.7
328(10) 0.01022 301.2 16.3
335(10) 0.01034 301.3 15.8
323(9) 0.01154 301.3 15.4
342(10) 0.01057 301.3 14.9
328(10) 0.01075 301.3 14.4
315(10) 0.01057 301.4 13.9
323(10) 0.01051 301.4 13.4
330(9) 0.01117 301.4 13.0
323(10) 0.01075 301.4 12.5
331(10) 0.01007 301.4 12.1
321(10) 0.01036 301.5 11.7
310(10) 0.01104 301.5 11.3
299(9) 0.01233 301.5 10.9
308(9) 0.01154 301.5 10.5
324(10) 0.01054 301.6 10.2
336(10) 0.00986 301.6 9.9
307(9) 0.01126 301.6 9.6
324(9) 0.01154 301.6 9.3
335(10) 0.01014 301.6 9.0
319(10) 0.01068 301.7 8.8
303(9) 0.01141 301.7 8.5
322(9) 0.01117 301.7 8.3
305(9) 0.01216 301.7 8.1
320(10) 0.01097 301.7 7.9
306(9) 0.01159 301.8 7.8
294(9) 0.01200 301.8 7.6
287(9) 0.01300 301.8 7.4
310(9) 0.01203 301.8 7.3
316(9) 0.01120 301.9 7.2
317(10) 0.01015 301.9 7.0
284(9) 0.01261 301.9 6.9
310(9) 0.01186 301.9 6.8
311(9) 0.01217 301.9 6.7
307(10) 0.01099 302.0 6.6
311(10) 0.01030 302.0 6.5
305(9) 0.01149 302.0 6.4
288(9) 0.01258 302.0 6.3
310(9) 0.01201 302.1 6.3
319(10) 0.01055 302.1 6.2
305(10) 0.01050 302.1 6.1
328(10) 0.01018 302.1 6.0
301(9) 0.01234 302.1 6.0
316(9) 0.01150 302.2 5.9
294(9) 0.01215 302.2 5.9
321(10) 0.01042 302.2 5.8
299(9) 0.01182 302.2 5.8
316(9) 0.01177 302.2 5.7
330(10) 0.01069 302.3 5.7
297(9) 0.01164 302.3 5.7
321(10) 0.01077 302.3 5.6
326(10) 0.01082 302.3 5.6
295(9) 0.01267 302.4 5.6
300(9) 0.01195 302.4 5.5
293(9) 0.01162 302.4 5.5
287(9) 0.01163 302.4 5.5
310(10) 0.01098 302.4 5.5
308(9) 0.01206 302.5 5.4
330(10) 0.01063 302.5 5.4
297(9) 0.01165 302.5 5.4
319(10) 0.01014 302.5 5.4
318(10) 0.01092 302.6 5.4
295(9) 0.01251 302.6 5.4
302(9) 0.01218 302.6 5.4
305(9) 0.01122 302.6 5.4
294(9) 0.01205 302.6 5.3
315(10) 0.01099 302.6 5.3
318(9) 0.01178 302.6 5.4
310(10) 0.01097 302.6 5.4
297(9) 0.01173 302.6 5.4
291(9) 0.01212 302.6 5.4
295(9) 0.01238 302.6 5.4
320(9) 0.01167 302.6 5.4
312(9) 0.01124 302.6 5.4
297(9) 0.01138 302.6 5.5
327(10) 0.01021 302.6 5.5
328(10) 0.01102 302.6 5.5
322(9) 0.01167 302.6 5.6
298(9) 0.01170 302.6 5.6
297(10) 0.01085 302.6 5.6
288(9) 0.01176 302.6 5.7
317(9) 0.01147 302.6 5.7
301(9) 0.01219 302.6 5.8
309(9) 0.01147 302.6 5.8
328(10) 0.00980 302.6 5.9
311(10) 0.01079 302.6 6.0
311(9) 0.01179 302.6 6.0
280(9) 0.01351 302.6 6.1
294(9) 0.01198 302.6 6.2
298(10) 0.01096 302.6 6.2
316(9) 0.01116 302.6 6.3
341(10) 0.01097 302.6 6.4
309(9) 0.01190 302.6 6.4
301(9) 0.01124 302.6 6.5
312(10) 0.01055 302.6 6.5
322(10) 0.01085 302.6 6.6
309(9) 0.01193 302.6 6.6
319(9) 0.01155 302.6 6.6
292(9) 0.01232 302.6 6.7
310(10) 0.01084 302.6 6.7
301(9) 0.01141 302.6 6.7
311(9) 0.01196 302.6 6.7
311(9) 0.01125 302.6 6.7
307(9) 0.01119 302.6 6.7
309(10) 0.01100 302.6 6.7
308(9) 0.01163 302.6 6.7
318(9) 0.01172 302.6 6.7
304(9) 0.01162 302.6 6.7
326(10) 0.01031 302.6 6.7
314(10) 0.01060 302.6 6.6
313(9) 0.01108 302.6 6.6
316(9) 0.01191 302.6 6.6
321(10) 0.01082 302.6 6.6
286(9) 0.01210 302.6 6.5
321(10) 0.01050 302.6 6.5
310(9) 0.01141 302.6 6.5
318(9) 0.01167 302.6 6.5
288(9) 0.01236 302.6 6.4
322(10) 0.01041 302.6 6.4
301(9) 0.01166 302.6 6.4
305(9) 0.01191 302.7 6.4
299(9) 0.01240 302.7 6.3
307(10) 0.01052 302.7 6.3
325(10) 0.01023 302.7 6.3
316(9) 0.01143 302.7 6.3
324(9) 0.01129 302.7 6.2
302(9) 0.01216 302.7 6.2
298(9) 0.01129 302.7 6.2
284(9) 0.01145 302.7 6.2
310(10) 0.01086 302.7 6.1
291(9) 0.01275 302.7 6.1
322(9) 0.01149 302.7 6.1
307(9) 0.01153 302.7 6.1
331(10) 0.00963 302.7 6.0
310(9) 0.01134 302.7 6.0
308(9) 0.01195 302.7 6.0
300(9) 0.01233 302.7 6.0
301(9) 0.01135 302.7 5.9
301(10) 0.01082 302.7 5.9
301(9) 0.01158 302.7 5.9
294(9) 0.01266 302.7 5.9
308(9) 0.01183 302.7 5.9
309(9) 0.01134 302.7 5.8
321(10) 0.01038 302.7 5.8
333(10) 0.01020 302.7 5.8
291(9) 0.01280 302.7 5.8
336(10) 0.01105 302.7 5.8
297(9) 0.01179 302.7 5.8
306(10) 0.01067 302.7 5.7
315(10) 0.01094 302.7 5.7
325(9) 0.01153 302.7 5.7
320(9) 0.01130 302.7 5.7
289(9) 0.01231 302.7 5.7
311(10) 0.01047 302.7 5.7
295(9) 0.01143 302.7 5.6
325(9) 0.01145 302.7 5.6
312(9) 0.01163 302.7 5.6
281(9) 0.01240 302.7 5.6
306(9) 0.01113 302.7 5.6
301(9) 0.01181 302.7 5.6
317(9) 0.01176 302.7 5.5
336(10) 0.01019 302.7 5.5
303(9) 0.01164 302.7 5.5
290(9) 0.01190 302.7 5.5
293(9) 0.01209 302.7 5.5
289(9) 0.01299 302.7 5.5
299(9) 0.01199 302.7 5.5
324(10) 0.01041 302.7 5.5
316(9) 0.01111 302.7 5.4
300(9) 0.01222 302.7 5.4
323(9) 0.01165 302.7 5.4
301(9) 0.01152 302.7 5.4
305(10) 0.01073 302.7 5.4
295(9) 0.01173 302.7 5.4
315(9) 0.01150 302.7 5.4
326(9) 0.01133 302.7 5.4
304(9) 0.01113 302.7 5.4
309(10) 0.01100 302.7 5.4
331(10) 0.01030 302.7 5.4
328(9) 0.01114 302.7 5.4
300(9) 0.01243 302.7 5.5
303(9) 0.01117 302.7 5.5
305(10) 0.01057 302.7 5.5
288(9) 0.01228 302.7 5.5
302(9) 0.01244 302.7 5.5
303(9) 0.01216 302.7 5.5
311(9) 0.01133 302.7 5.6
311(10) 0.01040 302.7 5.6
292(9) 0.01199 302.7 5.6
313(9) 0.01146 302.7 5.7
321(9) 0.01155 302.7 5.7
274(9) 0.01309 302.7 5.7
311(10) 0.01042 302.8 5.8
322(10) 0.01076 302.8 5.8
329(9) 0.01126 302.8 5.9
328(9) 0.01131 302.8 5.9
314(9) 0.01108 302.8 6.0
306(10) 0.01081 302.8 6.1
301(9) 0.01154 302.8 6.2
313(9) 0.01181 302.8 6.2
312(9) 0.01149 302.8 6.3
290(9) 0.01196 302.8 6.4
324(10) 0.00978 302.8 6.5
306(9) 0.01129 302.8 6.7
303(9) 0.01215 302.8 6.8
330(10) 0.01099 302.8 6.9
336(10) 0.01024 302.8 7.1
313(10) 0.01057 302.8 7.2
309(9) 0.01111 302.8 7.4
316(9) 0.01169 302.8 7.6
346(10) 0.01038 302.8 7.8
301(9) 0.01162 302.8 8.0
299(9) 0.01139 302.8 8.3
308(9) 0.01140 302.8 8.5
323(9) 0.01150 302.8 8.8
310(9) 0.01164 302.8 9.1
294(9) 0.01181 302.8 9.4
327(10) 0.01046 302.8 9.7
296(9) 0.01194 302.8 10.0
303(9) 0.01238 302.8 10.4
301(9) 0.01140 302.8 10.7
312(10) 0.01042 302.8 11.1
309(10) 0.01101 302.8 11.5
316(9) 0.01149 302.8 11.9
322(9) 0.01145 302.8 12.3
313(9) 0.01129 302.8 12.7
318(10) 0.01070 302.8 13.1
299(9) 0.01224 302.8 13.5
307(9) 0.01201 302.8 13.8
334(10) 0.01088 302.8 14.2
300(9) 0.01164 302.8 14.5
309(10) 0.01062 302.8 14.7
328(10) 0.01036 302.8 15.0
304(9) 0.01218 302.8 15.1
299(9) 0.01253 302.8 15.2
337(10) 0.01018 302.8 15.3
306(10) 0.01104 302.8 15.2
307(9) 0.01130 302.8 15.2
304(9) 0.01219 302.8 15.0
304(9) 0.01227 302.8 14.9
296(9) 0.01238 302.8 14.7
323(10) 0.00968 302.8 14.4
277(9) 0.01300 302.8 14.1
281(9) 0.01326 302.8 13.8
292(9) 0.01249 302.8 13.5
294(9) 0.01158 302.8 13.2
327(10) 0.00958 302.8 12.9
312(9) 0.01121 302.8 12.6
290(9) 0.01282 302.8 12.3
311(9) 0.01205 302.8 12.0
317(10) 0.01048 302.8 11.7
315(10) 0.01057 302.8 11.4
323(10) 0.01074 302.8 11.2
302(9) 0.01235 302.8 10.9
303(9) 0.01171 302.8 10.7
293(9) 0.01231 302.8 10.5
308(10) 0.01095 302.8 10.3
318(9) 0.01127 302.8 10.2
317(9) 0.01172 302.8 10.0
314(9) 0.01158 302.8 9.9
324(10) 0.01043 302.8 9.8
306(9) 0.01123 302.8 9.7
331(10) 0.01058 302.8 9.6
317(9) 0.01161 302.8 9.6
298(9) 0.01211 302.9 9.5
310(10) 0.01106 302.9 9.5
304(10) 0.01092 302.9 9.4
297(9) 0.01184 302.9 9.4
295(9) 0.01269 302.9 9.4
295(9) 0.01180 302.9 9.5
305(10) 0.01100 302.9 9.5
304(9) 0.01124 302.9 9.5
316(9) 0.01131 302.9 9.6
336(10) 0.01099 302.9 9.6
315(9) 0.01111 302.9 9.7
320(10) 0.01075 302.9 9.8
321(10) 0.01106 302.9 9.9
317(9) 0.01157 302.9 10.1
327(9) 0.01145 302.9 10.2
313(9) 0.01125 302.9 10.4
306(10) 0.01068 302.9 10.6
310(9) 0.01136 302.9 10.9
310(9) 0.01176 302.9 11.1
302(9) 0.01216 302.9 11.4
315(9) 0.01123 302.9 11.7
360(11) 0.00875 302.9 12.1
319(10) 0.01088 302.9 12.5
329(9) 0.01111 302.9 12.9
308(9) 0.01198 302.9 13.4
313(9) 0.01127 302.9 13.9
334(10) 0.00958 302.9 14.5
331(10) 0.01082 302.9 15.1
315(9) 0.01188 302.9 15.8
308(9) 0.01183 302.9 16.5
316(9) 0.01118 302.9 17.2
332(10) 0.00975 302.9 18.0
326(10) 0.01063 302.9 18.9
355(10) 0.01051 302.9 19.7
331(9) 0.01116 302.9 20.6
316(10) 0.01097 302.9 21.5
336(10) 0.00986 302.9 22.4
330(10) 0.01077 302.9 23.3
308(9) 0.01195 302.9 24.2
329(9) 0.01114 302.9 24.9
337(10) 0.01027 302.9 25.6
332(10) 0.00975 302.9 26.2
332(10) 0.01043 302.9 26.7
358(10) 0.01035 302.9 27.0
353(10) 0.01014 302.9 27.1
327(10) 0.01040 302.9 27.1
361(11) 0.00905 302.9 26.9
324(9) 0.01111 302.9 26.5
334(9) 0.01110 302.9 25.9
324(10) 0.01079 302.9 25.3
340(10) 0.00995 302.9 24.5
359(10) 0.00962 302.9 23.6
316(9) 0.01113 302.9 22.7
301(9) 0.01233 302.9 21.7
329(10) 0.01048 302.9 20.8
313(9) 0.01109 302.9 19.8
334(10) 0.00998 302.9 18.8
320(9) 0.01116 302.9 17.9
302(9) 0.01236 302.9 17.0
294(9) 0.01198 302.9 16.1
328(10) 0.00981 302.9 15.3
296(9) 0.01166 302.9 14.5
337(10) 0.01066 302.9 13.8
315(9) 0.01188 302.9 13.1
301(10) 0.01102 302.9 12.5
296(9) 0.01130 302.9 11.9
294(9) 0.01167 302.9 11.4
303(9) 0.01207 302.9 10.9
317(9) 0.01181 302.9 10.5
307(9) 0.01152 302.9 10.0
319(10) 0.01007 302.9 9.7
301(9) 0.01192 302.9 9.3
329(9) 0.01128 303.0 9.1
327(9) 0.01116 303.0 8.8
301(9) 0.01133 303.0 8.6
324(10) 0.00951 303.0 8.3
309(10) 0.01099 303.0 8.2
314(9) 0.01160 303.0 8.0
308(9) 0.01177 303.0 7.9
293(9) 0.01120 303.0 7.7
293(10) 0.01082 303.0 7.6
300(9) 0.01150 303.0 7.5
303(9) 0.01228 303.0 7.5
312(9) 0.01179 303.0 7.4
326(10) 0.01035 303.0 7.3
281(9) 0.01211 303.0 7.3
285(9) 0.01219 303.0 7.3
292(9) 0.01285 303.0 7.2
314(9) 0.01134 303.0 7.2
303(9) 0.01151 303.0 7.2
325(10) 0.01043 303.0 7.1
315(10) 0.01076 303.0 7.1
288(9) 0.01274 303.0 7.1
307(9) 0.01171 303.0 7.0
303(9) 0.01169 303.0 7.0
315(10) 0.01093 303.0 7.0
323(10) 0.01072 303.0 6.9
312(9) 0.01172 303.0 6.9
302(9) 0.01217 303.0 6.8
311(10) 0.01079 303.0 6.7
296(9) 0.01194 303.0 6.7
324(10) 0.01096 303.0 6.6
318(9) 0.01163 303.0 6.5
320(9) 0.01110 303.0 6.4
298(10) 0.01105 303.0 6.4
291(9) 0.01187 303.0 6.3
277(9) 0.01322 303.0 6.2
310(9) 0.01196 303.0 6.1
321(10) 0.01101 303.0 6.0
294(9) 0.01166 303.0 5.9
319(10) 0.01054 303.0 5.9
293(9) 0.01250 303.0 5.8
294(9) 0.01269 303.0 5.7
324(10) 0.01067 303.0 5.6
309(10) 0.01075 303.0 5.6
316(10) 0.01086 303.0 5.5
317(9) 0.01153 303.0 5.4
309(9) 0.01204 303.0 5.4
323(10) 0.01035 303.0 5.3
300(10) 0.01099 303.0 5.3
286(9) 0.01220 303.0 5.2
291(9) 0.01273 303.0 5.2
271(9) 0.01362 303.0 5.1
308(9) 0.01122 303.0 5.1
336(10) 0.00920 303.0 5.1
288(9) 0.01185 303.0 5.0
323(9) 0.01126 303.0 5.0
298(9) 0.01266 303.0 5.0
314(9) 0.01129 303.0 5.0
301(10) 0.01087 303.0 5.0
304(9) 0.01109 303.0 5.0
340(10) 0.01099 303.0 5.0
335(10) 0.01089 303.0 5.0
301(9) 0.01143 303.0 5.0
312(10) 0.01075 303.0 5.0
333(10) 0.01019 303.0 5.0
319(9) 0.01165 303.0 5.1
275(9) 0.01335 303.0 5.1
272(9) 0.01332 303.0 5.1
299(9) 0.01112 303.0 5.2
317(10) 0.01098 303.0 5.2
329(9) 0.01139 303.0 5.3
284(9) 0.01248 303.0 5.4
288(9) 0.01213 303.0 5.4
300(9) 0.01166 303.1 5.5
289(9) 0.01246 303.1 5.6
319(9) 0.01172 303.1 5.7
316(9) 0.01142 303.1 5.9
316(10) 0.01080 303.1 6.0
300(9) 0.01127 303.1 6.1
317(10) 0.01105 303.1 6.3
308(9) 0.01202 303.1 6.5
299(9) 0.01185 303.1 6.7
320(10) 0.01065 303.1 7.0
328(9) 0.01117 303.1 7.2
327(10) 0.01095 303.1 7.5
311(9) 0.01187 303.1 7.9
307(9) 0.01141 303.1 8.3
311(9) 0.01117 303.1 8.7
321(10) 0.01072 303.1 9.2
322(9) 0.01109 303.1 9.8
323(9) 0.01161 303.1 10.4
335(10) 0.01021 303.1 11.0
361(10) 0.00911 303.1 11.8
329(10) 0.01056 303.1 12.5
319(9) 0.01126 303.1 13.4
313(9) 0.01181 303.1 14.2
327(10) 0.01067 303.1 15.0
331(10) 0.01016 303.1 15.9
339(10) 0.01035 303.1 16.6
321(10) 0.01106 303.1 17.2
299(9) 0.01257 303.1 17.7
299(9) 0.01112 303.1 18.0
312(10) 0.01015 303.1 18.0
337(10) 0.00991 303.1 17.9
309(9) 0.01184 303.1 17.7
296(9) 0.01263 303.1 17.3
325(10) 0.01055 303.1 16.9
321(10) 0.01012 303.1 16.4
343(10) 0.01015 303.1 15.9
329(9) 0.01136 303.1 15.5
310(9) 0.01176 303.1 15.2
340(10) 0.01030 303.1 14.8
285(9) 0.01178 303.1 14.6
303(9) 0.01148 303.1 14.4
292(9) 0.01275 303.1 14.3
324(9) 0.01113 303.1 14.2
333(10) 0.01050 303.1 14.2
349(10) 0.00987 303.1 14.3
347(10) 0.01031 303.1 14.4
309(9) 0.01207 303.1 14.5
305(9) 0.01168 303.1 14.7
317(10) 0.01086 303.1 14.9
349(10) 0.00953 303.1 15.2
325(10) 0.01063 303.1 15.4
326(9) 0.01132 303.1 15.7
338(10) 0.01047 303.1 16.0
313(9) 0.01138 303.1 16.3
325(10) 0.01034 303.1 16.7
333(10) 0.01018 303.1 17.0
328(9) 0.01151 303.1 17.3
325(10) 0.01067 303.1 17.6
312(10) 0.01067 303.1 17.8
321(10) 0.01013 303.1 18.1
312(9) 0.01152 303.1 18.3
339(10) 0.01099 303.1 18.5
337(10) 0.01052 303.1 18.7
351(10) 0.00940 303.1 18.9
326(10) 0.01033 303.1 19.0
318(9) 0.01153 303.1 19.1
312(9) 0.01188 303.1 19.1
321(10) 0.01062 303.1 19.1
305(10) 0.01105 303.1 19.1
352(10) 0.00970 303.1 19.1
318(9) 0.01166 303.1 19.1
319(9) 0.01161 303.1 19.0
314(10) 0.01081 303.2 18.9
354(10) 0.00919 303.2 18.8
332(10) 0.01034 303.2 18.7
351(10) 0.01042 303.2 18.6
338(10) 0.01104 303.2 18.5
310(9) 0.01145 303.2 18.4
329(10) 0.00967 303.2 18.3
314(9) 0.01110 303.2 18.2
344(10) 0.01063 303.2 18.1
320(9) 0.01169 303.2 18.1
344(10) 0.00963 303.2 18.1
328(10) 0.00978 303.2 18.1
328(10) 0.01077 303.2 18.1
320(9) 0.01188 303.2 18.2
321(9) 0.01143 303.2 18.3
346(10) 0.00995 303.2 18.4
325(10) 0.00995 303.2 18.6
293(9) 0.01210 303.2 18.8
310(9) 0.01188 303.2 19.0
332(10) 0.01094 303.2 19.3
323(10) 0.01079 303.2 19.7
291(9) 0.01176 303.2 20.1
293(9) 0.01231 303.2 20.6
327(9) 0.01128 303.2 21.1
345(10) 0.01038 303.2 21.7
343(10) 0.00996 303.2 22.3
318(10) 0.01088 303.2 22.9
326(10) 0.01020 303.2 23.6
333(9) 0.01117 303.2 24.3
330(10) 0.01097 303.2 25.0
337(10) 0.01063 303.2 25.6
322(10) 0.01067 303.2 26.2
347(10) 0.00994 303.2 26.7
329(9) 0.01123 303.2 27.0
341(10) 0.01031 303.2 27.2
343(10) 0.00985 303.2 27.3
339(10) 0.00989 303.2 27.1
342(10) 0.01042 303.2 26.7
328(9) 0.01131 303.2 26.2
316(9) 0.01118 303.2 25.6
332(10) 0.01026 303.2 24.8
339(10) 0.01034 303.2 23.9
334(10) 0.01077 303.2 23.0
319(9) 0.01158 303.2 22.0
328(10) 0.01072 303.2 21.1
329(10) 0.01030 303.2 20.1
344(10) 0.00997 303.2 19.2
320(9) 0.01132 303.2 18.4
305(9) 0.01210 303.2 17.6
310(9) 0.01134 303.2 16.8
334(10) 0.00969 303.2 16.1
319(10) 0.01102 303.2 15.5
313(9) 0.01145 303.2 14.9
335(9) 0.01114 303.2 14.3
331(10) 0.01028 303.2 13.8
327(10) 0.01002 303.2 13.4
314(10) 0.01095 303.2 13.0
334(10) 0.01106 303.2 12.6
313(9) 0.01175 303.2 12.3
321(10) 0.01092 303.2 12.0
315(10) 0.01073 303.2 11.8
325(10) 0.01051 303.2 11.6
294(9) 0.01261 303.2 11.4
312(9) 0.01179 303.2 11.3
318(10) 0.01105 303.2 11.2
319(10) 0.01024 303.2 11.1
314(9) 0.01132 303.2 11.1
327(9) 0.01116 303.2 11.1
314(9) 0.01172 303.2 11.1
308(10) 0.01107 303.2 11.1
312(10) 0.01086 303.2 11.3
297(9) 0.01178 303.2 11.4
286(9) 0.01311 303.3 11.6
304(9) 0.01156 303.3 11.8
310(10) 0.01075 303.3 12.1
315(10) 0.01046 303.3 12.4
335(10) 0.01021 303.3 12.7
303(9) 0.01207 303.3 13.1
303(9) 0.01183 303.3 13.6
333(10) 0.01019 303.3 14.1
304(9) 0.01127 303.3 14.7
330(10) 0.01031 303.3 15.3
344(10) 0.01065 303.3 15.9
301(9) 0.01174 303.3 16.6
330(10) 0.01021 303.3 17.4
342(10) 0.01001 303.3 18.1
324(10) 0.01077 303.3 18.9
298(9) 0.01241 303.3 19.7
307(9) 0.01177 303.3 20.4
335(10) 0.01014 303.3 21.1
339(10) 0.01013 303.3 21.7
337(10) 0.01059 303.3 22.2
335(10) 0.01108 303.3 22.5
346(10) 0.00974 303.3 22.7
325(10) 0.01012 303.3 22.7
311(10) 0.01084 303.3 22.5
332(10) 0.01065 303.3 22.2
332(9) 0.01126 303.3 21.7
338(10) 0.01048 303.3 21.1
319(10) 0.01098 303.3 20.3
295(9) 0.01144 303.3 19.6
295(9) 0.01247 303.3 18.8
318(9) 0.01161 303.3 17.9
330(10) 0.01021 303.3 17.1
314(10) 0.01049 303.3 16.3
319(10) 0.01054 303.3 15.5
304(9) 0.01217 303.3 14.8
292(9) 0.01279 303.3 14.1
321(10) 0.01061 303.3 13.5
339(10) 0.00942 303.3 12.9
314(9) 0.01115 303.3 12.4
341(10) 0.01088 303.3 11.9
315(9) 0.01161 303.3 11.5
297(9) 0.01194 303.3 11.1
293(9) 0.01123 303.3 10.7
322(10) 0.01079 303.3 10.4
287(9) 0.01307 303.3 10.2
313(9) 0.01161 303.3 10.0
301(9) 0.01159 303.3 9.8
310(10) 0.01024 303.3 9.7
316(10) 0.01075 303.3 9.7
308(9) 0.01216 303.3 9.6
305(9) 0.01163 303.3 9.6
329(10) 0.01009 303.3 9.7
321(10) 0.01023 303.3 9.8
320(10) 0.01084 303.3 10.0
326(9) 0.01147 303.3 10.3
308(9) 0.01189 303.3 10.6
312(9) 0.01131 303.3 11.0
305(10) 0.01098 303.3 11.5
306(9) 0.01132 303.3 12.1
326(9) 0.01141 303.3 12.7
291(9) 0.01183 303.3 13.5
325(10) 0.01041 303.3 14.3
320(10) 0.01031 303.3 15.2
317(10) 0.01086 303.3 16.1
321(9) 0.01163 303.3 16.9
321(10) 0.01098 303.3 17.7
328(10) 0.01004 303.3 18.2
302(9) 0.01125 303.3 18.4
324(10) 0.01108 303.3 18.3
318(9) 0.01168 303.3 17.9
320(9) 0.01137 303.3 17.3
303(9) 0.01133 303.3 16.6
305(9) 0.01118 303.4 15.8
311(9) 0.01171 303.4 15.0
314(9) 0.01183 303.4 14.3
312(9) 0.01116 303.4 13.6
314(10) 0.01098 303.4 13.0
308(9) 0.01146 303.4 12.5
306(9) 0.01203 303.4 12.1
311(9) 0.01205 303.4 11.8
322(10) 0.01067 303.4 11.5
304(9) 0.01113 303.4 11.3
317(9) 0.01136 303.4 11.2
315(9) 0.01173 303.4 11.1
320(9) 0.01149 303.4 11.0
337(10) 0.01043 303.4 11.0
315(10) 0.01064 303.4 11.0
318(10) 0.01100 303.4 11.1
329(9) 0.01133 303.4 11.1
321(9) 0.01144 303.4 11.2
328(10) 0.01014 303.4 11.3
301(10) 0.01057 303.4 11.5
322(10) 0.01079 303.4 11.6
327(9) 0.01132 303.4 11.8
316(9) 0.01157 303.4 11.9
313(10) 0.01088 303.4 12.1
290(9) 0.01147 303.4 12.4
293(9) 0.01164 303.4 12.6
320(9) 0.01158 303.4 12.8
286(9) 0.01296 303.4 13.1
301(9) 0.01172 303.4 13.4
319(10) 0.01022 303.4 13.7
309(9) 0.01108 303.4 14.1
300(9) 0.01228 303.4 14.5
287(9) 0.01297 303.4 14.9
328(10) 0.01046 303.4 15.4
317(10) 0.01055 303.4 15.9
328(10) 0.01052 303.4 16.5
333(9) 0.01110 303.4 17.1
309(9) 0.01184 303.4 17.9
321(10) 0.01104 303.4 18.7
324(10) 0.01062 303.4 19.6
348(10) 0.01028 303.4 20.6
330(9) 0.01129 303.4 21.7
343(10) 0.01024 303.4 23.0
358(10) 0.00959 303.4 24.5
333(10) 0.01076 303.4 26.1
318(9) 0.01136 303.4 27.9
350(10) 0.01072 303.4 30.0
334(10) 0.01057 303.4 32.4
369(10) 0.00924 303.4 35.0
358(10) 0.00956 303.4 37.9
375(10) 0.00939 303.4 41.1
339(10) 0.01093 303.4 44.6
357(10) 0.00959 303.4 48.5
357(10) 0.00926 303.4 52.7
376(11) 0.00888 303.4 57.3
423(11) 0.00858 303.4 62.2
397(10) 0.00949 303.4 67.3
382(10) 0.00914 303.4 72.7
401(11) 0.00859 303.4 78.1
420(11) 0.00841 303.4 83.5
400(10) 0.00933 303.4 88.7
414(11) 0.00894 303.4 93.5
423(11) 0.00805 303.4 97.7
437(12) 0.00725 303.4 101.0
456(12) 0.00754 303.4 103.2
460(11) 0.00808 303.4 104.3
422(11) 0.00870 303.4 104.2
405(11) 0.00875 303.4 102.8
424(12) 0.00755 303.4 100.3
422(11) 0.00830 303.4 96.8
419(11) 0.00893 303.4 92.6
408(11) 0.00891 303.4 87.8
367(10) 0.00961 303.5 82.7
366(11) 0.00892 303.5 77.4
383(10) 0.00922 303.5 72.1
364(10) 0.01009 303.5 66.9
381(10) 0.00959 303.5 61.9
372(10) 0.00958 303.5 57.1
364(11) 0.00879 303.5 52.7
360(10) 0.00968 303.5 48.5
378(10) 0.00971 303.5 44.6
370(10) 0.00997 303.5 41.1
365(10) 0.00943 303.5 37.8
340(10) 0.00989 303.5 34.9
320(10) 0.01084 303.5 32.2
327(9) 0.01136 303.5 29.8
319(9) 0.01139 303.5 27.6
338(10) 0.01018 303.5 25.7
340(10) 0.01005 303.5 24.0
331(10) 0.01050 303.5 22.4
317(9) 0.01182 303.5 21.0
320(9) 0.01114 303.5 19.8
323(10) 0.01064 303.5 18.6
320(10) 0.01061 303.5 17.6
330(10) 0.01055 303.5 16.8
310(9) 0.01213 303.5 16.0
334(10) 0.01042 303.5 15.2
311(10) 0.01067 303.5 14.6
313(10) 0.01104 303.5 14.0
326(10) 0.01104 303.5 13.5
329(9) 0.01123 303.5 13.0
305(10) 0.01097 303.5 12.6
315(10) 0.01026 303.5 12.2
310(9) 0.01131 303.5 11.8
317(9) 0.01140 303.5 11.5
292(9) 0.01287 303.5 11.2
307(9) 0.01170 303.5 11.0
318(10) 0.01059 303.5 10.8
297(9) 0.01180 303.5 10.6
326(9) 0.01118 303.5 10.4
322(9) 0.01159 303.5 10.2
332(10) 0.01061 303.5 10.1
329(10) 0.01012 303.5 10.0
348(10) 0.01037 303.5 9.9
307(9) 0.01204 303.5 9.8
324(9) 0.01143 303.5 9.7
295(9) 0.01222 303.5 9.6
307(10) 0.01074 303.5 9.6
281(9) 0.01266 303.5 9.5
314(9) 0.01181 303.5 9.5
298(9) 0.01243 303.5 9.5
315(10) 0.01032 303.5 9.4
304(10) 0.01008 303.5 9.4
294(9) 0.01179 303.5 9.4
323(9) 0.01154 303.5 9.3
298(9) 0.01256 303.5 9.3
311(9) 0.01132 303.5 9.3
290(9) 0.01186 303.5 9.2
298(9) 0.01153 303.5 9.2
292(9) 0.01266 303.5 9.1
303(9) 0.01197 303.5 9.0
325(10) 0.01082 303.5 8.9
322(10) 0.01019 303.5 8.9
304(9) 0.01113 303.5 8.8
291(9) 0.01278 303.5 8.7
305(9) 0.01199 303.5 8.5
314(10) 0.01076 303.5 8.4
280(9) 0.01226 303.5 8.3
310(9) 0.01137 303.5 8.2
315(9) 0.01188 303.5 8.1
279(9) 0.01300 303.5 8.0
325(10) 0.01025 303.5 7.9
319(10) 0.01023 303.5 7.8
285(9) 0.01207 303.5 7.7
295(9) 0.01257 303.6 7.6
298(9) 0.01203 303.6 7.6
312(10) 0.01073 303.6 7.5
301(9) 0.01154 303.6 7.4
291(9) 0.01268 303.6 7.4
335(9) 0.01112 303.6 7.3
308(9) 0.01128 303.6 7.3
293(9) 0.01147 303.6 7.2
315(10) 0.01101 303.6 7.2
311(9) 0.01168 303.6 7.2
286(9) 0.01302 303.6 7.1
316(9) 0.01119 303.6 7.1
313(10) 0.01068 303.6 7.1
289(9) 0.01220 303.6 7.1
306(9) 0.01176 303.6 7.1
313(9) 0.01178 303.6 7.2
294(9) 0.01194 303.6 7.2
316(10) 0.01014 303.6 7.2
284(9) 0.01267 303.6 7.2
337(10) 0.01085 303.6 7.3
317(9) 0.01158 303.6 7.3
316(10) 0.01070 303.6 7.4
322(10) 0.00977 303.6 7.4
303(9) 0.01121 303.6 7.5
305(9) 0.01212 303.6 7.5
315(9) 0.01162 303.6 7.6
301(9) 0.01177 303.6 7.7
303(10) 0.01108 303.6 7.7
292(9) 0.01213 303.6 7.8
330(9) 0.01122 303.6 7.9
303(9) 0.01204 303.6 8.0
308(9) 0.01111 303.5 8.1
337(10) 0.00953 303.5 8.1
308(9) 0.01190 303.5 8.2
323(9) 0.01139 303.5 8.3
305(9) 0.01203 303.5 8.4
328(10) 0.01075 303.4 8.4
311(10) 0.01071 303.4 8.5
320(10) 0.01095 303.4 8.6
305(9) 0.01226 303.4 8.6
292(9) 0.01249 303.4 8.7
300(9) 0.01148 303.4 8.7
325(10) 0.01039 303.3 8.8
297(9) 0.01162 303.3 8.8
318(9) 0.01176 303.3 8.8
293(9) 0.01247 303.3 8.9
327(10) 0.01023 303.3 8.9
294(9) 0.01187 303.3 8.9
319(10) 0.01050 303.2 9.0
316(9) 0.01183 303.2 9.0
320(10) 0.01087 303.2 9.0
325(10) 0.01061 303.2 9.0
324(10) 0.01065 303.2 9.0
317(10) 0.01081 303.1 9.1
301(9) 0.01240 303.1 9.1
311(9) 0.01112 303.1 9.1
309(10) 0.01052 303.1 9.1
307(9) 0.01123 303.1 9.2
303(9) 0.01184 303.1 9.2
279(9) 0.01342 303.0 9.3
303(9) 0.01111 303.0 9.3
324(10) 0.01029 303.0 9.3
333(10) 0.01040 303.0 9.4
315(9) 0.01153 303.0 9.4
289(9) 0.01280 303.0 9.5
308(9) 0.01129 302.9 9.5
297(10) 0.01086 302.9 9.6
290(9) 0.01227 302.9 9.7
308(9) 0.01190 302.9 9.7
293(9) 0.01260 302.9 9.8
285(9) 0.01258 302.8 9.9
325(10) 0.01021 302.8 10.0
325(10) 0.01095 302.8 10.0
309(9) 0.01210 302.8 10.1
333(9) 0.01112 302.8 10.2
289(9) 0.01209 302.8 10.4
310(10) 0.01011 302.7 10.5
341(10) 0.01014 302.7 10.6
309(9) 0.01171 302.7 10.7
319(9) 0.01158 302.7 10.9
309(9) 0.01166 302.7 11.0
304(10) 0.01088 302.7 11.2
301(10) 0.01104 302.6 11.4
309(9) 0.01192 302.6 11.5
289(9) 0.01274 302.6 11.7
324(10) 0.01072 302.6 11.9
335(10) 0.00956 302.6 12.2
312(10) 0.01060 302.6 12.4
301(9) 0.01227 302.5 12.7
294(9) 0.01267 302.5 12.9
324(10) 0.01059 302.5 13.2
316(10) 0.01026 302.5 13.5
303(9) 0.01123 302.5 13.8
324(9) 0.01144 302.4 14.2
300(9) 0.01186 302.4 14.5
312(10) 0.01051 302.4 14.9
314(10) 0.01097 302.4 15.3
352(10) 0.00953 302.4 15.7
322(9) 0.01149 302.4 16.2
320(10) 0.01098 302.3 16.7
301(9) 0.01130 302.3 17.2
298(9) 0.01127 302.3 17.7
310(9) 0.01134 302.3 18.3
310(9) 0.01182 302.3 18.9
293(9) 0.01189 302.3 19.5
318(10) 0.01049 302.2 20.1
341(10) 0.01017 302.2 20.8
351(10) 0.01019 302.2 21.5
286(9) 0.01286 302.2 22.3
340(10) 0.00995 302.2 23.1
308(9) 0.01155 302.1 23.9
346(10) 0.01004 302.1 24.8
324(9) 0.01140 302.1 25.6
341(10) 0.01096 302.1 26.6
343(10) 0.01001 302.1 27.5
336(10) 0.00972 302.1 28.5
333(10) 0.01046 302.0 29.6
369(10) 0.00981 302.0 30.7
339(10) 0.01102 302.0 31.8
324(10) 0.01077 302.0 32.9
338(10) 0.01007 302.0 34.1
336(10) 0.01044 302.0 35.3
352(10) 0.01044 301.9 36.5
359(10) 0.01035 301.9 37.7
348(10) 0.01033 301.9 38.9
351(10) 0.00912 301.9 40.2
328(10) 0.01006 301.9 41.5
371(10) 0.01001 301.8 42.7
365(10) 0.01013 301.8 43.9
388(11) 0.00891 301.8 45.2
347(10) 0.00934 301.8 46.4
340(10) 0.01049 301.8 47.6
367(10) 0.00990 301.8 48.7
366(10) 0.01013 301.7 49.8
353(10) 0.00970 301.7 50.8
358(10) 0.00934 301.7 51.8
374(10) 0.00925 301.7 52.7
356(10) 0.01039 301.7 53.6
382(10) 0.00955 301.7 54.4
341(10) 0.01023 301.6 55.1
336(10) 0.01027 301.6 55.8
365(11) 0.00892 301.6 56.3
341(10) 0.01100 301.6 56.8
369(10) 0.01000 301.6 57.3
382(11) 0.00890 301.5 57.6
370(10) 0.00911 301.5 57.9
370(10) 0.00943 301.5 58.0
357(10) 0.01037 301.5 58.1
362(10) 0.00990 301.5 58.1
327(10) 0.01075 301.5 57.9
339(10) 0.01049 301.4 57.7
349(10) 0.01038 301.4 57.3
371(10) 0.00999 301.4 56.8
345(10) 0.01019 301.4 56.1
331(10) 0.01024 301.4 55.4
359(10) 0.00942 301.4 54.5
359(10) 0.00985 301.3 53.5
358(10) 0.01041 301.3 52.4
349(10) 0.00987 301.3 51.1
351(10) 0.00982 301.3 49.8
353(10) 0.00981 301.3 48.4
355(10) 0.01000 301.2 47.0
358(10) 0.01043 301.2 45.5
331(10) 0.01060 301.2 44.1
354(10) 0.00953 301.2 42.6
367(10) 0.00955 301.2 41.1
332(10) 0.01100 301.2 39.6
344(10) 0.01083 301.1 38.2
347(10) 0.01008 301.1 36.8
338(10) 0.01008 301.1 35.4
347(10) 0.00999 301.1 34.1
327(9) 0.01126 301.1 32.8
320(9) 0.01158 301.1 31.6
323(10) 0.01064 301.0 30.4
317(10) 0.01027 301.0 29.3
322(10) 0.01091 301.0 28.2
302(9) 0.01221 301.0 27.2
327(9) 0.01116 301.0 26.2
316(10) 0.01105 301.0 25.3
343(10) 0.00929 300.9 24.4
329(10) 0.01070 300.9 23.6
301(9) 0.01236 300.9 22.9
316(9) 0.01167 300.9 22.1
322(10) 0.01071 300.9 21.4
315(10) 0.01009 300.8 20.8
309(9) 0.01116 300.8 20.2
331(9) 0.01121 300.8 19.6
300(9) 0.01227 300.8 19.1
325(10) 0.01063 300.8 18.6
333(10) 0.01003 300.8 18.1
317(10) 0.01106 300.7 17.6
333(9) 0.01121 300.7 17.2
330(10) 0.01073 300.7 16.8
303(9) 0.01117 300.7 16.4
315(10) 0.01072 300.7 16.1
328(10) 0.01069 300.7 15.7
339(10) 0.01096 300.6 15.4
348(10) 0.00995 300.6 15.1
308(9) 0.01171 300.6 14.8
318(10) 0.01080 300.6 14.6
313(9) 0.01168 300.6 14.3
306(9) 0.01224 300.5 14.1
321(10) 0.01070 300.5 13.8
302(9) 0.01118 300.5 13.6
312(10) 0.01075 300.5 13.4
314(10) 0.01107 300.5 13.2
296(9) 0.01262 300.5 13.0
298(9) 0.01158 300.4 12.8
314(10) 0.01044 300.4 12.6
286(9) 0.01259 300.4 12.4
295(9) 0.01201 300.4 12.3
306(9) 0.01222 300.4 12.1
314(9) 0.01119 300.4 11.9
277(9) 0.01204 300.3 11.8
330(10) 0.01017 300.3 11.6
339(10) 0.01081 300.3 11.5
318(9) 0.01175 300.3 11.4
325(10) 0.01067 300.3 11.2
315(10) 0.01026 300.2 11.1
308(9) 0.01112 300.2 11.0
309(9) 0.01217 300.2 10.8
303(9) 0.01224 300.2 10.7
305(9) 0.01136 300.2 10.6
321(10) 0.01019 300.2 10.5
299(9) 0.01132 300.1 10.4
308(9) 0.01212 300.1 10.2
283(9) 0.01297 300.1 10.1
268(9) 0.01283 300.1 10.0
286(9) 0.01114 300.1 9.9
293(9) 0.01222 300.1 9.8
304(9) 0.01224 300.0 9.7
294(9) 0.01251 300.0 9.6
301(9) 0.01160 300.0 9.5
314(10) 0.01030 300.0 9.4
302(9) 0.01136 300.0 9.3
255(8) 0.01460 299.9 9.2
308(9) 0.01184 299.9 9.1
299(9) 0.01179 299.9 9.1
288(9) 0.01180 299.9 9.0
295(9) 0.01181 299.9 8.9
289(9) 0.01284 299.9 8.8
305(9) 0.01224 299.8 8.7
319(10) 0.01085 299.8 8.7
310(10) 0.01102 299.8 8.6
314(10) 0.01082 299.8 8.5
322(9) 0.01150 299.8 8.5
299(9) 0.01189 299.8 8.4
286(9) 0.01237 299.7 8.3
303(9) 0.01163 299.7 8.3
285(9) 0.01198 299.7 8.2
283(9) 0.01309 299.7 8.2
313(9) 0.01112 299.7 8.1
295(9) 0.01121 299.7 8.1
285(9) 0.01186 299.6 8.0
302(9) 0.01151 299.6 8.0
297(9) 0.01267 299.6 7.9
311(10) 0.01087 299.6 7.9
267(9) 0.01285 299.6 7.8
306(10) 0.01076 299.5 7.8
282(9) 0.01246 299.5 7.8
332(9) 0.01114 299.5 7.7
306(9) 0.01144 299.5 7.7
297(9) 0.01117 299.5 7.7
300(9) 0.01145 299.5 7.6
287(9) 0.01233 299.4 7.6
317(9) 0.01161 299.4 7.6
307(9) 0.01134 299.4 7.6
303(10) 0.01067 299.4 7.6
273(9) 0.01300 299.4 7.6
297(9) 0.01211 299.4 7.5
282(9) 0.01323 299.3 7.5
307(9) 0.01114 299.3 7.5
320(10) 0.01005 299.3 7.5
310(10) 0.01104 299.3 7.5
316(9) 0.01178 299.3 7.5
337(10) 0.01074 299.2 7.5
311(9) 0.01137 299.2 7.5
310(10) 0.01020 299.2 7.6
321(9) 0.01116 299.2 7.6
303(9) 0.01232 299.2 7.6
295(9) 0.01241 299.2 7.6
265(9) 0.01335 299.1 7.6
304(10) 0.01039 299.1 7.6
318(10) 0.01101 299.1 7.7
307(9) 0.01220 299.1 7.7
305(9) 0.01208 299.1 7.7
302(9) 0.01119 299.1 7.8
309(10) 0.01041 299.0 7.8
314(9) 0.01127 299.0 7.8
295(9) 0.01260 299.0 7.9
308(9) 0.01167 299.0 7.9
317(10) 0.01086 299.0 8.0
312(10) 0.01037 298.9 8.0
302(10) 0.01107 298.9 8.1
313(9) 0.01186 298.9 8.1
290(9) 0.01273 298.9 8.2
287(9) 0.01198 298.9 8.2
302(9) 0.01116 298.9 8.3
302(9) 0.01154 298.8 8.3
304(9) 0.01232 298.8 8.4
303(9) 0.01183 298.8 8.5
313(10) 0.01108 298.8 8.5
304(9) 0.01152 298.8 8.6
315(9) 0.01124 298.8 8.7
296(9) 0.01251 298.7 8.8
304(9) 0.01147 298.7 8.8
288(9) 0.01203 298.7 8.9
321(10) 0.01057 298.7 9.0
300(9) 0.01228 298.7 9.1
309(9) 0.01196 298.6 9.2
303(10) 0.01099 298.6 9.2
289(9) 0.01212 298.6 9.3
300(9) 0.01170 298.6 9.4
300(9) 0.01236 298.6 9.5
287(9) 0.01288 298.6 9.6
327(10) 0.01053 298.5 9.6
314(10) 0.01056 298.5 9.7
300(9) 0.01110 298.5 9.8
277(9) 0.01307 298.5 9.9
295(9) 0.01272 298.5 10.0
285(9) 0.01214 298.5 10.0
288(9) 0.01152 298.4 10.1
298(9) 0.01182 298.4 10.2
279(9) 0.01320 298.4 10.2
319(9) 0.01150 298.4 10.3
303(9) 0.01123 298.4 10.4
287(10) 0.01086 298.4 10.4
304(9) 0.01149 298.3 10.5
310(9) 0.01182 298.3 10.6
287(9) 0.01304 298.3 10.6
312(9) 0.01136 298.3 10.7
299(10) 0.01088 298.3 10.7
309(9) 0.01120 298.3 10.8
322(9) 0.01167 298.3 10.8
312(9) 0.01154 298.2 10.9
310(9) 0.01120 298.2 10.9
299(9) 0.01161 298.2 11.0
321(10) 0.01050 298.2 11.0
311(9) 0.01200 298.2 11.1
316(9) 0.01132 298.2 11.1
320(10) 0.01045 298.1 11.2
320(10) 0.01052 298.1 11.2
353(10) 0.00964 298.1 11.3
320(9) 0.01170 298.1 11.3
309(9) 0.01170 298.1 11.4
300(9) 0.01165 298.1 11.4
317(10) 0.01053 298.0 11.5
321(10) 0.01019 298.0 11.5
308(9) 0.01212 298.0 11.6
281(9) 0.01269 298.0 11.7
288(9) 0.01237 298.0 11.7
317(10) 0.01094 298.0 11.8
305(9) 0.01160 298.0 11.8
320(9) 0.01158 297.9 11.9
296(9) 0.01196 297.9 12.0
310(10) 0.01023 297.9 12.0
299(9) 0.01110 297.9 12.1
309(9) 0.01143 297.9 12.1
293(9) 0.01277 297.9 12.2
293(9) 0.01209 297.8 12.3
304(9) 0.01112 297.8 12.3
289(9) 0.01240 297.8 12.4
297(9) 0.01223 297.8 12.4
299(9) 0.01233 297.8 12.5
282(9) 0.01240 297.8 12.5
277(9) 0.01169 297.7 12.6
306(9) 0.01139 297.7 12.6
292(9) 0.01270 297.7 12.6
311(9) 0.01205 297.7 12.6
338(10) 0.01029 297.7 12.7
316(10) 0.01048 297.7 12.7
291(9) 0.01205 297.7 12.7
295(9) 0.01260 297.6 12.7
291(9) 0.01274 297.6 12.7
302(9) 0.01174 297.6 12.7
318(10) 0.01024 297.6 12.7
304(9) 0.01135 297.6 12.6
308(9) 0.01208 297.6 12.6
300(9) 0.01232 297.5 12.6
308(9) 0.01161 297.5 12.5
332(10) 0.00985 297.5 12.5
302(9) 0.01149 297.5 12.4
285(9) 0.01323 297.5 12.4
284(9) 0.01293 297.5 12.3
341(10) 0.01008 297.4 12.3
313(10) 0.01056 297.4 12.2
269(9) 0.01349 297.4 12.1
323(9) 0.01137 297.4 12.1
315(9) 0.01147 297.4 12.0
317(10) 0.01088 297.4 11.9
326(10) 0.00996 297.4 11.9
328(10) 0.01050 297.3 11.8
295(9) 0.01258 297.3 11.7
291(9) 0.01234 297.3 11.7
297(9) 0.01128 297.3 11.6
310(10) 0.01067 297.3 11.5
305(9) 0.01143 297.3 11.5
288(9) 0.01293 297.2 11.4
312(9) 0.01115 297.2 11.3
285(9) 0.01233 297.2 11.3
331(10) 0.00984 297.2 11.2
286(9) 0.01256 297.2 11.1
289(9) 0.01275 297.2 11.1
310(9) 0.01124 297.2 11.0
301(9) 0.01110 297.1 11.0
299(10) 0.01097 297.1 10.9
288(9) 0.01234 297.1 10.9
327(9) 0.01141 297.1 10.9
290(9) 0.01229 297.1 10.8
299(9) 0.01156 297.1 10.8
312(9) 0.01145 297.0 10.8
325(10) 0.01076 297.0 10.7
301(9) 0.01244 297.0 10.7
297(9) 0.01147 297.0 10.7
290(9) 0.01127 297.0 10.7
324(10) 0.01036 297.0 10.7
305(9) 0.01219 296.9 10.7
293(9) 0.01270 296.9 10.7
317(10) 0.01075 296.9 10.7
312(10) 0.01024 296.9 10.8
293(9) 0.01141 296.9 10.8
286(9) 0.01267 296.9 10.9
286(9) 0.01285 296.9 11.0
288(9) 0.01215 296.8 11.1
293(10) 0.01083 296.8 11.2
303(10) 0.01107 296.8 11.4
311(9) 0.01203 296.8 11.6
292(9) 0.01279 296.8 11.8
310(9) 0.01137 296.8 12.1
308(10) 0.01040 296.7 12.5
294(9) 0.01212 296.7 12.9
294(9) 0.01254 296.7 13.5
311(9) 0.01165 296.7 14.1
292(9) 0.01235 296.7 15.0
321(10) 0.01038 296.7 16.0
335(10) 0.01055 296.6 17.2
302(9) 0.01215 296.6 18.6
318(9) 0.01127 296.6 20.3
307(9) 0.01150 296.6 22.3
322(10) 0.01008 296.6 24.6
343(10) 0.00969 296.6 27.0
309(9) 0.01171 296.6 29.7
324(9) 0.01119 296.5 32.3
342(10) 0.00998 296.5 34.8
328(10) 0.00989 296.5 36.8
351(10) 0.00943 296.5 38.1
306(9) 0.01205 296.5 38.4
317(9) 0.01154 296.5 37.7
323(10) 0.01050 296.4 36.1
310(10) 0.01096 296.4 33.9
321(10) 0.01096 296.4 31.3
322(9) 0.01161 296.4 28.6
330(10) 0.01072 296.4 25.9
304(9) 0.01134 296.4 23.5
309(10) 0.01077 296.3 21.3
323(9) 0.01111 296.3 19.4
322(9) 0.01148 296.3 17.8
309(9) 0.01116 296.3 16.4
325(10) 0.01005 296.3 15.2
318(10) 0.01068 296.3 14.3
292(9) 0.01255 296.3 13.5
314(9) 0.01179 296.2 12.8
298(9) 0.01113 296.2 12.3
304(9) 0.01127 296.2 11.9
299(9) 0.01169 296.2 11.5
300(9) 0.01194 296.2 11.2
322(9) 0.01162 296.2 11.0
308(9) 0.01116 296.1 10.8
289(9) 0.01148 296.1 10.6
309(10) 0.01088 296.1 10.5
287(9) 0.01250 296.1 10.4
293(9) 0.01260 296.1 10.3
320(10) 0.01072 296.1 10.3
309(10) 0.01081 296.0 10.3
316(10) 0.01078 296.0 10.2
311(9) 0.01183 296.0 10.2
269(8) 0.01392 296.0 10.2
273(9) 0.01326 296.0 10.3
308(10) 0.01025 296.0 10.3
290(9) 0.01193 296.0 10.4
294(9) 0.01274 295.9 10.4
311(9) 0.01208 295.9 10.5
290(9) 0.01211 295.9 10.6
304(10) 0.01047 295.9 10.7
302(9) 0.01178 295.9 10.8
325(9) 0.01119 295.9 11.0
302(9) 0.01233 295.8 11.1
315(9) 0.01131 295.8 11.3
312(10) 0.01034 295.8 11.5
292(9) 0.01183 295.8 11.7
275(9) 0.01368 295.8 11.9
305(9) 0.01187 295.8 12.1
305(10) 0.01094 295.7 12.4
310(10) 0.01038 295.7 12.7
293(9) 0.01190 295.7 12.9
324(9) 0.01159 295.7 13.2
303(9) 0.01228 295.7 13.6
306(9) 0.01126 295.7 13.9
298(9) 0.01126 295.7 14.2
327(10) 0.01096 295.6 14.5
321(9) 0.01150 295.6 14.9
311(9) 0.01155 295.6 15.2
326(10) 0.01058 295.6 15.5
297(9) 0.01200 295.6 15.8
297(9) 0.01196 295.6 16.1
321(9) 0.01167 295.5 16.3
326(10) 0.01057 295.5 16.6
305(10) 0.01092 295.5 16.8
278(9) 0.01223 295.5 17.0
319(10) 0.01097 295.5 17.3
295(9) 0.01245 295.5 17.5
304(9) 0.01148 295.4 17.8
331(10) 0.00984 295.4 18.0
310(10) 0.01107 295.4 18.3
324(10) 0.01095 295.4 18.6
317(9) 0.01167 295.4 18.9
349(10) 0.01005 295.4 19.2
349(10) 0.00927 295.4 19.6
338(10) 0.01041 295.3 19.9
321(9) 0.01156 295.3 20.3
292(9) 0.01259 295.3 20.7
334(10) 0.00989 295.3 21.1
331(10) 0.00979 295.3 21.5
313(10) 0.01106 295.3 21.9
314(9) 0.01180 295.2 22.3
324(9) 0.01144 295.2 22.7
318(10) 0.01056 295.2 23.1
307(10) 0.01032 295.2 23.5
321(10) 0.01069 295.2 23.9
324(9) 0.01146 295.2 24.3
315(9) 0.01174 295.2 24.7
318(10) 0.01092 295.1 25.1
317(10) 0.00997 295.1 25.5
309(9) 0.01113 295.1 25.8
296(9) 0.01248 295.1 26.1
330(10) 0.01106 295.1 26.4
338(10) 0.01039 295.1 26.7
330(10) 0.00996 295.0 27.0
345(10) 0.00974 295.0 27.2
319(9) 0.01151 295.0 27.4
299(9) 0.01232 295.0 27.6
319(10) 0.01072 295.0 27.8
328(10) 0.00961 295.0 27.9
318(10) 0.01090 294.9 28.0
339(10) 0.01086 294.9 28.1
347(10) 0.01055 294.9 28.1
336(10) 0.01015 294.9 28.2
344(10) 0.00984 294.9 28.2
347(10) 0.00987 294.9 28.2
324(9) 0.01160 294.9 28.2
331(10) 0.01070 294.8 28.1
317(10) 0.01042 294.8 28.1
314(10) 0.01064 294.8 28.1
305(9) 0.01122 294.8 28.0
324(9) 0.01154 294.8 27.9
307(9) 0.01128 294.8 27.9
327(10) 0.01030 294.7 27.8
317(10) 0.01104 294.7 27.8
333(10) 0.01059 294.7 27.7
333(9) 0.01123 294.7 27.7
315(10) 0.01087 294.7 27.6
294(9) 0.01143 294.7 27.6
299(9) 0.01148 294.6 27.6
323(10) 0.01105 294.6 27.6
313(9) 0.01193 294.6 27.5
306(9) 0.01133 294.6 27.5
305(9) 0.01129 294.6 27.5
306(9) 0.01139 294.6 27.4
307(9) 0.01196 294.6 27.4
325(9) 0.01143 294.5 27.2
331(10) 0.01032 294.5 27.0
330(10) 0.00983 294.5 26.8
313(10) 0.01107 294.5 26.4
332(10) 0.01084 294.5 26.0
346(10) 0.01083 294.5 25.5
345(10) 0.01016 294.4 24.9
311(9) 0.01115 294.4 24.4
328(9) 0.01121 294.4 23.7
334(10) 0.01089 294.4 23.1
311(9) 0.01198 294.4 22.5
289(9) 0.01164 294.4 21.9
313(10) 0.01044 294.3 21.3
339(10) 0.00989 294.3 20.8
314(9) 0.01187 294.3 20.3
288(9) 0.01279 294.3 19.8
299(9) 0.01159 294.3 19.3
341(10) 0.00936 294.3 18.9
295(9) 0.01188 294.3 18.6
292(9) 0.01248 294.2 18.3
324(10) 0.01096 294.2 18.0
311(9) 0.01118 294.2 17.8
305(9) 0.01110 294.2 17.7
323(10) 0.01067 294.2 17.7
313(9) 0.01184 294.2 17.7
290(9) 0.01283 294.1 17.9
299(9) 0.01181 294.1 18.1
333(10) 0.01027 294.1 18.5
315(9) 0.01121 294.1 18.9
341(10) 0.01105 294.1 19.5
309(10) 0.01107 294.1 20.2
323(10) 0.01075 294.0 21.1
292(9) 0.01173 294.0 22.0
298(9) 0.01176 294.0 22.9
303(9) 0.01238 294.0 23.9
291(9) 0.01178 294.0 24.7
302(9) 0.01145 294.0 25.2
327(10) 0.01032 294.0 25.5
340(10) 0.01022 293.9 25.3
295(9) 0.01245 293.9 24.8
300(9) 0.01167 293.9 23.9
300(9) 0.01125 293.9 22.8
301(9) 0.01165 293.9 21.7
310(9) 0.01134 293.9 20.4
304(9) 0.01240 293.8 19.3
326(10) 0.01103 293.8 18.2
319(10) 0.01059 293.8 17.2
319(10) 0.01106 293.8 16.4
291(9) 0.01261 293.8 15.6
293(9) 0.01258 293.8 15.0
295(9) 0.01194 293.7 14.4
304(10) 0.01070 293.7 14.0
315(10) 0.01042 293.7 13.6
312(9) 0.01155 293.7 13.3
279(9) 0.01351 293.7 13.0
297(9) 0.01162 293.7 12.8
299(10) 0.01050 293.7 12.6
313(10) 0.01103 293.6 12.4
342(10) 0.01074 293.6 12.3
302(9) 0.01220 293.6 12.2
300(9) 0.01169 293.6 12.1
318(10) 0.00996 293.6 12.1
309(9) 0.01157 293.6 12.0
300(9) 0.01233 293.5 12.0
307(9) 0.01216 293.5 12.0
287(9) 0.01240 293.5 12.0
308(10) 0.01076 293.5 12.1
296(9) 0.01186 293.5 12.2
291(9) 0.01254 293.5 12.3
291(9) 0.01296 293.4 12.5
308(9) 0.01136 293.4 12.7
309(10) 0.01099 293.4 12.9
305(9) 0.01152 293.4 13.2
324(9) 0.01152 293.4 13.5
287(9) 0.01285 293.4 13.8
308(9) 0.01128 293.4 14.2
312(10) 0.01078 293.3 14.6
297(9) 0.01160 293.3 15.1
290(9) 0.01263 293.3 15.6
301(9) 0.01237 293.3 16.1
295(9) 0.01230 293.3 16.6
329(10) 0.01012 293.3 17.2
302(9) 0.01170 293.2 17.7
310(9) 0.01187 293.2 18.3
307(9) 0.01180 293.2 18.8
299(9) 0.01168 293.2 19.3
331(10) 0.01020 293.2 19.7
316(9) 0.01129 293.2 20.2
302(9) 0.01227 293.2 20.6
313(10) 0.01092 293.1 20.9
312(10) 0.01091 293.1 21.3
306(9) 0.01112 293.1 21.6
311(9) 0.01149 293.1 21.9
316(9) 0.01174 293.1 22.3
308(10) 0.01090 293.1 22.7
316(10) 0.01044 293.0 23.2
315(9) 0.01113 293.0 23.7
309(9) 0.01170 293.0 24.3
339(10) 0.01102 293.0 24.9
324(10) 0.01081 293.0 25.6
336(10) 0.00998 293.0 26.2
310(9) 0.01129 292.9 26.8
291(9) 0.01230 292.9 27.2
303(9) 0.01239 292.9 27.5
314(10) 0.01089 292.9 27.5
292(10) 0.01094 292.9 27.2
310(10) 0.01106 292.9 26.8
300(9) 0.01229 292.9 26.3
312(9) 0.01163 292.8 25.7
321(10) 0.01077 292.8 25.1
312(10) 0.01032 292.8 24.5
312(9) 0.01128 292.8 23.9
320(9) 0.01165 292.8 23.5
313(9) 0.01186 292.8 23.1
311(9) 0.01152 292.7 22.7
338(10) 0.00938 292.7 22.5
305(9) 0.01119 292.7 22.3
299(9) 0.01223 292.7 22.1
314(9) 0.01140 292.7 21.9
306(9) 0.01158 292.7 21.7
291(9) 0.01188 292.6 21.6
300(9) 0.01161 292.6 21.4
327(9) 0.01133 292.6 21.1
348(10) 0.01053 292.6 20.9
322(10) 0.01060 292.6 20.5
296(10) 0.01094 292.6 20.2
303(10) 0.01099 292.6 19.8
292(9) 0.01286 292.5 19.4
301(9) 0.01202 292.5 18.9
328(10) 0.01066 292.5 18.5
351(10) 0.00927 292.5 18.0
275(9) 0.01283 292.5 17.5
288(9) 0.01277 292.5 16.9
295(9) 0.01210 292.4 16.4
318(10) 0.01056 292.4 15.9
315(10) 0.01055 292.4 15.4
316(9) 0.01116 292.4 14.8
294(9) 0.01274 292.4 14.3
301(9) 0.01184 292.4 13.8
319(10) 0.01081 292.3 13.3
309(9) 0.01149 292.3 12.8
338(10) 0.01062 292.3 12.3
320(9) 0.01168 292.3 11.9
290(9) 0.01207 292.3 11.4
296(9) 0.01140 292.3 11.0
307(9) 0.01127 292.3 10.6
303(9) 0.01190 292.2 10.2
310(9) 0.01203 292.2 9.8
326(10) 0.01054 292.2 9.4
304(9) 0.01144 292.2 9.1
297(9) 0.01201 292.2 8.8
279(9) 0.01340 292.2 8.5
286(9) 0.01302 292.1 8.2
290(9) 0.01238 292.1 7.9
314(10) 0.01020 292.1 7.6
298(9) 0.01172 292.1 7.4
280(9) 0.01349 292.1 7.1
296(9) 0.01233 292.1 6.9
308(10) 0.01075 292.0 6.7
283(9) 0.01202 292.0 6.5
294(9) 0.01201 292.0 6.3
314(9) 0.01174 292.0 6.1
290(9) 0.01296 292.0 5.9
286(9) 0.01241 292.0 5.8
282(9) 0.01152 292.0 5.6
287(9) 0.01211 291.9 5.5
305(9) 0.01210 291.9 5.3
289(9) 0.01267 291.9 5.2
306(9) 0.01128 291.9 5.1
282(9) 0.01138 291.9 5.0
278(9) 0.01178 291.9 4.9
279(9) 0.01345 291.8 4.8
307(9) 0.01210 291.8 4.7
273(9) 0.01295 291.8 4.6
319(10) 0.01052 291.8 4.5
288(9) 0.01247 291.8 4.4
298(9) 0.01243 291.8 4.3
306(9) 0.01179 291.7 4.2
283(9) 0.01214 291.7 4.2
287(9) 0.01130 291.7 4.1
301(9) 0.01154 291.7 4.0
320(9) 0.01150 291.7 4.0
313(9) 0.01148 291.7 3.9
305(9) 0.01113 291.7 3.8
307(10) 0.01102 291.6 3.8
317(9) 0.01137 291.6 3.7
318(9) 0.01170 291.6 3.7
316(10) 0.01067 291.6 3.6
309(10) 0.01096 291.6 3.6
294(9) 0.01204 291.6 3.6
293(9) 0.01247 291.5 3.5
301(9) 0.01241 291.5 3.5
312(10) 0.01107 291.5 3.4
270(9) 0.01261 291.5 3.4
292(9) 0.01149 291.5 3.4
272(9) 0.01339 291.5 3.3
285(9) 0.01308 291.5 3.3
284(9) 0.01207 291.4 3.3
295(10) 0.01107 291.4 3.3
278(9) 0.01258 291.4 3.2
290(9) 0.01264 291.4 3.2
285(9) 0.01303 291.4 3.2
284(9) 0.01179 291.4 3.2
293(10) 0.01108 291.3 3.1
303(9) 0.01110 291.3 3.1
287(9) 0.01247 291.3 3.1
292(9) 0.01271 291.3 3.1
329(10) 0.01029 291.3 3.1
272(9) 0.01199 291.3 3.1
296(9) 0.01166 291.3 3.0
309(9) 0.01182 291.3 3.0
278(9) 0.01343 291.3 3.0
294(9) 0.01201 291.3 3.0
293(10) 0.01070 291.3 3.0
273(9) 0.01218 291.3 3.0
272(9) 0.01354 291.3 3.0
279(9) 0.01320 291.3 3.0
312(9) 0.01130 291.3 3.0
314(10) 0.01030 291.3 3.0
287(9) 0.01265 291.3 3.0
297(9) 0.01251 291.3 3.0
308(9) 0.01161 291.3 2.9
299(9) 0.01186 291.3 2.9
315(10) 0.01034 291.4 2.9
285(9) 0.01245 291.4 2.9
309(9) 0.01202 291.4 2.9
307(9) 0.01176 291.4 3.0
296(9) 0.01134 291.4 3.0
298(9) 0.01148 291.4 3.0
309(9) 0.01126 291.4 3.0
280(9) 0.01336 291.4 3.0
292(9) 0.01246 291.4 3.0
314(10) 0.01051 291.4 3.0
285(9) 0.01170 291.4 3.0
291(9) 0.01201 291.4 3.0
300(9) 0.01243 291.4 3.0
273(9) 0.01273 291.4 3.0
278(9) 0.01192 291.4 3.0
269(9) 0.01316 291.4 3.1
306(9) 0.01163 291.4 3.1
286(9) 0.01310 291.4 3.1
286(9) 0.01229 291.4 3.1
299(9) 0.01153 291.4 3.1
298(9) 0.01210 291.4 3.1
272(9) 0.01320 291.4 3.2
306(9) 0.01219 291.4 3.2
295(9) 0.01171 291.4 3.2
299(9) 0.01128 291.4 3.2
290(9) 0.01237 291.4 3.3
278(9) 0.01336 291.5 3.3
294(9) 0.01269 291.5 3.3
296(9) 0.01176 291.5 3.4
261(9) 0.01300 291.5 3.4
295(9) 0.01179 291.5 3.4
313(9) 0.01161 291.5 3.5
278(9) 0.01347 291.5 3.5
277(9) 0.01242 291.5 3.6
282(9) 0.01197 291.5 3.6
304(9) 0.01159 291.5 3.7
298(9) 0.01238 291.5 3.7
303(9) 0.01237 291.5 3.8
284(9) 0.01229 291.5 3.8
299(10) 0.01032 291.5 3.9
316(10) 0.01090 291.5 3.9
300(9) 0.01244 291.5 4.0
296(9) 0.01240 291.5 4.1
290(9) 0.01204 291.5 4.1
295(9) 0.01116 291.5 4.2
308(9) 0.01127 291.5 4.3
303(9) 0.01225 291.5 4.4
305(9) 0.01223 291.5 4.4
309(9) 0.01126 291.5 4.5
280(9) 0.01168 291.5 4.6
287(9) 0.01150 291.5 4.7
320(9) 0.01159 291.5 4.8
291(9) 0.01261 291.5 4.9
279(9) 0.01241 291.6 5.0
287(9) 0.01149 291.6 5.1
290(9) 0.01144 291.6 5.2
296(9) 0.01257 291.6 5.3
298(9) 0.01202 291.6 5.4
318(10) 0.01050 291.6 5.5
287(9) 0.01176 291.6 5.6
297(9) 0.01169 291.6 5.7
316(9) 0.01170 291.6 5.8
277(9) 0.01326 291.6 5.9
293(9) 0.01150 291.6 6.0
281(9) 0.01258 291.6 6.1
296(9) 0.01197 291.6 6.3
299(9) 0.01243 291.6 6.4
320(10) 0.01104 291.6 6.5
314(10) 0.01064 291.6 6.6
282(9) 0.01197 291.6 6.7
307(9) 0.01147 291.6 6.8
323(9) 0.01138 291.6 6.9
289(9) 0.01217 291.6 7.0
287(9) 0.01158 291.6 7.1
307(10) 0.01103 291.6 7.2
288(9) 0.01272 291.6 7.2
300(9) 0.01248 291.6 7.3
312(10) 0.01072 291.6 7.4
303(10) 0.01070 291.6 7.4
304(9) 0.01140 291.6 7.5
288(9) 0.01283 291.7 7.5
319(9) 0.01169 291.7 7.6
283(9) 0.01231 291.7 7.6
293(9) 0.01127 291.7 7.7
328(10) 0.01039 291.7 7.7
291(9) 0.01278 291.7 7.7
313(9) 0.01198 291.7 7.7
308(9) 0.01114 291.7 7.7
287(9) 0.01140 291.7 7.7
319(10) 0.01059 291.7 7.8
315(9) 0.01173 291.7 7.8
272(8) 0.01390 291.7 7.8
320(10) 0.01061 291.7 7.8
316(10) 0.00997 291.7 7.8
300(9) 0.01127 291.7 7.8
312(9) 0.01185 291.7 7.8
298(9) 0.01223 291.7 7.8
286(9) 0.01258 291.7 7.9
303(10) 0.01040 291.7 7.9
306(9) 0.01109 291.7 7.9
281(9) 0.01331 291.7 8.0
274(9) 0.01356 291.7 8.0
301(9) 0.01168 291.7 8.1
320(10) 0.01048 291.7 8.1
298(9) 0.01171 291.7 8.2
297(9) 0.01259 291.7 8.2
278(9) 0.01312 291.8 8.3
297(9) 0.01205 291.8 8.4
293(9) 0.01210 291.8 8.5
321(10) 0.01056 291.8 8.6
313(9) 0.01189 291.8 8.8
305(9) 0.01173 291.8 8.9
315(10) 0.01067 291.8 9.0
292(10) 0.01108 291.8 9.2
294(9) 0.01186 291.8 9.4
282(9) 0.01309 291.8 9.5
298(9) 0.01216 291.8 9.7
323(10) 0.01077 291.8 10.0
312(10) 0.01077 291.8 10.2
312(10) 0.01103 291.8 10.4
304(9) 0.01225 291.8 10.7
284(9) 0.01213 291.8 11.0
294(9) 0.01140 291.8 11.3
325(10) 0.01051 291.8 11.6
312(9) 0.01167 291.8 12.0
315(9) 0.01181 291.8 12.3
301(9) 0.01147 291.8 12.7
295(9) 0.01143 291.8 13.1
308(9) 0.01126 291.8 13.6
301(9) 0.01232 291.8 14.0
312(9) 0.01189 291.8 14.5
305(9) 0.01114 291.8 15.0
325(10) 0.01012 291.8 15.5
286(9) 0.01286 291.9 16.0
295(9) 0.01253 291.9 16.5
295(9) 0.01230 291.9 17.1
336(10) 0.00948 291.9 17.6
312(10) 0.01024 291.9 18.2
321(9) 0.01119 291.9 18.8
331(9) 0.01124 291.9 19.3
316(9) 0.01171 291.9 19.9
311(9) 0.01155 291.9 20.4
305(10) 0.01102 291.9 21.0
289(9) 0.01208 291.9 21.4
314(9) 0.01188 291.9 21.9
313(9) 0.01171 291.9 22.3
330(10) 0.01043 291.9 22.7
294(9) 0.01125 291.9 23.0
285(9) 0.01262 291.9 23.3
315(9) 0.01177 291.9 23.4
314(9) 0.01160 291.9 23.5
303(9) 0.01152 291.9 23.6
298(10) 0.01082 291.9 23.5
298(9) 0.01133 291.9 23.4
307(9) 0.01220 291.9 23.2
315(9) 0.01158 291.9 23.0
326(10) 0.01061 291.9 22.7
312(9) 0.01131 291.9 22.4
310(9) 0.01148 291.9 22.0
304(9) 0.01220 292.0 21.6
336(10) 0.01025 292.0 21.2
306(9) 0.01113 292.0 20.7
321(10) 0.01035 292.0 20.3
301(9) 0.01173 292.0 19.8
311(9) 0.01197 292.0 19.3
325(10) 0.01074 292.0 18.8
314(10) 0.01102 292.0 18.4
325(10) 0.01056 292.0 17.9
314(9) 0.01145 292.0 17.5
333(9) 0.01111 292.0 17.1
319(10) 0.01085 292.0 16.7
295(9) 0.01144 292.0 16.3
288(9) 0.01182 292.0 16.0
287(9) 0.01267 292.0 15.7
315(9) 0.01164 292.0 15.4
283(9) 0.01234 292.0 15.1
306(10) 0.01088 292.0 14.9
299(9) 0.01184 292.0 14.8
324(9) 0.01121 292.0 14.6
314(9) 0.01176 292.0 14.6
297(9) 0.01157 292.0 14.6
308(10) 0.00999 292.0 14.6
307(9) 0.01114 292.0 14.7
285(9) 0.01302 292.0 14.9
330(9) 0.01122 292.0 15.2
315(9) 0.01110 292.0 15.5
309(10) 0.01008 292.1 15.9
304(9) 0.01146 292.1 16.4
303(9) 0.01218 292.1 17.0
335(10) 0.01095 292.1 17.6
303(9) 0.01166 292.1 18.2
342(10) 0.00932 292.1 18.8
283(9) 0.01269 292.1 19.3
309(9) 0.01189 292.1 19.7
307(9) 0.01182 292.1 19.9
314(10) 0.01091 292.1 19.9
310(10) 0.01043 292.1 19.6
297(9) 0.01162 292.1 19.1
312(9) 0.01180 292.1 18.4
320(9) 0.01137 292.1 17.6
320(10) 0.01073 292.1 16.6
314(10) 0.01084 292.1 15.7
295(9) 0.01195 292.1 14.8
293(9) 0.01254 292.1 13.9
283(9) 0.01279 292.1 13.0
300(10) 0.01090 292.1 12.3
307(10) 0.01081 292.1 11.6
304(9) 0.01139 292.1 10.9
289(9) 0.01265 292.1 10.4
309(9) 0.01199 292.1 9.9
310(9) 0.01122 292.1 9.4
274(9) 0.01229 292.1 9.0
296(9) 0.01192 292.1 8.6
299(9) 0.01250 292.2 8.3
301(9) 0.01158 292.2 8.0
303(9) 0.01176 292.2 7.8
324(10) 0.01066 292.2 7.5
297(9) 0.01191 292.2 7.3
308(9) 0.01206 292.2 7.1
302(9) 0.01175 292.2 7.0
300(9) 0.01118 292.2 6.8
317(10) 0.01074 292.2 6.7
324(9) 0.01121 292.2 6.5
284(9) 0.01302 292.2 6.4
313(9) 0.01112 292.2 6.3
314(10) 0.01095 292.2 6.1
306(9) 0.01130 292.2 6.0
300(9) 0.01201 292.2 5.9
285(9) 0.01318 292.2 5.8
298(9) 0.01163 292.2 5.7
300(9) 0.01109 292.2 5.6
303(9) 0.01171 292.2 5.5
311(9) 0.01161 292.2 5.5
298(9) 0.01252 292.2 5.4
316(10) 0.01058 292.2 5.3
319(10) 0.00997 292.2 5.2
298(9) 0.01150 292.2 5.2
298(9) 0.01221 292.2 5.1
300(9) 0.01233 292.2 5.0
315(10) 0.01103 292.3 5.0
295(10) 0.01083 292.3 4.9
282(9) 0.01227 292.3 4.9
289(9) 0.01290 292.3 4.8
328(9) 0.01125 292.3 4.8
297(9) 0.01237 292.3 4.7
297(10) 0.01088 292.3 4.7
287(9) 0.01182 292.3 4.7
298(9) 0.01252 292.3 4.6
306(9) 0.01198 292.3 4.6
300(9) 0.01166 292.3 4.6
290(9) 0.01117 292.3 4.6
277(9) 0.01241 292.3 4.5
298(9) 0.01255 292.3 4.5
284(9) 0.01305 292.3 4.5
310(9) 0.01154 292.3 4.5
312(10) 0.01094 292.3 4.5
285(9) 0.01248 292.3 4.5
295(9) 0.01267 292.3 4.5
295(9) 0.01213 292.3 4.5
295(9) 0.01180 292.3 4.5
289(9) 0.01181 292.3 4.5
308(9) 0.01172 292.3 4.5
279(9) 0.01343 292.2 4.5
308(9) 0.01176 292.2 4.5
296(9) 0.01154 292.2 4.5
293(9) 0.01197 292.2 4.6
312(9) 0.01127 292.2 4.6
290(9) 0.01261 292.2 4.6
311(10) 0.01107 292.2 4.7
293(9) 0.01171 292.2 4.7
298(9) 0.01129 292.2 4.7
304(9) 0.01181 292.2 4.8
311(9) 0.01199 292.2 4.8
305(10) 0.01107 292.1 4.9
319(10) 0.01031 292.1 5.0
300(9) 0.01149 292.1 5.0
299(9) 0.01226 292.1 5.1
323(9) 0.01147 292.1 5.2
279(9) 0.01256 292.1 5.3
284(10) 0.01107 292.1 5.4
308(9) 0.01116 292.1 5.6
309(9) 0.01196 292.1 5.7
279(9) 0.01335 292.1 5.9
297(10) 0.01087 292.1 6.0
307(10) 0.01051 292.1 6.2
297(9) 0.01162 292.0 6.4
285(9) 0.01302 292.0 6.7
305(9) 0.01204 292.0 6.9
284(9) 0.01177 292.0 7.2
284(9) 0.01143 292.0 7.5
288(9) 0.01189 292.0 7.9
300(9) 0.01237 292.0 8.2
289(9) 0.01278 292.0 8.6
308(9) 0.01175 292.0 9.0
309(10) 0.01050 292.0 9.5
297(9) 0.01180 292.0 9.9
300(9) 0.01238 291.9 10.4
280(9) 0.01281 291.9 10.8
315(9) 0.01120 291.9 11.2
308(10) 0.01045 291.9 11.6
307(10) 0.01093 291.9 11.9
295(9) 0.01269 291.9 12.1
299(9) 0.01212 291.9 12.3
272(9) 0.01299 291.9 12.3
284(9) 0.01158 291.9 12.3
320(10) 0.01041 291.9 12.1
279(9) 0.01329 291.9 11.9
291(9) 0.01258 291.8 11.7
299(9) 0.01120 291.8 11.4
309(10) 0.01035 291.8 11.1
292(9) 0.01198 291.8 10.9
297(9) 0.01246 291.8 10.6
298(9) 0.01200 291.8 10.3
288(9) 0.01198 291.8 10.1
322(10) 0.01022 291.8 9.9
304(9) 0.01137 291.8 9.7
299(9) 0.01245 291.8 9.6
307(10) 0.01102 291.8 9.5
312(10) 0.01080 291.7 9.4
309(9) 0.01122 291.7 9.3
312(9) 0.01126 291.7 9.2
335(9) 0.01113 291.7 9.2
302(9) 0.01134 291.7 9.2
326(10) 0.01034 291.7 9.2
330(10) 0.01052 291.7 9.2
321(9) 0.01123 291.7 9.3
286(9) 0.01285 291.7 9.3
327(10) 0.01010 291.7 9.3
318(10) 0.01064 291.7 9.4
286(9) 0.01189 291.7 9.5
297(9) 0.01268 291.6 9.5
306(9) 0.01210 291.6 9.6
302(9) 0.01164 291.6 9.7
312(10) 0.01025 291.6 9.8
342(10) 0.01012 291.6 9.9
303(9) 0.01208 291.6 9.9
316(9) 0.01173 291.6 10.0
297(9) 0.01145 291.6 10.1
312(10) 0.01015 291.6 10.2
303(9) 0.01146 291.6 10.3
309(9) 0.01162 291.6 10.4
277(9) 0.01338 291.5 10.4
330(10) 0.01029 291.5 10.5
318(10) 0.01002 291.5 10.6
311(10) 0.01088 291.5 10.7
313(9) 0.01179 291.5 10.7
334(9) 0.01110 291.5 10.8
310(9) 0.01114 291.5 10.9
327(10) 0.00964 291.5 10.9
303(9) 0.01122 291.5 11.0
294(9) 0.01262 291.5 11.0
310(9) 0.01205 291.5 11.1
314(9) 0.01140 291.4 11.1
325(10) 0.01041 291.4 11.1
302(9) 0.01180 291.4 11.2
325(9) 0.01155 291.4 11.2
326(10) 0.01056 291.4 11.2
299(9) 0.01156 291.4 11.2
307(10) 0.01078 291.4 11.2
343(10) 0.00980 291.4 11.2
294(9) 0.01261 291.4 11.2
318(9) 0.01127 291.4 11.2
295(9) 0.01191 291.4 11.2
310(10) 0.01070 291.4 11.2
297(9) 0.01146 291.3 11.2
296(9) 0.01237 291.3 11.1
290(9) 0.01212 291.3 11.1
295(9) 0.01171 291.3 11.1
318(10) 0.01089 291.3 11.0
322(10) 0.01091 291.3 11.0
302(9) 0.01248 291.3 10.9
296(9) 0.01163 291.3 10.9
298(9) 0.01181 291.3 10.8
300(9) 0.01181 291.3 10.8
292(9) 0.01235 291.3 10.7
295(9) 0.01243 291.2 10.7
275(9) 0.01281 291.2 10.6
292(9) 0.01143 291.2 10.5
307(9) 0.01141 291.2 10.5
297(9) 0.01225 291.2 10.4
283(9) 0.01293 291.2 10.3
307(9) 0.01136 291.2 10.2
350(10) 0.00909 291.2 10.2
326(10) 0.01034 291.2 10.1
286(9) 0.01280 291.2 10.0
287(9) 0.01272 291.2 9.9
314(9) 0.01110 291.1 9.9
319(10) 0.01017 291.1 9.8
286(9) 0.01263 291.1 9.7
300(9) 0.01242 291.1 9.6
318(9) 0.01140 291.1 9.6
301(9) 0.01170 291.1 9.5
301(10) 0.01083 291.1 9.4
328(10) 0.01030 291.1 9.3
286(9) 0.01286 291.1 9.2
294(9) 0.01247 291.1 9.2
300(9) 0.01175 291.1 9.1
321(10) 0.00990 291.0 9.0
311(9) 0.01134 291.0 8.9
323(9) 0.01153 291.0 8.9
301(9) 0.01200 291.0 8.8
313(10) 0.01070 291.0 8.7
304(10) 0.01095 291.0 8.6
310(9) 0.01123 291.0 8.5
320(9) 0.01157 291.0 8.5
311(9) 0.01176 291.0 8.4
324(10) 0.01066 291.0 8.3
285(9) 0.01169 291.0 8.2
288(9) 0.01201 291.0 8.2
278(9) 0.01343 290.9 8.1
289(9) 0.01265 290.9 8.0
306(9) 0.01144 290.9 7.9
307(9) 0.01126 290.9 7.9
312(9) 0.01124 290.9 7.8
316(9) 0.01176 290.9 7.7
309(9) 0.01169 290.9 7.6
337(10) 0.01027 290.9 7.5
309(10) 0.01088 290.9 7.5
280(9) 0.01265 290.9 7.4
294(9) 0.01256 290.9 7.3
294(9) 0.01184 290.8 7.2
320(9) 0.01123 290.8 7.1
329(10) 0.01063 290.8 7.1
308(9) 0.01140 290.8 7.0
309(9) 0.01205 290.8 6.9
315(9) 0.01120 290.8 6.8
307(9) 0.01117 290.8 6.7
277(9) 0.01327 290.8 6.6
319(9) 0.01133 290.8 6.6
321(9) 0.01140 290.8 6.5
294(9) 0.01213 290.8 6.4
309(10) 0.01106 290.7 6.3
306(9) 0.01171 290.7 6.2
290(9) 0.01292 290.7 6.2
270(9) 0.01383 290.7 6.1
296(9) 0.01154 290.7 6.0
270(9) 0.01236 290.7 5.9
302(9) 0.01140 290.7 5.9
302(9) 0.01245 290.7 5.8
307(9) 0.01222 290.7 5.7
318(10) 0.01066 290.7 5.7
289(9) 0.01139 290.7 5.6
293(9) 0.01217 290.6 5.5
273(9) 0.01339 290.6 5.5
298(9) 0.01228 290.6 5.4
326(10) 0.01068 290.6 5.4
309(10) 0.01059 290.6 5.3
307(9) 0.01134 290.6 5.3
293(9) 0.01271 290.6 5.2
285(9) 0.01296 290.6 5.2
270(9) 0.01246 290.6 5.1
290(9) 0.01119 290.6 5.1
288(9) 0.01217 290.6 5.0
318(9) 0.01143 290.6 5.0
299(9) 0.01239 290.5 4.9
299(9) 0.01153 290.5 4.9
295(9) 0.01134 290.5 4.9
287(9) 0.01240 290.5 4.8
300(9) 0.01239 290.5 4.8
310(9) 0.01151 290.5 4.8
300(9) 0.01179 290.5 4.8
314(10) 0.01067 290.5 4.7
280(9) 0.01258 290.5 4.7
292(9) 0.01267 290.5 4.7
309(9) 0.01162 290.5 4.7
288(9) 0.01223 290.4 4.6
314(10) 0.01083 290.4 4.6
284(9) 0.01245 290.4 4.6
291(9) 0.01281 290.4 4.6
289(9) 0.01177 290.4 4.6
284(9) 0.01174 290.4 4.6
302(9) 0.01129 290.4 4.6
290(9) 0.01233 290.4 4.6
300(9) 0.01249 290.4 4.6
286(9) 0.01222 290.4 4.6
309(10) 0.01082 290.4 4.6
297(9) 0.01192 290.3 4.6
304(9) 0.01172 290.3 4.6
301(9) 0.01230 290.3 4.6
288(9) 0.01168 290.3 4.6
269(9) 0.01291 290.3 4.6
299(9) 0.01123 290.3 4.6
295(9) 0.01226 290.3 4.6
275(9) 0.01350 290.3 4.6
289(9) 0.01173 290.3 4.7
284(9) 0.01112 290.3 4.7
304(9) 0.01108 290.3 4.7
285(9) 0.01263 290.3 4.7
331(9) 0.01114 290.3 4.7
310(9) 0.01127 290.3 4.8
300(10) 0.01053 290.3 4.8
275(9) 0.01265 290.3 4.8
293(9) 0.01264 290.3 4.8
311(9) 0.01188 290.3 4.9
304(9) 0.01149 290.3 4.9
330(10) 0.00972 290.3 4.9
302(9) 0.01166 290.3 5.0
281(9) 0.01329 290.3 5.0
315(9) 0.01174 290.3 5.1
298(9) 0.01211 290.3 5.1
297(9) 0.01146 290.3 5.1
304(9) 0.01151 290.3 5.2
294(9) 0.01280 290.3 5.2
288(9) 0.01284 290.3 5.3
310(9) 0.01118 290.3 5.3
294(9) 0.01135 290.3 5.3
300(9) 0.01169 290.3 5.4
301(9) 0.01235 290.3 5.4
306(9) 0.01153 290.3 5.5
340(10) 0.00988 290.3 5.5
305(9) 0.01118 290.3 5.6
288(9) 0.01215 290.3 5.7
298(9) 0.01217 290.3 5.7
291(9) 0.01242 290.3 5.8
271(9) 0.01282 290.3 5.8
295(10) 0.01102 290.3 5.9
311(9) 0.01149 290.3 5.9
308(9) 0.01197 290.3 6.0
303(9) 0.01180 290.3 6.1
301(9) 0.01139 290.3 6.1
295(9) 0.01180 290.3 6.2
279(9) 0.01295 290.3 6.3
267(8) 0.01402 290.3 6.3
322(10) 0.01074 290.3 6.4
308(10) 0.01099 290.3 6.5
269(9) 0.01318 290.3 6.5
273(9) 0.01339 290.3 6.6
313(9) 0.01188 290.3 6.7
306(9) 0.01176 290.3 6.8
310(10) 0.01106 290.3 6.8
306(9) 0.01122 290.3 6.9
273(9) 0.01374 290.3 7.0
287(9) 0.01297 290.3 7.1
266(9) 0.01277 290.3 7.1
286(9) 0.01112 290.3 7.2
280(9) 0.01259 290.3 7.3
297(9) 0.01240 290.3 7.4
284(9) 0.01319 290.3 7.5
286(9) 0.01193 290.3 7.6
285(9) 0.01166 290.3 7.6
309(9) 0.01125 290.3 7.7
313(9) 0.01185 290.3 7.8
310(9) 0.01203 290.3 7.9
298(9) 0.01122 290.3 8.0
315(10) 0.00997 290.3 8.1
285(9) 0.01247 290.3 8.3
278(9) 0.01345 290.3 8.4
290(9) 0.01242 290.3 8.5
283(9) 0.01242 290.3 8.6
288(9) 0.01174 290.3 8.8
311(10) 0.01084 290.3 9.0
274(9) 0.01327 290.3 9.1
317(9) 0.01170 290.3 9.3
290(9) 0.01222 290.3 9.5
326(10) 0.00972 290.3 9.7
301(9) 0.01136 290.3 9.9
330(9) 0.01129 290.3 10.2
318(9) 0.01121 290.3 10.4
288(9) 0.01190 290.3 10.7
303(10) 0.01051 290.3 10.9
302(10) 0.01103 290.3 11.2
300(9) 0.01223 290.3 11.4
308(9) 0.01182 290.3 11.6
294(9) 0.01195 290.3 11.8
289(9) 0.01166 290.3 12.0
278(9) 0.01249 290.3 12.1
311(9) 0.01201 290.3 12.1
304(9) 0.01148 290.3 12.1
296(9) 0.01162 290.3 12.1
304(9) 0.01145 290.3 12.0
283(9) 0.01320 290.3 11.8
310(9) 0.01196 290.3 11.7
298(9) 0.01169 290.3 11.5
282(9) 0.01202 290.3 11.3
285(9) 0.01227 290.3 11.2
293(9) 0.01202 290.3 11.0
299(9) 0.01254 290.3 10.9
306(9) 0.01134 290.3 10.8
282(9) 0.01237 290.3 10.7
288(9) 0.01211 290.3 10.6
292(9) 0.01236 290.3 10.5
311(9) 0.01196 290.3 10.5
299(9) 0.01192 290.3 10.4
291(9) 0.01163 290.3 10.4
287(9) 0.01212 290.3 10.4
292(9) 0.01272 290.3 10.5
299(9) 0.01256 290.3 10.5
297(9) 0.01170 290.3 10.6
325(10) 0.00999 290.3 10.6
301(9) 0.01160 290.3 10.7
309(9) 0.01194 290.3 10.8
305(9) 0.01238 290.3 10.9
310(10) 0.01103 290.3 11.1
293(9) 0.01136 290.3 11.2
309(9) 0.01166 290.3 11.3
314(9) 0.01169 290.3 11.5
296(9) 0.01261 290.3 11.7
271(9) 0.01308 290.3 11.9
303(10) 0.01056 290.3 12.1
307(9) 0.01132 290.3 12.3
310(9) 0.01205 290.3 12.5
299(9) 0.01248 290.3 12.7
305(9) 0.01164 290.3 13.0
304(10) 0.01086 290.3 13.2
308(9) 0.01133 290.3 13.5
312(9) 0.01200 290.3 13.8
315(9) 0.01129 290.3 14.1
291(9) 0.01167 290.3 14.4
304(9) 0.01135 290.3 14.7
306(10) 0.01096 290.3 15.0
302(9) 0.01216 290.3 15.4
328(9) 0.01117 290.3 15.7
320(10) 0.01050 290.3 16.1
266(9) 0.01294 290.3 16.5
300(9) 0.01163 290.3 16.8
304(9) 0.01218 290.3 17.2
335(10) 0.00999 290.3 17.6
300(9) 0.01131 290.3 17.9
321(10) 0.01038 290.3 18.2
329(10) 0.01084 290.3 18.4
310(9) 0.01192 290.3 18.6
300(9) 0.01186 290.3 18.7
319(10) 0.01047 290.3 18.8
327(10) 0.01082 290.3 18.8
304(9) 0.01217 290.3 18.7
330(9) 0.01112 290.3 18.5
299(9) 0.01190 290.3 18.4
311(10) 0.01102 290.3 18.2
307(10) 0.01103 290.3 17.9
287(9) 0.01238 290.3 17.7
310(9) 0.01196 290.3 17.4
320(10) 0.01073 290.3 17.2
331(10) 0.01007 290.3 16.9
328(10) 0.01075 290.3 16.7
323(9) 0.01140 290.3 16.4
310(9) 0.01207 290.3 16.2
311(9) 0.01123 290.3 16.0
296(10) 0.01096 290.3 15.7
300(9) 0.01193 290.3 15.5
300(9) 0.01230 290.3 15.3
305(9) 0.01224 290.3 15.1
337(10) 0.01053 290.3 14.9
312(10) 0.01021 290.3 14.7
288(9) 0.01204 290.3 14.6
310(9) 0.01200 290.3 14.4
323(9) 0.01130 290.3 14.3
290(9) 0.01235 290.3 14.1
294(10) 0.01088 290.3 14.0
288(9) 0.01188 290.3 13.8
305(9) 0.01213 290.3 13.7
319(9) 0.01166 290.3 13.5
311(10) 0.01073 290.3 13.4
289(9) 0.01153 290.3 13.2
311(10) 0.01065 290.3 13.0
278(9) 0.01324 290.3 12.9
313(9) 0.01159 290.3 12.7
305(9) 0.01165 290.3 12.5
288(9) 0.01202 290.3 12.3
290(9) 0.01211 290.3 12.1
272(9) 0.01341 290.3 11.9
308(9) 0.01195 290.3 11.7
328(10) 0.01054 290.3 11.5
324(10) 0.01043 290.3 11.3
292(9) 0.01220 290.3 11.1
299(9) 0.01229 290.3 10.9
297(9) 0.01194 290.3 10.7
286(9) 0.01214 290.3 10.6
295(9) 0.01193 290.3 10.4
301(9) 0.01169 290.3 10.3
285(9) 0.01304 290.3 10.1
313(10) 0.01070 290.3 10.0
293(9) 0.01181 290.3 9.9
269(9) 0.01338 290.3 9.7
276(9) 0.01301 290.3 9.6
293(9) 0.01275 290.3 9.5
278(9) 0.01264 290.3 9.4
303(10) 0.01074 290.3 9.3
307(9) 0.01122 290.3 9.3
305(9) 0.01171 290.3 9.2
299(9) 0.01250 290.3 9.1
301(9) 0.01183 290.3 9.0
300(9) 0.01110 290.3 9.0
304(9) 0.01125 290.3 8.9
320(9) 0.01137 290.3 8.9
316(9) 0.01163 290.3 8.8
294(9) 0.01197 290.3 8.8
313(10) 0.01055 290.3 8.8
279(9) 0.01210 290.3 8.7
290(9) 0.01252 290.3 8.7
270(8) 0.01384 290.3 8.7
308(9) 0.01139 290.3 8.7
306(10) 0.01106 290.3 8.7
310(9) 0.01115 290.3 8.7
313(9) 0.01173 290.3 8.7
294(9) 0.01259 290.3 8.7
292(9) 0.01180 290.3 8.7
305(10) 0.01016 290.3 8.8
285(9) 0.01240 290.3 8.8
307(9) 0.01208 290.3 8.8
282(9) 0.01312 290.3 8.8
279(9) 0.01281 290.3 8.9
305(10) 0.01086 290.3 8.9
319(10) 0.01092 290.3 9.0
320(9) 0.01164 290.3 9.0
301(9) 0.01195 290.3 9.0
296(9) 0.01178 290.3 9.1
305(10) 0.01071 290.3 9.1
292(9) 0.01225 290.3 9.2
306(9) 0.01207 290.3 9.2
296(9) 0.01223 290.3 9.2
278(9) 0.01252 290.3 9.3
293(10) . . .
306(9) . . .
280(9) . . .
297(9) . . .
276(9) . . .
274(9) . . .
294(9) . . .
276(9) . . .
310(9) . . .
319(10) . . .
282(9) . . .
299(9) . . .
296(9) . . .
264(9) . . .
302(9) . . .
316(10) . . .
288(9) . . .
311(9) . . .
308(9) . . .
296(10) . . .
304(9) . . .
274(9) . . .
285(9) . . .
284(9) . . .
307(10) . . .
275(9) . . .
294(9) . . .
280(9) . . .
286(9) . . .
309(10) . . .
273(9) . . .
297(9) . . .
279(9) . . .
304(9) . . .
313(10) . . .
299(9) . . .
309(9) . . .
307(9) . . .
289(9) . . .
333(10) . . .
322(10) . . .
284(9) . . .
290(9) . . .
276(9) . . .
269(9) . . .
321(10) . . .
327(9) . . .
297(9) . . .
291(9) . . .
313(10) . . .
299(9) . . .
295(9) . . .
312(9) . . .
307(9) . . .
318(10) . . .
287(9) . . .
291(9) . . .
284(9) . . .
301(9) . . .
306(10) . . .
298(9) . . .
276(9) . . .
275(9) . . .
293(9) . . .
286(9) . . .
303(9) . . .
279(9) . . .
256(9) . . .
272(9) . . .
296(9) . . .
282(9) . . .
295(9) . . .
295(9) . . .
286(9) . . .
310(9) . . .
304(9) . . .
277(9) . . .
301(10) . . .
319(10) . . .
302(9) . . .
297(9) . . .
284(9) . . .
305(9) . . .
301(10) . . .
303(9) . . .
306(9) . . .
305(9) . . .
308(9) . . .
291(9) . . .
288(9) . . .
300(9) . . .
302(9) . . .
291(9) . . .
292(10) . . .
284(9) . . .
288(9) . . .
290(9) . . .
319(10) . . .
287(9) . . .
311(9) . . .
282(9) . . .
283(9) . . .
294(9) . . .
286(9) . . .
280(9) . . .
296(9) . . .
317(10) . . .
272(9) . . .
298(9) . . .
294(9) . . .
293(9) . . .
271(9) . . .
277(9) . . .
321(10) . . .
293(9) . . .
286(9) . . .
302(9) . . .
283(9) . . .
297(9) . . .
286(9) . . .
272(9) . . .
284(9) . . .
297(9) . . .
284(9) . . .
274(9) . . .
256(8) . . .
304(9) . . .
272(9) . . .
283(9) . . .
284(9) . . .
294(9) . . .
299(9) . . .
304(10) . . .
293(9) . . .
285(9) . . .
276(9) . . .
308(9) . . .
285(9) . . .
276(9) . . .
293(9) . . .
277(9) . . .
306(9) . . .
287(9) . . .
281(9) . . .
278(9) . . .
300(9) . . .
295(9) . . .
263(9) . . .
297(9) . . .
291(9) . . .
285(9) . . .
262(9) . . .
267(9) . . .
295(9) . . .
282(9) . . .
305(9) . . .
265(9) . . .
267(9) . . .
272(9) . . .
291(9) . . .
283(9) . . .
293(9) . . .
291(9) . . .
282(9) . . .
292(9) . . .
278(9) . . .
293(9) . . .
292(9) . . .
274(9) . . .
283(9) . . .
280(9) . . .
295(9) . . .
278(9) . . .
272(9) . . .
285(9) . . .
284(9) . . .
288(9) . . .
312(10) . . .
291(9) . . .
306(9) . . .
291(9) . . .
279(9) . . .
295(9) . . .
268(8) . . .
269(9) . . .
291(9) . . .
286(9) . . .
286(9) . . .
290(9) . . .
290(9) . . .
290(9) . . .
273(9) . . .
268(9) . . .
257(8) . . .
297(9) . . .
282(9) . . .
253(9) . . .
276(9) . . .
270(9) . . .
265(8) . . .
273(9) . . .
287(9) . . .
267(9) . . .
264(8) . . .
277(9) . . .
282(9) . . .
281(9) . . .
267(9) . . .
265(8) . . .
288(9) . . .
275(9) . . .
251(8) . . .
287(9) . . .
286(9) . . .
279(9) . . .
285(9) . . .
296(9) . . .
261(8) . . .
289(9) . . .
291(9) . . .
252(9) . . .
265(9) . . .
260(8) . . .
282(9) . . .
284(9) . . .
299(10) . . .
280(9) . . .
261(9) . . .
287(9) . . .
285(9) . . .
293(10) . . .
268(9) . . .
280(9) . . .
289(9) . . .
293(9) . . .
275(9) . . .
281(9) . . .
282(9) . . .
269(9) . . .
275(9) . . .
262(9) . . .
265(9) . . .
283(9) . . .
286(9) . . .
289(9) . . .
293(9) . . .
278(9) . . .
268(8) . . .
281(9) . . .
269(9) . . .
290(9) . . .
290(9) . . .
274(9) . . .
285(9) . . .
250(8) . . .
300(9) . . .
282(9) . . .
277(9) . . .
281(9) . . .
330(10) . . .
269(9) . . .
259(8) . . .
269(9) . . .
287(9) . . .
272(9) . . .
294(9) . . .
290(9) . . .
249(8) . . .
278(9) . . .
277(9) . . .
273(9) . . .
283(9) . . .
292(9) . . .
292(9) . . .
278(9) . . .
263(9) . . .
282(9) . . .
292(9) . . .
287(9) . . .
295(9) . . .
268(9) . . .
281(9) . . .
273(9) . . .
282(9) . . .
291(10) . . .
290(9) . . .
264(9) . . .
270(9) . . .
274(9) . . .
276(9) . . .
290(9) . . .
276(9) . . .
248(8) . . .
270(9) . . .
297(10) . . .
275(9) . . .
273(9) . . .
279(9) . . .
292(9) . . .
289(9) . . .
277(9) . . .
328(9) . . .
309(9) . . .
316(10) . . .
287(9) . . .
273(9) . . .
288(9) . . .
293(9) . . .
294(9) . . .
297(9) . . .
327(10) . . .
297(9) . . .
286(9) . . .
301(9) . . .
320(10) . . .
304(9) . . .
298(9) . . .
301(10) . . .
298(9) . . .
314(9) . . .
289(9) . . .
264(8) . . .
294(9) . . .
284(9) . . .
302(9) . . .
308(9) . . .
298(9) . . .
291(9) . . .
271(9) . . .
279(9) . . .
303(9) . . .
288(9) . . .
291(9) . . .
271(9) . . .
286(9) . . .
295(9) . . .
264(9) . . .
284(9) . . .
289(9) . . .
302(9) . . .
289(9) . . .
286(9) . . .
268(9) . . .
265(9) . . .
266(9) . . .
280(9) . . .
303(9) . . .
268(9) . . .
266(9) . . .
303(9) . . .
285(9) . . .
302(9) . . .
284(9) . . .
263(9) . . .
293(9) . . .
294(9) . . .
279(9) . . .
285(9) . . .
283(9) . . .
282(9) . . .
286(9) . . .
265(9) . . .
269(9) . . .
300(9) . . .
290(9) . . .
290(9) . . .
300(9) . . .
291(9) . . .
297(9) . . .
275(9) . . .
277(9) . . .
273(9) . . .
265(9) . . .
284(9) . . .
286(9) . . .
297(9) . . .
288(9) . . .
298(10) . . .
288(9) . . .
316(9) . . .
296(9) . . .
314(10) . . .
294(9) . . .
278(9) . . .
291(9) . . .
308(9) . . .
303(9) . . .
301(10) . . .
283(9) . . .
291(9) . . .
292(9) . . .
286(9) . . .
283(9) . . .
281(9) . . .
276(9) . . .
289(9) . . .
265(9) . . .
300(10) . . .
280(9) . . .
308(9) . . .
298(9) . . .
284(9) . . .
295(10) . . .
298(9) . . .
299(9) . . .
300(9) . . .
300(10) . . .
280(9) . . .
291(9) . . .
318(9) . . .
291(9) . . .
280(9) . . .
300(9) . . .
297(9) . . .
296(9) . . .
315(10) . . .
290(9) . . .
272(9) . . .
283(9) . . .
299(9) . . .
308(9) . . .
290(9) . . .
291(9) . . .
293(9) . . .
288(9) . . .
301(9) . . .
305(10) . . .
303(9) . . .
332(10) . . .
284(9) . . .
275(9) . . .
289(9) . . .
261(9) . . .
275(9) . . .
287(9) . . .
274(9) . . .
300(10) . . .
286(9) . . .
282(9) . . .
280(9) . . .
266(9) . . .
260(9) . . .
288(9) . . .
263(8) . . .
272(9) . . .
272(9) . . .
266(9) . . .
304(9) . . .
268(8) . . .
272(9) . . .
269(9) . . .
266(9) . . .
284(9) . . .
263(8) . . .
269(8) . . .
279(9) . . .
297(9) . . .
267(9) . . .
268(9) . . .
282(9) . . .
281(9) . . .
257(8) . . .
258(8) . . .
264(8) . . .
262(9) . . .
260(9) . . .
256(9) . . .
271(9) . . .
255(8) . . .
261(9) . . .
278(9) . . .
253(9) . . .
269(9) . . .
256(8) . . .
260(9) . . .
289(9) . . .
258(9) . . .
259(8) . . .
253(8) . . .
239(8) . . .
250(9) . . .
256(9) . . .
264(9) . . .
296(9) . . .
286(9) . . .
268(9) . . .
253(9) . . .
266(8) . . .
256(8) . . .
241(8) . . .
258(9) . . .
284(9) . . .
250(8) . . .
264(9) . . .
260(9) . . .
264(9) . . .
261(9) . . .
263(8) . . .
273(9) . . .
241(8) . . .
254(9) . . .
271(9) . . .
266(8) . . .
254(8) . . .
245(8) . . .
257(9) . . .
283(9) . . .
253(8) . . .
287(9) . . .
283(9) . . .
289(9) . . .
260(9) . . .
270(9) . . .
255(8) . . .
248(8) . . .
265(9) . . .
266(9) . . .
246(8) . . .
278(9) . . .
269(9) . . .
256(8) . . .
272(9) . . .
256(8) . . .
278(9) . . .
252(8) . . .
256(9) . . .
274(9) . . .
248(8) . . .
247(8) . . .
245(8) . . .
277(9) . . .
280(9) . . .
250(8) . . .
264(9) . . .
272(9) . . .
267(9) . . .
259(8) . . .
286(9) . . .
288(9) . . .
249(9) . . .
258(9) . . .
265(8) . . .
247(8) . . .
296(10) . . .
257(9) . . .
259(9) . . .
243(8) . . .
240(8) . . .
273(9) . . .
287(9) . . .
255(8) . . .
255(8) . . .
250(8) . . .
269(9) . . .
265(9) . . .
250(8) . . .
264(8) . . .
251(8) . . .
279(9) . . .
294(9) . . .
258(8) . . .
246(8) . . .
265(9) . . .
269(9) . . .
267(9) . . .
276(9) . . .
240(8) . . .
266(9) . . .
294(9) . . .
269(9) . . .
244(8) . . .
281(9) . . .
245(8) . . .
242(8) . . .
253(9) . . .
244(8) . . .
254(8) . . .
257(9) . . .
260(9) . . .
252(8) . . .
258(8) . . .
267(8) . . .
241(8) . . .
267(9) . . .
244(8) . . .
256(8) . . .
253(8) . . .
268(9) . . .
247(9) . . .
255(9) . . .
252(8) . . .
247(8) . . .
266(9) . . .
269(9) . . .
263(9) . . .
264(8) . . .
264(9) . . .
261(9) . . .
259(9) . . .
272(9) . . .
254(8) . . .
242(8) . . .
274(9) . . .
259(9) . . .
268(9) . . .
297(9) . . .
275(9) . . .
263(9) . . .
250(9) . . .
270(9) . . .
248(8) . . .
249(8) . . .
278(9) . . .
262(9) . . .
240(8) . . .
260(8) . . .
266(9) . . .
283(9) . . .
279(9) . . .
261(9) . . .
238(8) . . .
261(9) . . .
285(9) . . .
281(9) . . .
249(8) . . .
267(9) . . .
269(9) . . .
265(9) . . .
268(9) . . .
253(8) . . .
262(8) . . .
263(9) . . .
271(9) . . .
279(9) . . .
265(8) . . .
262(8) . . .
239(8) . . .
254(9) . . .
239(8) . . .
283(9) . . .
272(9) . . .
253(9) . . .
249(9) . . .
244(9) . . .
279(9) . . .
236(8) . . .
258(9) . . .
234(8) . . .
251(8) . . .
271(9) . . .
266(9) . . .
254(9) . . .
270(9) . . .
250(9) . . .
261(8) . . .
247(8) . . .
248(8) . . .
270(9) . . .
255(9) . . .
232(8) . . .
228(8) . . .
243(8) . . .
255(8) . . .
260(9) . . .
267(9) . . .
258(9) . . .
247(8) . . .
261(9) . . .
267(9) . . .
270(9) . . .
265(9) . . .
259(9) . . .
259(9) . . .
247(8) . . .
244(8) . . .
237(8) . . .
262(9) . . .
225(8) . . .
271(9) . . .
224(8) . . .
228(8) . . .
243(9) . . .
254(9) . . .
257(8) . . .
258(8) . . .
244(8) . . .
236(8) . . .
240(8) . . .
238(8) . . .
225(8) . . .
249(9) . . .
249(9) . . .
270(9) . . .
273(9) . . .
251(8) . . .
241(8) . . .
255(9) . . .
226(8) . . .
237(8) . . .
265(9) . . .
234(8) . . .
279(9) . . .
245(8) . . .
261(8) . . .
244(8) . . .
247(9) . . .
254(9) . . .
260(9) . . .
266(8) . . .
273(9) . . .
260(9) . . .
268(9) . . .
253(8) . . .
242(8) . . .
223(8) . . .
256(9) . . .
262(9) . . .
254(8) . . .
261(8) . . .
282(9) . . .
245(9) . . .
250(9) . . .
259(8) . . .
231(8) . . .
250(9) . . .
248(9) . . .
233(8) . . .
229(8) . . .
248(8) . . .
256(9) . . .
248(9) . . .
251(9) . . .
240(8) . . .
230(8) . . .
250(8) . . .
229(8) . . .
213(8) . . .
238(8) . . .
241(8) . . .
230(8) . . .
225(8) . . .
258(9) . . .
228(8) . . .
251(8) . . .
240(8) . . .
231(9) . . .
223(8) . . .
244(8) . . .
256(8) . . .
256(9) . . .
247(9) . . .
234(8) . . .
244(8) . . .
267(9) . . .
249(8) . . .
251(9) . . .
240(8) . . .
263(8) . . .
241(8) . . .
250(8) . . .
249(9) . . .
245(9) . . .
244(8) . . .
264(9) . . .
250(8) . . .
278(9) . . .
254(8) . . .
245(8) . . .
272(9) . . .
257(9) . . .
276(9) . . .
285(9) . . .
306(9) . . .
275(9) . . .
255(9) . . .
270(9) . . .
263(8) . . .
292(9) . . .
273(9) . . .
297(9) . . .
259(8) . . .
262(8) . . .
266(8) . . .
260(8) . . .
284(9) . . .
276(9) . . .
275(9) . . .
256(8) . . .
267(9) . . .
251(9) . . .
241(8) . . .
249(8) . . .
244(8) . . .
259(9) . . .
243(9) . . .
245(8) . . .
225(8) . . .
220(8) . . .
248(9) . . .
247(9) . . .
232(8) . . .
247(8) . . .
235(8) . . .
244(9) . . .
230(8) . . .
248(8) . . .
243(8) . . .
230(8) . . .
235(8) . . .
197(7) . . .
237(8) . . .
262(8) . . .
246(8) . . .
225(8) . . .
231(8) . . .
234(8) . . .
223(8) . . .
241(8) . . .
233(8) . . .
227(8) . . .
240(8) . . .
220(8) . . .
222(8) . . .
238(8) . . .
240(8) . . .
238(8) . . .
237(8) . . .
228(8) . . .
215(8) . . .
223(8) . . .
234(8) . . .
221(8) . . .
206(8) . . .
233(8) . . .
220(8) . . .
230(8) . . .
221(8) . . .
242(8) . . .
229(8) . . .
240(8) . . .
228(8) . . .
225(8) . . .
207(8) . . .
244(9) . . .
248(9) . . .
219(8) . . .
233(8) . . .
212(8) . . .
252(9) . . .
233(8) . . .
208(8) . . .
221(8) . . .
240(8) . . .
237(8) . . .
221(8) . . .
230(8) . . .
231(8) . . .
214(8) . . .
222(8) . . .
220(8) . . .
211(7) . . .
239(8) . . .
223(8) . . .
214(8) . . .
227(8) . . .
227(8) . . .
220(8) . . .
234(8) . . .
218(8) . . .
252(8) . . .
233(8) . . .
225(8) . . .
229(8) . . .
212(8) . . .
209(8) . . .
238(8) . . .
207(8) . . .
226(8) . . .
224(8) . . .
231(8) . . .
221(8) . . .
224(8) . . .
230(8) . . .
226(8) . . .
224(8) . . .
243(8) . . .
215(8) . . .
235(9) . . .
209(8) . . .
227(8) . . .
221(8) . . .
233(8) . . .
225(8) . . .
198(8) . . .
237(8) . . .
245(8) . . .
231(8) . . .
222(8) . . .
236(8) . . .
231(8) . . .
228(8) . . .
236(8) . . .
207(8) . . .
208(8) . . .
242(8) . . .
221(8) . . .
225(8) . . .
229(8) . . .
248(9) . . .
208(8) . . .
222(8) . . .
226(8) . . .
227(8) . . .
249(8) . . .
234(8) . . .
223(8) . . .
211(8) . . .
217(8) . . .
222(8) . . .
225(8) . . .
217(8) . . .
218(8) . . .
225(8) . . .
229(8) . . .
205(7) . . .
219(8) . . .
239(9) . . .
226(8) . . .
236(8) . . .
207(7) . . .
209(8) . . .
222(8) . . .
204(8) . . .
216(8) . . .
245(8) . . .
221(8) . . .
228(8) . . .
227(8) . . .
219(8) . . .
206(7) . . .
226(8) . . .
218(8) . . .
205(8) . . .
235(8) . . .
231(8) . . .
208(8) . . .
211(8) . . .
231(8) . . .
231(8) . . .
223(8) . . .
218(8) . . .
226(8) . . .
220(8) . . .
217(8) . . .
215(8) . . .
219(8) . . .
229(8) . . .
228(8) . . .
241(8) . . .
221(8) . . .
234(8) . . .
215(8) . . .
224(8) . . .
235(8) . . .
235(8) . . .
237(8) . . .
218(8) . . .
227(8) . . .
222(8) . . .
221(8) . . .
232(8) . . .
215(8) . . .
219(8) . . .
225(8) . . .
208(8) . . .
230(9) . . .
221(8) . . .
240(8) . . .
237(8) . . .
226(8) . . .
214(8) . . .
224(8) . . .
215(8) . . .
200(7) . . .
223(8) . . .
235(9) . . .
231(8) . . .
228(8) . . .
217(8) . . .
214(8) . . .
222(8) . . .
223(8) . . .
216(8) . . .
207(8) . . .
202(8) . . .
210(8) . . .
211(8) . . .
222(8) . . .
224(8) . . .
215(8) . . .
223(8) . . .
206(8) . . .
209(8) . . .
221(8) . . .
202(8) . . .
213(8) . . .
223(8) . . .
243(8) . . .
228(8) . . .
229(8) . . .
207(8) . . .
209(8) . . .
203(7) . . .
230(8) . . .
237(8) . . .
225(8) . . .
232(8) . . .
218(8) . . .
208(8) . . .
204(8) . . .
219(8) . . .
226(8) . . .
210(8) . . .
209(8) . . .
223(8) . . .
231(8) . . .
238(8) . . .
211(8) . . .
231(8) . . .
214(8) . . .
228(8) . . .
227(8) . . .
209(8) . . .
220(8) . . .
216(8) . . .
237(8) . . .
229(8) . . .
230(8) . . .
228(8) . . .
211(8) . . .
216(8) . . .
226(8) . . .
229(8) . . .
225(8) . . .
215(8) . . .
225(8) . . .
212(8) . . .
219(8) . . .
217(8) . . .
224(8) . . .
201(8) . . .
226(8) . . .
232(8) . . .
213(8) . . .
219(8) . . .
223(8) . . .
223(8) . . .
233(8) . . .
209(8) . . .
236(8) . . .
228(8) . . .
190(7) . . .
226(8) . . .
225(8) . . .
222(8) . . .
219(8) . . .
219(8) . . .
222(8) . . .
200(8) . . .
207(8) . . .
226(8) . . .
240(8) . . .
215(8) . . .
235(9) . . .
211(8) . . .
222(8) . . .
252(8) . . .
236(8) . . .
234(8) . . .
211(8) . . .
217(8) . . .
223(8) . . .
205(8) . . .
208(8) . . .
206(8) . . .
227(8) . . .
223(8) . . .
195(8) . . .
212(8) . . .
223(8) . . .
218(8) . . .
206(7) . . .
202(8) . . .
194(8) . . .
204(8) . . .
211(8) . . .
211(8) . . .
215(8) . . .
209(8) . . .
219(8) . . .
214(8) . . .
200(7) . . .
217(8) . . .
212(8) . . .
231(8) . . .
230(8) . . .
223(8) . . .
223(8) . . .
207(8) . . .
219(8) . . .
201(7) . . .
225(8) . . .
224(8) . . .
213(8) . . .
223(8) . . .
213(8) . . .
216(8) . . .
197(8) . . .
209(8) . . .
214(8) . . .
192(7) . . .
215(8) . . .
197(8) . . .
216(8) . . .
219(8) . . .
205(7) . . .
211(8) . . .
209(8) . . .
230(8) . . .
205(7) . . .
189(7) . . .
200(8) . . .
211(8) . . .
193(7) . . .
207(8) . . .
199(7) . . .
206(8) . . .
224(8) . . .
211(8) . . .
220(8) . . .
184(7) . . .
220(8) . . .
202(8) . . .
203(8) . . .
209(7) . . .
219(8) . . .
223(8) . . .
200(8) . . .
197(7) . . .
202(7) . . .
204(7) . . .
213(8) . . .
207(8) . . .
219(8) . . .
209(7) . . .
213(8) . . .
211(8) . . .
209(8) . . .
188(7) . . .
195(7) . . .
222(8) . . .
218(8) . . .
211(8) . . .
217(8) . . .
217(8) . . .
189(7) . . .
205(8) . . .
211(8) . . .
217(8) . . .
176(7) . . .
193(7) . . .
203(8) . . .
226(8) . . .
199(7) . . .
197(7) . . .
211(8) . . .
216(8) . . .
201(8) . . .
226(8) . . .
192(7) . . .
197(8) . . .
197(8) . . .
187(7) . . .
223(8) . . .
218(8) . . .
193(7) . . .
229(9) . . .
204(8) . . .
204(7) . . .
199(7) . . .
236(8) . . .
196(8) . . .
194(7) . . .
209(8) . . .
195(7) . . .
207(8) . . .
208(8) . . .
211(8) . . .
210(7) . . .
239(8) . . .
216(8) . . .
209(8) . . .
185(7) . . .
197(7) . . .
202(7) . . .
194(7) . . .
209(8) . . .
218(8) . . .
206(7) . . .
203(7) . . .
218(8) . . .
206(8) . . .
216(8) . . .
232(8) . . .
212(8) . . .
230(8) . . .
207(8) . . .
206(7) . . .
209(7) . . .
234(8) . . .
215(8) . . .
193(7) . . .
214(8) . . .
201(7) . . .
211(8) . . .
218(8) . . .
212(8) . . .
198(7) . . .
209(7) . . .
208(8) . . .
202(8) . . .
206(8) . . .
209(7) . . .
217(8) . . .
206(8) . . .
216(8) . . .
189(7) . . .
221(8) . . .
206(7) . . .
208(8) . . .
200(8) . . .
222(8) . . .
215(8) . . .
208(8) . . .
228(8) . . .
190(8) . . .
199(8) . . .
199(7) . . .
196(7) . . .
199(8) . . .
188(7) . . .
197(8) . . .
191(7) . . .
185(7) . . .
213(8) . . .
195(8) . . .
207(8) . . .
228(8) . . .
203(8) . . .
198(8) . . .
207(8) . . .
190(7) . . .
207(8) . . .
211(8) . . .
219(8) . . .
203(8) . . .
194(7) . . .
204(7) . . .
211(8) . . .
188(7) . . .
196(8) . . .
196(7) . . .
208(7) . . .
218(8) . . .
199(8) . . .
219(8) . . .
218(8) . . .
189(7) . . .
196(7) . . .
184(7) . . .
209(8) . . .
220(8) . . .
203(7) . . .
190(7) . . .
199(8) . . .
191(7) . . .
192(7) . . .
223(8) . . .
210(8) . . .
222(8) . . .
211(8) . . .
191(7) . . .
208(7) . . .
204(8) . . .
208(8) . . .
198(8) . . .
202(7) . . .
202(7) . . .
214(8) . . .
211(8) . . .
213(8) . . .
200(7) . . .
204(8) . . .
204(8) . . .
222(8) . . .
216(8) . . .
205(7) . . .
206(8) . . .
204(8) . . .
192(7) . . .
173(7) . . .
202(7) . . .
203(8) . . .
211(8) . . .
218(8) . . .
218(8) . . .
196(7) . . .
216(8) . . .
221(8) . . .
189(7) . . .
196(8) . . .
202(7) . . .
220(8) . . .
199(8) . . .
200(8) . . .
207(8) . . .
211(7) . . .
214(8) . . .
197(8) . . .
197(8) . . .
218(8) . . .
213(8) . . .
202(8) . . .
177(7) . . .
204(8) . . .
198(7) . . .
200(7) . . .
190(8) . . .
209(8) . . .
218(8) . . .
207(7) . . .
228(8) . . .
211(8) . . .
205(8) . . .
192(7) . . .
193(7) . . .
191(7) . . .
209(8) . . .
214(8) . . .
219(8) . . .
222(8) . . .
199(7) . . .
201(8) . . .
238(9) . . .
204(8) . . .
215(8) . . .
222(8) . . .
200(8) . . .
213(8) . . .
204(8) . . .
205(7) . . .
212(8) . . .
194(7) . . .
207(8) . . .
199(8) . . .
205(7) . . .
193(7) . . .
187(7) . . .
191(7) . . .
185(7) . . .
219(8) . . .
215(8) . . .
201(8) . . .
213(8) . . .
201(7) . . .
209(8) . . .
219(8) . . .
204(8) . . .
194(7) . . .
205(8) . . .
204(7) . . .
181(7) . . .
199(8) . . .
214(8) . . .
205(7) . . .
189(7) . . .
209(8) . . .
192(8) . . .
200(8) . . .
198(7) . . .
199(7) . . .
208(8) . . .
200(8) . . .
207(8) . . .
217(8) . . .
200(7) . . .
192(7) . . .
191(7) . . .
169(7) . . .
210(8) . . .
204(7) . . .
212(8) . . .
203(8) . . .
184(7) . . .
210(8) . . .
193(7) . . .
216(8) . . .
205(8) . . .
197(8) . . .
204(7) . . .
195(7) . . .
190(8) . . .
207(8) . . .
197(8) . . .
192(7) . . .
183(7) . . .
209(8) . . .
198(8) . . .
210(8) . . .
200(7) . . .
193(7) . . .
204(8) . . .
195(7) . . .
211(8) . . .
187(7) . . .
179(7) . . .
205(8) . . .
208(8) . . .
183(7) . . .
211(8) . . .
208(8) . . .
199(8) . . .
210(8) . . .
215(8) . . .
192(7) . . .
206(8) . . .
210(8) . . .
222(8) . . .
202(7) . . .
191(7) . . .
204(8) . . .
213(8) . . .
202(7) . . .
199(7) . . .
218(8) . . .
204(8) . . .
194(8) . . .
216(8) . . .
212(8) . . .
215(8) . . .
180(7) . . .
197(8) . . .
202(8) . . .
217(8) . . .
187(7) . . .
184(7) . . .
210(8) . . .
192(7) . . .
180(7) . . .
189(7) . . .
202(8) . . .
196(7) . . .
185(7) . . .
195(7) . . .
212(8) . . .
210(8) . . .
190(7) . . .
208(8) . . .
178(7) . . .
195(7) . . .
190(7) . . .
182(7) . . .
187(7) . . .
177(7) . . .
167(7) . . .
176(7) . . .
188(7) . . .
182(7) . . .
181(7) . . .
199(8) . . .
192(8) . . .
181(7) . . .
192(7) . . .
211(7) . . .
189(7) . . .
196(8) . . .
191(7) . . .
163(7) . . .
185(7) . . .
173(7) . . .
172(7) . . .
184(7) . . .
200(7) . . .
194(7) . . .
202(8) . . .
202(8) . . .
185(7) . . .
208(7) . . .
208(7) . . .
194(7) . . .
201(8) . . .
197(8) . . .
189(7) . . .
170(7) . . .
197(7) . . .
198(8) . . .
198(8) . . .
195(7) . . .
195(7) . . .
195(8) . . .
173(7) . . .
199(8) . . .
199(7) . . .
211(8) . . .
208(8) . . .
179(7) . . .
199(8) . . .
188(7) . . .
177(7) . . .
194(7) . . .
221(8) . . .
202(7) . . .
195(7) . . .
178(7) . . .
201(8) . . .
197(8) . . .
204(8) . . .
187(7) . . .
190(8) . . .
186(7) . . .
212(8) . . .
181(7) . . .
191(7) . . .
198(8) . . .
177(7) . . .
193(7) . . .
197(7) . . .
199(7) . . .
199(8) . . .
181(7) . . .
187(7) . . .
198(7) . . .
180(7) . . .
200(8) . . .
165(7) . . .
198(8) . . .
188(7) . . .
192(7) . . .
188(7) . . .
183(8) . . .
211(8) . . .
201(7) . . .
166(7) . . .
172(7) . . .
178(7) . . .
184(7) . . .
184(7) . . .
204(8) . . .
185(7) . . .
204(8) . . .
186(7) . . .
175(7) . . .
159(7) . . .
197(8) . . .
189(8) . . .
176(7) . . .
198(7) . . .
182(7) . . .
176(7) . . .
171(7) . . .
183(7) . . .
179(7) . . .
187(7) . . .
179(7) . . .
162(7) . . .
163(7) . . .
173(7) . . .
195(8) . . .
190(8) . . .
178(7) . . .
189(7) . . .
167(7) . . .
183(7) . . .
185(8) . . .
166(7) . . .
190(7) . . .
181(7) . . .
174(7) . . .
211(8) . . .
174(7) . . .
217(8) . . .
186(7) . . .
171(7) . . .
192(8) . . .
184(7) . . .
198(7) . . .
181(7) . . .
191(7) . . .
189(7) . . .
180(7) . . .
184(7) . . .
179(7) . . .
178(7) . . .
209(8) . . .
198(7) . . .
195(7) . . .
190(7) . . .
202(8) . . .
201(8) . . .
183(7) . . .
179(7) . . .
193(7) . . .
184(8) . . .
178(7) . . .
201(8) . . .
199(7) . . .
187(7) . . .
183(7) . . .
172(7) . . .
186(7) . . .
165(7) . . .
194(7) . . .
175(7) . . .
184(7) . . .
194(7) . . .
214(8) . . .
180(7) . . .
187(7) . . .
206(8) . . .
185(7) . . .
184(7) . . .
179(7) . . .
173(7) . . .
181(7) . . .
176(7) . . .
195(7) . . .
193(7) . . .
180(7) . . .
204(8) . . .
193(7) . . .
188(7) . . .
184(7) . . .
186(8) . . .
206(8) . . .
210(8) . . .
163(7) . . .
181(7) . . .
200(8) . . .
196(7) . . .
173(7) . . .
197(7) . . .
180(7) . . .
195(8) . . .
209(8) . . .
207(8) . . .
199(7) . . .
197(7) . . .
210(8) . . .
185(7) . . .
183(7) . . .
174(7) . . .
175(7) . . .
173(7) . . .
174(7) . . .
185(7) . . .
211(8) . . .
177(7) . . .
180(7) . . .
172(7) . . .
193(7) . . .
211(8) . . .
198(8) . . .
194(8) . . .
182(7) . . .
197(7) . . .
199(7) . . .
188(7) . . .
210(8) . . .
196(7) . . .
170(7) . . .
198(8) . . .
195(8) . . .
173(7) . . .
183(7) . . .
198(7) . . .
208(8) . . .
203(8) . . .
187(7) . . .
180(7) . . .
183(7) . . .
189(7) . . .
196(8) . . .
212(8) . . .
195(7) . . .
184(7) . . .
168(7) . . .
188(8) . . .
186(7) . . .
200(7) . . .
193(7) . . .
185(7) . . .
195(8) . . .
199(7) . . .
181(7) . . .
193(7) . . .
203(8) . . .
190(7) . . .
185(7) . . .
202(7) . . .
206(7) . . .
185(7) . . .
187(8) . . .
188(8) . . .
179(7) . . .
181(7) . . .
184(7) . . .
178(7) . . .
183(7) . . .
188(7) . . .
183(7) . . .
190(7) . . .
167(7) . . .
179(7) . . .
189(7) . . .
189(7) . . .
172(7) . . .
173(7) . . .
184(7) . . .
184(7) . . .
179(7) . . .
172(7) . . .
167(7) . . .
198(7) . . .
164(7) . . .
172(7) . . .
157(7) . . .
185(7) . . .
164(7) . . .
173(7) . . .
190(7) . . .
181(7) . . .
180(7) . . .
176(7) . . .
186(7) . . .
165(7) . . .
197(8) . . .
193(7) . . .
202(7) . . .
173(7) . . .
189(7) . . .
186(7) . . .
172(7) . . .
172(7) . . .
172(7) . . .
193(7) . . .
171(7) . . .
171(7) . . .
175(7) . . .
182(7) . . .
194(7) . . .
198(8) . . .
184(7) . . .
189(7) . . .
180(7) . . .
180(7) . . .
199(8) . . .
202(8) . . .
166(7) . . .
188(7) . . .
201(8) . . .
194(8) . . .
164(7) . . .
189(7) . . .
167(7) . . .
176(7) . . .
179(7) . . .
198(7) . . .
187(7) . . .
208(8) . . .
167(7) . . .
175(7) . . .
201(8) . . .
190(7) . . .
175(7) . . .
193(8) . . .
194(7) . . .
182(7) . . .
190(7) . . .
193(7) . . .
181(7) . . .
166(7) . . .
192(7) . . .
189(7) . . .
181(7) . . .
199(8) . . .
182(7) . . .
197(7) . . .
183(7) . . .
197(7) . . .
195(8) . . .
194(8) . . .
170(7) . . .
188(7) . . .
196(8) . . .
198(8) . . .
170(7) . . .
191(7) . . .
174(7) . . .
187(7) . . .
195(8) . . .
195(8) . . .
188(7) . . .
185(7) . . .
194(8) . . .
183(7) . . .
181(7) . . .
181(7) . . .
198(7) . . .
188(7) . . .
182(7) . . .
192(7) . . .
193(7) . . .
193(8) . . .
173(7) . . .
189(7) . . .
187(7) . . .
178(7) . . .
165(7) . . .
185(7) . . .
180(7) . . .
168(7) . . .
198(7) . . .
187(7) . . .
169(7) . . .
168(7) . . .
157(7) . . .
185(7) . . .
172(7) . . .
175(7) . . .
182(7) . . .
188(7) . . .
176(7) . . .
175(7) . . .
189(8) . . .
167(7) . . .
197(7) . . .
183(7) . . .
168(7) . . .
199(8) . . .
180(7) . . .
177(7) . . .
180(7) . . .
172(7) . . .
202(8) . . .
183(7) . . .
179(7) . . .
174(7) . . .
180(7) . . .
150(7) . . .
155(7) . . .
181(7) . . .
180(7) . . .
169(7) . . .
174(7) . . .
182(7) . . .
180(7) . . .
171(7) . . .
153(7) . . .
183(7) . . .
184(7) . . .
182(7) . . .
188(7) . . .
165(7) . . .
166(7) . . .
176(7) . . .
179(7) . . .
163(7) . . .
168(7) . . .
187(7) . . .
184(7) . . .
185(7) . . .
180(7) . . .
173(7) . . .
171(7) . . .
186(7) . . .
175(7) . . .
177(7) . . .
174(7) . . .
170(7) . . .
184(7) . . .
172(7) . . .
166(7) . . .
177(7) . . .
183(7) . . .
187(7) . . .
180(7) . . .
175(7) . . .
168(7) . . .
169(7) . . .
167(7) . . .
168(7) . . .
177(7) . . .
175(7) . . .
164(7) . . .
173(7) . . .
172(7) . . .
182(7) . . .
177(7) . . .
190(8) . . .
171(7) . . .
168(7) . . .
168(7) . . .
173(7) . . .
157(7) . . .
169(7) . . .
172(7) . . .
163(7) . . .
174(7) . . .
187(7) . . .
192(7) . . .
196(8) . . .
158(7) . . .
170(7) . . .
180(7) . . .
167(7) . . .
196(7) . . .
184(7) . . .
181(7) . . .
176(7) . . .
203(7) . . .
181(7) . . .
176(7) . . .
174(7) . . .
159(7) . . .
176(7) . . .
174(7) . . .
165(7) . . .
168(7) . . .
187(7) . . .
175(7) . . .
175(7) . . .
179(7) . . .
188(7) . . .
199(7) . . .
179(7) . . .
177(7) . . .
189(8) . . .
193(7) . . .
183(7) . . .
199(7) . . .
191(7) . . .
173(7) . . .
195(7) . . .
196(7) . . .
175(7) . . .
181(7) . . .
174(7) . . .
189(7) . . .
181(7) . . .
194(7) . . .
179(7) . . .
172(7) . . .
188(7) . . .
187(7) . . .
174(7) . . .
174(7) . . .
184(7) . . .
185(7) . . .
190(7) . . .
169(7) . . .
170(7) . . .
162(7) . . .
197(8) . . .
186(7) . . .
185(7) . . .
164(7) . . .
169(7) . . .
194(7) . . .
171(7) . . .
165(7) . . .
176(7) . . .
185(7) . . .
182(7) . . .
178(7) . . .
181(7) . . .
189(8) . . .
168(7) . . .
158(7) . . .
197(7) . . .
191(7) . . .
191(8) . . .
176(7) . . .
185(7) . . .
187(7) . . .
181(7) . . .
176(7) . . .
188(7) . . .
190(7) . . .
181(7) . . .
199(8) . . .
171(7) . . .
166(7) . . .
177(7) . . .
173(7) . . .
173(7) . . .
192(8) . . .
192(8) . . .
219(8) . . .
173(7) . . .
176(7) . . .
185(8) . . .
174(7) . . .
194(7) . . .
178(7) . . .
180(7) . . .
177(7) . . .
160(7) . . .
181(7) . . .
194(7) . . .
191(8) . . .
176(7) . . .
187(7) . . .
174(7) . . .
176(7) . . .
186(7) . . .
185(7) . . .
181(7) . . .
195(7) . . .
165(7) . . .
169(7) . . .
184(7) . . .
176(7) . . .
176(7) . . .
174(7) . . .
175(7) . . .
174(7) . . .
163(7) . . .
169(7) . . .
172(7) . . .
177(7) . . .
167(7) . . .
187(7) . . .
149(6) . . .
177(7) . . .
194(8) . . .
179(7) . . .
194(7) . . .
175(7) . . .
179(7) . . .
156(7) . . .
175(7) . . .
173(7) . . .
161(7) . . .
163(7) . . .
168(7) . . .
174(7) . . .
188(7) . . .
182(7) . . .
157(7) . . .
160(7) . . .
178(7) . . .
174(7) . . .
183(7) . . .
171(7) . . .
178(7) . . .
161(7) . . .
156(6) . . .
180(7) . . .
189(7) . . .
194(7) . . .
184(7) . . .
182(7) . . .
177(7) . . .
168(7) . . .
186(7) . . .
188(7) . . .
192(7) . . .
186(8) . . .
177(7) . . .
178(7) . . .
166(7) . . .
182(7) . . .
177(7) . . .
175(7) . . .
181(7) . . .
161(7) . . .
163(7) . . .
174(7) . . .
188(8) . . .
174(7) . . .
175(7) . . .
170(7) . . .
177(7) . . .
175(7) . . .
186(7) . . .
180(7) . . .
183(7) . . .
175(7) . . .
188(8) . . .
161(7) . . .
175(7) . . .
184(7) . . .
153(7) . . .
161(7) . . .
168(7) . . .
184(7) . . .
186(7) . . .
181(7) . . .
193(8) . . .
184(7) . . .
175(7) . . .
174(7) . . .
185(7) . . .
178(7) . . .
161(7) . . .
177(7) . . .
175(7) . . .
170(7) . . .
170(7) . . .
179(7) . . .
193(7) . . .
183(7) . . .
178(7) . . .
191(8) . . .
161(7) . . .
175(7) . . .
172(7) . . .
180(7) . . .
186(7) . . .
158(7) . . .
164(7) . . .
165(7) . . .
179(8) . . .
169(7) . . .
184(7) . . .
174(7) . . .
171(7) . . .
176(7) . . .
173(7) . . .
160(7) . . .
178(7) . . .
173(7) . . .
185(7) . . .
175(7) . . .
162(7) . . .
184(7) . . .
176(7) . . .
163(7) . . .
165(7) . . .
177(7) . . .
173(7) . . .
180(7) . . .
168(7) . . .
187(7) . . .
175(7) . . .
171(7) . . .
195(8) . . .
182(8) . . .
169(7) . . .
158(7) . . .
175(7) . . .
183(7) . . .
161(7) . . .
170(7) . . .
170(7) . . .
181(7) . . .
159(7) . . .
160(7) . . .
186(7) . . .
191(7) . . .
178(7) . . .
196(8) . . .
172(7) . . .
163(7) . . .
162(7) . . .
174(7) . . .
179(7) . . .
178(7) . . .
184(7) . . .
193(7) . . .
173(7) . . .
197(8) . . .
191(8) . . .
172(7) . . .
189(7) . . .
173(7) . . .
180(7) . . .
186(7) . . .
177(7) . . .
212(8) . . .
178(7) . . .
178(8) . . .
174(7) . . .
161(7) . . .
162(7) . . .
192(7) . . .
189(8) . . .
177(7) . . .
179(7) . . .
182(7) . . .
185(7) . . .
187(8) . . .
172(7) . . .
177(7) . . .
169(7) . . .
180(7) . . .
180(7) . . .
165(7) . . .
176(7) . . .
172(7) . . .
182(8) . . .
161(7) . . .
173(7) . . .
190(7) . . .
187(7) . . .
171(7) . . .
205(8) . . .
180(7) . . .
173(7) . . .
176(7) . . .
177(7) . . .
181(7) . . .
163(7) . . .
190(7) . . .
176(7) . . .
175(7) . . .
179(7) . . .
173(7) . . .
172(7) . . .
204(8) . . .
171(7) . . .
172(7) . . .
171(7) . . .
165(7) . . .
158(7) . . .
184(8) . . .
191(8) . . .
155(6) . . .
164(7) . . .
190(7) . . .
179(7) . . .
176(7) . . .
157(7) . . .
158(7) . . .
165(7) . . .
153(7) . . .
179(7) . . .
155(6) . . .
160(7) . . .
163(7) . . .
177(7) . . .
183(7) . . .
170(7) . . .
198(7) . . .
172(7) . . .
175(7) . . .
171(7) . . .
162(7) . . .
194(7) . . .
160(7) . . .
181(7) . . .
188(7) . . .
176(7) . . .
178(7) . . .
175(7) . . .
174(7) . . .
180(7) . . .
168(7) . . .
171(7) . . .
155(7) . . .
164(7) . . .
195(7) . . .
194(7) . . .
184(7) . . .
171(7) . . .
167(7) . . .
174(7) . . .
175(7) . . .
192(7) . . .
184(7) . . .
187(7) . . .
170(7) . . .
198(7) . . .
192(7) . . .
185(7) . . .
193(7) . . .
183(7) . . .
163(7) . . .
180(7) . . .
165(7) . . .
177(7) . . .
196(7) . . .
189(7) . . .
169(7) . . .
179(7) . . .
184(7) . . .
177(7) . . .
179(7) . . .
179(7) . . .
175(7) . . .
196(8) . . .
154(6) . . .
175(7) . . .
182(7) . . .
193(8) . . .
186(7) . . .
164(7) . . .
194(7) . . .
176(7) . . .
164(7) . . .
168(7) . . .
179(7) . . .
170(7) . . .
177(7) . . .
164(7) . . .
205(8) . . .
177(7) . . .
179(7) . . .
178(7) . . .
184(8) . . .
156(7) . . .
176(7) . . .
175(7) . . .
193(7) . . .
190(7) . . .
181(7) . . .
173(7) . . .
162(7) . . .
173(7) . . .
186(7) . . .
208(8) . . .
188(7) . . .
183(7) . . .
195(8) . . .
164(7) . . .
184(7) . . .
168(7) . . .
178(7) . . .
186(7) . . .
168(7) . . .
171(7) . . .
201(7) . . .
187(7) . . .
196(8) . . .
193(7) . . .
185(7) . . .
166(7) . . .
174(7) . . .
181(8) . . .
185(8) . . .
174(7) . . .
175(7) . . .
180(7) . . .
184(7) . . .
149(6) . . .
161(7) . . .
175(7) . . .
190(7) . . .
164(7) . . .
177(7) . . .
183(7) . . .
162(7) . . .
174(7) . . .
165(7) . . .
178(7) . . .
174(7) . . .
165(7) . . .
166(7) . . .
176(7) . . .
188(7) . . .
181(7) . . .
195(7) . . .
166(7) . . .
165(7) . . .
170(7) . . .
184(7) . . .
172(7) . . .
195(8) . . .
173(7) . . .
174(7) . . .
178(7) . . .
155(7) . . .
177(7) . . .
178(7) . . .
182(7) . . .
196(7) . . .
175(7) . . .
163(7) . . .
196(8) . . .
178(7) . . .
167(7) . . .
180(7) . . .
171(7) . . .
171(7) . . .
184(7) . . .
163(7) . . .
159(7) . . .
175(7) . . .
189(7) . . .
177(7) . . .
170(7) . . .
177(7) . . .
187(8) . . .
184(7) . . .
170(7) . . .
187(7) . . .
176(7) . . .
182(7) . . .
206(8) . . .
197(7) . . .
200(8) . . .
201(7) . . .
191(7) . . .
183(7) . . .
197(7) . . .
186(7) . . .
173(7) . . .
175(7) . . .
161(7) . . .
163(7) . . .
184(7) . . .
194(8) . . .
180(7) . . .
175(7) . . .
188(7) . . .
178(7) . . .
172(7) . . .
162(7) . . .
181(7) . . .
187(7) . . .
176(7) . . .
169(7) . . .
161(7) . . .
192(7) . . .
181(7) . . .
193(7) . . .
155(7) . . .
171(7) . . .
167(7) . . .
172(7) . . .
186(7) . . .
161(7) . . .
170(7) . . .
168(7) . . .
183(7) . . .
181(7) . . .
174(7) . . .
180(7) . . .
183(7) . . .
174(7) . . .
167(7) . . .
169(7) . . .
175(7) . . .
170(7) . . .
166(7) . . .
164(7) . . .
188(8) . . .
186(7) . . .
168(7) . . .
163(7) . . .
175(7) . . .
178(7) . . .
158(7) . . .
167(7) . . .
164(7) . . .
168(7) . . .
175(7) . . .
161(7) . . .
169(7) . . .
175(7) . . .
171(7) . . .
177(7) . . .
171(7) . . .
164(7) . . .
178(7) . . .
172(7) . . .
200(8) . . .
184(7) . . .
187(7) . . .
180(7) . . .
159(7) . . .
165(7) . . .
173(7) . . .
174(7) . . .
183(7) . . .
180(7) . . .
182(7) . . .
190(7) . . .
184(7) . . .
171(7) . . .
194(8) . . .
176(7) . . .
177(7) . . .
180(7) . . .
184(7) . . .
155(7) . . .
170(7) . . .
179(7) . . .
162(7) . . .
163(7) . . .
188(8) . . .
166(7) . . .
173(7) . . .
170(7) . . .
166(7) . . .
179(7) . . .
161(7) . . .
174(7) . . .
156(6) . . .
172(7) . . .
192(8) . . .
175(7) . . .
171(7) . . .
169(7) . . .
160(7) . . .
198(8) . . .
179(7) . . .
157(7) . . .
176(7) . . .
176(7) . . .
187(7) . . .
173(7) . . .
170(7) . . .
172(7) . . .
169(7) . . .
164(7) . . .
172(7) . . .
177(7) . . .
178(7) . . .
175(7) . . .
187(7) . . .
157(7) . . .
171(7) . . .
177(7) . . .
177(8) . . .
184(8) . . .
182(7) . . .
177(7) . . .
174(7) . . .
185(7) . . .
173(7) . . .
177(7) . . .
163(7) . . .
162(7) . . .
175(7) . . .
185(7) . . .
164(7) . . .
172(7) . . .
184(7) . . .
192(8) . . .
166(7) . . .
165(7) . . .
168(7) . . .
182(7) . . .
172(7) . . .
159(7) . . .
175(7) . . .
159(7) . . .
176(7) . . .
163(7) . . .
159(7) . . .
170(7) . . .
179(7) . . .
165(7) . . .
164(7) . . .
152(6) . . .
185(7) . . .
144(6) . . .
160(7) . . .
163(7) . . .
166(7) . . .
183(7) . . .
153(6) . . .
174(7) . . .
177(7) . . .
159(7) . . .
163(7) . . .
163(7) . . .
188(7) . . .
176(7) . . .
175(7) . . .
172(7) . . .
188(7) . . .
183(7) . . .
173(7) . . .
181(7) . . .
169(7) . . .
189(8) . . .
164(7) . . .
173(7) . . .
157(7) . . .
166(7) . . .
168(7) . . .
165(7) . . .
171(7) . . .
178(7) . . .
178(7) . . .
176(7) . . .
174(7) . . .
170(7) . . .
160(7) . . .
177(7) . . .
158(7) . . .
164(7) . . .
182(7) . . .
162(7) . . .
172(7) . . .
179(7) . . .
179(7) . . .
188(7) . . .
175(7) . . .
173(7) . . .
182(7) . . .
173(7) . . .
182(7) . . .
172(7) . . .
177(7) . . .
170(7) . . .
161(7) . . .
176(7) . . .
177(7) . . .
166(7) . . .
173(7) . . .
189(8) . . .
180(7) . . .
186(7) . . .
173(7) . . .
181(7) . . .
178(7) . . .
175(7) . . .
176(7) . . .
193(7) . . .
179(7) . . .
195(8) . . .
183(7) . . .
183(7) . . .
170(7) . . .
175(7) . . .
177(7) . . .
187(7) . . .
173(7) . . .
171(7) . . .
186(8) . . .
173(7) . . .
183(7) . . .
191(7) . . .
177(7) . . .
167(7) . . .
191(7) . . .
179(7) . . .
168(7) . . .
188(7) . . .
182(7) . . .
174(7) . . .
175(7) . . .
172(7) . . .
178(7) . . .
176(7) . . .
180(7) . . .
181(7) . . .
179(7) . . .
158(7) . . .
197(8) . . .
195(8) . . .
166(7) . . .
177(7) . . .
205(8) . . .
198(8) . . .
180(7) . . .
172(7) . . .
184(7) . . .
187(7) . . .
164(7) . . .
160(7) . . .
170(7) . . .
167(7) . . .
184(7) . . .
180(7) . . .
192(7) . . .
173(7) . . .
168(7) . . .
176(7) . . .
180(7) . . .
176(7) . . .
179(7) . . .
175(7) . . .
186(8) . . .
173(7) . . .
158(7) . . .
172(7) . . .
172(7) . . .
180(8) . . .
158(7) . . .
185(7) . . .
162(7) . . .
167(7) . . .
167(7) . . .
154(7) . . .
166(7) . . .
173(7) . . .
154(7) . . .
163(7) . . .
166(7) . . .
187(7) . . .
166(7) . . .
176(7) . . .
176(8) . . .
164(7) . . .
156(6) . . .
157(7) . . .
164(7) . . .
161(7) . . .
169(7) . . .
183(7) . . .
176(7) . . .
191(7) . . .
168(7) . . .
157(7) . . .
194(7) . . .
184(7) . . .
178(7) . . .
168(7) . . .
176(7) . . .
175(7) . . .
175(7) . . .
197(8) . . .
189(7) . . .
177(7) . . .
154(6) . . .
170(7) . . .
180(8) . . .
154(7) . . .
170(7) . . .
165(7) . . .
166(7) . . .
178(7) . . .
176(7) . . .
167(7) . . .
165(7) . . .
188(7) . . .
185(8) . . .
191(7) . . .
167(7) . . .
183(7) . . .
184(7) . . .
191(8) . . .
197(8) . . .
186(7) . . .
170(7) . . .
179(7) . . .
190(8) . . .
188(7) . . .
193(7) . . .
182(7) . . .
178(7) . . .
169(7) . . .
179(7) . . .
182(7) . . .
189(7) . . .
199(8) . . .
185(8) . . .
200(8) . . .
170(7) . . .
174(7) . . .
186(7) . . .
186(7) . . .
192(7) . . .
210(8) . . .
190(7) . . .
173(7) . . .
189(8) . . .
199(8) . . .
192(7) . . .
188(7) . . .
174(7) . . .
183(8) . . .
184(7) . . .
189(7) . . .
194(7) . . .
174(7) . . .
176(7) . . .
195(7) . . .
173(7) . . .
171(7) . . .
168(7) . . .
192(8) . . .
183(7) . . .
168(7) . . .
181(7) . . .
172(7) . . .
165(7) . . .
164(7) . . .
176(7) . . .
163(7) . . .
155(7) . . .
171(7) . . .
162(7) . . .
181(7) . . .
164(7) . . .
161(7) . . .
159(7) . . .
196(7) . . .
167(7) . . .
159(7) . . .
179(8) . . .
166(7) . . .
161(7) . . .
196(7) . . .
169(7) . . .
178(7) . . .
185(7) . . .
165(7) . . .
167(7) . . .
165(7) . . .
168(7) . . .
163(7) . . .
170(7) . . .
177(7) . . .
176(7) . . .
177(7) . . .
167(7) . . .
185(7) . . .
172(7) . . .
170(7) . . .
183(7) . . .
159(7) . . .
172(7) . . .
158(7) . . .
189(8) . . .
171(7) . . .
168(7) . . .
178(7) . . .
175(7) . . .
177(7) . . .
170(7) . . .
181(7) . . .
172(7) . . .
165(7) . . .
181(7) . . .
182(7) . . .
194(7) . . .
199(7) . . .
182(7) . . .
181(8) . . .
165(7) . . .
171(7) . . .
175(7) . . .
179(7) . . .
182(8) . . .
176(7) . . .
182(7) . . .
166(7) . . .
181(7) . . .
173(7) . . .
163(7) . . .
177(7) . . .
178(7) . . .
167(7) . . .
190(8) . . .
183(7) . . .
182(7) . . .
179(7) . . .
180(7) . . .
181(7) . . .
165(7) . . .
176(7) . . .
187(7) . . .
164(7) . . .
197(8) . . .
170(7) . . .
175(7) . . .
184(7) . . .
184(7) . . .
160(7) . . .
172(7) . . .
173(7) . . .
172(7) . . .
177(7) . . .
180(7) . . .
207(8) . . .
182(7) . . .
191(7) . . .
177(7) . . .
176(7) . . .
188(7) . . .
186(7) . . .
170(7) . . .
169(7) . . .
193(8) . . .
172(7) . . .
200(7) . . .
157(7) . . .
182(8) . . .
166(7) . . .
184(7) . . .
178(7) . . .
181(7) . . .
184(8) . . .
177(7) . . .
172(7) . . .
183(7) . . .
177(7) . . .
175(7) . . .
173(7) . . .
190(7) . . .
179(7) . . .
190(7) . . .
180(7) . . .
187(7) . . .
163(7) . . .
164(7) . . .
167(7) . . .
187(8) . . .
190(7) . . .
175(7) . . .
168(7) . . .
178(7) . . .
193(8) . . .
185(7) . . .
175(7) . . .
186(7) . . .
172(7) . . .
162(7) . . .
165(7) . . .
179(7) . . .
172(7) . . .
181(7) . . .
155(7) . . .
147(7) . . .
166(7) . . .
174(7) . . .
179(7) . . .
175(7) . . .
172(7) . . .
179(7) . . .
177(7) . . .
162(7) . . .
175(7) . . .
165(7) . . .
176(7) . . .
182(7) . . .
166(7) . . .
170(7) . . .
159(7) . . .
181(7) . . .
165(7) . . .
167(7) . . .
168(7) . . .
151(6) . . .
174(7) . . .
181(7) . . .
164(7) . . .
160(7) . . .
163(7) . . .
172(7) . . .
161(7) . . .
163(7) . . .
155(7) . . .
162(7) . . .
157(7) . . .
163(7) . . .
169(7) . . .
165(7) . . .
179(7) . . .
180(7) . . .
181(7) . . .
182(7) . . .
172(7) . . .
169(7) . . .
178(7) . . .
164(7) . . .
178(7) . . .
161(7) . . .
175(7) . . .
163(7) . . .
180(7) . . .
167(7) . . .
178(7) . . .
166(7) . . .
169(7) . . .
159(7) . . .
160(7) . . .
185(7) . . .
162(7) . . .
184(7) . . .
167(7) . . .
177(7) . . .
182(7) . . .
172(7) . . .
168(7) . . .
169(7) . . .
154(7) . . .
163(7) . . .
158(7) . . .
180(7) . . .
160(7) . . .
142(6) . . .
155(6) . . .
179(7) . . .
164(7) . . .
168(7) . . .
186(7) . . .
184(7) . . .
178(7) . . .
163(7) . . .
183(8) . . .
182(7) . . .
187(7) . . .
175(7) . . .
176(7) . . .
179(7) . . .
192(7) . . .
161(7) . . .
159(7) . . .
169(7) . . .
188(8) . . .
174(7) . . .
181(7) . . .
174(7) . . .
188(8) . . .
187(8) . . .
189(8) . . .
174(7) . . .
178(7) . . .
167(7) . . .
157(7) . . .
178(7) . . .
177(7) . . .
181(7) . . .
202(8) . . .
187(7) . . .
174(7) . . .
176(7) . . .
162(7) . . .
166(7) . . .
159(7) . . .
163(7) . . .
173(7) . . .
184(7) . . .
162(7) . . .
174(7) . . .
176(7) . . .
156(6) . . .
180(7) . . .
174(7) . . .
172(7) . . .
170(7) . . .
178(7) . . .
165(7) . . .
151(7) . . .
178(7) . . .
159(6) . . .
176(7) . . .
169(7) . . .
167(7) . . .
168(7) . . .
180(7) . . .
185(7) . . .
171(7) . . .
172(7) . . .
169(7) . . .
159(7) . . .
161(7) . . .
186(7) . . .
169(7) . . .
144(6) . . .
176(7) . . .
167(7) . . .
182(7) . . .
163(7) . . .
186(7) . . .
155(6) . . .
153(7) . . .
164(7) . . .
153(7) . . .
160(7) . . .
159(7) . . .
175(7) . . .
153(7) . . .
156(7) . . .
166(7) . . .
179(7) . . .
155(7) . . .
168(7) . . .
164(7) . . .
174(7) . . .
160(7) . . .
178(7) . . .
179(7) . . .
174(7) . . .
161(7) . . .
159(7) . . .
172(7) . . .
175(7) . . .
149(7) . . .
164(7) . . .
182(7) . . .
168(7) . . .
158(7) . . .
174(7) . . .
160(7) . . .
177(7) . . .
164(7) . . .
170(7) . . .
154(7) . . .
167(7) . . .
154(7) . . .
183(7) . . .
174(7) . . .
183(7) . . .
167(7) . . .
195(7) . . .
161(7) . . .
168(7) . . .
177(7) . . .
182(7) . . .
175(7) . . .
165(7) . . .
165(7) . . .
159(7) . . .
160(7) . . .
158(7) . . .
163(7) . . .
169(7) . . .
185(7) . . .
195(7) . . .
187(8) . . .
157(7) . . .
163(7) . . .
190(7) . . .
184(7) . . .
173(7) . . .
163(7) . . .
172(7) . . .
163(7) . . .
164(7) . . .
163(7) . . .
172(7) . . .
174(7) . . .
197(7) . . .
177(7) . . .
188(7) . . .
171(7) . . .
153(7) . . .
163(7) . . .
166(7) . . .
161(7) . . .
144(7) . . .
172(7) . . .
175(7) . . .
176(7) . . .
178(7) . . .
170(7) . . .
181(7) . . .
155(6) . . .
157(6) . . .
174(7) . . .
175(8) . . .
164(7) . . .
172(7) . . .
169(7) . . .
158(7) . . .
168(7) . . .
181(7) . . .
172(7) . . .
166(7) . . .
144(6) . . .
154(7) . . .
156(7) . . .
174(7) . . .
173(7) . . .
173(7) . . .
185(8) . . .
163(7) . . .
167(7) . . .
171(7) . . .
158(7) . . .
181(7) . . .
153(7) . . .
157(7) . . .
158(7) . . .
157(7) . . .
174(7) . . .
155(7) . . .
164(7) . . .
171(7) . . .
179(7) . . .
152(6) . . .
175(7) . . .
179(7) . . .
177(7) . . .
174(7) . . .
156(7) . . .
161(7) . . .
153(6) . . .
166(7) . . .
158(7) . . .
161(7) . . .
174(7) . . .
170(7) . . .
166(7) . . .
159(7) . . .
167(7) . . .
156(7) . . .
151(6) . . .
169(7) . . .
185(8) . . .
162(7) . . .
151(6) . . .
155(7) . . .
151(6) . . .
159(7) . . .
170(7) . . .
173(7) . . .
151(6) . . .
185(7) . . .
179(7) . . .
172(7) . . .
171(7) . . .
170(7) . . .
157(7) . . .
160(7) . . .
164(7) . . .
178(7) . . .
165(7) . . .
172(7) . . .
169(7) . . .
147(7) . . .
166(7) . . .
184(7) . . .
168(7) . . .
156(7) . . .
160(7) . . .
165(7) . . .
170(7) . . .
162(7) . . .
171(7) . . .
182(7) . . .
182(7) . . .
177(7) . . .
156(7) . . .
154(7) . . .
167(7) . . .
167(7) . . .
154(7) . . .
159(7) . . .
164(7) . . .
174(7) . . .
162(7) . . .
183(7) . . .
149(7) . . .
147(7) . . .
161(7) . . .
185(7) . . .
157(7) . . .
153(7) . . .
166(7) . . .
169(7) . . .
181(7) . . .
173(7) . . .
163(7) . . .
152(6) . . .
149(6) . . .
168(7) . . .
160(7) . . .
173(7) . . .
176(7) . . .
190(7) . . .
180(7) . . .
185(8) . . .
172(7) . . .
176(7) . . .
182(7) . . .
168(7) . . .
160(7) . . .
156(7) . . .
175(7) . . .
178(7) . . .
167(7) . . .
166(7) . . .
173(7) . . .
170(7) . . .
187(7) . . .
181(7) . . .
152(7) . . .
177(7) . . .
168(7) . . .
163(7) . . .
190(7) . . .
175(7) . . .
160(7) . . .
176(7) . . .
175(7) . . .
186(8) . . .
176(7) . . .
173(7) . . .
163(7) . . .
155(6) . . .
177(7) . . .
184(8) . . .
177(7) . . .
175(7) . . .
161(7) . . .
172(7) . . .
189(8) . . .
180(7) . . .
179(7) . . .
170(7) . . .
150(6) . . .
152(7) . . .
170(7) . . .
163(7) . . .
159(7) . . .
158(7) . . .
149(7) . . .
153(7) . . .
179(7) . . .
160(7) . . .
161(7) . . .
156(7) . . .
172(7) . . .
170(7) . . .
167(7) . . .
161(7) . . .
157(7) . . .
164(7) . . .
157(7) . . .
183(7) . . .
168(7) . . .
190(7) . . .
176(7) . . .
182(7) . . .
171(7) . . .
163(7) . . .
156(7) . . .
158(7) . . .
182(7) . . .
160(7) . . .
175(7) . . .
170(7) . . .
167(7) . . .
162(7) . . .
150(7) . . .
160(7) . . .
158(7) . . .
158(7) . . .
168(7) . . .
180(7) . . .
180(7) . . .
170(7) . . .
170(7) . . .
183(7) . . .
149(6) . . .
173(8) . . .
167(7) . . .
167(7) . . .
166(7) . . .
168(7) . . .
162(7) . . .
177(7) . . .
181(7) . . .
155(6) . . .
177(7) . . .
158(7) . . .
171(7) . . .
158(7) . . .
162(7) . . .
182(7) . . .
169(7) . . .
155(7) . . .
178(7) . . .
196(7) . . .
173(7) . . .
169(7) . . .
163(7) . . .
190(7) . . .
169(7) . . .
163(7) . . .
164(7) . . .
160(7) . . .
157(7) . . .
157(7) . . .
178(7) . . .
169(7) . . .
165(7) . . .
160(6) . . .
162(7) . . .
161(7) . . .
167(7) . . .
178(7) . . .
153(6) . . .
155(7) . . .
156(7) . . .
153(6) . . .
170(7) . . .
155(6) . . .
150(7) . . .
159(7) . . .
163(7) . . .
169(7) . . .
154(6) . . .
147(7) . . .
165(7) . . .
159(7) . . .
165(7) . . .
189(7) . . .
171(7) . . .
153(7) . . .
167(7) . . .
173(7) . . .
167(7) . . .
171(7) . . .
171(7) . . .
184(8) . . .
180(7) . . .
160(7) . . .
183(7) . . .
176(7) . . .
179(7) . . .
171(7) . . .
155(7) . . .
169(7) . . .
178(7) . . .
183(7) . . .
171(7) . . .
171(7) . . .
165(7) . . .
179(7) . . .
151(6) . . .
154(6) . . .
148(6) . . .
168(7) . . .
168(7) . . .
156(7) . . .
167(7) . . .
141(6) . . .
169(7) . . .
187(7) . . .
156(7) . . .
169(7) . . .
161(7) . . .
155(7) . . .
163(7) . . .
163(7) . . .
159(7) . . .
169(7) . . .
151(7) . . .
171(7) . . .
186(7) . . .
175(7) . . .
164(7) . . .
190(8) . . .
179(7) . . .
145(6) . . .
168(7) . . .
160(7) . . .
175(7) . . .
149(6) . . .
155(7) . . .
147(6) . . .
161(7) . . .
181(8) . . .
165(7) . . .
161(7) . . .
180(7) . . .
182(7) . . .
169(7) . . .
143(6) . . .
157(6) . . .
173(7) . . .
153(7) . . .
160(7) . . .
162(7) . . .
171(7) . . .
194(7) . . .
173(7) . . .
167(7) . . .
155(7) . . .
164(7) . . .
169(7) . . .
173(7) . . .
162(7) . . .
178(7) . . .
172(7) . . .
172(7) . . .
157(7) . . .
172(7) . . .
168(7) . . .
168(7) . . .
170(7) . . .
172(7) . . .
183(7) . . .
165(7) . . .
169(7) . . .
182(7) . . .
166(7) . . .
171(7) . . .
169(7) . . .
162(7) . . .
162(7) . . .
159(7) . . .
172(7) . . .
162(7) . . .
153(6) . . .
163(7) . . .
162(7) . . .
153(7) . . .
170(7) . . .
150(6) . . .
167(7) . . .
159(7) . . .
168(7) . . .
167(7) . . .
170(7) . . .
181(7) . . .
180(8) . . .
162(7) . . .
167(7) . . .
172(7) . . .
157(7) . . .
160(7) . . .
170(7) . . .
163(7) . . .
151(6) . . .
153(7) . . .
148(7) . . .
154(7) . . .
171(7) . . .
166(7) . . .
172(7) . . .
160(7) . . .
159(7) . . .
168(7) . . .
174(7) . . .
167(7) . . .
177(7) . . .
177(7) . . .
150(6) . . .
160(7) . . .
179(7) . . .
151(7) . . .
161(7) . . .
170(7) . . .
191(8) . . .
158(7) . . .
174(7) . . .
165(7) . . .
178(7) . . .
165(7) . . .
150(7) . . .
146(6) . . .
152(6) . . .
169(7) . . .
178(7) . . .
166(7) . . .
167(7) . . .
179(7) . . .
165(7) . . .
163(7) . . .
169(7) . . .
152(6) . . .
158(7) . . .
169(7) . . .
171(7) . . .
163(7) . . .
163(7) . . .
165(7) . . .
164(7) . . .
156(7) . . .
158(7) . . .
153(7) . . .
177(7) . . .
158(7) . . .
164(7) . . .
148(7) . . .
158(7) . . .
164(7) . . .
165(7) . . .
151(7) . . .
167(7) . . .
166(7) . . .
159(7) . . .
171(7) . . .
165(7) . . .
164(7) . . .
148(7) . . .
151(6) . . .
149(7) . . .
170(7) . . .
166(7) . . .
148(6) . . .
156(6) . . .
165(7) . . .
176(7) . . .
163(7) . . .
168(7) . . .
159(7) . . .
169(7) . . .
161(7) . . .
178(7) . . .
176(7) . . .
160(7) . . .
167(7) . . .
149(7) . . .
156(7) . . .
164(7) . . .
175(7) . . .
165(7) . . .
164(7) . . .
171(7) . . .
144(6) . . .
163(7) . . .
172(7) . . .
152(7) . . .
153(6) . . .
164(7) . . .
178(7) . . .
175(7) . . .
168(7) . . .
167(7) . . .
157(6) . . .
168(7) . . .
171(7) . . .
153(7) . . .
157(7) . . .
162(7) . . .
164(7) . . .
160(7) . . .
158(7) . . .
147(6) . . .
169(7) . . .
168(7) . . .
158(7) . . .
149(7) . . .
165(7) . . .
151(6) . . .
162(7) . . .
143(6) . . .
159(7) . . .
166(7) . . .
152(6) . . .
149(7) . . .
167(7) . . .
171(7) . . .
155(7) . . .
166(7) . . .
169(7) . . .
152(7) . . .
156(7) . . .
156(7) . . .
162(7) . . .
178(7) . . .
166(7) . . .
182(7) . . .
181(7) . . .
168(7) . . .
158(7) . . .
165(7) . . .
139(6) . . .
164(7) . . .
169(7) . . .
149(7) . . .
156(7) . . .
150(7) . . .
158(7) . . .
152(6) . . .
156(7) . . .
161(7) . . .
156(7) . . .
160(7) . . .
158(7) . . .
149(6) . . .
150(7) . . .
166(7) . . .
148(6) . . .
167(7) . . .
164(7) . . .
148(6) . . .
162(7) . . .
165(7) . . .
164(7) . . .
136(6) . . .
175(7) . . .
164(7) . . .
156(6) . . .
162(7) . . .
152(7) . . .
158(7) . . .
162(7) . . .
155(6) . . .
151(7) . . .
157(7) . . .
158(7) . . .
173(7) . . .
163(7) . . .
148(7) . . .
146(7) . . .
149(6) . . .
158(7) . . .
160(7) . . .
165(7) . . .
166(7) . . .
155(7) . . .
173(7) . . .
169(7) . . .
157(7) . . .
150(7) . . .
160(7) . . .
167(7) . . .
191(7) . . .
157(7) . . .
174(7) . . .
132(6) . . .
167(7) . . .
146(6) . . .
159(7) . . .
176(7) . . .
157(7) . . .
160(7) . . .
171(7) . . .
152(7) . . .
148(7) . . .
154(7) . . .
152(6) . . .
155(6) . . .
158(7) . . .
158(7) . . .
145(6) . . .
157(6) . . .
174(7) . . .
149(7) . . .
144(6) . . .
168(7) . . .
153(6) . . .
150(7) . . .
155(7) . . .
159(7) . . .
165(7) . . .
161(7) . . .
171(7) . . .
155(7) . . .
148(6) . . .
155(6) . . .
164(7) . . .
163(7) . . .
149(7) . . .
157(7) . . .
165(7) . . .
151(6) . . .
173(7) . . .
176(7) . . .
162(7) . . .
164(7) . . .
168(7) . . .
171(7) . . .
163(7) . . .
176(7) . . .
158(6) . . .
180(7) . . .
175(7) . . .
176(7) . . .
162(7) . . .
149(6) . . .
168(7) . . .
169(7) . . .
156(7) . . .
146(7) . . .
161(7) . . .
170(7) . . .
174(7) . . .
156(7) . . .
157(7) . . .
161(7) . . .
158(7) . . .
151(7) . . .
157(7) . . .
153(7) . . .
159(7) . . .
158(7) . . .
147(7) . . .
160(7) . . .
165(7) . . .
171(7) . . .
156(7) . . .
162(7) . . .
185(7) . . .
148(6) . . .
152(6) . . .
166(7) . . .
156(7) . . .
151(7) . . .
159(7) . . .
167(7) . . .
154(7) . . .
141(6) . . .
139(6) . . .
158(7) . . .
167(7) . . .
153(7) . . .
153(7) . . .
160(7) . . .
155(7) . . .
157(7) . . .
159(7) . . .
163(7) . . .
150(7) . . .
168(7) . . .
164(7) . . .
163(7) . . .
148(7) . . .
159(7) . . .
143(6) . . .
173(7) . . .
163(7) . . .
162(7) . . .
171(7) . . .
169(7) . . .
158(7) . . .
145(6) . . .
156(7) . . .
170(7) . . .
155(6) . . .
159(7) . . .
157(7) . . .
152(7) . . .
164(7) . . .
141(6) . . .
151(6) . . .
151(7) . . .
145(7) . . .
143(6) . . .
157(7) . . .
168(7) . . .
168(7) . . .
143(6) . . .
155(7) . . .
168(7) . . .
146(6) . . .
170(7) . . .
175(7) . . .
157(7) . . .
150(6) . . .
158(7) . . .
168(7) . . .
166(7) . . .
174(7) . . .
155(6) . . .
150(7) . . .
165(7) . . .
161(7) . . .
170(7) . . .
162(7) . . .
167(7) . . .
164(7) . . .
155(7) . . .
148(6) . . .
157(6) . . .
164(7) . . .
166(7) . . .
162(7) . . .
152(6) . . .
161(7) . . .
169(7) . . .
152(7) . . .
173(7) . . .
156(7) . . .
151(6) . . .
143(6) . . .
160(7) . . .
166(7) . . .
178(7) . . .
155(6) . . .
162(7) . . .
161(7) . . .
163(7) . . .
165(7) . . .
170(7) . . .
158(7) . . .
160(7) . . .
177(7) . . .
150(6) . . .
154(7) . . .
160(7) . . .
156(7) . . .
174(7) . . .
161(7) . . .
165(7) . . .
157(7) . . .
160(7) . . .
163(7) . . .
166(7) . . .
167(7) . . .
157(7) . . .
163(7) . . .
160(7) . . .
134(6) . . .
159(7) . . .
172(7) . . .
173(7) . . .
155(6) . . .
171(7) . . .
166(7) . . .
157(7) . . .
151(6) . . .
171(7) . . .
165(7) . . .
153(7) . . .
149(7) . . .
176(7) . . .
171(7) . . .
157(7) . . .
162(7) . . .
164(7) . . .
159(7) . . .
162(7) . . .
164(7) . . .
150(7) . . .
162(7) . . .
157(7) . . .
151(6) . . .
156(7) . . .
155(7) . . .
159(7) . . .
164(7) . . .
171(7) . . .
159(7) . . .
142(7) . . .
158(7) . . .
140(6) . . .
164(7) . . .
163(7) . . .
160(7) . . .
163(7) . . .
163(7) . . .
179(7) . . .
160(7) . . .
151(7) . . .
162(7) . . .
170(7) . . .
161(7) . . .
168(7) . . .
168(7) . . .
173(7) . . .
162(7) . . .
164(7) . . .
161(7) . . .
175(7) . . .
144(6) . . .
156(7) . . .
164(7) . . .
155(7) . . .
176(7) . . .
169(7) . . .
154(7) . . .
177(7) . . .
181(7) . . .
164(7) . . .
162(7) . . .
155(6) . . .
145(6) . . .
157(7) . . .
151(7) . . .
164(7) . . .
152(6) . . .
172(7) . . .
167(7) . . .
156(7) . . .
167(7) . . .
164(7) . . .
172(7) . . .
185(7) . . .
161(7) . . .
170(7) . . .
166(7) . . .
161(7) . . .
168(7) . . .
151(7) . . .
158(7) . . .
148(6) . . .
154(6) . . .
139(6) . . .
161(7) . . .
166(7) . . .
185(7) . . .
157(7) . . .
160(7) . . .
177(7) . . .
163(7) . . .
150(6) . . .
164(7) . . .
165(7) . . .
160(7) . . .
162(7) . . .
157(7) . . .
171(7) . . .
154(7) . . .
157(7) . . .
162(7) . . .
147(6) . . .
154(7) . . .
161(7) . . .
162(7) . . .
156(6) . . .
164(7) . . .
157(7) . . .
168(7) . . .
147(6) . . .
157(7) . . .
151(6) . . .
153(7) . . .
182(8) . . .
154(7) . . .
164(7) . . .
142(6) . . .
156(7) . . .
149(7) . . .
160(7) . . .
178(7) . . .
163(7) . . .
145(6) . . .
151(7) . . .
171(7) . . .
153(6) . . .
156(7) . . .
161(7) . . .
157(7) . . .
133(6) . . .
151(6) . . .
166(7) . . .
166(7) . . .
144(6) . . .
148(6) . . .
152(6) . . .
163(7) . . .
159(7) . . .
140(6) . . .
169(7) . . .
146(6) . . .
164(7) . . .
154(7) . . .
153(7) . . .
143(6) . . .
132(6) . . .
166(7) . . .
170(7) . . .
173(7) . . .
149(6) . . .
151(6) . . .
169(7) . . .
183(8) . . .
169(7) . . .
153(7) . . .
150(6) . . .
144(7) . . .
156(7) . . .
154(7) . . .
141(6) . . .
165(7) . . .
158(7) . . .
152(7) . . .
154(7) . . .
159(7) . . .
163(7) . . .
146(6) . . .
142(6) . . .
158(7) . . .
157(6) . . .
168(7) . . .
157(7) . . .
169(7) . . .
150(7) . . .
171(7) . . .
168(7) . . .
164(7) . . .
149(7) . . .
166(7) . . .
162(7) . . .
152(7) . . .
134(6) . . .
153(7) . . .
145(6) . . .
163(7) . . .
164(7) . . .
157(7) . . .
166(7) . . .
179(7) . . .
161(7) . . .
154(7) . . .
150(7) . . .
137(6) . . .
154(7) . . .
159(7) . . .
139(6) . . .
136(6) . . .
165(7) . . .
163(7) . . .
166(7) . . .
158(7) . . .
154(7) . . .
140(6) . . .
162(7) . . .
161(7) . . .
160(7) . . .
165(7) . . .
164(7) . . .
157(6) . . .
151(6) . . .
150(7) . . .
157(7) . . .
154(7) . . .
158(7) . . .
167(7) . . .
166(7) . . .
167(7) . . .
152(7) . . .
157(7) . . .
154(7) . . .
154(7) . . .
142(6) . . .
154(7) . . .
155(6) . . .
152(6) . . .
158(7) . . .
157(7) . . .
169(7) . . .
170(7) . . .
169(7) . . .
174(7) . . .
153(7) . . .
148(7) . . .
154(6) . . .
139(6) . . .
150(7) . . .
154(7) . . .
155(7) . . .
168(7) . . .
179(7) . . .
153(7) . . .
159(7) . . .
155(7) . . .
154(6) . . .
175(7) . . .
174(7) . . .
142(6) . . .
168(7) . . .
161(7) . . .
153(7) . . .
168(7) . . .
139(6) . . .
167(7) . . .
156(7) . . .
150(6) . . .
169(7) . . .
159(7) . . .
163(7) . . .
173(7) . . .
167(7) . . .
161(7) . . .
135(6) . . .
145(6) . . .
154(6) . . .
163(7) . . .
145(7) . . .
143(6) . . .
165(7) . . .
146(6) . . .
167(7) . . .
156(7) . . .
143(6) . . .
161(7) . . .
167(7) . . .
156(7) . . .
137(6) . . .
147(7) . . .
157(6) . . .
176(7) . . .
160(7) . . .
144(6) . . .
159(7) . . .
157(7) . . .
161(7) . . .
158(7) . . .
155(7) . . .
163(7) . . .
153(6) . . .
165(7) . . .
146(7) . . .
157(7) . . .
167(7) . . .
163(7) . . .
162(7) . . .
165(7) . . .
157(7) . . .
148(6) . . .
156(6) . . .
138(6) . . .
160(7) . . .
139(6) . . .
145(6) . . .
154(6) . . .
169(7) . . .
147(7) . . .
157(7) . . .
135(6) . . .
148(6) . . .
143(7) . . .
140(6) . . .
156(7) . . .
153(6) . . .
158(7) . . .
151(7) . . .
143(7) . . .
170(7) . . .
154(6) . . .
153(6) . . .
151(7) . . .
153(7) . . .
174(7) . . .
153(6) . . .
148(6) . . .
157(7) . . .
150(7) . . .
156(7) . . .
151(6) . . .
159(7) . . .
154(7) . . .
166(7) . . .
154(7) . . .
141(6) . . .
153(6) . . .
152(7) . . .
144(6) . . .
152(7) . . .
159(7) . . .
152(6) . . .
156(7) . . .
154(7) . . .
167(7) . . .
138(6) . . .
157(7) . . .
158(7) . . .
139(6) . . .
163(7) . . .
152(6) . . .
149(7) . . .
142(6) . . .
162(7) . . .
160(7) . . .
159(7) . . .
160(7) . . .
155(7) . . .
181(8) . . .
182(7) . . .
176(7) . . .
147(7) . . .
159(7) . . .
159(7) . . .
151(6) . . .
155(6) . . .
159(7) . . .
161(7) . . .
149(7) . . .
155(6) . . .
156(7) . . .
148(6) . . .
152(7) . . .
167(7) . . .
162(7) . . .
169(7) . . .
166(7) . . .
165(7) . . .
145(7) . . .
157(6) . . .
170(7) . . .
158(7) . . .
144(7) . . .
147(6) . . .
162(7) . . .
158(7) . . .
158(7) . . .
155(7) . . .
167(7) . . .
150(6) . . .
144(7) . . .
152(7) . . .
155(7) . . .
143(6) . . .
154(6) . . .
144(7) . . .
142(6) . . .
160(7) . . .
163(7) . . .
137(6) . . .
150(7) . . .
154(7) . . .
139(6) . . .
154(7) . . .
138(6) . . .
150(6) . . .
143(7) . . .
169(7) . . .
172(7) . . .
158(7) . . .
152(7) . . .
168(7) . . .
149(6) . . .
173(7) . . .
156(6) . . .
152(7) . . .
149(7) . . .
152(7) . . .
148(6) . . .
153(6) . . .
154(7) . . .
162(7) . . .
146(7) . . .
148(6) . . .
141(6) . . .
154(7) . . .
146(7) . . .
159(7) . . .
129(6) . . .
150(6) . . .
157(7) . . .
160(7) . . .
162(7) . . .
145(6) . . .
141(6) . . .
165(7) . . .
144(6) . . .
144(6) . . .
142(6) . . .
136(6) . . .
146(7) . . .
155(7) . . .
155(7) . . .
156(6) . . .
140(6) . . .
162(7) . . .
138(6) . . .
149(7) . . .
153(6) . . .
135(6) . . .
144(7) . . .
153(7) . . .
126(6) . . .
149(6) . . .
147(7) . . .
155(7) . . .
143(6) . . .
148(6) . . .
149(6) . . .
144(6) . . .
158(7) . . .
146(6) . . .
141(6) . . .
149(6) . . .
140(6) . . .
159(7) . . .
140(6) . . .
137(6) . . .
155(6) . . .
144(7) . . .
148(7) . . .
158(7) . . .
154(6) . . .
156(6) . . .
158(7) . . .
123(6) . . .
156(7) . . .
177(7) . . .
153(7) . . .
147(6) . . .
154(7) . . .
153(7) . . .
150(6) . . .
174(7) . . .
157(7) . . .
141(6) . . .
142(6) . . .
144(6) . . .
152(6) . . .
154(7) . . .
178(7) . . .
155(7) . . .
147(6) . . .
159(7) . . .
153(7) . . .
152(7) . . .
132(6) . . .
137(6) . . .
163(7) . . .
152(7) . . .
158(7) . . .
155(7) . . .
133(6) . . .
140(6) . . .
155(7) . . .
152(7) . . .
157(7) . . .
148(6) . . .
139(6) . . .
180(8) . . .
163(7) . . .
147(6) . . .
153(6) . . .
140(6) . . .
151(7) . . .
137(6) . . .
141(6) . . .
145(6) . . .
136(6) . . .
150(7) . . .
146(6) . . .
147(6) . . .
150(7) . . .
137(6) . . .
155(7) . . .
141(6) . . .
140(6) . . .
144(6) . . .
152(7) . . .
150(7) . . .
141(7) . . .
145(6) . . .
130(6) . . .
131(6) . . .
141(6) . . .
141(6) . . .
138(6) . . .
140(6) . . .
153(7) . . .
131(6) . . .
142(6) . . .
138(6) . . .
151(7) . . .
142(6) . . .
139(6) . . .
151(7) . . .
147(6) . . .
163(7) . . .
147(6) . . .
168(7) . . .
148(6) . . .
145(6) . . .
151(7) . . .
151(7) . . .
155(7) . . .
144(6) . . .
135(6) . . .
157(7) . . .
146(7) . . .
146(6) . . .
148(7) . . .
153(6) . . .
146(6) . . .
170(7) . . .
144(6) . . .
149(6) . . .
155(6) . . .
150(7) . . .
125(6) . . .
143(6) . . .
170(7) . . .
149(6) . . .
143(6) . . .
157(7) . . .
153(7) . . .
143(6) . . .
152(6) . . .
154(7) . . .
150(7) . . .
144(6) . . .
151(6) . . .
145(6) . . .
144(6) . . .
161(7) . . .
147(7) . . .
147(6) . . .
150(6) . . .
164(7) . . .
149(6) . . .
164(7) . . .
151(6) . . .
168(7) . . .
153(7) . . .
158(7) . . .
169(7) . . .
169(7) . . .
157(7) . . .
171(7) . . .
168(7) . . .
164(7) . . .
147(6) . . .
160(7) . . .
156(7) . . .
171(7) . . .
173(7) . . .
150(6) . . .
172(7) . . .
166(7) . . .
170(7) . . .
181(7) . . .
173(7) . . .
158(7) . . .
151(7) . . .
151(7) . . .
151(6) . . .
164(7) . . .
167(7) . . .
166(7) . . .
159(7) . . .
159(6) . . .
153(6) . . .
164(7) . . .
151(7) . . .
168(7) . . .
165(7) . . .
157(7) . . .
153(7) . . .
161(7) . . .
154(7) . . .
165(7) . . .
152(6) . . .
166(7) . . .
169(7) . . .
165(7) . . .
148(6) . . .
143(6) . . .
145(6) . . .
138(6) . . .
144(6) . . .
158(7) . . .
152(7) . . .
151(7) . . .
153(7) . . .
166(7) . . .
145(6) . . .
148(6) . . .
154(7) . . .
158(7) . . .
149(7) . . .
156(6) . . .
145(7) . . .
140(6) . . .
142(7) . . .
154(7) . . .
138(6) . . .
155(7) . . .
157(7) . . .
145(6) . . .
138(6) . . .
138(6) . . .
145(6) . . .
129(6) . . .
156(7) . . .
138(6) . . .
135(6) . . .
133(6) . . .
143(7) . . .
144(6) . . .
168(7) . . .
154(6) . . .
141(6) . . .
159(7) . . .
156(7) . . .
160(7) . . .
156(6) . . .
167(7) . . .
168(7) . . .
137(6) . . .
151(6) . . .
156(7) . . .
148(7) . . .
146(7) . . .
136(6) . . .
134(6) . . .
140(6) . . .
130(6) . . .
155(7) . . .
145(6) . . .
155(6) . . .
137(6) . . .
155(7) . . .
156(7) . . .
153(7) . . .
159(7) . . .
146(6) . . .
157(7) . . .
141(6) . . .
128(6) . . .
159(7) . . .
144(6) . . .
151(7) . . .
143(6) . . .
137(6) . . .
143(6) . . .
146(7) . . .
147(7) . . .
147(7) . . .
155(7) . . .
148(6) . . .
165(7) . . .
160(7) . . .
143(6) . . .
152(6) . . .
160(7) . . .
142(7) . . .
142(6) . . .
161(7) . . .
154(6) . . .
154(6) . . .
144(6) . . .
144(7) . . .
150(7) . . .
133(6) . . .
167(7) . . .
172(7) . . .
154(7) . . .
146(7) . . .
142(6) . . .
150(6) . . .
156(7) . . .
167(7) . . .
161(7) . . .
164(7) . . .
169(7) . . .
160(7) . . .
147(6) . . .
166(7) . . .
157(6) . . .
137(6) . . .
141(6) . . .
151(7) . . .
144(7) . . .
145(6) . . .
157(7) . . .
157(7) . . .
167(7) . . .
154(7) . . .
163(7) . . .
159(7) . . .
158(7) . . .
152(7) . . .
143(6) . . .
144(6) . . .
131(6) . . .
150(7) . . .
164(7) . . .
150(7) . . .
166(7) . . .
156(7) . . .
145(7) . . .
148(7) . . .
144(6) . . .
156(7) . . .
159(7) . . .
153(7) . . .
148(7) . . .
161(7) . . .
160(7) . . .
136(6) . . .
168(7) . . .
152(7) . . .
155(7) . . .
166(7) . . .
177(7) . . .
152(7) . . .
169(7) . . .
153(6) . . .
155(6) . . .
151(7) . . .
151(7) . . .
169(7) . . .
156(7) . . .
158(7) . . .
148(6) . . .
150(7) . . .
161(7) . . .
171(7) . . .
160(7) . . .
160(7) . . .
152(6) . . .
160(7) . . .
170(7) . . .
160(7) . . .
156(7) . . .
172(7) . . .
156(7) . . .
148(6) . . .
146(6) . . .
156(7) . . .
143(6) . . .
152(7) . . .
146(6) . . .
147(7) . . .
148(7) . . .
147(7) . . .
144(6) . . .
152(6) . . .
145(7) . . .
146(7) . . .
147(7) . . .
147(6) . . .
165(7) . . .
150(6) . . .
149(7) . . .
141(6) . . .
155(7) . . .
163(7) . . .
157(7) . . .
154(7) . . .
142(6) . . .
168(7) . . .
144(6) . . .
140(6) . . .
143(7) . . .
144(6) . . .
162(7) . . .
160(7) . . .
163(7) . . .
147(7) . . .
136(6) . . .
147(6) . . .
153(7) . . .
139(7) . . .
137(6) . . .
145(7) . . .
162(7) . . .
145(6) . . .
140(6) . . .
149(7) . . .
151(7) . . .
142(6) . . .
153(7) . . .
152(7) . . .
139(6) . . .
151(7) . . .
134(6) . . .
153(7) . . .
141(6) . . .
139(6) . . .
138(6) . . .
139(6) . . .
138(6) . . .
156(7) . . .
138(6) . . .
145(6) . . .
152(6) . . .
161(7) . . .
151(7) . . .
145(7) . . .
139(6) . . .
140(6) . . .
146(7) . . .
151(7) . . .
129(6) . . .
147(6) . . .
140(6) . . .
141(6) . . .
133(6) . . .
146(6) . . .
119(6) . . .
150(6) . . .
130(6) . . .
149(7) . . .
148(7) . . .
152(6) . . .
143(6) . . .
140(6) . . .
124(6) . . .
134(6) . . .
144(6) . . .
150(6) . . .
145(6) . . .
170(7) . . .
145(6) . . .
146(6) . . .
150(6) . . .
142(6) . . .
136(6) . . .
127(6) . . .
137(6) . . .
159(7) . . .
136(6) . . .
141(6) . . .
154(7) . . .
155(6) . . .
143(6) . . .
139(6) . . .
156(7) . . .
148(6) . . .
141(6) . . .
135(6) . . .
145(7) . . .
134(6) . . .
140(6) . . .
147(6) . . .
130(6) . . .
132(6) . . .
143(6) . . .
138(6) . . .
123(6) . . .
149(7) . . .
154(7) . . .
152(7) . . .
136(6) . . .
151(6) . . .
138(6) . . .
138(6) . . .
149(6) . . .
151(6) . . .
142(6) . . .
163(7) . . .
133(6) . . .
134(6) . . .
131(6) . . .
139(6) . . .
142(7) . . .
150(7) . . .
141(6) . . .
136(6) . . .
133(6) . . .
131(6) . . .
139(6) . . .
133(6) . . .
140(6) . . .
144(6) . . .
139(6) . . .
143(6) . . .
137(6) . . .
143(6) . . .
139(6) . . .
122(6) . . .
143(7) . . .
135(6) . . .
152(6) . . .
138(6) . . .
143(6) . . .
127(6) . . .
136(6) . . .
123(6) . . .
130(6) . . .
143(6) . . .
150(7) . . .
152(7) . . .
153(6) . . .
150(7) . . .
144(7) . . .
145(6) . . .
152(6) . . .
133(6) . . .
156(7) . . .
138(6) . . .
150(7) . . .
143(6) . . .
131(6) . . .
138(7) . . .
144(7) . . .
146(7) . . .
152(7) . . .
145(6) . . .
160(7) . . .
162(7) . . .
141(6) . . .
149(6) . . .
133(6) . . .
136(7) . . .
140(7) . . .
134(6) . . .
150(6) . . .
158(7) . . .
151(7) . . .
151(7) . . .
129(6) . . .
138(6) . . .
140(6) . . .
134(6) . . .
156(7) . . .
146(7) . . .
152(6) . . .
141(6) . . .
157(7) . . .
156(7) . . .
164(7) . . .
141(6) . . .
127(6) . . .
156(7) . . .
157(7) . . .
151(6) . . .
143(6) . . .
152(7) . . .
143(6) . . .
149(7) . . .
142(6) . . .
151(6) . . .
141(6) . . .
136(6) . . .
134(6) . . .
139(6) . . .
145(6) . . .
152(7) . . .
156(7) . . .
122(6) . . .
154(7) . . .
137(6) . . .
136(6) . . .
148(7) . . .
160(7) . . .
152(6) . . .
165(7) . . .
156(7) . . .
153(7) . . .
144(6) . . .
157(7) . . .
154(7) . . .
139(6) . . .
129(6) . . .
136(6) . . .
147(6) . . .
142(6) . . .
147(6) . . .
140(7) . . .
133(6) . . .
124(6) . . .
137(6) . . .
140(6) . . .
134(7) . . .
134(6) . . .
133(6) . . .
138(6) . . .
134(6) . . .
137(6) . . .
155(7) . . .
143(6) . . .
153(6) . . .
134(6) . . .
140(6) . . .
139(6) . . .
125(6) . . .
133(6) . . .
133(6) . . .
158(7) . . .
141(6) . . .
129(6) . . .
135(6) . . .
139(6) . . .
131(6) . . .
149(7) . . .
145(6) . . .
148(7) . . .
143(7) . . .
139(7) . . .
139(6) . . .
146(6) . . .
135(6) . . .
136(6) . . .
148(7) . . .
138(6) . . .
149(6) . . .
132(6) . . .
125(6) . . .
127(6) . . .
136(6) . . .
148(6) . . .
125(6) . . .
128(6) . . .
161(7) . . .
146(6) . . .
132(6) . . .
153(7) . . .
115(6) . . .
140(6) . . .
149(6) . . .
139(6) . . .
138(6) . . .
135(6) . . .
138(6) . . .
149(6) . . .
161(7) . . .
148(6) . . .
147(7) . . .
149(7) . . .
156(7) . . .
167(7) . . .
150(7) . . .
139(6) . . .
130(6) . . .
126(6) . . .
158(7) . . .
152(7) . . .
145(6) . . .
149(6) . . .
147(6) . . .
130(6) . . .
153(7) . . .
138(6) . . .
148(6) . . .
147(6) . . .
162(7) . . .
146(7) . . .
137(6) . . .
152(7) . . .
140(6) . . .
137(6) . . .
146(7) . . .
159(7) . . .
136(6) . . .
154(7) . . .
146(7) . . .
122(6) . . .
140(6) . . .
148(6) . . .
148(6) . . .
136(6) . . .
140(6) . . .
130(6) . . .
123(6) . . .
149(6) . . .
142(6) . . .
151(7) . . .
135(6) . . .
139(6) . . .
132(6) . . .
159(7) . . .
132(6) . . .
128(6) . . .
123(6) . . .
162(7) . . .
154(7) . . .
142(6) . . .
147(6) . . .
134(6) . . .
165(7) . . .
150(7) . . .
151(7) . . .
148(7) . . .
138(6) . . .
136(6) . . .
134(6) . . .
150(7) . . .
129(6) . . .
131(6) . . .
122(6) . . .
135(6) . . .
141(7) . . .
138(6) . . .
129(6) . . .
115(6) . . .
153(7) . . .
140(6) . . .
146(6) . . .
143(6) . . .
131(6) . . .
128(6) . . .
142(6) . . .
160(7) . . .
140(6) . . .
152(7) . . .
136(7) . . .
130(6) . . .
137(6) . . .
147(6) . . .
140(7) . . .
156(7) . . .
146(6) . . .
148(6) . . .
140(6) . . .
138(6) . . .
143(7) . . .
128(6) . . .
139(6) . . .
141(6) . . .
136(6) . . .
143(7) . . .
133(6) . . .
133(6) . . .
134(6) . . .
133(6) . . .
137(7) . . .
140(6) . . .
133(6) . . .
142(6) . . .
132(6) . . .
134(6) . . .
152(7) . . .
116(6) . . .
132(6) . . .
148(7) . . .
142(7) . . .
140(6) . . .
131(6) . . .
136(6) . . .
131(6) . . .
145(6) . . .
136(6) . . .
129(6) . . .
153(7) . . .
134(6) . . .
124(6) . . .
133(6) . . .
131(6) . . .
144(7) . . .
137(6) . . .
165(7) . . .
141(6) . . .
136(6) . . .
131(6) . . .
144(7) . . .
135(6) . . .
127(6) . . .
131(6) . . .
160(7) . . .
147(7) . . .
143(6) . . .
125(6) . . .
143(6) . . .
121(6) . . .
137(7) . . .
143(6) . . .
142(6) . . .
132(6) . . .
150(7) . . .
132(6) . . .
136(6) . . .
132(6) . . .
135(6) . . .
143(6) . . .
129(6) . . .
141(6) . . .
138(6) . . .
129(6) . . .
133(6) . . .
136(6) . . .
145(7) . . .
123(6) . . .
139(6) . . .
135(6) . . .
128(6) . . .
135(6) . . .
123(6) . . .
122(6) . . .
120(6) . . .
136(6) . . .
147(7) . . .
134(6) . . .
148(7) . . .
140(6) . . .
153(7) . . .
149(6) . . .
137(6) . . .
138(6) . . .
137(6) . . .
139(6) . . .
130(6) . . .
154(6) . . .
138(6) . . .
153(7) . . .
142(6) . . .
141(6) . . .
151(6) . . .
141(6) . . .
155(7) . . .
129(6) . . .
145(6) . . .
144(6) . . .
135(6) . . .
138(7) . . .
135(6) . . .
133(6) . . .
119(6) . . .
156(7) . . .
148(7) . . .
134(6) . . .
123(6) . . .
140(6) . . .
156(7) . . .
149(7) . . .
133(6) . . .
145(6) . . .
139(6) . . .
124(6) . . .
124(6) . . .
137(6) . . .
141(6) . . .
131(6) . . .
136(6) . . .
129(6) . . .
143(7) . . .
147(6) . . .
120(6) . . .
155(7) . . .
153(7) . . .
144(6) . . .
142(6) . . .
139(6) . . .
143(7) . . .
135(6) . . .
128(6) . . .
144(6) . . .
144(6) . . .
142(6) . . .
141(6) . . .
131(6) . . .
126(6) . . .
145(7) . . .
142(7) . . .
127(6) . . .
148(6) . . .
144(6) . . .
143(6) . . .
121(6) . . .
129(6) . . .
130(6) . . .
143(6) . . .
143(6) . . .
139(6) . . .
127(6) . . .
137(6) . . .
133(6) . . .
132(6) . . .
144(7) . . .
147(7) . . .
149(6) . . .
148(6) . . .
127(6) . . .
136(6) . . .
157(7) . . .
145(6) . . .
155(7) . . .
149(7) . . .
126(6) . . .
141(7) . . .
139(6) . . .
155(7) . . .
140(6) . . .
139(6) . . .
132(6) . . .
143(6) . . .
141(6) . . .
133(6) . . .
127(6) . . .
152(7) . . .
138(6) . . .
135(6) . . .
141(6) . . .
149(6) . . .
143(6) . . .
133(6) . . .
126(6) . . .
117(6) . . .
144(7) . . .
140(6) . . .
140(6) . . .
137(7) . . .
125(6) . . .
108(5) . . .
126(6) . . .
140(6) . . .
131(6) . . .
140(7) . . .
146(6) . . .
149(6) . . .
137(6) . . .
132(6) . . .
135(7) . . .
118(6) . . .
121(6) . . .
132(6) . . .
129(6) . . .
135(7) . . .
145(6) . . .
134(6) . . .
146(6) . . .
130(6) . . .
134(6) . . .
136(6) . . .
126(6) . . .
140(6) . . .
140(7) . . .
123(6) . . .
138(6) . . .
125(6) . . .
132(6) . . .
134(6) . . .
135(6) . . .
144(6) . . .
142(6) . . .
142(6) . . .
133(6) . . .
130(6) . . .
125(6) . . .
123(6) . . .
148(6) . . .
135(6) . . .
119(6) . . .
149(7) . . .
146(6) . . .
143(6) . . .
135(6) . . .
136(6) . . .
141(6) . . .
143(6) . . .
144(6) . . .
124(6) . . .
134(6) . . .
131(6) . . .
148(6) . . .
138(6) . . .
141(7) . . .
138(6) . . .
130(6) . . .
133(6) . . .
144(6) . . .
127(6) . . .
135(6) . . .
150(6) . . .
137(6) . . .
138(6) . . .
136(6) . . .
128(6) . . .
150(6) . . .
123(6) . . .
132(6) . . .
145(7) . . .
131(6) . . .
148(6) . . .
131(6) . . .
131(6) . . .
132(6) . . .
131(6) . . .
138(6) . . .
127(6) . . .
136(6) . . .
135(6) . . .
136(6) . . .
139(6) . . .
125(6) . . .
146(6) . . .
137(6) . . .
134(6) . . .
128(6) . . .
128(6) . . .
144(6) . . .
162(7) . . .
142(6) . . .
133(6) . . .
142(6) . . .
144(7) . . .
120(6) . . .
118(6) . . .
131(6) . . .
147(6) . . .
137(6) . . .
126(6) . . .
129(6) . . .
127(6) . . .
132(6) . . .
130(6) . . .
133(6) . . .
119(6) . . .
123(6) . . .
145(7) . . .
130(6) . . .
124(6) . . .
132(6) . . .
136(6) . . .
136(6) . . .
144(7) . . .
149(6) . . .
138(6) . . .
153(6) . . .
129(6) . . .
126(6) . . .
151(7) . . .
123(6) . . .
146(6) . . .
147(6) . . .
121(6) . . .
141(6) . . .
150(6) . . .
164(7) . . .
142(7) . . .
126(6) . . .
146(7) . . .
134(6) . . .
135(6) . . .
132(6) . . .
116(6) . . .
130(6) . . .
133(6) . . .
134(6) . . .
135(6) . . .
128(6) . . .
128(6) . . .
122(6) . . .
136(6) . . .
131(6) . . .
135(6) . . .
131(6) . . .
128(6) . . .
134(6) . . .
125(6) . . .
117(6) . . .
141(6) . . .
139(6) . . .
134(6) . . .
137(7) . . .
128(6) . . .
143(6) . . .
145(6) . . .
141(6) . . .
129(6) . . .
128(6) . . .
130(6) . . .
131(6) . . .
131(6) . . .
147(7) . . .
132(6) . . .
110(5) . . .
134(6) . . .
133(6) . . .
140(6) . . .
132(6) . . .
132(6) . . .
137(6) . . .
137(6) . . .
130(6) . . .
150(7) . . .
135(6) . . .
132(6) . . .
128(6) . . .
139(6) . . .
136(6) . . .
152(6) . . .
145(6) . . .
137(6) . . .
139(7) . . .
138(6) . . .
140(6) . . .
129(6) . . .
127(6) . . .
127(6) . . .
140(6) . . .
156(7) . . .
144(6) . . .
152(7) . . .
126(6) . . .
126(6) . . .
120(6) . . .
126(6) . . .
131(6) . . .
118(6) . . .
135(6) . . .
132(6) . . .
141(7) . . .
150(7) . . .
159(7) . . .
128(6) . . .
145(6) . . .
132(6) . . .
138(7) . . .
122(6) . . .
124(6) . . .
136(6) . . .
143(7) . . .
125(6) . . .
133(6) . . .
140(6) . . .
133(6) . . .
138(6) . . .
134(6) . . .
145(6) . . .
130(6) . . .
120(6) . . .
126(6) . . .
142(7) . . .
142(7) . . .
128(6) . . .
138(6) . . .
123(6) . . .
131(6) . . .
149(7) . . .
142(6) . . .
130(6) . . .
131(6) . . .
113(6) . . .
138(6) . . .
127(6) . . .
140(6) . . .
133(6) . . .
145(7) . . .
138(6) . . .
155(6) . . .
145(6) . . .
134(6) . . .
130(6) . . .
116(6) . . .
127(6) . . .
132(6) . . .
141(7) . . .
135(6) . . .
117(6) . . .
124(6) . . .
141(6) . . .
112(6) . . .
117(6) . . .
133(6) . . .
156(6) . . .
124(6) . . .
127(6) . . .
135(6) . . .
131(6) . . .
128(6) . . .
139(6) . . .
137(6) . . .
142(6) . . .
140(6) . . .
147(6) . . .
127(6) . . .
135(6) . . .
134(6) . . .
141(6) . . .
131(6) . . .
133(6) . . .
138(7) . . .
142(6) . . .
140(6) . . .
140(6) . . .
139(6) . . .
158(7) . . .
133(6) . . .
124(6) . . .
138(6) . . .
153(7) . . .
155(7) . . .
129(6) . . .
124(6) . . .
125(6) . . .
131(6) . . .
120(6) . . .
133(6) . . .
134(6) . . .
136(6) . . .
135(6) . . .
144(7) . . .
138(6) . . .
139(6) . . .
125(6) . . .
126(6) . . .
114(6) . . .
126(6) . . .
134(6) . . .
141(7) . . .
119(6) . . .
121(6) . . .
140(6) . . .
142(6) . . .
129(6) . . .
122(6) . . .
143(6) . . .
138(6) . . .
139(6) . . .
138(6) . . .
131(7) . . .
131(6) . . .
132(6) . . .
143(6) . . .
140(6) . . .
136(7) . . .
135(6) . . .
132(6) . . .
113(6) . . .
127(6) . . .
143(7) . . .
125(6) . . .
131(6) . . .
132(6) . . .
149(7) . . .
141(7) . . .
144(7) . . .
133(6) . . .
136(6) . . .
135(7) . . .
118(6) . . .
125(6) . . .
135(6) . . .
136(6) . . .
144(7) . . .
122(6) . . .
119(6) . . .
129(6) . . .
119(6) . . .
141(7) . . .
137(6) . . .
136(6) . . .
132(6) . . .
142(6) . . .
131(6) . . .
139(6) . . .
154(7) . . .
124(6) . . .
127(6) . . .
118(6) . . .
149(7) . . .
123(6) . . .
137(6) . . .
142(7) . . .
145(7) . . .
134(6) . . .
120(6) . . .
143(6) . . .
134(6) . . .
133(6) . . .
122(6) . . .
131(6) . . .
130(6) . . .
138(6) . . .
129(6) . . .
149(7) . . .
143(6) . . .
141(6) . . .
136(6) . . .
130(6) . . .
137(6) . . .
123(6) . . .
123(6) . . .
124(6) . . .
130(6) . . .
133(6) . . .
138(6) . . .
141(6) . . .
140(6) . . .
133(6) . . .
143(6) . . .
128(6) . . .
132(6) . . .
129(6) . . .
130(6) . . .
130(6) . . .
132(6) . . .
129(6) . . .
117(6) . . .
134(6) . . .
114(6) . . .
151(6) . . .
139(7) . . .
121(6) . . .
144(7) . . .
142(6) . . .
119(6) . . .
137(6) . . .
111(6) . . .
138(7) . . .
139(6) . . .
144(6) . . .
139(6) . . .
142(6) . . .
139(6) . . .
152(6) . . .
134(6) . . .
138(6) . . .
139(6) . . .
141(6) . . .
146(6) . . .
118(6) . . .
128(6) . . .
141(7) . . .
132(6) . . .
128(6) . . .
133(6) . . .
135(6) . . .
129(6) . . .
113(6) . . .
138(6) . . .
140(6) . . .
124(6) . . .
144(7) . . .
131(6) . . .
130(6) . . .
131(6) . . .
139(6) . . .
157(7) . . .
145(6) . . .
137(6) . . .
125(6) . . .
139(6) . . .
141(7) . . .
142(6) . . .
111(5) . . .
123(6) . . .
135(6) . . .
141(6) . . .
150(7) . . .
137(6) . . .
121(6) . . .
129(6) . . .
125(6) . . .
140(6) . . .
128(6) . . .
137(6) . . .
134(6) . . .
124(6) . . .
149(6) . . .
131(6) . . .
134(6) . . .
140(6) . . .
133(6) . . .
125(6) . . .
144(6) . . .
129(6) . . .
124(6) . . .
124(6) . . .
134(6) . . .
129(6) . . .
132(6) . . .
124(6) . . .
136(6) . . .
116(6) . . .
157(7) . . .
151(7) . . .
143(7) . . .
135(6) . . .
140(6) . . .
132(6) . . .
137(6) . . .
138(6) . . .
114(6) . . .
117(6) . . .
137(6) . . .
128(6) . . .
127(6) . . .
128(6) . . .
129(6) . . .
140(6) . . .
125(6) . . .
138(7) . . .
133(6) . . .
141(6) . . .
127(6) . . .
142(6) . . .
152(7) . . .
135(6) . . .
131(6) . . .
139(6) . . .
148(7) . . .
138(6) . . .
130(6) . . .
126(6) . . .
140(6) . . .
126(6) . . .
144(6) . . .
124(6) . . .
130(6) . . .
115(6) . . .
137(6) . . .
129(6) . . .
117(6) . . .
127(6) . . .
128(6) . . .
115(6) . . .
135(6) . . .
129(6) . . .
121(6) . . .
119(6) . . .
118(6) . . .
132(6) . . .
122(6) . . .
125(6) . . .
130(6) . . .
117(6) . . .
130(6) . . .
123(6) . . .
132(6) . . .
126(6) . . .
136(7) . . .
126(6) . . .
142(6) . . .
129(6) . . .
142(6) . . .
128(6) . . .
141(6) . . .
142(6) . . .
135(6) . . .
126(6) . . .
124(6) . . .
129(6) . . .
119(6) . . .
132(6) . . .
132(6) . . .
139(7) . . .
125(6) . . .
134(6) . . .
119(6) . . .
142(6) . . .
134(6) . . .
113(6) . . .
122(6) . . .
140(6) . . .
137(6) . . .
121(6) . . .
124(6) . . .
132(6) . . .
106(6) . . .
126(6) . . .
118(6) . . .
125(6) . . .
133(6) . . .
149(7) . . .
138(7) . . .
125(6) . . .
139(6) . . .
135(6) . . .
136(6) . . .
129(6) . . .
132(6) . . .
134(6) . . .
138(6) . . .
122(6) . . .
130(6) . . .
138(6) . . .
127(6) . . .
125(6) . . .
137(6) . . .
127(6) . . .
129(6) . . .
142(6) . . .
142(6) . . .
136(6) . . .
130(6) . . .
119(6) . . .
137(6) . . .
127(6) . . .
124(6) . . .
124(6) . . .
121(6) . . .
119(6) . . .
118(6) . . .
120(6) . . .
133(6) . . .
132(6) . . .
125(6) . . .
115(6) . . .
128(6) . . .
135(6) . . .
121(6) . . .
128(6) . . .
132(6) . . .
129(6) . . .
128(6) . . .
143(6) . . .
135(6) . . .
115(6) . . .
123(6) . . .
133(6) . . .
131(6) . . .
121(6) . . .
125(6) . . .
121(6) . . .
132(6) . . .
142(6) . . .
129(6) . . .
123(6) . . .
136(6) . . .
148(7) . . .
126(6) . . .
122(6) . . .
130(6) . . .
123(6) . . .
136(6) . . .
128(6) . . .
131(6) . . .
128(6) . . .
144(7) . . .
138(6) . . .
128(6) . . .
132(6) . . .
133(6) . . .
127(6) . . .
139(7) . . .
135(6) . . .
134(6) . . .
138(6) . . .
116(6) . . .
134(6) . . .
132(6) . . .
130(6) . . .
131(6) . . .
115(6) . . .
124(6) . . .
117(6) . . .
116(6) . . .
121(6) . . .
133(6) . . .
127(6) . . .
132(6) . . .
136(6) . . .
127(6) . . .
127(6) . . .
121(6) . . .
120(6) . . .
136(6) . . .
127(6) . . .
111(6) . . .
124(6) . . .
117(6) . . .
117(6) . . .
140(7) . . .
122(6) . . .
123(6) . . .
126(6) . . .
127(6) . . .
135(6) . . .
130(6) . . .
134(6) . . .
132(6) . . .
124(6) . . .
119(6) . . .
118(6) . . .
133(6) . . .
122(6) . . .
126(6) . . .
129(6) . . .
131(6) . . .
130(6) . . .
124(6) . . .
123(6) . . .
113(6) . . .
128(6) . . .
142(6) . . .
124(6) . . .
126(6) . . .
115(6) . . .
107(6) . . .
134(6) . . .
140(6) . . .
133(6) . . .
121(6) . . .
121(6) . . .
116(6) . . .
137(6) . . .
124(6) . . .
125(6) . . .
128(6) . . .
151(6) . . .
132(6) . . .
127(6) . . .
146(7) . . .
139(6) . . .
126(6) . . .
139(6) . . .
123(6) . . .
129(6) . . .
147(6) . . .
120(6) . . .
130(6) . . .
133(6) . . .
139(6) . . .
135(6) . . .
138(6) . . .
129(6) . . .
117(6) . . .
136(6) . . .
127(6) . . .
126(6) . . .
143(7) . . .
134(6) . . .
124(6) . . .
136(6) . . .
133(6) . . .
133(6) . . .
128(6) . . .
131(6) . . .
124(6) . . .
126(6) . . .
157(7) . . .
127(6) . . .
134(6) . . .
145(6) . . .
135(6) . . .
127(6) . . .
132(6) . . .
121(6) . . .
113(6) . . .
124(6) . . .
129(6) . . .
152(7) . . .
134(6) . . .
139(6) . . .
129(6) . . .
136(6) . . .
135(6) . . .
128(6) . . .
122(6) . . .
133(6) . . .
126(6) . . .
135(6) . . .
153(7) . . .
119(6) . . .
140(6) . . .
131(6) . . .
131(6) . . .
136(6) . . .
128(6) . . .
130(6) . . .
118(6) . . .
120(6) . . .
131(6) . . .
133(6) . . .
131(6) . . .
131(6) . . .
138(6) . . .
130(6) . . .
126(6) . . .
123(6) . . .
134(6) . . .
129(6) . . .
138(6) . . .
150(6) . . .
137(6) . . .
127(6) . . .
136(6) . . .
136(6) . . .
128(6) . . .
115(6) . . .
139(7) . . .
122(6) . . .
120(6) . . .
129(6) . . .
134(6) . . .
126(6) . . .
134(6) . . .
136(6) . . .
143(6) . . .
124(6) . . .
143(7) . . .
143(7) . . .
125(6) . . .
130(6) . . .
117(6) . . .
135(6) . . .
125(6) . . .
143(6) . . .
136(6) . . .
133(6) . . .
138(7) . . .
132(6) . . .
125(6) . . .
118(6) . . .
124(6) . . .
118(6) . . .
135(6) . . .
139(6) . . .
129(6) . . .
125(6) . . .
113(6) . . .
117(6) . . .
126(6) . . .
130(6) . . .
130(6) . . .
140(6) . . .
128(6) . . .
122(6) . . .
134(6) . . .
125(6) . . .
122(6) . . .
132(6) . . .
129(6) . . .
120(6) . . .
132(6) . . .
136(6) . . .
130(6) . . .
124(6) . . .
139(6) . . .
136(6) . . .
117(6) . . .
136(6) . . .
134(6) . . .
128(6) . . .
134(6) . . .
131(6) . . .
135(6) . . .
133(6) . . .
112(6) . . .
137(7) . . .
124(6) . . .
114(6) . . .
132(6) . . .
131(6) . . .
124(6) . . .
134(6) . . .
119(6) . . .
108(5) . . .
122(6) . . .
119(6) . . .
135(6) . . .
146(6) . . .
135(6) . . .
138(6) . . .
143(7) . . .
130(6) . . .
132(6) . . .
132(6) . . .
132(6) . . .
144(6) . . .
143(6) . . .
128(6) . . .
122(6) . . .
139(7) . . .
131(6) . . .
145(6) . . .
131(6) . . .
141(7) . . .
120(6) . . .
130(6) . . .
145(6) . . .
153(6) . . .
144(6) . . .
151(7) . . .
125(6) . . .
137(6) . . .
134(6) . . .
119(6) . . .
120(6) . . .
114(6) . . .
143(6) . . .
138(6) . . .
138(6) . . .
136(7) . . .
134(6) . . .
135(6) . . .
132(6) . . .
154(7) . . .
133(6) . . .
134(6) . . .
138(6) . . .
142(6) . . .
130(6) . . .
135(6) . . .
140(6) . . .
155(6) . . .
139(6) . . .
131(6) . . .
150(7) . . .
142(6) . . .
125(6) . . .
132(6) . . .
137(6) . . .
122(6) . . .
138(6) . . .
127(6) . . .
129(6) . . .
117(6) . . .
142(6) . . .
135(6) . . .
127(6) . . .
134(6) . . .
127(6) . . .
120(6) . . .
139(6) . . .
119(6) . . .
143(6) . . .
143(7) . . .
145(7) . . .
139(6) . . .
145(6) . . .
140(6) . . .
124(6) . . .
124(6) . . .
131(6) . . .
124(6) . . .
124(6) . . .
129(6) . . .
139(6) . . .
145(6) . . .
147(6) . . .
128(6) . . .
129(6) . . .
133(6) . . .
132(6) . . .
138(6) . . .
121(6) . . .
128(6) . . .
126(6) . . .
136(6) . . .
140(6) . . .
129(6) . . .
126(6) . . .
115(6) . . .
117(6) . . .
130(6) . . .
116(6) . . .
128(6) . . .
134(6) . . .
121(6) . . .
120(6) . . .
130(6) . . .
128(6) . . .
115(6) . . .
115(6) . . .
131(6) . . .
129(6) . . .
127(6) . . .
146(6) . . .
124(6) . . .
136(6) . . .
145(7) . . .
139(6) . . .
134(6) . . .
127(6) . . .
135(6) . . .
135(6) . . .
131(6) . . .
136(6) . . .
127(6) . . .
127(6) . . .
121(6) . . .
124(6) . . .
135(6) . . .
122(6) . . .
136(6) . . .
132(6) . . .
141(7) . . .
118(6) . . .
132(6) . . .
137(6) . . .
156(7) . . .
132(6) . . .
144(6) . . .
143(6) . . .
138(6) . . .
127(6) . . .
125(6) . . .
129(6) . . .
131(6) . . .
130(6) . . .
151(7) . . .
144(6) . . .
135(6) . . .
137(6) . . .
120(6) . . .
123(6) . . .
132(6) . . .
142(6) . . .
133(6) . . .
138(6) . . .
130(6) . . .
138(6) . . .
136(6) . . .
140(6) . . .
127(6) . . .
129(6) . . .
126(6) . . .
128(6) . . .
132(6) . . .
139(6) . . .
124(6) . . .
127(6) . . .
147(6) . . .
135(6) . . .
146(7) . . .
151(7) . . .
138(6) . . .
141(6) . . .
130(6) . . .
134(6) . . .
144(7) . . .
144(6) . . .
148(6) . . .
131(6) . . .
138(6) . . .
135(6) . . .
142(6) . . .
132(6) . . .
135(6) . . .
151(7) . . .
142(6) . . .
136(6) . . .
153(6) . . .
142(6) . . .
137(6) . . .
146(6) . . .
121(6) . . .
148(6) . . .
129(6) . . .
153(7) . . .
127(6) . . .
131(6) . . .
127(6) . . .
133(6) . . .
137(6) . . .
123(6) . . .
115(6) . . .
130(6) . . .
140(6) . . .
131(6) . . .
126(6) . . .
123(6) . . .
126(6) . . .
142(6) . . .
133(6) . . .
153(6) . . .
143(6) . . .
134(6) . . .
116(6) . . .
139(6) . . .
144(6) . . .
134(6) . . .
144(6) . . .
128(6) . . .
114(6) . . .
138(6) . . .
134(6) . . .
127(6) . . .
131(6) . . .
129(6) . . .
122(6) . . .
144(6) . . .
124(6) . . .
134(6) . . .
129(6) . . .
136(6) . . .
127(6) . . .
142(6) . . .
146(7) . . .
133(6) . . .
144(6) . . .
133(6) . . .
116(6) . . .
137(7) . . .
116(6) . . .
112(5) . . .
128(6) . . .
115(6) . . .
129(7) . . .
115(6) . . .
136(6) . . .
131(6) . . .
122(6) . . .
126(6) . . .
144(7) . . .
135(6) . . .
128(6) . . .
131(6) . . .
125(6) . . .
118(6) . . .
127(6) . . .
121(6) . . .
133(6) . . .
153(7) . . .
138(6) . . .
132(6) . . .
132(6) . . .
116(6) . . .
130(6) . . .
133(6) . . .
124(6) . . .
124(6) . . .
121(6) . . .
129(6) . . .
134(6) . . .
132(6) . . .
145(7) . . .
129(6) . . .
129(6) . . .
120(6) . . .
140(6) . . .
134(6) . . .
137(6) . . .
140(6) . . .
132(6) . . .
105(5) . . .
140(6) . . .
125(6) . . .
118(6) . . .
132(6) . . .
124(6) . . .
130(6) . . .
134(6) . . .
137(6) . . .
148(6) . . .
116(6) . . .
120(6) . . .
146(7) . . .
118(6) . . .
133(6) . . .
125(6) . . .
121(6) . . .
128(6) . . .
121(6) . . .
128(6) . . .
137(6) . . .
139(6) . . .
125(6) . . .
133(6) . . .
132(6) . . .
120(6) . . .
135(6) . . .
136(7) . . .
122(6) . . .
146(6) . . .
126(6) . . .
131(6) . . .
133(6) . . .
136(6) . . .
114(6) . . .
121(6) . . .
123(6) . . .
113(6) . . .
114(6) . . .
132(6) . . .
126(6) . . .
115(6) . . .
116(6) . . .
118(6) . . .
128(6) . . .
140(6) . . .
123(6) . . .
111(6) . . .
116(6) . . .
120(6) . . .
133(6) . . .
140(6) . . .
128(6) . . .
124(6) . . .
119(6) . . .
120(6) . . .
126(6) . . .
116(6) . . .
135(6) . . .
140(6) . . .
136(6) . . .
145(7) . . .
119(6) . . .
129(6) . . .
131(6) . . .
121(6) . . .
109(6) . . .
127(6) . . .
119(6) . . .
119(6) . . .
134(6) . . .
139(6) . . .
125(6) . . .
127(6) . . .
126(6) . . .
144(6) . . .
122(6) . . .
117(6) . . .
122(6) . . .
121(6) . . .
127(6) . . .
136(6) . . .
136(6) . . .
125(6) . . .
131(6) . . .
143(7) . . .
118(6) . . .
129(6) . . .
133(6) . . .
133(6) . . .
135(6) . . .
128(6) . . .
125(6) . . .
121(6) . . .
118(6) . . .
135(6) . . .
117(6) . . .
134(6) . . .
116(6) . . .
121(6) . . .
148(7) . . .
133(6) . . .
137(6) . . .
137(6) . . .
131(6) . . .
138(7) . . .
139(6) . . .
136(6) . . .
131(6) . . .
124(6) . . .
142(7) . . .
131(6) . . .
135(6) . . .
119(6) . . .
129(6) . . .
124(6) . . .
121(6) . . .
131(6) . . .
132(6) . . .
124(6) . . .
146(7) . . .
114(6) . . .
126(6) . . .
134(6) . . .
132(6) . . .
128(6) . . .
131(6) . . .
134(6) . . .
121(6) . . .
125(6) . . .
121(6) . . .
125(6) . . .
125(6) . . .
125(6) . . .
141(6) . . .
138(6) . . .
129(6) . . .
130(6) . . .
137(6) . . .
130(6) . . .
133(6) . . .
130(6) . . .
127(6) . . .
143(6) . . .
135(6) . . .
124(6) . . .
124(6) . . .
130(6) . . .
142(6) . . .
140(6) . . .
127(6) . . .
118(6) . . .
113(5) . . .
106(5) . . .
125(6) . . .
136(6) . . .
135(6) . . .
122(6) . . .
120(6) . . .
129(6) . . .
121(6) . . .
133(6) . . .
127(6) . . .
132(6) . . .
131(6) . . .
141(6) . . .
125(6) . . .
128(6) . . .
141(6) . . .
145(7) . . .
139(6) . . .
131(6) . . .
126(6) . . .
147(7) . . .
129(6) . . .
117(6) . . .
132(6) . . .
131(6) . . .
144(7) . . .
137(6) . . .
123(6) . . .
137(6) . . .
129(6) . . .
139(6) . . .
126(6) . . .
131(6) . . .
134(6) . . .
133(6) . . .
139(6) . . .
127(6) . . .
129(6) . . .
126(6) . . .
134(6) . . .
145(7) . . .
120(6) . . .
139(6) . . .
137(6) . . .
125(6) . . .
147(7) . . .
135(6) . . .
138(6) . . .
135(6) . . .
144(7) . . .
125(6) . . .
132(6) . . .
142(6) . . .
131(6) . . .
140(6) . . .
115(6) . . .
141(6) . . .
147(6) . . .
130(6) . . .
119(6) . . .
130(6) . . .
147(7) . . .
133(6) . . .
133(6) . . .
119(6) . . .
144(7) . . .
122(6) . . .
126(6) . . .
127(6) . . .
126(6) . . .
138(6) . . .
124(6) . . .
123(6) . . .
132(6) . . .
141(7) . . .
131(6) . . .
117(6) . . .
125(6) . . .
129(6) . . .
140(6) . . .
128(6) . . .
125(6) . . .
125(6) . . .
128(6) . . .
122(6) . . .
122(6) . . .
119(6) . . .
143(6) . . .
133(6) . . .
116(6) . . .
130(6) . . .
150(6) . . .
122(6) . . .
143(6) . . .
132(6) . . .
137(6) . . .
133(6) . . .
141(6) . . .
123(6) . . .
119(6) . . .
122(6) . . .
118(6) . . .
122(6) . . .
125(6) . . .
123(6) . . .
146(6) . . .
148(6) . . .
141(6) . . .
127(6) . . .
125(6) . . .
125(6) . . .
112(5) . . .
124(6) . . .
130(6) . . .
132(6) . . .
117(6) . . .
134(6) . . .
116(6) . . .
147(7) . . .
129(6) . . .
125(6) . . .
143(6) . . .
122(6) . . .
123(6) . . .
123(6) . . .
129(6) . . .
130(6) . . .
130(6) . . .
126(6) . . .
120(6) . . .
133(6) . . .
142(6) . . .
128(6) . . .
125(6) . . .
118(6) . . .
127(6) . . .
133(6) . . .
139(6) . . .
129(6) . . .
121(6) . . .
136(6) . . .
128(6) . . .
126(6) . . .
109(5) . . .
135(6) . . .
120(6) . . .
115(6) . . .
109(5) . . .
114(6) . . .
129(6) . . .
139(7) . . .
108(5) . . .
124(6) . . .
130(6) . . .
128(6) . . .
130(7) . . .
114(6) . . .
117(6) . . .
132(6) . . .
141(7) . . .
117(6) . . .
124(6) . . .
118(6) . . .
131(6) . . .
115(6) . . .
137(7) . . .
122(6) . . .
114(6) . . .
124(6) . . .
117(6) . . .
124(6) . . .
126(6) . . .
131(6) . . .
116(6) . . .
122(6) . . .
115(6) . . .
114(6) . . .
109(5) . . .
107(5) . . .
123(6) . . .
127(6) . . .
123(6) . . .
122(6) . . .
125(6) . . .
140(7) . . .
110(6) . . .
119(6) . . .
112(6) . . .
115(6) . . .
123(6) . . .
123(6) . . .
116(6) . . .
111(5) . . .
125(6) . . .
123(6) . . .
120(6) . . .
134(6) . . .
124(6) . . .
118(6) . . .
114(6) . . .
121(6) . . .
125(6) . . .
112(5) . . .
119(6) . . .
125(6) . . .
121(6) . . .
108(5) . . .
137(6) . . .
140(6) . . .
134(6) . . .
116(6) . . .
114(6) . . .
108(5) . . .
126(6) . . .
113(6) . . .
117(6) . . .
118(6) . . .
132(6) . . .
127(6) . . .
119(6) . . .
123(6) . . .
126(6) . . .
115(6) . . .
105(6) . . .
129(7) . . .
123(6) . . .
117(6) . . .
114(6) . . .
110(6) . . .
110(6) . . .
130(6) . . .
117(6) . . .
131(6) . . .
118(6) . . .
114(6) . . .
124(6) . . .
127(6) . . .
108(6) . . .
110(6) . . .
130(6) . . .
120(6) . . .
114(6) . . .
121(6) . . .
117(6) . . .
129(6) . . .
114(6) . . .
114(5) . . .
119(6) . . .
127(6) . . .
112(6) . . .
121(6) . . .
138(6) . . .
125(6) . . .
128(6) . . .
129(6) . . .
118(6) . . .
137(6) . . .
132(6) . . .
107(6) . . .
119(6) . . .
115(6) . . .
116(6) . . .
119(6) . . .
121(6) . . .
123(6) . . .
106(5) . . .
113(6) . . .
134(6) . . .
130(6) . . .
117(6) . . .
112(5) . . .
123(6) . . .
123(6) . . .
130(6) . . .
115(6) . . .
132(6) . . .
137(6) . . .
136(6) . . .
126(6) . . .
112(6) . . .
138(6) . . .
112(6) . . .
114(6) . . .
125(6) . . .
116(6) . . .
132(6) . . .
136(6) . . .
114(6) . . .
118(6) . . .
127(6) . . .
125(6) . . .
120(6) . . .
129(6) . . .
131(6) . . .
146(6) . . .
127(6) . . .
143(6) . . .
144(6) . . .
132(6) . . .
126(6) . . .
117(6) . . .
122(6) . . .
124(6) . . .
123(6) . . .
131(6) . . .
124(6) . . .
112(6) . . .
129(6) . . .
125(6) . . .
113(6) . . .
113(6) . . .
121(6) . . .
123(6) . . .
109(6) . . .
122(6) . . .
113(6) . . .
124(6) . . .
123(6) . . .
122(6) . . .
135(6) . . .
114(6) . . .
122(6) . . .
121(6) . . .
131(6) . . .
118(6) . . .
115(6) . . .
137(6) . . .
124(6) . . .
126(6) . . .
135(6) . . .
109(6) . . .
127(6) . . .
118(6) . . .
119(6) . . .
104(5) . . .
142(7) . . .
127(6) . . .
121(6) . . .
101(5) . . .
127(6) . . .
115(6) . . .
123(6) . . .
121(6) . . .
138(6) . . .
135(6) . . .
119(6) . . .
116(6) . . .
136(6) . . .
122(6) . . .
117(6) . . .
107(6) . . .
114(6) . . .
124(6) . . .
119(6) . . .
111(6) . . .
117(6) . . .
116(6) . . .
126(6) . . .
134(6) . . .
118(6) . . .
106(5) . . .
109(6) . . .
124(6) . . .
124(6) . . .
123(6) . . .
135(6) . . .
125(6) . . .
131(6) . . .
118(6) . . .
127(6) . . .
117(6) . . .
129(6) . . .
128(6) . . .
124(6) . . .
111(6) . . .
122(6) . . .
123(6) . . .
133(6) . . .
127(6) . . .
110(6) . . .
111(6) . . .
129(6) . . .
124(6) . . .
120(6) . . .
138(6) . . .
138(6) . . .
139(6) . . .
127(6) . . .
117(6) . . .
116(6) . . .
119(6) . . .
112(6) . . .
129(6) . . .
114(6) . . .
128(6) . . .
127(6) . . .
116(6) . . .
108(5) . . .
131(6) . . .
122(6) . . .
127(6) . . .
119(6) . . .
122(6) . . .
138(6) . . .
122(6) . . .
113(6) . . .
114(6) . . .
137(6) . . .
122(6) . . .
110(6) . . .
130(6) . . .
122(6) . . .
117(6) . . .
123(6) . . .
128(6) . . .
138(6) . . .
126(6) . . .
108(5) . . .
132(6) . . .
117(6) . . .
125(6) . . .
125(6) . . .
128(6) . . .
125(6) . . .
125(6) . . .
123(6) . . .
137(6) . . .
109(5) . . .
119(6) . . .
116(6) . . .
112(6) . . .
128(6) . . .
116(6) . . .
112(6) . . .
128(6) . . .
115(6) . . .
130(6) . . .
123(6) . . .
114(6) . . .
119(6) . . .
131(6) . . .
127(6) . . .
116(6) . . .
139(6) . . .
137(6) . . .
135(6) . . .
135(6) . . .
137(6) . . .
118(6) . . .
103(6) . . .
122(6) . . .
123(6) . . .
124(6) . . .
129(6) . . .
123(6) . . .
115(6) . . .
117(6) . . .
117(6) . . .
117(6) . . .
113(6) . . .
135(6) . . .
116(6) . . .
112(6) . . .
124(6) . . .
123(6) . . .
119(6) . . .
134(6) . . .
140(6) . . .
119(6) . . .
112(6) . . .
120(6) . . .
125(6) . . .
123(6) . . .
123(6) . . .
136(6) . . .
119(6) . . .
137(6) . . .
120(6) . . .
116(6) . . .
119(6) . . .
126(6) . . .
117(6) . . .
125(6) . . .
116(6) . . .
125(6) . . .
126(6) . . .
122(6) . . .
115(6) . . .
116(6) . . .
127(6) . . .
105(5) . . .
125(6) . . .
113(6) . . .
130(6) . . .
119(6) . . .
129(6) . . .
134(6) . . .
125(6) . . .
118(6) . . .
117(6) . . .
139(6) . . .
128(6) . . .
118(6) . . .
124(6) . . .
111(6) . . .
140(6) . . .
130(6) . . .
124(6) . . .
126(6) . . .
125(6) . . .
124(6) . . .
126(6) . . .
145(6) . . .
124(6) . . .
140(6) . . .
134(6) . . .
128(6) . . .
128(6) . . .
115(6) . . .
113(6) . . .
123(6) . . .
124(6) . . .
112(6) . . .
118(6) . . .
128(6) . . .
114(6) . . .
123(6) . . .
112(6) . . .
109(6) . . .
116(6) . . .
116(6) . . .
123(6) . . .
123(6) . . .
113(6) . . .
123(6) . . .
126(6) . . .
125(6) . . .
110(6) . . .
127(6) . . .
117(6) . . .
122(6) . . .
130(6) . . .
135(6) . . .
133(6) . . .
130(6) . . .
127(6) . . .
115(6) . . .
124(6) . . .
119(6) . . .
125(6) . . .
119(6) . . .
117(6) . . .
104(5) . . .
124(6) . . .
135(6) . . .
110(5) . . .
116(6) . . .
126(6) . . .
132(6) . . .
123(6) . . .
123(6) . . .
126(6) . . .
115(6) . . .
116(6) . . .
123(6) . . .
128(6) . . .
103(5) . . .
127(6) . . .
117(6) . . .
137(6) . . .
113(6) . . .
115(6) . . .
134(6) . . .
127(6) . . .
123(6) . . .
127(6) . . .
127(6) . . .
124(6) . . .
133(6) . . .
135(6) . . .
118(6) . . .
117(6) . . .
115(6) . . .
137(6) . . .
126(6) . . .
146(7) . . .
131(6) . . .
132(6) . . .
128(6) . . .
126(6) . . .
107(5) . . .
114(6) . . .
123(6) . . .
110(5) . . .
123(6) . . .
126(6) . . .
116(6) . . .
119(6) . . .
144(6) . . .
136(6) . . .
117(6) . . .
122(6) . . .
119(6) . . .
112(6) . . .
110(5) . . .
118(6) . . .
121(6) . . .
129(6) . . .
124(6) . . .
114(6) . . .
119(6) . . .
119(6) . . .
130(6) . . .
115(6) . . .
115(6) . . .
123(6) . . .
120(6) . . .
107(6) . . .
131(6) . . .
113(5) . . .
110(6) . . .
125(6) . . .
118(6) . . .
111(6) . . .
111(6) . . .
119(6) . . .
107(5) . . .
115(6) . . .
125(6) . . .
115(6) . . .
117(6) . . .
128(6) . . .
115(6) . . .
118(6) . . .
104(5) . . .
116(6) . . .
131(6) . . .
137(6) . . .
106(5) . . .
120(6) . . .
119(6) . . .
119(6) . . .
130(6) . . .
127(6) . . .
117(6) . . .
122(6) . . .
119(6) . . .
118(6) . . .
116(6) . . .
117(6) . . .
117(6) . . .
118(6) . . .
137(6) . . .
126(6) . . .
126(6) . . .
118(6) . . .
113(6) . . .
111(5) . . .
121(6) . . .
134(6) . . .
128(6) . . .
121(6) . . .
123(6) . . .
114(6) . . .
124(6) . . .
121(6) . . .
121(6) . . .
116(6) . . .
120(6) . . .
127(6) . . .
104(5) . . .
118(6) . . .
119(6) . . .
118(6) . . .
129(6) . . .
114(6) . . .
130(6) . . .
137(6) . . .
125(6) . . .
123(6) . . .
125(6) . . .
121(6) . . .
124(6) . . .
121(6) . . .
116(6) . . .
120(6) . . .
108(5) . . .
109(5) . . .
120(6) . . .
126(6) . . .
119(6) . . .
117(6) . . .
123(6) . . .
132(6) . . .
131(6) . . .
149(7) . . .
136(6) . . .
126(6) . . .
118(6) . . .
140(7) . . .
136(6) . . .
114(6) . . .
118(6) . . .
119(6) . . .
122(6) . . .
118(6) . . .
109(5) . . .
117(6) . . .
111(6) . . .
119(6) . . .
125(6) . . .
118(6) . . .
112(6) . . .
110(6) . . .
132(6) . . .
130(6) . . .
144(6) . . .
120(6) . . .
122(6) . . .
116(6) . . .
118(6) . . .
136(6) . . .
129(6) . . .
116(6) . . .
129(6) . . .
133(6) . . .
114(6) . . .
118(6) . . .
120(6) . . .
112(6) . . .
116(6) . . .
127(6) . . .
114(6) . . .
121(6) . . .
139(7) . . .
114(6) . . .
127(6) . . .
122(6) . . .
125(6) . . .
108(5) . . .
117(6) . . .
124(6) . . .
122(6) . . .
119(6) . . .
112(6) . . .
126(6) . . .
142(6) . . .
133(6) . . .
132(6) . . .
119(6) . . .
127(6) . . .
136(6) . . .
122(6) . . .
107(6) . . .
106(5) . . .
123(6) . . .
116(6) . . .
139(6) . . .
131(6) . . .
124(6) . . .
119(6) . . .
117(6) . . .
133(6) . . .
116(6) . . .
115(6) . . .
117(6) . . .
112(6) . . .
125(6) . . .
122(6) . . .
132(6) . . .
131(6) . . .
125(6) . . .
115(6) . . .
110(6) . . .
113(6) . . .
142(6) . . .
129(6) . . .
114(6) . . .
126(6) . . .
120(6) . . .
126(6) . . .
123(6) . . .
122(6) . . .
136(6) . . .
123(6) . . .
120(6) . . .
134(6) . . .
129(6) . . .
112(6) . . .
126(6) . . .
120(6) . . .
128(6) . . .
133(6) . . .
130(6) . . .
121(6) . . .
123(6) . . .
108(5) . . .
113(6) . . .
131(6) . . .
126(6) . . .
109(5) . . .
104(6) . . .
124(6) . . .
123(6) . . .
119(6) . . .
133(6) . . .
133(6) . . .
138(7) . . .
134(6) . . .
118(6) . . .
122(6) . . .
124(6) . . .
122(6) . . .
119(6) . . .
131(6) . . .
120(6) . . .
134(6) . . .
121(6) . . .
125(6) . . .
117(6) . . .
113(6) . . .
111(6) . . .
116(6) . . .
109(6) . . .
120(6) . . .
131(6) . . .
136(6) . . .
119(6) . . .
131(6) . . .
119(6) . . .
126(6) . . .
114(6) . . .
127(6) . . .
130(6) . . .
120(6) . . .
117(6) . . .
132(6) . . .
124(6) . . .
123(6) . . .
118(6) . . .
117(6) . . .
128(6) . . .
125(6) . . .
128(6) . . .
134(6) . . .
136(6) . . .
130(6) . . .
107(5) . . .
123(6) . . .
126(6) . . .
119(6) . . .
132(6) . . .
130(6) . . .
124(6) . . .
138(6) . . .
120(6) . . .
116(6) . . .
128(6) . . .
133(6) . . .
132(6) . . .
109(6) . . .
100(6) . . .
123(6) . . .
143(6) . . .
125(6) . . .
126(6) . . .
127(6) . . .
121(6) . . .
131(6) . . .
127(6) . . .
115(6) . . .
129(6) . . .
122(6) . . .
131(6) . . .
132(6) . . .
128(6) . . .
130(6) . . .
120(6) . . .
134(6) . . .
141(6) . . .
120(6) . . .
107(6) . . .
126(6) . . .
131(6) . . .
137(6) . . .
130(6) . . .
133(6) . . .
127(6) . . .
120(6) . . .
124(6) . . .
135(6) . . .
137(6) . . .
122(6) . . .
106(5) . . .
129(6) . . .
129(6) . . .
125(6) . . .
132(6) . . .
122(6) . . .
137(6) . . .
160(7) . . .
143(6) . . .
131(6) . . .
125(6) . . .
131(6) . . .
124(6) . . .
116(6) . . .
122(6) . . .
129(6) . . .
135(6) . . .
143(7) . . .
122(6) . . .
119(6) . . .
126(6) . . .
112(6) . . .
134(7) . . .
122(6) . . .
130(6) . . .
116(6) . . .
119(6) . . .
126(6) . . .
133(6) . . .
131(6) . . .
129(6) . . .
126(6) . . .
120(6) . . .
122(6) . . .
122(6) . . .
117(6) . . .
143(7) . . .
119(6) . . .
153(7) . . .
137(6) . . .
116(6) . . .
130(6) . . .
134(6) . . .
136(6) . . .
122(6) . . .
127(6) . . .
130(6) . . .
123(6) . . .
129(6) . . .
128(6) . . .
130(6) . . .
133(6) . . .
121(6) . . .
112(6) . . .
122(6) . . .
127(6) . . .
117(6) . . .
116(6) . . .
126(6) . . .
140(6) . . .
144(7) . . .
127(6) . . .
123(6) . . .
126(6) . . .
120(6) . . .
141(6) . . .
134(6) . . .
123(6) . . .
130(6) . . .
132(6) . . .
112(6) . . .
123(6) . . .
118(6) . . .
141(6) . . .
140(6) . . .
139(6) . . .
135(6) . . .
139(6) . . .
125(6) . . .
116(6) . . .
122(6) . . .
111(5) . . .
134(6) . . .
122(6) . . .
122(6) . . .
132(6) . . .
124(6) . . .
136(6) . . .
118(6) . . .
135(6) . . .
135(6) . . .
145(7) . . .
136(6) . . .
110(5) . . .
129(6) . . .
134(6) . . .
147(7) . . .
121(6) . . .
126(6) . . .
129(6) . . .
130(6) . . .
130(6) . . .
140(6) . . .
144(6) . . .
139(6) . . .
121(6) . . .
129(6) . . .
145(6) . . .
125(6) . . .
123(6) . . .
136(6) . . .
134(6) . . .
127(6) . . .
122(6) . . .
120(6) . . .
136(7) . . .
112(6) . . .
130(6) . . .
118(6) . . .
125(6) . . .
128(6) . . .
125(6) . . .
133(6) . . .
127(6) . . .
133(6) . . .
102(5) . . .
147(7) . . .
127(6) . . .
119(6) . . .
130(6) . . .
128(6) . . .
133(6) . . .
121(6) . . .
126(6) . . .
118(6) . . .
134(6) . . .
113(6) . . .
124(6) . . .
127(6) . . .
139(6) . . .
127(6) . . .
130(6) . . .
129(6) . . .
122(6) . . .
116(6) . . .
127(6) . . .
130(6) . . .
125(6) . . .
106(6) . . .
133(6) . . .
127(6) . . .
118(6) . . .
125(6) . . .
126(6) . . .
122(6) . . .
144(6) . . .
132(6) . . .
125(6) . . .
129(6) . . .
125(6) . . .
138(6) . . .
121(6) . . .
124(6) . . .
112(6) . . .
128(6) . . .
115(6) . . .
113(6) . . .
125(6) . . .
129(6) . . .
118(6) . . .
126(6) . . .
143(6) . . .
142(6) . . .
131(6) . . .
117(6) . . .
128(6) . . .
104(5) . . .
122(6) . . .
122(6) . . .
126(6) . . .
127(6) . . .
123(6) . . .
128(6) . . .
125(6) . . .
144(7) . . .
129(6) . . .
120(6) . . .
137(6) . . .
128(6) . . .
129(6) . . .
125(6) . . .
142(6) . . .
123(6) . . .
124(6) . . .
122(6) . . .
125(6) . . .
139(6) . . .
130(6) . . .
117(6) . . .
132(6) . . .
126(6) . . .
130(6) . . .
126(6) . . .
132(7) . . .
127(6) . . .
115(6) . . .
129(6) . . .
137(6) . . .
128(6) . . .
134(6) . . .
130(6) . . .
127(6) . . .
128(6) . . .
120(6) . . .
128(6) . . .
132(6) . . .
115(6) . . .
117(6) . . .
117(6) . . .
114(6) . . .
134(6) . . .
124(6) . . .
131(6) . . .
135(6) . . .
128(6) . . .
130(6) . . .
137(6) . . .
115(6) . . .
135(6) . . .
134(6) . . .
129(6) . . .
131(6) . . .
119(6) . . .
131(6) . . .
132(6) . . .
128(6) . . .
139(6) . . .
127(6) . . .
122(6) . . .
127(6) . . .
133(6) . . .
136(6) . . .
121(6) . . .
125(6) . . .
142(6) . . .
130(6) . . .
115(6) . . .
125(6) . . .
121(6) . . .
130(6) . . .
116(6) . . .
130(6) . . .
126(6) . . .
118(6) . . .
124(6) . . .
140(6) . . .
144(6) . . .
128(6) . . .
125(6) . . .
131(6) . . .
124(6) . . .
120(6) . . .
123(6) . . .
128(6) . . .
142(6) . . .
145(6) . . .
133(6) . . .
146(7) . . .
118(6) . . .
117(6) . . .
135(6) . . .
128(6) . . .
115(6) . . .
123(6) . . .
138(6) . . .
118(6) . . .
128(6) . . .
121(6) . . .
129(6) . . .
123(6) . . .
132(6) . . .
140(6) . . .
140(7) . . .
131(6) . . .
131(6) . . .
111(6) . . .
116(6) . . .
132(6) . . .
116(6) . . .
125(6) . . .
125(6) . . .
115(6) . . .
130(6) . . .
119(6) . . .
125(6) . . .
124(6) . . .
108(5) . . .
127(6) . . .
121(6) . . .
114(6) . . .
133(6) . . .
122(6) . . .
120(6) . . .
122(6) . . .
124(6) . . .
120(6) . . .
124(6) . . .
122(6) . . .
122(6) . . .
134(6) . . .
135(6) . . .
121(6) . . .
121(6) . . .
126(6) . . .
110(5) . . .
115(6) . . .
128(6) . . .
130(6) . . .
126(6) . . .
119(6) . . .
131(6) . . .
133(6) . . .
136(6) . . .
130(6) . . .
117(6) . . .
114(6) . . .
134(6) . . .
119(6) . . .
129(6) . . .
103(5) . . .
107(6) . . .
128(6) . . .
132(6) . . .
123(6) . . .
131(6) . . .
131(6) . . .
114(6) . . .
105(6) . . .
124(6) . . .
125(6) . . .
125(6) . . .
127(6) . . .
126(6) . . .
140(6) . . .
122(6) . . .
127(6) . . .
116(6) . . .
123(6) . . .
120(6) . . .
119(6) . . .
126(6) . . .
140(6) . . .
130(6) . . .
129(6) . . .
121(6) . . .
123(6) . . .
132(6) . . .
124(6) . . .
124(6) . . .
137(6) . . .
110(6) . . .
115(6) . . .
121(6) . . .
111(5) . . .
127(6) . . .
126(6) . . .
125(6) . . .
107(5) . . .
124(6) . . .
132(6) . . .
112(6) . . .
131(6) . . .
129(6) . . .
122(6) . . .
129(6) . . .
122(6) . . .
113(6) . . .
128(6) . . .
122(6) . . .
137(6) . . .
116(6) . . .
113(6) . . .
114(6) . . .
127(6) . . .
126(6) . . .
126(6) . . .
131(6) . . .
122(6) . . .
137(6) . . .
137(6) . . .
131(6) . . .
115(6) . . .
112(6) . . .
117(6) . . .
103(6) . . .
124(6) . . .
127(6) . . .
124(6) . . .
120(6) . . .
118(6) . . .
108(6) . . .
123(6) . . .
129(6) . . .
119(6) . . .
115(6) . . .
134(6) . . .
135(6) . . .
118(6) . . .
123(6) . . .
115(6) . . .
118(6) . . .
110(5) . . .
125(6) . . .
114(6) . . .
135(7) . . .
122(6) . . .
130(6) . . .
144(6) . . .
126(6) . . .
120(6) . . .
120(6) . . .
113(6) . . .
127(6) . . .
110(6) . . .
122(6) . . .
129(6) . . .
118(6) . . .
145(6) . . .
131(6) . . .
114(6) . . .
121(6) . . .
120(6) . . .
120(6) . . .
131(6) . . .
131(6) . . .
138(6) . . .
137(6) . . .
132(6) . . .
129(6) . . .
124(6) . . .
126(6) . . .
119(6) . . .
126(6) . . .
128(6) . . .
120(6) . . .
124(6) . . .
137(6) . . .
128(6) . . .
125(6) . . .
128(6) . . .
129(6) . . .
116(6) . . .
123(6) . . .
136(6) . . .
129(6) . . .
117(6) . . .
118(6) . . .
138(6) . . .
133(6) . . .
133(6) . . .
127(6) . . .
126(6) . . .
133(6) . . .
133(6) . . .
139(6) . . .
136(6) . . .
121(6) . . .
131(6) . . .
120(6) . . .
124(6) . . .
115(5) . . .
129(6) . . .
122(6) . . .
123(6) . . .
127(6) . . .
123(6) . . .
132(6) . . .
140(6) . . .
145(7) . . .
131(6) . . .
110(5) . . .
118(6) . . .
119(6) . . .
130(6) . . .
128(6) . . .
128(6) . . .
124(6) . . .
130(6) . . .
115(6) . . .
120(6) . . .
120(6) . . .
128(6) . . .
126(6) . . .
121(6) . . .
134(6) . . .
129(6) . . .
130(6) . . .
140(7) . . .
136(6) . . .
126(6) . . .
131(6) . . .
123(6) . . .
126(6) . . .
118(6) . . .
131(6) . . .
142(6) . . .
119(6) . . .
137(7) . . .
125(6) . . .
134(6) . . .
131(6) . . .
110(6) . . .
134(7) . . .
134(6) . . .
129(6) . . .
118(6) . . .
125(6) . . .
130(6) . . .
159(7) . . .
128(6) . . .
117(6) . . .
123(6) . . .
131(6) . . .
123(6) . . .
100(5) . . .
120(6) . . .
109(6) . . .
119(6) . . .
143(6) . . .
121(6) . . .
121(6) . . .
116(6) . . .
120(6) . . .
128(6) . . .
119(6) . . .
110(5) . . .
117(6) . . .
113(6) . . .
128(6) . . .
120(6) . . .
116(6) . . .
134(6) . . .
119(6) . . .
112(6) . . .
112(5) . . .
125(6) . . .
120(6) . . .
124(6) . . .
129(6) . . .
121(6) . . .
124(6) . . .
121(6) . . .
115(6) . . .
121(6) . . .
128(6) . . .
133(6) . . .
137(6) . . .
125(6) . . .
137(6) . . .
119(6) . . .
139(6) . . .
125(6) . . .
124(6) . . .
125(6) . . .
130(6) . . .
126(6) . . .
126(6) . . .
121(6) . . .
134(6) . . .
125(6) . . .
113(6) . . .
129(6) . . .
125(6) . . .
133(6) . . .
133(6) . . .
112(6) . . .
116(6) . . .
135(6) . . .
127(6) . . .
130(6) . . .
129(6) . . .
132(6) . . .
124(6) . . .
130(6) . . .
114(5) . . .
138(7) . . .
125(6) . . .
134(6) . . .
135(6) . . .
123(6) . . .
126(6) . . .
119(6) . . .
115(6) . . .
111(5) . . .
113(6) . . .
130(6) . . .
134(6) . . .
122(6) . . .
129(6) . . .
128(6) . . .
141(7) . . .
134(6) . . .
123(6) . . .
127(6) . . .
117(6) . . .
124(6) . . .
128(6) . . .
130(6) . . .
136(6) . . .
113(6) . . .
112(6) . . .
125(6) . . .
107(5) . . .
122(6) . . .
113(6) . . .
115(6) . . .
123(6) . . .
128(6) . . .
130(6) . . .
118(6) . . .
129(6) . . .
122(6) . . .
129(6) . . .
124(6) . . .
109(5) . . .
121(6) . . .
121(6) . . .
129(6) . . .
128(6) . . .
142(6) . . .
136(6) . . .
130(6) . . .
129(6) . . .
129(6) . . .
117(6) . . .
124(6) . . .
124(6) . . .
125(6) . . .
118(6) . . .
126(6) . . .
130(6) . . .
133(6) . . .
128(6) . . .
119(6) . . .
128(6) . . .
122(6) . . .
130(6) . . .
133(6) . . .
130(6) . . .
126(6) . . .
128(6) . . .
130(6) . . .
115(6) . . .
127(6) . . .
116(6) . . .
121(6) . . .
99(5) . . .
134(6) . . .
120(6) . . .
110(6) . . .
104(6) . . .
122(6) . . .
124(6) . . .
107(5) . . .
133(6) . . .
122(6) . . .
121(6) . . .
129(6) . . .
125(6) . . .
121(6) . . .
131(6) . . .
125(6) . . .
111(5) . . .
117(6) . . .
121(6) . . .
128(6) . . .
140(6) . . .
121(6) . . .
124(6) . . .
137(6) . . .
114(6) . . .
129(6) . . .
123(6) . . .
120(6) . . .
127(6) . . .
126(6) . . .
114(6) . . .
107(5) . . .
119(6) . . .
112(6) . . .
118(6) . . .
115(6) . . .
129(6) . . .
121(6) . . .
119(6) . . .
102(5) . . .
122(6) . . .
119(6) . . .
119(6) . . .
108(6) . . .
114(6) . . .
126(6) . . .
114(6) . . .
130(6) . . .
123(6) . . .
107(5) . . .
122(6) . . .
138(6) . . .
112(6) . . .
115(6) . . .
116(6) . . .
122(6) . . .
123(6) . . .
121(6) . . .
134(6) . . .
131(6) . . .
112(6) . . .
120(6) . . .
118(6) . . .
131(6) . . .
123(6) . . .
132(6) . . .
123(6) . . .
136(7) . . .
126(6) . . .
119(6) . . .
107(5) . . .
117(6) . . .
136(7) . . .
124(6) . . .
138(6) . . .
134(6) . . .
113(6) . . .
124(6) . . .
143(6) . . .
131(6) . . .
122(6) . . .
120(6) . . .
141(6) . . .
147(6) . . .
145(6) . . .
126(6) . . .
125(6) . . .
124(6) . . .
131(6) . . .
129(6) . . .
138(6) . . .
137(6) . . .
129(6) . . .
135(6) . . .
125(6) . . .
129(6) . . .
117(6) . . .
115(6) . . .
126(6) . . .
113(6) . . .
132(6) . . .
127(6) . . .
129(6) . . .
116(6) . . .
122(6) . . .
124(6) . . .
126(6) . . .
130(6) . . .
110(6) . . .
111(5) . . .
109(6) . . .
120(6) . . .
115(6) . . .
114(6) . . .
126(6) . . .
129(6) . . .
135(6) . . .
126(6) . . .
116(6) . . .
117(6) . . .
129(6) . . .
128(6) . . .
128(6) . . .
137(6) . . .
142(6) . . .
114(6) . . .
125(6) . . .
128(6) . . .
124(6) . . .
121(6) . . .
121(6) . . .
120(6) . . .
122(6) . . .
115(6) . . .
118(6) . . .
122(6) . . .
120(6) . . .
127(6) . . .
124(6) . . .
125(6) . . .
121(6) . . .
122(6) . . .
131(6) . . .
144(6) . . .
138(6) . . .
130(6) . . .
125(6) . . .
136(6) . . .
133(6) . . .
126(6) . . .
117(6) . . .
116(6) . . .
121(6) . . .
123(6) . . .
128(6) . . .
122(6) . . .
116(6) . . .
122(6) . . .
120(6) . . .
127(6) . . .
113(6) . . .
132(6) . . .
134(6) . . .
118(6) . . .
131(6) . . .
119(6) . . .
124(6) . . .
124(6) . . .
114(6) . . .
124(6) . . .
124(6) . . .
117(6) . . .
121(6) . . .
112(6) . . .
114(6) . . .
121(6) . . .
124(6) . . .
134(6) . . .
120(6) . . .
126(6) . . .
118(6) . . .
124(6) . . .
121(6) . . .
122(6) . . .
123(6) . . .
120(6) . . .
139(6) . . .
136(6) . . .
124(6) . . .
114(6) . . .
122(6) . . .
109(5) . . .
116(6) . . .
111(6) . . .
112(6) . . .
125(6) . . .
130(6) . . .
110(5) . . .
112(6) . . .
125(6) . . .
120(6) . . .
116(6) . . .
128(6) . . .
118(6) . . .
107(6) . . .
109(6) . . .
126(6) . . .
124(6) . . .
125(6) . . .
110(6) . . .
119(6) . . .
108(5) . . .
114(6) . . .
126(6) . . .
144(7) . . .
126(6) . . .
124(6) . . .
130(6) . . .
139(6) . . .
130(6) . . .
108(6) . . .
111(5) . . .
119(6) . . .
124(6) . . .
112(6) . . .
141(6) . . .
127(6) . . .
122(6) . . .
119(6) . . .
122(6) . . .
124(6) . . .
122(6) . . .
127(6) . . .
125(6) . . .
125(6) . . .
126(6) . . .
116(6) . . .
129(6) . . .
119(6) . . .
143(6) . . .
134(6) . . .
141(6) . . .
122(6) . . .
117(6) . . .
138(6) . . .
121(6) . . .
129(6) . . .
102(6) . . .
118(6) . . .
124(6) . . .
109(5) . . .
121(6) . . .
119(6) . . .
127(6) . . .
124(6) . . .
116(6) . . .
110(5) . . .
114(6) . . .
109(6) . . .
117(6) . . .
109(5) . . .
131(6) . . .
110(6) . . .
119(6) . . .
126(6) . . .
110(6) . . .
130(6) . . .
119(6) . . .
122(6) . . .
104(6) . . .
120(6) . . .
130(6) . . .
132(6) . . .
128(6) . . .
130(6) . . .
128(6) . . .
134(6) . . .
114(6) . . .
120(6) . . .
123(6) . . .
123(6) . . .
129(6) . . .
117(6) . . .
107(6) . . .
131(6) . . .
128(6) . . .
120(6) . . .
126(6) . . .
100(5) . . .
110(6) . . .
110(5) . . .
124(6) . . .
120(6) . . .
133(6) . . .
127(6) . . .
110(5) . . .
129(6) . . .
129(6) . . .
127(6) . . .
127(6) . . .
126(6) . . .
125(6) . . .
132(6) . . .
127(6) . . .
118(6) . . .
136(6) . . .
122(6) . . .
117(6) . . .
121(6) . . .
130(6) . . .
122(6) . . .
135(6) . . .
127(6) . . .
125(6) . . .
115(6) . . .
119(6) . . .
128(6) . . .
125(6) . . .
121(6) . . .
117(6) . . .
131(6) . . .
134(6) . . .
127(6) . . .
121(6) . . .
115(6) . . .
117(6) . . .
130(6) . . .
120(6) . . .
126(6) . . .
131(6) . . .
120(6) . . .
126(6) . . .
124(6) . . .
119(6) . . .
137(6) . . .
113(6) . . .
111(6) . . .
116(6) . . .
126(6) . . .
125(6) . . .
115(6) . . .
115(6) . . .
124(6) . . .
111(6) . . .
111(5) . . .
114(6) . . .
125(6) . . .
113(6) . . .
111(6) . . .
116(6) . . .
121(6) . . .
115(6) . . .
123(6) . . .
125(6) . . .
123(6) . . .
127(6) . . .
117(6) . . .
114(6) . . .
119(6) . . .
126(6) . . .
129(6) . . .
135(7) . . .
126(6) . . .
118(6) . . .
117(6) . . .
119(6) . . .
122(6) . . .
136(6) . . .
123(6) . . .
116(6) . . .
109(5) . . .
128(6) . . .
128(6) . . .
115(6) . . .
121(6) . . .
107(5) . . .
123(6) . . .
110(6) . . .
136(6) . . .
124(6) . . .
116(6) . . .
108(6) . . .
105(5) . . .
111(6) . . .
105(5) . . .
130(6) . . .
119(6) . . .
133(6) . . .
133(6) . . .
121(6) . . .
121(6) . . .
111(6) . . .
121(6) . . .
116(6) . . .
131(6) . . .
117(6) . . .
133(6) . . .
130(6) . . .
122(6) . . .
115(6) . . .
115(6) . . .
131(6) . . .
123(6) . . .
121(6) . . .
119(6) . . .
130(6) . . .
116(6) . . .
118(6) . . .
116(6) . . .
129(6) . . .
124(6) . . .
122(6) . . .
113(6) . . .
109(6) . . .
118(6) . . .
110(6) . . .
125(6) . . .
118(6) . . .
118(6) . . .
118(6) . . .
127(6) . . .
125(6) . . .
129(6) . . .
127(6) . . .
128(6) . . .
128(6) . . .
126(6) . . .
129(6) . . .
126(6) . . .
125(6) . . .
119(6) . . .
119(6) . . .
125(6) . . .
133(6) . . .
116(6) . . .
118(6) . . .
115(6) . . .
127(6) . . .
118(6) . . .
119(6) . . .
100(5) . . .
135(6) . . .
125(6) . . .
114(6) . . .
116(6) . . .
121(6) . . .
115(6) . . .
112(5) . . .
122(6) . . .
128(6) . . .
113(6) . . .
119(6) . . .
123(6) . . .
126(6) . . .
130(6) . . .
131(6) . . .
113(6) . . .
130(6) . . .
125(6) . . .
130(6) . . .
110(5) . . .
100(5) . . .
127(6) . . .
106(6) . . .
104(6) . . .
142(7) . . .
114(6) . . .
129(6) . . .
120(6) . . .
134(7) . . .
134(6) . . .
129(6) . . .
125(6) . . .
118(6) . . .
108(6) . . .
125(6) . . .
118(6) . . .
129(6) . . .
129(6) . . .
113(6) . . .
116(6) . . .
126(6) . . .
115(6) . . .
124(6) . . .
124(6) . . .
109(5) . . .
129(6) . . .
118(6) . . .
123(6) . . .
121(6) . . .
132(6) . . .
134(6) . . .
114(6) . . .
125(6) . . .
120(6) . . .
114(6) . . .
108(5) . . .
113(6) . . .
119(6) . . .
127(6) . . .
122(6) . . .
115(6) . . .
107(6) . . .
132(7) . . .
122(6) . . .
113(6) . . .
131(6) . . .
113(6) . . .
118(6) . . .
99(5) . . .
121(6) . . .
134(6) . . .
114(6) . . .
137(7) . . .
123(6) . . .
114(6) . . .
117(6) . . .
114(6) . . .
113(6) . . .
113(6) . . .
105(5) . . .
121(6) . . .
129(6) . . .
128(6) . . .
123(6) . . .
124(6) . . .
119(6) . . .
131(6) . . .
132(6) . . .
112(5) . . .
114(6) . . .
130(6) . . .
119(6) . . .
117(6) . . .
131(6) . . .
128(6) . . .
107(5) . . .
123(6) . . .
116(6) . . .
115(6) . . .
110(5) . . .
128(6) . . .
121(6) . . .
122(6) . . .
123(6) . . .
114(6) . . .
126(6) . . .
111(6) . . .
130(6) . . .
128(6) . . .
115(6) . . .
121(6) . . .
119(6) . . .
119(6) . . .
101(5) . . .
140(6) . . .
117(6) . . .
123(6) . . .
109(6) . . .
108(5) . . .
108(5) . . .
114(6) . . .
104(6) . . .
125(6) . . .
128(6) . . .
135(6) . . .
128(6) . . .
129(7) . . .
121(6) . . .
133(6) . . .
117(6) . . .
126(6) . . .
124(6) . . .
117(6) . . .
119(6) . . .
108(5) . . .
126(6) . . .
133(6) . . .
127(6) . . .
117(6) . . .
109(5) . . .
118(6) . . .
127(6) . . .
130(6) . . .
125(6) . . .
114(6) . . .
131(6) . . .
139(6) . . .
114(6) . . .
126(6) . . .
120(6) . . .
107(6) . . .
108(6) . . .
124(6) . . .
127(6) . . .
132(6) . . .
125(6) . . .
112(6) . . .
111(6) . . .
128(6) . . .
139(6) . . .
123(6) . . .
111(6) . . .
128(6) . . .
127(6) . . .
127(6) . . .
126(6) . . .
113(6) . . .
120(6) . . .
123(6) . . .
120(6) . . .
109(6) . . .
105(5) . . .
128(6) . . .
112(5) . . .
124(6) . . .
122(6) . . .
120(6) . . .
129(6) . . .
135(6) . . .
125(6) . . .
139(7) . . .
114(6) . . .
116(6) . . .
120(6) . . .
140(6) . . .
119(6) . . .
122(6) . . .
124(6) . . .
139(6) . . .
124(6) . . .
123(6) . . .
114(6) . . .
124(6) . . .
123(6) . . .
127(6) . . .
116(6) . . .
132(6) . . .
122(6) . . .
112(6) . . .
114(6) . . .
118(6) . . .
133(6) . . .
133(6) . . .
116(6) . . .
132(6) . . .
121(6) . . .
133(6) . . .
123(6) . . .
118(6) . . .
122(6) . . .
125(6) . . .
124(6) . . .
119(6) . . .
111(6) . . .
126(6) . . .
113(6) . . .
121(6) . . .
115(6) . . .
118(6) . . .
113(6) . . .
116(6) . . .
131(6) . . .
124(6) . . .
114(6) . . .
116(6) . . .
118(6) . . .
116(6) . . .
136(6) . . .
115(6) . . .
116(6) . . .
126(6) . . .
126(6) . . .
113(6) . . .
114(6) . . .
125(6) . . .
121(6) . . .
103(5) . . .
121(6) . . .
136(6) . . .
124(6) . . .
114(6) . . .
123(6) . . .
114(5) . . .
128(6) . . .
120(6) . . .
119(6) . . .
123(6) . . .
109(6) . . .
105(5) . . .
114(6) . . .
122(6) . . .
120(6) . . .
116(6) . . .
122(6) . . .
118(6) . . .
114(6) . . .
119(6) . . .
122(6) . . .
118(6) . . .
133(6) . . .
126(6) . . .
125(6) . . .
133(6) . . .
118(6) . . .
121(6) . . .
135(6) . . .
114(6) . . .
128(6) . . .
120(6) . . .
118(6) . . .
122(6) . . .
111(5) . . .
117(6) . . .
127(6) . . .
107(5) . . .
120(6) . . .
129(6) . . .
107(6) . . .
117(6) . . .
119(6) . . .
103(5) . . .
117(6) . . .
126(6) . . .
116(6) . . .
114(6) . . .
136(6) . . .
107(5) . . .
126(6) . . .
111(6) . . .
120(6) . . .
117(6) . . .
121(6) . . .
115(6) . . .
118(6) . . .
114(6) . . .
108(5) . . .
120(6) . . .
131(6) . . .
111(6) . . .
121(6) . . .
111(5) . . .
109(6) . . .
113(6) . . .
126(6) . . .
125(6) . . .
132(6) . . .
133(6) . . .
129(6) . . .
118(6) . . .
120(6) . . .
121(6) . . .
112(6) . . .
112(6) . . .
120(6) . . .
129(6) . . .
129(6) . . .
137(6) . . .
133(7) . . .
114(6) . . .
137(6) . . .
119(6) . . .
124(6) . . .
128(6) . . .
118(6) . . .
130(6) . . .
102(5) . . .
112(5) . . .
130(7) . . .
115(6) . . .
114(6) . . .
112(6) . . .
126(6) . . .
100(5) . . .
113(6) . . .
126(6) . . .
113(6) . . .
118(6) . . .
114(6) . . .
121(6) . . .
111(5) . . .
120(6) . . .
109(5) . . .
128(6) . . .
114(6) . . .
121(6) . . .
112(6) . . .
124(6) . . .
114(6) . . .
110(5) . . .
116(6) . . .
124(6) . . .
117(6) . . .
123(6) . . .
117(6) . . .
116(6) . . .
126(6) . . .
113(6) . . .
102(5) . . .
112(6) . . .
126(6) . . .
122(6) . . .
129(6) . . .
107(6) . . .
118(6) . . .
131(6) . . .
122(6) . . .
122(6) . . .
113(6) . . .
110(5) . . .
111(6) . . .
105(5) . . .
113(6) . . .
103(5) . . .
111(6) . . .
130(6) . . .
129(6) . . .
137(7) . . .
125(6) . . .
128(6) . . .
121(6) . . .
123(6) . . .
118(6) . . .
124(6) . . .
105(5) . . .
109(6) . . .
110(6) . . .
108(6) . . .
116(6) . . .
134(6) . . .
117(6) . . .
105(5) . . .
107(6) . . .
109(6) . . .
118(6) . . .
126(6) . . .
115(6) . . .
118(6) . . .
115(6) . . .
125(6) . . .
128(6) . . .
112(6) . . .
131(6) . . .
123(6) . . .
121(6) . . .
114(6) . . .
120(6) . . .
119(6) . . .
103(6) . . .
123(6) . . .
106(6) . . .
113(6) . . .
115(6) . . .
123(6) . . .
129(6) . . .
118(6) . . .
123(6) . . .
115(6) . . .
114(6) . . .
115(6) . . .
109(6) . . .
108(6) . . .
120(6) . . .
124(6) . . .
119(6) . . .
117(6) . . .
120(6) . . .
97(5) . . .
116(6) . . .
112(5) . . .
131(6) . . .
112(6) . . .
123(6) . . .
119(6) . . .
117(6) . . .
119(6) . . .
120(6) . . .
118(6) . . .
113(6) . . .
112(6) . . .
106(6) . . .
111(6) . . .
115(6) . . .
109(5) . . .
128(6) . . .
130(6) . . .
113(6) . . .
111(6) . . .
105(5) . . .
122(6) . . .
120(6) . . .
114(6) . . .
110(6) . . .
116(6) . . .
105(5) . . .
120(6) . . .
127(6) . . .
119(6) . . .
113(6) . . .
109(6) . . .
118(6) . . .
112(6) . . .
125(6) . . .
124(6) . . .
117(6) . . .
132(6) . . .
122(6) . . .
105(5) . . .
123(6) . . .
120(6) . . .
111(6) . . .
119(6) . . .
107(5) . . .
119(6) . . .
119(6) . . .
112(6) . . .
120(6) . . .
113(5) . . .
132(6) . . .
120(6) . . .
119(6) . . .
102(5) . . .
118(6) . . .
104(5) . . .
110(6) . . .
116(6) . . .
112(6) . . .
113(6) . . .
110(5) . . .
114(6) . . .
119(6) . . .
112(6) . . .
109(5) . . .
116(6) . . .
117(6) . . .
101(5) . . .
112(6) . . .
111(6) . . .
111(5) . . .
123(6) . . .
104(6) . . .
126(6) . . .
127(6) . . .
109(5) . . .
117(6) . . .
115(6) . . .
133(6) . . .
117(6) . . .
121(6) . . .
125(6) . . .
117(6) . . .
114(6) . . .
107(5) . . .
125(6) . . .
108(5) . . .
122(6) . . .
131(6) . . .
119(6) . . .
110(6) . . .
126(7) . . .
116(6) . . .
110(6) . . .
112(5) . . .
137(6) . . .
114(6) . . .
124(6) . . .
114(6) . . .
117(6) . . .
125(6) . . .
107(6) . . .
116(6) . . .
100(5) . . .
114(6) . . .
119(6) . . .
124(6) . . .
121(6) . . .
131(6) . . .
107(5) . . .
122(6) . . .
133(7) . . .
107(6) . . .
121(6) . . .
128(6) . . .
130(6) . . .
129(6) . . .
112(6) . . .
107(5) . . .
98(5) . . .
120(6) . . .
122(6) . . .
130(6) . . .
135(6) . . .
128(6) . . .
111(6) . . .
112(6) . . .
124(6) . . .
105(5) . . .
124(6) . . .
116(6) . . .
117(6) . . .
109(5) . . .
115(6) . . .
120(6) . . .
122(6) . . .
115(6) . . .
110(6) . . .
112(5) . . .
113(6) . . .
108(6) . . .
108(5) . . .
106(5) . . .
122(6) . . .
111(6) . . .
104(6) . . .
104(6) . . .
106(5) . . .
119(6) . . .
116(6) . . .
121(6) . . .
121(6) . . .
124(6) . . .
117(6) . . .
115(6) . . .
111(6) . . .
131(6) . . .
118(6) . . .
118(6) . . .
120(6) . . .
114(6) . . .
97(5) . . .
107(5) . . .
108(5) . . .
128(6) . . .
128(6) . . .
104(6) . . .
103(5) . . .
101(5) . . .
114(6) . . .
108(6) . . .
120(6) . . .
109(5) . . .
122(6) . . .
120(6) . . .
108(6) . . .
137(6) . . .
108(5) . . .
107(6) . . .
113(6) . . .
116(6) . . .
103(5) . . .
111(5) . . .
109(5) . . .
122(6) . . .
114(6) . . .
136(6) . . .
122(6) . . .
134(6) . . .
122(6) . . .
102(5) . . .
113(6) . . .
111(5) . . .
121(6) . . .
118(6) . . .
134(7) . . .
116(6) . . .
109(5) . . .
109(6) . . .
116(6) . . .
112(5) . . .
124(6) . . .
119(6) . . .
113(6) . . .
126(6) . . .
126(6) . . .
111(6) . . .
108(5) . . .
105(5) . . .
110(6) . . .
114(6) . . .
109(5) . . .
110(5) . . .
131(6) . . .
125(6) . . .
109(6) . . .
105(5) . . .
118(6) . . .
119(6) . . .
104(6) . . .
93(5) . . .
107(5) . . .
118(6) . . .
110(6) . . .
122(6) . . .
109(6) . . .
89(5) . . .
116(6) . . .
126(6) . . .
118(6) . . .
120(6) . . .
114(5) . . .
122(6) . . .
118(6) . . .
110(6) . . .
94(5) . . .
124(6) . . .
111(6) . . .
97(5) . . .
121(6) . . .
116(6) . . .
116(6) . . .
132(6) . . .
117(6) . . .
126(6) . . .
128(6) . . .
119(6) . . .
107(6) . . .
130(6) . . .
127(6) . . .
108(5) . . .
117(6) . . .
114(6) . . .
113(6) . . .
118(6) . . .
114(6) . . .
107(5) . . .
114(6) . . .
100(6) . . .
110(6) . . .
101(5) . . .
114(6) . . .
121(6) . . .
116(6) . . .
124(6) . . .
123(6) . . .
98(5) . . .
101(5) . . .
116(6) . . .
120(6) . . .
108(5) . . .
126(6) . . .
127(6) . . .
107(6) . . .
111(6) . . .
106(5) . . .
115(6) . . .
105(6) . . .
112(6) . . .
103(5) . . .
108(5) . . .
108(6) . . .
132(6) . . .
107(6) . . .
106(5) . . .
116(6) . . .
110(6) . . .
114(6) . . .
116(6) . . .
116(6) . . .
113(6) . . .
130(6) . . .
118(6) . . .
103(5) . . .
105(5) . . .
116(6) . . .
98(5) . . .
113(6) . . .
110(6) . . .
102(5) . . .
97(5) . . .
111(6) . . .
108(6) . . .
114(6) . . .
117(6) . . .
123(6) . . .
119(6) . . .
125(6) . . .
118(6) . . .
121(6) . . .
111(5) . . .
106(5) . . .
121(6) . . .
126(6) . . .
112(5) . . .
109(5) . . .
127(6) . . .
115(6) . . .
114(6) . . .
120(6) . . .
120(6) . . .
124(6) . . .
123(6) . . .
103(5) . . .
111(5) . . .
116(6) . . .
91(5) . . .
112(6) . . .
110(6) . . .
115(6) . . .
111(6) . . .
134(7) . . .
115(6) . . .
98(5) . . .
109(5) . . .
113(6) . . .
108(6) . . .
117(6) . . .
103(5) . . .
112(6) . . .
115(6) . . .
122(6) . . .
115(6) . . .
113(5) . . .
119(6) . . .
113(6) . . .
102(6) . . .
101(6) . . .
132(6) . . .
104(5) . . .
118(6) . . .
101(6) . . .
119(6) . . .
117(6) . . .
122(6) . . .
117(6) . . .
104(6) . . .
123(6) . . .
107(5) . . .
104(5) . . .
117(6) . . .
122(6) . . .
121(6) . . .
120(6) . . .
117(6) . . .
117(6) . . .
105(6) . . .
113(6) . . .
109(5) . . .
118(6) . . .
100(5) . . .
114(6) . . .
101(6) . . .
113(6) . . .
126(6) . . .
106(6) . . .
111(6) . . .
110(6) . . .
118(6) . . .
122(6) . . .
99(6) . . .
125(6) . . .
118(6) . . .
127(6) . . .
111(6) . . .
120(6) . . .
118(6) . . .
121(6) . . .
111(5) . . .
123(6) . . .
127(6) . . .
114(6) . . .
111(6) . . .
109(5) . . .
100(5) . . .
111(6) . . .
109(6) . . .
110(6) . . .
126(6) . . .
102(6) . . .
102(6) . . .
113(6) . . .
125(6) . . .
107(5) . . .
103(5) . . .
108(6) . . .
113(6) . . .
109(5) . . .
96(5) . . .
113(6) . . .
108(6) . . .
94(5) . . .
113(6) . . .
113(6) . . .
112(6) . . .
114(6) . . .
112(6) . . .
124(6) . . .
104(5) . . .
117(6) . . .
113(6) . . .
104(6) . . .
107(5) . . .
116(6) . . .
112(6) . . .
106(6) . . .
101(5) . . .
112(5) . . .
99(5) . . .
110(6) . . .
97(5) . . .
107(5) . . .
118(6) . . .
112(6) . . .
117(6) . . .
104(5) . . .
114(6) . . .
114(6) . . .
104(6) . . .
112(6) . . .
110(6) . . .
111(6) . . .
115(6) . . .
108(5) . . .
107(6) . . .
114(6) . . .
104(5) . . .
128(6) . . .
114(6) . . .
120(6) . . .
107(6) . . .
97(5) . . .
121(6) . . .
108(5) . . .
112(6) . . .
118(6) . . .
117(6) . . .
133(6) . . .
115(6) . . .
124(6) . . .
117(6) . . .
104(5) . . .
117(6) . . .
104(5) . . .
106(6) . . .
111(6) . . .
107(5) . . .
121(6) . . .
113(6) . . .
113(6) . . .
101(5) . . .
104(5) . . .
107(5) . . .
118(6) . . .
111(6) . . .
110(6) . . .
116(6) . . .
106(5) . . .
120(6) . . .
114(6) . . .
129(6) . . .
108(5) . . .
112(6) . . .
117(6) . . .
111(6) . . .
97(5) . . .
119(6) . . .
117(6) . . .
115(6) . . .
105(5) . . .
116(6) . . .
129(6) . . .
115(6) . . .
126(6) . . .
133(6) . . .
116(6) . . .
115(6) . . .
117(6) . . .
120(6) . . .
129(6) . . .
128(6) . . .
112(6) . . .
116(6) . . .
114(6) . . .
119(6) . . .
108(5) . . .
115(6) . . .
105(5) . . .
125(6) . . .
112(6) . . .
112(5) . . .
114(5) . . .
102(5) . . .
112(6) . . .
113(6) . . .
117(6) . . .
116(6) . . .
107(5) . . .
116(6) . . .
120(6) . . .
118(6) . . .
106(5) . . .
99(5) . . .
115(6) . . .
109(6) . . .
113(6) . . .
114(6) . . .
108(6) . . .
125(6) . . .
129(6) . . .
108(5) . . .
90(5) . . .
111(6) . . .
128(6) . . .
110(6) . . .
92(5) . . .
117(6) . . .
104(6) . . .
107(6) . . .
106(6) . . .
108(5) . . .
112(6) . . .
100(5) . . .
115(6) . . .
114(6) . . .
105(5) . . .
117(6) . . .
108(6) . . .
124(6) . . .
113(6) . . .
114(5) . . .
109(6) . . .
100(5) . . .
112(6) . . .
97(5) . . .
111(5) . . .
111(6) . . .
109(6) . . .
115(6) . . .
118(6) . . .
106(5) . . .
124(6) . . .
100(5) . . .
108(6) . . .
107(5) . . .
117(6) . . .
116(6) . . .
104(6) . . .
109(6) . . .
108(5) . . .
94(5) . . .
115(6) . . .
117(6) . . .
125(6) . . .
119(6) . . .
116(6) . . .
118(6) . . .
111(6) . . .
108(5) . . .
119(6) . . .
115(6) . . .
116(6) . . .
119(6) . . .
108(6) . . .
107(5) . . .
122(6) . . .
119(6) . . .
109(6) . . .
124(6) . . .
103(5) . . .
116(6) . . .
112(6) . . .
110(6) . . .
103(5) . . .
106(5) . . .
102(6) . . .
120(6) . . .
107(6) . . .
104(5) . . .
107(5) . . .
116(6) . . .
102(6) . . .
124(6) . . .
119(6) . . .
119(6) . . .
106(5) . . .
112(6) . . .
112(6) . . .
115(6) . . .
100(5) . . .
123(6) . . .
123(6) . . .
104(5) . . .
117(6) . . .
116(6) . . .
96(5) . . .
90(5) . . .
93(5) . . .
114(6) . . .
132(6) . . .
108(6) . . .
102(5) . . .
112(6) . . .
101(5) . . .
99(5) . . .
102(5) . . .
113(6) . . .
107(6) . . .
130(6) . . .
101(5) . . .
121(6) . . .
104(5) . . .
113(6) . . .
118(6) . . .
104(5) . . .
96(5) . . .
113(6) . . .
116(6) . . .
105(5) . . .
105(6) . . .
105(6) . . .
111(6) . . .
97(5) . . .
121(6) . . .
110(6) . . .
119(6) . . .
105(6) . . .
115(6) . . .
124(6) . . .
109(6) . . .
112(6) . . .
115(6) . . .
102(5) . . .
128(6) . . .
122(6) . . .
120(6) . . .
107(5) . . .
116(6) . . .
106(5) . . .
104(5) . . .
111(6) . . .
132(6) . . .
128(6) . . .
107(5) . . .
107(6) . . .
111(6) . . .
119(6) . . .
114(6) . . .
107(5) . . .
111(6) . . .
113(6) . . .
113(6) . . .
127(6) . . .
114(6) . . .
111(6) . . .
109(6) . . .
112(6) . . .
94(5) . . .
103(6) . . .
112(6) . . .
117(6) . . .
107(6) . . .
121(6) . . .
119(6) . . .
107(5) . . .
112(6) . . .
101(5) . . .
103(5) . . .
106(5) . . .
99(5) . . .
122(6) . . .
116(6) . . .
124(6) . . .
119(6) . . .
122(6) . . .
106(5) . . .
109(5) . . .
121(6) . . .
117(6) . . .
112(6) . . .
116(6) . . .
130(6) . . .
103(5) . . .
105(6) . . .
106(5) . . .
112(6) . . .
96(5) . . .
107(5) . . .
103(5) . . .
108(6) . . .
108(6) . . .
127(6) . . .
108(5) . . .
104(6) . . .
110(6) . . .
105(5) . . .
107(5) . . .
104(5) . . .
108(6) . . .
110(6) . . .
108(6) . . .
97(5) . . .
113(6) . . .
111(6) . . .
110(6) . . .
115(6) . . .
119(6) . . .
108(5) . . .
119(6) . . .
118(6) . . .
106(5) . . .
112(6) . . .
94(5) . . .
109(6) . . .
114(6) . . .
92(5) . . .
108(5) . . .
117(6) . . .
119(6) . . .
114(6) . . .
98(5) . . .
112(6) . . .
109(6) . . .
108(6) . . .
107(6) . . .
102(5) . . .
113(5) . . .
98(5) . . .
93(5) . . .
119(6) . . .
108(5) . . .
111(5) . . .
108(6) . . .
112(6) . . .
120(6) . . .
101(5) . . .
112(6) . . .
104(5) . . .
115(6) . . .
129(6) . . .
118(6) . . .
86(5) . . .
90(5) . . .
107(6) . . .
98(5) . . .
100(5) . . .
101(5) . . .
104(5) . . .
104(6) . . .
92(5) . . .
107(5) . . .
127(6) . . .
112(6) . . .
120(6) . . .
102(5) . . .
102(5) . . .
102(5) . . .
123(6) . . .
123(6) . . .
114(6) . . .
116(6) . . .
115(6) . . .
108(6) . . .
93(5) . . .
113(6) . . .
104(5) . . .
105(6) . . .
113(6) . . .
105(5) . . .
112(5) . . .
99(5) . . .
119(6) . . .
123(6) . . .
100(5) . . .
117(6) . . .
114(6) . . .
119(6) . . .
123(6) . . .
114(6) . . .
107(5) . . .
115(6) . . .
106(6) . . .
107(6) . . .
102(5) . . .
96(5) . . .
109(5) . . .
123(6) . . .
93(5) . . .
112(6) . . .
103(5) . . .
116(6) . . .
113(6) . . .
108(6) . . .
101(5) . . .
109(5) . . .
104(5) . . .
112(6) . . .
111(6) . . .
118(6) . . .
116(6) . . .
117(6) . . .
123(6) . . .
116(6) . . .
110(6) . . .
100(5) . . .
112(5) . . .
109(6) . . .
108(6) . . .
111(6) . . .
104(5) . . .
119(6) . . .
102(6) . . .
113(6) . . .
111(6) . . .
108(5) . . .
92(5) . . .
102(5) . . .
108(6) . . .
113(6) . . .
121(6) . . .
103(6) . . .
98(5) . . .
102(5) . . .
118(6) . . .
110(5) . . .
105(6) . . .
117(6) . . .
110(6) . . .
104(5) . . .
125(6) . . .
102(5) . . .
113(6) . . .
110(6) . . .
109(5) . . .
114(6) . . .
103(5) . . .
113(6) . . .
104(5) . . .
118(6) . . .
107(5) . . .
113(6) . . .
93(5) . . .
107(5) . . .
111(5) . . .
103(5) . . .
98(5) . . .
103(6) . . .
114(6) . . .
116(6) . . .
100(5) . . .
112(6) . . .
107(6) . . .
102(6) . . .
97(5) . . .
113(6) . . .
127(6) . . .
117(6) . . .
112(6) . . .
101(5) . . .
111(6) . . .
98(5) . . .
124(6) . . .
110(6) . . .
105(5) . . .
112(6) . . .
102(5) . . .
104(6) . . .
117(6) . . .
113(6) . . .
92(5) . . .
120(6) . . .
112(6) . . .
108(5) . . .
112(6) . . .
121(6) . . .
112(6) . . .
107(5) . . .
106(6) . . .
92(5) . . .
107(6) . . .
111(6) . . .
101(5) . . .
130(6) . . .
105(5) . . .
103(5) . . .
103(6) . . .
99(5) . . .
119(6) . . .
104(5) . . .
111(5) . . .
105(5) . . .
109(6) . . .
109(5) . . .
100(5) . . .
114(6) . . .
113(6) . . .
104(6) . . .
108(5) . . .
133(6) . . .
112(6) . . .
112(6) . . .
107(6) . . .
111(6) . . .
116(6) . . .
113(6) . . .
112(6) . . .
106(5) . . .
125(6) . . .
113(6) . . .
108(6) . . .
109(6) . . .
120(6) . . .
117(6) . . .
102(5) . . .
102(5) . . .
103(5) . . .
110(6) . . .
109(5) . . .
94(5) . . .
98(5) . . .
111(6) . . .
121(6) . . .
105(5) . . .
107(6) . . .
111(6) . . .
115(6) . . .
120(6) . . .
102(5) . . .
96(5) . . .
108(6) . . .
116(6) . . .
109(5) . . .
104(5) . . .
110(6) . . .
124(6) . . .
109(6) . . .
98(5) . . .
97(5) . . .
106(6) . . .
104(6) . . .
109(6) . . .
99(5) . . .
116(6) . . .
100(5) . . .
94(5) . . .
110(6) . . .
111(5) . . .
112(5) . . .
94(5) . . .
107(6) . . .
96(5) . . .
97(5) . . .
114(6) . . .
106(5) . . .
107(5) . . .
112(6) . . .
101(5) . . .
105(5) . . .
119(6) . . .
95(5) . . .
99(5) . . .
97(5) . . .
111(6) . . .
100(5) . . .
105(6) . . .
96(5) . . .
98(5) . . .
121(6) . . .
125(6) . . .
93(5) . . .
110(5) . . .
119(6) . . .
113(6) . . .
112(6) . . .
119(6) . . .
113(6) . . .
106(5) . . .
100(5) . . .
107(6) . . .
115(6) . . .
116(6) . . .
107(5) . . .
107(5) . . .
101(5) . . .
122(6) . . .
98(5) . . .
93(5) . . .
119(6) . . .
109(6) . . .
117(6) . . .
106(5) . . .
97(5) . . .
120(6) . . .
98(6) . . .
107(6) . . .
111(5) . . .
112(6) . . .
94(5) . . .
103(6) . . .
94(5) . . .
99(5) . . .
87(5) . . .
103(6) . . .
91(5) . . .
87(5) . . .
88(5) . . .
110(6) . . .
110(6) . . .
92(5) . . .
101(5) . . .
108(5) . . .
100(5) . . .
110(6) . . .
96(5) . . .
101(5) . . .
107(5) . . .
102(5) . . .
113(6) . . .
93(5) . . .
106(5) . . .
105(5) . . .
103(6) . . .
120(6) . . .
105(5) . . .
93(5) . . .
86(5) . . .
113(6) . . .
118(6) . . .
120(6) . . .
115(6) . . .
103(5) . . .
111(6) . . .
107(6) . . .
110(6) . . .
105(5) . . .
109(5) . . .
99(5) . . .
106(6) . . .
107(6) . . .
128(6) . . .
115(6) . . .
111(6) . . .
117(6) . . .
107(6) . . .
111(5) . . .
123(6) . . .
118(6) . . .
115(6) . . .
102(5) . . .
87(5) . . .
102(5) . . .
107(5) . . .
112(6) . . .
113(6) . . .
115(6) . . .
110(5) . . .
111(6) . . .
111(6) . . .
131(6) . . .
112(5) . . .
117(6) . . .
117(6) . . .
97(5) . . .
98(5) . . .
103(5) . . .
97(5) . . .
101(6) . . .
103(6) . . .
102(5) . . .
114(6) . . .
103(6) . . .
97(5) . . .
114(6) . . .
101(5) . . .
101(5) . . .
114(6) . . .
109(6) . . .
98(5) . . .
105(5) . . .
114(6) . . .
117(6) . . .
110(6) . . .
116(6) . . .
112(5) . . .
105(5) . . .
112(6) . . .
105(6) . . .
95(5) . . .
96(5) . . .
99(5) . . .
114(6) . . .
115(6) . . .
111(6) . . .
111(5) . . .
98(5) . . .
110(6) . . .
109(6) . . .
89(5) . . .
97(5) . . .
105(5) . . .
104(5) . . .
114(6) . . .
108(6) . . .
107(5) . . .
115(6) . . .
104(5) . . .
112(6) . . .
108(6) . . .
111(5) . . .
119(6) . . .
96(5) . . .
108(6) . . .
117(6) . . .
109(5) . . .
98(5) . . .
111(6) . . .
107(6) . . .
109(6) . . .
103(5) . . .
97(5) . . .
115(6) . . .
107(6) . . .
107(5) . . .
113(6) . . .
96(5) . . .
89(5) . . .
111(6) . . .
122(6) . . .
104(5) . . .
109(6) . . .
107(6) . . .
105(5) . . .
111(5) . . .
104(5) . . .
120(6) . . .
109(6) . . .
102(5) . . .
113(6) . . .
114(6) . . .
97(5) . . .
98(5) . . .
108(6) . . .
99(5) . . .
110(5) . . .
111(6) . . .
115(6) . . .
105(5) . . .
111(5) . . .
111(6) . . .
95(5) . . .
101(6) . . .
111(6) . . .
114(6) . . .
101(5) . . .
96(5) . . .
102(6) . . .
116(6) . . .
116(6) . . .
101(5) . . .
106(6) . . .
97(5) . . .
109(6) . . .
114(6) . . .
108(6) . . .
113(6) . . .
92(5) . . .
110(6) . . .
87(5) . . .
123(6) . . .
105(6) . . .
109(6) . . .
97(5) . . .
94(5) . . .
114(6) . . .
114(6) . . .
119(6) . . .
99(5) . . .
116(6) . . .
110(6) . . .
101(5) . . .
92(5) . . .
110(6) . . .
106(5) . . .
97(5) . . .
104(5) . . .
112(5) . . .
117(6) . . .
104(5) . . .
110(6) . . .
100(6) . . .
99(5) . . .
109(5) . . .
122(6) . . .
114(6) . . .
94(6) . . .
95(5) . . .
97(5) . . .
111(5) . . .
109(6) . . .
111(6) . . .
98(5) . . .
108(5) . . .
109(6) . . .
108(6) . . .
100(6) . . .
121(6) . . .
107(5) . . .
99(5) . . .
101(5) . . .
91(5) . . .
103(5) . . .
106(5) . . .
108(5) . . .
108(6) . . .
107(6) . . .
99(5) . . .
98(5) . . .
91(5) . . .
94(5) . . .
116(6) . . .
106(5) . . .
103(5) . . .
94(5) . . .
110(6) . . .
97(5) . . .
96(5) . . .
107(5) . . .
107(6) . . .
95(5) . . .
103(5) . . .
95(5) . . .
93(5) . . .
104(6) . . .
93(5) . . .
97(5) . . .
95(5) . . .
95(5) . . .
117(6) . . .
122(6) . . .
111(6) . . .
100(5) . . .
100(5) . . .
111(6) . . .
106(6) . . .
105(6) . . .
106(5) . . .
98(5) . . .
99(5) . . .
106(6) . . .
109(6) . . .
91(5) . . .
92(5) . . .
105(6) . . .
117(6) . . .
116(6) . . .
94(5) . . .
109(5) . . .
100(5) . . .
96(6) . . .
90(5) . . .
94(5) . . .
99(5) . . .
97(5) . . .
94(5) . . .
104(5) . . .
101(5) . . .
102(5) . . .
114(6) . . .
117(6) . . .
100(5) . . .
92(5) . . .
108(6) . . .
102(5) . . .
107(6) . . .
94(5) . . .
108(5) . . .
106(6) . . .
107(6) . . .
105(6) . . .
104(5) . . .
103(5) . . .
104(6) . . .
109(6) . . .
106(6) . . .
108(5) . . .
104(5) . . .
88(5) . . .
106(6) . . .
103(6) . . .
87(5) . . .
100(5) . . .
109(6) . . .
98(5) . . .
102(5) . . .
99(5) . . .
95(5) . . .
95(5) . . .
110(6) . . .
126(6) . . .
98(5) . . .
96(5) . . .
103(5) . . .
110(6) . . .
96(5) . . .
100(5) . . .
111(6) . . .
106(6) . . .
113(6) . . .
108(6) . . .
116(6) . . .
113(6) . . .
111(6) . . .
103(5) . . .
100(5) . . .
101(5) . . .
93(5) . . .
101(6) . . .
103(5) . . .
116(6) . . .
104(5) . . .
118(6) . . .
103(5) . . .
93(5) . . .
88(5) . . .
89(5) . . .
101(5) . . .
109(6) . . .
101(5) . . .
125(6) . . .
96(5) . . .
104(5) . . .
101(5) . . .
125(6) . . .
102(5) . . .
95(5) . . .
99(5) . . .
119(6) . . .
92(5) . . .
99(5) . . .
107(5) . . .
106(5) . . .
112(6) . . .
104(6) . . .
99(5) . . .
97(5) . . .
114(6) . . .
101(6) . . .
90(5) . . .
85(5) . . .
107(5) . . .
86(5) . . .
96(6) . . .
97(5) . . .
91(5) . . .
105(5) . . .
99(5) . . .
111(6) . . .
110(6) . . .
93(5) . . .
95(5) . . .
98(5) . . .
96(5) . . .
101(5) . . .
105(5) . . .
102(5) . . .
89(5) . . .
105(6) . . .
103(5) . . .
104(5) . . .
91(5) . . .
99(5) . . .
100(5) . . .
116(6) . . .
96(5) . . .
100(6) . . .
104(6) . . .
87(5) . . .
99(5) . . .
96(5) . . .
106(6) . . .
95(5) . . .
104(5) . . .
102(5) . . .
103(5) . . .
96(5) . . .
100(5) . . .
111(6) . . .
98(5) . . .
103(5) . . .
103(5) . . .
104(6) . . .
99(5) . . .
109(5) . . .
97(5) . . .
102(5) . . .
96(6) . . .
87(5) . . .
110(5) . . .
99(5) . . .
105(6) . . .
101(6) . . .
111(6) . . .
101(5) . . .
106(5) . . .
93(5) . . .
121(6) . . .
107(6) . . .
92(5) . . .
98(5) . . .
97(5) . . .
111(6) . . .
98(5) . . .
94(5) . . .
91(5) . . .
86(5) . . .
99(5) . . .
113(6) . . .
115(6) . . .
108(5) . . .
105(5) . . .
95(5) . . .
100(5) . . .
107(5) . . .
98(5) . . .
101(5) . . .
107(6) . . .
102(5) . . .
104(5) . . .
109(5) . . .
101(5) . . .
105(6) . . .
97(5) . . .
104(5) . . .
90(5) . . .
108(6) . . .
93(5) . . .
102(5) . . .
104(5) . . .
90(5) . . .
101(6) . . .
109(6) . . .
96(5) . . .
93(5) . . .
105(6) . . .
107(6) . . .
102(5) . . .
106(5) . . .
94(5) . . .
103(5) . . .
99(5) . . .
106(6) . . .
85(5) . . .
83(5) . . .
94(5) . . .
103(6) . . .
106(6) . . .
120(6) . . .
101(5) . . .
116(6) . . .
98(5) . . .
108(6) . . .
113(6) . . .
104(5) . . .
98(5) . . .
99(5) . . .
102(6) . . .
99(5) . . .
100(5) . . .
93(5) . . .
97(5) . . .
93(5) . . .
99(5) . . .
104(5) . . .
107(6) . . .
96(5) . . .
92(5) . . .
89(5) . . .
119(6) . . .
96(5) . . .
107(6) . . .
96(5) . . .
92(5) . . .
100(5) . . .
102(5) . . .
101(5) . . .
90(5) . . .
99(5) . . .
100(5) . . .
108(6) . . .
105(6) . . .
114(6) . . .
99(5) . . .
107(6) . . .
94(5) . . .
111(6) . . .
107(5) . . .
96(5) . . .
107(6) . . .
92(5) . . .
93(5) . . .
80(5) . . .
98(5) . . .
109(6) . . .
99(6) . . .
99(5) . . .
93(5) . . .
96(5) . . .
100(5) . . .
104(6) . . .
106(5) . . .
105(5) . . .
105(5) . . .
103(5) . . .
111(6) . . .
105(6) . . .
114(6) . . .
105(5) . . .
102(5) . . .
103(6) . . .
88(5) . . .
90(5) . . .
100(5) . . .
94(5) . . .
89(5) . . .
103(5) . . .
101(5) . . .
101(5) . . .
103(5) . . .
92(5) . . .
88(5) . . .
95(5) . . .
101(5) . . .
92(5) . . .
101(5) . . .
91(5) . . .
94(5) . . .
100(6) . . .
98(6) . . .
95(5) . . .
97(5) . . .
94(5) . . .
103(5) . . .
94(5) . . .
99(5) . . .
102(5) . . .
112(6) . . .
110(6) . . .
106(6) . . .
109(6) . . .
88(5) . . .
106(5) . . .
104(6) . . .
93(5) . . .
94(5) . . .
98(5) . . .
102(5) . . .
98(5) . . .
98(5) . . .
96(5) . . .
109(5) . . .
95(5) . . .
103(5) . . .
112(6) . . .
104(5) . . .
106(5) . . .
106(6) . . .
89(5) . . .
94(5) . . .
110(6) . . .
92(5) . . .
97(5) . . .
89(5) . . .
112(6) . . .
109(5) . . .
97(5) . . .
97(5) . . .
95(5) . . .
103(5) . . .
96(5) . . .
98(5) . . .
105(6) . . .
94(5) . . .
110(6) . . .
112(5) . . .
98(5) . . .
102(5) . . .
100(6) . . .
91(5) . . .
107(5) . . .
98(5) . . .
99(6) . . .
98(6) . . .
110(6) . . .
94(5) . . .
86(5) . . .
111(6) . . .
100(5) . . .
110(6) . . .
98(5) . . .
97(5) . . .
87(5) . . .
98(5) . . .
112(6) . . .
102(5) . . .
100(5) . . .
108(6) . . .
111(6) . . .
95(5) . . .
93(5) . . .
101(5) . . .
114(6) . . .
96(6) . . .
97(5) . . .
96(5) . . .
94(5) . . .
90(5) . . .
90(5) . . .
102(5) . . .
105(5) . . .
108(6) . . .
93(5) . . .
99(5) . . .
105(6) . . .
92(5) . . .
104(5) . . .
95(5) . . .
100(5) . . .
91(5) . . .
98(5) . . .
92(5) . . .
101(6) . . .
100(5) . . .
97(5) . . .
101(5) . . .
94(5) . . .
104(6) . . .
111(5) . . .
116(6) . . .
99(5) . . .
106(6) . . .
98(5) . . .
107(6) . . .
94(5) . . .
111(5) . . .
110(6) . . .
111(6) . . .
84(5) . . .
95(5) . . .
97(5) . . .
91(5) . . .
94(5) . . .
89(5) . . .
107(5) . . .
96(5) . . .
94(5) . . .
76(5) . . .
104(5) . . .
107(5) . . .
106(5) . . .
118(6) . . .
110(5) . . .
93(5) . . .
93(5) . . .
89(5) . . .
109(6) . . .
104(5) . . .
104(5) . . .
100(5) . . .
96(5) . . .
89(5) . . .
105(6) . . .
90(5) . . .
103(5) . . .
97(5) . . .
97(5) . . .
93(5) . . .
112(6) . . .
101(5) . . .
107(6) . . .
90(5) . . .
85(5) . . .
98(5) . . .
103(5) . . .
97(5) . . .
97(5) . . .
110(6) . . .
92(5) . . .
96(5) . . .
95(5) . . .
103(6) . . .
100(5) . . .
90(5) . . .
101(5) . . .
94(5) . . .
89(5) . . .
102(5) . . .
92(5) . . .
91(5) . . .
93(5) . . .
95(6) . . .
95(5) . . .
84(5) . . .
106(5) . . .
99(5) . . .
104(6) . . .
98(5) . . .
93(5) . . .
87(5) . . .
106(6) . . .
92(5) . . .
101(5) . . .
91(5) . . .
97(5) . . .
99(5) . . .
106(6) . . .
97(5) . . .
89(5) . . .
108(6) . . .
93(5) . . .
105(6) . . .
88(5) . . .
100(5) . . .
91(5) . . .
88(5) . . .
85(5) . . .
94(5) . . .
96(5) . . .
103(6) . . .
106(6) . . .
101(5) . . .
100(5) . . .
95(5) . . .
104(6) . . .
93(5) . . .
99(5) . . .
110(5) . . .
114(6) . . .
92(5) . . .
100(6) . . .
102(5) . . .
98(5) . . .
85(5) . . .
101(5) . . .
100(6) . . .
109(6) . . .
98(5) . . .
114(6) . . .
92(5) . . .
108(6) . . .
122(6) . . .
105(5) . . .
96(5) . . .
91(5) . . .
85(5) . . .
92(5) . . .
79(5) . . .
91(5) . . .
102(6) . . .
88(5) . . .
103(6) . . .
101(5) . . .
94(5) . . .
100(5) . . .
93(5) . . .
103(6) . . .
95(5) . . .
100(5) . . .
90(5) . . .
101(5) . . .
104(5) . . .
90(5) . . .
99(5) . . .
93(5) . . .
97(5) . . .
91(5) . . .
86(5) . . .
100(5) . . .
104(6) . . .
96(5) . . .
102(5) . . .
96(5) . . .
93(5) . . .
107(6) . . .
99(5) . . .
88(5) . . .
91(5) . . .
92(5) . . .
106(6) . . .
107(6) . . .
106(5) . . .
104(5) . . .
93(5) . . .
102(6) . . .
87(5) . . .
101(5) . . .
98(5) . . .
102(6) . . .
108(6) . . .
99(5) . . .
100(5) . . .
95(5) . . .
107(6) . . .
87(5) . . .
99(5) . . .
97(5) . . .
101(5) . . .
94(5) . . .
101(6) . . .
84(5) . . .
85(5) . . .
81(5) . . .
93(5) . . .
92(5) . . .
98(5) . . .
100(5) . . .
111(6) . . .
107(6) . . .
108(6) . . .
117(6) . . .
91(5) . . .
94(5) . . .
101(6) . . .
94(5) . . .
98(5) . . .
97(5) . . .
93(5) . . .
102(6) . . .
96(5) . . .
95(5) . . .
98(5) . . .
90(5) . . .
104(6) . . .
94(5) . . .
114(6) . . .
97(5) . . .
100(6) . . .
82(5) . . .
100(5) . . .
96(5) . . .
94(5) . . .
109(6) . . .
94(5) . . .
91(5) . . .
97(5) . . .
91(5) . . .
93(5) . . .
107(6) . . .
102(5) . . .
90(5) . . .
109(5) . . .
114(6) . . .
97(6) . . .
88(5) . . .
93(5) . . .
111(6) . . .
99(5) . . .
95(5) . . .
102(6) . . .
107(5) . . .
95(5) . . .
86(5) . . .
95(5) . . .
114(6) . . .
97(5) . . .
94(5) . . .
93(5) . . .
97(5) . . .
89(5) . . .
89(5) . . .
93(5) . . .
98(5) . . .
110(6) . . .
95(5) . . .
83(5) . . .
100(5) . . .
99(5) . . .
109(5) . . .
88(5) . . .
91(5) . . .
106(6) . . .
94(5) . . .
87(5) . . .
107(5) . . .
101(5) . . .
95(5) . . .
102(6) . . .
109(6) . . .
104(5) . . .
97(5) . . .
92(5) . . .
91(5) . . .
85(5) . . .
94(5) . . .
115(6) . . .
91(5) . . .
102(6) . . .
92(5) . . .
86(5) . . .
107(5) . . .
95(5) . . .
106(6) . . .
98(5) . . .
90(5) . . .
93(5) . . .
87(5) . . .
98(6) . . .
102(5) . . .
90(5) . . .
85(5) . . .
96(5) . . .
100(5) . . .
111(6) . . .
97(5) . . .
87(5) . . .
89(5) . . .
97(6) . . .
86(5) . . .
102(5) . . .
105(5) . . .
95(5) . . .
97(5) . . .
102(5) . . .
104(5) . . .
94(5) . . .
114(6) . . .
103(5) . . .
97(5) . . .
95(5) . . .
93(5) . . .
102(5) . . .
107(6) . . .
92(5) . . .
102(5) . . .
84(5) . . .
106(6) . . .
97(5) . . .
99(5) . . .
98(5) . . .
83(5) . . .
102(6) . . .
99(5) . . .
97(5) . . .
98(5) . . .
107(6) . . .
101(6) . . .
90(5) . . .
91(5) . . .
95(5) . . .
89(5) . . .
97(6) . . .
85(5) . . .
99(5) . . .
91(5) . . .
99(5) . . .
89(5) . . .
87(5) . . .
93(5) . . .
99(5) . . .
100(5) . . .
95(5) . . .
90(5) . . .
98(5) . . .
111(6) . . .
93(5) . . .
116(6) . . .
98(5) . . .
94(5) . . .
109(6) . . .
107(6) . . .
93(5) . . .
104(6) . . .
103(5) . . .
108(6) . . .
102(5) . . .
99(5) . . .
112(6) . . .
88(5) . . .
104(6) . . .
83(5) . . .
102(6) . . .
97(5) . . .
91(5) . . .
97(5) . . .
97(5) . . .
95(5) . . .
94(5) . . .
82(5) . . .
94(5) . . .
101(5) . . .
114(6) . . .
84(5) . . .
73(4) . . .
99(6) . . .
102(6) . . .
90(5) . . .
93(5) . . .
96(5) . . .
97(5) . . .
91(5) . . .
97(5) . . .
99(5) . . .
92(5) . . .
77(5) . . .
73(5) . . .
98(5) . . .
87(5) . . .
86(5) . . .
99(6) . . .
87(5) . . .
101(6) . . .
95(5) . . .
88(5) . . .
92(5) . . .
93(5) . . .
97(5) . . .
90(5) . . .
88(5) . . .
96(5) . . .
116(6) . . .
96(5) . . .
103(5) . . .
99(5) . . .
84(5) . . .
99(5) . . .
105(5) . . .
82(5) . . .
89(5) . . .
87(5) . . .
85(5) . . .
101(5) . . .
106(5) . . .
103(5) . . .
103(6) . . .
90(5) . . .
85(5) . . .
101(5) . . .
89(5) . . .
98(5) . . .
86(5) . . .
98(5) . . .
107(5) . . .
106(6) . . .
116(6) . . .
96(5) . . .
94(5) . . .
93(5) . . .
103(6) . . .
103(6) . . .
105(5) . . .
87(5) . . .
103(5) . . .
109(6) . . .
86(5) . . .
91(5) . . .
97(5) . . .
95(5) . . .
107(6) . . .
107(6) . . .
104(5) . . .
107(5) . . .
86(5) . . .
91(5) . . .
87(5) . . .
101(5) . . .
97(5) . . .
98(5) . . .
94(5) . . .
90(5) . . .
89(5) . . .
95(5) . . .
84(5) . . .
95(5) . . .
81(5) . . .
93(5) . . .
96(5) . . .
92(5) . . .
111(6) . . .
93(5) . . .
99(5) . . .
101(5) . . .
94(5) . . .
101(6) . . .
92(5) . . .
103(5) . . .
102(5) . . .
102(6) . . .
107(6) . . .
93(5) . . .
97(5) . . .
101(5) . . .
111(6) . . .
95(5) . . .
100(6) . . .
94(5) . . .
91(5) . . .
81(5) . . .
96(5) . . .
99(5) . . .
102(5) . . .
92(5) . . .
103(5) . . .
97(5) . . .
82(5) . . .
97(5) . . .
95(5) . . .
93(5) . . .
102(6) . . .
88(5) . . .
97(5) . . .
99(5) . . .
105(6) . . .
91(5) . . .
102(5) . . .
92(5) . . .
83(5) . . .
87(5) . . .
98(6) . . .
98(5) . . .
90(5) . . .
94(5) . . .
90(5) . . .
98(6) . . .
87(5) . . .
94(5) . . .
98(5) . . .
85(5) . . .
92(5) . . .
102(5) . . .
112(6) . . .
111(6) . . .
104(6) . . .
95(5) . . .
103(5) . . .
103(5) . . .
103(5) . . .
97(6) . . .
90(5) . . .
102(5) . . .
100(5) . . .
90(5) . . .
91(5) . . .
92(5) . . .
94(5) . . .
85(5) . . .
91(5) . . .
87(5) . . .
103(5) . . .
102(5) . . .
95(5) . . .
103(6) . . .
95(5) . . .
89(5) . . .
89(5) . . .
87(5) . . .
86(5) . . .
93(5) . . .
84(5) . . .
96(5) . . .
92(5) . . .
92(5) . . .
99(5) . . .
100(6) . . .
90(5) . . .
89(5) . . .
93(5) . . .
76(5) . . .
92(5) . . .
81(5) . . .
95(5) . . .
117(6) . . .
89(5) . . .
96(6) . . .
94(5) . . .
87(5) . . .
93(5) . . .
94(5) . . .
107(6) . . .
88(5) . . .
113(6) . . .
97(5) . . .
115(6) . . .
108(5) . . .
89(5) . . .
88(5) . . .
93(5) . . .
80(5) . . .
84(5) . . .
91(5) . . .
96(5) . . .
100(5) . . .
88(5) . . .
103(5) . . .
92(5) . . .
91(5) . . .
85(5) . . .
91(5) . . .
90(5) . . .
88(5) . . .
93(5) . . .
101(5) . . .
104(6) . . .
93(5) . . .
88(5) . . .
88(5) . . .
108(6) . . .
91(5) . . .
101(5) . . .
101(5) . . .
98(5) . . .
101(5) . . .
106(6) . . .
92(5) . . .
95(5) . . .
96(5) . . .
95(5) . . .
95(5) . . .
95(5) . . .
93(5) . . .
86(5) . . .
93(5) . . .
105(6) . . .
97(5) . . .
90(5) . . .
91(5) . . .
78(5) . . .
99(5) . . .
93(5) . . .
90(5) . . .
90(5) . . .
97(6) . . .
96(5) . . .
97(5) . . .
101(5) . . .
106(6) . . .
97(5) . . .
86(5) . . .
83(5) . . .
81(5) . . .
92(5) . . .
87(5) . . .
96(5) . . .
102(5) . . .
103(5) . . .
97(5) . . .
94(5) . . .
80(5) . . .
89(5) . . .
91(5) . . .
91(5) . . .
96(5) . . .
86(5) . . .
109(5) . . .
93(5) . . .
97(6) . . .
97(5) . . .
97(5) . . .
86(5) . . .
82(5) . . .
106(6) . . .
100(5) . . .
95(5) . . .
97(5) . . .
96(5) . . .
88(5) . . .
98(5) . . .
94(5) . . .
91(5) . . .
100(5) . . .
98(6) . . .
78(5) . . .
89(5) . . .
93(5) . . .
91(5) . . .
97(5) . . .
90(5) . . .
101(5) . . .
89(5) . . .
103(6) . . .
96(5) . . .
95(5) . . .
90(5) . . .
85(5) . . .
86(5) . . .
99(5) . . .
100(5) . . .
96(5) . . .
84(5) . . .
89(5) . . .
92(5) . . .
94(5) . . .
96(5) . . .
81(5) . . .
95(5) . . .
95(5) . . .
92(5) . . .
77(5) . . .
98(5) . . .
98(6) . . .
109(6) . . .
85(5) . . .
89(5) . . .
107(6) . . .
88(5) . . .
93(5) . . .
99(5) . . .
103(5) . . .
95(5) . . .
95(5) . . .
95(5) . . .
86(5) . . .
90(5) . . .
93(5) . . .
90(5) . . .
91(5) . . .
88(5) . . .
89(5) . . .
95(5) . . .
88(5) . . .
97(5) . . .
93(5) . . .
87(5) . . .
80(5) . . .
99(6) . . .
86(5) . . .
89(5) . . .
95(5) . . .
90(5) . . .
98(6) . . .
117(6) . . .
80(5) . . .
82(5) . . .
75(5) . . .
83(5) . . .
87(5) . . .
90(5) . . .
92(5) . . .
106(6) . . .
90(5) . . .
95(5) . . .
99(5) . . .
90(5) . . .
93(5) . . .
89(5) . . .
89(5) . . .
91(5) . . .
101(6) . . .
92(5) . . .
98(5) . . .
81(5) . . .
82(5) . . .
92(5) . . .
93(5) . . .
89(5) . . .
87(5) . . .
89(5) . . .
109(6) . . .
100(5) . . .
87(5) . . .
84(5) . . .
81(5) . . .
94(5) . . .
91(5) . . .
89(5) . . .
101(5) . . .
97(5) . . .
92(5) . . .
95(5) . . .
97(5) . . .
94(5) . . .
93(5) . . .
94(5) . . .
113(6) . . .
97(5) . . .
86(5) . . .
84(5) . . .
80(5) . . .
92(5) . . .
97(5) . . .
98(5) . . .
89(5) . . .
96(5) . . .
87(5) . . .
94(5) . . .
89(5) . . .
105(6) . . .
96(5) . . .
99(5) . . .
105(5) . . .
98(5) . . .
81(5) . . .
77(5) . . .
111(6) . . .
97(5) . . .
84(5) . . .
88(5) . . .
93(5) . . .
113(6) . . .
100(5) . . .
104(5) . . .
83(5) . . .
85(5) . . .
76(5) . . .
97(5) . . .
87(5) . . .
89(5) . . .
104(6) . . .
93(5) . . .
85(5) . . .
83(5) . . .
84(5) . . .
87(5) . . .
97(5) . . .
81(5) . . .
87(5) . . .
92(5) . . .
101(5) . . .
83(5) . . .
90(5) . . .
106(5) . . .
95(5) . . .
97(5) . . .
98(5) . . .
92(5) . . .
89(5) . . .
98(6) . . .
101(6) . . .
86(5) . . .
103(5) . . .
94(5) . . .
87(5) . . .
89(5) . . .
103(5) . . .
88(5) . . .
93(5) . . .
104(6) . . .
96(5) . . .
84(5) . . .
84(5) . . .
96(5) . . .
83(5) . . .
96(5) . . .
90(5) . . .
81(5) . . .
80(5) . . .
82(5) . . .
110(6) . . .
98(5) . . .
104(5) . . .
95(5) . . .
87(5) . . .
103(5) . . .
101(5) . . .
85(5) . . .
80(5) . . .
91(5) . . .
89(5) . . .
93(5) . . .
105(5) . . .
89(5) . . .
96(6) . . .
98(5) . . .
96(5) . . .
101(5) . . .
105(6) . . .
96(6) . . .
99(5) . . .
93(5) . . .
105(5) . . .
82(5) . . .
97(6) . . .
101(5) . . .
100(5) . . .
85(5) . . .
87(5) . . .
86(5) . . .
97(5) . . .
101(5) . . .
97(5) . . .
86(5) . . .
87(5) . . .
89(5) . . .
87(5) . . .
97(5) . . .
86(5) . . .
92(5) . . .
105(5) . . .
89(5) . . .
97(5) . . .
89(6) . . .
78(5) . . .
81(5) . . .
93(5) . . .
93(5) . . .
87(5) . . .
86(5) . . .
82(5) . . .
88(5) . . .
91(5) . . .
85(5) . . .
94(5) . . .
86(5) . . .
91(5) . . .
98(5) . . .
85(5) . . .
79(5) . . .
91(5) . . .
104(5) . . .
100(5) . . .
72(5) . . .
93(5) . . .
100(5) . . .
94(5) . . .
88(5) . . .
94(5) . . .
92(5) . . .
92(5) . . .
90(5) . . .
98(5) . . .
97(5) . . .
89(5) . . .
82(5) . . .
94(5) . . .
92(5) . . .
86(5) . . .
84(5) . . .
78(5) . . .
87(5) . . .
90(5) . . .
90(5) . . .
88(5) . . .
86(5) . . .
97(5) . . .
97(5) . . .
89(5) . . .
90(5) . . .
106(5) . . .
93(5) . . .
80(5) . . .
89(5) . . .
93(5) . . .
95(5) . . .
91(5) . . .
82(5) . . .
86(5) . . .
103(5) . . .
102(5) . . .
92(5) . . .
84(5) . . .
84(5) . . .
76(5) . . .
94(5) . . .
105(6) . . .
90(5) . . .
93(5) . . .
101(5) . . .
93(5) . . .
95(5) . . .
80(5) . . .
92(5) . . .
101(5) . . .
90(5) . . .
85(5) . . .
98(5) . . .
98(5) . . .
93(5) . . .
88(5) . . .
87(5) . . .
89(5) . . .
81(5) . . .
81(5) . . .
92(5) . . .
85(5) . . .
80(5) . . .
76(5) . . .
103(5) . . .
91(5) . . .
91(5) . . .
89(5) . . .
100(5) . . .
86(5) . . .
89(5) . . .
86(5) . . .
90(5) . . .
85(5) . . .
90(5) . . .
77(5) . . .
91(5) . . .
98(5) . . .
100(5) . . .
94(5) . . .
88(5) . . .
82(5) . . .
85(5) . . .
88(5) . . .
83(5) . . .
90(5) . . .
84(5) . . .
91(5) . . .
90(5) . . .
85(5) . . .
93(5) . . .
82(5) . . .
81(5) . . .
87(5) . . .
91(5) . . .
74(5) . . .
99(6) . . .
96(5) . . .
88(5) . . .
95(5) . . .
89(5) . . .
99(6) . . .
88(5) . . .
76(5) . . .
86(5) . . .
93(5) . . .
87(5) . . .
92(5) . . .
86(5) . . .
81(5) . . .
88(5) . . .
78(5) . . .
106(5) . . .
86(5) . . .
92(5) . . .
107(6) . . .
74(4) . . .
90(5) . . .
83(5) . . .
93(5) . . .
92(5) . . .
81(5) . . .
89(5) . . .
86(5) . . .
100(5) . . .
94(5) . . .
88(5) . . .
89(5) . . .
87(5) . . .
87(5) . . .
87(5) . . .
88(5) . . .
92(5) . . .
83(5) . . .
89(5) . . .
90(5) . . .
84(5) . . .
87(5) . . .
88(5) . . .
96(5) . . .
73(5) . . .
81(5) . . .
91(5) . . .
104(5) . . .
91(5) . . .
88(5) . . .
89(5) . . .
99(5) . . .
94(5) . . .
80(5) . . .
89(5) . . .
90(5) . . .
73(4) . . .
92(5) . . .
101(6) . . .
80(5) . . .
99(5) . . .
98(5) . . .
88(5) . . .
84(5) . . .
73(5) . . .
99(5) . . .
88(5) . . .
79(5) . . .
77(5) . . .
105(6) . . .
85(5) . . .
104(5) . . .
79(5) . . .
96(5) . . .
90(5) . . .
103(5) . . .
91(5) . . .
92(5) . . .
88(5) . . .
83(5) . . .
87(5) . . .
97(5) . . .
90(5) . . .
88(5) . . .
96(5) . . .
88(5) . . .
76(4) . . .
79(5) . . .
90(5) . . .
91(5) . . .
89(5) . . .
87(5) . . .
90(5) . . .
89(5) . . .
82(5) . . .
89(5) . . .
103(5) . . .
95(5) . . .
78(5) . . .
84(5) . . .
100(5) . . .
84(5) . . .
100(6) . . .
87(5) . . .
102(6) . . .
86(5) . . .
103(5) . . .
100(5) . . .
99(6) . . .
97(5) . . .
93(5) . . .
83(5) . . .
78(5) . . .
97(5) . . .
89(5) . . .
105(5) . . .
95(5) . . .
87(5) . . .
89(5) . . .
77(5) . . .
93(5) . . .
95(5) . . .
92(5) . . .
91(5) . . .
99(5) . . .
91(5) . . .
90(5) . . .
83(5) . . .
87(5) . . .
92(5) . . .
99(5) . . .
90(5) . . .
94(5) . . .
92(5) . . .
90(5) . . .
86(5) . . .
80(5) . . .
98(6) . . .
94(5) . . .
98(5) . . .
83(5) . . .
89(5) . . .
80(5) . . .
88(5) . . .
82(5) . . .
71(4) . . .
91(5) . . .
87(5) . . .
74(5) . . .
98(5) . . .
98(5) . . .
94(5) . . .
90(5) . . .
90(5) . . .
89(5) . . .
86(5) . . .
102(6) . . .
96(5) . . .
79(5) . . .
85(5) . . .
97(5) . . .
89(5) . . .
83(5) . . .
94(5) . . .
89(5) . . .
87(5) . . .
92(6) . . .
85(5) . . .
78(5) . . .
83(5) . . .
85(5) . . .
91(5) . . .
88(5) . . .
97(5) . . .
68(4) . . .
76(5) . . .
82(5) . . .
80(5) . . .
91(5) . . .
89(5) . . .
94(5) . . .
89(5) . . .
80(5) . . .
80(5) . . .
83(5) . . .
91(5) . . .
95(5) . . .
86(5) . . .
85(5) . . .
82(5) . . .
102(5) . . .
91(5) . . .
98(5) . . .
85(5) . . .
86(5) . . .
88(5) . . .
92(6) . . .
91(5) . . .
87(5) . . .
83(5) . . .
91(5) . . .
98(5) . . .
88(5) . . .
85(5) . . .
82(5) . . .
75(5) . . .
89(5) . . .
84(5) . . .
90(5) . . .
85(5) . . .
88(5) . . .
84(5) . . .
86(5) . . .
93(5) . . .
70(4) . . .
79(5) . . .
72(5) . . .
91(5) . . .
81(5) . . .
86(5) . . .
81(5) . . .
87(5) . . .
76(4) . . .
81(5) . . .
74(5) . . .
100(6) . . .
87(5) . . .
83(5) . . .
100(5) . . .
87(5) . . .
82(5) . . .
82(5) . . .
91(5) . . .
86(5) . . .
90(5) . . .
82(5) . . .
86(5) . . .
85(5) . . .
83(5) . . .
96(5) . . .
89(5) . . .
78(5) . . .
81(5) . . .
93(5) . . .
91(5) . . .
86(5) . . .
87(5) . . .
84(5) . . .
81(5) . . .
94(5) . . .
92(5) . . .
92(5) . . .
68(4) . . .
81(5) . . .
82(5) . . .
88(5) . . .
82(5) . . .
88(5) . . .
81(5) . . .
91(5) . . .
96(6) . . .
82(5) . . .
97(5) . . .
86(5) . . .
93(5) . . .
92(5) . . .
89(5) . . .
85(5) . . .
88(5) . . .
99(6) . . .
82(5) . . .
90(5) . . .
82(5) . . .
93(5) . . .
87(5) . . .
92(5) . . .
79(5) . . .
85(5) . . .
81(5) . . .
93(5) . . .
85(5) . . .
86(5) . . .
83(5) . . .
86(5) . . .
86(5) . . .
80(5) . . .
86(5) . . .
88(5) . . .
84(5) . . .
86(5) . . .
85(5) . . .
89(5) . . .
100(5) . . .
81(5) . . .
86(5) . . .
101(5) . . .
86(5) . . .
88(5) . . .
77(5) . . .
82(5) . . .
93(5) . . .
103(5) . . .
106(5) . . .
83(5) . . .
81(5) . . .
83(5) . . .
86(5) . . .
78(5) . . .
85(5) . . .
85(5) . . .
90(5) . . .
87(5) . . .
78(5) . . .
85(5) . . .
83(5) . . .
73(5) . . .
91(5) . . .
89(5) . . .
75(5) . . .
82(5) . . .
86(5) . . .
95(5) . . .
95(5) . . .
74(4) . . .
84(5) . . .
80(5) . . .
81(5) . . .
76(5) . . .
79(5) . . .
93(5) . . .
82(5) . . .
79(5) . . .
89(5) . . .
86(5) . . .
99(5) . . .
96(5) . . .
81(5) . . .
82(5) . . .
86(5) . . .
90(5) . . .
91(5) . . .
81(5) . . .
91(5) . . .
79(5) . . .
82(5) . . .
93(5) . . .
83(5) . . .
84(5) . . .
87(5) . . .
83(5) . . .
89(5) . . .
89(5) . . .
86(5) . . .
93(5) . . .
80(5) . . .
95(5) . . .
90(5) . . .
83(5) . . .
88(5) . . .
97(5) . . .
93(5) . . .
78(5) . . .
84(5) . . .
79(5) . . .
89(5) . . .
75(4) . . .
84(5) . . .
91(5) . . .
67(4) . . .
79(5) . . .
79(5) . . .
93(5) . . .
85(5) . . .
79(5) . . .
90(5) . . .
84(5) . . .
82(5) . . .
84(5) . . .
89(5) . . .
88(5) . . .
92(5) . . .
94(5) . . .
79(5) . . .
97(5) . . .
97(5) . . .
81(5) . . .
87(5) . . .
81(5) . . .
99(5) . . .
79(5) . . .
86(5) . . .
88(5) . . .
85(5) . . .
85(5) . . .
97(5) . . .
84(5) . . .
90(5) . . .
76(5) . . .
80(5) . . .
78(5) . . .
86(5) . . .
87(5) . . .
88(5) . . .
84(5) . . .
65(4) . . .
82(5) . . .
96(5) . . .
93(5) . . .
91(5) . . .
90(5) . . .
97(5) . . .
86(5) . . .
80(5) . . .
73(5) . . .
84(5) . . .
82(5) . . .
77(5) . . .
93(5) . . .
90(5) . . .
87(5) . . .
92(5) . . .
86(5) . . .
89(5) . . .
92(5) . . .
87(5) . . .
93(5) . . .
85(5) . . .
79(5) . . .
75(5) . . .
82(5) . . .
94(5) . . .
76(5) . . .
97(5) . . .
80(5) . . .
68(4) . . .
76(5) . . .
89(5) . . .
98(5) . . .
83(5) . . .
79(5) . . .
85(5) . . .
85(5) . . .
78(5) . . .
75(5) . . .
85(5) . . .
82(5) . . .
80(5) . . .
85(5) . . .
92(5) . . .
80(5) . . .
89(5) . . .
97(6) . . .
99(5) . . .
93(5) . . .
80(5) . . .
84(5) . . .
75(5) . . .
94(5) . . .
80(5) . . .
80(5) . . .
84(5) . . .
94(5) . . .
90(5) . . .
87(5) . . .
94(5) . . .
95(5) . . .
89(5) . . .
80(5) . . .
77(5) . . .
96(5) . . .
90(5) . . .
90(5) . . .
83(5) . . .
87(5) . . .
77(5) . . .
86(5) . . .
82(5) . . .
100(5) . . .
74(5) . . .
86(5) . . .
80(5) . . .
79(5) . . .
88(5) . . .
77(5) . . .
74(5) . . .
80(5) . . .
93(5) . . .
75(5) . . .
77(5) . . .
92(5) . . .
89(5) . . .
96(5) . . .
94(5) . . .
84(5) . . .
87(5) . . .
76(5) . . .
79(5) . . .
80(5) . . .
80(5) . . .
89(5) . . .
87(5) . . .
78(5) . . .
73(4) . . .
77(5) . . .
89(5) . . .
83(5) . . .
83(5) . . .
76(5) . . .
87(5) . . .
83(5) . . .
78(5) . . .
84(5) . . .
85(5) . . .
85(5) . . .
92(5) . . .
85(5) . . .
81(5) . . .
85(5) . . .
89(5) . . .
83(5) . . .
86(5) . . .
78(5) . . .
82(5) . . .
82(5) . . .
78(5) . . .
88(5) . . .
90(5) . . .
78(5) . . .
82(5) . . .
79(5) . . .
83(5) . . .
92(5) . . .
93(5) . . .
86(5) . . .
88(5) . . .
75(4) . . .
78(5) . . .
76(5) . . .
80(5) . . .
95(5) . . .
99(5) . . .
88(5) . . .
92(5) . . .
82(5) . . .
93(5) . . .
82(5) . . .
87(5) . . .
80(5) . . .
72(4) . . .
91(5) . . .
84(5) . . .
83(5) . . .
91(5) . . .
79(5) . . .
92(6) . . .
78(5) . . .
84(5) . . .
84(5) . . .
80(5) . . .
89(5) . . .
86(5) . . .
99(5) . . .
104(5) . . .
103(5) . . .
80(5) . . .
85(5) . . .
83(5) . . .
93(5) . . .
84(5) . . .
87(5) . . .
76(5) . . .
81(5) . . .
79(5) . . .
83(5) . . .
83(5) . . .
86(5) . . .
84(5) . . .
90(5) . . .
86(5) . . .
72(4) . . .
75(5) . . .
95(5) . . .
81(5) . . .
93(5) . . .
77(5) . . .
85(5) . . .
84(5) . . .
78(5) . . .
77(5) . . .
83(5) . . .
97(5) . . .
86(5) . . .
75(5) . . .
95(6) . . .
88(5) . . .
77(5) . . .
78(5) . . .
77(5) . . .
88(5) . . .
98(5) . . .
93(5) . . .
83(5) . . .
76(5) . . .
89(5) . . .
71(4) . . .
80(5) . . .
84(5) . . .
90(5) . . .
85(5) . . .
83(5) . . .
82(5) . . .
78(5) . . .
89(5) . . .
86(5) . . .
95(6) . . .
85(5) . . .
93(5) . . .
78(5) . . .
81(5) . . .
75(5) . . .
80(5) . . .
81(5) . . .
89(5) . . .
73(5) . . .
83(5) . . .
86(5) . . .
86(5) . . .
100(6) . . .
89(5) . . .
92(5) . . .
89(5) . . .
84(5) . . .
71(5) . . .
78(5) . . .
85(5) . . .
83(5) . . .
90(5) . . .
86(5) . . .
88(5) . . .
81(5) . . .
85(5) . . .
75(5) . . .
93(6) . . .
88(5) . . .
85(5) . . .
85(5) . . .
89(5) . . .
75(5) . . .
68(4) . . .
69(4) . . .
69(4) . . .
80(5) . . .
86(5) . . .
86(5) . . .
86(5) . . .
86(5) . . .
77(5) . . .
77(5) . . .
86(5) . . .
85(5) . . .
96(5) . . .
80(5) . . .
88(5) . . .
88(5) . . .
83(5) . . .
87(5) . . .
82(5) . . .
86(5) . . .
74(5) . . .
92(5) . . .
80(5) . . .
78(5) . . .
87(5) . . .
90(5) . . .
86(5) . . .
88(5) . . .
95(6) . . .
73(5) . . .
81(5) . . .
72(4) . . .
78(5) . . .
74(5) . . .
84(5) . . .
75(4) . . .
77(5) . . .
85(5) . . .
81(5) . . .
80(5) . . .
81(5) . . .
77(5) . . .
80(5) . . .
88(5) . . .
87(5) . . .
78(5) . . .
73(4) . . .
89(5) . . .
90(5) . . .
81(5) . . .
83(5) . . .
78(5) . . .
86(5) . . .
75(5) . . .
91(5) . . .
79(5) . . .
95(5) . . .
77(5) . . .
66(4) . . .
73(5) . . .
75(5) . . .
76(5) . . .
74(5) . . .
79(5) . . .
90(5) . . .
77(5) . . .
77(5) . . .
90(5) . . .
100(6) . . .
87(5) . . .
80(5) . . .
85(5) . . .
92(5) . . .
81(5) . . .
76(5) . . .
73(4) . . .
70(4) . . .
79(5) . . .
85(5) . . .
85(5) . . .
90(5) . . .
92(5) . . .
79(5) . . .
80(5) . . .
81(5) . . .
82(5) . . .
77(5) . . .
86(5) . . .
84(5) . . .
82(5) . . .
83(5) . . .
69(4) . . .
87(5) . . .
92(5) . . .
94(5) . . .
91(5) . . .
77(5) . . .
77(5) . . .
94(5) . . .
73(4) . . .
88(5) . . .
73(4) . . .
87(5) . . .
78(5) . . .
76(5) . . .
81(5) . . .
74(5) . . .
80(5) . . .
81(5) . . .
87(5) . . .
92(5) . . .
79(5) . . .
82(5) . . .
77(5) . . .
84(5) . . .
86(5) . . .
81(5) . . .
88(5) . . .
77(5) . . .
86(5) . . .
95(5) . . .
87(5) . . .
75(5) . . .
88(5) . . .
79(5) . . .
86(5) . . .
78(5) . . .
78(5) . . .
64(4) . . .
77(5) . . .
84(5) . . .
92(5) . . .
89(5) . . .
88(5) . . .
80(5) . . .
77(5) . . .
82(5) . . .
70(4) . . .
86(5) . . .
78(5) . . .
85(5) . . .
82(5) . . .
75(5) . . .
76(5) . . .
71(4) . . .
87(5) . . .
75(5) . . .
84(5) . . .
86(5) . . .
79(5) . . .
84(5) . . .
83(5) . . .
70(4) . . .
83(5) . . .
75(4) . . .
82(5) . . .
80(5) . . .
91(5) . . .
84(5) . . .
89(5) . . .
73(4) . . .
69(4) . . .
80(5) . . .
76(4) . . .
80(5) . . .
83(5) . . .
77(5) . . .
84(5) . . .
87(5) . . .
70(4) . . .
84(5) . . .
86(5) . . .
79(5) . . .
74(4) . . .
80(5) . . .
79(5) . . .
82(5) . . .
87(5) . . .
79(5) . . .
73(4) . . .
88(5) . . .
70(4) . . .
71(4) . . .
64(4) . . .
74(5) . . .
82(5) . . .
75(5) . . .
82(5) . . .
103(5) . . .
81(5) . . .
83(5) . . .
81(5) . . .
78(5) . . .
76(5) . . .
70(4) . . .
82(5) . . .
88(5) . . .
78(5) . . .
76(5) . . .
83(5) . . .
81(5) . . .
91(5) . . .
83(5) . . .
85(5) . . .
79(5) . . .
83(5) . . .
73(5) . . .
60(4) . . .
73(4) . . .
84(5) . . .
80(5) . . .
66(4) . . .
83(5) . . .
90(5) . . .
76(5) . . .
78(5) . . .
77(5) . . .
87(5) . . .
90(5) . . .
79(5) . . .
72(5) . . .
82(5) . . .
87(5) . . .
74(5) . . .
80(5) . . .
72(5) . . .
72(5) . . .
83(5) . . .
76(5) . . .
79(5) . . .
92(5) . . .
83(5) . . .
84(5) . . .
91(5) . . .
79(5) . . .
84(5) . . .
83(5) . . .
77(5) . . .
80(5) . . .
74(5) . . .
77(5) . . .
76(5) . . .
93(5) . . .
79(5) . . .
77(5) . . .
81(5) . . .
81(5) . . .
75(4) . . .
70(5) . . .
81(5) . . .
71(5) . . .
67(4) . . .
83(5) . . .
67(4) . . .
68(5) . . .
73(5) . . .
88(5) . . .
89(5) . . .
74(4) . . .
80(5) . . .
82(5) . . .
90(5) . . .
79(5) . . .
84(5) . . .
87(5) . . .
75(5) . . .
75(5) . . .
67(4) . . .
72(5) . . .
91(5) . . .
84(5) . . .
79(5) . . .
93(5) . . .
71(4) . . .
74(5) . . .
66(4) . . .
73(4) . . .
81(5) . . .
70(4) . . .
70(5) . . .
76(5) . . .
86(5) . . .
85(5) . . .
77(5) . . .
85(5) . . .
75(5) . . .
78(5) . . .
73(5) . . .
67(4) . . .
70(5) . . .
82(5) . . .
73(5) . . .
78(5) . . .
83(5) . . .
71(5) . . .
68(4) . . .
76(5) . . .
90(5) . . .
83(5) . . .
76(5) . . .
98(5) . . .
82(5) . . .
72(4) . . .
86(5) . . .
81(5) . . .
90(5) . . .
74(5) . . .
79(5) . . .
72(5) . . .
69(4) . . .
81(5) . . .
82(5) . . .
83(5) . . .
79(5) . . .
83(5) . . .
90(5) . . .
78(5) . . .
75(5) . . .
82(5) . . .
77(5) . . .
87(5) . . .
83(5) . . .
88(5) . . .
77(5) . . .
96(5) . . .
78(5) . . .
79(5) . . .
78(5) . . .
76(5) . . .
80(5) . . .
75(4) . . .
77(5) . . .
84(5) . . .
69(4) . . .
71(4) . . .
81(5) . . .
76(5) . . .
66(4) . . .
66(4) . . .
76(5) . . .
74(4) . . .
89(5) . . .
87(5) . . .
78(5) . . .
81(5) . . .
85(5) . . .
96(6) . . .
91(5) . . .
73(4) . . .
80(5) . . .
70(4) . . .
79(5) . . .
94(6) . . .
92(5) . . .
84(5) . . .
77(5) . . .
78(5) . . .
75(5) . . .
85(5) . . .
84(5) . . .
76(5) . . .
86(5) . . .
68(4) . . .
82(5) . . .
84(5) . . .
83(5) . . .
86(5) . . .
91(5) . . .
89(5) . . .
76(5) . . .
84(5) . . .
77(5) . . .
77(5) . . .
74(5) . . .
75(4) . . .
72(5) . . .
80(5) . . .
74(5) . . .
60(4) . . .
89(5) . . .
82(5) . . .
79(5) . . .
85(5) . . .
86(5) . . .
86(5) . . .
74(5) . . .
74(5) . . .
76(5) . . .
73(4) . . .
79(5) . . .
79(5) . . .
77(5) . . .
73(4) . . .
84(5) . . .
80(5) . . .
79(5) . . .
83(5) . . .
80(5) . . .
90(5) . . .
72(4) . . .
82(5) . . .
76(5) . . .
77(5) . . .
80(5) . . .
75(4) . . .
73(5) . . .
72(5) . . .
60(4) . . .
83(5) . . .
66(4) . . .
81(5) . . .
89(5) . . .
82(5) . . .
84(5) . . .
78(5) . . .
76(5) . . .
92(5) . . .
86(5) . . .
89(5) . . .
83(5) . . .
73(5) . . .
74(5) . . .
78(5) . . .
71(4) . . .
83(5) . . .
72(5) . . .
64(4) . . .
72(5) . . .
90(5) . . .
72(4) . . .
87(5) . . .
70(4) . . .
83(5) . . .
87(5) . . .
82(5) . . .
90(5) . . .
80(5) . . .
73(4) . . .
83(5) . . .
78(5) . . .
77(5) . . .
91(5) . . .
80(5) . . .
90(5) . . .
78(5) . . .
87(5) . . .
82(5) . . .
87(5) . . .
74(5) . . .
74(5) . . .
85(5) . . .
91(5) . . .
86(5) . . .
85(5) . . .
74(5) . . .
72(5) . . .
73(5) . . .
79(5) . . .
84(5) . . .
75(5) . . .
83(5) . . .
79(5) . . .
89(5) . . .
72(4) . . .
77(5) . . .
85(5) . . .
84(5) . . .
79(5) . . .
86(5) . . .
81(5) . . .
68(5) . . .
79(5) . . .
67(4) . . .
86(5) . . .
84(5) . . .
87(5) . . .
91(5) . . .
72(4) . . .
86(5) . . .
88(5) . . .
90(5) . . .
73(4) . . .
73(4) . . .
86(5) . . .
73(4) . . .
88(5) . . .
92(5) . . .
77(5) . . .
87(5) . . .
92(5) . . .
73(4) . . .
77(5) . . .
71(4) . . .
75(5) . . .
67(5) . . .
77(5) . . .
73(4) . . .
62(4) . . .
70(5) . . .
55(4) . . .
74(5) . . .
78(5) . . .
75(5) . . .
68(4) . . .
76(5) . . .
79(5) . . .
78(5) . . .
87(5) . . .
88(5) . . .
72(5) . . .
76(5) . . .
86(5) . . .
72(4) . . .
69(4) . . .
80(5) . . .
80(5) . . .
79(5) . . .
78(5) . . .
68(4) . . .
82(5) . . .
83(5) . . .
75(4) . . .
82(5) . . .
87(5) . . .
76(5) . . .
86(5) . . .
82(5) . . .
77(5) . . .
70(5) . . .
81(5) . . .
67(4) . . .
79(5) . . .
81(5) . . .
63(4) . . .
74(5) . . .
70(4) . . .
88(5) . . .
85(5) . . .
67(4) . . .
68(4) . . .
83(5) . . .
76(5) . . .
76(5) . . .
81(5) . . .
82(5) . . .
76(5) . . .
82(5) . . .
70(5) . . .
75(5) . . .
84(5) . . .
72(4) . . .
74(5) . . .
88(5) . . .
78(5) . . .
76(5) . . .
75(4) . . .
76(5) . . .
67(4) . . .
80(5) . . .
74(5) . . .
77(5) . . .
84(5) . . .
73(4) . . .
87(5) . . .
93(5) . . .
78(5) . . .
64(4) . . .
79(5) . . .
86(5) . . .
81(5) . . .
75(4) . . .
66(4) . . .
81(5) . . .
73(4) . . .
80(5) . . .
69(4) . . .
75(5) . . .
81(5) . . .
80(5) . . .
79(5) . . .
84(5) . . .
80(5) . . .
86(5) . . .
77(5) . . .
77(5) . . .
70(4) . . .
66(4) . . .
71(5) . . .
84(5) . . .
84(5) . . .
71(4) . . .
82(5) . . .
71(4) . . .
84(5) . . .
87(5) . . .
84(5) . . .
78(5) . . .
77(5) . . .
78(5) . . .
63(4) . . .
79(5) . . .
67(4) . . .
72(5) . . .
72(4) . . .
76(5) . . .
71(4) . . .
71(5) . . .
79(5) . . .
86(5) . . .
74(5) . . .
100(5) . . .
80(5) . . .
73(5) . . .
78(5) . . .
83(5) . . .
79(5) . . .
81(5) . . .
76(5) . . .
69(5) . . .
73(4) . . .
77(5) . . .
81(5) . . .
76(5) . . .
73(5) . . .
68(4) . . .
77(5) . . .
80(5) . . .
73(5) . . .
79(5) . . .
81(5) . . .
79(5) . . .
73(5) . . .
78(5) . . .
79(5) . . .
82(5) . . .
80(5) . . .
77(5) . . .
79(5) . . .
81(5) . . .
70(4) . . .
71(4) . . .
79(5) . . .
77(5) . . .
78(5) . . .
81(5) . . .
67(4) . . .
80(5) . . .
66(4) . . .
83(5) . . .
53(4) . . .
90(5) . . .
79(5) . . .
70(4) . . .
77(5) . . .
82(5) . . .
78(5) . . .
86(5) . . .
78(5) . . .
85(5) . . .
71(4) . . .
71(5) . . .
80(5) . . .
78(5) . . .
71(4) . . .
63(4) . . .
84(5) . . .
68(4) . . .
73(5) . . .
87(5) . . .
73(4) . . .
71(5) . . .
68(4) . . .
78(5) . . .
77(5) . . .
72(5) . . .
72(5) . . .
75(5) . . .
71(4) . . .
71(4) . . .
83(5) . . .
75(5) . . .
78(5) . . .
81(5) . . .
84(5) . . .
76(5) . . .
79(5) . . .
84(5) . . .
76(5) . . .
74(5) . . .
69(4) . . .
78(5) . . .
75(5) . . .
80(5) . . .
80(5) . . .
84(5) . . .
85(5) . . .
76(5) . . .
87(5) . . .
87(5) . . .
84(5) . . .
75(5) . . .
79(5) . . .
73(4) . . .
73(4) . . .
78(5) . . .
67(4) . . .
77(5) . . .
84(5) . . .
85(5) . . .
81(5) . . .
78(5) . . .
80(5) . . .
71(4) . . .
87(5) . . .
80(5) . . .
81(5) . . .
78(5) . . .
82(5) . . .
77(5) . . .
82(5) . . .
69(5) . . .
69(4) . . .
80(5) . . .
80(5) . . .
81(5) . . .
77(5) . . .
77(5) . . .
91(5) . . .
76(5) . . .
79(5) . . .
77(5) . . .
78(5) . . .
90(5) . . .
85(5) . . .
87(5) . . .
82(5) . . .
84(5) . . .
66(4) . . .
81(5) . . .
71(4) . . .
76(5) . . .
74(4) . . .
80(5) . . .
79(5) . . .
75(5) . . .
91(5) . . .
68(4) . . .
66(4) . . .
65(4) . . .
78(5) . . .
70(4) . . .
70(4) . . .
74(4) . . .
84(5) . . .
83(5) . . .
71(4) . . .
81(5) . . .
85(5) . . .
67(4) . . .
76(5) . . .
87(5) . . .
80(5) . . .
76(5) . . .
76(5) . . .
72(5) . . .
90(5) . . .
68(4) . . .
92(5) . . .
82(5) . . .
78(5) . . .
75(5) . . .
69(4) . . .
83(5) . . .
75(5) . . .
66(4) . . .
80(5) . . .
89(5) . . .
72(5) . . .
80(5) . . .
74(5) . . .
69(4) . . .
77(5) . . .
72(5) . . .
79(5) . . .
87(5) . . .
75(5) . . .
93(5) . . .
78(5) . . .
74(5) . . .
75(5) . . .
75(5) . . .
69(4) . . .
83(5) . . .
80(5) . . .
75(5) . . .
66(4) . . .
66(4) . . .
88(5) . . .
73(5) . . .
77(5) . . .
74(4) . . .
77(5) . . .
88(5) . . .
82(5) . . .
66(4) . . .
79(5) . . .
77(5) . . .
84(5) . . .
83(5) . . .
65(4) . . .
76(5) . . .
79(5) . . .
68(4) . . .
78(5) . . .
82(5) . . .
82(5) . . .
79(5) . . .
80(5) . . .
76(5) . . .
80(5) . . .
79(5) . . .
72(4) . . .
65(4) . . .
67(4) . . .
83(5) . . .
79(5) . . .
80(5) . . .
85(5) . . .
80(5) . . .
79(5) . . .
68(4) . . .
69(4) . . .
67(4) . . .
83(5) . . .
78(5) . . .
86(5) . . .
84(5) . . .
73(5) . . .
78(5) . . .
78(5) . . .
83(5) . . .
77(5) . . .
86(5) . . .
75(5) . . .
77(5) . . .
75(5) . . .
80(5) . . .
70(4) . . .
82(5) . . .
83(5) . . .
73(4) . . .
76(5) . . .
74(5) . . .
79(5) . . .
57(4) . . .
90(5) . . .
72(5) . . .
79(5) . . .
75(5) . . .
81(5) . . .
84(5) . . .
71(4) . . .
73(5) . . .
74(5) . . .
80(5) . . .
79(5) . . .
70(4) . . .
96(5) . . .
93(5) . . .
75(4) . . .
74(5) . . .
79(5) . . .
73(5) . . .
77(5) . . .
85(5) . . .
87(5) . . .
77(5) . . .
68(4) . . .
73(5) . . .
80(5) . . .
75(5) . . .
69(4) . . .
77(5) . . .
72(4) . . .
87(5) . . .
70(4) . . .
75(5) . . .
83(5) . . .
82(5) . . .
69(4) . . .
70(5) . . .
70(5) . . .
66(4) . . .
72(4) . . .
73(4) . . .
85(5) . . .
76(5) . . .
79(5) . . .
58(4) . . .
64(4) . . .
75(5) . . .
82(5) . . .
66(4) . . .
68(4) . . .
80(5) . . .
84(5) . . .
81(5) . . .
63(4) . . .
74(5) . . .
73(4) . . .
75(5) . . .
83(5) . . .
79(5) . . .
82(5) . . .
66(4) . . .
82(5) . . .
85(5) . . .
85(5) . . .
82(5) . . .
78(5) . . .
79(5) . . .
75(5) . . .
79(5) . . .
71(4) . . .
64(4) . . .
73(5) . . .
73(5) . . .
70(5) . . .
81(5) . . .
72(5) . . .
76(5) . . .
75(5) . . .
70(4) . . .
73(4) . . .
72(5) . . .
72(5) . . .
78(5) . . .
80(5) . . .
82(5) . . .
76(5) . . .
84(5) . . .
77(5) . . .
74(5) . . .
78(5) . . .
91(5) . . .
74(5) . . .
84(5) . . .
76(5) . . .
80(5) . . .
86(5) . . .
78(5) . . .
65(4) . . .
79(5) . . .
76(5) . . .
83(5) . . .
86(5) . . .
90(5) . . .
64(4) . . .
76(5) . . .
77(5) . . .
75(5) . . .
87(5) . . .
83(5) . . .
82(5) . . .
78(5) . . .
86(5) . . .
82(5) . . .
76(5) . . .
75(4) . . .
89(5) . . .
68(4) . . .
78(5) . . .
75(5) . . .
79(5) . . .
81(5) . . .
66(4) . . .
75(5) . . .
81(5) . . .
72(4) . . .
72(5) . . .
66(4) . . .
76(5) . . .
80(5) . . .
86(5) . . .
72(4) . . .
75(5) . . .
81(5) . . .
69(4) . . .
71(5) . . .
75(5) . . .
64(4) . . .
69(5) . . .
63(4) . . .
75(5) . . .
79(5) . . .
76(5) . . .
84(5) . . .
74(5) . . .
72(5) . . .
71(5) . . .
76(5) . . .
63(4) . . .
67(4) . . .
79(5) . . .
83(5) . . .
73(5) . . .
77(5) . . .
72(4) . . .
82(5) . . .
88(5) . . .
76(5) . . .
83(5) . . .
69(4) . . .
72(5) . . .
70(5) . . .
77(5) . . .
76(5) . . .
65(4) . . .
66(4) . . .
68(4) . . .
80(5) . . .
66(4) . . .
84(5) . . .
79(5) . . .
89(5) . . .
83(5) . . .
71(4) . . .
80(5) . . .
63(4) . . .
80(5) . . .
87(5) . . .
91(5) . . .
75(5) . . .
68(4) . . .
84(5) . . .
67(4) . . .
76(5) . . .
69(4) . . .
66(5) . . .
78(5) . . .
68(4) . . .
65(4) . . .
71(5) . . .
77(5) . . .
81(5) . . .
84(5) . . .
71(4) . . .
78(5) . . .
83(5) . . .
67(4) . . .
74(4) . . .
55(4) . . .
76(5) . . .
65(5) . . .
70(5) . . .
65(4) . . .
68(4) . . .
63(4) . . .
71(5) . . .
76(5) . . .
82(5) . . .
74(4) . . .
79(5) . . .
77(5) . . .
81(5) . . .
67(4) . . .
67(4) . . .
72(5) . . .
68(4) . . .
78(5) . . .
80(5) . . .
68(4) . . .
80(5) . . .
84(5) . . .
81(5) . . .
83(5) . . .
71(4) . . .
61(4) . . .
76(5) . . .
78(5) . . .
64(4) . . .
82(5) . . .
67(4) . . .
71(5) . . .
72(5) . . .
70(4) . . .
74(5) . . .
75(5) . . .
81(5) . . .
71(4) . . .
69(4) . . .
60(4) . . .
78(5) . . .
75(5) . . .
82(5) . . .
75(4) . . .
69(4) . . .
75(5) . . .
79(5) . . .
82(5) . . .
79(5) . . .
77(5) . . .
76(5) . . .
66(4) . . .
76(5) . . .
81(5) . . .
75(5) . . .
75(5) . . .
73(5) . . .
71(4) . . .
70(4) . . .
72(5) . . .
67(4) . . .
84(5) . . .
79(5) . . .
77(5) . . .
72(5) . . .
64(4) . . .
65(4) . . .
72(4) . . .
81(5) . . .
69(4) . . .
71(5) . . .
77(5) . . .
63(4) . . .
61(4) . . .
77(5) . . .
85(5) . . .
82(5) . . .
81(5) . . .
77(5) . . .
74(5) . . .
69(5) . . .
83(5) . . .
79(5) . . .
94(5) . . .
76(5) . . .
61(4) . . .
62(4) . . .
56(4) . . .
75(5) . . .
71(5) . . .
71(5) . . .
78(5) . . .
70(4) . . .
80(5) . . .
81(5) . . .
87(5) . . .
67(4) . . .
88(5) . . .
62(4) . . .
72(5) . . .
67(4) . . .
75(5) . . .
79(5) . . .
76(5) . . .
70(5) . . .
69(4) . . .
70(4) . . .
68(4) . . .
72(5) . . .
82(5) . . .
68(5) . . .
72(4) . . .
83(5) . . .
65(4) . . .
70(5) . . .
67(4) . . .
85(5) . . .
89(5) . . .
73(4) . . .
81(5) . . .
90(6) . . .
75(5) . . .
78(5) . . .
70(4) . . .
70(4) . . .
84(5) . . .
61(4) . . .
72(5) . . .
67(5) . . .
65(4) . . .
77(5) . . .
74(4) . . .
85(5) . . .
76(5) . . .
75(5) . . .
88(5) . . .
66(4) . . .
64(4) . . .
73(5) . . .
66(4) . . .
73(4) . . .
81(5) . . .
70(4) . . .
88(5) . . .
76(5) . . .
87(5) . . .
73(4) . . .
73(4) . . .
71(5) . . .
67(4) . . .
68(4) . . .
80(5) . . .
69(5) . . .
65(4) . . .
76(5) . . .
73(4) . . .
71(4) . . .
73(5) . . .
64(4) . . .
75(5) . . .
60(4) . . .
64(4) . . .
71(5) . . .
73(5) . . .
61(4) . . .
72(4) . . .
78(5) . . .
72(5) . . .
56(4) . . .
75(5) . . .
71(4) . . .
76(5) . . .
82(5) . . .
78(5) . . .
60(4) . . .
62(4) . . .
68(4) . . .
81(5) . . .
87(5) . . .
73(5) . . .
71(4) . . .
77(5) . . .
82(5) . . .
61(4) . . .
72(5) . . .
74(4) . . .
80(5) . . .
78(5) . . .
71(5) . . .
66(4) . . .
56(4) . . .
74(5) . . .
77(5) . . .
75(5) . . .
65(4) . . .
72(4) . . .
75(5) . . .
76(5) . . .
72(4) . . .
68(4) . . .
75(4) . . .
76(5) . . .
76(5) . . .
64(4) . . .
77(5) . . .
80(5) . . .
68(4) . . .
72(5) . . .
73(5) . . .
64(4) . . .
66(4) . . .
77(5) . . .
73(5) . . .
89(5) . . .
69(4) . . .
78(5) . . .
73(4) . . .
78(5) . . .
64(4) . . .
71(4) . . .
74(5) . . .
71(5) . . .
79(5) . . .
78(5) . . .
61(4) . . .
62(4) . . .
77(5) . . .
71(4) . . .
73(4) . . .
76(5) . . .
85(5) . . .
85(5) . . .
76(5) . . .
63(4) . . .
77(5) . . .
75(5) . . .
69(5) . . .
58(4) . . .
58(4) . . .
76(5) . . .
77(5) . . .
78(5) . . .
68(4) . . .
72(4) . . .
70(4) . . .
65(4) . . .
59(4) . . .
77(5) . . .
69(5) . . .
78(5) . . .
69(4) . . .
75(5) . . .
84(5) . . .
75(4) . . .
75(4) . . .
73(5) . . .
74(5) . . .
79(5) . . .
74(5) . . .
68(4) . . .
69(5) . . .
74(5) . . .
73(5) . . .
73(4) . . .
67(4) . . .
69(4) . . .
68(5) . . .
60(4) . . .
73(4) . . .
72(4) . . .
64(4) . . .
71(5) . . .
81(5) . . .
72(4) . . .
56(4) . . .
76(5) . . .
76(5) . . .
82(5) . . .
71(4) . . .
77(5) . . .
58(4) . . .
79(5) . . .
83(5) . . .
77(5) . . .
77(5) . . .
55(4) . . .
67(4) . . .
75(4) . . .
66(4) . . .
67(4) . . .
73(5) . . .
85(5) . . .
76(5) . . .
78(5) . . .
95(5) . . .
79(5) . . .
80(5) . . .
73(4) . . .
71(4) . . .
75(5) . . .
67(4) . . .
74(5) . . .
80(5) . . .
69(4) . . .
71(5) . . .
80(5) . . .
90(5) . . .
64(4) . . .
77(5) . . .
73(4) . . .
75(5) . . .
68(5) . . .
67(4) . . .
70(4) . . .
61(4) . . .
73(5) . . .
65(4) . . .
79(5) . . .
65(4) . . .
79(5) . . .
69(4) . . .
76(5) . . .
75(5) . . .
62(4) . . .
74(5) . . .
68(4) . . .
66(4) . . .
75(5) . . .
60(4) . . .
73(5) . . .
76(5) . . .
62(4) . . .
82(5) . . .
68(4) . . .
84(5) . . .
72(4) . . .
75(5) . . .
81(5) . . .
68(4) . . .
71(5) . . .
79(5) . . .
79(5) . . .
80(5) . . .
69(5) . . .
77(5) . . .
74(5) . . .
69(5) . . .
76(5) . . .
67(4) . . .
65(4) . . .
71(5) . . .
80(5) . . .
62(4) . . .
70(4) . . .
72(5) . . .
75(5) . . .
71(4) . . .
77(5) . . .
72(4) . . .
74(5) . . .
73(5) . . .
67(4) . . .
64(4) . . .
69(5) . . .
70(5) . . .
72(4) . . .
89(5) . . .
72(4) . . .
70(4) . . .
65(4) . . .
76(5) . . .
77(5) . . .
71(4) . . .
84(5) . . .
71(5) . . .
72(4) . . .
69(4) . . .
65(4) . . .
65(4) . . .
79(5) . . .
77(5) . . .
67(4) . . .
77(5) . . .
77(5) . . .
83(5) . . .
71(4) . . .
65(4) . . .
77(5) . . .
72(5) . . .
71(5) . . .
76(5) . . .
86(5) . . .
75(5) . . .
77(5) . . .
68(4) . . .
77(5) . . .
71(4) . . .
61(4) . . .
61(4) . . .
70(5) . . .
73(4) . . .
72(4) . . .
63(4) . . .
73(5) . . .
73(5) . . .
67(4) . . .
71(4) . . .
74(5) . . .
55(4) . . .
63(4) . . .
73(4) . . .
70(4) . . .
71(5) . . .
75(5) . . .
77(5) . . .
64(4) . . .
74(5) . . .
74(5) . . .
77(5) . . .
69(4) . . .
75(4) . . .
70(4) . . .
71(5) . . .
73(5) . . .
70(4) . . .
64(4) . . .
75(5) . . .
61(4) . . .
62(4) . . .
66(4) . . .
67(4) . . .
68(5) . . .
73(5) . . .
68(4) . . .
74(5) . . .
78(5) . . .
71(5) . . .
71(5) . . .
78(5) . . .
69(4) . . .
74(4) . . .
87(5) . . .
70(5) . . .
56(4) . . .
64(4) . . .
64(4) . . .
74(5) . . .
74(5) . . .
86(5) . . .
67(4) . . .
79(5) . . .
63(4) . . .
75(5) . . .
82(5) . . .
75(5) . . .
68(4) . . .
64(4) . . .
74(5) . . .
72(4) . . .
73(4) . . .
75(5) . . .
72(4) . . .
77(5) . . .
71(4) . . .
66(4) . . .
61(4) . . .
59(4) . . .
73(5) . . .
53(4) . . .
64(4) . . .
74(5) . . .
70(5) . . .
68(4) . . .
70(5) . . .
74(5) . . .
68(4) . . .
66(4) . . .
84(5) . . .
68(4) . . .
76(4) . . .
73(5) . . .
70(5) . . .
69(4) . . .
82(5) . . .
76(4) . . .
77(5) . . .
73(5) . . .
67(4) . . .
79(5) . . .
70(4) . . .
73(5) . . .
73(5) . . .
68(5) . . .
63(4) . . .
68(4) . . .
74(5) . . .
75(5) . . .
72(4) . . .
71(4) . . .
71(4) . . .
71(4) . . .
67(5) . . .
64(4) . . .
79(5) . . .
65(4) . . .
60(4) . . .
70(5) . . .
76(5) . . .
69(4) . . .
68(4) . . .
68(5) . . .
73(5) . . .
77(5) . . .
80(5) . . .
67(4) . . .
77(5) . . .
83(5) . . .
62(4) . . .
70(4) . . .
71(4) . . .
74(5) . . .
69(5) . . .
71(5) . . .
69(4) . . .
71(4) . . .
84(5) . . .
84(5) . . .
72(4) . . .
67(4) . . .
58(4) . . .
68(5) . . .
51(4) . . .
68(4) . . .
76(5) . . .
77(5) . . .
69(4) . . .
85(5) . . .
81(5) . . .
76(5) . . .
76(5) . . .
85(5) . . .
64(4) . . .
76(5) . . .
61(4) . . .
75(5) . . .
63(4) . . .
65(4) . . .
62(4) . . .
70(4) . . .
69(5) . . .
62(4) . . .
69(5) . . .
61(4) . . .
84(5) . . .
69(4) . . .
68(5) . . .
70(4) . . .
78(5) . . .
76(5) . . .
74(4) . . .
74(5) . . .
73(5) . . .
58(4) . . .
70(4) . . .
60(4) . . .
61(4) . . .
67(4) . . .
74(4) . . .
81(5) . . .
83(5) . . .
63(4) . . .
73(5) . . .
57(4) . . .
70(4) . . .
74(5) . . .
67(4) . . .
72(5) . . .
76(5) . . .
77(5) . . .
68(4) . . .
68(5) . . .
66(4) . . .
83(5) . . .
69(5) . . .
65(4) . . .
71(5) . . .
63(4) . . .
70(4) . . .
70(5) . . .
66(4) . . .
66(4) . . .
67(4) . . .
62(4) . . .
67(5) . . .
78(5) . . .
77(5) . . .
65(4) . . .
64(4) . . .
70(4) . . .
65(4) . . .
68(4) . . .
72(4) . . .
73(5) . . .
66(4) . . .
60(4) . . .
76(5) . . .
84(5) . . .
66(4) . . .
75(5) . . .
65(4) . . .
66(4) . . .
66(4) . . .
67(4) . . .
66(4) . . .
71(5) . . .
58(4) . . .
69(4) . . .
62(4) . . .
67(5) . . .
67(4) . . .
69(4) . . .
73(4) . . .
71(4) . . .
83(5) . . .
81(5) . . .
80(5) . . .
66(4) . . .
67(4) . . .
76(5) . . .
78(5) . . .
81(5) . . .
71(4) . . .
70(4) . . .
71(4) . . .
66(4) . . .
69(4) . . .
82(5) . . .
75(5) . . .
65(4) . . .
70(4) . . .
65(4) . . .
67(4) . . .
64(4) . . .
62(4) . . .
61(4) . . .
66(4) . . .
76(5) . . .
70(5) . . .
70(5) . . .
67(5) . . .
67(4) . . .
63(4) . . .
68(4) . . .
75(5) . . .
70(4) . . .
71(4) . . .
70(4) . . .
60(4) . . .
70(5) . . .
70(5) . . .
71(4) . . .
74(5) . . .
69(4) . . .
51(4) . . .
64(4) . . .
65(4) . . .
61(4) . . .
81(5) . . .
64(4) . . .
66(4) . . .
56(4) . . .
69(4) . . .
69(5) . . .
71(5) . . .
72(4) . . .
64(4) . . .
66(4) . . .
78(5) . . .
62(4) . . .
71(4) . . .
81(5) . . .
72(5) . . .
71(4) . . .
71(5) . . .
71(5) . . .
66(4) . . .
75(5) . . .
67(4) . . .
82(5) . . .
62(4) . . .
71(4) . . .
75(5) . . .
82(5) . . .
83(5) . . .
65(4) . . .
73(4) . . .
62(4) . . .
68(5) . . .
75(5) . . .
70(4) . . .
69(4) . . .
70(4) . . .
63(4) . . .
67(4) . . .
73(4) . . .
67(4) . . .
63(4) . . .
61(4) . . .
64(4) . . .
64(4) . . .
73(4) . . .
68(4) . . .
60(4) . . .
75(5) . . .
67(4) . . .
75(5) . . .
66(4) . . .
72(5) . . .
60(4) . . .
63(4) . . .
78(5) . . .
72(5) . . .
58(4) . . .
70(5) . . .
68(4) . . .
67(4) . . .
75(5) . . .
68(4) . . .
71(4) . . .
69(4) . . .
64(4) . . .
63(4) . . .
64(4) . . .
66(4) . . .
79(5) . . .
64(4) . . .
66(4) . . .
69(5) . . .
70(4) . . .
68(4) . . .
74(5) . . .
72(5) . . .
70(5) . . .
76(5) . . .
51(4) . . .
66(5) . . .
77(5) . . .
74(4) . . .
68(4) . . .
69(4) . . .
55(4) . . .
65(4) . . .
75(5) . . .
81(5) . . .
70(4) . . .
73(5) . . .
77(5) . . .
71(5) . . .
71(4) . . .
76(4) . . .
65(4) . . .
73(5) . . .
71(5) . . .
63(4) . . .
72(4) . . .
77(5) . . .
78(5) . . .
67(4) . . .
66(4) . . .
66(4) . . .
60(4) . . .
74(5) . . .
74(5) . . .
75(5) . . .
76(5) . . .
70(4) . . .
73(5) . . .
69(4) . . .
72(4) . . .
71(4) . . .
57(4) . . .
65(4) . . .
74(5) . . .
65(4) . . .
72(5) . . .
68(4) . . .
71(5) . . .
76(5) . . .
77(4) . . .
63(4) . . .
66(4) . . .
77(5) . . .
71(5) . . .
68(4) . . .
60(4) . . .
69(5) . . .
66(4) . . .
72(5) . . .
70(4) . . .
70(5) . . .
54(4) . . .
67(4) . . .
55(4) . . .
65(4) . . .
61(4) . . .
66(5) . . .
58(4) . . .
62(4) . . .
74(4) . . .
71(4) . . .
70(5) . . .
69(4) . . .
71(4) . . .
74(5) . . .
71(4) . . .
81(5) . . .
72(5) . . .
61(4) . . .
71(4) . . .
72(4) . . .
67(4) . . .
60(4) . . .
67(4) . . .
70(4) . . .
56(4) . . .
66(4) . . .
73(5) . . .
66(4) . . .
84(5) . . .
72(5) . . .
78(5) . . .
57(4) . . .
76(5) . . .
57(4) . . .
61(4) . . .
71(5) . . .
67(4) . . .
62(4) . . .
66(5) . . .
70(5) . . .
65(4) . . .
69(4) . . .
72(4) . . .
64(4) . . .
55(4) . . .
64(4) . . .
68(4) . . .
71(4) . . .
74(5) . . .
63(4) . . .
62(4) . . .
69(4) . . .
77(5) . . .
68(4) . . .
68(4) . . .
60(4) . . .
67(4) . . .
59(4) . . .
72(5) . . .
68(5) . . .
69(4) . . .
69(4) . . .
72(4) . . .
70(4) . . .
76(5) . . .
61(4) . . .
69(4) . . .
67(4) . . .
72(5) . . .
66(5) . . .
65(4) . . .
70(4) . . .
59(4) . . .
63(4) . . .
59(4) . . .
64(4) . . .
66(4) . . .
80(5) . . .
72(4) . . .
65(4) . . .
74(5) . . .
67(4) . . .
67(4) . . .
71(5) . . .
79(5) . . .
68(4) . . .
70(4) . . .
82(5) . . .
67(4) . . .
70(5) . . .
62(4) . . .
68(4) . . .
74(5) . . .
70(5) . . .
64(4) . . .
70(4) . . .
61(4) . . .
73(5) . . .
85(5) . . .
63(4) . . .
65(4) . . .
69(4) . . .
76(5) . . .
68(5) . . .
63(4) . . .
65(4) . . .
67(4) . . .
63(4) . . .
58(4) . . .
64(4) . . .
69(4) . . .
73(4) . . .
68(4) . . .
70(5) . . .
63(4) . . .
66(4) . . .
66(4) . . .
65(4) . . .
69(4) . . .
65(4) . . .
64(4) . . .
72(4) . . .
60(4) . . .
78(5) . . .
62(4) . . .
67(4) . . .
68(4) . . .
77(5) . . .
76(5) . . .
64(4) . . .
64(4) . . .
73(4) . . .
62(4) . . .
75(5) . . .
68(4) . . .
75(5) . . .
67(4) . . .
49(4) . . .
65(5) . . .
78(5) . . .
81(5) . . .
64(4) . . .
74(5) . . .
67(4) . . .
67(4) . . .
70(4) . . .
68(5) . . .
75(5) . . .
71(5) . . .
62(4) . . .
71(4) . . .
66(4) . . .
65(4) . . .
81(5) . . .
66(4) . . .
72(4) . . .
64(4) . . .
74(5) . . .
67(4) . . .
66(4) . . .
77(4) . . .
59(4) . . .
65(4) . . .
61(4) . . .
68(4) . . .
65(4) . . .
65(4) . . .
57(4) . . .
71(5) . . .
64(4) . . .
57(4) . . .
63(4) . . .
72(5) . . .
64(5) . . .
65(4) . . .
65(4) . . .
63(4) . . .
60(4) . . .
68(4) . . .
64(4) . . .
76(5) . . .
71(5) . . .
69(4) . . .
72(5) . . .
64(4) . . .
67(4) . . .
59(4) . . .
65(4) . . .
58(4) . . .
61(4) . . .
61(4) . . .
66(4) . . .
67(5) . . .
62(4) . . .
74(5) . . .
71(5) . . .
68(4) . . .
65(4) . . .
71(4) . . .
67(4) . . .
43.7(33) . . .
65(4) . . .
69(4) . . .
63(4) . . .
61(4) . . .
71(5) . . .
58(4) . . .
63(4) . . .
71(4) . . .
71(4) . . .
73(5) . . .
73(5) . . .
64(4) . . .
68(4) . . .
64(4) . . .
56(4) . . .
74(5) . . .
70(4) . . .
69(4) . . .
60(4) . . .
60(4) . . .
69(5) . . .
69(4) . . .
69(4) . . .
77(5) . . .
73(5) . . .
70(5) . . .
56(4) . . .
72(4) . . .
76(5) . . .
82(5) . . .
73(5) . . .
77(5) . . .
72(4) . . .
67(4) . . .
68(4) . . .
68(4) . . .
68(4) . . .
67(4) . . .
62(4) . . .
60(4) . . .
67(4) . . .
77(5) . . .
77(5) . . .
66(4) . . .
61(4) . . .
67(4) . . .
67(4) . . .
61(4) . . .
60(4) . . .
61(4) . . .
64(4) . . .
62(4) . . .
63(4) . . .
73(4) . . .
81(5) . . .
71(4) . . .
61(4) . . .
60(4) . . .
61(4) . . .
72(5) . . .
73(5) . . .
70(4) . . .
59(4) . . .
62(4) . . .
69(5) . . .
70(5) . . .
80(5) . . .
72(5) . . .
62(5) . . .
71(5) . . .
71(5) . . .
72(4) . . .
67(4) . . .
75(5) . . .
75(5) . . .
61(4) . . .
76(4) . . .
64(4) . . .
81(5) . . .
57(4) . . .
74(5) . . .
63(4) . . .
57(4) . . .
64(4) . . .
59(4) . . .
69(4) . . .
67(4) . . .
69(4) . . .
68(4) . . .
69(5) . . .
67(4) . . .
62(4) . . .
68(4) . . .
69(4) . . .
67(4) . . .
62(4) . . .
61(4) . . .
75(5) . . .
73(5) . . .
68(4) . . .
70(4) . . .
63(4) . . .
59(4) . . .
61(4) . . .
61(4) . . .
65(4) . . .
72(4) . . .
70(4) . . .
70(5) . . .
82(5) . . .
70(4) . . .
67(4) . . .
62(4) . . .
58(4) . . .
70(4) . . .
77(5) . . .
74(4) . . .
61(4) . . .
65(5) . . .
74(5) . . .
61(4) . . .
68(4) . . .
58(4) . . .
56(4) . . .
69(4) . . .
72(4) . . .
57(4) . . .
67(5) . . .
58(4) . . .
63(4) . . .
63(4) . . .
66(4) . . .
63(4) . . .
77(5) . . .
76(5) . . .
73(4) . . .
76(5) . . .
68(5) . . .
69(5) . . .
56(4) . . .
61(4) . . .
69(4) . . .
63(4) . . .
61(4) . . .
48(4) . . .
65(4) . . .
74(5) . . .
62(4) . . .
76(5) . . .
55(4) . . .
54(4) . . .
69(4) . . .
56(4) . . .
63(5) . . .
67(4) . . .
59(4) . . .
59(4) . . .
67(4) . . .
66(5) . . .
58(4) . . .
53(4) . . .
66(4) . . .
70(5) . . .
63(4) . . .
73(4) . . .
64(4) . . .
60(4) . . .
69(5) . . .
67(5) . . .
60(4) . . .
72(5) . . .
66(4) . . .
60(4) . . .
65(4) . . .
71(4) . . .
68(4) . . .
63(4) . . .
62(4) . . .
66(4) . . .
68(4) . . .
67(4) . . .
59(4) . . .
61(4) . . .
68(4) . . .
60(4) . . .
69(4) . . .
74(5) . . .
69(4) . . .
75(5) . . .
67(4) . . .
68(4) . . .
65(4) . . .
80(5) . . .
58(4) . . .
75(5) . . .
73(5) . . .
70(5) . . .
55(4) . . .
68(4) . . .
72(4) . . .
60(4) . . .
62(5) . . .
59(4) . . .
65(4) . . .
74(5) . . .
64(4) . . .
67(5) . . .
70(5) . . .
63(4) . . .
71(4) . . .
67(5) . . .
68(5) . . .
67(4) . . .
66(4) . . .
57(4) . . .
58(4) . . .
60(4) . . .
63(4) . . .
67(4) . . .
63(4) . . .
76(5) . . .
66(5) . . .
62(4) . . .
60(4) . . .
61(4) . . .
71(5) . . .
64(4) . . .
67(4) . . .
66(4) . . .
66(4) . . .
64(4) . . .
59(4) . . .
69(4) . . .
51(4) . . .
65(4) . . .
68(4) . . .
66(4) . . .
78(5) . . .
66(4) . . .
60(4) . . .
67(4) . . .
67(4) . . .
68(5) . . .
61(4) . . .
67(4) . . .
75(5) . . .
71(4) . . .
56(4) . . .
57(4) . . .
67(5) . . .
71(5) . . .
81(5) . . .
73(5) . . .
61(4) . . .
60(4) . . .
57(4) . . .
59(4) . . .
69(4) . . .
59(4) . . .
69(4) . . .
70(5) . . .
55(4) . . .
66(4) . . .
71(4) . . .
77(5) . . .
81(5) . . .
70(4) . . .
70(4) . . .
65(4) . . .
74(5) . . .
66(4) . . .
67(4) . . .
64(4) . . .
57(4) . . .
67(4) . . .
68(4) . . .
62(4) . . .
68(4) . . .
67(4) . . .
61(4) . . .
59(4) . . .
66(4) . . .
61(4) . . .
71(4) . . .
62(4) . . .
58(4) . . .
66(4) . . .
67(4) . . .
61(4) . . .
63(4) . . .
59(4) . . .
75(5) . . .
66(4) . . .
70(4) . . .
75(5) . . .
84(5) . . .
68(4) . . .
56(4) . . .
65(4) . . .
62(4) . . .
71(5) . . .
61(4) . . .
69(4) . . .
72(5) . . .
65(5) . . .
62(4) . . .
70(4) . . .
58(4) . . .
49(4) . . .
63(5) . . .
63(4) . . .
72(4) . . .
61(4) . . .
68(4) . . .
65(4) . . .
73(5) . . .
58(4) . . .
52(4) . . .
74(4) . . .
70(4) . . .
72(5) . . .
60(4) . . .
59(4) . . .
67(4) . . .
61(4) . . .
66(5) . . .
69(4) . . .
77(5) . . .
70(5) . . .
68(4) . . .
72(5) . . .
65(4) . . .
58(4) . . .
60(4) . . .
70(4) . . .
66(4) . . .
63(4) . . .
72(4) . . .
67(4) . . .
60(4) . . .
65(4) . . .
71(4) . . .
69(4) . . .
52(4) . . .
58(4) . . .
75(5) . . .
62(4) . . .
75(5) . . .
74(5) . . .
59(4) . . .
58(4) . . .
79(5) . . .
64(4) . . .
62(4) . . .
60(4) . . .
60(4) . . .
70(4) . . .
64(4) . . .
65(5) . . .
65(4) . . .
71(4) . . .
71(4) . . .
68(4) . . .
69(5) . . .
70(4) . . .
67(4) . . .
57(4) . . .
56(4) . . .
57(4) . . .
49(4) . . .
64(4) . . .
79(5) . . .
60(4) . . .
61(4) . . .
71(5) . . .
65(4) . . .
69(4) . . .
66(4) . . .
70(5) . . .
51(4) . . .
61(4) . . .
70(4) . . .
70(5) . . .
66(4) . . .
77(5) . . .
57(4) . . .
65(4) . . .
68(5) . . .
66(4) . . .
66(4) . . .
73(4) . . .
69(4) . . .
66(4) . . .
63(4) . . .
67(4) . . .
54(4) . . .
62(4) . . .
77(5) . . .
59(4) . . .
62(4) . . .
67(4) . . .
62(4) . . .
55(4) . . .
56(4) . . .
49(4) . . .
77(5) . . .
58(4) . . .
64(5) . . .
63(4) . . .
67(4) . . .
55(4) . . .
66(4) . . .
67(5) . . .
72(5) . . .
80(5) . . .
80(5) . . .
66(4) . . .
71(5) . . .
62(4) . . .
78(5) . . .
66(4) . . .
65(4) . . .
57(4) . . .
69(5) . . .
65(4) . . .
60(4) . . .
73(4) . . .
69(4) . . .
73(5) . . .
55(4) . . .
64(4) . . .
63(4) . . .
62(4) . . .
73(5) . . .
79(5) . . .
66(4) . . .
72(5) . . .
62(4) . . .
57(4) . . .
59(4) . . .
65(4) . . .
81(5) . . .
75(5) . . .
66(4) . . .
57(4) . . .
62(4) . . .
61(4) . . .
59(4) . . .
71(5) . . .
59(4) . . .
62(4) . . .
57(4) . . .
55(4) . . .
68(4) . . .
68(4) . . .
70(4) . . .
66(5) . . .
64(4) . . .
61(4) . . .
73(4) . . .
58(4) . . .
59(4) . . .
61(4) . . .
67(4) . . .
69(4) . . .
55(4) . . .
61(4) . . .
69(4) . . .
70(4) . . .
69(4) . . .
62(4) . . .
56(4) . . .
55(4) . . .
74(4) . . .
62(4) . . .
51(4) . . .
57(4) . . .
67(5) . . .
63(4) . . .
59(4) . . .
70(5) . . .
67(5) . . .
57(4) . . .
66(4) . . .
60(4) . . .
65(4) . . .
64(4) . . .
63(4) . . .
62(4) . . .
65(4) . . .
59(4) . . .
57(4) . . .
61(4) . . .
69(4) . . .
67(4) . . .
67(4) . . .
62(4) . . .
71(4) . . .
82(5) . . .
72(5) . . .
61(4) . . .
64(4) . . .
83(5) . . .
66(4) . . .
63(4) . . .
62(4) . . .
57(4) . . .
69(4) . . .
64(4) . . .
63(4) . . .
59(4) . . .
63(4) . . .
70(4) . . .
61(4) . . .
62(4) . . .
66(5) . . .
64(4) . . .
59(4) . . .
56(4) . . .
67(4) . . .
62(4) . . .
54(4) . . .
65(4) . . .
61(4) . . .
65(4) . . .
67(4) . . .
65(4) . . .
64(4) . . .
67(4) . . .
62(4) . . .
67(4) . . .
65(4) . . .
63(4) . . .
67(4) . . .
62(4) . . .
77(5) . . .
65(4) . . .
61(4) . . .
64(4) . . .
80(5) . . .
79(5) . . .
65(4) . . .
61(4) . . .
60(4) . . .
59(4) . . .
58(4) . . .
70(4) . . .
63(4) . . .
61(4) . . .
73(5) . . .
61(4) . . .
62(4) . . .
74(4) . . .
61(4) . . .
65(5) . . .
61(4) . . .
66(4) . . .
63(4) . . .
59(4) . . .
64(5) . . .
65(4) . . .
65(4) . . .
58(4) . . .
57(4) . . .
61(4) . . .
67(4) . . .
72(4) . . .
69(4) . . .
64(4) . . .
63(5) . . .
63(4) . . .
56(4) . . .
64(4) . . .
71(4) . . .
64(4) . . .
67(4) . . .
67(4) . . .
61(4) . . .
61(4) . . .
67(4) . . .
79(5) . . .
61(4) . . .
59(4) . . .
74(5) . . .
71(5) . . .
67(4) . . .
69(4) . . .
72(5) . . .
66(4) . . .
63(4) . . .
74(5) . . .
62(4) . . .
60(4) . . .
63(4) . . .
66(4) . . .
65(4) . . .
67(4) . . .
60(4) . . .
64(4) . . .
61(4) . . .
53(4) . . .
61(4) . . .
70(4) . . .
63(4) . . .
65(4) . . .
60(4) . . .
66(4) . . .
61(4) . . .
66(5) . . .
58(4) . . .
62(4) . . .
69(4) . . .
65(4) . . .
66(5) . . .
64(4) . . .
65(4) . . .
62(4) . . .
73(5) . . .
73(5) . . .
68(4) . . .
66(4) . . .
64(4) . . .
64(4) . . .
61(4) . . .
64(4) . . .
72(4) . . .
65(4) . . .
67(4) . . .
52(4) . . .
66(4) . . .
66(4) . . .
70(4) . . .
60(4) . . .
71(4) . . .
69(4) . . .
75(5) . . .
61(4) . . .
65(5) . . .
49(4) . . .
63(4) . . .
58(4) . . .
70(5) . . .
63(4) . . .
59(4) . . .
59(4) . . .
63(4) . . .
64(4) . . .
64(4) . . .
71(5) . . .
56(4) . . .
66(4) . . .
64(4) . . .
54(4) . . .
53(4) . . .
71(4) . . .
66(4) . . .
68(4) . . .
60(4) . . .
53(4) . . .
60(4) . . .
72(4) . . .
74(5) . . .
63(4) . . .
75(5) . . .
55(4) . . .
63(4) . . .
59(4) . . .
55(4) . . .
66(4) . . .
70(4) . . .
62(4) . . .
66(4) . . .
66(5) . . .
60(4) . . .
57(4) . . .
65(4) . . .
62(4) . . .
61(4) . . .
67(5) . . .
52(4) . . .
61(4) . . .
54(4) . . .
59(4) . . .
68(4) . . .
60(4) . . .
54(4) . . .
72(5) . . .
68(5) . . .
56(4) . . .
64(4) . . .
74(5) . . .
64(4) . . .
64(4) . . .
55(4) . . .
63(4) . . .
69(4) . . .
73(5) . . .
59(4) . . .
59(4) . . .
56(4) . . .
57(4) . . .
64(4) . . .
66(4) . . .
69(4) . . .
66(4) . . .
67(4) . . .
62(4) . . .
58(4) . . .
62(4) . . .
77(5) . . .
66(4) . . .
69(5) . . .
63(4) . . .
67(4) . . .
67(4) . . .
56(4) . . .
57(4) . . .
67(4) . . .
61(4) . . .
66(4) . . .
61(4) . . .
49(4) . . .
68(4) . . .
71(4) . . .
57(4) . . .
55(4) . . .
66(4) . . .
72(5) . . .
59(4) . . .
57(4) . . .
59(4) . . .
64(4) . . .
65(4) . . .
71(4) . . .
73(5) . . .
64(4) . . .
53(4) . . .
63(4) . . .
55(4) . . .
54(4) . . .
65(4) . . .
62(4) . . .
68(4) . . .
63(4) . . .
61(4) . . .
53(4) . . .
57(4) . . .
60(4) . . .
63(4) . . .
64(4) . . .
75(5) . . .
62(4) . . .
65(4) . . .
73(4) . . .
52(4) . . .
58(4) . . .
57(4) . . .
69(4) . . .
65(4) . . .
70(5) . . .
64(4) . . .
72(5) . . .
64(4) . . .
71(5) . . .
72(5) . . .
62(4) . . .
52(4) . . .
57(4) . . .
53(4) . . .
53(4) . . .
62(5) . . .
57(4) . . .
61(4) . . .
66(4) . . .
54(4) . . .
55(4) . . .
63(4) . . .
68(4) . . .
64(4) . . .
66(4) . . .
67(4) . . .
76(5) . . .
66(4) . . .
58(4) . . .
65(4) . . .
66(5) . . .
66(4) . . .
62(4) . . .
70(5) . . .
66(4) . . .
70(5) . . .
61(4) . . .
64(4) . . .
65(4) . . .
63(4) . . .
69(4) . . .
61(4) . . .
71(4) . . .
59(4) . . .
59(4) . . .
58(4) . . .
61(4) . . .
61(4) . . .
57(4) . . .
67(4) . . .
68(4) . . .
56(4) . . .
65(4) . . .
63(4) . . .
58(4) . . .
67(5) . . .
70(4) . . .
60(4) . . .
68(4) . . .
60(4) . . .
62(4) . . .
69(4) . . .
60(4) . . .
64(4) . . .
77(5) . . .
57(4) . . .
56(4) . . .
56(4) . . .
65(4) . . .
58(4) . . .
59(4) . . .
64(4) . . .
66(4) . . .
65(4) . . .
63(4) . . .
57(4) . . .
51(4) . . .
67(4) . . .
63(4) . . .
63(4) . . .
70(5) . . .
66(4) . . .
55(4) . . .
66(4) . . .
72(5) . . .
53(4) . . .
50(4) . . .
54(4) . . .
61(4) . . .
70(5) . . .
76(5) . . .
64(4) . . .
73(5) . . .
63(4) . . .
57(4) . . .
60(4) . . .
61(4) . . .
65(5) . . .
53(4) . . .
64(4) . . .
59(4) . . .
50(4) . . .
55(4) . . .
60(4) . . .
57(4) . . .
69(4) . . .
65(4) . . .
63(4) . . .
64(4) . . .
77(5) . . .
66(4) . . .
58(4) . . .
58(4) . . .
71(5) . . .
73(5) . . .
68(4) . . .
60(4) . . .
58(4) . . .
63(4) . . .
62(4) . . .
64(4) . . .
62(4) . . .
59(4) . . .
51(4) . . .
61(4) . . .
61(4) . . .
71(5) . . .
59(4) . . .
55(4) . . .
55(4) . . .
59(4) . . .
66(4) . . .
60(4) . . .
73(5) . . .
57(4) . . .
62(4) . . .
58(4) . . .
61(4) . . .
72(5) . . .
57(4) . . .
69(4) . . .
55(4) . . .
67(5) . . .
57(4) . . .
69(4) . . .
65(4) . . .
67(4) . . .
68(5) . . .
59(4) . . .
65(4) . . .
57(4) . . .
55(4) . . .
59(4) . . .
62(4) . . .
67(4) . . .
68(4) . . .
75(5) . . .
50(4) . . .
59(4) . . .
58(4) . . .
71(5) . . .
56(4) . . .
70(5) . . .
54(4) . . .
70(4) . . .
65(4) . . .
81(5) . . .
65(4) . . .
69(5) . . .
59(4) . . .
63(4) . . .
58(4) . . .
64(4) . . .
60(4) . . .
69(4) . . .
71(4) . . .
64(4) . . .
61(4) . . .
66(4) . . .
50(4) . . .
60(4) . . .
73(5) . . .
64(4) . . .
67(4) . . .
65(4) . . .
61(4) . . .
56(4) . . .
78(5) . . .
70(5) . . .
68(4) . . .
64(4) . . .
59(4) . . .
63(4) . . .
58(4) . . .
55(4) . . .
70(4) . . .
55(4) . . .
59(4) . . .
60(4) . . .
52(4) . . .
57(4) . . .
67(5) . . .
59(4) . . .
59(4) . . .
64(4) . . .
58(4) . . .
53(4) . . .
60(4) . . .
65(4) . . .
59(4) . . .
63(4) . . .
52(4) . . .
59(4) . . .
58(4) . . .
56(4) . . .
69(5) . . .
71(5) . . .
59(4) . . .
55(4) . . .
66(4) . . .
64(4) . . .
53(4) . . .
68(4) . . .
72(4) . . .
58(4) . . .
65(4) . . .
65(5) . . .
79(5) . . .
79(5) . . .
57(4) . . .
64(4) . . .
78(5) . . .
62(4) . . .
57(4) . . .
69(4) . . .
66(4) . . .
71(5) . . .
72(5) . . .
64(4) . . .
60(4) . . .
59(4) . . .
53(4) . . .
65(4) . . .
65(4) . . .
53(4) . . .
70(5) . . .
60(4) . . .
58(4) . . .
54(4) . . .
54(4) . . .
62(4) . . .
64(4) . . .
71(4) . . .
64(4) . . .
70(4) . . .
73(5) . . .
64(4) . . .
53(4) . . .
67(4) . . .
77(5) . . .
63(4) . . .
67(4) . . .
72(4) . . .
65(4) . . .
62(4) . . .
60(4) . . .
58(4) . . .
72(4) . . .
61(4) . . .
71(5) . . .
63(4) . . .
64(4) . . .
70(4) . . .
66(4) . . .
61(4) . . .
69(5) . . .
56(4) . . .
49(4) . . .
71(5) . . .
67(5) . . .
68(5) . . .
67(4) . . .
60(4) . . .
60(4) . . .
67(5) . . .
62(4) . . .
56(4) . . .
61(4) . . .
50(4) . . .
57(4) . . .
64(4) . . .
61(4) . . .
61(4) . . .
65(5) . . .
62(4) . . .
58(4) . . .
54(4) . . .
62(4) . . .
65(4) . . .
54(4) . . .
61(4) . . .
57(4) . . .
70(4) . . .
59(4) . . .
60(4) . . .
52(4) . . .
59(4) . . .
61(4) . . .
50(4) . . .
49(4) . . .
62(4) . . .
63(4) . . .
60(4) . . .
71(5) . . .
56(4) . . .
54(4) . . .
65(4) . . .
68(4) . . .
59(4) . . .
58(4) . . .
64(4) . . .
52(4) . . .
60(4) . . .
61(4) . . .
61(4) . . .
54(4) . . .
64(4) . . .
61(4) . . .
57(4) . . .
72(5) . . .
64(4) . . .
65(4) . . .
60(4) . . .
59(4) . . .
50(4) . . .
60(4) . . .
65(4) . . .
63(4) . . .
66(4) . . .
63(4) . . .
75(5) . . .
61(4) . . .
56(4) . . .
61(4) . . .
51(4) . . .
50(4) . . .
59(4) . . .
65(4) . . .
75(5) . . .
68(5) . . .
53(4) . . .
49(4) . . .
66(4) . . .
61(4) . . .
60(4) . . .
57(4) . . .
60(4) . . .
58(4) . . .
66(4) . . .
65(4) . . .
49(4) . . .
56(4) . . .
60(4) . . .
62(5) . . .
59(4) . . .
60(4) . . .
70(4) . . .
59(4) . . .
65(4) . . .
61(4) . . .
54(4) . . .
49(4) . . .
68(5) . . .
58(4) . . .
64(4) . . .
67(4) . . .
61(4) . . .
55(4) . . .
56(4) . . .
62(4) . . .
51(4) . . .
47(4) . . .
54(4) . . .
62(4) . . .
66(4) . . .
58(4) . . .
56(4) . . .
66(4) . . .
56(4) . . .
59(4) . . .
57(4) . . .
59(4) . . .
68(5) . . .
65(4) . . .
51(4) . . .
52(4) . . .
50(4) . . .
58(4) . . .
63(5) . . .
64(4) . . .
67(4) . . .
55(4) . . .
60(4) . . .
57(4) . . .
65(4) . . .
51(4) . . .
61(4) . . .
68(5) . . .
57(4) . . .
52(4) . . .
68(4) . . .
60(4) . . .
54(4) . . .
56(4) . . .
52(4) . . .
60(4) . . .
62(4) . . .
67(5) . . .
61(4) . . .
62(4) . . .
58(4) . . .
50(4) . . .
47(4) . . .
55(4) . . .
58(4) . . .
61(4) . . .
67(4) . . .
62(4) . . .
62(4) . . .
68(4) . . .
60(4) . . .
65(4) . . .
60(4) . . .
62(4) . . .
60(4) . . .
62(4) . . .
58(4) . . .
65(4) . . .
52(4) . . .
60(4) . . .
52(4) . . .
52(4) . . .
68(5) . . .
58(4) . . .
62(4) . . .
64(4) . . .
72(5) . . .
53(4) . . .
61(4) . . .
61(4) . . .
57(4) . . .
63(4) . . .
60(4) . . .
59(4) . . .
74(5) . . .
61(4) . . .
64(4) . . .
64(4) . . .
58(4) . . .
63(4) . . .
58(4) . . .
54(4) . . .
66(4) . . .
68(4) . . .
64(4) . . .
68(4) . . .
60(4) . . .
66(4) . . .
67(4) . . .
55(4) . . .
58(4) . . .
51(4) . . .
67(4) . . .
71(4) . . .
62(4) . . .
65(4) . . .
53(4) . . .
64(4) . . .
63(4) . . .
57(4) . . .
67(4) . . .
80(5) . . .
56(4) . . .
57(4) . . .
69(4) . . .
60(4) . . .
70(5) . . .
65(4) . . .
75(4) . . .
70(5) . . .
55(4) . . .
65(5) . . .
69(5) . . .
68(4) . . .
63(4) . . .
58(4) . . .
59(4) . . .
66(4) . . .
52(4) . . .
61(4) . . .
60(4) . . .
74(5) . . .
58(4) . . .
46(4) . . .
62(4) . . .
54(4) . . .
71(5) . . .
56(4) . . .
64(4) . . .
59(4) . . .
69(5) . . .
65(4) . . .
62(4) . . .
65(4) . . .
58(4) . . .
61(4) . . .
58(4) . . .
67(4) . . .
73(5) . . .
60(4) . . .
65(4) . . .
54(4) . . .
58(4) . . .
62(4) . . .
61(4) . . .
59(4) . . .
65(5) . . .
50(4) . . .
56(4) . . .
62(4) . . .
54(4) . . .
61(4) . . .
60(4) . . .
56(4) . . .
54(4) . . .
47(4) . . .
62(4) . . .
65(4) . . .
62(4) . . .
57(4) . . .
67(5) . . .
65(4) . . .
54(4) . . .
67(5) . . .
55(4) . . .
72(5) . . .
77(5) . . .
60(4) . . .
63(4) . . .
56(4) . . .
55(4) . . .
51(4) . . .
52(4) . . .
62(4) . . .
50(4) . . .
59(4) . . .
70(4) . . .
65(4) . . .
54(4) . . .
56(4) . . .
65(4) . . .
59(4) . . .
52(4) . . .
61(4) . . .
59(4) . . .
63(4) . . .
68(4) . . .
66(4) . . .
54(4) . . .
63(4) . . .
62(4) . . .
57(4) . . .
57(4) . . .
52(4) . . .
62(4) . . .
59(4) . . .
61(4) . . .
56(4) . . .
55(4) . . .
62(4) . . .
59(4) . . .
56(4) . . .
59(4) . . .
67(5) . . .
64(4) . . .
58(4) . . .
58(4) . . .
55(4) . . .
48(4) . . .
52(4) . . .
49(4) . . .
66(4) . . .
66(4) . . .
60(4) . . .
60(4) . . .
69(4) . . .
64(4) . . .
71(5) . . .
72(5) . . .
56(4) . . .
71(4) . . .
55(4) . . .
59(4) . . .
57(4) . . .
54(4) . . .
69(4) . . .
58(4) . . .
63(5) . . .
52(4) . . .
58(4) . . .
61(4) . . .
63(4) . . .
62(4) . . .
59(4) . . .
59(4) . . .
55(4) . . .
47(4) . . .
62(4) . . .
54(4) . . .
62(4) . . .
62(4) . . .
61(4) . . .
58(4) . . .
53(4) . . .
54(4) . . .
59(4) . . .
65(4) . . .
73(5) . . .
59(4) . . .
57(4) . . .
51(4) . . .
60(4) . . .
69(4) . . .
53(4) . . .
53(4) . . .
63(4) . . .
53(4) . . .
55(4) . . .
53(4) . . .
67(5) . . .
67(4) . . .
62(4) . . .
72(5) . . .
57(4) . . .
51(4) . . .
70(4) . . .
60(4) . . .
61(4) . . .
64(4) . . .
62(4) . . .
71(4) . . .
67(4) . . .
60(4) . . .
65(4) . . .
70(4) . . .
69(4) . . .
57(4) . . .
63(4) . . .
63(4) . . .
58(4) . . .
52(4) . . .
56(4) . . .
60(4) . . .
58(4) . . .
57(4) . . .
60(4) . . .
55(4) . . .
57(4) . . .
50(4) . . .
67(4) . . .
61(4) . . .
64(5) . . .
52(4) . . .
61(4) . . .
61(4) . . .
66(4) . . .
64(4) . . .
64(4) . . .
60(4) . . .
62(4) . . .
62(4) . . .
56(4) . . .
60(4) . . .
59(4) . . .
67(4) . . .
59(4) . . .
55(4) . . .
58(4) . . .
58(4) . . .
57(4) . . .
55(4) . . .
63(4) . . .
55(4) . . .
71(5) . . .
66(4) . . .
53(4) . . .
61(4) . . .
68(5) . . .
51(4) . . .
48(4) . . .
62(4) . . .
59(4) . . .
53(4) . . .
56(4) . . .
57(4) . . .
62(4) . . .
54(4) . . .
65(4) . . .
65(4) . . .
63(4) . . .
69(5) . . .
63(5) . . .
73(5) . . .
63(4) . . .
59(4) . . .
65(4) . . .
55(4) . . .
63(5) . . .
53(4) . . .
55(4) . . .
56(4) . . .
58(4) . . .
58(4) . . .
58(4) . . .
55(4) . . .
62(4) . . .
48(4) . . .
67(5) . . .
51(4) . . .
62(4) . . .
64(4) . . .
56(4) . . .
65(4) . . .
64(4) . . .
54(4) . . .
53(4) . . .
47(4) . . .
69(5) . . .
70(4) . . .
61(4) . . .
69(4) . . .
67(5) . . .
55(4) . . .
65(4) . . .
69(5) . . .
59(4) . . .
63(4) . . .
60(4) . . .
58(4) . . .
60(4) . . .
60(4) . . .
67(4) . . .
58(4) . . .
54(4) . . .
61(4) . . .
58(4) . . .
66(4) . . .
61(4) . . .
57(4) . . .
58(4) . . .
56(4) . . .
66(4) . . .
59(4) . . .
62(4) . . .
66(4) . . .
57(4) . . .
60(4) . . .
61(4) . . .
58(4) . . .
45(4) . . .
68(5) . . .
58(4) . . .
51(4) . . .
56(4) . . .
61(4) . . .
59(4) . . .
63(4) . . .
66(4) . . .
70(4) . . .
64(4) . . .
47(4) . . .
55(4) . . .
58(4) . . .
59(4) . . .
60(4) . . .
62(4) . . .
55(4) . . .
58(4) . . .
58(4) . . .
50(4) . . .
70(5) . . .
54(4) . . .
61(4) . . .
63(4) . . .
58(4) . . .
68(5) . . .
55(4) . . .
54(4) . . .
53(4) . . .
47(4) . . .
54(4) . . .
49(4) . . .
58(4) . . .
54(4) . . .
60(4) . . .
64(4) . . .
58(4) . . .
58(4) . . .
52(4) . . .
62(5) . . .
74(5) . . .
63(4) . . .
53(4) . . .
60(4) . . .
65(4) . . .
64(4) . . .
63(4) . . .
55(4) . . .
60(4) . . .
59(4) . . .
62(4) . . .
58(4) . . .
54(4) . . .
51(4) . . .
65(4) . . .
46(4) . . .
55(4) . . .
62(4) . . .
60(4) . . .
58(4) . . .
57(4) . . .
64(4) . . .
60(4) . . .
59(4) . . .
57(4) . . .
49(4) . . .
61(4) . . .
42.1(34) . . .
54(4) . . .
67(5) . . .
65(4) . . .
64(4) . . .
55(4) . . .
55(4) . . .
53(4) . . .
57(4) . . .
55(4) . . .
69(5) . . .
61(4) . . .
58(4) . . .
50(4) . . .
56(4) . . .
60(4) . . .
66(4) . . .
76(5) . . .
62(4) . . .
58(4) . . .
61(4) . . .
59(4) . . .
67(5) . . .
54(4) . . .
56(4) . . .
67(5) . . .
55(4) . . .
52(4) . . .
63(4) . . .
67(4) . . .
53(4) . . .
69(5) . . .
63(4) . . .
50(4) . . .
45(4) . . .
55(4) . . .
58(4) . . .
65(5) . . .
58(4) . . .
64(4) . . .
61(4) . . .
58(5) . . .
65(4) . . .
61(4) . . .
57(4) . . .
63(4) . . .
58(4) . . .
54(4) . . .
64(4) . . .
60(4) . . .
54(4) . . .
67(5) . . .
65(4) . . .
68(4) . . .
53(4) . . .
62(4) . . .
62(4) . . .
62(4) . . .
59(4) . . .
51(4) . . .
65(4) . . .
64(4) . . .
58(4) . . .
61(4) . . .
63(4) . . .
62(4) . . .
61(4) . . .
60(4) . . .
63(4) . . .
53(4) . . .
60(4) . . .
63(4) . . .
75(5) . . .
61(4) . . .
63(4) . . .
60(4) . . .
60(4) . . .
55(4) . . .
64(4) . . .
56(4) . . .
66(5) . . .
64(4) . . .
57(4) . . .
55(4) . . .
69(4) . . .
59(4) . . .
53(4) . . .
61(4) . . .
65(4) . . .
63(5) . . .
62(4) . . .
57(4) . . .
56(4) . . .
60(4) . . .
57(4) . . .
55(4) . . .
62(4) . . .
54(4) . . .
61(4) . . .
54(4) . . .
66(5) . . .
55(4) . . .
62(4) . . .
63(4) . . .
61(4) . . .
59(4) . . .
63(4) . . .
59(4) . . .
48(4) . . .
56(4) . . .
49(4) . . .
60(4) . . .
64(4) . . .
63(4) . . .
49(4) . . .
57(4) . . .
57(4) . . .
68(4) . . .
72(5) . . .
62(4) . . .
56(4) . . .
64(4) . . .
54(4) . . .
55(4) . . .
58(4) . . .
60(4) . . .
63(4) . . .
58(4) . . .
67(5) . . .
52(4) . . .
70(5) . . .
66(4) . . .
50(4) . . .
61(4) . . .
69(5) . . .
57(4) . . .
58(4) . . .
56(4) . . .
57(4) . . .
56(4) . . .
54(4) . . .
56(4) . . .
59(4) . . .
59(4) . . .
54(4) . . .
48(4) . . .
61(4) . . .
52(4) . . .
47(4) . . .
50(4) . . .
67(5) . . .
54(4) . . .
54(4) . . .
54(4) . . .
54(4) . . .
66(4) . . .
60(4) . . .
66(4) . . .
57(4) . . .
54(4) . . .
59(4) . . .
62(4) . . .
51(4) . . .
54(4) . . .
57(4) . . .
62(4) . . .
64(4) . . .
56(4) . . .
57(4) . . .
61(4) . . .
63(4) . . .
60(4) . . .
53(4) . . .
62(4) . . .
58(4) . . .
60(4) . . .
46(4) . . .
56(4) . . .
56(4) . . .
54(4) . . .
45.2(34) . . .
48(4) . . .
54(4) . . .
53(4) . . .
51(4) . . .
55(4) . . .
58(4) . . .
54(4) . . .
62(4) . . .
59(4) . . .
56(4) . . .
65(4) . . .
58(4) . . .
61(4) . . .
58(4) . . .
65(4) . . .
57(4) . . .
65(4) . . .
56(4) . . .
69(4) . . .
59(4) . . .
52(4) . . .
59(4) . . .
75(5) . . .
55(4) . . .
53(4) . . .
63(4) . . .
59(4) . . .
58(4) . . .
66(4) . . .
65(4) . . .
60(4) . . .
59(4) . . .
55(4) . . .
68(4) . . .
73(4) . . .
73(4) . . .
55(4) . . .
57(4) . . .
54(4) . . .
55(4) . . .
64(4) . . .
50(4) . . .
52(4) . . .
58(4) . . .
61(4) . . .
70(5) . . .
54(4) . . .
51(4) . . .
58(4) . . .
57(4) . . .
58(4) . . .
62(4) . . .
46.7(35) . . .
60(4) . . .
71(4) . . .
66(4) . . .
50(4) . . .
46(4) . . .
59(4) . . .
62(4) . . .
66(5) . . .
60(5) . . .
58(4) . . .
65(4) . . .
55(4) . . .
60(4) . . .
59(4) . . .
68(4) . . .
54(4) . . .
56(4) . . .
49(4) . . .
48.0(35) . . .
56(4) . . .
66(4) . . .
63(4) . . .
59(4) . . .
59(4) . . .
57(4) . . .
71(4) . . .
68(4) . . .
73(5) . . .
62(4) . . .
51(4) . . .
47(4) . . .
61(4) . . .
50(4) . . .
53(4) . . .
57(4) . . .
58(4) . . .
61(4) . . .
62(4) . . .
56(4) . . .
52(4) . . .
61(4) . . .
58(4) . . .
55(4) . . .
68(4) . . .
52(4) . . .
57(4) . . .
57(4) . . .
65(5) . . .
64(4) . . .
51(4) . . .
50(4) . . .
56(4) . . .
68(5) . . .
63(4) . . .
47(4) . . .
58(4) . . .
66(5) . . .
65(5) . . .
68(4) . . .
54(4) . . .
63(4) . . .
73(5) . . .
65(4) . . .
62(4) . . .
60(4) . . .
55(4) . . .
59(4) . . .
58(4) . . .
61(4) . . .
57(4) . . .
75(5) . . .
59(4) . . .
51(4) . . .
63(4) . . .
62(4) . . .
58(4) . . .
48(4) . . .
63(4) . . .
69(5) . . .
62(4) . . .
60(4) . . .
60(5) . . .
74(5) . . .
68(4) . . .
60(4) . . .
58(4) . . .
57(4) . . .
52(4) . . .
66(4) . . .
66(4) . . .
62(4) . . .
52(4) . . .
49(4) . . .
59(4) . . .
59(4) . . .
62(4) . . .
51(4) . . .
51(4) . . .
58(4) . . .
62(4) . . .
58(4) . . .
53(4) . . .
47(4) . . .
58(4) . . .
61(4) . . .
61(4) . . .
62(4) . . .
70(5) . . .
75(4) . . .
62(4) . . .
66(4) . . .
60(4) . . .
65(4) . . .
59(4) . . .
59(4) . . .
61(4) . . .
63(4) . . .
54(4) . . .
50(4) . . .
64(4) . . .
59(4) . . .
64(4) . . .
59(4) . . .
54(4) . . .
62(4) . . .
50(4) . . .
48(4) . . .
55(4) . . .
54(4) . . .
51(4) . . .
61(4) . . .
63(4) . . .
54(4) . . .
69(4) . . .
65(4) . . .
60(4) . . .
53(4) . . .
49(4) . . .
57(4) . . .
55(4) . . .
55(4) . . .
59(4) . . .
61(4) . . .
60(4) . . .
58(4) . . .
59(4) . . .
64(4) . . .
67(4) . . .
57(4) . . .
60(4) . . .
61(4) . . .
55(4) . . .
51(4) . . .
66(4) . . .
57(4) . . .
56(4) . . .
63(4) . . .
51(4) . . .
48(4) . . .
64(4) . . .
69(5) . . .
61(4) . . .
56(4) . . .
56(4) . . .
53(4) . . .
62(4) . . .
50(4) . . .
49(4) . . .
59(4) . . .
57(4) . . .
65(4) . . .
58(4) . . .
63(4) . . .
70(4) . . .
56(4) . . .
54(4) . . .
59(4) . . .
66(4) . . .
60(4) . . .
57(4) . . .
70(5) . . .
62(4) . . .
60(4) . . .
63(4) . . .
52(4) . . .
59(4) . . .
53(4) . . .
60(4) . . .
56(4) . . .
54(4) . . .
50(4) . . .
56(4) . . .
57(4) . . .
59(4) . . .
65(5) . . .
65(4) . . .
56(4) . . .
53(4) . . .
58(4) . . .
65(5) . . .
62(4) . . .
62(4) . . .
53(4) . . .
53(4) . . .
51(4) . . .
55(4) . . .
57(4) . . .
59(4) . . .
48(4) . . .
51(4) . . .
61(4) . . .
70(4) . . .
80(5) . . .
70(4) . . .
60(4) . . .
68(5) . . .
63(4) . . .
67(4) . . .
67(5) . . .
66(4) . . .
63(4) . . .
60(4) . . .
51(4) . . .
48(4) . . .
55(4) . . .
59(4) . . .
64(4) . . .
53(4) . . .
52(4) . . .
51(4) . . .
52(4) . . .
53(4) . . .
47(4) . . .
55(4) . . .
60(4) . . .
62(4) . . .
66(4) . . .
61(4) . . .
55(4) . . .
58(4) . . .
59(4) . . .
61(4) . . .
66(5) . . .
56(4) . . .
57(4) . . .
53(4) . . .
60(4) . . .
58(4) . . .
50(4) . . .
66(4) . . .
66(4) . . .
67(4) . . .
65(4) . . .
55(4) . . .
50(4) . . .
67(4) . . .
55(4) . . .
55(4) . . .
50(4) . . .
52(4) . . .
50(4) . . .
59(4) . . .
61(4) . . .
61(5) . . .
60(4) . . .
60(4) . . .
50(4) . . .
55(4) . . .
54(4) . . .
61(4) . . .
50(4) . . .
51(4) . . .
62(4) . . .
52(4) . . .
56(4) . . .
59(4) . . .
61(4) . . .
56(4) . . .
54(4) . . .
59(4) . . .
55(4) . . .
58(4) . . .
62(4) . . .
62(4) . . .
67(4) . . .
59(4) . . .
52(4) . . .
62(4) . . .
73(5) . . .
74(5) . . .
68(4) . . .
53(4) . . .
57(4) . . .
47(4) . . .
58(4) . . .
56(4) . . .
60(4) . . .
55(4) . . .
50(4) . . .
61(4) . . .
52(4) . . .
64(4) . . .
77(5) . . .
61(4) . . .
57(4) . . .
59(4) . . .
54(4) . . .
58(4) . . .
47(4) . . .
50(4) . . .
55(4) . . .
46(4) . . .
55(4) . . .
62(4) . . .
65(4) . . .
56(4) . . .
60(4) . . .
67(4) . . .
62(4) . . .
61(4) . . .
58(4) . . .
56(4) . . .
59(4) . . .
55(4) . . .
51(4) . . .
58(4) . . .
55(4) . . .
60(4) . . .
57(4) . . .
53(4) . . .
61(4) . . .
57(4) . . .
56(4) . . .
59(4) . . .
51(4) . . .
62(4) . . .
61(4) . . .
56(4) . . .
61(4) . . .
58(4) . . .
62(4) . . .
60(4) . . .
61(4) . . .
61(4) . . .
58(4) . . .
63(4) . . .
62(4) . . .
58(4) . . .
55(4) . . .
71(4) . . .
57(4) . . .
53(4) . . .
64(4) . . .
51(4) . . .
58(4) . . .
49(4) . . .
60(4) . . .
61(4) . . .
63(4) . . .
57(4) . . .
49(4) . . .
50(4) . . .
51(4) . . .
56(4) . . .
55(4) . . .
59(4) . . .
62(4) . . .
69(4) . . .
51(4) . . .
68(5) . . .
77(5) . . .
58(4) . . .
54(4) . . .
52(4) . . .
62(4) . . .
54(4) . . .
55(4) . . .
64(4) . . .
53(4) . . .
59(4) . . .
70(5) . . .
54(4) . . .
63(4) . . .
56(4) . . .
59(4) . . .
61(4) . . .
51(4) . . .
56(4) . . .
56(4) . . .
65(5) . . .
62(4) . . .
63(4) . . .
61(4) . . .
59(4) . . .
61(4) . . .
56(4) . . .
43.0(35) . . .
57(4) . . .
53(4) . . .
78(5) . . .
51(4) . . .
56(4) . . .
51(4) . . .
65(4) . . .
59(4) . . .
58(4) . . .
50(4) . . .
56(4) . . .
56(4) . . .
59(4) . . .
61(4) . . .
56(4) . . .
57(4) . . .
56(4) . . .
67(5) . . .
50(4) . . .
53(4) . . .
66(4) . . .
65(4) . . .
57(4) . . .
58(4) . . .
56(4) . . .
46.3(35) . . .
54(4) . . .
53(4) . . .
54(4) . . .
63(4) . . .
58(4) . . .
67(4) . . .
61(4) . . .
63(4) . . .
61(4) . . .
61(4) . . .
59(4) . . .
50(4) . . .
52(4) . . .
57(4) . . .
61(4) . . .
46(4) . . .
59(4) . . .
49(4) . . .
65(4) . . .
58(4) . . .
58(4) . . .
56(4) . . .
49(4) . . .
56(4) . . .
61(4) . . .
56(4) . . .
55(4) . . .
61(4) . . .
56(4) . . .
55(4) . . .
59(4) . . .
49(4) . . .
53(4) . . .
66(4) . . .
59(4) . . .
53(4) . . .
61(4) . . .
60(4) . . .
52(4) . . .
60(4) . . .
66(4) . . .
56(4) . . .
52(4) . . .
55(4) . . .
55(4) . . .
58(4) . . .
52(4) . . .
48(4) . . .
63(4) . . .
62(4) . . .
58(4) . . .
62(4) . . .
66(4) . . .
57(4) . . .
45(4) . . .
66(4) . . .
64(4) . . .
57(4) . . .
60(4) . . .
52(4) . . .
61(4) . . .
63(4) . . .
69(5) . . .
53(4) . . .
64(4) . . .
60(4) . . .
51(4) . . .
54(4) . . .
56(4) . . .
53(4) . . .
55(4) . . .
59(4) . . .
65(4) . . .
41.6(35) . . .
63(4) . . .
62(4) . . .
60(4) . . .
57(4) . . .
54(4) . . .
50(4) . . .
70(5) . . .
52(4) . . .
53(4) . . .
60(4) . . .
57(4) . . .
58(4) . . .
66(4) . . .
56(4) . . .
64(4) . . .
58(4) . . .
61(4) . . .
58(4) . . .
45.2(35) . . .
48(4) . . .
53(4) . . .
54(4) . . .
60(5) . . .
58(4) . . .
64(4) . . .
59(4) . . .
66(4) . . .
54(4) . . .
64(4) . . .
60(4) . . .
55(4) . . .
56(4) . . .
61(4) . . .
63(4) . . .
57(4) . . .
65(5) . . .
53(4) . . .
67(4) . . .
63(4) . . .
61(4) . . .
52(4) . . .
54(4) . . .
55(4) . . .
71(4) . . .
53(4) . . .
59(4) . . .
57(4) . . .
60(4) . . .
40.9(34) . . .
50(4) . . .
57(4) . . .
60(4) . . .
52(4) . . .
57(4) . . .
64(4) . . .
57(4) . . .
56(4) . . .
57(4) . . .
67(4) . . .
61(4) . . .
63(4) . . .
63(4) . . .
51(4) . . .
43.5(34) . . .
40.1(33) . . .
45(4) . . .
65(4) . . .
57(4) . . .
59(4) . . .
55(4) . . .
65(4) . . .
67(5) . . .
53(4) . . .
55(4) . . .
47(4) . . .
57(4) . . .
68(4) . . .
70(5) . . .
57(4) . . .
58(4) . . .
66(4) . . .
64(4) . . .
66(4) . . .
55(4) . . .
54(4) . . .
48(4) . . .
40.8(33) . . .
48(4) . . .
49(4) . . .
53(4) . . .
48(4) . . .
56(4) . . .
57(4) . . .
58(4) . . .
50(4) . . .
57(4) . . .
61(4) . . .
67(4) . . .
56(4) . . .
62(4) . . .
63(4) . . .
65(5) . . .
51(4) . . .
49(4) . . .
54(4) . . .
58(4) . . .
60(4) . . .
57(4) . . .
64(4) . . .
60(4) . . .
64(4) . . .
56(4) . . .
47(4) . . .
55(4) . . .
62(4) . . .
61(4) . . .
56(4) . . .
49(4) . . .
55(4) . . .
57(4) . . .
59(4) . . .
65(4) . . .
59(4) . . .
55(4) . . .
57(4) . . .
57(4) . . .
53(4) . . .
56(4) . . .
68(4) . . .
56(4) . . .
50(4) . . .
61(4) . . .
53(4) . . .
60(4) . . .
65(4) . . .
75(5) . . .
66(4) . . .
62(4) . . .
63(4) . . .
61(4) . . .
62(4) . . .
63(4) . . .
52(4) . . .
61(4) . . .
58(4) . . .
59(4) . . .
62(4) . . .
57(4) . . .
56(4) . . .
56(4) . . .
57(4) . . .
63(5) . . .
63(4) . . .
53(4) . . .
53(4) . . .
53(4) . . .
57(4) . . .
57(4) . . .
56(4) . . .
55(4) . . .
51(4) . . .
38.7(34) . . .
57(4) . . .
69(4) . . .
74(5) . . .
68(4) . . .
58(4) . . .
52(4) . . .
57(4) . . .
73(4) . . .
62(4) . . .
57(4) . . .
51(4) . . .
61(4) . . .
50(4) . . .
49(4) . . .
57(4) . . .
70(4) . . .
55(4) . . .
50(4) . . .
52(4) . . .
68(4) . . .
54(4) . . .
53(4) . . .
62(4) . . .
63(4) . . .
54(4) . . .
55(4) . . .
64(4) . . .
58(4) . . .
51(4) . . .
67(5) . . .
51(4) . . .
55(4) . . .
55(4) . . .
59(4) . . .
57(4) . . .
69(4) . . .
60(4) . . .
57(4) . . .
58(4) . . .
51(4) . . .
52(4) . . .
50(4) . . .
55(4) . . .
62(4) . . .
54(4) . . .
57(4) . . .
52(4) . . .
61(4) . . .
53(4) . . .
56(4) . . .
65(4) . . .
50(4) . . .
63(4) . . .
58(4) . . .
58(4) . . .
52(4) . . .
64(4) . . .
62(4) . . .
49(4) . . .
61(4) . . .
64(4) . . .
64(4) . . .
47(4) . . .
43.3(35) . . .
64(4) . . .
58(4) . . .
54(4) . . .
72(5) . . .
54(4) . . .
64(4) . . .
56(4) . . .
49(4) . . .
52(4) . . .
57(4) . . .
56(4) . . .
67(4) . . .
58(4) . . .
64(5) . . .
62(4) . . .
67(4) . . .
57(4) . . .
50(4) . . .
53(4) . . .
54(4) . . .
54(4) . . .
57(4) . . .
61(4) . . .
57(4) . . .
55(4) . . .
56(4) . . .
49(4) . . .
54(4) . . .
50(4) . . .
64(4) . . .
66(4) . . .
61(4) . . .
48(4) . . .
59(4) . . .
52(4) . . .
44.9(34) . . .
55(4) . . .
57(4) . . .
61(4) . . .
64(4) . . .
56(4) . . .
48(4) . . .
54(4) . . .
56(4) . . .
57(4) . . .
53(4) . . .
69(4) . . .
58(4) . . .
48(4) . . .
54(4) . . .
63(4) . . .
51(4) . . .
57(4) . . .
53(4) . . .
58(4) . . .
54(4) . . .
50(4) . . .
60(4) . . .
63(4) . . .
63(4) . . .
54(4) . . .
70(5) . . .
70(5) . . .
60(4) . . .
59(4) . . .
52(4) . . .
58(4) . . .
65(4) . . .
49(4) . . .
52(4) . . .
56(4) . . .
50(4) . . .
57(4) . . .
73(5) . . .
65(4) . . .
63(4) . . .
53(4) . . .
53(4) . . .
52(4) . . .
61(4) . . .
53(4) . . .
51(4) . . .
62(5) . . .
55(4) . . .
51(4) . . .
48(4) . . .
60(4) . . .
65(5) . . .
60(4) . . .
58(4) . . .
50(4) . . .
60(4) . . .
62(4) . . .
56(4) . . .
58(4) . . .
64(4) . . .
61(4) . . .
58(4) . . .
61(4) . . .
55(4) . . .
57(4) . . .
65(4) . . .
61(4) . . .
66(4) . . .
66(4) . . .
57(4) . . .
52(4) . . .
58(4) . . .
53(4) . . .
57(4) . . .
56(4) . . .
58(4) . . .
57(4) . . .
63(4) . . .
47(4) . . .
65(4) . . .
64(4) . . .
56(4) . . .
55(4) . . .
61(4) . . .
60(4) . . .
65(5) . . .
53(4) . . .
53(4) . . .
64(4) . . .
54(4) . . .
62(4) . . .
67(5) . . .
55(4) . . .
67(4) . . .
53(4) . . .
50(4) . . .
49(4) . . .
49(4) . . .
53(4) . . .
58(4) . . .
52(4) . . .
61(5) . . .
45(4) . . .
55(4) . . .
50(4) . . .
58(4) . . .
56(4) . . .
65(4) . . .
47(4) . . .
63(5) . . .
52(4) . . .
54(4) . . .
62(4) . . .
48(4) . . .
62(4) . . .
55(4) . . .
55(4) . . .
58(4) . . .
50(4) . . .
58(4) . . .
60(4) . . .
64(4) . . .
54(4) . . .
63(4) . . .
48(4) . . .
52(4) . . .
57(4) . . .
54(4) . . .
55(4) . . .
54(4) . . .
56(4) . . .
51(4) . . .
46(4) . . .
61(4) . . .
70(5) . . .
53(4) . . .
53(4) . . .
56(4) . . .
61(4) . . .
62(4) . . .
60(4) . . .
58(4) . . .
63(4) . . .
49(4) . . .
56(4) . . .
59(4) . . .
40.8(33) . . .
45(4) . . .
56(4) . . .
52(4) . . .
46(4) . . .
55(4) . . .
59(4) . . .
66(4) . . .
62(4) . . .
54(4) . . .
59(4) . . .
51(4) . . .
47(4) . . .
59(4) . . .
56(4) . . .
61(4) . . .
55(4) . . .
64(4) . . .
58(4) . . .
59(4) . . .
53(4) . . .
56(4) . . .
62(4) . . .
55(4) . . .
58(4) . . .
54(4) . . .
67(4) . . .
54(4) . . .
49(4) . . .
54(4) . . .
45(4) . . .
48(4) . . .
53(4) . . .
54(4) . . .
67(4) . . .
56(4) . . .
55(4) . . .
50(4) . . .
55(4) . . .
57(4) . . .
58(4) . . .
56(4) . . .
44(4) . . .
57(4) . . .
53(4) . . .
59(4) . . .
59(4) . . .
48(4) . . .
48(4) . . .
57(4) . . .
56(4) . . .
56(4) . . .
67(5) . . .
61(4) . . .
57(4) . . .
55(4) . . .
53(4) . . .
64(5) . . .
55(4) . . .
54(4) . . .
50(4) . . .
49(4) . . .
54(4) . . .
49(4) . . .
63(4) . . .
61(4) . . .
65(4) . . .
54(4) . . .
44(4) . . .
55(4) . . .
59(4) . . .
44(4) . . .
47(4) . . .
48(4) . . .
56(4) . . .
60(4) . . .
49(4) . . .
47(4) . . .
52(4) . . .
60(4) . . .
59(4) . . .
54(4) . . .
60(4) . . .
61(4) . . .
55(4) . . .
54(4) . . .
46(4) . . .
54(4) . . .
58(4) . . .
64(4) . . .
59(4) . . .
53(4) . . .
53(4) . . .
52(4) . . .
52(4) . . .
61(4) . . .
64(4) . . .
52(4) . . .
59(4) . . .
60(4) . . .
67(4) . . .
59(4) . . .
53(4) . . .
62(4) . . .
55(4) . . .
59(4) . . .
52(4) . . .
61(4) . . .
55(4) . . .
61(4) . . .
54(4) . . .
56(4) . . .
56(4) . . .
57(4) . . .
50(4) . . .
53(4) . . .
50(4) . . .
55(4) . . .
53(4) . . .
60(4) . . .
55(4) . . .
57(4) . . .
47(4) . . .
51(4) . . .
56(4) . . .
55(4) . . .
57(4) . . .
47(4) . . .
54(4) . . .
65(4) . . .
68(4) . . .
61(4) . . .
47(4) . . .
55(4) . . .
57(4) . . .
59(4) . . .
49(4) . . .
51(4) . . .
49(4) . . .
57(4) . . .
49(4) . . .
47(4) . . .
63(4) . . .
57(4) . . .
59(4) . . .
61(4) . . .
66(4) . . .
47(4) . . .
62(4) . . .
61(4) . . .
50(4) . . .
52(4) . . .
55(4) . . .
57(4) . . .
51(4) . . .
57(4) . . .
59(4) . . .
65(4) . . .
38.9(33) . . .
61(4) . . .
61(4) . . .
56(4) . . .
45.4(35) . . .
52(4) . . .
71(5) . . .
70(5) . . .
52(4) . . .
43.9(35) . . .
64(4) . . .
57(4) . . .
56(4) . . .
59(4) . . .
57(4) . . .
58(4) . . .
64(5) . . .
58(4) . . .
61(4) . . .
55(4) . . .
45(4) . . .
59(4) . . .
47(4) . . .
54(4) . . .
59(4) . . .
51(4) . . .
58(4) . . .
61(4) . . .
65(4) . . .
52(4) . . .
62(4) . . .
52(4) . . .
58(4) . . .
51(4) . . .
49(4) . . .
54(4) . . .
58(4) . . .
61(4) . . .
54(4) . . .
55(4) . . .
45.2(35) . . .
60(4) . . .
50(4) . . .
56(4) . . .
51(4) . . .
54(4) . . .
49(4) . . .
62(4) . . .
52(4) . . .
54(4) . . .
54(4) . . .
57(4) . . .
55(4) . . .
61(4) . . .
66(4) . . .
57(4) . . .
57(4) . . .
53(4) . . .
54(4) . . .
54(4) . . .
57(4) . . .
51(4) . . .
55(4) . . .
63(4) . . .
43.3(34) . . .
45.1(34) . . .
53(4) . . .
60(4) . . .
62(4) . . .
58(4) . . .
51(4) . . .
42.8(35) . . .
56(4) . . .
56(4) . . .
55(4) . . .
55(4) . . .
54(4) . . .
59(4) . . .
61(4) . . .
64(4) . . .
53(4) . . .
62(4) . . .
54(4) . . .
53(4) . . .
50(4) . . .
56(4) . . .
53(4) . . .
54(4) . . .
49(4) . . .
53(4) . . .
55(4) . . .
49(4) . . .
46(4) . . .
67(4) . . .
45(4) . . .
51(4) . . .
55(4) . . .
66(4) . . .
49(4) . . .
63(4) . . .
54(4) . . .
55(4) . . .
54(4) . . .
53(4) . . .
66(4) . . .
56(4) . . .
64(5) . . .
54(4) . . .
47(4) . . .
55(4) . . .
53(4) . . .
49(4) . . .
57(4) . . .
53(4) . . .
55(4) . . .
51(4) . . .
46(4) . . .
60(4) . . .
52(4) . . .
56(4) . . .
53(4) . . .
54(4) . . .
51(4) . . .
57(4) . . .
57(4) . . .
49(4) . . .
50(4) . . .
63(4) . . .
60(4) . . .
61(4) . . .
47(4) . . .
57(4) . . .
65(4) . . .
55(4) . . .
53(4) . . .
53(4) . . .
47.0(35) . . .
53(4) . . .
55(4) . . .
65(5) . . .
48(4) . . .
67(4) . . .
59(4) . . .
53(4) . . .
55(4) . . .
53(4) . . .
48(4) . . .
54(4) . . .
46(4) . . .
53(4) . . .
53(4) . . .
58(4) . . .
52(4) . . .
62(4) . . .
58(4) . . .
55(4) . . .
56(4) . . .
49(4) . . .
56(4) . . .
60(4) . . .
49(4) . . .
49(4) . . .
48(4) . . .
56(4) . . .
58(4) . . .
43(4) . . .
58(4) . . .
59(4) . . .
48(4) . . .
59(4) . . .
52(4) . . .
67(4) . . .
64(4) . . .
56(4) . . .
60(4) . . .
59(4) . . .
62(4) . . .
49(4) . . .
51(4) . . .
64(4) . . .
59(4) . . .
49(4) . . .
53(4) . . .
51(4) . . .
57(4) . . .
55(4) . . .
56(4) . . .
58(4) . . .
61(4) . . .
54(4) . . .
54(4) . . .
53(4) . . .
52(4) . . .
60(4) . . .
53(4) . . .
51(4) . . .
58(4) . . .
48(4) . . .
50(4) . . .
55(4) . . .
57(4) . . .
51(4) . . .
54(4) . . .
52(4) . . .
57(4) . . .
63(4) . . .
50(4) . . .
60(4) . . .
75(5) . . .
54(4) . . .
54(4) . . .
54(4) . . .
55(4) . . .
56(4) . . .
45.4(35) . . .
58(4) . . .
56(4) . . .
59(4) . . .
55(4) . . .
49(4) . . .
53(4) . . .
58(4) . . .
54(4) . . .
46(4) . . .
55(4) . . .
58(4) . . .
46(4) . . .
54(4) . . .
48(4) . . .
55(4) . . .
57(4) . . .
55(4) . . .
63(5) . . .
54(4) . . .
57(4) . . .
55(4) . . .
58(4) . . .
57(4) . . .
54(4) . . .
59(4) . . .
47(4) . . .
52(4) . . .
56(4) . . .
51(4) . . .
45.6(35) . . .
46.5(35) . . .
50(4) . . .
50(4) . . .
53(4) . . .
55(4) . . .
58(4) . . .
59(4) . . .
56(4) . . .
59(4) . . .
48(4) . . .
49(4) . . .
52(4) . . .
54(4) . . .
45(4) . . .
50(4) . . .
54(4) . . .
57(4) . . .
57(4) . . .
54(4) . . .
57(4) . . .
59(4) . . .
52(4) . . .
44(4) . . .
55(4) . . .
52(4) . . .
61(4) . . .
52(4) . . .
60(4) . . .
54(4) . . .
52(4) . . .
58(4) . . .
54(4) . . .
56(4) . . .
53(4) . . .
54(4) . . .
48(4) . . .
55(4) . . .
46(4) . . .
53(4) . . .
49(4) . . .
56(4) . . .
43(4) . . .
46(4) . . .
59(4) . . .
55(4) . . .
50(4) . . .
55(4) . . .
57(4) . . .
58(4) . . .
58(4) . . .
52(4) . . .
59(5) . . .
49(4) . . .
52(4) . . .
46(4) . . .
48(4) . . .
53(4) . . .
59(4) . . .
48(4) . . .
41.2(34) . . .
56(4) . . .
56(4) . . .
52(4) . . .
57(4) . . .
50(4) . . .
55(4) . . .
59(4) . . .
56(4) . . .
51(4) . . .
58(4) . . .
45(4) . . .
56(4) . . .
56(4) . . .
50(4) . . .
50(4) . . .
51(4) . . .
46.3(35) . . .
52(4) . . .
54(4) . . .
52(4) . . .
44.2(35) . . .
48(4) . . .
58(4) . . .
50(4) . . .
48(4) . . .
52(4) . . .
48(4) . . .
56(4) . . .
61(4) . . .
57(4) . . .
46(4) . . .
54(4) . . .
48(4) . . .
54(4) . . .
60(4) . . .
53(4) . . .
52(4) . . .
57(4) . . .
46(4) . . .
54(4) . . .
64(4) . . .
72(5) . . .
59(4) . . .
52(4) . . .
58(4) . . .
56(4) . . .
50(4) . . .
58(4) . . .
52(4) . . .
51(4) . . .
48(4) . . .
57(4) . . .
57(4) . . .
56(4) . . .
59(4) . . .
52(4) . . .
60(4) . . .
61(4) . . .
62(4) . . .
52(4) . . .
59(4) . . .
67(4) . . .
52(4) . . .
58(4) . . .
48(4) . . .
50(4) . . .
61(4) . . .
54(4) . . .
64(4) . . .
57(4) . . .
55(4) . . .
54(4) . . .
58(4) . . .
58(4) . . .
58(4) . . .
58(4) . . .
50(4) . . .
46(4) . . .
63(4) . . .
47(4) . . .
53(4) . . .
58(4) . . .
56(4) . . .
44.0(34) . . .
48(4) . . .
55(4) . . .
52(4) . . .
47(4) . . .
50(4) . . .
46(4) . . .
50(4) . . .
55(4) . . .
59(4) . . .
52(4) . . .
57(4) . . .
59(4) . . .
62(4) . . .
63(4) . . .
70(5) . . .
49(4) . . .
55(4) . . .
51(4) . . .
53(4) . . .
49(4) . . .
58(4) . . .
56(4) . . .
68(4) . . .
44.1(34) . . .
51(4) . . .
45(4) . . .
37.4(33) . . .
64(4) . . .
45.8(35) . . .
64(4) . . .
59(4) . . .
53(4) . . .
46(4) . . .
62(4) . . .
54(4) . . .
57(4) . . .
58(4) . . .
62(4) . . .
50(4) . . .
60(4) . . .
57(4) . . .
56(4) . . .
50(4) . . .
51(4) . . .
56(4) . . .
48(4) . . .
49(4) . . .
64(4) . . .
47(4) . . .
53(4) . . .
53(4) . . .
56(4) . . .
54(4) . . .
66(4) . . .
57(4) . . .
48(4) . . .
45.1(35) . . .
48(4) . . .
45(4) . . .
53(4) . . .
61(4) . . .
67(4) . . .
64(4) . . .
38.1(33) . . .
53(4) . . .
56(4) . . .
61(4) . . .
57(4) . . .
51(4) . . .
65(4) . . .
50(4) . . .
52(4) . . .
50(4) . . .
53(4) . . .
53(4) . . .
55(4) . . .
50(4) . . .
48(4) . . .
50(4) . . .
59(4) . . .
50(4) . . .
52(4) . . .
48(4) . . .
68(4) . . .
48(4) . . .
48(4) . . .
60(4) . . .
58(4) . . .
48(4) . . .
54(4) . . .
53(4) . . .
50(4) . . .
47(4) . . .
52(4) . . .
51(4) . . .
58(4) . . .
60(4) . . .
45(4) . . .
49(4) . . .
52(4) . . .
52(4) . . .
47(4) . . .
48(4) . . .
59(4) . . .
64(4) . . .
52(4) . . .
42.6(34) . . .
57(4) . . .
49(4) . . .
46.1(35) . . .
54(4) . . .
55(4) . . .
58(4) . . .
54(4) . . .
50(4) . . .
49(4) . . .
51(4) . . .
52(4) . . .
52(4) . . .
68(5) . . .
52(4) . . .
59(4) . . .
68(4) . . .
56(4) . . .
56(4) . . .
47(4) . . .
45.9(35) . . .
49(4) . . .
56(4) . . .
54(4) . . .
53(4) . . .
51(4) . . .
60(4) . . .
51(4) . . .
59(4) . . .
58(4) . . .
58(4) . . .
46(4) . . .
54(4) . . .
64(4) . . .
45(4) . . .
60(4) . . .
54(4) . . .
53(4) . . .
45.4(35) . . .
51(4) . . .
44.1(35) . . .
57(4) . . .
54(4) . . .
44.5(35) . . .
52(4) . . .
47(4) . . .
52(4) . . .
64(4) . . .
56(4) . . .
55(4) . . .
56(4) . . .
61(5) . . .
62(4) . . .
51(4) . . .
50(4) . . .
48(4) . . .
47(4) . . .
64(4) . . .
57(4) . . .
52(4) . . .
51(4) . . .
53(4) . . .
55(4) . . .
55(4) . . .
53(4) . . .
52(4) . . .
49(4) . . .
44(4) . . .
50(4) . . .
49(4) . . .
53(4) . . .
43.8(35) . . .
51(4) . . .
55(4) . . .
69(4) . . .
57(4) . . .
45(4) . . .
54(4) . . .
57(4) . . .
51(4) . . .
62(4) . . .
57(4) . . .
52(4) . . .
52(4) . . .
45(4) . . .
49(4) . . .
59(4) . . .
55(4) . . .
54(4) . . .
53(4) . . .
59(4) . . .
52(4) . . .
56(4) . . .
48(4) . . .
50(4) . . .
59(4) . . .
50(4) . . .
51(4) . . .
54(4) . . .
54(4) . . .
55(4) . . .
45(4) . . .
67(4) . . .
56(4) . . .
53(4) . . .
57(4) . . .
51(4) . . .
45.2(35) . . .
52(4) . . .
56(4) . . .
56(4) . . .
55(4) . . .
52(4) . . .
59(4) . . .
61(4) . . .
48(4) . . .
53(4) . . .
53(4) . . .
52(4) . . .
55(4) . . .
59(4) . . .
62(4) . . .
54(4) . . .
59(4) . . .
45.3(34) . . .
54(4) . . .
57(4) . . .
55(4) . . .
51(4) . . .
44(4) . . .
50(4) . . .
52(4) . . .
47(4) . . .
60(4) . . .
56(4) . . .
50(4) . . .
57(4) . . .
53(4) . . .
51(4) . . .
55(4) . . .
48(4) . . .
68(4) . . .
44(4) . . .
51(4) . . .
48(4) . . .
53(4) . . .
54(4) . . .
67(4) . . .
49(4) . . .
60(4) . . .
52(4) . . .
67(4) . . .
51(4) . . .
43.3(35) . . .
45(4) . . .
54(4) . . .
50(4) . . .
38.5(32) . . .
45.6(35) . . .
53(4) . . .
53(4) . . .
61(4) . . .
51(4) . . .
49(4) . . .
50(4) . . .
53(4) . . .
54(4) . . .
51(4) . . .
62(4) . . .
58(4) . . .
53(4) . . .
50(4) . . .
55(4) . . .
46(4) . . .
47(4) . . .
55(4) . . .
49(4) . . .
51(4) . . .
57(4) . . .
51(4) . . .
49(4) . . .
45(4) . . .
48(4) . . .
54(4) . . .
49(4) . . .
53(4) . . .
42.3(35) . . .
44(4) . . .
48(4) . . .
50(4) . . .
46(4) . . .
59(4) . . .
50(4) . . .
49(4) . . .
52(4) . . .
48(4) . . .
55(4) . . .
58(4) . . .
59(4) . . .
52(4) . . .
57(4) . . .
52(4) . . .
42.5(34) . . .
54(4) . . .
54(4) . . .
49(4) . . .
54(4) . . .
52(4) . . .
58(4) . . .
57(4) . . .
46(4) . . .
58(4) . . .
48(4) . . .
50(4) . . .
46(4) . . .
53(4) . . .
60(4) . . .
52(4) . . .
52(4) . . .
56(4) . . .
56(4) . . .
54(4) . . .
46(4) . . .
50(4) . . .
47(4) . . .
46.0(35) . . .
47(4) . . .
50(4) . . .
56(4) . . .
54(4) . . .
49(4) . . .
50(4) . . .
50(4) . . .
54(4) . . .
52(4) . . .
51(4) . . .
59(4) . . .
47(4) . . .
58(4) . . .
57(4) . . .
59(4) . . .
59(4) . . .
45(4) . . .
47(4) . . .
54(4) . . .
50(4) . . .
47(4) . . .
54(4) . . .
54(4) . . .
56(4) . . .
54(4) . . .
46(4) . . .
53(4) . . .
54(4) . . .
58(4) . . .
46(4) . . .
47(4) . . .
52(4) . . .
49(4) . . .
62(4) . . .
41.5(33) . . .
50(4) . . .
52(4) . . .
54(4) . . .
54(4) . . .
48(4) . . .
45(4) . . .
59(4) . . .
53(4) . . .
52(4) . . .
56(4) . . .
60(4) . . .
54(4) . . .
42(4) . . .
40.1(32) . . .
50(4) . . .
52(4) . . .
49(4) . . .
55(4) . . .
47(4) . . .
42(4) . . .
52(4) . . .
49(4) . . .
54(4) . . .
55(4) . . .
53(4) . . .
59(4) . . .
52(4) . . .
58(4) . . .
55(4) . . .
50(4) . . .
49(4) . . .
49(4) . . .
51(4) . . .
42.2(34) . . .
57(4) . . .
52(4) . . .
46(4) . . .
50(4) . . .
51(4) . . .
59(4) . . .
49(4) . . .
61(4) . . .
56(4) . . .
48(4) . . .
70(5) . . .
56(4) . . .
54(4) . . .
48(4) . . .
58(4) . . .
59(4) . . .
52(4) . . .
52(4) . . .
49(4) . . .
55(4) . . .
55(4) . . .
52(4) . . .
55(4) . . .
59(4) . . .
49(4) . . .
40.2(35) . . .
48(4) . . .
50(4) . . .
57(4) . . .
61(4) . . .
57(4) . . .
58(4) . . .
51(4) . . .
52(4) . . .
61(4) . . .
49(4) . . .
42.2(35) . . .
50(4) . . .
60(4) . . .
53(4) . . .
43.4(35) . . .
51(4) . . .
53(4) . . .
41.5(33) . . .
53(4) . . .
51(4) . . .
54(4) . . .
62(4) . . .
63(4) . . .
55(4) . . .
50(4) . . .
46(4) . . .
44.9(35) . . .
48(4) . . .
48(4) . . .
53(4) . . .
50(4) . . .
49(4) . . .
48(4) . . .
65(4) . . .
53(4) . . .
57(4) . . .
62(4) . . .
47(4) . . .
52(4) . . .
51(4) . . .
47(4) . . .
48(4) . . .
49(4) . . .
54(4) . . .
59(4) . . .
56(4) . . .
52(4) . . .
64(4) . . .
49(4) . . .
47(4) . . .
49(4) . . .
52(4) . . .
47(4) . . .
59(5) . . .
47(4) . . .
42.0(34) . . .
50(4) . . .
53(4) . . .
55(4) . . .
52(4) . . .
53(4) . . .
50(4) . . .
52(4) . . .
45(4) . . .
55(4) . . .
44(4) . . .
48(4) . . .
52(4) . . .
50(4) . . .
57(4) . . .
50(4) . . .
42.8(34) . . .
58(4) . . .
59(4) . . .
52(4) . . .
49(4) . . .
61(4) . . .
51(4) . . .
56(4) . . .
52(4) . . .
44.5(34) . . .
48(4) . . .
53(4) . . .
52(4) . . .
50(4) . . .
56(4) . . .
57(4) . . .
49(4) . . .
44(4) . . .
50(4) . . .
52(4) . . .
49(4) . . .
48(4) . . .
50(4) . . .
55(4) . . .
58(4) . . .
56(4) . . .
51(4) . . .
52(4) . . .
52(4) . . .
46.4(35) . . .
58(4) . . .
51(4) . . .
44.7(34) . . .
55(4) . . .
49(4) . . .
51(4) . . .
48(4) . . .
52(4) . . .
47(4) . . .
42.8(34) . . .
47(4) . . .
64(4) . . .
55(4) . . .
45(4) . . .
53(4) . . .
49(4) . . .
52(4) . . .
42(4) . . .
47(4) . . .
44.6(35) . . .
44(4) . . .
49(4) . . .
53(4) . . .
53(4) . . .
55(4) . . .
49(4) . . .
50(4) . . .
57(4) . . .
59(4) . . .
58(4) . . .
53(4) . . .
43(4) . . .
48(4) . . .
56(4) . . .
52(4) . . .
54(4) . . .
52(4) . . .
54(4) . . .
44.0(34) . . .
55(4) . . .
46(4) . . .
47(4) . . .
58(4) . . .
61(4) . . .
59(4) . . .
48(4) . . .
54(4) . . .
48(4) . . .
44.9(35) . . .
54(4) . . .
54(4) . . .
56(4) . . .
55(4) . . .
55(4) . . .
50(4) . . .
51(4) . . .
53(4) . . .
59(4) . . .
46(4) . . .
58(4) . . .
56(4) . . .
52(4) . . .
50(4) . . .
55(4) . . .
50(4) . . .
52(4) . . .
52(4) . . .
52(4) . . .
53(4) . . .
42.5(35) . . .
51(4) . . .
49(4) . . .
50(4) . . .
47(4) . . .
51(4) . . .
51(4) . . .
49(4) . . .
40.0(33) . . .
48(4) . . .
57(4) . . .
57(4) . . .
53(4) . . .
55(4) . . .
48(4) . . .
49(4) . . .
58(4) . . .
48(4) . . .
52(4) . . .
47(4) . . .
51(4) . . .
50(4) . . .
61(4) . . .
53(4) . . .
58(4) . . .
49(4) . . .
54(4) . . .
53(4) . . .
55(4) . . .
58(4) . . .
49(4) . . .
48(4) . . .
53(4) . . .
35.3(30) . . .
49(4) . . .
49(4) . . .
51(4) . . .
59(4) . . .
47(4) . . .
46(4) . . .
58(4) . . .
58(4) . . .
50(4) . . .
43.4(35) . . .
55(4) . . .
53(4) . . .
46(4) . . .
46.0(34) . . .
57(4) . . .
51(4) . . .
62(4) . . .
52(4) . . .
56(4) . . .
41.5(34) . . .
52(4) . . .
49(4) . . .
51(4) . . .
60(4) . . .
68(4) . . .
47(4) . . .
50(4) . . .
50(4) . . .
51(4) . . .
52(4) . . .
51(4) . . .
50(4) . . .
48(4) . . .
51(4) . . .
50(4) . . .
43(4) . . .
49(4) . . .
51(4) . . .
62(4) . . .
57(4) . . .
63(4) . . .
57(4) . . .
53(4) . . .
53(4) . . .
54(4) . . .
57(4) . . .
50(4) . . .
51(4) . . .
51(4) . . .
41.2(34) . . .
48(4) . . .
55(4) . . .
50(4) . . .
53(4) . . .
49(4) . . .
46(4) . . .
41.2(34) . . .
39.3(34) . . .
51(4) . . .
49(4) . . .
59(4) . . .
48(4) . . .
52(4) . . .
65(4) . . .
57(4) . . .
55(4) . . .
47(4) . . .
52(4) . . .
61(4) . . .
54(4) . . .
56(4) . . .
47(4) . . .
57(4) . . .
55(4) . . .
44(4) . . .
57(4) . . .
49(4) . . .
44.0(34) . . .
45.2(35) . . .
46(4) . . .
47(4) . . .
64(4) . . .
46.0(35) . . .
42.6(35) . . .
45(4) . . .
47(4) . . .
42.3(34) . . .
49(4) . . .
38.2(33) . . .
49(4) . . .
52(4) . . .
55(4) . . .
59(4) . . .
51(4) . . .
58(4) . . .
50(4) . . .
51(4) . . .
53(4) . . .
51(4) . . .
49(4) . . .
45(4) . . .
54(4) . . .
52(4) . . .
56(4) . . .
51(4) . . .
43(4) . . .
50(4) . . .
55(4) . . .
45(4) . . .
62(4) . . .
53(4) . . .
51(4) . . .
57(4) . . .
56(4) . . .
52(4) . . .
53(4) . . .
60(4) . . .
57(4) . . .
52(4) . . .
51(4) . . .
58(4) . . .
45(4) . . .
47(4) . . .
57(4) . . .
46(4) . . .
53(4) . . .
55(4) . . .
48(4) . . .
52(4) . . .
54(4) . . .
55(4) . . .
49(4) . . .
50(4) . . .
50(4) . . .
48(4) . . .
52(4) . . .
48(4) . . .
45.0(34) . . .
48(4) . . .
52(4) . . .
57(4) . . .
54(4) . . .
54(4) . . .
50(4) . . .
50(4) . . .
56(4) . . .
40.8(33) . . .
52(4) . . .
52(4) . . .
50(4) . . .
41.0(34) . . .
53(4) . . .
43.8(34) . . .
53(4) . . .
47(4) . . .
34.7(31) . . .
43.4(34) . . .
54(4) . . .
48(4) . . .
49(4) . . .
51(4) . . .
42.5(34) . . .
52(4) . . .
55(4) . . .
55(4) . . .
52(4) . . .
51(4) . . .
52(4) . . .
52(4) . . .
47(4) . . .
52(4) . . .
58(4) . . .
45(4) . . .
46(4) . . .
49(4) . . .
54(4) . . .
40.7(33) . . .
47(4) . . .
49(4) . . .
55(4) . . .
40.8(34) . . .
48(4) . . .
48(4) . . .
52(4) . . .
66(4) . . .
61(4) . . .
48(4) . . .
53(4) . . .
50(4) . . .
42(4) . . .
50(4) . . .
41.3(34) . . .
47(4) . . .
47(4) . . .
50(4) . . .
53(4) . . .
47(4) . . .
42.1(33) . . .
46(4) . . .
56(4) . . .
49(4) . . .
42.0(34) . . .
51(4) . . .
38.5(33) . . .
44.3(35) . . .
56(4) . . .
57(4) . . .
58(4) . . .
47(4) . . .
52(4) . . .
46(4) . . .
41.9(34) . . .
61(4) . . .
56(4) . . .
47(4) . . .
51(4) . . .
49(4) . . .
52(4) . . .
50(4) . . .
45(4) . . .
43.3(34) . . .
48(4) . . .
51(4) . . .
49(4) . . .
50(4) . . .
50(4) . . .
52(4) . . .
53(4) . . .
48(4) . . .
49(4) . . .
61(4) . . .
54(4) . . .
48(4) . . .
50(4) . . .
47(4) . . .
45(4) . . .
58(4) . . .
48(4) . . .
43(4) . . .
39.2(33) . . .
44.4(34) . . .
52(4) . . .
47(4) . . .
50(4) . . .
52(4) . . .
53(4) . . .
54(4) . . .
56(4) . . .
54(4) . . .
48(4) . . .
44.3(35) . . .
56(4) . . .
46(4) . . .
52(4) . . .
53(4) . . .
43.7(34) . . .
48(4) . . .
41.4(33) . . .
44(4) . . .
48(4) . . .
61(4) . . .
59(4) . . .
58(4) . . .
57(4) . . .
57(4) . . .
48(4) . . .
52(4) . . .
56(4) . . .
50(4) . . .
49(4) . . .
50(4) . . .
54(4) . . .
53(4) . . .
47(4) . . .
60(4) . . .
46(4) . . .
47(4) . . .
49(4) . . .
53(4) . . .
43.3(34) . . .
51(4) . . .
51(4) . . .
52(4) . . .
54(4) . . .
53(4) . . .
46(4) . . .
42(4) . . .
55(4) . . .
50(4) . . .
46.2(35) . . .
47(4) . . .
53(4) . . .
48(4) . . .
57(4) . . .
39.4(33) . . .
46(4) . . .
52(4) . . .
45(4) . . .
53(4) . . .
53(4) . . .
50(4) . . .
48(4) . . .
54(4) . . .
51(4) . . .
50(4) . . .
46(4) . . .
44(4) . . .
49(4) . . .
42.5(34) . . .
45(4) . . .
46(4) . . .
44(4) . . .
51(4) . . .
52(4) . . .
45(4) . . .
46(4) . . .
48(4) . . .
44.8(34) . . .
46(4) . . .
45(4) . . .
49(4) . . .
44.5(35) . . .
45.3(35) . . .
51(4) . . .
46(4) . . .
49(4) . . .
49(4) . . .
50(4) . . .
55(4) . . .
56(4) . . .
47(4) . . .
50(4) . . .
47(4) . . .
47(4) . . .
52(4) . . .
47(4) . . .
44.5(35) . . .
56(4) . . .
49(4) . . .
46(4) . . .
47(4) . . .
40.4(33) . . .
57(4) . . .
46(4) . . .
50(4) . . .
50(4) . . .
51(4) . . .
55(4) . . .
56(4) . . .
49(4) . . .
59(4) . . .
53(4) . . .
64(4) . . .
58(4) . . .
55(4) . . .
46(4) . . .
50(4) . . .
49(4) . . .
51(4) . . .
45(4) . . .
49(4) . . .
50(4) . . .
49(4) . . .
47(4) . . .
48(4) . . .
59(4) . . .
49(4) . . .
42.6(34) . . .
50(4) . . .
61(4) . . .
49(4) . . .
54(4) . . .
62(4) . . .
52(4) . . .
44(4) . . .
44(4) . . .
53(4) . . .
50(4) . . .
48(4) . . .
45(4) . . .
45(4) . . .
43.9(34) . . .
45(4) . . .
58(4) . . .
56(4) . . .
60(4) . . .
49(4) . . .
53(4) . . .
44(4) . . .
44(4) . . .
49(4) . . .
49(4) . . .
50(4) . . .
49(4) . . .
61(4) . . .
48(4) . . .
49(4) . . .
46(4) . . .
48(4) . . .
43(4) . . .
52(4) . . .
43.8(34) . . .
48(4) . . .
46(4) . . .
55(4) . . .
50(4) . . .
49(4) . . .
46(4) . . .
55(4) . . .
67(4) . . .
47(4) . . .
44.7(35) . . .
49(4) . . .
48(4) . . .
46(4) . . .
58(4) . . .
54(4) . . .
41.8(34) . . .
55(4) . . .
48(4) . . .
50(4) . . .
54(4) . . .
53(4) . . .
48(4) . . .
59(4) . . .
60(4) . . .
47(4) . . .
46(4) . . .
48(4) . . .
45(4) . . .
58(4) . . .
53(4) . . .
51(4) . . .
59(4) . . .
59(4) . . .
48(4) . . .
63(4) . . .
53(4) . . .
58(4) . . .
47(4) . . .
57(4) . . .
43(4) . . .
52(4) . . .
48(4) . . .
57(4) . . .
49(4) . . .
51(4) . . .
51(4) . . .
46(4) . . .
48(4) . . .
41.5(34) . . .
46(4) . . .
45(4) . . .
49(4) . . .
53(4) . . .
51(4) . . .
47(4) . . .
50(4) . . .
45(4) . . .
47(4) . . .
47(4) . . .
49(4) . . .
43(4) . . .
59(4) . . .
49(4) . . .
58(4) . . .
54(4) . . .
47(4) . . .
55(4) . . .
42.5(34) . . .
47(4) . . .
54(4) . . .
46(4) . . .
50(4) . . .
52(4) . . .
48(4) . . .
51(4) . . .
50(4) . . .
53(4) . . .
48(4) . . .
54(4) . . .
46(4) . . .
50(4) . . .
50(4) . . .
54(4) . . .
50(4) . . .
52(4) . . .
51(4) . . .
55(4) . . .
54(4) . . .
55(4) . . .
56(4) . . .
45(4) . . .
49(4) . . .
47(4) . . .
46(4) . . .
46(4) . . .
44(4) . . .
48(4) . . .
58(4) . . .
60(4) . . .
45.8(35) . . .
57(4) . . .
57(4) . . .
46(4) . . .
39.7(34) . . .
51(4) . . .
53(4) . . .
55(4) . . .
38.4(32) . . .
51(4) . . .
54(4) . . .
47(4) . . .
47(4) . . .
52(4) . . .
49(4) . . .
47(4) . . .
48(4) . . .
43.6(34) . . .
59(4) . . .
44(4) . . .
47(4) . . .
49(4) . . .
56(4) . . .
54(4) . . .
60(4) . . .
47(4) . . .
44(4) . . .
57(4) . . .
53(4) . . .
45(4) . . .
46(4) . . .
39.8(32) . . .
54(4) . . .
55(4) . . .
51(4) . . .
43.0(35) . . .
55(4) . . .
62(4) . . .
47(4) . . .
49(4) . . .
46(4) . . .
49(4) . . .
47(4) . . .
53(4) . . .
50(4) . . .
52(4) . . .
48(4) . . .
54(4) . . .
47(4) . . .
50(4) . . .
50(4) . . .
53(4) . . .
45.8(35) . . .
49(4) . . .
52(4) . . .
52(4) . . .
52(4) . . .
44.2(35) . . .
57(4) . . .
52(4) . . .
50(4) . . .
44.1(35) . . .
51(4) . . .
39.2(34) . . .
52(4) . . .
44(4) . . .
41.2(33) . . .
46(4) . . .
39.8(33) . . .
51(4) . . .
44(4) . . .
47(4) . . .
45(4) . . .
49(4) . . .
48(4) . . .
54(4) . . .
57(4) . . .
46(4) . . .
46(4) . . .
48(4) . . .
48(4) . . .
41.0(33) . . .
43.1(35) . . .
38.2(32) . . .
48(4) . . .
42.6(34) . . .
55(4) . . .
45(4) . . .
40.2(34) . . .
47(4) . . .
49(4) . . .
47(4) . . .
56(4) . . .
57(4) . . .
48(4) . . .
49(4) . . .
50(4) . . .
56(4) . . .
49(4) . . .
39.3(35) . . .
51(4) . . .
47(4) . . .
48(4) . . .
47(4) . . .
51(4) . . .
45(4) . . .
53(4) . . .
55(4) . . .
42.3(33) . . .
50(4) . . .
59(4) . . .
49(4) . . .
46(4) . . .
53(4) . . .
45(4) . . .
46(4) . . .
53(4) . . .
46(4) . . .
48(4) . . .
58(4) . . .
58(4) . . .
52(4) . . .
46(4) . . .
52(4) . . .
52(4) . . .
56(4) . . .
46(4) . . .
52(4) . . .
49(4) . . .
49(4) . . .
43.5(34) . . .
42.8(34) . . .
47(4) . . .
51(4) . . .
51(4) . . .
49(4) . . .
56(4) . . .
49(4) . . .
46(4) . . .
44(4) . . .
43(4) . . .
55(4) . . .
51(4) . . .
47(4) . . .
44(4) . . .
43.6(34) . . .
59(4) . . .
41.6(33) . . .
56(4) . . .
46(4) . . .
54(4) . . .
44(4) . . .
55(4) . . .
53(4) . . .
49(4) . . .
40.3(34) . . .
39.7(33) . . .
34.3(32) . . .
46(4) . . .
52(4) . . .
41.3(33) . . .
50(4) . . .
44(4) . . .
48(4) . . .
51(4) . . .
56(4) . . .
48(4) . . .
51(4) . . .
51(4) . . .
46(4) . . .
38.1(33) . . .
52(4) . . .
49(4) . . .
58(4) . . .
53(4) . . .
48(4) . . .
47(4) . . .
49(4) . . .
53(4) . . .
53(4) . . .
48(4) . . .
53(4) . . .
53(4) . . .
51(4) . . .
55(4) . . .
51(4) . . .
41.0(33) . . .
49(4) . . .
43.1(34) . . .
58(4) . . .
56(4) . . .
49(4) . . .
50(4) . . .
48(4) . . .
44.5(34) . . .
46(4) . . .
54(4) . . .
51(4) . . .
47(4) . . .
54(4) . . .
43.0(34) . . .
49(4) . . .
43(4) . . .
48(4) . . .
49(4) . . .
50(4) . . .
49(4) . . .
48(4) . . .
36.2(31) . . .
41.5(34) . . .
53(4) . . .
51(4) . . .
43.5(35) . . .
44(4) . . .
50(4) . . .
54(4) . . .
56(4) . . .
46(4) . . .
57(4) . . .
47(4) . . .
46(4) . . .
51(4) . . .
48(4) . . .
48(4) . . .
49(4) . . .
51(4) . . .
40.4(33) . . .
52(4) . . .
43.5(35) . . .
54(4) . . .
52(4) . . .
47(4) . . .
48(4) . . .
48(4) . . .
40.2(33) . . .
54(4) . . .
53(4) . . .
45(4) . . .
46(4) . . .
54(4) . . .
41.5(33) . . .
46(4) . . .
48(4) . . .
62(4) . . .
54(4) . . .
55(4) . . .
51(4) . . .
49(4) . . .
51(4) . . .
48(4) . . .
49(4) . . .
42(4) . . .
55(4) . . .
41.8(34) . . .
43.6(34) . . .
56(4) . . .
50(4) . . .
52(4) . . .
49(4) . . .
55(4) . . .
48(4) . . .
45(4) . . .
47(4) . . .
47(4) . . .
43(4) . . .
49(4) . . .
49(4) . . .
56(4) . . .
65(4) . . .
56(4) . . .
41(4) . . .
46(4) . . .
48(4) . . .
41.1(34) . . .
40.1(34) . . .
47(4) . . .
41(4) . . .
50(4) . . .
40.9(33) . . .
38.8(34) . . .
40.1(34) . . .
50(4) . . .
48(4) . . .
50(4) . . .
52(4) . . .
54(4) . . .
45(4) . . .
53(4) . . .
53(4) . . .
46(4) . . .
50(4) . . .
53(4) . . .
54(4) . . .
42.8(34) . . .
52(4) . . .
49(4) . . .
48(4) . . .
49(4) . . .
46(4) . . .
55(4) . . .
47(4) . . .
51(4) . . .
51(4) . . .
53(4) . . .
46(4) . . .
45(4) . . .
49(4) . . .
54(4) . . .
52(4) . . .
41.3(35) . . .
47(4) . . .
41.3(34) . . .
42.0(34) . . .
46(4) . . .
65(5) . . .
53(4) . . .
55(4) . . .
49(4) . . .
49(4) . . .
50(4) . . .
52(4) . . .
54(4) . . .
53(4) . . .
50(4) . . .
46(4) . . .
50(4) . . .
43.3(34) . . .
55(4) . . .
54(4) . . .
45(4) . . .
49(4) . . .
54(4) . . .
44.2(34) . . .
45.7(35) . . .
41.9(34) . . .
46(4) . . .
47(4) . . .
50(4) . . .
43(4) . . .
43(4) . . .
51(4) . . .
55(4) . . .
44.1(34) . . .
38.9(32) . . .
53(4) . . .
46(4) . . .
40.5(33) . . .
42.2(35) . . .
49(4) . . .
42.2(35) . . .
49(4) . . .
43.8(34) . . .
45(4) . . .
45(4) . . .
58(4) . . .
50(4) . . .
42.2(34) . . .
43.5(34) . . .
53(4) . . .
59(4) . . .
53(4) . . .
50(4) . . .
56(4) . . .
51(4) . . .
53(4) . . .
38.9(32) . . .
46(4) . . .
48(4) . . .
41.6(35) . . .
43.3(35) . . .
53(4) . . .
49(4) . . .
58(4) . . .
42.9(34) . . .
51(4) . . .
50(4) . . .
45.0(35) . . .
56(4) . . .
44(4) . . .
44(4) . . .
48(4) . . .
44(4) . . .
52(4) . . .
52(4) . . .
44.8(35) . . .
50(4) . . .
57(4) . . .
54(4) . . .
49(4) . . .
39.2(33) . . .
35.0(31) . . .
41.9(34) . . .
44(4) . . .
46(4) . . .
56(4) . . .
54(4) . . .
55(4) . . .
43(4) . . .
40.7(33) . . .
44(4) . . .
43.6(34) . . .
44(4) . . .
52(4) . . .
50(4) . . .
52(4) . . .
45(4) . . .
45(4) . . .
46(4) . . .
53(4) . . .
45(4) . . .
58(4) . . .
45(4) . . .
47(4) . . .
47(4) . . .
50(4) . . .
44.1(35) . . .
45(4) . . .
40.3(34) . . .
48(4) . . .
41.3(35) . . .
47(4) . . .
52(4) . . .
52(4) . . .
47(4) . . .
53(4) . . .
53(4) . . .
59(4) . . .
54(4) . . .
35.9(32) . . .
46(4) . . .
50(4) . . .
45(4) . . .
55(4) . . .
54(4) . . .
49(4) . . .
35.3(31) . . .
45.3(35) . . .
47(4) . . .
49(4) . . .
49(4) . . .
43.9(35) . . .
57(4) . . .
60(4) . . .
53(4) . . .
51(4) . . .
42.7(34) . . .
53(4) . . .
46(4) . . .
45(4) . . .
51(4) . . .
50(4) . . .
46(4) . . .
47(4) . . .
52(4) . . .
48(4) . . .
47(4) . . .
47(4) . . .
50(4) . . .
47(4) . . .
52(4) . . .
52(4) . . .
45(4) . . .
49(4) . . .
55(4) . . .
55(4) . . .
61(4) . . .
57(4) . . .
52(4) . . .
47(4) . . .
54(4) . . .
41(4) . . .
52(4) . . .
52(4) . . .
47(4) . . .
46(4) . . .
50(4) . . .
53(4) . . .
51(4) . . .
46(4) . . .
56(4) . . .
45.0(35) . . .
39(4) . . .
38.6(33) . . .
45(4) . . .
50(4) . . .
47(4) . . .
50(4) . . .
36.9(33) . . .
44.0(34) . . .
46(4) . . .
51(4) . . .
48(4) . . .
53(4) . . .
50(4) . . .
51(4) . . .
43(4) . . .
35.8(32) . . .
57(4) . . .
47(4) . . .
52(4) . . .
52(4) . . .
46(4) . . .
48(4) . . .
43.9(35) . . .
45.4(35) . . .
44(4) . . .
40.5(35) . . .
42.2(34) . . .
42.9(35) . . .
40.6(34) . . .
47(4) . . .
45(4) . . .
42(4) . . .
55(4) . . .
52(4) . . .
46(4) . . .
52(4) . . .
48(4) . . .
54(4) . . .
47(4) . . .
50(4) . . .
47(4) . . .
50(4) . . .
53(4) . . .
40.9(34) . . .
38.8(33) . . .
49(4) . . .
47(4) . . .
43.9(35) . . .
57(4) . . .
51(4) . . .
48(4) . . .
49(4) . . .
53(4) . . .
51(4) . . .
50(4) . . .
42.5(34) . . .
47(4) . . .
37.0(32) . . .
48(4) . . .
48(4) . . .
46(4) . . .
43.8(35) . . .
55(4) . . .
41.1(33) . . .
50(4) . . .
44.5(35) . . .
43.1(34) . . .
41.3(33) . . .
49(4) . . .
53(4) . . .
46(4) . . .
42.4(34) . . .
38.7(33) . . .
48(4) . . .
52(4) . . .
47(4) . . .
45(4) . . .
61(4) . . .
40.7(34) . . .
48(4) . . .
49(4) . . .
46(4) . . .
57(4) . . .
44(4) . . .
41.6(35) . . .
47(4) . . .
52(4) . . .
50(4) . . .
38.7(33) . . .
42.0(32) . . .
53(4) . . .
51(4) . . .
48(4) . . .
46(4) . . .
54(4) . . .
47(4) . . .
46(4) . . .
48(4) . . .
51(4) . . .
44(4) . . .
48(4) . . .
48(4) . . .
46(4) . . .
56(4) . . .
45(4) . . .
41.8(34) . . .
48(4) . . .
46(4) . . .
46(4) . . .
47(4) . . .
44.2(34) . . .
48(4) . . .
41.8(34) . . .
48(4) . . .
52(4) . . .
47(4) . . .
40.8(34) . . .
36.5(34) . . .
49(4) . . .
45(4) . . .
43.4(34) . . .
51(4) . . .
45(4) . . .
50(4) . . .
44(4) . . .
44(4) . . .
47(4) . . .
44.5(35) . . .
55(4) . . .
47(4) . . .
37.5(32) . . .
52(4) . . .
42(4) . . .
48(4) . . .
54(4) . . .
49(4) . . .
45.4(35) . . .
47(4) . . .
58(4) . . .
43.7(34) . . .
41.8(33) . . .
42.0(35) . . .
48(4) . . .
54(4) . . .
46(4) . . .
46(4) . . .
55(4) . . .
58(4) . . .
46(4) . . .
40.1(33) . . .
41.5(35) . . .
44(4) . . .
42(4) . . .
53(4) . . .
49(4) . . .
38.3(34) . . .
37.3(31) . . .
54(4) . . .
47(4) . . .
41.7(33) . . .
51(4) . . .
46(4) . . .
54(4) . . .
49(4) . . .
41.3(33) . . .
54(4) . . .
57(4) . . .
52(4) . . .
61(4) . . .
58(4) . . .
43(4) . . .
49(4) . . .
53(4) . . .
49(4) . . .
46(4) . . .
42.9(34) . . .
46(4) . . .
49(4) . . .
47(4) . . .
44.9(35) . . .
46(4) . . .
46(4) . . .
52(4) . . .
47(4) . . .
40.1(33) . . .
55(4) . . .
50(4) . . .
49(4) . . .
44.4(35) . . .
45.8(35) . . .
46(4) . . .
48(4) . . .
52(4) . . .
40.5(35) . . .
56(4) . . .
45(4) . . .
46(4) . . .
44(4) . . .
50(4) . . .
51(4) . . .
46(4) . . .
43(4) . . .
45(4) . . .
56(4) . . .
54(4) . . .
51(4) . . .
53(4) . . .
45(4) . . .
42.8(35) . . .
40.0(34) . . .
47(4) . . .
44.5(35) . . .
43.3(34) . . .
48(4) . . .
55(4) . . .
52(4) . . .
48(4) . . .
46(4) . . .
46(4) . . .
53(4) . . .
44.3(35) . . .
55(4) . . .
57(4) . . .
48(4) . . .
50(4) . . .
43.3(35) . . .
46(4) . . .
43.9(34) . . .
53(4) . . .
40.1(34) . . .
50(4) . . .
53(4) . . .
57(4) . . .
52(4) . . .
53(4) . . .
49(4) . . .
49(4) . . .
44.6(34) . . .
49(4) . . .
45(4) . . .
41(4) . . .
39.0(35) . . .
52(4) . . .
53(4) . . .
46(4) . . .
41(4) . . .
49(4) . . .
49(4) . . .
45(4) . . .
46(4) . . .
50(4) . . .
44(4) . . .
41.3(33) . . .
38.6(32) . . .
47(4) . . .
39.5(35) . . .
54(4) . . .
48(4) . . .
53(4) . . .
51(4) . . .
54(4) . . .
49(4) . . .
43.1(34) . . .
45.9(35) . . .
42.5(35) . . .
55(4) . . .
48(4) . . .
38.3(33) . . .
49(4) . . .
53(4) . . .
55(4) . . .
40.3(35) . . .
57(4) . . .
49(4) . . .
48(4) . . .
44.2(35) . . .
47(4) . . .
50(4) . . .
53(4) . . .
54(4) . . .
48(4) . . .
51(4) . . .
48(4) . . .
48(4) . . .
58(4) . . .
50(4) . . .
62(4) . . .
53(4) . . .
52(4) . . .
37.6(32) . . .
43.1(34) . . .
62(4) . . .
52(4) . . .
49(4) . . .
50(4) . . .
53(4) . . .
56(4) . . .
36.8(32) . . .
49(4) . . .
51(4) . . .
44(4) . . .
46(4) . . .
48(4) . . .
45(4) . . .
48(4) . . .
47(4) . . .
45.4(35) . . .
45.0(35) . . .
52(4) . . .
47(4) . . .
36.5(32) . . .
46.0(35) . . .
42.0(34) . . .
50(4) . . .
49(4) . . .
49(4) . . .
49(4) . . .
50(4) . . .
48(4) . . .
57(4) . . .
54(4) . . .
62(4) . . .
43.3(35) . . .
52(4) . . .
48(4) . . .
59(4) . . .
57(4) . . .
45(4) . . .
56(4) . . .
56(4) . . .
54(4) . . .
52(4) . . .
48(4) . . .
54(4) . . .
49(4) . . .
56(4) . . .
51(4) . . .
44(4) . . .
48(4) . . .
57(4) . . .
52(4) . . .
43.0(34) . . .
41.5(35) . . .
48(4) . . .
50(4) . . .
50(4) . . .
51(4) . . .
39.6(33) . . .
42.6(35) . . .
52(4) . . .
42.3(33) . . .
46(4) . . .
47(4) . . .
50(4) . . .
41.0(34) . . .
53(4) . . .
58(4) . . .
54(4) . . .
52(4) . . .
39.5(34) . . .
49(4) . . .
43.0(35) . . .
48(4) . . .
39.5(34) . . .
45(4) . . .
44.1(35) . . .
46(4) . . .
50(4) . . .
50(4) . . .
45(4) . . .
50(4) . . .
50(4) . . .
53(4) . . .
46(4) . . .
47(4) . . .
44.5(35) . . .
61(4) . . .
41.5(35) . . .
46(4) . . .
47(4) . . .
54(4) . . .
41.0(34) . . .
53(4) . . .
53(4) . . .
51(4) . . .
51(4) . . .
45(4) . . .
46(4) . . .
50(4) . . .
47(4) . . .
50(4) . . .
49(4) . . .
54(4) . . .
52(4) . . .
49(4) . . .
52(4) . . .
39.2(32) . . .
53(4) . . .
53(4) . . .
50(4) . . .
54(4) . . .
55(4) . . .
39.8(34) . . .
50(4) . . .
38.6(32) . . .
56(4) . . .
53(4) . . .
41(4) . . .
42.7(35) . . .
46(4) . . .
53(4) . . .
51(4) . . .
45(4) . . .
48(4) . . .
47(4) . . .
41.0(33) . . .
54(4) . . .
49(4) . . .
38.3(33) . . .
48(4) . . .
42.3(34) . . .
45(4) . . .
48(4) . . .
49(4) . . .
42.9(34) . . .
47(4) . . .
42.1(34) . . .
49(4) . . .
48(4) . . .
61(4) . . .
50(4) . . .
56(4) . . .
53(4) . . .
39.0(33) . . .
47(4) . . .
55(4) . . .
38.3(33) . . .
46(4) . . .
46(4) . . .
37.9(32) . . .
45(4) . . .
41(4) . . .
46(4) . . .
36.1(31) . . .
39.5(33) . . .
47(4) . . .
49(4) . . .
55(4) . . .
37.8(33) . . .
37.1(32) . . .
48(4) . . .
55(4) . . .
50(4) . . .
40.9(34) . . .
45(4) . . .
51(4) . . .
46(4) . . .
52(4) . . .
43.9(34) . . .
49(4) . . .
36.2(31) . . .
52(4) . . .
59(4) . . .
46(4) . . .
45(4) . . .
49(4) . . .
47(4) . . .
45(4) . . .
46(4) . . .
48(4) . . .
57(4) . . .
47(4) . . .
52(4) . . .
58(4) . . .
45(4) . . .
48(4) . . .
54(4) . . .
42.7(35) . . .
53(4) . . .
47(4) . . .
41.2(35) . . .
50(4) . . .
49(4) . . .
43.1(34) . . .
53(4) . . .
43(4) . . .
48(4) . . .
48(4) . . .
45.0(35) . . .
51(4) . . .
33.4(31) . . .
44(4) . . .
55(4) . . .
49(4) . . .
39.2(34) . . .
42(4) . . .
41(4) . . .
43.1(34) . . .
41.4(35) . . .
44(4) . . .
55(4) . . .
43(4) . . .
52(4) . . .
38.5(32) . . .
51(4) . . .
49(4) . . .
50(4) . . .
45(4) . . .
42.7(34) . . .
47(4) . . .
48(4) . . .
34.4(32) . . .
45.1(35) . . .
56(4) . . .
50(4) . . .
49(4) . . .
46(4) . . .
44.5(34) . . .
44(4) . . .
53(4) . . .
46(4) . . .
35.2(33) . . .
58(4) . . .
49(4) . . .
46(4) . . .
43(4) . . .
43(4) . . .
49(4) . . .
53(4) . . .
46(4) . . .
40.0(34) . . .
51(4) . . .
49(4) . . .
38.8(34) . . .
47(4) . . .
48(4) . . .
47(4) . . .
57(4) . . .
43.2(35) . . .
48(4) . . .
44(4) . . .
53(4) . . .
42.9(34) . . .
59(4) . . .
44(4) . . .
51(4) . . .
48(4) . . .
50(4) . . .
46(4) . . .
45(4) . . .
43(4) . . .
41.2(34) . . .
46.0(35) . . .
49(4) . . .
49(4) . . .
51(4) . . .
51(4) . . .
44.0(34) . . .
51(4) . . .
40.2(34) . . .
45(4) . . .
53(4) . . .
45.3(35) . . .
47(4) . . .
58(4) . . .
48(4) . . .
53(4) . . .
43.2(34) . . .
49(4) . . .
53(4) . . .
47(4) . . .
50(4) . . .
57(4) . . .
50(4) . . .
33.5(29) . . .
52(4) . . .
56(4) . . .
50(4) . . .
40.3(34) . . .
49(4) . . .
43.1(35) . . .
48(4) . . .
50(4) . . .
43(4) . . .
45(4) . . .
43(4) . . .
48(4) . . .
61(4) . . .
52(4) . . .
59(4) . . .
54(4) . . .
42.8(35) . . .
45(4) . . .
42.3(34) . . .
57(4) . . .
45(4) . . .
48(4) . . .
45(4) . . .
54(4) . . .
52(4) . . .
52(4) . . .
46(4) . . .
46(4) . . .
46(4) . . .
53(4) . . .
53(4) . . .
48(4) . . .
49(4) . . .
49(4) . . .
57(4) . . .
47(4) . . .
50(4) . . .
45(4) . . .
54(4) . . .
51(4) . . .
48(4) . . .
42.5(34) . . .
50(4) . . .
43(4) . . .
48(4) . . .
44.8(35) . . .
42(4) . . .
42.9(34) . . .
49(4) . . .
60(4) . . .
46(4) . . .
44.8(34) . . .
47(4) . . .
49(4) . . .
55(4) . . .
37.4(32) . . .
46(4) . . .
47(4) . . .
52(4) . . .
45(4) . . .
47(4) . . .
45(4) . . .
55(4) . . .
59(4) . . .
51(4) . . .
57(4) . . .
47(4) . . .
42(4) . . .
48(4) . . .
49(4) . . .
45(4) . . .
55(4) . . .
46(4) . . .
48(4) . . .
53(4) . . .
58(4) . . .
50(4) . . .
46(4) . . .
54(4) . . .
39.1(32) . . .
37.8(32) . . .
50(4) . . .
44(4) . . .
51(4) . . .
47(4) . . .
43.1(34) . . .
43.9(35) . . .
48(4) . . .
46(4) . . .
49(4) . . .
38.7(33) . . .
43(4) . . .
49(4) . . .
43(4) . . .
39.2(33) . . .
55(4) . . .
54(4) . . .
50(4) . . .
39.6(35) . . .
44.1(35) . . .
39.1(33) . . .
42(4) . . .
51(4) . . .
57(4) . . .
49(4) . . .
55(4) . . .
56(4) . . .
53(4) . . .
45(4) . . .
49(4) . . .
49(4) . . .
47(4) . . .
53(4) . . .
49(4) . . .
43.7(35) . . .
43(4) . . .
43(4) . . .
51(4) . . .
42(4) . . .
55(4) . . .
56(4) . . .
49(4) . . .
55(4) . . .
59(4) . . .
45(4) . . .
37.9(32) . . .
47(4) . . .
46(4) . . .
49(4) . . .
46(4) . . .
52(4) . . .
46(4) . . .
41.6(34) . . .
52(4) . . .
55(4) . . .
46(4) . . .
58(4) . . .
51(4) . . .
40.3(33) . . .
51(4) . . .
52(4) . . .
44(4) . . .
46(4) . . .
49(4) . . .
52(4) . . .
49(4) . . .
41(4) . . .
49(4) . . .
45.6(35) . . .
44.6(35) . . .
48(4) . . .
49(4) . . .
37.4(33) . . .
43.6(34) . . .
50(4) . . .
50(4) . . .
45(4) . . .
53(4) . . .
40.5(33) . . .
46.3(35) . . .
60(4) . . .
51(4) . . .
45(4) . . .
44.6(35) . . .
43.3(35) . . .
43.4(35) . . .
48(4) . . .
50(4) . . .
50(4) . . .
41.0(34) . . .
51(4) . . .
51(4) . . .
50(4) . . .
42.2(34) . . .
52(4) . . .
43(4) . . .
54(4) . . .
37.1(32) . . .
46(4) . . .
51(4) . . .
47(4) . . .
43.0(35) . . .
47(4) . . .
48(4) . . .
49(4) . . .
49(4) . . .
46(4) . . .
47(4) . . .
55(4) . . .
53(4) . . .
47(4) . . .
52(4) . . .
53(4) . . .
59(4) . . .
47(4) . . .
43(4) . . .
37.4(34) . . .
38.4(33) . . .
43(4) . . .
50(4) . . .
44.5(35) . . .
39.1(33) . . .
41.1(34) . . .
49(4) . . .
41.3(35) . . .
51(4) . . .
44(4) . . .
53(4) . . .
51(4) . . .
54(4) . . .
51(4) . . .
40.2(34) . . .
50(4) . . .
42(4) . . .
41(4) . . .
37.9(34) . . .
43(4) . . .
50(4) . . .
56(4) . . .
42.5(34) . . .
39.0(34) . . .
54(4) . . .
52(4) . . .
50(4) . . .
51(4) . . .
30.4(29) . . .
52(4) . . .
56(4) . . .
42(4) . . .
44(4) . . .
53(4) . . .
50(4) . . .
48(4) . . .
50(4) . . .
43(4) . . .
40.3(33) . . .
41.5(33) . . .
42.5(35) . . .
45(4) . . .
48(4) . . .
56(4) . . .
50(4) . . .
50(4) . . .
52(4) . . .
43(4) . . .
41.5(35) . . .
52(4) . . .
49(4) . . .
48(4) . . .
46(4) . . .
48(4) . . .
47(4) . . .
46(4) . . .
54(4) . . .
41.5(35) . . .
47(4) . . .
50(4) . . .
55(4) . . .
59(4) . . .
48(4) . . .
42.5(35) . . .
40.6(34) . . .
45(4) . . .
44(4) . . .
41.9(34) . . .
47(4) . . .
43.0(35) . . .
38.8(33) . . .
40.3(33) . . .
49(4) . . .
42.2(34) . . .
43.5(34) . . .
42(4) . . .
40.0(33) . . .
46(4) . . .
48(4) . . .
38.5(32) . . .
47(4) . . .
50(4) . . .
51(4) . . .
43.0(34) . . .
44.1(35) . . .
44(4) . . .
40(4) . . .
47(4) . . .
46(4) . . .
53(4) . . .
45(4) . . .
36.6(33) . . .
51(4) . . .
44.7(35) . . .
47(4) . . .
38.4(33) . . .
48(4) . . .
45(4) . . .
40.3(33) . . .
50(4) . . .
50(4) . . .
46(4) . . .
44.8(35) . . .
45.3(35) . . .
44.8(35) . . .
41.0(34) . . .
50(4) . . .
42.2(34) . . .
58(4) . . .
48(4) . . .
48(4) . . .
46(4) . . .
40.1(33) . . .
51(4) . . .
46(4) . . .
43.5(35) . . .
42.0(35) . . .
53(4) . . .
46(4) . . .
45(4) . . .
53(4) . . .
54(4) . . .
51(4) . . .
57(4) . . .
45(4) . . .
46(4) . . .
49(4) . . .
48(4) . . .
47(4) . . .
39.0(32) . . .
48(4) . . .
57(4) . . .
54(4) . . .
47(4) . . .
49(4) . . .
41.3(35) . . .
53(4) . . .
56(4) . . .
45(4) . . .
51(4) . . .
44(4) . . .
36.1(32) . . .
42.9(34) . . .
43.6(34) . . .
47(4) . . .
44.8(35) . . .
56(4) . . .
49(4) . . .
57(4) . . .
52(4) . . .
52(4) . . .
47(4) . . .
46.5(35) . . .
49(4) . . .
46(4) . . .
46(4) . . .
40(4) . . .
40.3(33) . . .
42(4) . . .
45(4) . . .
46(4) . . .
45(4) . . .
44.1(34) . . .
44(4) . . .
43.9(35) . . .
45(4) . . .
52(4) . . .
48(4) . . .
45(4) . . .
48(4) . . .
42.3(35) . . .
34.8(31) . . .
40.0(33) . . .
48(4) . . .
52(4) . . .
44(4) . . .
48(4) . . .
48(4) . . .
46(4) . . .
54(4) . . .
46(4) . . .
55(4) . . .
37.9(32) . . .
51(4) . . .
41.0(34) . . .
47(4) . . .
58(4) . . .
44.1(34) . . .
49(4) . . .
44(4) . . .
45(4) . . .
47(4) . . .
57(4) . . .
57(4) . . .
37.1(33) . . .
46(4) . . .
38.7(32) . . .
46(4) . . .
51(4) . . .
56(4) . . .
54(4) . . .
48(4) . . .
47(4) . . .
42(4) . . .
44(4) . . .
49(4) . . .
48(4) . . .
49(4) . . .
43(4) . . .
51(4) . . .
55(4) . . .
40.1(34) . . .
56(4) . . .
45(4) . . .
48(4) . . .
36.7(31) . . .
38.0(33) . . .
49(4) . . .
52(4) . . .
48(4) . . .
40.8(33) . . .
53(4) . . .
49(4) . . .
43(4) . . .
51(4) . . .
49(4) . . .
51(4) . . .
49(4) . . .
46(4) . . .
49(4) . . .
42.0(33) . . .
43.0(34) . . .
37.5(32) . . .
42(4) . . .
43.8(35) . . .
51(4) . . .
46.2(35) . . .
44.5(35) . . .
40(4) . . .
41.1(35) . . .
48(4) . . .
45.0(35) . . .
42.6(35) . . .
52(4) . . .
55(4) . . .
47(4) . . .
41.5(34) . . .
48(4) . . .
55(4) . . .
46(4) . . .
45(4) . . .
54(4) . . .
44(4) . . .
50(4) . . .
51(4) . . .
46(4) . . .
47(4) . . .
45.0(35) . . .
53(4) . . .
46(4) . . .
52(4) . . .
41.4(34) . . .
55(4) . . .
47(4) . . .
45(4) . . .
53(4) . . .
48(4) . . .
42(4) . . .
50(4) . . .
56(4) . . .
47(4) . . .
36.7(31) . . .
45(4) . . .
50(4) . . .
44.8(35) . . .
43.2(34) . . .
41.3(34) . . .
54(4) . . .
52(4) . . .
50(4) . . .
55(4) . . .
49(4) . . .
51(4) . . .
41.1(34) . . .
47(4) . . .
45(4) . . .
43(4) . . .
40.8(35) . . .
51(4) . . .
49(4) . . .
55(4) . . .
47(4) . . .
37.8(32) . . .
45(4) . . .
47(4) . . .
46(4) . . .
55(4) . . .
40.1(34) . . .
47(4) . . .
46(4) . . .
45.5(35) . . .
48(4) . . .
44(4) . . .
42.7(35) . . .
36.4(32) . . .
41.1(34) . . .
49(4) . . .
46(4) . . .
44(4) . . .
47(4) . . .
36.0(33) . . .
44(4) . . .
48(4) . . .
40.2(34) . . .
44.9(35) . . .
44(4) . . .
37.0(33) . . .
46(4) . . .
46(4) . . .
47(4) . . .
51(4) . . .
38.0(31) . . .
43.2(35) . . .
51(4) . . .
43.5(35) . . .
44(4) . . .
49(4) . . .
45(4) . . .
48(4) . . .
49(4) . . .
39.9(34) . . .
42(4) . . .
45(4) . . .
45.8(35) . . .
44.1(35) . . .
47(4) . . .
51(4) . . .
39.1(32) . . .
55(4) . . .
58(4) . . .
50(4) . . .
41(4) . . .
38.5(33) . . .
54(4) . . .
55(4) . . .
54(4) . . .
46(4) . . .
45(4) . . .
37.9(32) . . .
50(4) . . .
45(4) . . .
51(4) . . .
43(4) . . .
44.0(34) . . .
38.3(33) . . .
46(4) . . .
47(4) . . .
53(4) . . .
39.4(33) . . .
47(4) . . .
40(4) . . .
44(4) . . .
43(4) . . .
49(4) . . .
41.6(34) . . .
42.2(34) . . .
46(4) . . .
39.2(32) . . .
51(4) . . .
45.5(35) . . .
52(4) . . .
46(4) . . .
46(4) . . .
42.3(34) . . .
44(4) . . .
56(4) . . .
61(4) . . .
46(4) . . .
44.6(35) . . .
34.0(30) . . .
43(4) . . .
49(4) . . .
52(4) . . .
57(4) . . .
39.9(33) . . .
47(4) . . .
47(4) . . .
42.3(34) . . .
42.1(34) . . .
55(4) . . .
45(4) . . .
45(4) . . .
41.6(34) . . .
47(4) . . .
55(4) . . .
41.0(34) . . .
51(4) . . .
53(4) . . .
48(4) . . .
40.2(34) . . .
51(4) . . .
54(4) . . .
42.1(35) . . .
45(4) . . .
43.7(35) . . .
47(4) . . .
46(4) . . .
42.2(34) . . .
56(4) . . .
50(4) . . .
46(4) . . .
46(4) . . .
44(4) . . .
47(4) . . .
44(4) . . .
43(4) . . .
49(4) . . .
50(4) . . .
43(4) . . .
47(4) . . .
58(4) . . .
42.1(34) . . .
46(4) . . .
55(4) . . .
39.7(33) . . .
40.8(33) . . .
43.5(34) . . .
34.6(31) . . .
46(4) . . .
53(4) . . .
50(4) . . .
49(4) . . .
49(4) . . .
45(4) . . .
52(4) . . .
46(4) . . .
46(4) . . .
48(4) . . .
40.3(33) . . .
51(4) . . .
47(4) . . .
40.6(34) . . .
51(4) . . .
45(4) . . .
50(4) . . .
42.1(34) . . .
54(4) . . .
56(4) . . .
47(4) . . .
47(4) . . .
54(4) . . .
45(4) . . .
49(4) . . .
50(4) . . .
49(4) . . .
52(4) . . .
46.0(35) . . .
53(4) . . .
49(4) . . .
53(4) . . .
51(4) . . .
41.4(33) . . .
41.8(34) . . .
49(4) . . .
48(4) . . .
48(4) . . .
42.6(34) . . .
49(4) . . .
42.2(34) . . .
47(4) . . .
37.2(32) . . .
41.2(33) . . .
45.3(35) . . .
50(4) . . .
47(4) . . .
42.8(34) . . .
46(4) . . .
44.0(35) . . .
48(4) . . .
43(4) . . .
38.7(33) . . .
37.8(32) . . .
37.4(32) . . .
43(4) . . .
49(4) . . .
50(4) . . .
49(4) . . .
49(4) . . .
57(4) . . .
53(4) . . .
47(4) . . .
50(4) . . .
48(4) . . .
42(4) . . .
53(4) . . .
42.8(34) . . .
43(4) . . .
45(4) . . .
51(4) . . .
38.3(34) . . .
54(4) . . .
46.1(35) . . .
39.8(33) . . .
50(4) . . .
46(4) . . .
53(4) . . .
52(4) . . .
52(4) . . .
57(4) . . .
51(4) . . .
52(4) . . .
38.8(32) . . .
47(4) . . .
47(4) . . .
36.0(31) . . .
43.2(34) . . .
40.8(35) . . .
46(4) . . .
41.5(34) . . .
43.0(34) . . .
48(4) . . .
56(4) . . .
49(4) . . .
39.0(33) . . .
49(4) . . .
38.8(33) . . .
50(4) . . .
56(4) . . .
49(4) . . .
43.2(34) . . .
45(4) . . .
46(4) . . .
38.3(33) . . .
39.5(35) . . .
52(4) . . .
58(4) . . .
50(4) . . .
46(4) . . .
45(4) . . .
46(4) . . .
52(4) . . .
45.0(35) . . .
45(4) . . .
47(4) . . .
51(4) . . .
49(4) . . .
50(4) . . .
47(4) . . .
44(4) . . .
34.2(30) . . .
37.6(31) . . .
53(4) . . .
51(4) . . .
46(4) . . .
44.8(35) . . .
51(4) . . .
50(4) . . .
39.3(33) . . .
43(4) . . .
42.0(34) . . .
43.0(34) . . .
51(4) . . .
50(4) . . .
50(4) . . .
43.3(34) . . .
46(4) . . .
59(4) . . .
45(4) . . .
45(4) . . .
37.2(32) . . .
39.0(33) . . .
40.7(34) . . .
55(4) . . .
52(4) . . .
47(4) . . .
51(4) . . .
38.5(33) . . .
51(4) . . .
39.8(33) . . .
60(4) . . .
47(4) . . .
45(4) . . .
53(4) . . .
51(4) . . .
52(4) . . .
52(4) . . .
45(4) . . .
39.9(35) . . .
49(4) . . .
44.5(35) . . .
46(4) . . .
48(4) . . .
41.5(35) . . .
50(4) . . .
53(4) . . .
47(4) . . .
43(4) . . .
45.0(35) . . .
50(4) . . .
56(4) . . .
46(4) . . .
49(4) . . .
47(4) . . .
36.7(32) . . .
40.4(33) . . .
48(4) . . .
56(4) . . .
47(4) . . .
52(4) . . .
45(4) . . .
46(4) . . .
51(4) . . .
53(4) . . .
48(4) . . .
41.7(33) . . .
42.8(35) . . .
63(4) . . .
48(4) . . .
44.3(35) . . .
36.2(33) . . .
47(4) . . .
51(4) . . .
33.3(30) . . .
42.5(34) . . .
43(4) . . .
41(4) . . .
45(4) . . .
45(4) . . .
50(4) . . .
49(4) . . .
51(4) . . .
59(4) . . .
42.0(34) . . .
44.0(34) . . .
49(4) . . .
52(4) . . .
55(4) . . .
51(4) . . .
38.7(32) . . .
48(4) . . .
48(4) . . .
42.2(34) . . .
49(4) . . .
54(4) . . .
48(4) . . .
34.5(32) . . .
39.0(33) . . .
41.6(34) . . .
38.5(33) . . .
36.9(32) . . .
58(4) . . .
52(4) . . .
42.9(34) . . .
44.3(35) . . .
46(4) . . .
45(4) . . .
49(4) . . .
40.7(33) . . .
46(4) . . .
44(4) . . .
49(4) . . .
55(4) . . .
48(4) . . .
50(4) . . .
56(4) . . .
49(4) . . .
53(4) . . .
42.4(34) . . .
41.7(35) . . .
46(4) . . .
41.5(35) . . .
48(4) . . .
52(4) . . .
44(4) . . .
40(4) . . .
37.6(32) . . .
46(4) . . .
46(4) . . .
43(4) . . .
47(4) . . .
43(4) . . .
54(4) . . .
53(4) . . .
50(4) . . .
46(4) . . .
48(4) . . .
53(4) . . .
46(4) . . .
38.9(33) . . .
45(4) . . .
47(4) . . .
50(4) . . .
42.0(34) . . .
43.5(35) . . .
39.4(35) . . .
49(4) . . .
47(4) . . .
50(4) . . .
53(4) . . .
50(4) . . .
44.1(35) . . .
46(4) . . .
44.0(34) . . .
44(4) . . .
45(4) . . .
53(4) . . .
38.7(32) . . .
38.4(33) . . .
48(4) . . .
54(4) . . .
45.0(35) . . .
35.4(31) . . .
43(4) . . .
55(4) . . .
52(4) . . .
36.6(34) . . .
47(4) . . .
43.4(35) . . .
43(4) . . .
43(4) . . .
45(4) . . .
46(4) . . .
49(4) . . .
46(4) . . .
45(4) . . .
40.0(34) . . .
59(4) . . .
47(4) . . .
48(4) . . .
53(4) . . .
46(4) . . .
46.2(35) . . .
45(4) . . .
43(4) . . .
46(4) . . .
54(4) . . .
56(4) . . .
58(4) . . .
49(4) . . .
46(4) . . .
48(4) . . .
55(4) . . .
55(4) . . .
42.0(35) . . .
50(4) . . .
47(4) . . .
44(4) . . .
44.0(34) . . .
43(4) . . .
42.5(35) . . .
49(4) . . .
48(4) . . .
44(4) . . .
40(4) . . .
48(4) . . .
50(4) . . .
49(4) . . .
48(4) . . .
43(4) . . .
45(4) . . .
49(4) . . .
39.9(33) . . .
44(4) . . .
50(4) . . .
48(4) . . .
42.9(34) . . .
49(4) . . .
49(4) . . .
51(4) . . .
49(4) . . .
40.4(33) . . .
45(4) . . .
39.6(35) . . .
45(4) . . .
39.3(33) . . .
41.2(34) . . .
40.0(35) . . .
36.5(33) . . .
45(4) . . .
52(4) . . .
46(4) . . .
56(4) . . .
56(4) . . .
60(4) . . .
50(4) . . .
56(4) . . .
44(4) . . .
47(4) . . .
49(4) . . .
47(4) . . .
46(4) . . .
49(4) . . .
38.7(33) . . .
39.3(33) . . .
48(4) . . .
51(4) . . .
49(4) . . .
45(4) . . .
45(4) . . .
45.0(35) . . .
48(4) . . .
53(4) . . .
48(4) . . .
45(4) . . .
44.6(35) . . .
42.7(34) . . .
51(4) . . .
51(4) . . .
41.1(34) . . .
41.5(34) . . .
48(4) . . .
40.9(34) . . .
46(4) . . .
41.5(34) . . .
44(4) . . .
54(4) . . .
55(4) . . .
37.9(33) . . .
51(4) . . .
45.4(35) . . .
44(4) . . .
41(4) . . .
39.7(33) . . .
40.1(33) . . .
42.9(34) . . .
52(4) . . .
55(4) . . .
49(4) . . .
43.7(35) . . .
50(4) . . .
51(4) . . .
42(4) . . .
38.1(34) . . .
40.6(34) . . .
33.1(30) . . .
50(4) . . .
45(4) . . .
46(4) . . .
48(4) . . .
57(4) . . .
43(4) . . .
36.2(34) . . .
43(4) . . .
59(4) . . .
56(4) . . .
46(4) . . .
31.7(31) . . .
45(4) . . .
49(4) . . .
40.2(33) . . .
50(4) . . .
61(5) . . .
46(4) . . .
55(4) . . .
48(4) . . .
52(4) . . .
55(4) . . .
53(4) . . .
43.6(35) . . .
48(4) . . .
45(4) . . .
49(4) . . .
40.5(34) . . .
50(4) . . .
49(4) . . .
45(4) . . .
44.2(35) . . .
53(4) . . .
47(4) . . .
41.5(34) . . .
48(4) . . .
45(4) . . .
44.2(35) . . .
36.6(31) . . .
40.4(35) . . .
51(4) . . .
43(4) . . .
39.3(34) . . .
42.0(34) . . .
52(4) . . .
44.4(35) . . .
46(4) . . .
42.6(34) . . .
42.6(34) . . .
47(4) . . .
50(4) . . .
47(4) . . .
41.3(35) . . .
45.7(35) . . .
44(4) . . .
50(4) . . .
47(4) . . .
47(4) . . .
47(4) . . .
38.7(33) . . .
47(4) . . .
49(4) . . .
42.6(34) . . .
41.9(35) . . .
35.9(32) . . .
46(4) . . .
42.6(35) . . .
49(4) . . .
47(4) . . .
58(4) . . .
55(4) . . .
47(4) . . .
51(4) . . .
48(4) . . .
46(4) . . .
48(4) . . .
55(4) . . .
50(4) . . .
53(4) . . .
46(4) . . .
48(4) . . .
54(4) . . .
55(4) . . .
40.7(35) . . .
38(4) . . .
41(4) . . .
42.1(34) . . .
39.8(33) . . .
51(4) . . .
60(4) . . .
48(4) . . .
50(4) . . .
45(4) . . .
48(4) . . .
55(4) . . .
49(4) . . .
65(4) . . .
46(4) . . .
48(4) . . .
48(4) . . .
55(4) . . .
49(4) . . .
48(4) . . .
43(4) . . .
49(4) . . .
40.2(33) . . .
53(4) . . .
48(4) . . .
52(4) . . .
46(4) . . .
51(4) . . .
49(4) . . .
42.0(34) . . .
45(4) . . .
54(4) . . .
59(4) . . .
46(4) . . .
41.0(34) . . .
55(4) . . .
51(4) . . .
38.1(33) . . .
42.9(34) . . .
56(4) . . .
44(4) . . .
41.6(34) . . .
45(4) . . .
47(4) . . .
41.2(34) . . .
48(4) . . .
48(4) . . .
47(4) . . .
37.9(33) . . .
44(4) . . .
53(4) . . .
40(4) . . .
44(4) . . .
44.2(35) . . .
42(4) . . .
46(4) . . .
39.1(33) . . .
48(4) . . .
39.0(32) . . .
45(4) . . .
35.7(32) . . .
50(4) . . .
51(4) . . .
48(4) . . .
46(4) . . .
49(4) . . .
39.6(33) . . .
50(4) . . .
60(4) . . .
52(4) . . .
39.8(34) . . .
42.2(34) . . .
48(4) . . .
47(4) . . .
50(4) . . .
34.8(32) . . .
44(4) . . .
42.8(35) . . .
51(4) . . .
35.9(31) . . .
45(4) . . .
40.1(33) . . .
47(4) . . .
40.8(33) . . .
41(4) . . .
44(4) . . .
47(4) . . .
50(4) . . .
51(4) . . .
41.3(35) . . .
45(4) . . .
54(4) . . .
49(4) . . .
55(4) . . .
47(4) . . .
47(4) . . .
49(4) . . .
45.3(35) . . .
60(4) . . .
51(4) . . .
44(4) . . .
47(4) . . .
45.5(35) . . .
44(4) . . .
47(4) . . .
49(4) . . .
47(4) . . .
45(4) . . .
49(4) . . .
43(4) . . .
46(4) . . .
50(4) . . .
38.4(32) . . .
42.1(34) . . .
45(4) . . .
35.8(32) . . .
45(4) . . .
54(4) . . .
44(4) . . .
48(4) . . .
35.5(34) . . .
54(4) . . .
48(4) . . .
47(4) . . .
54(4) . . .
58(4) . . .
53(4) . . .
42.5(34) . . .
53(4) . . .
46(4) . . .
51(4) . . .
43.2(34) . . .
44.9(35) . . .
47(4) . . .
48(4) . . .
43.3(35) . . .
44.5(35) . . .
44(4) . . .
45(4) . . .
53(4) . . .
43.8(35) . . .
48(4) . . .
44.9(34) . . .
46(4) . . .
45(4) . . .
49(4) . . .
45(4) . . .
50(4) . . .
57(4) . . .
50(4) . . .
52(4) . . .
42.7(34) . . .
41(4) . . .
45(4) . . .
50(4) . . .
47(4) . . .
56(4) . . .
47(4) . . .
37.8(32) . . .
42.8(35) . . .
37.9(32) . . .
50(4) . . .
51(4) . . .
43(4) . . .
51(4) . . .
51(4) . . .
48(4) . . .
53(4) . . .
42(4) . . .
39.0(33) . . .
52(4) . . .
52(4) . . .
47(4) . . .
47(4) . . .
50(4) . . .
50(4) . . .
42.4(34) . . .
37.3(32) . . .
44(4) . . .
42.7(35) . . .
49(4) . . .
48(4) . . .
42.8(34) . . .
42.8(35) . . .
47(4) . . .
50(4) . . .
46(4) . . .
41.8(34) . . .
48(4) . . .
47(4) . . .
52(4) . . .
44(4) . . .
43(4) . . .
49(4) . . .
53(4) . . .
40.9(34) . . .
49(4) . . .
55(4) . . .
50(4) . . .
38.0(32) . . .
45.4(35) . . .
47(4) . . .
49(4) . . .
45(4) . . .
41.3(33) . . .
43.2(35) . . .
58(4) . . .
49(4) . . .
40.9(34) . . .
47(4) . . .
48(4) . . .
46(4) . . .
48(4) . . .
50(4) . . .
52(4) . . .
42.6(33) . . .
36.8(32) . . .
47(4) . . .
35.2(31) . . .
41.3(34) . . .
48(4) . . .
49(4) . . .
52(4) . . .
44.9(35) . . .
49(4) . . .
44.9(35) . . .
47(4) . . .
37.9(33) . . .
39.2(33) . . .
49(4) . . .
44.4(35) . . .
54(4) . . .
52(4) . . .
41.6(34) . . .
46(4) . . .
45.4(35) . . .
36.6(31) . . .
46(4) . . .
42(4) . . .
46(4) . . .
44(4) . . .
51(4) . . .
59(4) . . .
38.8(33) . . .
46.6(35) . . .
52(4) . . .
48(4) . . .
50(4) . . .
41(4) . . .
50(4) . . .
58(4) . . .
50(4) . . .
46(4) . . .
47(4) . . .
45(4) . . .
48(4) . . .
52(4) . . .
42.3(33) . . .
47(4) . . .
46(4) . . .
43.3(35) . . .
40.1(35) . . .
41.8(34) . . .
40.0(33) . . .
44.8(35) . . .
50(4) . . .
49(4) . . .
49(4) . . .
41.7(34) . . .
42.6(34) . . .
40(4) . . .
48(4) . . .
52(4) . . .
41.4(33) . . .
52(4) . . .
38.4(34) . . .
39.3(33) . . .
32.6(29) . . .
35.6(31) . . .
57(4) . . .
52(4) . . .
45(4) . . .
53(4) . . .
49(4) . . .
47(4) . . .
40.2(33) . . .
43(4) . . .
40.9(34) . . .
39.5(33) . . .
50(4) . . .
46(4) . . .
41(4) . . .
46(4) . . .
43.6(34) . . .
49(4) . . .
40.9(32) . . .
54(4) . . .
55(4) . . .
48(4) . . .
44(4) . . .
40.2(34) . . .
44(4) . . .
55(4) . . .
50(4) . . .
43.2(35) . . .
44(4) . . .
55(4) . . .
42.7(34) . . .
53(4) . . .
44(4) . . .
48(4) . . .
52(4) . . .
40.2(33) . . .
48(4) . . .
48(4) . . .
43(4) . . .
47(4) . . .
38.8(34) . . .
36.6(31) . . .
46(4) . . .
42(4) . . .
48(4) . . .
51(4) . . .
49(4) . . .
52(4) . . .
40(4) . . .
45(4) . . .
48(4) . . .
50(4) . . .
50(4) . . .
37.9(34) . . .
48(4) . . .
47(4) . . .
52(4) . . .
36.1(32) . . .
43(4) . . .
49(4) . . .
48(4) . . .
38.7(34) . . .
47(4) . . .
42.2(34) . . .
51(4) . . .
40.4(33) . . .
51(4) . . .
53(4) . . .
43.0(34) . . .
48(4) . . .
55(4) . . .
44.8(35) . . .
45(4) . . .
46(4) . . .
46(4) . . .
48(4) . . .
52(4) . . .
43(4) . . .
43(4) . . .
47(4) . . .
59(4) . . .
48(4) . . .
49(4) . . .
52(4) . . .
40.3(33) . . .
51(4) . . .
59(4) . . .
45(4) . . .
48(4) . . .
48(4) . . .
45(4) . . .
49(4) . . .
43(4) . . .
46(4) . . .
45(4) . . .
45(4) . . .
53(4) . . .
45(4) . . .
38.2(33) . . .
46(4) . . .
38.2(32) . . .
47(4) . . .
49(4) . . .
41.2(33) . . .
46(4) . . .
39.7(33) . . .
47(4) . . .
50(4) . . .
52(4) . . .
54(4) . . .
43.0(34) . . .
43.9(35) . . .
51(4) . . .
48(4) . . .
49(4) . . .
40.8(33) . . .
43(4) . . .
43(4) . . .
44(4) . . .
53(4) . . .
51(4) . . .
39.5(34) . . .
44(4) . . .
46(4) . . .
52(4) . . .
45(4) . . .
50(4) . . .
40(4) . . .
39.4(34) . . .
42.9(34) . . .
45(4) . . .
40.4(34) . . .
42(4) . . .
46(4) . . .
43.6(35) . . .
44(4) . . .
49(4) . . .
52(4) . . .
55(4) . . .
51(4) . . .
42.5(34) . . .
42.2(34) . . .
49(4) . . .
49(4) . . .
38.9(32) . . .
53(4) . . .
52(4) . . .
45.7(35) . . .
46(4) . . .
43.8(34) . . .
43(4) . . .
39.4(34) . . .
48(4) . . .
50(4) . . .
48(4) . . .
54(4) . . .
55(4) . . .
39.0(34) . . .
53(4) . . .
51(4) . . .
44(4) . . .
47(4) . . .
49(4) . . .
51(4) . . .
43.8(34) . . .
43(4) . . .
43(4) . . .
47(4) . . .
49(4) . . .
57(4) . . .
50(4) . . .
46(4) . . .
51(4) . . .
47(4) . . .
51(4) . . .
42(4) . . .
47(4) . . .
47(4) . . .
40.8(34) . . .
50(4) . . .
46(4) . . .
43.4(34) . . .
43.1(34) . . .
42.3(34) . . .
48(4) . . .
50(4) . . .
48(4) . . .
38.8(33) . . .
43.4(34) . . .
40.0(34) . . .
53(4) . . .
41.8(33) . . .
49(4) . . .
40.8(33) . . .
47(4) . . .
47(4) . . .
54(4) . . .
49(4) . . .
51(4) . . .
60(4) . . .
45(4) . . .
35.3(31) . . .
43.7(35) . . .
47(4) . . .
48(4) . . .
49(4) . . .
39.2(32) . . .
39.6(34) . . .
42.9(34) . . .
62(4) . . .
49(4) . . .
56(4) . . .
56(4) . . .
55(4) . . .
46(4) . . .
47(4) . . .
50(4) . . .
36.0(32) . . .
43.6(34) . . .
50(4) . . .
45(4) . . .
43.8(35) . . .
52(4) . . .
50(4) . . .
44(4) . . .
42(4) . . .
44(4) . . .
40.1(33) . . .
58(4) . . .
51(4) . . .
48(4) . . .
42(4) . . .
48(4) . . .
57(4) . . .
45(4) . . .
40.6(33) . . .
47(4) . . .
49(4) . . .
53(4) . . .
40.0(33) . . .
44(4) . . .
46(4) . . .
38.5(32) . . .
39.1(33) . . .
36.3(32) . . .
40.1(33) . . .
59(4) . . .
53(4) . . .
43(4) . . .
41(4) . . .
56(4) . . .
42.5(35) . . .
44(4) . . .
50(4) . . .
55(4) . . .
52(4) . . .
51(4) . . .
54(4) . . .
43(4) . . .
51(4) . . .
51(4) . . .
40.1(33) . . .
48(4) . . .
47(4) . . .
55(4) . . .
57(4) . . .
48(4) . . .
46(4) . . .
37.1(33) . . .
47(4) . . .
46(4) . . .
49(4) . . .
51(4) . . .
57(4) . . .
45(4) . . .
40.4(33) . . .
48(4) . . .
47(4) . . .
56(4) . . .
53(4) . . .
53(4) . . .
41.7(33) . . .
45(4) . . .
54(4) . . .
47(4) . . .
40.4(33) . . .
44.0(35) . . .
47(4) . . .
51(4) . . .
44.0(35) . . .
51(4) . . .
41.4(34) . . .
53(4) . . .
50(4) . . .
52(4) . . .
44(4) . . .
44.1(35) . . .
40.9(34) . . .
48(4) . . .
44(4) . . .
46(4) . . .
51(4) . . .
48(4) . . .
44(4) . . .
42.2(34) . . .
48(4) . . .
44.8(34) . . .
43.6(35) . . .
48(4) . . .
48(4) . . .
40.9(33) . . .
49(4) . . .
48(4) . . .
38.4(34) . . .
42.6(35) . . .
42.1(34) . . .
50(4) . . .
49(4) . . .
44(4) . . .
49(4) . . .
51(4) . . .
53(4) . . .
45.6(34) . . .
44(4) . . .
41.8(34) . . .
39.4(33) . . .
47(4) . . .
46(4) . . .
53(4) . . .
49(4) . . .
53(4) . . .
46(4) . . .
51(4) . . .
40.5(33) . . .
52(4) . . .
47(4) . . .
58(4) . . .
51(4) . . .
48(4) . . .
51(4) . . .
42.7(34) . . .
44(4) . . .
49(4) . . .
59(4) . . .
44(4) . . .
47(4) . . .
41.7(34) . . .
44(4) . . .
46(4) . . .
43.0(35) . . .
40.8(33) . . .
42.9(35) . . .
45(4) . . .
50(4) . . .
44.6(35) . . .
43.3(34) . . .
53(4) . . .
43.7(35) . . .
43(4) . . .
40.7(33) . . .
46(4) . . .
43.3(35) . . .
54(4) . . .
50(4) . . .
58(4) . . .
52(4) . . .
50(4) . . .
54(4) . . .
42(4) . . .
46(4) . . .
47(4) . . .
45.2(35) . . .
49(4) . . .
44.7(35) . . .
46(4) . . .
41.4(33) . . .
51(4) . . .
50(4) . . .
43.8(35) . . .
49(4) . . .
43.3(34) . . .
49(4) . . .
47(4) . . .
46(4) . . .
44(4) . . .
44(4) . . .
45(4) . . .
42.6(33) . . .
60(4) . . .
38.2(33) . . .
47(4) . . .
53(4) . . .
52(4) . . .
43.3(35) . . .
48(4) . . .
37.3(32) . . .
50(4) . . .
53(4) . . .
48(4) . . .
42.2(34) . . .
53(4) . . .
42(4) . . .
43.2(35) . . .
48(4) . . .
51(4) . . .
44.2(34) . . .
43(4) . . .
47(4) . . .
47(4) . . .
49(4) . . .
42.0(35) . . .
50(4) . . .
55(4) . . .
44.0(34) . . .
28.6(28) . . .
45(4) . . .
47(4) . . .
46(4) . . .
55(4) . . .
41.8(34) . . .
46(4) . . .
44(4) . . .
48(4) . . .
37.3(32) . . .
43.7(35) . . .
48(4) . . .
48(4) . . .
39.0(33) . . .
51(4) . . .
45.3(35) . . .
40.0(33) . . .
43(4) . . .
49(4) . . .
40.8(33) . . .
46(4) . . .
41(4) . . .
45(4) . . .
47(4) . . .
39.9(33) . . .
46(4) . . .
48(4) . . .
50(4) . . .
47(4) . . .
38.6(32) . . .
32.7(30) . . .
52(4) . . .
48(4) . . .
54(4) . . .
58(4) . . .
51(4) . . .
37.8(34) . . .
50(4) . . .
53(4) . . .
45.8(35) . . .
52(4) . . .
48(4) . . .
53(4) . . .
54(4) . . .
42.5(34) . . .
50(4) . . .
45(4) . . .
42(4) . . .
45(4) . . .
51(4) . . .
45(4) . . .
52(4) . . .
45(4) . . .
43.7(35) . . .
42.3(35) . . .
42(4) . . .
44(4) . . .
41(4) . . .
37.1(32) . . .
55(4) . . .
44(4) . . .
43(4) . . .
50(4) . . .
37.4(32) . . .
46(4) . . .
56(4) . . .
53(4) . . .
42.5(35) . . .
42.1(35) . . .
54(4) . . .
46(4) . . .
47(4) . . .
44.1(35) . . .
34.0(31) . . .
38.3(33) . . .
43(4) . . .
43(4) . . .
42.7(34) . . .
38.0(32) . . .
42(4) . . .
49(4) . . .
45(4) . . .
38.3(33) . . .
44.4(35) . . .
61(4) . . .
52(4) . . .
48(4) . . .
45(4) . . .
40.6(33) . . .
44(4) . . .
41(4) . . .
42(4) . . .
45.3(34) . . .
51(4) . . .
36.9(32) . . .
44(4) . . .
51(4) . . .
41.5(33) . . .
36.0(31) . . .
45(4) . . .
42(4) . . .
50(4) . . .
37.5(32) . . .
50(4) . . .
41.7(34) . . .
45(4) . . .
51(4) . . .
53(4) . . .
45.6(35) . . .
40.2(32) . . .
41.6(35) . . .
37.8(32) . . .
37.8(32) . . .
49(4) . . .
41.6(34) . . .
44(4) . . .
50(4) . . .
44.6(34) . . .
50(4) . . .
42(4) . . .
38.5(34) . . .
51(4) . . .
40.8(33) . . .
41(4) . . .
48(4) . . .
36.1(31) . . .
40.4(35) . . .
41.6(34) . . .
49(4) . . .
46(4) . . .
46(4) . . .
53(4) . . .
51(4) . . .
44(4) . . .
47(4) . . .
47(4) . . .
44.0(34) . . .
46(4) . . .
55(4) . . .
49(4) . . .
39.5(33) . . .
48(4) . . .
43.2(34) . . .
40.0(33) . . .
61(4) . . .
52(4) . . .
47(4) . . .
56(4) . . .
58(4) . . .
49(4) . . .
45(4) . . .
46(4) . . .
51(4) . . .
49(4) . . .
53(4) . . .
53(4) . . .
51(4) . . .
37.8(33) . . .
44(4) . . .
45(4) . . .
48(4) . . .
47(4) . . .
56(4) . . .
42.4(33) . . .
57(4) . . .
42.0(34) . . .
39.8(33) . . .
47(4) . . .
52(4) . . .
48(4) . . .
56(4) . . .
53(4) . . .
45.2(35) . . .
49(4) . . .
51(4) . . .
55(4) . . .
43.2(35) . . .
49(4) . . .
51(4) . . .
49(4) . . .
41.7(34) . . .
48(4) . . .
47(4) . . .
47(4) . . .
52(4) . . .
48(4) . . .
43(4) . . .
49(4) . . .
46(4) . . .
52(4) . . .
43.8(35) . . .
56(4) . . .
51(4) . . .
48(4) . . .
49(4) . . .
44.3(34) . . .
44(4) . . .
45(4) . . .
50(4) . . .
36.4(33) . . .
49(4) . . .
64(4) . . .
38.5(33) . . .
53(4) . . .
42.3(35) . . .
53(4) . . .
56(4) . . .
54(4) . . .
48(4) . . .
52(4) . . .
39.5(33) . . .
53(4) . . .
45(4) . . .
40.1(35) . . .
47(4) . . .
44.3(34) . . .
49(4) . . .
52(4) . . .
49(4) . . .
44(4) . . .
42.2(34) . . .
47(4) . . .
55(4) . . .
55(4) . . .
58(4) . . .
38.8(33) . . .
47(4) . . .
43(4) . . .
36.7(31) . . .
44.0(35) . . .
42.5(34) . . .
58(4) . . .
61(5) . . .
38.9(32) . . .
53(4) . . .
53(4) . . .
47(4) . . .
49(4) . . .
48(4) . . .
45.6(35) . . .
51(4) . . .
51(4) . . .
49(4) . . .
44(4) . . .
50(4) . . .
42.3(35) . . .
44.6(34) . . .
54(4) . . .
48(4) . . .
48(4) . . .
55(4) . . .
54(4) . . .
46(4) . . .
47(4) . . .
55(4) . . .
49(4) . . .
52(4) . . .
52(4) . . .
45(4) . . .
38.5(32) . . .
55(4) . . .
44.6(34) . . .
54(4) . . .
38.5(32) . . .
48(4) . . .
34.5(32) . . .
46(4) . . .
49(4) . . .
42.5(35) . . .
41.0(34) . . .
46(4) . . .
51(4) . . .
42.8(35) . . .
53(4) . . .
43.9(35) . . .
45(4) . . .
40(4) . . .
43.1(35) . . .
53(4) . . .
44(4) . . .
47(4) . . .
55(4) . . .
46(4) . . .
47(4) . . .
41.1(34) . . .
43.2(35) . . .
45(4) . . .
49(4) . . .
55(4) . . .
43.3(34) . . .
52(4) . . .
38.1(33) . . .
44.2(35) . . .
42.2(34) . . .
47(4) . . .
46(4) . . .
43(4) . . .
45(4) . . .
49(4) . . .
52(4) . . .
43.1(34) . . .
49(4) . . .
54(4) . . .
53(4) . . .
49(4) . . .
54(4) . . .
46(4) . . .
41.6(34) . . .
53(4) . . .
41.0(35) . . .
43.2(34) . . .
51(4) . . .
46(4) . . .
56(4) . . .
53(4) . . .
47(4) . . .
57(4) . . .
46(4) . . .
49(4) . . .
39.3(34) . . .
49(4) . . .
45(4) . . .
46(4) . . .
46(4) . . .
53(4) . . .
50(4) . . .
41(4) . . .
48(4) . . .
53(4) . . .
42.5(34) . . .
45(4) . . .
46(4) . . .
48(4) . . .
45.2(34) . . .
35.3(32) . . .
48(4) . . .
44(4) . . .
45(4) . . .
49(4) . . .
41.3(34) . . .
39.6(35) . . .
43.2(35) . . .
54(4) . . .
45.5(35) . . .
41.6(34) . . .
47(4) . . .
41.1(32) . . .
47(4) . . .
55(4) . . .
47(4) . . .
49(4) . . .
43.0(35) . . .
43.8(34) . . .
44.3(35) . . .
43.0(35) . . .
49(4) . . .
44(4) . . .
51(4) . . .
43(4) . . .
43(4) . . .
46(4) . . .
48(4) . . .
39.0(33) . . .
38.0(33) . . .
55(4) . . .
55(4) . . .
49(4) . . .
46(4) . . .
48(4) . . .
41.8(35) . . .
52(4) . . .
54(4) . . .
45.8(35) . . .
46(4) . . .
47(4) . . .
46(4) . . .
45(4) . . .
38.3(32) . . .
39.2(33) . . .
49(4) . . .
43.1(35) . . .
50(4) . . .
36.7(31) . . .
38.0(33) . . .
46(4) . . .
45(4) . . .
52(4) . . .
44.0(34) . . .
43.2(34) . . .
44(4) . . .
36.5(32) . . .
45.0(35) . . .
47(4) . . .
36.5(32) . . .
42(4) . . .
47(4) . . .
53(4) . . .
51(4) . . .
46(4) . . .
44(4) . . .
45(4) . . .
55(4) . . .
47(4) . . .
46(4) . . .
42(4) . . .
45(4) . . .
42.8(34) . . .
35.5(32) . . .
53(4) . . .
47.3(35) . . .
47(4) . . .
43.6(34) . . .
41(4) . . .
43(4) . . .
46(4) . . .
49(4) . . .
45(4) . . .
57(4) . . .
51(4) . . .
43.7(35) . . .
47(4) . . .
49(4) . . .
43.3(35) . . .
52(4) . . .
45(4) . . .
48(4) . . .
49(4) . . .
47(4) . . .
46(4) . . .
52(4) . . .
49(4) . . .
40.8(34) . . .
47(4) . . .
43(4) . . .
39.1(34) . . .
43.1(34) . . .
45.2(35) . . .
46(4) . . .
46(4) . . .
43(4) . . .
35.1(31) . . .
50(4) . . .
50(4) . . .
38.8(32) . . .
49(4) . . .
42.2(34) . . .
45(4) . . .
44(4) . . .
43(4) . . .
39(4) . . .
53(4) . . .
38.1(32) . . .
38.4(33) . . .
38.7(33) . . .
48(4) . . .
40.0(33) . . .
42.3(33) . . .
46(4) . . .
50(4) . . .
50(4) . . .
43.1(35) . . .
43(4) . . .
52(4) . . .
47(4) . . .
39.0(33) . . .
36.2(32) . . .
44(4) . . .
39.0(33) . . .
50(4) . . .
43.6(34) . . .
41.7(34) . . .
47(4) . . .
45(4) . . .
56(4) . . .
51(4) . . .
40.2(33) . . .
49(4) . . .
56(4) . . .
47(4) . . .
52(4) . . .
51(4) . . .
53(4) . . .
38.4(34) . . .
46(4) . . .
46.3(35) . . .
43.3(34) . . .
49(4) . . .
48(4) . . .
49(4) . . .
54(4) . . .
46(4) . . .
49(4) . . .
39.8(34) . . .
43.9(35) . . .
46(4) . . .
46(4) . . .
51(4) . . .
38.9(34) . . .
39.1(34) . . .
45(4) . . .
38.6(33) . . .
48(4) . . .
46(4) . . .
48(4) . . .
41.4(34) . . .
42.9(34) . . .
42.3(35) . . .
42(4) . . .
46(4) . . .
45(4) . . .
46(4) . . .
41.0(34) . . .
39.3(35) . . .
47(4) . . .
40.3(33) . . .
41.2(34) . . .
42(4) . . .
48(4) . . .
48(4) . . .
46(4) . . .
53(4) . . .
47(4) . . .
44(4) . . .
34.8(30) . . .
51(4) . . .
47(4) . . .
45(4) . . .
46(4) . . .
46(4) . . .
45(4) . . .
49(4) . . .
50(4) . . .
38.5(33) . . .
39.8(32) . . .
41.4(34) . . .
53(4) . . .
43.6(35) . . .
48(4) . . .
43.3(34) . . .
49(4) . . .
45.1(34) . . .
47(4) . . .
47(4) . . .
38.6(34) . . .
42.3(34) . . .
48(4) . . .
46(4) . . .
39.0(34) . . .
46.4(35) . . .
48(4) . . .
52(4) . . .
49(4) . . .
40.3(35) . . .
45.0(35) . . .
38.9(32) . . .
50(4) . . .
48(4) . . .
46(4) . . .
49(4) . . .
45(4) . . .
40.9(34) . . .
50(4) . . .
38.8(33) . . .
45.6(35) . . .
45(4) . . .
40.1(34) . . .
51(4) . . .
39.8(33) . . .
42.9(34) . . .
38.2(33) . . .
42.0(35) . . .
46(4) . . .
46(4) . . .
44.6(34) . . .
46(4) . . .
41(4) . . .
43(4) . . .
45.1(35) . . .
56(4) . . .
40.6(33) . . .
38.6(34) . . .
36.3(32) . . .
48(4) . . .
47(4) . . .
48(4) . . .
47(4) . . .
48(4) . . .
44(4) . . .
43.1(34) . . .
42(4) . . .
33.1(32) . . .
40.3(34) . . .
50(4) . . .
41.1(33) . . .
36.5(32) . . .
48(4) . . .
40.8(34) . . .
43.4(35) . . .
51(4) . . .
56(4) . . .
41.0(35) . . .
52(4) . . .
51(4) . . .
49(4) . . .
53(4) . . .
42.7(35) . . .
45(4) . . .
48(4) . . .
37.1(32) . . .
43(4) . . .
42(4) . . .
42.2(35) . . .
41.5(34) . . .
51(4) . . .
45(4) . . .
48(4) . . .
49(4) . . .
49(4) . . .
45(4) . . .
41.4(35) . . .
55(4) . . .
49(4) . . .
44.9(34) . . .
51(4) . . .
50(4) . . .
45(4) . . .
45(4) . . .
37.0(31) . . .
46(4) . . .
43(4) . . .
40.6(34) . . .
41.4(34) . . .
47(4) . . .
45.0(35) . . .
57(4) . . .
51(4) . . .
50(4) . . .
51(4) . . .
44(4) . . .
43(4) . . .
40.7(34) . . .
54(4) . . .
49(4) . . .
46(4) . . .
47(4) . . .
39.3(34) . . .
37.0(33) . . .
49(4) . . .
41(4) . . .
50(4) . . .
50(4) . . .
56(4) . . .
48(4) . . .
49(4) . . .
48(4) . . .
48(4) . . .
50(4) . . .
50(4) . . .
56(4) . . .
56(4) . . .
50(4) . . .
36.3(32) . . .
50(4) . . .
51(4) . . .
53(4) . . .
58(4) . . .
44.7(35) . . .
39.1(33) . . .
43(4) . . .
45(4) . . .
47(4) . . .
45(4) . . .
53(4) . . .
48(4) . . .
56(4) . . .
54(4) . . .
43.6(34) . . .
48(4) . . .
57(4) . . .
49(4) . . .
40.0(33) . . .
41.4(34) . . .
49(4) . . .
46(4) . . .
45(4) . . .
44(4) . . .
49(4) . . .
40.6(34) . . .
54(4) . . .
44.4(35) . . .
47(4) . . .
42.7(34) . . .
50(4) . . .
42(4) . . .
43(4) . . .
51(4) . . .
52(4) . . .
42.2(34) . . .
38.2(34) . . .
42.1(35) . . .
44.8(35) . . .
43.0(34) . . .
44(4) . . .
41(4) . . .
44(4) . . .
40.9(33) . . .
39.1(32) . . .
55(4) . . .
44(4) . . .
41.0(34) . . .
48(4) . . .
44.4(35) . . .
52(4) . . .
56(4) . . .
56(4) . . .
41.7(34) . . .
49(4) . . .
50(4) . . .
47(4) . . .
42.5(34) . . .
41.4(34) . . .
39.6(34) . . .
53(4) . . .
39.3(31) . . .
42.8(34) . . .
58(4) . . .
50(4) . . .
50(4) . . .
52(4) . . .
42.4(34) . . .
54(4) . . .
54(4) . . .
53(4) . . .
53(4) . . .
53(4) . . .
50(4) . . .
52(4) . . .
49(4) . . .
39.1(32) . . .
47(4) . . .
41.9(34) . . .
52(4) . . .
54(4) . . .
39.8(33) . . .
47(4) . . .
45(4) . . .
54(4) . . .
54(4) . . .
45(4) . . .
44.3(35) . . .
49(4) . . .
49(4) . . .
58(4) . . .
45(4) . . .
52(4) . . .
50(4) . . .
49(4) . . .
49(4) . . .
45(4) . . .
41.3(33) . . .
41.9(34) . . .
50(4) . . .
41(4) . . .
47(4) . . .
46(4) . . .
37.8(33) . . .
46(4) . . .
44(4) . . .
59(4) . . .
43.9(35) . . .
48(4) . . .
39.4(34) . . .
36.0(32) . . .
54(4) . . .
40.0(33) . . .
47(4) . . .
48(4) . . .
58(4) . . .
44.2(34) . . .
51(4) . . .
48(4) . . .
47(4) . . .
46(4) . . .
39.6(32) . . .
44.7(35) . . .
46(4) . . .
40.0(33) . . .
52(4) . . .
42.2(33) . . .
37.4(32) . . .
50(4) . . .
48(4) . . .
42.3(35) . . .
54(4) . . .
36.9(34) . . .
50(4) . . .
40.3(32) . . .
38.3(32) . . .
50(4) . . .
50(4) . . .
44(4) . . .
42(4) . . .
39.7(34) . . .
46.3(35) . . .
47(4) . . .
55(4) . . .
45.3(35) . . .
53(4) . . .
40.6(33) . . .
48(4) . . .
43.5(35) . . .
58(4) . . .
49(4) . . .
48(4) . . .
42.3(34) . . .
53(4) . . .
43.5(34) . . .
48(4) . . .
34.9(31) . . .
54(4) . . .
41.0(32) . . .
44.3(34) . . .
50(4) . . .
55(4) . . .
52(4) . . .
54(4) . . .
46(4) . . .
41.3(35) . . .
50(4) . . .
46(4) . . .
39.3(34) . . .
49(4) . . .
39.9(33) . . .
48(4) . . .
54(4) . . .
42(4) . . .
45(4) . . .
40.0(32) . . .
42.6(34) . . .
47(4) . . .
41.3(33) . . .
48(4) . . .
50(4) . . .
45(4) . . .
42.7(35) . . .
44(4) . . .
46(4) . . .
50(4) . . .
36.7(33) . . .
42.4(35) . . .
48(4) . . .
44(4) . . .
44.5(35) . . .
41.8(35) . . .
37.1(35) . . .
40.5(35) . . .
44(4) . . .
38.7(32) . . .
41.7(34) . . .
49(4) . . .
48(4) . . .
48(4) . . .
37.6(32) . . .
42.5(35) . . .
36.4(33) . . .
44(4) . . .
50(4) . . .
56(4) . . .
43(4) . . .
45(4) . . .
48(4) . . .
47(4) . . .
43.0(34) . . .
43(4) . . .
44(4) . . .
43(4) . . .
47(4) . . .
53(4) . . .
52(4) . . .
45(4) . . .
38.5(32) . . .
41.9(35) . . .
43.7(35) . . .
48(4) . . .
49(4) . . .
47(4) . . .
46(4) . . .
47(4) . . .
50(4) . . .
43.0(35) . . .
51(4) . . .
49(4) . . .
46(4) . . .
45(4) . . .
43(4) . . .
48(4) . . .
40.1(33) . . .
45.6(35) . . .
50(4) . . .
42.0(33) . . .
50(4) . . .
48(4) . . .
48(4) . . .
44.5(35) . . .
47(4) . . .
51(4) . . .
54(4) . . .
50(4) . . .
49(4) . . .
45(4) . . .
44(4) . . .
64(4) . . .
45(4) . . .
48(4) . . .
48(4) . . .
45(4) . . .
49(4) . . .
41.7(35) . . .
37.0(33) . . .
36.7(31) . . .
56(4) . . .
45.8(35) . . .
47(4) . . .
50(4) . . .
43.4(34) . . .
47(4) . . .
43.0(34) . . .
36.0(31) . . .
40.5(34) . . .
53(4) . . .
45.0(35) . . .
45(4) . . .
48(4) . . .
36.8(32) . . .
48(4) . . .
48(4) . . .
51(4) . . .
55(4) . . .
42(4) . . .
41(4) . . .
47(4) . . .
41.5(34) . . .
41.5(35) . . .
51(4) . . .
48(4) . . .
47(4) . . .
44.6(34) . . .
50(4) . . .
55(4) . . .
44(4) . . .
44(4) . . .
53(4) . . .
48(4) . . .
41(4) . . .
44(4) . . .
41.1(34) . . .
48(4) . . .
53(4) . . .
50(4) . . .
54(4) . . .
40.3(33) . . .
58(4) . . .
63(5) . . .
42.4(35) . . .
43(4) . . .
44.1(35) . . .
49(4) . . .
46.3(35) . . .
46(4) . . .
45(4) . . .
52(4) . . .
47(4) . . .
49(4) . . .
41.5(33) . . .
45(4) . . .
45.5(35) . . .
44(4) . . .
39.5(35) . . .
48(4) . . .
44(4) . . .
48(4) . . .
45(4) . . .
56(4) . . .
53(4) . . .
45(4) . . .
51(4) . . .
51(4) . . .
44(4) . . .
41(4) . . .
49(4) . . .
56(4) . . .
44(4) . . .
38.0(35) . . .
44(4) . . .
46(4) . . .
57(4) . . .
43.9(34) . . .
60(5) . . .
55(4) . . .
51(4) . . .
43.1(34) . . .
45(4) . . .
42(4) . . .
47(4) . . .
38.4(32) . . .
42(4) . . .
46(4) . . .
49(4) . . .
50(4) . . .
41.5(33) . . .
47(4) . . .
49(4) . . .
45(4) . . .
43.8(35) . . .
48(4) . . .
47(4) . . .
49(4) . . .
49(4) . . .
48(4) . . .
50(4) . . .
48(4) . . .
50(4) . . .
42(4) . . .
43(4) . . .
42.1(34) . . .
43(4) . . .
48(4) . . .
46(4) . . .
52(4) . . .
43.5(34) . . .
43(4) . . .
55(4) . . .
42.1(34) . . .
49(4) . . .
38.5(33) . . .
51(4) . . .
51(4) . . .
46(4) . . .
44.4(35) . . .
46(4) . . .
53(4) . . .
47(4) . . .
38.3(33) . . .
48(4) . . .
48(4) . . .
41(4) . . .
39(4) . . .
46(4) . . .
43.4(34) . . .
41.0(34) . . .
51(4) . . .
49(4) . . .
55(4) . . .
42.3(34) . . .
53(4) . . .
48(4) . . .
45(4) . . .
51(4) . . .
47(4) . . .
48(4) . . .
53(4) . . .
52(4) . . .
48(4) . . .
47(4) . . .
44.9(35) . . .
42.6(35) . . .
44(4) . . .
37.8(32) . . .
46(4) . . .
43(4) . . .
39.0(34) . . .
43(4) . . .
38.7(32) . . .
50(4) . . .
49(4) . . .
39.3(33) . . .
41.1(34) . . .
48(4) . . .
44(4) . . .
57(4) . . .
42.7(33) . . .
43.5(34) . . .
53(4) . . .
54(4) . . .
46(4) . . .
56(4) . . .
53(4) . . .
42.2(34) . . .
50(4) . . .
40.4(34) . . .
43(4) . . .
44.3(34) . . .
45(4) . . .
43.5(34) . . .
49(4) . . .
52(4) . . .
48(4) . . .
55(4) . . .
47(4) . . .
47(4) . . .
40.8(34) . . .
44(4) . . .
43.5(35) . . .
58(4) . . .
47(4) . . .
46(4) . . .
41.7(35) . . .
43.4(35) . . .
47(4) . . .
51(4) . . .
46(4) . . .
52(4) . . .
51(4) . . .
45(4) . . .
42.8(34) . . .
44(4) . . .
35.6(32) . . .
33.9(31) . . .
35.0(31) . . .
45(4) . . .
50(4) . . .
38.9(33) . . .
44.4(35) . . .
47(4) . . .
45(4) . . .
43(4) . . .
41.8(34) . . .
44.0(35) . . .
47(4) . . .
51(4) . . .
34.8(32) . . .
35.3(32) . . .
56(4) . . .
49(4) . . .
55(4) . . .
45(4) . . .
44(4) . . .
41.7(34) . . .
46(4) . . .
43(4) . . .
32.7(30) . . .
48(4) . . .
44.2(35) . . .
51(4) . . .
46(4) . . .
45(4) . . .
43.8(35) . . .
50(4) . . .
52(4) . . .
48(4) . . .
48(4) . . .
43.2(34) . . .
38.8(32) . . .
54(4) . . .
39.3(35) . . .
48(4) . . .
38.4(32) . . .
41.6(33) . . .
49(4) . . .
46(4) . . .
54(4) . . .
49(4) . . .
41.5(34) . . .
47(4) . . .
46(4) . . .
44.0(35) . . .
53(4) . . .
41.2(34) . . .
48(4) . . .
46(4) . . .
48(4) . . .
46(4) . . .
39.5(33) . . .
41.5(35) . . .
40.9(34) . . .
43.9(34) . . .
43.1(34) . . .
42(4) . . .
47(4) . . .
44(4) . . .
38.0(32) . . .
50(4) . . .
40.5(33) . . .
42(4) . . .
48(4) . . .
35.3(31) . . .
43.1(35) . . .
51(4) . . .
43(4) . . .
41.4(33) . . .
44.4(35) . . .
45.2(35) . . .
49(4) . . .
50(4) . . .
45(4) . . .
45.0(35) . . .
43.3(34) . . .
57(4) . . .
49(4) . . .
44(4) . . .
42.8(33) . . .
39.1(33) . . .
48(4) . . .
45(4) . . .
47(4) . . .
42.3(35) . . .
59(4) . . .
50(4) . . .
43(4) . . .
44(4) . . .
43.6(35) . . .
41.0(34) . . .
53(4) . . .
38.3(32) . . .
45(4) . . .
45(4) . . .
46(4) . . .
44(4) . . .
45(4) . . .
47(4) . . .
46(4) . . .
46(4) . . .
50(4) . . .
43.7(34) . . .
47(4) . . .
47(4) . . .
52(4) . . .
47(4) . . .
44.3(34) . . .
51(4) . . .
34.8(31) . . .
45(4) . . .
48(4) . . .
39.0(33) . . .
49(4) . . .
46(4) . . .
54(4) . . .
36.1(33) . . .
47(4) . . .
51(4) . . .
40.4(33) . . .
42.0(34) . . .
49(4) . . .
42.2(35) . . .
52(4) . . .
45.5(35) . . .
53(4) . . .
45(4) . . .
43(4) . . .
49(4) . . .
44.6(35) . . .
51(4) . . .
40.7(35) . . .
35.8(32) . . .
48(4) . . .
51(4) . . .
49(4) . . .
57(4) . . .
49(4) . . .
58(4) . . .
53(4) . . .
47(4) . . .
60(4) . . .
48(4) . . .
44.9(34) . . .
48(4) . . .
38.1(33) . . .
47(4) . . .
40.0(33) . . .
37.8(32) . . .
44(4) . . .
46(4) . . .
38.2(32) . . .
48(4) . . .
48(4) . . .
52(4) . . .
46(4) . . .
46(4) . . .
54(4) . . .
49(4) . . .
51(4) . . .
39.6(34) . . .
49(4) . . .
41.9(34) . . .
35.3(31) . . .
42(4) . . .
44(4) . . .
49(4) . . .
52(4) . . .
44.7(35) . . .
51(4) . . .
37.5(33) . . .
46(4) . . .
51(4) . . .
42.2(35) . . .
50(4) . . .
56(4) . . .
42.3(34) . . .
41.5(33) . . .
43.2(34) . . .
47(4) . . .
51(4) . . .
45(4) . . .
48(4) . . .
48(4) . . .
44.9(35) . . .
48(4) . . .
43.2(34) . . .
42.6(34) . . .
41.1(34) . . .
40.8(34) . . .
51(4) . . .
53(4) . . .
46(4) . . .
50(4) . . .
45(4) . . .
44(4) . . .
37.4(33) . . .
40.3(33) . . .
49(4) . . .
42(4) . . .
49(4) . . .
46(4) . . .
42.2(34) . . .
40.7(34) . . .
38.8(33) . . .
45(4) . . .
41.9(34) . . .
40.6(34) . . .
37.4(34) . . .
41.4(35) . . .
41(4) . . .
47(4) . . .
44.9(35) . . .
46.0(35) . . .
46(4) . . .
42(4) . . .
52(4) . . .
54(4) . . .
36.6(32) . . .
44(4) . . .
43(4) . . .
49(4) . . .
54(4) . . .
49(4) . . .
41(4) . . .
51(4) . . .
49(4) . . .
51(4) . . .
48(4) . . .
43(4) . . .
49(4) . . .
48(4) . . .
36.8(31) . . .
47(4) . . .
42(4) . . .
44(4) . . .
48(4) . . .
48(4) . . .
51(4) . . .
51(4) . . .
52(4) . . .
46(4) . . .
53(4) . . .
50(4) . . .
46(4) . . .
50(4) . . .
57(4) . . .
46(4) . . .
53(4) . . .
45(4) . . .
46(4) . . .
48(4) . . .
50(4) . . .
49(4) . . .
51(4) . . .
44(4) . . .
45.0(35) . . .
48(4) . . .
37.2(34) . . .
43(4) . . .
41.7(34) . . .
48(4) . . .
50(4) . . .
45(4) . . .
46(4) . . .
46(4) . . .
55(4) . . .
48(4) . . .
53(4) . . .
50(4) . . .
47(4) . . .
38.9(32) . . .
46(4) . . .
50(4) . . .
48(4) . . .
40.3(33) . . .
44.1(34) . . .
42.6(34) . . .
53(4) . . .
42.6(35) . . .
48(4) . . .
47(4) . . .
45(4) . . .
45(4) . . .
44(4) . . .
42.9(34) . . .
55(4) . . .
41.9(34) . . .
50(4) . . .
41.5(34) . . .
39.1(33) . . .
50(4) . . .
44(4) . . .
39(4) . . .
40(4) . . .
42.2(34) . . .
46(4) . . .
47(4) . . .
52(4) . . .
50(4) . . .
45.6(35) . . .
42.4(34) . . .
44(4) . . .
37.0(34) . . .
42(4) . . .
43.5(35) . . .
50(4) . . .
51(4) . . .
50(4) . . .
49(4) . . .
42.4(34) . . .
54(4) . . .
51(4) . . .
49(4) . . .
40.2(34) . . .
52(4) . . .
44(4) . . .
45(4) . . .
44(4) . . .
31.9(29) . . .
45.1(35) . . .
61(4) . . .
53(4) . . .
45(4) . . .
54(4) . . .
47(4) . . .
43.8(35) . . .
45(4) . . .
40.7(35) . . .
53(4) . . .
57(4) . . .
43.5(34) . . .
50(4) . . .
49(4) . . .
49(4) . . .
46(4) . . .
34.4(31) . . .
38(4) . . .
38.0(33) . . .
44.6(34) . . .
40.5(33) . . .
51(4) . . .
44(4) . . .
39.3(33) . . .
49(4) . . .
46(4) . . .
51(4) . . .
48(4) . . .
42.1(33) . . .
43.5(34) . . .
49(4) . . .
46(4) . . .
46(4) . . .
39.7(33) . . .
47(4) . . .
59(4) . . .
51(4) . . .
47(4) . . .
36.6(32) . . .
47(4) . . .
48(4) . . .
55(4) . . .
42.6(35) . . .
40.1(34) . . .
39.5(32) . . .
43(4) . . .
50(4) . . .
40.5(33) . . .
50(4) . . .
45.2(35) . . .
39.1(34) . . .
40.3(35) . . .
44(4) . . .
51(4) . . .
46(4) . . .
51(4) . . .
56(4) . . .
48(4) . . .
42.5(34) . . .
50(4) . . .
50(4) . . .
51(4) . . .
44(4) . . .
38.4(32) . . .
49(4) . . .
49(4) . . .
43(4) . . .
43.2(35) . . .
40.8(33) . . .
49(4) . . .
45(4) . . .
42(4) . . .
45(4) . . .
49(4) . . .
48(4) . . .
48(4) . . .
44(4) . . .
47(4) . . .
42.2(34) . . .
44.8(35) . . .
42.6(34) . . .
42.1(34) . . .
46(4) . . .
50(4) . . .
48(4) . . .
49(4) . . .
51(4) . . .
46(4) . . .
43.5(34) . . .
40.3(34) . . .
43.1(34) . . .
47(4) . . .
42.0(34) . . .
45(4) . . .
47(4) . . .
38.9(34) . . .
48(4) . . .
46(4) . . .
40.3(33) . . .
43(4) . . .
43(4) . . .
46(4) . . .
46(4) . . .
49(4) . . .
47(4) . . .
48(4) . . .
41.5(34) . . .
53(4) . . .
47(4) . . .
50(4) . . .
48(4) . . .
52(4) . . .
54(4) . . .
37.8(31) . . .
49(4) . . .
43(4) . . .
36.9(32) . . .
53(4) . . .
46(4) . . .
45(4) . . .
41.1(34) . . .
58(4) . . .
43.7(34) . . .
39.0(34) . . .
40.5(34) . . .
46(4) . . .
47(4) . . .
52(4) . . .
45(4) . . .
43.0(34) . . .
51(4) . . .
57(4) . . .
53(4) . . .
44(4) . . .
49(4) . . .
52(4) . . .
51(4) . . .
54(4) . . .
49(4) . . .
39.0(34) . . .
41.6(35) . . .
45(4) . . .
45.5(35) . . .
48(4) . . .
36.4(32) . . .
53(4) . . .
49(4) . . .
43.6(34) . . .
47(4) . . .
52(4) . . .
42.5(35) . . .
50(4) . . .
45.3(34) . . .
49(4) . . .
43.1(35) . . .
47(4) . . .
47(4) . . .
49(4) . . .
42.8(35) . . .
49(4) . . .
50(4) . . .
41.3(33) . . .
45(4) . . .
50(4) . . .
51(4) . . .
44(4) . . .
46(4) . . .
45(4) . . .
49(4) . . .
51(4) . . .
48(4) . . .
53(4) . . .
43.1(34) . . .
40.5(35) . . .
42(4) . . .
41.0(35) . . .
40.3(34) . . .
48(4) . . .
49(4) . . .
40.9(35) . . .
51(4) . . .
48(4) . . .
53(4) . . .
41.0(34) . . .
47(4) . . .
45(4) . . .
38.3(32) . . .
48(4) . . .
47(4) . . .
39.8(35) . . .
31.1(30) . . .
49(4) . . .
50(4) . . .
41(4) . . .
41.2(33) . . .
35.7(31) . . .
40.5(33) . . .
58(4) . . .
58(4) . . .
43(4) . . .
42.1(34) . . .
41.6(35) . . .
53(4) . . .
35.3(31) . . .
48(4) . . .
49(4) . . .
40.4(33) . . .
50(4) . . .
41(4) . . .
46(4) . . .
42.6(35) . . .
47(4) . . .
44(4) . . .
50(4) . . .
47(4) . . .
42.7(34) . . .
51(4) . . .
46(4) . . .
44(4) . . .
42(4) . . .
45.8(35) . . .
47(4) . . .
39(4) . . .
36.8(35) . . .
38.4(34) . . .
49(4) . . .
57(4) . . .
42(4) . . .
40.4(34) . . .
41(4) . . .
54(4) . . .
39.9(34) . . .
47(4) . . .
53(4) . . .
43(4) . . .
51(4) . . .
40.0(33) . . .
48(4) . . .
47(4) . . .
46(4) . . .
54(4) . . .
57(4) . . .
45(4) . . .
45(4) . . .
48(4) . . .
37.2(32) . . .
43(4) . . .
50(4) . . .
49(4) . . .
38.0(33) . . .
45(4) . . .
40.8(34) . . .
43(4) . . .
41.8(34) . . .
42.1(34) . . .
39.1(32) . . .
35.7(33) . . .
46(4) . . .
39.7(32) . . .
38.6(32) . . .
47(4) . . .
41.7(33) . . .
43(4) . . .
46(4) . . .
41.5(33) . . .
47(4) . . .
53(4) . . .
47(4) . . .
50(4) . . .
50(4) . . .
47(4) . . .
43(4) . . .
45(4) . . .
43(4) . . .
41.8(33) . . .
39.6(35) . . .
34.0(32) . . .
39.1(34) . . .
46(4) . . .
41.0(33) . . .
46(4) . . .
42.1(35) . . .
42(4) . . .
34.0(31) . . .
43.5(34) . . .
51(4) . . .
50(4) . . .
40.1(35) . . .
38.6(32) . . .
52(4) . . .
52(4) . . .
49(4) . . .
38.3(33) . . .
48(4) . . .
40.0(32) . . .
33.3(32) . . .
52(4) . . .
54(4) . . .
36.7(32) . . .
44.7(34) . . .
46.6(35) . . .
53(4) . . .
53(4) . . .
38.7(33) . . .
51(4) . . .
42.2(34) . . .
43(4) . . .
40.7(35) . . .
39.0(32) . . .
41.6(33) . . .
52(4) . . .
45(4) . . .
47(4) . . .
49(4) . . .
48(4) . . .
50(4) . . .
44(4) . . .
44(4) . . .
41.3(33) . . .
37.8(32) . . .
50(4) . . .
49(4) . . .
46(4) . . .
54(4) . . .
42.1(33) . . .
37.4(32) . . .
35.0(32) . . .
37.5(33) . . .
43.0(35) . . .
60(4) . . .
39.6(33) . . .
47(4) . . .
45(4) . . .
56(4) . . .
44(4) . . .
47(4) . . .
41.4(35) . . .
44(4) . . .
45.2(35) . . .
47(4) . . .
40.1(33) . . .
36.7(32) . . .
41(4) . . .
49(4) . . .
52(4) . . .
38.2(33) . . .
42(4) . . .
45(4) . . .
47(4) . . .
55(4) . . .
47(4) . . .
46(4) . . .
55(4) . . .
48(4) . . .
42.0(34) . . .
44(4) . . .
49(4) . . .
42.1(34) . . .
45.4(35) . . .
39.6(32) . . .
46(4) . . .
40.0(34) . . .
50(4) . . .
49(4) . . .
52(4) . . .
51(4) . . .
61(4) . . .
40.5(34) . . .
41.3(35) . . .
52(4) . . .
54(4) . . .
48(4) . . .
50(4) . . .
34.1(30) . . .
48(4) . . .
43(4) . . .
38.3(34) . . .
31.1(30) . . .
47(4) . . .
44(4) . . .
44(4) . . .
40.2(33) . . .
47(4) . . .
44(4) . . .
51(4) . . .
49(4) . . .
37.4(33) . . .
36.8(31) . . .
45(4) . . .
44(4) . . .
44(4) . . .
47(4) . . .
49(4) . . .
39.7(34) . . .
46(4) . . .
49(4) . . .
45(4) . . .
51(4) . . .
42.5(35) . . .
51(4) . . .
45(4) . . .
51(4) . . .
48(4) . . .
47(4) . . .
48(4) . . .
45(4) . . .
44.1(34) . . .
37.8(33) . . .
40.6(34) . . .
47(4) . . .
46(4) . . .
51(4) . . .
43.5(35) . . .
41.0(34) . . .
32.1(30) . . .
40(4) . . .
50(4) . . .
50(4) . . .
53(4) . . .
52(4) . . .
43.0(34) . . .
45(4) . . .
39.0(33) . . .
40.3(34) . . .
44(4) . . .
39.0(33) . . .
48(4) . . .
35.4(31) . . .
47(4) . . .
44.1(35) . . .
52(4) . . .
47(4) . . .
40.7(34) . . .
48(4) . . .
47(4) . . .
43(4) . . .
44.3(34) . . .
40.6(35) . . .
48(4) . . .
53(4) . . .
49(4) . . .
48(4) . . .
47(4) . . .
39(4) . . .
51(4) . . .
46(4) . . .
48(4) . . .
43(4) . . .
43(4) . . .
35.0(32) . . .
41.3(33) . . .
45(4) . . .
46(4) . . .
43(4) . . .
45(4) . . .
49(4) . . .
47(4) . . .
45(4) . . .
39(4) . . .
42(4) . . .
37.5(33) . . .
49(4) . . .
48(4) . . .
54(4) . . .
37.5(33) . . .
42.2(34) . . .
42.4(33) . . .
52(4) . . .
35.3(32) . . .
50(4) . . .
55(4) . . .
42(4) . . .
38.2(33) . . .
40.2(35) . . .
41.6(34) . . .
46(4) . . .
49(4) . . .
56(4) . . .
45(4) . . .
40.9(33) . . .
45(4) . . .
42.0(34) . . .
43.2(34) . . .
54(4) . . .
46(4) . . .
43.2(35) . . .
52(4) . . .
37.8(32) . . .
44(4) . . .
43.5(34) . . .
41.4(33) . . .
40.6(34) . . .
38.5(34) . . .
36.9(34) . . .
40.2(33) . . .
38.8(33) . . .
43.6(34) . . .
42.0(35) . . .
39.4(33) . . .
41.3(34) . . .
39.5(33) . . .
46(4) . . .
36.1(33) . . .
38.6(34) . . .
34.6(31) . . .
46(4) . . .
51(4) . . .
47(4) . . .
53(4) . . .
46(4) . . .
56(4) . . .
55(4) . . .
61(5) . . .
53(4) . . .
48(4) . . .
37.7(31) . . .
42.8(34) . . .
53(4) . . .
45(4) . . .
52(4) . . .
44.0(35) . . .
47(4) . . .
49(4) . . .
49(4) . . .
46(4) . . .
41.6(34) . . .
38.7(34) . . .
38.6(35) . . .
49(4) . . .
40.1(33) . . .
39.4(33) . . .
53(4) . . .
53(4) . . .
51(4) . . .
39.2(33) . . .
53(4) . . .
58(4) . . .
39.9(33) . . .
50(4) . . .
42.7(34) . . .
45(4) . . .
45(4) . . .
40.2(35) . . .
51(4) . . .
42.6(34) . . .
39.2(34) . . .
42(4) . . .
43(4) . . .
47(4) . . .
47(4) . . .
47(4) . . .
32.4(29) . . .
41(4) . . .
45.0(35) . . .
46(4) . . .
49(4) . . .
43(4) . . .
40(4) . . .
40.0(33) . . .
54(4) . . .
45(4) . . .
49(4) . . .
43(4) . . .
38.8(32) . . .
47(4) . . .
50(4) . . .
47(4) . . .
44(4) . . .
45(4) . . .
35.8(32) . . .
43(4) . . .
43.7(35) . . .
45(4) . . .
43.7(35) . . .
48(4) . . .
44(4) . . .
49(4) . . .
49(4) . . .
52(4) . . .
50(4) . . .
51(4) . . .
47(4) . . .
50(4) . . .
49(4) . . .
43(4) . . .
39.0(35) . . .
47(4) . . .
46(4) . . .
56(4) . . .
51(4) . . .
53(4) . . .
45(4) . . .
44(4) . . .
43(4) . . .
48(4) . . .
44(4) . . .
49(4) . . .
47(4) . . .
42.1(34) . . .
49(4) . . .
44(4) . . .
47(4) . . .
46(4) . . .
48(4) . . .
50(4) . . .
43(4) . . .
49(4) . . .
40.1(34) . . .
41.4(34) . . .
44.2(35) . . .
47(4) . . .
44(4) . . .
42.6(35) . . .
41.1(33) . . .
49(4) . . .
36.6(33) . . .
43(4) . . .
47(4) . . .
46(4) . . .
48(4) . . .
41(4) . . .
39.5(33) . . .
41.3(34) . . .
41.7(34) . . .
43(4) . . .
46(4) . . .
55(4) . . .
45.5(35) . . .
44(4) . . .
52(4) . . .
46(4) . . .
55(4) . . .
48(4) . . .
52(4) . . .
44.5(35) . . .
49(4) . . .
45(4) . . .
41.8(33) . . .
41.5(34) . . .
37.6(33) . . .
35.0(32) . . .
52(4) . . .
36.8(32) . . .
45(4) . . .
35.9(30) . . .
50(4) . . .
51(4) . . .
56(4) . . .
43(4) . . .
44(4) . . .
47(4) . . .
41.0(34) . . .
42.6(34) . . .
56(4) . . .
47(4) . . .
40.3(33) . . .
41.0(34) . . .
35.0(31) . . .
44(4) . . .
50(4) . . .
56(4) . . .
43.3(34) . . .
44.4(34) . . .
50(4) . . .
49(4) . . .
50(4) . . .
44(4) . . .
46(4) . . .
51(4) . . .
47(4) . . .
38.9(34) . . .
41.9(33) . . .
44.6(35) . . .
57(4) . . .
42(4) . . .
45(4) . . .
41.5(33) . . .
43.2(35) . . .
37.4(33) . . .
47(4) . . .
45(4) . . .
41.5(33) . . .
36.2(33) . . .
40.0(34) . . .
42(4) . . .
34.4(31) . . .
46(4) . . .
45.2(35) . . .
61(4) . . .
44.2(34) . . .
58(4) . . .
42.3(34) . . .
40.3(34) . . .
47(4) . . .
35.4(32) . . .
44(4) . . .
42.9(34) . . .
54(4) . . .
43(4) . . .
43(4) . . .
41.2(33) . . .
50(4) . . .
35.6(31) . . .
54(4) . . .
39.7(34) . . .
46(4) . . .
64(4) . . .
43.4(34) . . .
39.3(34) . . .
49(4) . . .
55(4) . . .
55(4) . . .
38.3(33) . . .
43(4) . . .
38.9(35) . . .
40.8(34) . . .
31.6(29) . . .
44(4) . . .
45(4) . . .
42.4(35) . . .
42.7(34) . . .
39.1(33) . . .
53(4) . . .
45(4) . . .
40.5(35) . . .
43.9(34) . . .
39.3(34) . . .
43(4) . . .
47(4) . . .
40.0(33) . . .
44(4) . . .
36.7(33) . . .
42.4(35) . . .
46(4) . . .
43(4) . . .
41.2(34) . . .
36.4(31) . . .
51(4) . . .
47(4) . . .
43.9(34) . . .
50(4) . . .
46(4) . . .
50(4) . . .
43(4) . . .
44.1(35) . . .
47(4) . . .
43.2(35) . . .
50(4) . . .
40.3(32) . . .
47(4) . . .
44.0(35) . . .
45(4) . . .
46(4) . . .
43.1(34) . . .
47(4) . . .
42.1(33) . . .
37.2(32) . . .
37.4(33) . . .
50(4) . . .
37.2(31) . . .
41.9(35) . . .
45(4) . . .
40(4) . . .
36.1(32) . . .
38.9(32) . . .
49(4) . . .
42.2(34) . . .
47(4) . . .
42.3(35) . . .
44.5(35) . . .
48(4) . . .
48(4) . . .
44(4) . . .
40.6(34) . . .
49(4) . . .
43.5(34) . . .
37.6(32) . . .
41.0(35) . . .
42(4) . . .
41.8(34) . . .
48(4) . . .
34.2(32) . . .
42.2(35) . . .
47(4) . . .
49(4) . . .
55(4) . . .
50(4) . . .
39.5(35) . . .
49(4) . . .
46(4) . . .
52(4) . . .
47(4) . . .
43(4) . . .
55(4) . . .
50(4) . . .
43(4) . . .
46(4) . . .
47(4) . . .
55(4) . . .
49(4) . . .
44(4) . . .
36.6(33) . . .
36.4(32) . . .
47(4) . . .
41.6(33) . . .
49(4) . . .
48(4) . . .
48(4) . . .
38.3(33) . . .
48(4) . . .
47(4) . . .
49(4) . . .
42.9(34) . . .
53(4) . . .
48(4) . . .
47(4) . . .
44(4) . . .
42(4) . . .
50(4) . . .
55(4) . . .
47(4) . . .
46(4) . . .
41(4) . . .
43.7(35) . . .
46(4) . . .
49(4) . . .
38.5(33) . . .
44(4) . . .
60(4) . . .
40.6(33) . . .
43(4) . . .
34.0(31) . . .
36.7(32) . . .
38.4(32) . . .
48(4) . . .
48(4) . . .
39.6(33) . . .
40.8(34) . . .
46(4) . . .
51(4) . . .
40.0(35) . . .
42.3(33) . . .
42.6(34) . . .
42.7(35) . . .
50(4) . . .
60(4) . . .
47(4) . . .
43.9(35) . . .
40.0(32) . . .
36.8(32) . . .
40.3(35) . . .
41.3(35) . . .
52(4) . . .
40.8(34) . . .
39.2(34) . . .
40.0(35) . . .
36.6(33) . . .
37.4(32) . . .
44(4) . . .
44(4) . . .
48(4) . . .
49(4) . . .
50(4) . . .
45.1(34) . . .
47(4) . . .
51(4) . . .
44(4) . . .
43.9(34) . . .
43.0(35) . . .
51(4) . . .
46(4) . . .
52(4) . . .
34.8(31) . . .
35.8(32) . . .
45(4) . . .
36.8(33) . . .
43.0(35) . . .
53(4) . . .
50(4) . . .
38.0(31) . . .
46(4) . . .
38.3(33) . . .
47(4) . . .
46(4) . . .
48(4) . . .
36.3(31) . . .
46(4) . . .
40.6(34) . . .
51(4) . . .
43(4) . . .
44(4) . . .
45(4) . . .
37.0(32) . . .
49(4) . . .
48(4) . . .
50(4) . . .
43.8(35) . . .
35.7(31) . . .
35.2(31) . . .
41(4) . . .
52(4) . . .
47(4) . . .
38.2(32) . . .
45(4) . . .
47(4) . . .
53(4) . . .
41.7(33) . . .
39.0(33) . . .
46(4) . . .
40.5(34) . . .
49(4) . . .
45(4) . . .
48(4) . . .
51(4) . . .
45(4) . . .
39.6(33) . . .
44.7(34) . . .
44(4) . . .
40.8(35) . . .
51(4) . . .
42.8(34) . . .
52(4) . . .
52(4) . . .
40.8(33) . . .
48(4) . . .
40(4) . . .
40.5(33) . . .
49(4) . . .
42(4) . . .
48(4) . . .
50(4) . . .
38.6(33) . . .
53(4) . . .
50(4) . . .
38.7(34) . . .
38.8(35) . . .
40.7(33) . . .
44(4) . . .
42(4) . . .
44(4) . . .
46(4) . . .
43.9(34) . . .
45(4) . . .
49(4) . . .
45.4(35) . . .
45(4) . . .
43.8(34) . . .
45(4) . . .
51(4) . . .
53(4) . . .
52(4) . . .
48(4) . . .
33.1(30) . . .
35.8(32) . . .
43(4) . . .
40.4(33) . . .
48(4) . . .
61(4) . . .
38.1(32) . . .
48(4) . . .
48(4) . . .
58(4) . . .
40.8(32) . . .
50(4) . . .
48(4) . . .
48(4) . . .
49(4) . . .
50(4) . . .
49(4) . . .
36.7(34) . . .
37.7(32) . . .
48(4) . . .
50(4) . . .
41(4) . . .
39.0(35) . . .
45(4) . . .
52(4) . . .
46(4) . . .
35.8(33) . . .
37.8(33) . . .
48(4) . . .
48(4) . . .
54(4) . . .
42(4) . . .
41.5(35) . . .
45.4(35) . . .
50(4) . . .
40.3(34) . . .
39.4(33) . . .
42.1(34) . . .
42.1(34) . . .
47(4) . . .
51(4) . . .
43(4) . . .
47(4) . . .
44.2(35) . . .
44(4) . . .
47(4) . . .
39.0(34) . . .
38.8(32) . . .
48(4) . . .
43(4) . . .
41.2(34) . . .
39.5(32) . . .
41.9(33) . . .
44.8(35) . . .
44(4) . . .
41(4) . . .
37.3(32) . . .
37.8(32) . . .
49(4) . . .
52(4) . . .
53(4) . . .
48(4) . . .
35.6(31) . . .
39.1(33) . . .
47(4) . . .
44(4) . . .
55(4) . . .
56(4) . . .
40.9(33) . . .
47(4) . . .
54(4) . . .
46(4) . . .
47(4) . . .
48(4) . . .
42(4) . . .
38.6(34) . . .
37.9(34) . . .
48(4) . . .
50(4) . . .
36.7(32) . . .
42.7(34) . . .
48(4) . . .
50(4) . . .
51(4) . . .
45(4) . . .
46(4) . . .
45(4) . . .
45.6(35) . . .
41(4) . . .
36.3(32) . . .
48(4) . . .
41.2(34) . . .
41.2(33) . . .
47(4) . . .
50(4) . . .
48(4) . . .
48(4) . . .
40.0(33) . . .
47(4) . . .
41(4) . . .
39.6(34) . . .
52(4) . . .
41.4(33) . . .
40.9(33) . . .
43.9(35) . . .
54(4) . . .
42.2(34) . . .
43.5(34) . . .
49(4) . . .
43(4) . . .
37.2(32) . . .
44.4(34) . . .
49(4) . . .
45(4) . . .
43(4) . . .
46(4) . . .
38.7(32) . . .
49(4) . . .
40(4) . . .
52(4) . . .
48(4) . . .
45.1(34) . . .
39.8(34) . . .
52(4) . . .
48(4) . . .
44(4) . . .
47(4) . . .
44.1(35) . . .
46(4) . . .
38.8(34) . . .
42(4) . . .
49(4) . . .
48(4) . . .
45.0(34) . . .
41.9(33) . . .
50(4) . . .
36.8(31) . . .
49(4) . . .
44(4) . . .
44(4) . . .
29.1(29) . . .
35.2(31) . . .
54(4) . . .
39.3(32) . . .
45(4) . . .
44(4) . . .
48(4) . . .
54(4) . . .
48(4) . . .
48(4) . . .
46(4) . . .
47(4) . . .
40.1(35) . . .
43(4) . . .
45(4) . . .
44.5(35) . . .
34.3(31) . . .
35.9(32) . . .
37.9(35) . . .
54(4) . . .
42.1(33) . . .
38.4(32) . . .
43.0(35) . . .
42.6(34) . . .
44.5(35) . . .
35.6(31) . . .
34.2(30) . . .
44(4) . . .
49(4) . . .
50(4) . . .
48(4) . . .
47(4) . . .
48(4) . . .
46(4) . . .
49(4) . . .
46(4) . . .
42.5(34) . . .
38.2(32) . . .
45(4) . . .
38.8(34) . . .
42.0(34) . . .
43.3(34) . . .
38.6(33) . . .
42(4) . . .
42.1(34) . . .
49(4) . . .
37.2(32) . . .
39.9(34) . . .
45(4) . . .
30.8(29) . . .
39.4(33) . . .
41.3(34) . . .
43.3(35) . . .
48(4) . . .
56(4) . . .
48(4) . . .
49(4) . . .
32.9(30) . . .
45(4) . . .
49(4) . . .
41.1(33) . . .
45(4) . . .
40(4) . . .
45(4) . . .
51(4) . . .
42.1(34) . . .
38.0(33) . . .
41(4) . . .
45(4) . . .
33.0(31) . . .
54(4) . . .
40.4(33) . . .
45(4) . . .
46(4) . . .
36.6(31) . . .
48(4) . . .
46(4) . . .
35.3(33) . . .
38.9(32) . . .
42.1(34) . . .
43(4) . . .
36.7(32) . . .
38.8(33) . . .
42.0(34) . . .
36.3(32) . . .
34.7(31) . . .
44(4) . . .
40(4) . . .
39.3(35) . . .
42.8(34) . . .
35.1(32) . . .
38.8(35) . . .
38.0(35) . . .
49(4) . . .
52(4) . . .
44(4) . . .
40(4) . . .
42(4) . . .
39.3(34) . . .
43.3(34) . . .
51(4) . . .
47(4) . . .
48(4) . . .
44(4) . . .
38.3(32) . . .
47(4) . . .
48(4) . . .
43(4) . . .
42.5(34) . . .
41.8(34) . . .
42(4) . . .
43(4) . . .
47(4) . . .
41.3(33) . . .
36.7(31) . . .
43.5(35) . . .
49(4) . . .
43.2(35) . . .
42.3(34) . . .
39.6(33) . . .
37.1(32) . . .
41.1(34) . . .
50(4) . . .
44(4) . . .
40.9(34) . . .
42.4(35) . . .
44(4) . . .
56(4) . . .
44.9(35) . . .
49(4) . . .
47(4) . . .
40.4(35) . . .
42.5(35) . . .
37.0(31) . . .
37.2(32) . . .
45(4) . . .
43(4) . . .
46(4) . . .
42.0(34) . . .
49(4) . . .
40.2(35) . . .
49(4) . . .
43(4) . . .
36.3(31) . . .
40.9(33) . . .
45(4) . . .
44(4) . . .
44.5(34) . . .
50(4) . . .
47(4) . . .
47(4) . . .
41.1(34) . . .
49(4) . . .
45.3(35) . . .
42.2(35) . . .
52(4) . . .
44.0(34) . . .
40.8(33) . . .
45(4) . . .
53(4) . . .
45(4) . . .
37.3(32) . . .
43.2(34) . . .
45(4) . . .
39.2(33) . . .
38.3(34) . . .
43(4) . . .
51(4) . . .
44(4) . . .
46(4) . . .
43(4) . . .
44(4) . . .
43.1(34) . . .
45(4) . . .
37.1(33) . . .
43(4) . . .
50(4) . . .
50(4) . . .
40.7(33) . . .
45(4) . . .
42(4) . . .
47(4) . . .
51(4) . . .
48(4) . . .
36.5(31) . . .
56(4) . . .
39.5(32) . . .
44.3(35) . . .
33.4(31) . . .
43.0(35) . . .
46(4) . . .
56(4) . . .
37.5(33) . . .
43(4) . . .
38(4) . . .
51(4) . . .
43.7(35) . . .
44.1(34) . . .
37.1(32) . . .
35.7(34) . . .
42(4) . . .
42.6(35) . . .
41.8(34) . . .
51(4) . . .
47(4) . . .
55(4) . . .
39.2(33) . . .
50(4) . . .
42.5(34) . . .
44(4) . . .
45(4) . . .
38.4(33) . . .
39.1(33) . . .
45(4) . . .
50(4) . . .
42.5(33) . . .
40.4(33) . . .
47(4) . . .
48(4) . . .
49(4) . . .
40.3(33) . . .
44(4) . . .
44.8(35) . . .
43(4) . . .
49(4) . . .
45(4) . . .
40.2(33) . . .
39.5(33) . . .
44(4) . . .
35.4(33) . . .
42(4) . . .
36.7(32) . . .
38.2(33) . . .
53(4) . . .
46(4) . . .
39.0(33) . . .
45(4) . . .
42.5(34) . . .
50(4) . . .
45(4) . . .
45(4) . . .
47(4) . . .
48(4) . . .
42.7(35) . . .
33.6(30) . . .
33.9(30) . . .
39.1(33) . . .
39.0(33) . . .
38.2(33) . . .
40.2(33) . . .
34.5(32) . . .
53(4) . . .
50(4) . . .
40.3(34) . . .
41(4) . . .
42.3(34) . . .
45(4) . . .
50(4) . . .
46(4) . . .
35.9(31) . . .
49(4) . . .
43.6(34) . . .
43.2(35) . . .
40(4) . . .
46(4) . . .
46(4) . . .
36.9(31) . . .
42.2(34) . . .
44(4) . . .
43.7(34) . . .
48(4) . . .
41.6(33) . . .
40.5(34) . . .
44(4) . . .
38.2(33) . . .
36.8(31) . . .
49(4) . . .
44(4) . . .
53(4) . . .
41.1(33) . . .
38.3(32) . . .
41.9(34) . . .
47(4) . . .
52(4) . . .
46(4) . . .
60(4) . . .
50(4) . . .
41.4(35) . . .
50(4) . . .
53(4) . . .
41.3(33) . . .
49(4) . . .
52(4) . . .
40.2(34) . . .
44(4) . . .
44.0(34) . . .
40.5(33) . . .
44(4) . . .
44(4) . . .
43.4(34) . . .
34.1(32) . . .
46(4) . . .
45(4) . . .
46(4) . . .
48(4) . . .
51(4) . . .
48(4) . . .
41.1(34) . . .
35.6(31) . . .
44.0(35) . . .
40.6(33) . . .
41.1(34) . . .
35.1(33) . . .
48(4) . . .
42.3(34) . . .
45(4) . . .
42(4) . . .
51(4) . . .
44(4) . . .
40.8(33) . . .
41.8(34) . . .
48(4) . . .
40(4) . . .
45(4) . . .
40.9(34) . . .
39.0(32) . . .
43(4) . . .
51(4) . . .
52(4) . . .
52(4) . . .
48(4) . . .
47(4) . . .
46(4) . . .
47(4) . . .
44.5(35) . . .
39.1(33) . . .
41.4(35) . . .
42.7(34) . . .
37.9(32) . . .
41.9(34) . . .
40.2(33) . . .
43.1(34) . . .
42.0(34) . . .
41.8(35) . . .
40.7(33) . . .
49(4) . . .
45(4) . . .
38.5(33) . . .
49(4) . . .
51(4) . . .
37.8(33) . . .
39(4) . . .
35.0(33) . . .
45(4) . . .
51(4) . . .
47(4) . . .
48(4) . . .
38.3(33) . . .
44(4) . . .
49(4) . . .
37.5(33) . . .
59(4) . . .
46(4) . . .
51(4) . . .
36.1(31) . . .
42(4) . . .
49(4) . . .
47(4) . . .
43.7(35) . . .
51(4) . . .
54(4) . . .
53(4) . . .
36.8(33) . . .
47(4) . . .
48(4) . . .
42.6(35) . . .
44(4) . . .
45(4) . . .
45.2(35) . . .
49(4) . . .
47(4) . . .
49(4) . . .
40(4) . . .
54(4) . . .
38.8(32) . . .
42.0(35) . . .
37.9(33) . . .
49(4) . . .
41.5(34) . . .
42.5(35) . . .
39.6(34) . . .
42.0(33) . . .
53(4) . . .
45(4) . . .
48(4) . . .
40.3(33) . . .
53(4) . . .
45.5(35) . . .
45(4) . . .
45(4) . . .
45(4) . . .
36.5(32) . . .
42.9(35) . . .
42.5(34) . . .
39.6(34) . . .
36.6(33) . . .
45(4) . . .
41.6(34) . . .
41.7(33) . . .
42.2(34) . . .
41(4) . . .
38.4(33) . . .
39.9(33) . . .
42.4(34) . . .
39(4) . . .
44(4) . . .
36.2(31) . . .
42.4(34) . . .
45(4) . . .
49(4) . . .
47(4) . . .
42(4) . . .
36.2(32) . . .
43.5(34) . . .
47(4) . . .
38.3(32) . . .
39.4(35) . . .
39.2(34) . . .
43.0(34) . . .
37.2(32) . . .
38.5(35) . . .
39.5(35) . . .
34.2(30) . . .
36.6(31) . . .
41.2(35) . . .
47(4) . . .
46(4) . . .
44(4) . . .
40.3(33) . . .
47(4) . . .
41.8(34) . . .
46(4) . . .
40.2(33) . . .
37.2(32) . . .
46(4) . . .
42.1(34) . . .
48(4) . . .
36.9(31) . . .
46(4) . . .
40.7(35) . . .
46(4) . . .
39.1(34) . . .
42.3(34) . . .
40.3(34) . . .
40.2(34) . . .
36.0(33) . . .
42.9(34) . . .
48(4) . . .
48(4) . . .
48(4) . . .
48(4) . . .
48(4) . . .
49(4) . . .
43(4) . . .
42(4) . . .
51(4) . . .
49(4) . . .
44(4) . . .
40.0(34) . . .
40.2(35) . . .
40.5(34) . . .
43.2(35) . . .
48(4) . . .
47(4) . . .
44(4) . . .
37.3(32) . . .
48(4) . . .
39.3(32) . . .
51(4) . . .
45(4) . . .
42.5(34) . . .
50(4) . . .
40.6(33) . . .
41.9(34) . . .
34.7(31) . . .
35.7(32) . . .
48(4) . . .
40.0(34) . . .
33.8(32) . . .
44(4) . . .
42.9(34) . . .
35.0(32) . . .
40.2(33) . . .
42.2(35) . . .
38.0(33) . . .
42(4) . . .
38.6(32) . . .
46(4) . . .
47(4) . . .
39.4(33) . . .
47(4) . . .
37.8(32) . . .
43.5(34) . . .
44(4) . . .
52(4) . . .
35.3(31) . . .
37.7(32) . . .
46(4) . . .
46(4) . . .
45(4) . . .
42.0(34) . . .
45.4(35) . . .
41.9(35) . . .
41.2(35) . . .
36.9(32) . . .
40(4) . . .
50(4) . . .
41.8(34) . . .
47(4) . . .
34.8(33) . . .
39.8(34) . . .
41.1(33) . . .
49(4) . . .
40.6(35) . . .
45(4) . . .
36.8(31) . . .
42.2(34) . . .
42.5(35) . . .
46(4) . . .
38.3(34) . . .
43.1(34) . . .
41.5(34) . . .
43.5(35) . . .
46(4) . . .
45(4) . . .
43.5(35) . . .
45(4) . . .
40(4) . . .
40(4) . . .
36.1(32) . . .
36.4(31) . . .
40.5(34) . . .
36.0(31) . . .
39.3(33) . . .
45(4) . . .
37.1(32) . . .
43.4(34) . . .
37.8(33) . . .
36.7(33) . . .
36.1(32) . . .
32.1(29) . . .
46(4) . . .
46(4) . . .
38.5(33) . . .
37.1(32) . . .
39.7(33) . . .
44(4) . . .
41.7(34) . . .
46(4) . . .
49(4) . . .
41.5(34) . . .
49(4) . . .
45(4) . . .
40(4) . . .
38.8(32) . . .
44.4(34) . . .
43(4) . . .
36.8(33) . . .
33.1(30) . . .
40.0(33) . . .
42.1(34) . . .
37.4(33) . . .
41(4) . . .
48(4) . . .
47(4) . . .
40.5(34) . . .
35.0(32) . . .
41(4) . . .
32.5(30) . . .
36.9(31) . . .
39.8(32) . . .
38.6(34) . . .
39(4) . . .
44(4) . . .
36.8(32) . . .
37.1(33) . . .
39(4) . . .
46(4) . . .
36.7(33) . . .
43.3(34) . . .
45(4) . . .
47(4) . . .
39(4) . . .
40.9(34) . . .
54(4) . . .
42.7(34) . . .
37.7(34) . . .
45(4) . . .
42.8(34) . . .
41.8(34) . . .
40.8(33) . . .
45(4) . . .
47(4) . . .
46(4) . . .
45.0(35) . . .
34.9(32) . . .
40.6(34) . . .
39.1(34) . . .
41.7(35) . . .
45(4) . . .
44(4) . . .
38.7(33) . . .
38.5(33) . . .
37.7(31) . . .
47(4) . . .
49(4) . . .
44(4) . . .
38.8(32) . . .
39.7(33) . . .
38.0(32) . . .
38.4(33) . . .
45(4) . . .
39(4) . . .
37.0(32) . . .
41.2(34) . . .
44(4) . . .
40.3(33) . . .
40.4(34) . . .
40.0(34) . . .
44.2(35) . . .
36.5(31) . . .
43(4) . . .
57(4) . . .
35.2(31) . . .
44(4) . . .
47(4) . . .
46(4) . . .
44(4) . . .
32.8(30) . . .
34.7(32) . . .
42(4) . . .
43(4) . . .
35.9(32) . . .
39.8(33) . . .
40.6(33) . . .
48(4) . . .
38.8(35) . . .
38.7(34) . . .
47(4) . . .
41(4) . . .
42(4) . . .
40(4) . . .
37.4(33) . . .
41.8(34) . . .
39.0(33) . . .
38(4) . . .
45(4) . . .
47(4) . . .
35.6(31) . . .
37.7(34) . . .
34.7(32) . . .
35.4(32) . . .
34.7(31) . . .
35.1(31) . . .
41.8(35) . . .
49(4) . . .
42.0(35) . . .
36.8(31) . . .
33.9(30) . . .
46(4) . . .
40.0(34) . . .
43(4) . . .
44.5(34) . . .
48(4) . . .
36.7(33) . . .
35.2(33) . . .
48(4) . . .
40.3(33) . . .
44.5(34) . . .
45.1(35) . . .
40.6(34) . . .
43.1(34) . . .
42.3(34) . . .
37.5(32) . . .
39.1(34) . . .
35.1(31) . . .
43(4) . . .
35.1(31) . . .
35.4(31) . . .
39.0(35) . . .
36.5(33) . . .
34.8(32) . . .
39.9(33) . . .
38.1(32) . . .
31.3(31) . . .
36.4(35) . . .
41.2(35) . . .
41.1(34) . . .
42.9(35) . . .
36.6(33) . . .
37.3(32) . . .
39.5(33) . . .
47(4) . . .
43.0(35) . . .
40.8(33) . . .
49(4) . . .
47(4) . . .
33.2(30) . . .
38.6(34) . . .
49(4) . . .
34.6(32) . . .
40.0(33) . . .
44.0(35) . . .
42(4) . . .
44(4) . . .
32.1(31) . . .
40.9(34) . . .
50(4) . . .
40.8(34) . . .
37.5(35) . . .
41(4) . . .
41.6(33) . . .
37.8(31) . . .
46(4) . . .
36.0(32) . . .
46(4) . . .
39.5(34) . . .
42.4(34) . . .
41(4) . . .
38(4) . . .
42(4) . . .
48(4) . . .
41.7(34) . . .
48(4) . . .
53(4) . . .
48(4) . . .
44.1(34) . . .
41.0(34) . . .
46(4) . . .
47(4) . . .
45(4) . . .
41.3(33) . . .
39.3(33) . . .
40.2(34) . . .
40.2(33) . . .
47(4) . . .
49(4) . . .
48(4) . . .
50(4) . . .
39.0(33) . . .
41.3(33) . . .
40.8(34) . . .
30.5(28) . . .
34.0(33) . . .
37.0(34) . . .
46(4) . . .
44.9(35) . . .
37.5(34) . . .
43(4) . . .
43(4) . . .
41.4(34) . . .
38.2(32) . . .
48(4) . . .
54(4) . . .
47.4(35) . . .
42.3(35) . . .
43.6(34) . . .
41.7(33) . . .
41.2(35) . . .
47(4) . . .
43.9(34) . . .
41.7(34) . . .
34.7(32) . . .
44(4) . . .
46(4) . . .
37.8(32) . . .
36.2(31) . . .
46(4) . . .
42(4) . . .
43.1(34) . . .
46.3(35) . . .
45.0(35) . . .
42.0(35) . . .
44(4) . . .
49(4) . . .
31.7(29) . . .
38.1(33) . . .
49(4) . . .
41.2(34) . . .
35.2(31) . . .
41.0(33) . . .
39.6(32) . . .
40.7(34) . . .
45(4) . . .
45(4) . . .
40.1(33) . . .
34.4(31) . . .
46(4) . . .
41.3(35) . . .
33.2(31) . . .
38.5(32) . . .
46(4) . . .
41(4) . . .
44(4) . . .
47(4) . . .
43.8(35) . . .
47(4) . . .
43(4) . . .
31.9(30) . . .
34.4(33) . . .
44.7(34) . . .
46(4) . . .
43(4) . . .
37.0(34) . . .
40(4) . . .
39.9(33) . . .
48(4) . . .
48(4) . . .
41.8(35) . . .
34.0(30) . . .
37.5(32) . . .
48(4) . . .
45(4) . . .
40.7(35) . . .
36.0(32) . . .
44.0(34) . . .
43(4) . . .
36.3(33) . . .
42.3(34) . . .
43.7(34) . . .
53(4) . . .
43(4) . . .
37.0(35) . . .
48(4) . . .
42.0(34) . . .
43.2(34) . . .
41.2(35) . . .
34.7(32) . . .
36.4(32) . . .
42.1(34) . . .
35.2(31) . . .
35.6(33) . . .
47(4) . . .
42.5(35) . . .
43.9(34) . . .
46(4) . . .
40.9(33) . . .
43(4) . . .
43(4) . . .
35.2(31) . . .
50(4) . . .
44(4) . . .
41(4) . . .
43.4(34) . . .
45(4) . . .
51(4) . . .
46(4) . . .
37.5(32) . . .
44.0(35) . . .
41.2(33) . . .
41(4) . . .
44(4) . . .
46(4) . . .
40.1(33) . . .
46(4) . . .
48(4) . . .
42(4) . . .
38.7(34) . . .
40.3(33) . . .
43.8(35) . . .
49(4) . . .
46(4) . . .
38.6(32) . . .
47(4) . . .
32.9(30) . . .
32.9(32) . . .
36.7(34) . . .
45(4) . . .
51(4) . . .
39.7(33) . . .
35.0(31) . . .
45(4) . . .
39.4(33) . . .
39.7(33) . . .
49(4) . . .
42.9(34) . . .
38.9(34) . . .
36.7(33) . . .
35.3(31) . . .
50(4) . . .
45(4) . . .
30.4(31) . . .
44(4) . . .
37.1(32) . . .
47(4) . . .
40.3(34) . . .
41.0(35) . . .
45(4) . . .
48(4) . . .
52(4) . . .
38.7(34) . . .
45(4) . . .
39.7(33) . . .
42.7(35) . . .
49(4) . . .
42.1(35) . . .
47(4) . . .
46(4) . . .
37.7(33) . . .
46(4) . . .
39.3(33) . . .
39.2(34) . . .
36.9(33) . . .
39.0(33) . . .
37.8(34) . . .
40.0(33) . . .
46(4) . . .
35.0(31) . . .
41.5(33) . . .
44(4) . . .
44(4) . . .
43.0(35) . . .
46(4) . . .
38.6(33) . . .
39.7(33) . . .
49(4) . . .
49(4) . . .
35.8(31) . . .
38.0(32) . . .
47(4) . . .
37.7(33) . . .
38.6(33) . . .
37.8(32) . . .
40.8(34) . . .
35.7(32) . . .
45(4) . . .
51(4) . . .
38.0(32) . . .
45(4) . . .
37.8(32) . . .
33.9(30) . . .
48(4) . . .
34.1(31) . . .
41.4(33) . . .
32.8(31) . . .
37(4) . . .
34.0(32) . . .
49(4) . . .
36.6(31) . . .
30.1(28) . . .
36.7(32) . . .
46(4) . . .
36.0(31) . . .
41.2(33) . . .
37.0(31) . . .
44(4) . . .
52(4) . . .
39.4(33) . . .
38.2(33) . . .
49(4) . . .
53(4) . . .
55(4) . . .
44.3(34) . . .
41.8(35) . . .
39(4) . . .
41.8(35) . . .
38.6(32) . . .
41.1(33) . . .
39.6(33) . . .
54(4) . . .
42.7(35) . . .
45.1(35) . . .
43.9(35) . . .
43(4) . . .
50(4) . . .
45.1(35) . . .
42.8(34) . . .
37.5(32) . . .
36.3(31) . . .
35.5(32) . . .
33.3(30) . . .
37.0(32) . . .
40.8(33) . . .
38.2(34) . . .
40.1(34) . . .
44(4) . . .
48(4) . . .
51(4) . . .
42.3(34) . . .
46(4) . . .
43.6(34) . . .
42.3(34) . . .
49(4) . . .
44(4) . . .
38.8(34) . . .
49(4) . . .
43.5(34) . . .
49(4) . . .
47(4) . . .
44(4) . . .
35.3(31) . . .
48(4) . . .
41(4) . . .
41(4) . . .
42(4) . . .
38.5(32) . . .
35.8(31) . . .
28.9(29) . . .
34.3(31) . . .
50(4) . . .
43.5(34) . . .
49(4) . . .
36.4(32) . . .
38.8(35) . . .
43(4) . . .
47(4) . . .
43.9(35) . . .
39.4(33) . . .
39.0(34) . . .
42(4) . . .
46(4) . . .
41.8(33) . . .
38.8(34) . . .
42.5(35) . . .
45(4) . . .
42.4(34) . . .
45.0(34) . . .
41.4(33) . . .
42(4) . . .
37.8(32) . . .
50(4) . . .
45(4) . . .
43.9(34) . . .
52(4) . . .
37.1(31) . . .
50(4) . . .
44(4) . . .
40.5(35) . . .
47(4) . . .
36.9(33) . . .
44.4(35) . . .
43.5(34) . . .
46(4) . . .
32.6(30) . . .
49(4) . . .
44.3(34) . . .
42.1(34) . . .
47(4) . . .
46(4) . . .
47(4) . . .
41.6(33) . . .
44(4) . . .
39.4(35) . . .
39(4) . . .
40(4) . . .
40.1(33) . . .
39.5(35) . . .
33.6(31) . . .
48(4) . . .
37.6(32) . . .
42.8(34) . . .
40.0(34) . . .
41(4) . . .
37.5(33) . . .
41.1(33) . . .
37.1(32) . . .
32.3(33) . . .
35.5(33) . . .
34.8(31) . . .
40.7(33) . . .
38.3(32) . . .
41.1(34) . . .
39.6(34) . . .
33.1(30) . . .
36.2(32) . . .
36.7(32) . . .
48(4) . . .
41(4) . . .
41.8(35) . . .
41.1(32) . . .
48(4) . . .
46(4) . . .
42(4) . . .
50(4) . . .
41.2(33) . . .
39.6(33) . . .
44(4) . . .
42(4) . . .
44(4) . . .
32.0(30) . . .
46(4) . . .
33.3(30) . . .
41(4) . . .
44(4) . . .
44.0(35) . . .
39.3(32) . . .
36.5(32) . . .
40.4(34) . . .
44(4) . . .
34.7(31) . . .
42.1(34) . . .
46(4) . . .
42(4) . . .
38.0(32) . . .
35.3(31) . . .
39(4) . . .
40.2(35) . . .
33.2(30) . . .
36.5(32) . . .
42.0(34) . . .
38(4) . . .
42(4) . . .
36.5(34) . . .
43(4) . . .
56(4) . . .
43.3(34) . . .
43(4) . . .
35.8(32) . . .
32.4(30) . . .
42.9(34) . . .
37.3(33) . . .
40.3(34) . . .
39.8(33) . . .
39.3(33) . . .
32.3(30) . . .
34.7(31) . . .
41(4) . . .
47(4) . . .
45.6(35) . . .
45(4) . . .
39.3(33) . . .
41(4) . . .
40.8(34) . . .
45.5(35) . . .
42.8(35) . . .
38.5(34) . . .
42(4) . . .
44(4) . . .
42.8(34) . . .
41.1(34) . . .
38.2(34) . . .
45(4) . . .
46(4) . . .
39.5(33) . . .
41.1(34) . . .
35.5(33) . . .
37.6(35) . . .
41.5(34) . . .
35.2(31) . . .
47(4) . . .
41.9(34) . . .
48(4) . . .
43.6(35) . . .
48(4) . . .
51(4) . . .
42.4(34) . . .
47(4) . . .
45(4) . . .
36.6(31) . . .
36.2(31) . . .
45(4) . . .
37.7(32) . . .
30.8(29) . . .
32.4(30) . . .
47(4) . . .
38.3(34) . . .
39.3(34) . . .
40.5(33) . . .
43.4(34) . . .
40.8(34) . . .
41(4) . . .
38.1(34) . . .
33.1(31) . . .
45.4(34) . . .
51(4) . . .
53(4) . . .
40.1(33) . . .
37.8(32) . . .
35.3(31) . . .
41.0(35) . . .
38(4) . . .
39.0(34) . . .
41.5(33) . . .
38.4(32) . . .
35.0(30) . . .
47(4) . . .
34.7(32) . . .
35.9(32) . . .
39.8(33) . . .
44(4) . . .
41(4) . . .
44(4) . . .
51(4) . . .
47(4) . . .
46(4) . . .
39.8(34) . . .
43(4) . . .
45(4) . . .
43(4) . . .
40.6(35) . . .
46(4) . . .
45(4) . . .
40.3(33) . . .
36.8(33) . . .
38.9(35) . . .
38.9(33) . . .
40.5(33) . . .
41.2(34) . . .
44(4) . . .
41.9(35) . . .
46(4) . . .
46(4) . . .
36.7(32) . . .
42(4) . . .
29.3(29) . . .
36.7(32) . . .
51(4) . . .
32.8(30) . . .
42(4) . . .
45(4) . . .
40.6(34) . . .
34.6(30) . . .
38.8(32) . . .
35.9(34) . . .
40(4) . . .
39.7(33) . . .
40.3(33) . . .
33.5(30) . . .
32.7(29) . . .
39.2(35) . . .
45(4) . . .
49(4) . . .
30.3(29) . . .
39.2(35) . . .
43(4) . . .
45(4) . . .
52(4) . . .
37.4(31) . . .
36.1(32) . . .
43(4) . . .
51(4) . . .
47(4) . . .
50(4) . . .
35.4(31) . . .
28.6(28) . . .
35.5(32) . . .
47(4) . . .
46(4) . . .
45(4) . . .
39.4(33) . . .
38.2(33) . . .
38.0(32) . . .
39.8(33) . . .
43(4) . . .
44(4) . . .
39.0(32) . . .
47(4) . . .
35.5(32) . . .
43(4) . . .
43(4) . . .
51(4) . . .
45.8(35) . . .
35.5(31) . . .
41.3(33) . . .
40.6(34) . . .
40.2(33) . . .
36.3(31) . . .
41.9(35) . . .
43(4) . . .
40.2(34) . . .
38.3(32) . . .
43.1(35) . . .
40.9(34) . . .
36.5(35) . . .
46(4) . . .
36.8(32) . . .
37.5(32) . . .
39.0(34) . . .
40(4) . . .
39.4(33) . . .
42.5(35) . . .
35.2(31) . . .
38.0(33) . . .
48(4) . . .
46(4) . . .
33.6(30) . . .
42.0(34) . . .
44(4) . . .
40.8(35) . . .
49(4) . . .
43.0(35) . . .
29.8(29) . . .
44(4) . . .
40.5(34) . . .
37.0(32) . . .
36.2(32) . . .
41.9(34) . . .
34.8(31) . . .
36.0(32) . . .
36.3(31) . . .
35.5(31) . . .
40.1(33) . . .
43(4) . . .
43(4) . . .
43.0(35) . . .
47(4) . . .
42.5(35) . . .
37.2(32) . . .
53(4) . . .
37.2(32) . . .
43.5(34) . . .
39(4) . . .
50(4) . . .
34.4(30) . . .
38.0(33) . . .
45.5(35) . . .
33.0(31) . . .
40.9(35) . . .
44(4) . . .
40.8(35) . . .
41.7(34) . . .
42(4) . . .
39.4(35) . . .
33.7(31) . . .
38.8(32) . . .
47(4) . . .
51(4) . . .
39.6(34) . . .
46(4) . . .
38.3(32) . . .
30.0(31) . . .
51(4) . . .
47(4) . . .
49(4) . . .
39.5(33) . . .
37.7(32) . . .
35.8(33) . . .
40.0(35) . . .
41.0(34) . . .
48(4) . . .
43.2(35) . . .
46(4) . . .
41(4) . . .
51(4) . . .
42.9(34) . . .
39.8(32) . . .
56(4) . . .
41.8(35) . . .
42(4) . . .
40.0(34) . . .
39.0(33) . . .
40.3(33) . . .
43(4) . . .
42.0(35) . . .
37.4(32) . . .
35.9(31) . . .
39.9(32) . . .
38.2(32) . . .
37.0(32) . . .
39.1(32) . . .
33.8(30) . . .
36.2(33) . . .
45(4) . . .
41(4) . . .
39.9(33) . . .
44(4) . . .
34.9(34) . . .
26.9(28) . . .
44(4) . . .
39.8(33) . . .
35.4(35) . . .
43(4) . . .
36.9(32) . . .
42.7(34) . . .
46(4) . . .
36.9(32) . . .
42(4) . . .
40.5(34) . . .
43.3(34) . . .
43.4(34) . . .
47(4) . . .
43(4) . . .
33.9(31) . . .
34.2(31) . . .
39.0(33) . . .
39.1(34) . . .
44(4) . . .
48(4) . . .
35.0(31) . . .
32.1(30) . . .
44(4) . . .
41(4) . . .
41.0(35) . . .
43.6(34) . . .
32.6(30) . . .
45(4) . . .
47(4) . . .
46(4) . . .
42.4(34) . . .
40.1(33) . . .
36.7(35) . . .
43(4) . . .
40.5(34) . . .
36.4(32) . . .
45(4) . . .
39.0(34) . . .
44(4) . . .
39.2(33) . . .
44.9(35) . . .
39.8(34) . . .
35.7(33) . . .
46(4) . . .
48(4) . . .
40.7(34) . . .
46(4) . . .
42(4) . . .
37.4(35) . . .
39.3(34) . . .
41.5(34) . . .
37.5(33) . . .
34.3(31) . . .
47(4) . . .
37.3(32) . . .
35.4(31) . . .
34.8(31) . . .
44(4) . . .
42.1(35) . . .
40.5(35) . . .
46(4) . . .
45(4) . . .
46(4) . . .
33.6(31) . . .
38.6(32) . . .
36.2(31) . . .
40.0(34) . . .
37.9(33) . . .
44(4) . . .
41.6(33) . . .
40.7(33) . . .
41.7(34) . . .
33.6(30) . . .
37.6(34) . . .
41.3(33) . . .
37.9(32) . . .
37.6(34) . . .
41(4) . . .
45(4) . . .
47(4) . . .
46(4) . . .
47(4) . . .
45(4) . . .
42.6(35) . . .
45.0(35) . . .
44.1(34) . . .
47(4) . . .
45(4) . . .
39.3(35) . . .
47(4) . . .
41.6(34) . . .
43(4) . . .
27.4(28) . . .
33.3(30) . . .
40.1(33) . . .
42.5(35) . . .
39.2(35) . . .
38.0(33) . . .
39.7(33) . . .
34.9(31) . . .
44(4) . . .
36.7(33) . . .
38.9(32) . . .
40.6(33) . . .
39.7(33) . . .
35.5(33) . . .
43(4) . . .
44(4) . . .
45.5(35) . . .
38.5(32) . . .
46(4) . . .
40(4) . . .
42.7(35) . . .
37.0(32) . . .
39.3(32) . . .
39.9(33) . . .
42.0(34) . . .
49(4) . . .
33.4(32) . . .
36.8(32) . . .
35.7(31) . . .
39.0(35) . . .
34.0(31) . . .
32.0(29) . . .
40.9(34) . . .
50(4) . . .
45(4) . . .
42.7(34) . . .
47(4) . . .
44.7(35) . . .
43(4) . . .
43(4) . . .
38.6(34) . . .
37.8(32) . . .
42.6(35) . . .
42(4) . . .
46(4) . . .
45.5(35) . . .
43.5(34) . . .
40.3(33) . . .
35.5(31) . . .
37.7(32) . . .
43(4) . . .
39.3(33) . . .
43(4) . . .
43(4) . . .
50(4) . . .
41.9(34) . . .
40.6(33) . . .
42.2(34) . . .
47(4) . . .
37.7(32) . . .
34.0(31) . . .
36.0(31) . . .
50(4) . . .
46(4) . . .
36.8(32) . . .
32.9(30) . . .
39.8(33) . . .
39.0(33) . . .
43(4) . . .
39.9(33) . . .
32.4(30) . . .
36.5(33) . . .
35.5(32) . . .
25.0(26) . . .
33.9(31) . . .
43(4) . . .
42.3(34) . . .
36.4(32) . . .
40(4) . . .
38.6(34) . . .
37.4(32) . . .
43.8(35) . . .
47(4) . . .
40.4(33) . . .
48(4) . . .
40.3(34) . . .
41.0(33) . . .
37.3(32) . . .
35.7(32) . . .
38.5(33) . . .
38.7(32) . . .
41.8(34) . . .
45(4) . . .
40.4(34) . . .
50(4) . . .
37.9(32) . . .
30.6(29) . . .
39(4) . . .
45(4) . . .
36.6(32) . . .
47(4) . . .
40.0(35) . . .
42(4) . . .
36.8(30) . . .
44.4(35) . . .
45.5(35) . . .
33.7(31) . . .
38.4(34) . . .
43(4) . . .
36.6(31) . . .
36.1(33) . . .
37.8(34) . . .
35.9(34) . . .
33.9(30) . . .
38.0(33) . . .
44.0(34) . . .
46(4) . . .
35.8(32) . . .
39.4(34) . . .
42.9(35) . . .
34.2(30) . . .
44(4) . . .
39.6(34) . . .
45(4) . . .
47(4) . . .
40.4(33) . . .
39.1(33) . . .
41(4) . . .
45(4) . . .
40.6(34) . . .
41.3(34) . . .
36.7(32) . . .
34.9(32) . . .
38.8(34) . . .
36.4(32) . . .
35.8(31) . . .
41(4) . . .
31.0(30) . . .
40.9(35) . . .
39.3(34) . . .
31.2(30) . . .
33.4(31) . . .
40.6(35) . . .
36.0(31) . . .
40.8(34) . . .
37.6(32) . . .
39(4) . . .
35.7(31) . . .
47(4) . . .
39.0(33) . . .
34.7(33) . . .
33.0(31) . . .
36.0(33) . . .
45(4) . . .
43.3(34) . . .
42(4) . . .
42.9(34) . . .
43(4) . . .
42.0(34) . . .
47(4) . . .
43.3(35) . . .
37.1(33) . . .
39.3(35) . . .
33.7(31) . . .
44.0(34) . . .
38.4(33) . . .
41(4) . . .
43(4) . . .
37.2(32) . . .
40.5(33) . . .
42.7(34) . . .
40.7(35) . . .
34.3(31) . . .
41.1(33) . . .
32.7(30) . . .
32.4(30) . . .
40(4) . . .
46(4) . . .
36.7(32) . . .
36.7(32) . . .
32.9(31) . . .
39.8(35) . . .
43.5(35) . . .
41.7(34) . . .
41.6(34) . . .
35.8(31) . . .
44(4) . . .
31.9(30) . . .
48(4) . . .
40.0(34) . . .
36.4(32) . . .
38.4(33) . . .
42.8(35) . . .
36.4(32) . . .
42(4) . . .
42(4) . . .
42(4) . . .
45(4) . . .
43.3(34) . . .
42(4) . . .
29.6(28) . . .
34.9(32) . . .
40.8(33) . . .
39.7(33) . . .
36.3(32) . . .
41.2(34) . . .
38.6(33) . . .
43(4) . . .
44.6(35) . . .
39.5(33) . . .
40.3(35) . . .
36.3(31) . . .
43.0(34) . . .
40.2(33) . . .
41.0(35) . . .
39.0(34) . . .
43.7(35) . . .
46(4) . . .
35.7(31) . . .
34.2(31) . . .
38.2(33) . . .
36.4(34) . . .
52(4) . . .
38.8(32) . . .
40.6(35) . . .
42(4) . . .
41.1(34) . . .
42.2(35) . . .
34.7(30) . . .
36.3(32) . . .
44(4) . . .
48(4) . . .
43.7(35) . . .
32.8(31) . . .
39.9(34) . . .
37.9(33) . . .
48(4) . . .
45.3(35) . . .
40.1(34) . . .
32.4(31) . . .
36.2(33) . . .
45(4) . . .
35.0(31) . . .
38.6(34) . . .
41.5(34) . . .
37.4(32) . . .
35.3(31) . . .
44.8(35) . . .
39.7(33) . . .
31.1(30) . . .
46(4) . . .
40.7(33) . . .
34.4(31) . . .
42(4) . . .
38.2(35) . . .
45(4) . . .
38.9(34) . . .
41.7(34) . . .
42.7(35) . . .
32.5(31) . . .
49(4) . . .
50(4) . . .
37.4(32) . . .
39.9(34) . . .
42(4) . . .
34.0(31) . . .
44(4) . . .
45(4) . . .
33.8(32) . . .
39.2(34) . . .
50(4) . . .
35.6(31) . . .
37.9(32) . . .
42(4) . . .
34.3(32) . . .
39.4(34) . . .
42.0(34) . . .
41.0(33) . . .
35.8(31) . . .
39(4) . . .
36.0(32) . . .
48(4) . . .
34.4(31) . . .
38.5(34) . . .
43(4) . . .
52(4) . . .
38.9(33) . . .
40.7(34) . . .
43.0(35) . . .
36.1(32) . . .
49(4) . . .
47(4) . . .
39.9(33) . . .
34.7(33) . . .
42(4) . . .
40.7(34) . . .
42.6(34) . . .
37.2(34) . . .
36.4(34) . . .
37.3(33) . . .
42(4) . . .
40.8(33) . . .
40(4) . . .
31.0(31) . . .
41.4(34) . . .
37.2(32) . . .
37.5(32) . . .
39.7(33) . . .
41.6(35) . . .
42.0(35) . . .
39.7(34) . . .
47(4) . . .
33.9(30) . . .
37.8(34) . . .
33.5(30) . . .
40.2(33) . . .
41.3(34) . . .
40.8(34) . . .
34.5(34) . . .
38.7(33) . . .
45.0(35) . . .
39.8(32) . . .
38.7(34) . . .
36.5(34) . . .
39.4(33) . . .
38.2(33) . . .
38.6(33) . . .
49(4) . . .
41(4) . . .
39.9(34) . . .
34.6(31) . . .
46(4) . . .
32.2(30) . . .
37.9(33) . . .
39.5(33) . . .
27.7(28) . . .
48(4) . . .
45.7(34) . . .
42(4) . . .
30.3(30) . . .
35.5(32) . . .
41.6(34) . . .
36.1(32) . . .
42(4) . . .
42(4) . . .
33.1(30) . . .
33.6(31) . . .
44(4) . . .
48(4) . . .
42(4) . . .
36.1(31) . . .
43(4) . . .
34.4(32) . . .
42(4) . . .
39.7(33) . . .
42.3(34) . . .
37.6(32) . . .
29.4(28) . . .
36.1(32) . . .
47(4) . . .
49(4) . . .
38.7(33) . . .
44(4) . . .
40(4) . . .
43.2(35) . . .
42.9(35) . . .
32.6(30) . . .
42(4) . . .
40.2(34) . . .
34.0(31) . . .
43.2(35) . . .
31.0(31) . . .
32.7(33) . . .
42(4) . . .
45(4) . . .
35.2(31) . . .
42.6(35) . . .
39(4) . . .
37.0(33) . . .
33.7(31) . . .
39.2(33) . . .
33.1(31) . . .
42(4) . . .
41.3(35) . . .
36.5(31) . . .
43(4) . . .
41(4) . . .
43.0(35) . . .
51(4) . . .
46(4) . . .
34.8(33) . . .
35.0(32) . . .
43(4) . . .
34.2(32) . . .
37.0(32) . . .
37.0(33) . . .
45(4) . . .
38.2(32) . . .
40.4(33) . . .
43.3(34) . . .
40.2(34) . . .
39.2(34) . . .
35.5(30) . . .
47(4) . . .
43.9(35) . . .
33.3(30) . . .
39(4) . . .
37.7(32) . . .
39.3(33) . . .
34.0(31) . . .
32.0(30) . . .
41(4) . . .
37.8(32) . . .
38.3(32) . . .
34.1(31) . . .
43(4) . . .
37.2(34) . . .
33.3(31) . . .
37.0(33) . . .
47(4) . . .
47(4) . . .
31.2(30) . . .
41.6(35) . . .
37.4(32) . . .
33.2(31) . . .
34(4) . . .
34.7(34) . . .
49(4) . . .
41.5(34) . . .
30.7(29) . . .
36.3(32) . . .
47(4) . . .
31.5(30) . . .
33.8(30) . . .
39.5(35) . . .
34.7(33) . . .
36.5(34) . . .
36.1(33) . . .
50(4) . . .
38.5(33) . . .
33.1(30) . . .
38.5(33) . . .
47(4) . . .
41.1(33) . . .
43.4(35) . . .
43(4) . . .
45(4) . . .
37.2(32) . . .
41.5(33) . . .
37.9(33) . . .
39.9(34) . . .
41.1(33) . . .
42(4) . . .
45(4) . . .
47(4) . . .
38.5(34) . . .
37.1(34) . . .
35.3(33) . . .
42.7(34) . . .
42(4) . . .
49(4) . . .
47(4) . . .
38.7(32) . . .
44.4(35) . . .
30.0(29) . . .
46(4) . . .
37.2(35) . . .
41.2(33) . . .
49(4) . . .
42(4) . . .
39.9(35) . . .
38.5(33) . . .
39.7(32) . . .
38.8(32) . . .
44(4) . . .
43(4) . . .
46(4) . . .
47(4) . . .
45(4) . . .
36.0(32) . . .
34.8(33) . . .
43(4) . . .
45.5(34) . . .
41.7(34) . . .
41.4(33) . . .
37.5(34) . . .
34.0(31) . . .
43.0(34) . . .
39.8(33) . . .
38.6(33) . . .
46(4) . . .
43(4) . . .
44.0(35) . . .
38.6(32) . . .
41(4) . . .
29.5(29) . . .
42(4) . . .
39.6(33) . . .
41.8(35) . . .
31.3(28) . . .
42(4) . . .
37.3(32) . . .
34.7(31) . . .
28.8(30) . . .
34.5(33) . . .
41.0(34) . . .
42.5(35) . . .
43.7(34) . . .
39.6(35) . . .
36.0(34) . . .
34.8(30) . . .
42.2(33) . . .
43(4) . . .
39.6(34) . . .
38.9(34) . . .
33.5(31) . . .
42.0(34) . . .
36.6(32) . . .
38.2(33) . . .
35.9(34) . . .
35.0(31) . . .
37.9(33) . . .
36.8(32) . . .
28.3(29) . . .
28.2(29) . . .
43(4) . . .
39.7(33) . . .
42.1(35) . . .
35.5(31) . . .
33.1(31) . . .
33.4(30) . . .
31.3(30) . . .
42.7(34) . . .
32.5(31) . . .
39(4) . . .
36.8(32) . . .
36.4(31) . . .
49(4) . . .
38.8(34) . . .
50(4) . . .
42(4) . . .
37.5(32) . . .
37.9(32) . . .
46(4) . . .
39.2(34) . . .
44(4) . . .
37.0(32) . . .
41(4) . . .
45(4) . . .
43(4) . . .
39.7(33) . . .
31.3(29) . . .
31.3(31) . . .
37.2(34) . . .
38.0(34) . . .
41.6(33) . . .
35.8(30) . . .
40.2(35) . . .
42(4) . . .
45(4) . . .
45(4) . . .
37.5(32) . . .
33.8(33) . . .
40(4) . . .
40.1(35) . . .
31.7(30) . . .
43.9(34) . . .
31.2(29) . . .
40.2(33) . . .
39.1(32) . . .
34.8(31) . . .
33.7(31) . . .
47(4) . . .
38.2(34) . . .
36.5(34) . . .
29.1(29) . . .
38.1(32) . . .
41.0(34) . . .
45(4) . . .
37.5(32) . . .
33.1(30) . . .
44(4) . . .
38.2(33) . . .
32.3(31) . . .
33.4(30) . . .
36.7(32) . . .
34.1(32) . . .
45(4) . . .
32.4(30) . . .
47(4) . . .
39.4(33) . . .
39.1(33) . . .
36.8(32) . . .
47(4) . . .
51(4) . . .
49(4) . . .
37.7(32) . . .
32.0(31) . . .
43(4) . . .
38.3(33) . . .
32.9(30) . . .
37.7(32) . . .
42(4) . . .
41(4) . . .
43(4) . . .
41.0(33) . . .
48(4) . . .
36.9(33) . . .
34.8(33) . . .
40.6(33) . . .
42.7(34) . . .
39.9(34) . . .
35.8(32) . . .
41(4) . . .
37.2(32) . . .
53(4) . . .
33.4(30) . . .
38.4(32) . . .
47(4) . . .
53(4) . . .
35.3(31) . . .
44(4) . . .
38.6(33) . . .
36.7(32) . . .
43(4) . . .
39.6(33) . . .
44(4) . . .
36.6(34) . . .
31.1(31) . . .
36.2(32) . . .
29.4(29) . . .
35.5(35) . . .
34.3(33) . . .
37.0(32) . . .
41.6(34) . . .
37.7(32) . . .
47(4) . . .
42(4) . . .
36.8(33) . . .
33.5(30) . . .
32.8(30) . . .
43(4) . . .
47(4) . . .
32.0(31) . . .
36.6(31) . . .
39.1(35) . . .
35.8(31) . . .
42.5(35) . . .
39.2(34) . . .
36.2(31) . . .
35.9(34) . . .
37.0(33) . . .
39.9(35) . . .
44(4) . . .
36.7(32) . . .
30.5(30) . . .
37.2(33) . . .
39.8(34) . . .
34.0(31) . . .
40.6(33) . . .
39.9(35) . . .
30.9(30) . . .
39.1(35) . . .
40.1(34) . . .
41.2(34) . . .
32.7(31) . . .
48(4) . . .
48(4) . . .
31.9(30) . . .
42.6(34) . . .
30.0(29) . . .
41(4) . . .
37.8(33) . . .
43.0(34) . . .
41.2(33) . . .
34.6(31) . . .
32.8(33) . . .
31.8(32) . . .
39.6(33) . . .
38.5(32) . . .
36.4(34) . . .
31.9(32) . . .
33.3(32) . . .
49(4) . . .
42.0(35) . . .
38.1(33) . . .
37.5(34) . . .
36.0(35) . . .
30.7(29) . . .
31.8(30) . . .
37.3(33) . . .
35.2(32) . . .
28.2(29) . . .
33.2(30) . . .
42.8(34) . . .
37.3(32) . . .
33.3(32) . . .
35.6(32) . . .
45(4) . . .
44(4) . . .
37.2(33) . . .
36.6(33) . . .
39.8(34) . . .
43.6(34) . . .
45(4) . . .
37.5(32) . . .
35.0(32) . . .
39.3(33) . . .
38.5(32) . . .
37.4(35) . . .
34.4(33) . . .
41.0(35) . . .
47(4) . . .
34.7(31) . . .
35.9(32) . . .
36.8(34) . . .
39.0(33) . . .
43.0(34) . . .
31.1(29) . . .
40.0(34) . . .
43(4) . . .
49(4) . . .
33.1(30) . . .
38.5(32) . . .
43(4) . . .
30.5(30) . . .
41.0(35) . . .
44.2(34) . . .
41.1(34) . . .
41.8(35) . . .
39(4) . . .
26.9(27) . . .
34.5(31) . . .
37.1(31) . . .
34.5(30) . . .
36.9(34) . . .
35.5(32) . . .
37.9(32) . . .
44.3(34) . . .
38.7(33) . . .
33.5(31) . . .
41(4) . . .
47(4) . . .
35.5(30) . . .
38.0(33) . . .
38.4(33) . . .
36.5(31) . . .
35.5(31) . . .
47(4) . . .
48(4) . . .
42(4) . . .
37.9(34) . . .
43.5(34) . . .
34.3(30) . . .
46(4) . . .
33.9(30) . . .
45(4) . . .
42.0(34) . . .
37.9(34) . . .
45(4) . . .
44(4) . . .
40.0(34) . . .
39.6(33) . . .
35.0(31) . . .
44(4) . . .
42(4) . . .
51(4) . . .
44.5(34) . . .
41.7(35) . . .
33.1(31) . . .
32.8(30) . . .
39.9(33) . . .
40.0(33) . . .
38.9(34) . . .
34.8(32) . . .
37.6(32) . . .
33.6(30) . . .
40.8(33) . . .
37.4(32) . . .
39.2(34) . . .
37.5(33) . . .
35.3(31) . . .
39.6(32) . . .
32.0(29) . . .
42(4) . . .
44(4) . . .
36.3(31) . . .
35.5(31) . . .
36.2(33) . . .
29.5(29) . . .
41.0(35) . . .
39.4(33) . . .
40.1(33) . . .
38.0(34) . . .
39(4) . . .
35.7(32) . . .
30.6(29) . . .
38.0(32) . . .
39.6(34) . . .
44(4) . . .
34.3(30) . . .
37.0(32) . . .
37.3(32) . . .
37.3(35) . . .
43(4) . . .
33.6(30) . . .
30.3(29) . . .
36.0(32) . . .
43(4) . . .
36.8(33) . . .
27.6(27) . . .
32.2(30) . . .
37.1(33) . . .
41.3(34) . . .
39.7(34) . . .
34.5(31) . . .
31.5(30) . . .
42(4) . . .
38(4) . . .
48(4) . . .
44.0(35) . . .
35.7(31) . . .
42(4) . . .
40.6(34) . . .
50(4) . . .
44(4) . . .
37.6(31) . . .
47(4) . . .
37.9(34) . . .
30.6(28) . . .
33.5(30) . . .
32.3(30) . . .
37.5(32) . . .
38.0(34) . . .
34.5(32) . . .
36.4(31) . . .
36.8(31) . . .
33.6(29) . . .
41.3(34) . . .
35.3(31) . . .
39.7(32) . . .
36.9(32) . . .
34.5(32) . . .
38.5(34) . . .
45(4) . . .
28.3(28) . . .
34.9(32) . . .
36.7(33) . . .
36.2(32) . . .
39.0(34) . . .
36.9(32) . . .
43(4) . . .
35.1(33) . . .
37.6(34) . . .
35.6(32) . . .
40.8(34) . . .
39.2(33) . . .
35.8(33) . . .
35.5(33) . . .
34.0(30) . . .
38.5(32) . . .
40.5(34) . . .
48(4) . . .
38.7(34) . . .
40(4) . . .
41.6(34) . . .
42.4(34) . . .
41(4) . . .
40(4) . . .
41.3(33) . . .
47(4) . . .
44(4) . . .
42(4) . . .
32.9(31) . . .
40.2(33) . . .
36.2(31) . . .
42.8(35) . . .
47(4) . . .
41.5(35) . . .
35.0(30) . . .
29.8(28) . . .
34.9(32) . . .
35.3(32) . . .
52(4) . . .
35.8(31) . . .
30.5(29) . . .
39(4) . . .
38.7(35) . . .
28.5(28) . . .
32.6(30) . . .
37.2(32) . . .
40.1(34) . . .
34.8(32) . . .
38.7(35) . . .
36.2(32) . . .
34.9(31) . . .
32.2(31) . . .
39(4) . . .
35.8(33) . . .
40.2(33) . . .
38.8(33) . . .
36.3(33) . . .
37.9(34) . . .
39.3(33) . . .
36.9(32) . . .
34.3(30) . . .
47(4) . . .
49(4) . . .
42(4) . . .
36.4(31) . . .
38.8(34) . . .
29.0(28) . . .
36.4(34) . . .
35.1(31) . . .
35.6(31) . . .
45(4) . . .
42(4) . . .
37.9(32) . . .
41.5(33) . . .
41.3(33) . . .
36.4(32) . . .
39.3(35) . . .
45(4) . . .
36.3(32) . . .
35.8(31) . . .
37.6(34) . . .
40(4) . . .
50(4) . . .
39.7(33) . . .
41.1(34) . . .
43(4) . . .
39(4) . . .
33.4(32) . . .
33.1(31) . . .
42.1(34) . . .
49(4) . . .
37.6(34) . . .
34.4(31) . . .
34.2(30) . . .
36.2(32) . . .
35.1(32) . . .
35.7(32) . . .
36.3(32) . . .
44.2(34) . . .
44.0(34) . . .
36.4(32) . . .
44(4) . . .
39.7(33) . . .
30.0(29) . . .
38.9(33) . . .
35.8(32) . . .
29.5(29) . . .
41.0(35) . . .
35.3(31) . . .
39.6(35) . . .
45(4) . . .
37.3(32) . . .
42(4) . . .
35.6(31) . . .
37.9(33) . . .
41(4) . . .
34.2(33) . . .
40.3(34) . . .
30.2(29) . . .
29.1(31) . . .
33.5(33) . . .
41(4) . . .
32.5(30) . . .
35.3(31) . . .
30.5(31) . . .
42(4) . . .
37.0(33) . . .
36.7(32) . . .
31.5(30) . . .
34.8(34) . . .
36.6(32) . . .
42(4) . . .
39.3(33) . . .
41.1(33) . . .
40(4) . . .
38.5(35) . . .
36.8(32) . . .
36.2(32) . . .
34.9(30) . . .
38.3(32) . . .
38.6(33) . . .
44(4) . . .
35.1(31) . . .
31.7(29) . . .
40.8(34) . . .
38.4(34) . . .
31.2(30) . . .
37.9(32) . . .
38.9(34) . . .
40(4) . . .
27.6(30) . . .
38(4) . . .
42.8(34) . . .
48(4) . . .
45(4) . . .
47(4) . . .
30.8(30) . . .
42.2(34) . . .
29.4(28) . . .
29.7(29) . . .
30.8(31) . . .
41.4(34) . . .
36.4(32) . . .
39.8(33) . . .
37.9(33) . . .
38.6(34) . . .
44.1(35) . . .
43.0(35) . . .
35.9(32) . . .
39.3(34) . . .
37.3(32) . . .
29.1(28) . . .
28.5(27) . . .
39.0(33) . . .
38.2(34) . . .
33.4(30) . . .
38.1(32) . . .
37.5(32) . . .
34.6(31) . . .
34.9(33) . . .
37.3(32) . . .
42.0(34) . . .
35.0(31) . . .
39.8(33) . . .
38.3(34) . . .
39.6(35) . . .
33.8(31) . . .
41.1(33) . . .
36.0(33) . . .
40(4) . . .
39.8(33) . . .
39.6(32) . . .
37.6(32) . . .
46(4) . . .
39.0(33) . . .
40.2(33) . . .
39.3(33) . . .
35.8(31) . . .
33.6(32) . . .
30.4(31) . . .
33.8(31) . . .
33.8(30) . . .
37.6(33) . . .
29.4(28) . . .
45(4) . . .
35.5(31) . . .
36.4(31) . . .
38.8(33) . . .
34.7(31) . . .
36.6(32) . . .
49(4) . . .
28.8(28) . . .
32.0(30) . . .
37.6(32) . . .
37.6(33) . . .
32.5(30) . . .
30.4(28) . . .
37.0(34) . . .
35.5(32) . . .
38.9(32) . . .
34.0(30) . . .
37.9(33) . . .
46(4) . . .
44(4) . . .
39(4) . . .
38.3(32) . . .
44.3(35) . . .
38.9(32) . . .
40.4(34) . . .
37.5(33) . . .
31.6(30) . . .
37.7(32) . . .
36.4(32) . . .
41(4) . . .
31.0(29) . . .
37.8(34) . . .
39.5(34) . . .
37.1(34) . . .
43(4) . . .
38.2(32) . . .
39.2(33) . . .
35.7(31) . . .
37.3(31) . . .
38.5(35) . . .
41(4) . . .
37.2(33) . . .
47(4) . . .
48(4) . . .
44(4) . . .
27.8(29) . . .
33.1(30) . . .
37.5(32) . . .
41.0(35) . . .
38.9(34) . . .
40(4) . . .
38.4(32) . . .
35.1(32) . . .
40(4) . . .
40.1(34) . . .
31.4(30) . . .
32.4(29) . . .
48(4) . . .
43.2(35) . . .
34.9(30) . . .
35.4(31) . . .
42.7(34) . . .
44.5(35) . . .
41.5(34) . . .
44(4) . . .
46(4) . . .
35.2(30) . . .
42(4) . . .
42(4) . . .
31.3(30) . . .
33.8(30) . . .
30.8(29) . . .
35.7(32) . . .
41(4) . . .
33.5(32) . . .
42.8(34) . . .
36.1(31) . . .
29.5(30) . . .
34.5(35) . . .
41.4(34) . . .
36.1(31) . . .
40.9(33) . . .
37.5(32) . . .
31.8(29) . . .
46(4) . . .
37.5(32) . . .
35.4(31) . . .
30.9(29) . . .
33.0(30) . . .
33.5(33) . . .
42.7(34) . . .
43.7(35) . . .
33.1(30) . . .
33.9(32) . . .
31.6(29) . . .
28.4(27) . . .
36.3(32) . . .
35.5(32) . . .
35.5(34) . . .
38.3(34) . . .
36.8(32) . . .
36.6(33) . . .
43(4) . . .
35.0(32) . . .
33.8(30) . . .
33.8(30) . . .
34.7(33) . . .
34.8(32) . . .
44.2(35) . . .
39.2(33) . . .
31.0(30) . . .
41.1(34) . . .
37.6(32) . . .
38.8(34) . . .
36.3(33) . . .
33.7(30) . . .
29.0(28) . . .
35.1(34) . . .
33.0(31) . . .
32.1(30) . . .
31.1(29) . . .
37.2(32) . . .
41.9(34) . . .
40.2(33) . . .
36.9(32) . . .
42.6(34) . . .
33.1(33) . . .
42(4) . . .
40.2(34) . . .
31.3(29) . . .
42.5(34) . . .
27.7(26) . . .
33.1(29) . . .
41.5(35) . . .
33.4(30) . . .
37.8(32) . . .
32.3(31) . . .
37.0(35) . . .
38.5(33) . . .
45.0(35) . . .
28.8(28) . . .
42(4) . . .
38.9(35) . . .
36.1(32) . . .
35.0(31) . . .
40.8(34) . . .
31.6(30) . . .
34.1(32) . . .
36.5(33) . . .
46(4) . . .
42.2(33) . . .
41.3(34) . . .
33.9(31) . . .
27.3(29) . . .
42.9(34) . . .
41.3(33) . . .
37.8(34) . . .
35.1(33) . . .
34.1(30) . . .
40.0(33) . . .
37.7(33) . . .
31.3(30) . . .
38.5(33) . . .
40.0(33) . . .
42.3(34) . . .
42.6(34) . . .
33.5(30) . . .
37.7(33) . . .
31.4(29) . . .
38.2(32) . . .
38.5(34) . . .
39.0(35) . . .
39.1(34) . . .
38.2(32) . . .
39.2(33) . . .
34.5(32) . . .
34.6(33) . . .
27.3(30) . . .
41.5(34) . . .
43.4(34) . . .
41.0(35) . . .
42(4) . . .
38.8(35) . . .
31.0(29) . . .
32.4(30) . . .
33.3(31) . . .
36.3(33) . . .
42.5(34) . . .
39.3(33) . . .
39.9(33) . . .
43(4) . . .
31.9(32) . . .
28.6(31) . . .
40.0(33) . . .
40.3(33) . . .
44(4) . . .
42(4) . . .
47(4) . . .
39.5(33) . . .
33.6(32) . . .
40(4) . . .
39.3(33) . . .
48(4) . . .
38.0(32) . . .
47(4) . . .
32.2(31) . . .
41.3(34) . . .
36.8(32) . . .
35.8(31) . . .
39(4) . . .
29.3(29) . . .
38.9(33) . . .
34.6(32) . . .
35.7(31) . . .
37.4(33) . . .
34.4(34) . . .
34.1(31) . . .
40.3(34) . . .
35.2(31) . . .
32.6(35) . . .
37(4) . . .
36.1(32) . . .
54(4) . . .
32.8(30) . . .
39.2(32) . . .
37.8(33) . . .
39.5(33) . . .
44(4) . . .
36.4(31) . . .
37.5(33) . . .
33.9(33) . . .
32.9(31) . . .
32.0(30) . . .
35.0(31) . . .
43(4) . . .
35.3(33) . . .
33.1(30) . . .
31.0(30) . . .
47(4) . . .
41.1(35) . . .
32.4(32) . . .
33.1(32) . . .
37.0(31) . . .
40.2(34) . . .
31.7(30) . . .
35.1(33) . . .
26.7(27) . . .
38.0(33) . . .
39.5(32) . . .
37.4(32) . . .
40.1(34) . . .
37.0(34) . . .
36.3(31) . . .
34.5(31) . . .
33.3(30) . . .
32.2(30) . . .
41(4) . . .
42.3(34) . . .
27.1(26) . . .
35.3(32) . . .
34.4(33) . . .
40.6(34) . . .
47(4) . . .
31.3(31) . . .
40(4) . . .
42(4) . . .
35.8(31) . . .
41.5(34) . . .
41(4) . . .
37.2(33) . . .
37.5(32) . . .
37.6(32) . . .
35.6(31) . . .
28.9(29) . . .
32.8(32) . . .
29.3(29) . . .
35.7(31) . . .
42.5(34) . . .
34.1(30) . . .
32.4(30) . . .
43.6(35) . . .
37.7(32) . . .
50(4) . . .
42(4) . . .
35.2(32) . . .
33.2(30) . . .
27.2(27) . . .
35.7(31) . . .
41(4) . . .
38.3(33) . . .
34.9(31) . . .
40.2(34) . . .
35.9(32) . . .
37.3(34) . . .
32.7(31) . . .
38(4) . . .
41.9(34) . . .
30.7(29) . . .
37.1(35) . . .
32.6(30) . . .
32.2(31) . . .
42(4) . . .
40.2(33) . . .
33.2(31) . . .
39.2(35) . . .
35.6(32) . . .
29.5(28) . . .
38.7(33) . . .
40.5(35) . . .
29.2(29) . . .
32.3(30) . . .
31.9(30) . . .
37.6(33) . . .
38.5(33) . . .
33.8(30) . . .
34.3(31) . . .
31.7(30) . . .
33.3(30) . . .
44(4) . . .
33.7(31) . . .
33.6(31) . . .
38.7(32) . . .
30.6(29) . . .
33.0(31) . . .
43(4) . . .
34.7(33) . . .
37.2(31) . . .
37.5(33) . . .
46(4) . . .
34.6(30) . . .
36.6(31) . . .
35.0(30) . . .
38.5(33) . . .
34.8(33) . . .
32.7(32) . . .
32.9(31) . . .
39.8(33) . . .
46(4) . . .
37.2(33) . . .
39.5(34) . . .
42.0(34) . . .
40.3(33) . . .
36.7(33) . . .
38.1(35) . . .
42.1(35) . . .
32.4(30) . . .
34.7(32) . . .
33.8(31) . . .
44(4) . . .
40.9(35) . . .
35.1(31) . . .
31.1(29) . . .
39.1(33) . . .
36.8(32) . . .
35.3(32) . . .
29.6(28) . . .
27.0(27) . . .
34.3(31) . . .
38.5(34) . . .
34.1(31) . . .
32.5(30) . . .
33.3(31) . . .
31.2(29) . . .
35.1(32) . . .
36.6(32) . . .
38.1(33) . . .
42.5(35) . . .
34.6(32) . . .
34.2(32) . . .
38.7(33) . . .
33.6(31) . . .
37(4) . . .
41(4) . . .
36.9(32) . . .
30.5(29) . . .
35.9(32) . . .
38.9(35) . . .
39.1(35) . . .
35.4(31) . . .
35.6(31) . . .
37.3(31) . . .
33.5(31) . . .
40(4) . . .
36.5(31) . . .
32.3(29) . . .
37.0(32) . . .
28.4(31) . . .
40(4) . . .
26.5(27) . . .
29.6(28) . . .
31.4(29) . . .
38.0(33) . . .
34.6(31) . . .
30.5(29) . . .
36.4(32) . . .
33.7(30) . . .
39.3(34) . . .
31.5(29) . . .
32.7(31) . . .
42.2(34) . . .
36.6(32) . . .
35.2(33) . . .
35.9(35) . . .
30.6(29) . . .
32.9(30) . . .
28.8(29) . . .
30.4(29) . . .
35.8(32) . . .
44(4) . . .
37.0(32) . . .
28.0(29) . . .
38(4) . . .
33.2(32) . . .
31.7(30) . . .
39.3(33) . . .
34.0(31) . . .
32.6(31) . . .
34.3(31) . . .
41.3(35) . . .
36.7(31) . . .
43(4) . . .
39(4) . . .
33.5(33) . . .
38.6(33) . . .
36.5(31) . . .
32.5(30) . . .
37.7(34) . . .
37.8(34) . . .
40.0(33) . . .
30.5(30) . . .
27.5(27) . . .
35.8(33) . . .
29.9(30) . . .
34.3(30) . . .
36.7(32) . . .
30.9(28) . . .
37(4) . . .
34.3(32) . . .
32.3(30) . . .
32.2(30) . . .
32.4(30) . . .
32.0(30) . . .
38.6(34) . . .
37.0(32) . . .
37.6(33) . . .
34.6(33) . . .
37.2(34) . . .
33.8(31) . . .
40.7(33) . . .
31.5(30) . . .
35.7(33) . . .
42(4) . . .
45.3(34) . . .
44.0(34) . . .
32.3(31) . . .
39.8(35) . . .
30.3(28) . . .
37.0(32) . . .
40.7(33) . . .
42.1(35) . . .
33.4(29) . . .
40.7(33) . . .
39.1(33) . . .
35.5(31) . . .
42(4) . . .
37.3(34) . . .
36.4(32) . . .
29.4(28) . . .
40.1(33) . . .
35.8(33) . . .
41(4) . . .
45(4) . . .
32.2(29) . . .
33.2(30) . . .
34.6(32) . . .
35.0(34) . . .
42.6(34) . . .
40.6(33) . . .
37.6(33) . . .
37.0(33) . . .
40(4) . . .
32.0(33) . . .
32.9(30) . . .
37.3(33) . . .
41.8(35) . . .
36.7(32) . . .
44(4) . . .
35.2(31) . . .
37.7(32) . . .
37.9(33) . . .
35.5(31) . . .
49(4) . . .
37.7(32) . . .
40.9(34) . . .
37.8(34) . . .
38.7(34) . . .
36.2(32) . . .
37.5(32) . . .
43.0(35) . . .
37.7(32) . . .
42(4) . . .
35.5(31) . . .
33.6(31) . . .
39.5(33) . . .
33.5(30) . . .
35.9(34) . . .
33.2(30) . . .
34.8(31) . . .
39.1(33) . . .
39.2(33) . . .
35.0(32) . . .
32.5(31) . . .
30.4(29) . . .
35.2(31) . . .
46(4) . . .
37.8(33) . . .
32.6(29) . . .
40.3(33) . . .
27.9(27) . . .
33.8(33) . . .
38.3(34) . . .
37.5(33) . . .
31.7(30) . . .
30.0(30) . . .
36.5(33) . . .
36.8(32) . . .
33.9(30) . . .
39.9(33) . . .
39.0(33) . . .
32.3(33) . . .
36.8(33) . . .
45(4) . . .
34.6(32) . . .
31.6(29) . . .
36.0(33) . . .
33.8(31) . . .
36.4(31) . . .
33.8(30) . . .
30.4(29) . . .
33.0(31) . . .
29.9(29) . . .
35.7(31) . . .
34.8(31) . . .
35.0(31) . . .
31.1(30) . . .
33.2(32) . . .
30.3(28) . . .
41.5(35) . . .
45(4) . . .
34.4(31) . . .
41(4) . . .
37.9(32) . . .
39.4(35) . . .
30.9(29) . . .
35.2(34) . . .
28.6(29) . . .
30.4(29) . . .
30.2(31) . . .
41(4) . . .
28.2(28) . . .
39.1(33) . . .
43.9(34) . . .
29.4(29) . . .
41.2(35) . . .
34.4(31) . . .
25.2(26) . . .
33.5(31) . . .
28.2(28) . . .
37.2(34) . . .
36.7(32) . . .
30.9(30) . . .
33.9(31) . . .
38.3(34) . . .
36.0(33) . . .
40.7(34) . . .
28.4(28) . . .
32.6(30) . . .
33.9(32) . . .
42(4) . . .
39.0(33) . . .
32.6(31) . . .
34.2(31) . . .
34.5(32) . . .
34.1(30) . . .
34.5(31) . . .
27.2(29) . . .
38.5(32) . . .
41(4) . . .
28.2(28) . . .
32.8(31) . . .
31.2(30) . . .
28.3(27) . . .
34.0(32) . . .
32.1(32) . . .
29.9(31) . . .
33.8(30) . . .
37.5(33) . . .
26.1(27) . . .
29.9(30) . . .
31.0(31) . . .
43.8(34) . . .
35.0(32) . . .
36.1(34) . . .
37.2(34) . . .
38.2(34) . . .
39.0(33) . . .
33.2(31) . . .
39(4) . . .
37.0(32) . . .
37.0(33) . . .
39.7(33) . . .
39.1(33) . . .
32.4(33) . . .
39(4) . . .
28.4(28) . . .
32.3(30) . . .
31.6(30) . . .
29.2(29) . . .
35.4(32) . . .
32.4(29) . . .
36.8(31) . . .
32.2(30) . . .
43(4) . . .
38.6(33) . . .
34.4(32) . . .
30.8(30) . . .
36.8(32) . . .
34.8(33) . . .
35.5(32) . . .
35.0(31) . . .
31.0(29) . . .
36.3(33) . . .
37.8(34) . . .
39(4) . . .
39.2(34) . . .
37.5(31) . . .
46(4) . . .
37.1(33) . . .
36.3(32) . . .
32.6(30) . . .
37.3(33) . . .
29.3(29) . . .
32.5(32) . . .
32.8(32) . . .
33.4(30) . . .
30.6(29) . . .
29.9(28) . . .
33.6(33) . . .
37.7(35) . . .
33.8(31) . . .
39.8(33) . . .
40.3(34) . . .
39.4(34) . . .
36.6(34) . . .
40.9(34) . . .
37.6(32) . . .
40(4) . . .
29.4(29) . . .
34.5(32) . . .
31.6(29) . . .
32.3(33) . . .
36.1(32) . . .
40.3(35) . . .
34.5(31) . . .
32.1(30) . . .
27.6(30) . . .
30.4(29) . . .
33.9(29) . . .
33.0(29) . . .
31.6(29) . . .
27.9(30) . . .
31.6(32) . . .
47(4) . . .
39.5(33) . . .
33.0(30) . . .
32.6(34) . . .
30.6(30) . . .
37.2(32) . . .
31.4(31) . . .
33.3(30) . . .
34.8(32) . . .
37(4) . . .
30.0(29) . . .
30.1(28) . . .
31.4(30) . . .
35.0(31) . . .
35.4(33) . . .
35.8(33) . . .
35.7(31) . . .
28.7(28) . . .
43(4) . . .
39(4) . . .
39.6(34) . . .
36.5(31) . . .
35.4(32) . . .
37.0(34) . . .
39(4) . . .
37(4) . . .
29.8(29) . . .
29.4(28) . . .
34.0(32) . . .
36.2(31) . . .
35.4(31) . . .
37.5(32) . . .
44(4) . . .
29.2(30) . . .
27.5(27) . . .
35.2(33) . . .
29.9(28) . . .
32.3(31) . . .
31.6(29) . . .
33.3(31) . . .
38.4(34) . . .
39.3(33) . . .
43(4) . . .
30.0(27) . . .
28.7(28) . . .
36.6(33) . . .
41.8(33) . . .
32.5(30) . . .
32.2(30) . . .
31.7(30) . . .
31.0(29) . . .
33.6(31) . . .
39.2(33) . . .
41(4) . . .
40(4) . . .
39.3(32) . . .
26.3(27) . . .
37(4) . . .
47(4) . . .
49(4) . . .
37.5(31) . . .
37.0(32) . . .
37.1(32) . . .
36(4) . . .
39(4) . . .
38.2(32) . . .
30.7(29) . . .
41(4) . . .
38.2(34) . . .
41.4(35) . . .
32.5(30) . . .
31.7(31) . . .
40(4) . . .
41(4) . . .
36.3(32) . . .
47(4) . . .
31.8(29) . . .
36.4(33) . . .
32.7(33) . . .
35.4(32) . . .
39.0(33) . . .
30.8(30) . . .
33.2(32) . . .
34.3(33) . . .
29.0(28) . . .
25.6(27) . . .
36.5(32) . . .
24.6(26) . . .
29.2(30) . . .
33.6(31) . . .
35.3(31) . . .
31.0(30) . . .
34.5(32) . . .
38.4(34) . . .
34.0(31) . . .
43.2(34) . . .
38.3(35) . . .
40.1(35) . . .
36.2(31) . . .
34.3(31) . . .
32.9(31) . . .
30.8(30) . . .
33.5(33) . . .
40(4) . . .
37.0(32) . . .
40.3(33) . . .
31.0(29) . . .
37(4) . . .
31.7(31) . . .
40.4(34) . . .
42.4(34) . . .
41.9(34) . . .
37.9(33) . . .
34.9(31) . . .
40.6(33) . . .
37.4(32) . . .
33.6(34) . . .
38.3(34) . . .
41.7(35) . . .
31.2(29) . . .
37.2(33) . . .
35.2(31) . . .
39(4) . . .
31.4(29) . . .
34.4(31) . . .
43.7(35) . . .
37.3(31) . . .
47(4) . . .
41(4) . . .
39.9(32) . . .
42.4(34) . . .
35.2(33) . . .
32.6(31) . . .
32.8(31) . . .
35.9(32) . . .
46(4) . . .
30.2(30) . . .
25.4(27) . . .
38(4) . . .
35.5(31) . . .
36.9(33) . . .
28.6(28) . . .
36.8(34) . . .
28.3(28) . . .
38.7(32) . . .
46(4) . . .
47(4) . . .
36.3(31) . . .
41.1(34) . . .
34.4(31) . . .
48(4) . . .
43(4) . . .
32.4(30) . . .
44(4) . . .
38.3(32) . . .
35.8(32) . . .
26.9(29) . . .
34.0(32) . . .
43.4(34) . . .
38.8(33) . . .
28.0(30) . . .
34.1(34) . . .
35.3(34) . . .
37.3(32) . . .
40.1(34) . . .
41(4) . . .
31.3(33) . . .
44(4) . . .
36.3(31) . . .
37.0(32) . . .
43(4) . . .
27.2(30) . . .
27.1(27) . . .
36.4(32) . . .
36.8(31) . . .
40(4) . . .
27.0(28) . . .
31.4(31) . . .
30.5(28) . . .
35.3(32) . . .
31.9(31) . . .
34.5(33) . . .
38.4(33) . . .
43.0(34) . . .
36(4) . . .
33.5(32) . . .
30.4(29) . . .
35.2(32) . . .
30.5(29) . . .
42(4) . . .
32.2(30) . . .
41(4) . . .
38.9(34) . . .
30.9(29) . . .
32.4(30) . . .
39.3(35) . . .
36.7(32) . . .
35.2(32) . . .
31.9(29) . . .
30.5(32) . . .
37.3(33) . . .
30.2(29) . . .
36.3(31) . . .
46(4) . . .
37.3(35) . . .
35.6(32) . . .
32.0(30) . . .
41.0(34) . . .
34.8(30) . . .
34.3(32) . . .
40(4) . . .
30.1(29) . . .
37.8(33) . . .
37.9(33) . . .
42(4) . . .
41(4) . . .
39.8(34) . . .
40.4(34) . . .
39.8(33) . . .
35.7(33) . . .
40(4) . . .
37.8(33) . . .
26.5(28) . . .
32.1(30) . . .
36.1(32) . . .
31.1(32) . . .
29.2(29) . . .
29.9(29) . . .
35.0(32) . . .
39.6(34) . . .
42(4) . . .
34.1(32) . . .
33.5(30) . . .
35.6(31) . . .
30.0(30) . . .
36.5(32) . . .
32.1(31) . . .
38.4(32) . . .
32.9(32) . . .
34.1(32) . . .
30.5(29) . . .
36.9(32) . . .
27.7(27) . . .
22.9(25) . . .
39(4) . . .
34.8(31) . . .
32.3(30) . . .
34.8(31) . . .
35.0(32) . . .
31.4(32) . . .
30.0(31) . . .
36.4(32) . . .
37.5(32) . . .
29.5(31) . . .
35.4(33) . . .
33.5(31) . . .
35.4(31) . . .
34.2(31) . . .
34.9(32) . . .
39(4) . . .
40.2(34) . . .
35.0(31) . . .
41.1(33) . . .
26.1(26) . . .
37(4) . . .
33.5(34) . . .
36.2(31) . . .
29.7(28) . . .
37.3(32) . . .
32.6(31) . . .
33.8(30) . . .
38.8(33) . . .
36.6(33) . . .
34.0(30) . . .
33.8(32) . . .
35.3(31) . . .
41.4(33) . . .
31.1(29) . . .
36.5(33) . . .
29.6(29) . . .
44(4) . . .
36.2(31) . . .
37.1(31) . . .
35.9(31) . . .
41(4) . . .
23.5(25) . . .
34.3(31) . . .
35.1(31) . . .
41(4) . . .
30.9(30) . . .
34.1(31) . . .
32.1(29) . . .
32.8(31) . . .
41(4) . . .
40.7(35) . . .
42.1(34) . . .
31.7(30) . . .
38(4) . . .
29.0(30) . . .
28.0(29) . . .
24.1(26) . . .
35.3(31) . . .
35.4(32) . . .
45(4) . . .
38.2(33) . . .
37.6(32) . . .
32.2(29) . . .
26.1(27) . . .
28.5(30) . . .
34.8(32) . . .
34.0(32) . . .
39.0(32) . . .
32.6(30) . . .
32.0(32) . . .
34.3(31) . . .
32.2(30) . . .
42.0(34) . . .
36.8(32) . . .
33.8(33) . . .
34.8(32) . . .
29.1(28) . . .
29.7(29) . . .
31.9(31) . . .
36(4) . . .
36.4(33) . . .
28.2(28) . . .
35.9(31) . . .
35.0(32) . . .
36.6(35) . . .
30.1(29) . . .
32.5(30) . . .
37.6(33) . . .
33.8(31) . . .
34.2(29) . . .
39.8(33) . . .
41.4(34) . . .
36.2(32) . . .
36.5(32) . . .
32.3(29) . . .
37.3(32) . . .
38.8(33) . . .
40.2(33) . . .
34.1(33) . . .
28.1(28) . . .
35.3(32) . . .
35.1(31) . . .
40.2(35) . . .
42(4) . . .
38.5(32) . . .
40.2(33) . . .
37.6(32) . . .
33.6(32) . . .
27.3(29) . . .
35.7(33) . . .
35.1(32) . . .
34.5(31) . . .
36.5(32) . . .
27.4(28) . . .
37.6(33) . . .
36.3(31) . . .
39.9(33) . . .
31.8(29) . . .
35.2(32) . . .
39.2(34) . . .
41.5(34) . . .
43.2(34) . . .
41.2(33) . . .
35.3(30) . . .
48(4) . . .
46.1(35) . . .
33.9(30) . . .
37.2(32) . . .
39(4) . . .
27.0(27) . . .
33.5(30) . . .
37.4(32) . . .
35.4(32) . . .
31.9(32) . . .
24.8(26) . . .
37.2(32) . . .
25.8(26) . . .
31.9(31) . . .
31.3(30) . . .
33.4(32) . . .
33.4(30) . . .
36.5(31) . . .
37.2(34) . . .
36.2(34) . . .
40.3(34) . . .
43.6(34) . . .
31.1(29) . . .
34.3(31) . . .
33.1(31) . . .
31.3(31) . . .
43.7(34) . . .
38.5(32) . . .
36.8(32) . . .
45(4) . . .
33.6(32) . . .
37.0(31) . . .
32.9(32) . . .
37.3(34) . . .
24.6(26) . . .
33.5(30) . . .
37.4(32) . . .
34.4(31) . . .
34.1(32) . . .
36.9(32) . . .
45(4) . . .
38.8(33) . . .
36.3(31) . . .
37.8(33) . . .
36.5(32) . . .
29.5(29) . . .
41.5(34) . . .
34.6(30) . . .
40.1(35) . . .
26.7(26) . . .
35.4(32) . . .
30.5(29) . . .
41(4) . . .
32.0(30) . . .
41.5(34) . . .
34.5(30) . . .
36.1(32) . . .
33.5(32) . . .
29.8(32) . . .
47(4) . . .
31.1(30) . . .
28.6(28) . . .
42(4) . . .
34.3(32) . . .
34.1(30) . . .
38.0(32) . . .
42(4) . . .
37.1(34) . . .
38.7(35) . . .
40.5(35) . . .
29.1(28) . . .
34.5(31) . . .
38.9(33) . . .
38.9(33) . . .
35.2(32) . . .
33.7(31) . . .
32.9(30) . . .
30.7(30) . . .
34.8(33) . . .
29.0(28) . . .
39.7(33) . . .
37.3(32) . . .
36.3(33) . . .
32.8(30) . . .
40.3(33) . . .
37.6(32) . . .
33.7(31) . . .
28.2(28) . . .
31.4(30) . . .
34.4(30) . . .
37.9(32) . . .
39.9(34) . . .
42(4) . . .
32.2(31) . . .
36.3(32) . . .
39.0(33) . . .
45(4) . . .
30.8(30) . . .
28.8(28) . . .
38.2(32) . . .
29.9(28) . . .
38.0(33) . . .
34.3(32) . . .
39.0(34) . . .
40.0(32) . . .
31.9(29) . . .
40(4) . . .
30.5(31) . . .
42(4) . . .
30.5(28) . . .
32.2(31) . . .
25.6(27) . . .
25.1(27) . . .
33.7(31) . . .
28.6(28) . . .
39.3(33) . . .
33.6(30) . . .
24.5(25) . . .
37.9(34) . . .
32.1(30) . . .
47(4) . . .
35.5(31) . . .
32.8(31) . . .
36.6(32) . . .
37.8(32) . . .
36.1(31) . . .
35.3(32) . . .
37.4(32) . . .
42.5(35) . . .
51(4) . . .
36.8(34) . . .
38.1(34) . . .
30.4(30) . . .
36.8(32) . . .
29.6(28) . . .
37.1(33) . . .
28.9(28) . . .
31.0(29) . . .
27.1(27) . . .
35.3(31) . . .
34.7(31) . . .
35.6(33) . . .
40.7(35) . . .
37.1(32) . . .
38.4(32) . . .
36.0(31) . . .
41(4) . . .
36.5(32) . . .
42.8(34) . . .
34.5(31) . . .
31.4(30) . . .
31.8(31) . . .
28.2(27) . . .
41.3(34) . . .
36.5(31) . . .
27.6(27) . . .
35.4(32) . . .
40(4) . . .
32.7(30) . . .
29.0(29) . . .
33.6(33) . . .
29.5(30) . . .
26.9(28) . . .
26.4(27) . . .
26.1(29) . . .
37(4) . . .
32.4(30) . . .
32.7(29) . . .
35.0(31) . . .
31.0(30) . . .
30.4(29) . . .
33.9(31) . . .
40.3(33) . . .
31.3(29) . . .
36.8(34) . . .
31.1(30) . . .
32.3(33) . . .
27.8(29) . . .
38.0(32) . . .
34.5(31) . . .
39(4) . . .
33.2(30) . . .
40.2(34) . . .
38.0(32) . . .
31.8(29) . . .
27.9(30) . . .
34.1(32) . . .
36.1(31) . . .
32.3(30) . . .
33.3(33) . . .
33.4(32) . . .
42.2(35) . . .
32.7(30) . . .
32.2(30) . . .
39.0(33) . . .
33.2(32) . . .
33.5(31) . . .
35.2(31) . . .
40.2(34) . . .
34.6(31) . . .
42(4) . . .
33.0(30) . . .
24.0(25) . . .
33.5(30) . . .
33.3(32) . . .
40.6(35) . . .
34.7(31) . . .
26.6(27) . . .
25.0(27) . . .
30.4(30) . . .
32.0(32) . . .
36.8(33) . . .
41.7(33) . . .
35.5(34) . . .
36.1(33) . . .
32.8(31) . . .
36.5(32) . . .
29.0(28) . . .
39.7(34) . . .
38.3(34) . . .
38(4) . . .
38.1(34) . . .
36.8(32) . . .
36.9(32) . . .
31.5(30) . . .
38.8(34) . . .
36.7(32) . . .
33.6(30) . . .
26.5(27) . . .
34.8(33) . . .
43(4) . . .
31.3(30) . . .
33.0(30) . . .
34.1(31) . . .
43(4) . . .
41.1(35) . . .
29.3(29) . . .
26.6(27) . . .
29.5(30) . . .
29.8(30) . . .
32.3(30) . . .
34.7(31) . . .
31.0(29) . . .
29.1(29) . . .
28.7(30) . . .
27.6(29) . . .
32.1(32) . . .
34.0(31) . . .
39.4(33) . . .
35.4(32) . . .
32.7(30) . . .
36.6(32) . . .
34.2(30) . . .
28.9(29) . . .
30.5(32) . . .
27.4(28) . . .
31.3(29) . . .
34.4(30) . . .
32.3(31) . . .
35.8(34) . . .
37(4) . . .
34.9(31) . . .
30.0(28) . . .
32.9(30) . . .
32.0(30) . . .
33.7(32) . . .
35.6(31) . . .
45(4) . . .
38.0(31) . . .
34.5(32) . . .
30.1(30) . . .
22.0(25) . . .
42(4) . . .
38.0(34) . . .
34.7(33) . . .
24.6(27) . . .
33.1(30) . . .
30.1(31) . . .
30.0(29) . . .
36.3(34) . . .
31.7(30) . . .
34.9(31) . . .
30.7(31) . . .
35.0(34) . . .
34.1(32) . . .
22.9(26) . . .
28.5(28) . . .
29.4(28) . . .
40.7(35) . . .
36.3(31) . . .
35.0(31) . . .
42.9(34) . . .
34.4(31) . . .
36.1(35) . . .
33.6(32) . . .
34.4(30) . . .
28.6(28) . . .
34.8(31) . . .
30.2(28) . . .
35.4(32) . . .
32.6(30) . . .
29.1(29) . . .
38.0(32) . . .
45(4) . . .
37.8(32) . . .
45.0(35) . . .
34.6(31) . . .
33.2(30) . . .
37.9(35) . . .
33.7(31) . . .
28.0(28) . . .
38.1(32) . . .
36.2(31) . . .
40.0(34) . . .
31.0(30) . . .
37.9(33) . . .
29.6(28) . . .
38.3(33) . . .
39.7(34) . . .
29.7(28) . . .
32.3(30) . . .
34.1(31) . . .
30.3(31) . . .
31.3(31) . . .
37.1(33) . . .
35.6(32) . . .
29.4(28) . . .
31.7(31) . . .
32.0(30) . . .
34.6(31) . . .
31.8(30) . . .
27.2(28) . . .
32.9(32) . . .
37.5(33) . . .
31.5(30) . . .
38.5(33) . . .
37.9(34) . . .
32.6(31) . . .
37.1(33) . . .
31.1(30) . . .
33.0(30) . . .
38.1(35) . . .
32.7(31) . . .
42(4) . . .
30.8(29) . . .
34.3(30) . . .
33.9(31) . . .
32.4(30) . . .
30.6(29) . . .
33.4(30) . . .
42.4(34) . . .
35.5(32) . . .
33.4(32) . . .
35.3(32) . . .
37.1(32) . . .
34.2(30) . . .
35.8(32) . . .
41(4) . . .
30.5(30) . . .
41.3(34) . . .
41.4(33) . . .
31.7(29) . . .
35.3(33) . . .
36.1(34) . . .
42.1(33) . . .
37.0(32) . . .
34.7(32) . . .
39.4(33) . . .
43(4) . . .
36.6(32) . . .
25.5(27) . . .
27.6(28) . . .
37.5(34) . . .
35.6(31) . . .
34.2(31) . . .
27.7(28) . . .
29.7(29) . . .
37.8(33) . . .
38.7(34) . . .
34.2(31) . . .
29.3(28) . . .
39(4) . . .
31.6(31) . . .
28.9(29) . . .
33.4(30) . . .
35.2(31) . . .
34.8(32) . . .
33.8(33) . . .
31.5(31) . . .
37.6(33) . . .
37.5(33) . . .
37(4) . . .
31.5(31) . . .
36.4(32) . . .
28.8(28) . . .
35.8(31) . . .
32.8(31) . . .
26.0(28) . . .
30.1(29) . . .
36.3(32) . . .
41(4) . . .
29.5(31) . . .
30.9(30) . . .
34.1(31) . . .
34.6(31) . . .
36.3(31) . . .
38.6(33) . . .
32.9(30) . . .
40.3(34) . . .
41.1(33) . . .
36.5(33) . . .
33.6(31) . . .
37.6(33) . . .
34.3(31) . . .
36.5(32) . . .
33.9(31) . . .
34.4(33) . . .
42(4) . . .
37.6(32) . . .
32.7(30) . . .
33.8(33) . . .
33.3(32) . . .
40.0(34) . . .
36.8(32) . . .
34.3(31) . . .
33.6(32) . . .
26.0(29) . . .
32.6(31) . . .
31.0(29) . . .
29.3(28) . . .
28.2(29) . . .
27.3(27) . . .
32.7(29) . . .
36.7(32) . . .
35.1(31) . . .
32.8(30) . . .
36.0(31) . . .
40.9(34) . . .
29.6(29) . . .
33.8(31) . . .
24.4(27) . . .
29.9(29) . . .
30.8(28) . . .
39.7(33) . . .
40.1(34) . . .
37(4) . . .
29.6(30) . . .
25.1(26) . . .
35.8(31) . . .
35.4(32) . . .
27.3(29) . . .
32.6(34) . . .
26.5(27) . . .
26.0(27) . . .
34.3(31) . . .
35.5(33) . . .
30.7(30) . . .
31.5(29) . . .
30.1(28) . . .
32.8(31) . . .
38.2(35) . . .
31.0(31) . . .
35.6(32) . . .
32.5(30) . . .
33.2(31) . . .
29.6(30) . . .
32.1(31) . . .
33.4(30) . . .
24.7(27) . . .
24.7(25) . . .
30.7(29) . . .
29.2(29) . . .
32.5(30) . . .
32.4(30) . . .
35.1(34) . . .
35.4(34) . . .
30.7(29) . . .
43.0(34) . . .
33.4(32) . . .
36.6(34) . . .
35.5(33) . . .
33.9(31) . . .
40.4(33) . . .
36.4(32) . . .
33.8(31) . . .
32.1(30) . . .
37.1(32) . . .
31.0(29) . . .
39.6(34) . . .
33.7(32) . . .
30.0(30) . . .
32.6(29) . . .
30.5(29) . . .
44(4) . . .
36.9(34) . . .
32.5(31) . . .
34.6(31) . . .
34.0(31) . . .
36.5(34) . . .
39(4) . . .
38.5(33) . . .
42.4(35) . . .
32.7(30) . . .
36.0(33) . . .
36.7(34) . . .
33.1(32) . . .
37.4(32) . . .
28.4(27) . . .
32.2(30) . . .
32.5(30) . . .
33.0(31) . . .
34.4(31) . . .
38.7(33) . . .
38.1(35) . . .
29.4(31) . . .
34.6(32) . . .
35.5(31) . . .
34.9(32) . . .
35.1(32) . . .
34.2(30) . . .
35.8(32) . . .
24.0(26) . . .
36.5(34) . . .
29.6(30) . . .
35.4(35) . . .
36.3(33) . . .
37.0(32) . . .
41.8(35) . . .
33.1(30) . . .
33.3(33) . . .
29.8(30) . . .
32.6(30) . . .
28.6(29) . . .
34.0(32) . . .
34.3(31) . . .
34.0(31) . . .
31.2(30) . . .
39(4) . . .
26.9(28) . . .
25.8(27) . . .
27.2(27) . . .
28.6(28) . . .
32.3(30) . . .
33.0(32) . . .
28.2(29) . . .
29.4(28) . . .
32.9(30) . . .
27.9(29) . . .
35.6(33) . . .
32.1(30) . . .
38.9(33) . . .
45(4) . . .
36.8(34) . . .
34.4(33) . . .
33.0(29) . . .
36.6(31) . . .
29.7(30) . . .
39.4(35) . . .
32.2(31) . . .
32.6(30) . . .
43.5(34) . . .
38.7(33) . . .
34.5(31) . . .
40(4) . . .
28.6(29) . . .
32.2(30) . . .
31.4(30) . . .
32.5(30) . . .
36.9(32) . . .
36.5(33) . . .
33.8(30) . . .
32.1(30) . . .
35.9(33) . . .
37.0(32) . . .
38.6(33) . . .
35.8(31) . . .
45(4) . . .
38.4(33) . . .
31.0(30) . . .
27.2(27) . . .
23.8(26) . . .
30.6(32) . . .
31.8(29) . . .
29.4(29) . . .
33.5(30) . . .
36.1(32) . . .
32.7(31) . . .
27.8(27) . . .
36.0(33) . . .
37.5(32) . . .
32.2(29) . . .
36.7(33) . . .
39.8(34) . . .
47(4) . . .
31.5(29) . . .
31.0(29) . . .
35.7(32) . . .
34.6(31) . . .
38.3(34) . . .
31.1(29) . . .
35.9(31) . . .
31.8(29) . . .
33.0(31) . . .
32.3(29) . . .
35.5(32) . . .
36.0(31) . . .
45(4) . . .
33.1(32) . . .
39.1(33) . . .
36.8(32) . . .
33.5(30) . . .
36.1(34) . . .
29.0(29) . . .
34.1(32) . . .
29.2(29) . . .
33.2(31) . . .
30.3(31) . . .
33.1(31) . . .
31.9(30) . . .
35.2(31) . . .
39.7(34) . . .
35.8(32) . . .
36.0(34) . . .
36.2(32) . . .
43.4(35) . . .
38.5(32) . . .
41(4) . . .
36.8(34) . . .
34.6(31) . . .
34.5(31) . . .
37.1(34) . . .
28.5(30) . . .
29.3(30) . . .
38.6(32) . . .
44.0(35) . . .
29.8(29) . . .
26.7(26) . . .
30.2(30) . . .
34.5(32) . . .
28.8(28) . . .
29.1(29) . . .
42(4) . . .
32.5(31) . . .
34.1(30) . . .
34.0(30) . . .
33.3(30) . . .
33.9(32) . . .
30.1(34) . . .
32.3(31) . . .
32.6(30) . . .
34.4(32) . . .
31.5(31) . . .
34.8(31) . . .
31.6(29) . . .
37.9(33) . . .
39.8(34) . . .
37.4(34) . . .
35.2(32) . . .
38.5(32) . . .
29.2(28) . . .
32.7(32) . . .
39.0(33) . . .
38.9(33) . . .
31.7(29) . . .
34.9(32) . . .
34.0(32) . . .
32.8(31) . . .
30.7(29) . . .
40.6(34) . . .
32.7(30) . . .
30.8(28) . . .
39.0(34) . . .
32.3(30) . . .
23.8(25) . . .
35.6(33) . . .
31.8(31) . . .
36.3(34) . . .
28.2(28) . . .
33.2(30) . . .
40.7(34) . . .
32.7(29) . . .
30.2(29) . . .
33.3(30) . . .
35.2(31) . . .
29.9(29) . . .
35.5(33) . . .
34.8(32) . . .
34.6(31) . . .
31.7(30) . . .
26.8(27) . . .
44(4) . . .
39.2(32) . . .
32.6(30) . . .
38.6(32) . . .
33.3(31) . . .
30.5(28) . . .
37.3(33) . . .
29.5(28) . . .
32.2(29) . . .
36.0(33) . . .
31.0(30) . . .
27.8(27) . . .
37.8(33) . . .
40.2(33) . . .
36.2(32) . . .
38.0(34) . . .
33.1(31) . . .
32.6(30) . . .
41.7(33) . . .
31.5(29) . . .
35.2(33) . . .
38(4) . . .
31.0(29) . . .
25.3(26) . . .
37.0(33) . . .
38.4(35) . . .
44(4) . . .
33.6(30) . . .
31.9(31) . . .
30.6(30) . . .
31.9(32) . . .
25.0(27) . . .
34.0(30) . . .
39.5(33) . . .
27.8(28) . . .
29.1(30) . . .
31.2(30) . . .
41.0(34) . . .
29.0(29) . . .
29.0(29) . . .
37.0(32) . . .
33.9(31) . . .
31.4(29) . . .
28.3(28) . . .
33.7(32) . . .
24.6(26) . . .
41.5(35) . . .
31.6(29) . . .
39.3(34) . . .
41(4) . . .
33.8(32) . . .
32.7(30) . . .
33.4(30) . . .
27.2(28) . . .
30.2(30) . . .
30.8(30) . . .
34.2(32) . . .
33.9(31) . . .
28.8(28) . . .
39(4) . . .
32.6(31) . . .
27.9(28) . . .
29.7(29) . . .
30.3(29) . . .
37.7(34) . . .
38.0(33) . . .
34.9(31) . . .
35.4(31) . . .
37.2(32) . . .
32.7(31) . . .
38.0(33) . . .
26.3(27) . . .
35.3(31) . . .
36.1(33) . . .
26.7(28) . . .
23.4(25) . . .
33.6(31) . . .
39.2(33) . . .
31.5(29) . . .
40.5(34) . . .
38.0(32) . . .
41.8(34) . . .
37.5(32) . . .
30.6(30) . . .
34.3(34) . . .
35.6(32) . . .
42.4(33) . . .
42(4) . . .
39.1(34) . . .
36.7(33) . . .
39.0(32) . . .
35.1(31) . . .
31.0(30) . . .
34.9(32) . . .
32.6(31) . . .
34.8(32) . . .
34.1(31) . . .
39.3(34) . . .
38.9(32) . . .
38.9(31) . . .
34.9(30) . . .
29.4(28) . . .
30.2(30) . . .
32.1(33) . . .
30.7(30) . . .
32.1(31) . . .
31.6(29) . . .
43(4) . . .
42(4) . . .
32.7(31) . . .
29.3(29) . . .
36.7(31) . . .
39.9(34) . . .
34.7(34) . . .
24.6(27) . . .
34.6(31) . . .
38.7(33) . . .
34.7(32) . . .
30.9(31) . . .
34.3(33) . . .
27.2(27) . . .
35.9(32) . . .
30.7(29) . . .
33.4(30) . . .
34.3(31) . . .
32.8(30) . . .
31.0(30) . . .
34.0(32) . . .
35.2(31) . . .
30.9(30) . . .
32.5(29) . . .
37.5(34) . . .
34.2(31) . . .
34.2(30) . . .
32.1(30) . . .
37.4(33) . . .
25.4(27) . . .
36.8(33) . . .
33.2(30) . . .
30.7(29) . . .
32.4(30) . . .
33.0(31) . . .
30.9(29) . . .
29.6(31) . . .
29.5(29) . . .
26.8(27) . . .
37.3(34) . . .
31.5(29) . . .
20.5(23) . . .
29.2(28) . . .
34.1(31) . . .
36.0(33) . . .
30.9(28) . . .
27.9(27) . . .
35.8(32) . . .
38.2(32) . . .
26.1(26) . . .
20.5(24) . . .
29.6(29) . . .
34.4(30) . . .
37.7(32) . . .
20.0(23) . . .
35.3(34) . . .
29.8(28) . . .
29.4(28) . . .
33.2(31) . . .
37.4(33) . . .
33.7(33) . . .
31.5(31) . . .
30.9(29) . . .
26.0(27) . . .
39.4(34) . . .
28.9(29) . . .
31.5(31) . . .
34.6(30) . . .
37.3(32) . . .
33.2(34) . . .
27.0(28) . . .
39(4) . . .
32.8(31) . . .
28.6(30) . . .
36.1(34) . . .
33.0(31) . . .
34.0(32) . . .
34.3(31) . . .
27.2(28) . . .
31.1(30) . . .
31.4(30) . . .
31.0(31) . . .
32.6(29) . . .
37.3(32) . . .
31.0(29) . . .
24.8(27) . . .
24.4(26) . . .
32.4(30) . . .
33.0(31) . . .
39(4) . . .
37.3(34) . . .
43.8(34) . . .
28.9(28) . . .
33.5(31) . . .
27.0(30) . . .
27.9(30) . . .
26.7(26) . . .
37.4(32) . . .
30.3(29) . . .
30.5(29) . . .
32.5(30) . . .
35.0(31) . . .
23.2(25) . . .
35.9(34) . . .
43(4) . . .
39.2(33) . . .
40.8(34) . . .
32.6(29) . . .
33.8(31) . . .
43(4) . . .
37.5(33) . . .
32.7(30) . . .
32.4(30) . . .
33.1(31) . . .
30.8(30) . . .
36.5(34) . . .
30.8(29) . . .
32.3(29) . . .
32.0(30) . . .
39(4) . . .
40(4) . . .
28.0(27) . . .
30.6(31) . . .
32.7(31) . . .
26.2(27) . . .
24.4(26) . . .
32.4(30) . . .
32.9(32) . . .
29.8(31) . . .
29.4(29) . . .
27.7(29) . . .
30.0(28) . . .
27.4(27) . . .
28.0(30) . . .
39(4) . . .
38.3(33) . . .
33.0(30) . . .
34.2(32) . . .
35.4(33) . . .
27.0(27) . . .
36.8(33) . . .
27.0(28) . . .
29.8(29) . . .
34.4(32) . . .
36.4(33) . . .
23.7(25) . . .
41.4(34) . . .
32.6(30) . . .
34.6(34) . . .
26.7(28) . . .
39.0(32) . . .
41.1(33) . . .
39.8(35) . . .
29.9(30) . . .
26.5(27) . . .
36.8(32) . . .
29.5(28) . . .
33.1(32) . . .
39(4) . . .
33.1(31) . . .
40.7(34) . . .
32.9(30) . . .
32.4(29) . . .
33.7(31) . . .
43(4) . . .
38.3(33) . . .
28.0(28) . . .
35.8(32) . . .
34.5(32) . . .
39.3(33) . . .
31.4(29) . . .
28.4(28) . . .
26.4(27) . . .
31.9(31) . . .
32.5(30) . . .
34.5(30) . . .
29.5(28) . . .
40.0(35) . . .
37.4(33) . . .
34.5(32) . . .
29.7(28) . . .
36.8(31) . . .
39(4) . . .
34.5(33) . . .
31.2(31) . . .
30.0(28) . . .
30.9(29) . . .
35.2(33) . . .
33.6(31) . . .
22.8(25) . . .
34.2(30) . . .
37.0(33) . . .
34.2(31) . . .
39.0(34) . . .
37.7(34) . . .
35.5(31) . . .
32.9(32) . . .
29.5(33) . . .
36.7(34) . . .
29.0(28) . . .
32.4(30) . . .
28.5(30) . . .
31.2(32) . . .
31.0(29) . . .
29.4(29) . . .
34.0(31) . . .
36.4(33) . . .
33.8(32) . . .
35.2(31) . . .
40.6(33) . . .
32.3(29) . . .
29.5(28) . . .
27.8(30) . . .
28.2(29) . . .
28.3(28) . . .
32.3(29) . . .
33.0(30) . . .
35.2(33) . . .
37.9(34) . . .
32.0(29) . . .
32.6(29) . . .
35.4(32) . . .
29.9(29) . . .
33.1(30) . . .
29.2(28) . . .
28.2(29) . . .
30.9(31) . . .
40(4) . . .
32.2(31) . . .
28.6(28) . . .
32.7(31) . . .
36.8(35) . . .
37.3(34) . . .
38.1(32) . . .
31.6(29) . . .
29.8(31) . . .
35.7(33) . . .
33.2(32) . . .
28.0(28) . . .
27.9(27) . . .
34.4(32) . . .
31.8(31) . . .
35.1(35) . . .
44(4) . . .
39.7(33) . . .
37.5(32) . . .
38(4) . . .
34.1(32) . . .
35.1(30) . . .
36.8(32) . . .
33.7(34) . . .
27.5(31) . . .
34.1(34) . . .
26.9(27) . . .
29.6(28) . . .
32.9(30) . . .
29.5(28) . . .
34.7(31) . . .
30.3(30) . . .
32.3(30) . . .
37.3(33) . . .
41(4) . . .
35.5(31) . . .
28.9(28) . . .
30.0(30) . . .
29.6(30) . . .
31.4(31) . . .
32.9(31) . . .
32.6(30) . . .
27.3(27) . . .
33.8(33) . . .
38(4) . . .
31.9(30) . . .
30.8(30) . . .
37.3(33) . . .
37.5(33) . . .
32.6(30) . . .
38(4) . . .
36.5(31) . . .
30.7(29) . . .
35.7(32) . . .
37.7(33) . . .
28.5(28) . . .
25.6(26) . . .
32.4(32) . . .
34.3(32) . . .
37.8(33) . . .
37.2(32) . . .
28.0(28) . . .
28.1(29) . . .
41(4) . . .
36.2(31) . . .
33.8(31) . . .
28.9(28) . . .
34.3(31) . . .
31.3(30) . . .
39.9(34) . . .
35.2(31) . . .
32.0(31) . . .
31.0(29) . . .
30.6(32) . . .
25.1(27) . . .
27.2(27) . . .
24.7(26) . . .
32.8(32) . . .
28.2(30) . . .
33.9(32) . . .
32.6(29) . . .
37.9(32) . . .
35.1(31) . . .
38(4) . . .
25.2(28) . . .
28.9(28) . . .
32.8(32) . . .
33.9(32) . . .
35.3(32) . . .
36.4(32) . . .
33.8(30) . . .
34.3(30) . . .
37.4(34) . . .
31.7(29) . . .
38.0(33) . . .
38.0(32) . . .
34.8(31) . . .
35.4(32) . . .
36.1(32) . . .
30.5(30) . . .
27.9(28) . . .
32.2(31) . . .
27.9(30) . . .
38.2(33) . . .
30.7(29) . . .
36.4(32) . . .
38.5(33) . . .
24.9(26) . . .
35.5(34) . . .
33.9(31) . . .
30.1(28) . . .
32.4(30) . . .
34.7(30) . . .
31.2(28) . . .
31.7(29) . . .
27.4(27) . . .
36.5(34) . . .
43(4) . . .
28.4(27) . . .
35.9(31) . . .
32.0(30) . . .
28.4(30) . . .
38(4) . . .
38.7(33) . . .
38.4(32) . . .
33.9(30) . . .
36.8(31) . . .
33.8(31) . . .
30.7(31) . . .
28.2(28) . . .
40.3(33) . . .
39(4) . . .
35.4(34) . . .
35.0(31) . . .
35.7(32) . . .
35.5(30) . . .
45(4) . . .
25.9(26) . . .
27.5(27) . . .
39.7(32) . . .
40.9(34) . . .
27.2(27) . . .
35.0(34) . . .
36.6(33) . . .
35.5(31) . . .
35.0(31) . . .
31.2(30) . . .
37.3(35) . . .
25.4(27) . . .
28.7(28) . . .
31.0(30) . . .
29.6(29) . . .
31.7(31) . . .
25.6(26) . . .
37.0(31) . . .
37.8(34) . . .
42(4) . . .
30.8(29) . . .
27.5(28) . . .
40.0(32) . . .
35.2(31) . . .
32.4(33) . . .
36.6(34) . . .
29.2(28) . . .
43.4(34) . . .
33.3(34) . . .
38(4) . . .
30.4(30) . . .
36.6(32) . . .
36.0(31) . . .
39.0(34) . . .
29.2(31) . . .
33.4(30) . . .
41.1(33) . . .
36.1(32) . . .
26.3(28) . . .
29.6(32) . . .
28.6(31) . . .
30.1(29) . . .
28.3(27) . . .
28.9(28) . . .
27.1(29) . . .
26.8(27) . . .
31.3(29) . . .
28.9(28) . . .
33.8(31) . . .
36.2(34) . . .
30.4(29) . . .
30.8(29) . . .
27.7(27) . . .
33.5(32) . . .
26.6(28) . . .
33.8(31) . . .
28.7(28) . . .
39.7(34) . . .
32.7(32) . . .
32.9(31) . . .
31.7(30) . . .
27.5(28) . . .
35.3(33) . . .
40(4) . . .
32.3(32) . . .
34.0(32) . . .
32.4(30) . . .
26.5(27) . . .
36.0(33) . . .
36.7(33) . . .
42(4) . . .
32.2(30) . . .
37.0(33) . . .
28.7(31) . . .
30.8(32) . . .
34.8(31) . . .
40.1(33) . . .
31.2(32) . . .
26.0(26) . . .
28.8(28) . . .
35.9(33) . . .
37.9(32) . . .
32.6(30) . . .
37(4) . . .
37.7(35) . . .
38.4(33) . . .
33.3(31) . . .
31.8(31) . . .
32.3(33) . . .
27.2(28) . . .
27.4(28) . . .
27.4(29) . . .
40.3(35) . . .
29.7(29) . . .
36.5(32) . . .
34.7(30) . . .
30.8(29) . . .
27.3(27) . . .
40.1(35) . . .
37.1(34) . . .
26.9(27) . . .
38.5(33) . . .
36.0(31) . . .
43(4) . . .
33.4(30) . . .
36.0(31) . . .
37.6(33) . . .
37.8(33) . . .
38.4(35) . . .
33.2(31) . . .
34.3(30) . . .
37.3(32) . . .
30.5(30) . . .
31.9(31) . . .
28.9(28) . . .
31.5(29) . . .
24.3(26) . . .
31.1(31) . . .
38.7(35) . . .
31.7(31) . . .
34.8(31) . . .
37.0(34) . . .
29.2(29) . . .
31.2(31) . . .
36.7(33) . . .
34.8(30) . . .
31.0(30) . . .
36.9(33) . . .
34.4(30) . . .
31.6(29) . . .
28.5(29) . . .
30.3(29) . . .
27.5(28) . . .
25.3(26) . . .
33.0(32) . . .
35.6(31) . . .
31.5(31) . . .
27.7(30) . . .
34.2(31) . . .
26.1(27) . . .
30.8(30) . . .
39.5(33) . . .
31.1(31) . . .
41(4) . . .
29.5(28) . . .
33.5(30) . . .
39.4(33) . . .
34.9(32) . . .
26.7(27) . . .
27.3(27) . . .
36.4(32) . . .
32.5(31) . . .
38(4) . . .
24.7(27) . . .
30.4(29) . . .
28.5(28) . . .
39.0(34) . . .
30.9(29) . . .
30.6(28) . . .
32.5(30) . . .
29.4(28) . . .
36.2(32) . . .
37.5(33) . . .
40.0(34) . . .
30.7(29) . . .
21.6(26) . . .
26.7(30) . . .
25.4(27) . . .
33.2(32) . . .
31.8(29) . . .
35.3(30) . . .
31.0(31) . . .
32.5(30) . . .
34.8(31) . . .
27.4(28) . . .
38.8(34) . . .
28.2(27) . . .
43(4) . . .
34.2(31) . . .
36.1(31) . . .
28.8(29) . . .
33.4(32) . . .
28.9(27) . . .
32.7(29) . . .
38.4(32) . . .
32.4(30) . . .
28.7(29) . . .
29.9(30) . . .
32.1(30) . . .
31.8(29) . . .
32.4(30) . . .
34.1(34) . . .
31.6(31) . . .
35.0(30) . . .
32.2(30) . . .
29.4(29) . . .
36(4) . . .
30.3(29) . . .
35.7(31) . . .
30.9(29) . . .
28.4(28) . . .
29.7(30) . . .
26.9(29) . . .
34.2(31) . . .
37.4(31) . . .
27.9(27) . . .
35.0(32) . . .
33.1(31) . . .
31.5(29) . . .
35.0(32) . . .
31.3(33) . . .
33.9(34) . . .
31.9(32) . . .
33.7(30) . . .
27.3(27) . . .
32.9(30) . . .
35.6(34) . . .
38.0(33) . . .
33.6(30) . . .
41(4) . . .
28.5(29) . . .
31.6(29) . . .
29.3(29) . . .
35.5(31) . . .
37.2(32) . . .
34.0(32) . . .
38.6(33) . . .
31.2(29) . . .
31.4(29) . . .
36.8(33) . . .
42.0(34) . . .
35.3(31) . . .
32.3(32) . . .
35.0(31) . . .
32.6(31) . . .
35.3(32) . . .
40.5(35) . . .
28.9(28) . . .
39.5(32) . . .
38.8(32) . . .
30.3(30) . . .
33.5(32) . . .
36.4(31) . . .
25.4(27) . . .
32.8(31) . . .
31.2(32) . . .
29.7(29) . . .
37.3(32) . . .
33.5(31) . . .
37.5(32) . . .
45(4) . . .
36(4) . . .
32.0(29) . . .
34.1(32) . . .
28.5(28) . . .
30.8(30) . . .
29.2(30) . . .
27.3(27) . . .
30.3(29) . . .
33.1(29) . . .
41.5(35) . . .
38.2(32) . . .
31.4(29) . . .
39(4) . . .
36.0(33) . . .
35.8(33) . . .
31.7(30) . . .
31.5(29) . . .
30.0(29) . . .
33.7(31) . . .
35.3(32) . . .
31.8(31) . . .
37.0(32) . . .
32.2(30) . . .
34.6(32) . . .
32.8(32) . . .
41.3(34) . . .
37.7(31) . . .
26.5(28) . . .
38.3(34) . . .
33.8(31) . . .
35.0(31) . . .
26.1(26) . . .
28.6(31) . . .
28.7(30) . . .
31.9(31) . . .
36.7(31) . . .
34.3(31) . . .
31.7(34) . . .
32.7(34) . . .
40(4) . . .
28.6(28) . . .
36.5(31) . . .
30.8(31) . . .
33.4(35) . . .
31.7(30) . . .
34.6(31) . . .
36.4(31) . . .
26.5(25) . . .
31.9(32) . . .
36.0(33) . . .
31.9(30) . . .
34.2(31) . . .
31.8(29) . . .
38.6(35) . . .
38.1(34) . . .
31.0(29) . . .
33.8(32) . . .
33.6(30) . . .
35.7(34) . . .
36.6(32) . . .
38.8(32) . . .
24.8(26) . . .
31.1(31) . . .
37.9(35) . . .
27.3(28) . . .
26.4(26) . . .
34.2(32) . . .
34.5(32) . . .
31.7(30) . . .
39.8(33) . . .
27.7(28) . . .
33.1(31) . . .
35.0(31) . . .
42(4) . . .
26.3(27) . . .
37.5(32) . . .
35.2(32) . . .
31.0(29) . . .
30.1(30) . . .
25.5(26) . . .
34.2(31) . . .
34.5(31) . . .
33.5(34) . . .
29.6(29) . . .
34.4(31) . . .
36.5(31) . . .
34.6(31) . . .
30.6(31) . . .
30.5(32) . . .
38.3(33) . . .
33.6(30) . . .
31.2(32) . . .
25.1(30) . . .
27.4(28) . . .
33.2(30) . . .
38.7(33) . . .
32.7(31) . . .
19.1(23) . . .
24.0(26) . . .
29.9(28) . . .
40.8(33) . . .
40.0(34) . . .
33.6(33) . . .
27.2(27) . . .
28.4(27) . . .
26.9(27) . . .
34.6(31) . . .
31.1(31) . . .
32.2(33) . . .
32.5(30) . . .
27.5(28) . . .
28.3(31) . . .
35.3(32) . . .
25.3(27) . . .
28.3(28) . . .
31.0(29) . . .
33.8(32) . . .
31.9(30) . . .
29.0(28) . . .
31.0(29) . . .
29.6(29) . . .
33.0(30) . . .
38.7(32) . . .
33.3(30) . . .
30.7(29) . . .
28.4(29) . . .
31.9(31) . . .
32.4(32) . . .
25.8(28) . . .
35.4(31) . . .
35.3(32) . . .
33.9(31) . . .
31.5(31) . . .
24.7(26) . . .
34.1(31) . . .
27.2(27) . . .
33.5(33) . . .
31.9(32) . . .
33.5(31) . . .
28.1(28) . . .
31.3(31) . . .
22.5(26) . . .
34.1(33) . . .
30.3(30) . . .
31.2(29) . . .
33.3(31) . . .
36.9(35) . . .
39(4) . . .
29.0(28) . . .
39.8(33) . . .
36.2(33) . . .
30.6(30) . . .
40.7(34) . . .
39.7(33) . . .
27.4(28) . . .
39.2(35) . . .
36.2(33) . . .
41(4) . . .
32.3(30) . . .
34.3(30) . . .
28.4(29) . . .
29.1(34) . . .
28.5(29) . . .
36.9(32) . . .
25.7(26) . . .
35.2(32) . . .
30.9(31) . . .
35.3(31) . . .
34.5(31) . . .
40.4(34) . . .
40(4) . . .
32.2(31) . . .
31.9(30) . . .
39.1(34) . . .
35.6(31) . . .
28.3(29) . . .
32.8(32) . . .
40.2(34) . . .
42.6(33) . . .
34.7(32) . . .
33.8(33) . . .
31.4(30) . . .
29.5(28) . . .
32.7(31) . . .
29.4(31) . . .
18.0(22) . . .
26.6(28) . . .
28.3(28) . . .
38.7(32) . . .
43(4) . . .
34.6(33) . . .
34.5(31) . . .
30.0(28) . . .
37.6(32) . . .
39.1(33) . . .
33.3(31) . . .
34.5(32) . . .
30.1(29) . . .
30.3(28) . . .
26.7(27) . . .
31.3(33) . . .
31.0(32) . . .
36.2(31) . . .
30.4(29) . . .
30.9(32) . . .
21.2(25) . . .
28.8(28) . . .
34.1(30) . . .
38.7(33) . . .
34.6(32) . . .
29.2(29) . . .
34.7(32) . . .
28.9(28) . . .
37.6(33) . . .
33.0(31) . . .
28.9(30) . . .
30.6(30) . . .
33.3(30) . . .
28.4(29) . . .
29.1(30) . . .
33.9(32) . . .
31.6(31) . . .
24.7(26) . . .
36.5(35) . . .
38(4) . . .
31.8(31) . . .
30.4(30) . . .
21.5(24) . . .
30.6(29) . . .
26.9(27) . . .
32.7(32) . . .
41.0(35) . . .
28.4(29) . . .
29.7(29) . . .
32.5(31) . . .
35.5(31) . . .
22.4(24) . . .
25.3(28) . . .
29.9(31) . . .
36(4) . . .
38.1(34) . . .
33.7(30) . . .
32.7(30) . . .
39.7(33) . . .
43(4) . . .
27.8(27) . . .
27.3(27) . . .
22.2(25) . . .
34.8(33) . . .
34.8(30) . . .
38.6(33) . . .
27.5(28) . . .
31.0(30) . . .
37.6(33) . . .
36.7(33) . . .
33.9(31) . . .
31.9(30) . . .
29.5(29) . . .
32.3(31) . . .
33.4(32) . . .
29.7(29) . . .
37.9(32) . . .
33.3(29) . . .
34.4(35) . . .
27.6(28) . . .
36.9(32) . . .
33.7(30) . . .
27.2(30) . . .
34.4(34) . . .
27.5(28) . . .
31.2(30) . . .
24.8(26) . . .
28.0(28) . . .
31.0(31) . . .
28.4(28) . . .
26.2(27) . . .
33.5(30) . . .
31.4(31) . . .
40(4) . . .
32.3(29) . . .
30.3(29) . . .
34.3(30) . . .
39.4(34) . . .
39(4) . . .
32.0(32) . . .
24.9(26) . . .
34.8(31) . . .
30.0(29) . . .
22.5(26) . . .
27.4(29) . . .
25.5(27) . . .
34.7(31) . . .
33.4(34) . . .
35.1(33) . . .
33.3(31) . . .
27.5(27) . . .
33.7(31) . . .
35.0(31) . . .
33.6(33) . . .
32.7(31) . . .
30.8(29) . . .
34.3(30) . . .
27.6(30) . . .
34.2(33) . . .
36.6(32) . . .
24.8(27) . . .
30.0(28) . . .
31.2(29) . . .
29.5(29) . . .
33.8(33) . . .
34.1(30) . . .
32.8(30) . . .
39(4) . . .
32.0(31) . . .
28.8(28) . . .
36.8(32) . . .
31.3(29) . . .
27.3(29) . . .
37(4) . . .
34.0(30) . . .
33.6(30) . . .
22.8(25) . . .
39(4) . . .
29.6(30) . . .
30.3(29) . . .
29.0(28) . . .
26.2(27) . . .
28.3(29) . . .
28.4(29) . . .
37.2(32) . . .
28.1(28) . . .
34.0(31) . . .
29.3(29) . . .
35.7(32) . . .
31.3(31) . . .
37.6(32) . . .
34.9(34) . . .
31.8(32) . . .
29.6(30) . . .
34.3(30) . . .
34.1(31) . . .
33.2(30) . . .
29.5(29) . . .
36.6(33) . . .
36.8(32) . . .
30.8(30) . . .
40.2(34) . . .
32.9(32) . . .
33.1(30) . . .
43.1(34) . . .
34.2(31) . . .
32.3(29) . . .
33.0(32) . . .
33.1(31) . . .
35.2(31) . . .
28.4(27) . . .
27.0(31) . . .
26.0(27) . . .
34.2(32) . . .
38.0(33) . . .
36.9(31) . . .
37.4(33) . . .
25.2(27) . . .
36.0(33) . . .
33.7(31) . . .
34.8(31) . . .
30.7(30) . . .
33.0(32) . . .
25.4(26) . . .
34.6(31) . . .
28.7(28) . . .
31.8(30) . . .
32.0(31) . . .
31.3(31) . . .
35.7(32) . . .
32.0(31) . . .
32.7(30) . . .
42(4) . . .
29.6(29) . . .
32.4(30) . . .
34.3(33) . . .
36.6(33) . . .
27.5(28) . . .
25.7(27) . . .
35.0(32) . . .
38.2(33) . . .
34.8(34) . . .
27.1(29) . . .
37.3(34) . . .
30.3(29) . . .
40.9(34) . . .
32.1(30) . . .
32.2(28) . . .
29.8(29) . . .
24.4(27) . . .
24.8(26) . . .
37.5(35) . . .
45(4) . . .
32.6(29) . . .
32.2(30) . . .
36.5(34) . . .
35.9(34) . . .
33.9(33) . . .
35.9(32) . . .
36.8(33) . . .
30.4(30) . . .
35.1(33) . . .
39.3(34) . . .
36.5(31) . . .
30.6(29) . . .
27.7(30) . . .
28.9(31) . . .
24.0(26) . . .
33.4(30) . . .
30.1(29) . . .
30.1(32) . . .
33.5(32) . . .
30.3(30) . . .
31.2(29) . . .
34.9(31) . . .
27.7(29) . . .
23.5(27) . . .
30.5(33) . . .
27.1(27) . . .
31.9(30) . . .
34.0(31) . . .
37.2(31) . . .
38.2(32) . . .
28.2(28) . . .
28.8(28) . . .
28.6(28) . . .
30.4(32) . . .
36.0(33) . . .
36.1(32) . . .
37.4(34) . . .
36.1(33) . . .
39.0(32) . . .
38.1(32) . . .
34.6(31) . . .
27.7(28) . . .
28.6(31) . . .
29.6(29) . . .
36.7(31) . . .
33.6(30) . . .
30.1(28) . . .
33.0(31) . . .
29.0(29) . . .
33.6(30) . . .
35.7(31) . . .
33.6(31) . . .
35.3(32) . . .
25.8(28) . . .
26.1(27) . . .
30.3(29) . . .
30.0(28) . . .
29.6(29) . . .
28.6(28) . . .
26.2(27) . . .
30.4(30) . . .
29.3(29) . . .
27.8(28) . . .
31.8(31) . . .
37.2(33) . . .
30.2(31) . . .
31.3(31) . . .
36.1(33) . . .
25.0(26) . . .
36.7(32) . . .
35.5(31) . . .
39.4(33) . . .
32.3(32) . . .
29.2(28) . . .
37.2(32) . . .
34.1(32) . . .
34.8(32) . . .
30.5(30) . . .
31.8(31) . . .
27.2(27) . . .
32.4(30) . . .
36.7(34) . . .
30.6(31) . . .
24.9(26) . . .
36.4(32) . . .
40.9(34) . . .
38.4(34) . . .
39.5(33) . . .
30.1(28) . . .
28.9(29) . . .
33.7(31) . . .
37.1(35) . . .
31.1(31) . . .
30.7(29) . . .
32.3(29) . . .
30.2(29) . . .
36.3(35) . . .
33.4(31) . . .
35.5(31) . . .
36.2(32) . . .
31.6(30) . . .
39(4) . . .
29.9(29) . . .
35.6(33) . . .
32.6(30) . . .
32.2(30) . . .
40(4) . . .
33.8(33) . . .
24.7(26) . . .
30.2(28) . . .
36.1(34) . . .
29.5(29) . . .
31.0(29) . . .
36.4(32) . . .
27.9(27) . . .
36.3(32) . . .
30.6(28) . . .
34.5(31) . . .
29.3(28) . . .
25.7(26) . . .
30.0(29) . . .
42(4) . . .
36.5(32) . . .
32.3(30) . . .
28.7(28) . . .
29.7(30) . . .
34.8(32) . . .
28.4(28) . . .
27.3(27) . . .
34.5(32) . . .
32.6(31) . . .
26.6(30) . . .
19.8(23) . . .
28.9(28) . . .
26.4(28) . . .
33.7(33) . . .
38.5(32) . . .
33.9(30) . . .
32.5(29) . . .
33.0(31) . . .
30.8(30) . . .
28.5(30) . . .
25.7(27) . . .
29.4(28) . . .
30.9(29) . . .
27.0(29) . . .
25.2(27) . . .
27.5(28) . . .
36.6(31) . . .
33.5(31) . . .
39.7(34) . . .
34.5(31) . . .
39.2(33) . . .
30.9(29) . . .
29.8(29) . . .
25.2(26) . . .
36.2(35) . . .
33.3(30) . . .
30.9(30) . . .
25.3(28) . . .
38(4) . . .
39(4) . . .
35.8(32) . . .
24.7(26) . . .
33.7(32) . . .
32.2(30) . . .
33.5(30) . . .
31.9(30) . . .
28.5(28) . . .
34.1(31) . . .
31.8(30) . . .
29.6(33) . . .
32.4(30) . . .
25.4(27) . . .
32.7(32) . . .
30.9(32) . . .
28.5(30) . . .
31.0(29) . . .
44(4) . . .
34.7(34) . . .
27.5(29) . . .
35.0(32) . . .
29.0(29) . . .
35.4(32) . . .
28.3(29) . . .
29.5(29) . . .
29.7(28) . . .
29.1(28) . . .
32.1(30) . . .
35.6(34) . . .
34.9(34) . . .
46(4) . . .
28.0(28) . . .
33.3(31) . . .
40(4) . . .
29.2(28) . . .
32.6(30) . . .
37.7(31) . . .
31.8(31) . . .
31.4(31) . . .
32.3(31) . . .
20.6(24) . . .
26.2(27) . . .
31.5(30) . . .
31.0(30) . . .
35.2(32) . . .
32.8(29) . . .
40.8(34) . . .
47(4) . . .
42.8(34) . . .
31.4(29) . . .
30.2(29) . . .
28.3(28) . . .
29.4(30) . . .
34.3(32) . . .
30.0(29) . . .
38.3(32) . . .
29.5(31) . . .
36(4) . . .
28.3(29) . . .
31.5(30) . . .
26.6(27) . . .
27.1(27) . . .
35.2(33) . . .
29.5(27) . . .
45(4) . . .
33.3(30) . . .
17.5(22) . . .
30.0(31) . . .
32.0(33) . . .
27.3(28) . . .
34.7(31) . . .
40(4) . . .
32.8(31) . . .
48(4) . . .
30.7(30) . . .
35.6(31) . . .
33.8(33) . . .
27.1(29) . . .
29.6(29) . . .
35.9(31) . . .
36.8(32) . . .
27.9(29) . . .
36.3(34) . . .
34.1(30) . . .
31.9(30) . . .
34.5(30) . . .
32.8(32) . . .
31.3(31) . . .
36.4(34) . . .
27.0(27) . . .
40.5(34) . . .
32.5(31) . . .
33.5(33) . . .
32.4(30) . . .
29.5(28) . . .
35.6(33) . . .
26.6(28) . . .
29.3(30) . . .
33.7(30) . . .
34.9(31) . . .
31.6(29) . . .
40.5(34) . . .
32.1(31) . . .
31.5(29) . . .
37.3(32) . . .
31.8(30) . . .
34.3(30) . . .
31.0(29) . . .
25.9(28) . . .
28.9(28) . . .
33.4(31) . . .
36.5(32) . . .
35.2(32) . . .
31.1(29) . . .
28.7(28) . . .
36.5(32) . . .
32.3(32) . . .
31.3(30) . . .
31.3(29) . . .
30.6(29) . . .
37.5(33) . . .
42(4) . . .
32.7(32) . . .
26.9(28) . . .
29.7(28) . . .
31.0(32) . . .
27.6(28) . . .
32.1(32) . . .
33.8(31) . . .
25.9(27) . . .
31.5(29) . . .
27.6(29) . . .
34.8(35) . . .
27.1(29) . . .
26.5(27) . . .
27.5(28) . . .
33.6(32) . . .
35.1(31) . . .
36.6(31) . . .
35.5(33) . . .
32.8(31) . . .
30.6(31) . . .
35.4(33) . . .
39.3(33) . . .
29.3(28) . . .
33.4(31) . . .
31.7(30) . . .
36.3(32) . . .
36.7(32) . . .
39.7(33) . . .
34.1(31) . . .
37(4) . . .
36.7(33) . . .
38.9(32) . . .
32.8(29) . . .
45(4) . . .
29.0(30) . . .
32.9(31) . . .
30.6(29) . . .
24.8(27) . . .
34.1(31) . . .
33.4(31) . . .
26.3(26) . . .
25.7(26) . . .
33.4(31) . . .
25.2(29) . . .
32.1(32) . . .
29.8(30) . . .
22.3(25) . . .
36.2(34) . . .
37.1(32) . . .
36.1(32) . . .
29.9(29) . . .
30.9(29) . . .
32.4(32) . . .
38.3(35) . . .
38.0(33) . . .
33.4(30) . . .
28.2(27) . . .
36.6(33) . . .
37(4) . . .
26.7(27) . . .
34.2(31) . . .
33.2(30) . . .
30.1(29) . . .
37.6(34) . . .
33.0(32) . . .
29.9(30) . . .
29.9(30) . . .
34.7(31) . . .
27.2(29) . . .
39(4) . . .
36.4(31) . . .
34.2(31) . . .
38.6(33) . . .
44(4) . . .
37.7(33) . . .
31.4(29) . . .
25.0(27) . . .
32.6(33) . . .
29.1(29) . . .
35.7(32) . . .
38.4(32) . . .
36.1(31) . . .
37.9(35) . . .
30.1(29) . . .
37.4(33) . . .
34.9(31) . . .
33.2(29) . . .
34.5(33) . . .
33.3(31) . . .
34.2(33) . . .
34.4(32) . . .
36.3(33) . . .
33.8(32) . . .
27.0(28) . . .
34.2(32) . . .
28.0(28) . . .
34.5(32) . . .
34.8(31) . . .
33.8(30) . . .
36.9(32) . . .
22.1(25) . . .
29.8(31) . . .
27.3(28) . . .
29.0(29) . . .
43(4) . . .
34.0(30) . . .
33.4(32) . . .
33.9(34) . . .
27.9(30) . . .
29.4(29) . . .
32.1(29) . . .
36.3(32) . . .
27.3(30) . . .
28.2(28) . . .
38.6(32) . . .
29.0(28) . . .
36.4(32) . . .
33.5(31) . . .
36.2(33) . . .
41.6(33) . . .
36.8(32) . . .
39(4) . . .
33.6(33) . . .
42(4) . . .
35.9(31) . . .
31.2(29) . . .
28.3(28) . . .
38(4) . . .
31.5(31) . . .
33.3(30) . . .
26.0(27) . . .
31.6(32) . . .
33.0(34) . . .
28.8(29) . . .
38.7(33) . . .
45(4) . . .
32.0(29) . . .
30.9(30) . . .
24.2(27) . . .
31.8(29) . . .
29.0(30) . . .
30.2(30) . . .
32.8(31) . . .
36.6(32) . . .
27.4(27) . . .
38.7(33) . . .
30.4(30) . . .
32.3(29) . . .
35.5(31) . . .
28.8(29) . . .
35.2(32) . . .
32.4(32) . . .
26.1(28) . . .
29.2(29) . . .
37.0(32) . . .
28.4(31) . . .
24.5(26) . . .
28.4(29) . . .
28.3(28) . . .
31.0(29) . . .
36.2(33) . . .
32.9(33) . . .
35.5(34) . . .
28.6(28) . . .
27.5(28) . . .
33.5(31) . . .
31.6(32) . . .
34.9(32) . . .
38.5(32) . . .
30.4(28) . . .
36.5(34) . . .
39(4) . . .
30.4(32) . . .
32.3(30) . . .
29.6(28) . . .
33.2(30) . . .
30.0(30) . . .
28.7(29) . . .
27.8(28) . . .
27.6(28) . . .
29.8(30) . . .
29.8(30) . . .
36.6(33) . . .
37.0(32) . . .
28.9(28) . . .
28.6(28) . . .
38.6(34) . . .
32.8(30) . . .
33.8(31) . . .
39.0(32) . . .
35.5(30) . . .
37.2(33) . . .
33.0(31) . . .
27.6(28) . . .
30.6(29) . . .
33.4(32) . . .
38.5(34) . . .
32.9(30) . . .
30.8(29) . . .
35.4(33) . . .
28.6(29) . . .
27.6(29) . . .
34.8(34) . . .
35.0(31) . . .
33.2(30) . . .
25.3(27) . . .
22.9(24) . . .
37.4(32) . . .
27.6(27) . . .
27.2(29) . . .
24.5(28) . . .
31.0(33) . . .
36.1(33) . . .
28.3(28) . . .
37.3(33) . . .
27.3(29) . . .
28.4(27) . . .
44(4) . . .
21.1(24) . . .
33.3(33) . . .
26.7(28) . . .
32.3(30) . . .
29.0(28) . . .
25.0(26) . . .
31.2(29) . . .
31.5(31) . . .
33.5(31) . . .
36.8(32) . . .
31.2(29) . . .
37.1(35) . . .
31.4(31) . . .
37.6(35) . . .
33.2(30) . . .
34.3(31) . . .
37.7(35) . . .
33.3(33) . . .
35.8(32) . . .
30.5(29) . . .
28.1(28) . . .
28.8(30) . . .
30.6(31) . . .
34.2(31) . . .
35.3(31) . . .
33.9(31) . . .
35.8(32) . . .
36.8(32) . . .
33.4(29) . . .
35.6(32) . . .
32.9(31) . . .
36.2(31) . . .
34.0(30) . . .
26.5(28) . . .
28.6(28) . . .
26.7(28) . . .
37.9(35) . . .
28.3(30) . . .
24.0(28) . . .
25.2(26) . . .
34.5(31) . . .
38.8(34) . . .
35.7(31) . . .
37.8(32) . . .
28.0(28) . . .
44(4) . . .
29.7(29) . . .
30.6(32) . . .
29.7(29) . . .
38.0(33) . . .
27.4(27) . . .
34.4(34) . . .
26.3(27) . . .
32.3(30) . . .
32.4(30) . . .
38.1(34) . . .
23.5(25) . . .
26.9(27) . . .
27.0(27) . . .
26.4(27) . . .
24.7(28) . . .
25.1(27) . . .
31.4(29) . . .
27.6(27) . . .
34.1(31) . . .
39(4) . . .
30.0(29) . . .
33.8(32) . . .
27.6(28) . . .
32.5(31) . . .
36.9(34) . . .
35.9(32) . . .
31.7(29) . . .
36.0(32) . . .
34.4(32) . . .
32.8(33) . . .
28.8(30) . . .
27.6(28) . . .
26.1(27) . . .
31.3(31) . . .
35.1(34) . . .
25.4(27) . . .
27.4(27) . . .
32.8(31) . . .
38.9(34) . . .
28.5(29) . . .
34.0(32) . . .
39.5(34) . . .
37.3(33) . . .
35.8(31) . . .
32.0(31) . . .
31.7(30) . . .
37.1(32) . . .
33.3(31) . . .
30.2(29) . . .
25.9(30) . . .
31.4(30) . . .
36.6(32) . . .
32.5(30) . . .
32.4(30) . . .
35.2(33) . . .
27.5(28) . . .
34.7(30) . . .
36.5(33) . . .
32.8(32) . . .
28.6(29) . . .
36.8(34) . . .
38.0(32) . . .
36.9(32) . . .
32.8(31) . . .
33.4(31) . . .
30.0(30) . . .
28.0(27) . . .
35.5(31) . . .
35.2(31) . . .
36.2(33) . . .
31.3(30) . . .
31.3(29) . . .
28.8(29) . . .
26.5(27) . . .
35.8(34) . . .
32.4(29) . . .
32.1(30) . . .
31.5(31) . . .
34.3(34) . . .
23.6(28) . . .
34.2(32) . . .
29.1(28) . . .
36.2(31) . . .
32.4(30) . . .
25.8(27) . . .
26.3(27) . . .
36.5(32) . . .
30.4(31) . . .
27.4(30) . . .
30.1(29) . . .
35.3(32) . . .
33.2(30) . . .
33.1(31) . . .
33.4(31) . . .
32.3(31) . . .
31.0(30) . . .
31.0(29) . . .
33.3(31) . . .
33.3(33) . . .
23.5(26) . . .
24.8(26) . . .
31.8(30) . . .
37.9(33) . . .
28.0(29) . . .
28.1(30) . . .
30.8(29) . . .
30.3(29) . . .
29.6(30) . . .
35.0(34) . . .
32.0(30) . . .
31.1(29) . . .
28.5(28) . . .
34.4(32) . . .
30.0(31) . . .
29.1(29) . . .
36.9(31) . . .
35.6(32) . . .
37.5(33) . . .
29.0(31) . . .
31.4(31) . . .
29.1(28) . . .
28.6(28) . . .
30.2(31) . . .
27.4(29) . . .
33.0(33) . . .
39.2(33) . . .
26.6(27) . . .
34.5(34) . . .
29.3(29) . . .
31.7(30) . . .
38.4(32) . . .
25.5(27) . . .
32.8(30) . . .
28.5(30) . . .
27.3(29) . . .
33.4(30) . . .
37.6(34) . . .
25.8(26) . . .
39(4) . . .
28.1(28) . . .
27.9(27) . . .
28.8(29) . . .
24.8(28) . . .
33.0(32) . . .
27.0(27) . . .
35.6(31) . . .
40.5(34) . . .
31.8(32) . . .
23.8(27) . . .
32.6(29) . . .
28.2(28) . . .
35.9(32) . . .
35.8(32) . . .
32.5(29) . . .
41.1(34) . . .
38.8(33) . . .
25.2(26) . . .
34.6(34) . . .
36.0(32) . . .
25.4(27) . . .
25.7(27) . . .
25.3(30) . . .
28.3(30) . . .
33.4(31) . . .
29.1(28) . . .
30.5(28) . . .
38.4(34) . . .
27.3(28) . . .
31.9(30) . . .
33.1(30) . . .
29.9(30) . . .
34.3(30) . . .
32.1(30) . . .
39(4) . . .
42.9(34) . . .
40.0(33) . . .
31.3(30) . . .
27.9(28) . . .
24.9(27) . . .
34.6(31) . . .
33.5(32) . . .
37.5(34) . . .
32.0(32) . . .
35.7(32) . . .
33.5(30) . . .
27.7(28) . . .
36.8(34) . . .
40.9(34) . . .
31.3(30) . . .
31.1(29) . . .
28.4(28) . . .
34.1(31) . . .
27.6(27) . . .
35.6(32) . . .
31.0(29) . . .
28.1(27) . . .
27.0(29) . . .
25.3(27) . . .
37.5(32) . . .
34.0(31) . . .
30.1(29) . . .
29.6(31) . . .
27.7(30) . . .
27.6(28) . . .
38.0(32) . . .
27.2(28) . . .
29.6(31) . . .
39.3(34) . . .
34.7(31) . . .
27.1(27) . . .
35.0(33) . . .
31.9(30) . . .
42(4) . . .
33.8(30) . . .
30.8(29) . . .
32.6(31) . . .
34.5(32) . . .
32.3(32) . . .
36.5(31) . . .
26.0(26) . . .
32.8(31) . . .
33.6(31) . . .
32.6(32) . . .
29.7(29) . . .
36.8(33) . . .
32.1(29) . . .
25.5(27) . . .
35.7(33) . . .
35.5(32) . . .
31.5(30) . . .
32.7(32) . . .
31.7(31) . . .
28.8(28) . . .
39.3(33) . . .
27.6(28) . . .
25.6(26) . . .
25.5(28) . . .
32.3(34) . . .
31.3(29) . . .
32.7(33) . . .
31.5(33) . . .
27.9(30) . . .
25.0(27) . . .
27.0(27) . . .
36.4(33) . . .
28.0(28) . . .
34.3(32) . . .
33.6(31) . . .
34.4(30) . . .
35.0(33) . . .
33.7(31) . . .
28.0(26) . . .
33.4(30) . . .
36.4(31) . . .
26.8(27) . . .
35(4) . . .
26.6(28) . . .
24.3(26) . . .
24.6(26) . . .
35.0(33) . . .
32.3(31) . . .
28.4(29) . . .
28.0(28) . . .
29.3(28) . . .
33.8(34) . . .
29.8(32) . . .
24.4(27) . . .
28.7(29) . . .
32.3(30) . . .
30.7(28) . . .
36.3(32) . . .
33.8(30) . . .
31.9(29) . . .
24.0(26) . . .
31.1(31) . . .
29.7(30) . . .
29.2(29) . . .
25.8(26) . . .
32.3(30) . . .
37.7(33) . . .
38.9(35) . . .
38.3(35) . . .
25.9(27) . . .
26.6(27) . . .
35.9(34) . . .
40(4) . . .
31.8(31) . . .
29.7(29) . . .
28.7(30) . . .
22.4(26) . . .
26.8(27) . . .
34.2(30) . . .
29.1(28) . . .
32.8(32) . . .
39(4) . . .
27.7(28) . . .
33.2(30) . . .
34.5(31) . . .
32.3(31) . . .
25.5(29) . . .
32.5(32) . . .
31.6(30) . . .
29.5(29) . . .
34.8(32) . . .
34.4(32) . . .
40.0(33) . . .
35.4(32) . . .
23.6(26) . . .
40.3(35) . . .
30.5(29) . . .
32.2(30) . . .
31.5(29) . . .
32.3(29) . . .
26.1(27) . . .
30.7(31) . . .
26.8(28) . . .
32.9(30) . . .
29.4(28) . . .
28.5(30) . . .
31.8(30) . . .
27.7(30) . . .
31.9(30) . . .
24.8(25) . . .
27.0(28) . . .
35.1(31) . . .
41.7(34) . . .
32.0(30) . . .
33.7(30) . . .
36.9(34) . . .
31.9(30) . . .
33.5(33) . . .
41.0(34) . . .
40.2(34) . . .
30.4(30) . . .
31.2(33) . . .
23.4(26) . . .
36.4(31) . . .
34.5(32) . . .
25.1(25) . . .
26.1(26) . . .
33.8(30) . . .
32.3(30) . . .
32.1(30) . . .
36.3(32) . . .
26.5(28) . . .
35.7(32) . . .
33.7(30) . . .
31.4(28) . . .
37.2(33) . . .
32.3(31) . . .
28.4(28) . . .
31.1(30) . . .
25.4(28) . . .
25.8(29) . . .
37.5(34) . . .
39.6(33) . . .
29.0(30) . . .
27.5(28) . . .
24.6(26) . . .
28.3(28) . . .
36.7(31) . . .
35.8(32) . . .
34.9(31) . . .
36.2(33) . . .
28.6(31) . . .
31.9(29) . . .
31.5(30) . . .
30.2(29) . . .
26.5(26) . . .
31.1(30) . . .
27.2(27) . . .
28.3(28) . . .
30.1(29) . . .
31.7(32) . . .
40.4(34) . . .
36.0(31) . . .
29.8(29) . . .
30.3(30) . . .
28.1(27) . . .
35.6(31) . . .
36.5(32) . . .
27.0(28) . . .
29.1(30) . . .
30.8(30) . . .
30.8(29) . . .
35.5(31) . . .
28.6(28) . . .
30.3(30) . . .
31.7(31) . . .
33.2(30) . . .
31.1(29) . . .
30.0(31) . . .
30.0(31) . . .
42(4) . . .
41.0(34) . . .
31.9(29) . . .
30.6(31) . . .
28.7(32) . . .
30.9(30) . . .
29.6(28) . . .
24.7(26) . . .
28.2(28) . . .
28.7(30) . . .
33.6(32) . . .
30.4(28) . . .
38.1(32) . . .
28.9(28) . . .
28.0(30) . . .
30.0(29) . . .
32.8(30) . . .
38.1(32) . . .
33.2(31) . . .
26.1(28) . . .
32.7(32) . . .
38.5(32) . . .
26.2(27) . . .
34.8(33) . . .
30.0(31) . . .
28.3(29) . . .
32.5(29) . . .
33.6(30) . . .
29.8(29) . . .
32.5(30) . . .
37.3(34) . . .
31.3(29) . . .
29.4(30) . . .
24.6(26) . . .
32.0(31) . . .
39(4) . . .
28.7(28) . . .
31.6(30) . . .
37.1(34) . . .
31.6(31) . . .
35.7(33) . . .
33.2(30) . . .
34.2(33) . . .
30.7(33) . . .
29.4(29) . . .
29.9(29) . . .
32.0(29) . . .
29.3(29) . . .
24.9(27) . . .
36.5(34) . . .
35.6(32) . . .
29.3(28) . . .
38(4) . . .
30.3(31) . . .
26.3(28) . . .
28.5(28) . . .
28.5(28) . . .
34.4(34) . . .
23.4(26) . . .
37.3(32) . . .
40.4(33) . . .
36.7(31) . . .
35.8(32) . . .
31.5(30) . . .
35.1(32) . . .
24.5(27) . . .
25.6(28) . . .
26.3(28) . . .
31.6(33) . . .
28.8(28) . . .
33.3(30) . . .
27.8(29) . . .
32.0(31) . . .
35.5(32) . . .
33.8(30) . . .
29.9(28) . . .
33.3(31) . . .
33.4(31) . . .
28.2(28) . . .
32.3(31) . . .
31.2(30) . . .
35.7(33) . . .
34.4(32) . . .
30.4(28) . . .
28.2(28) . . .
21.9(24) . . .
28.8(29) . . .
27.7(30) . . .
31.2(31) . . .
34.1(31) . . .
30.7(29) . . .
37.4(33) . . .
41(4) . . .
49(4) . . .
35.1(31) . . .
31.3(29) . . .
23.4(26) . . .
28.9(30) . . .
23.6(25) . . .
23.8(26) . . .
32.5(30) . . .
29.8(31) . . .
28.0(30) . . .
25.4(26) . . .
32.7(30) . . .
30.0(29) . . .
26.2(28) . . .
33.0(34) . . .
28.4(28) . . .
29.3(29) . . .
32.0(29) . . .
27.8(28) . . .
27.7(29) . . .
26.5(27) . . .
32.8(30) . . .
30.2(28) . . .
29.9(29) . . .
29.0(30) . . .
33.1(31) . . .
29.2(28) . . .
26.9(27) . . .
24.7(27) . . .
23.0(26) . . .
27.2(28) . . .
33.3(30) . . .
30.3(29) . . .
28.6(27) . . .
36.0(33) . . .
34.5(32) . . .
33.6(30) . . .
33.0(30) . . .
25.6(27) . . .
26.5(28) . . .
32.4(33) . . .
27.3(27) . . .
34.6(31) . . .
29.6(32) . . .
29.3(30) . . .
26.5(27) . . .
32.4(30) . . .
30.9(31) . . .
25.9(30) . . .
22.8(27) . . .
28.4(28) . . .
32.3(30) . . .
21.6(24) . . .
32.0(31) . . .
29.8(29) . . .
28.6(29) . . .
33.4(30) . . .
35.1(31) . . .
29.6(29) . . .
35.2(33) . . .
32.8(30) . . .
39.2(33) . . .
28.0(28) . . .
27.0(30) . . .
22.1(24) . . .
32.2(31) . . .
36.5(32) . . .
38(4) . . .
29.0(30) . . .
27.5(27) . . .
33.8(30) . . .
29.1(28) . . .
36.6(32) . . .
40(4) . . .
27.8(28) . . .
25.1(26) . . .
25.6(28) . . .
30.3(31) . . .
29.9(31) . . .
36.1(33) . . .
25.8(26) . . .
29.2(28) . . .
37.4(32) . . .
29.1(31) . . .
29.4(30) . . .
27.1(27) . . .
32.8(30) . . .
34.5(32) . . .
33.1(33) . . .
28.4(27) . . .
31.7(30) . . .
32.8(31) . . .
32.6(33) . . .
40(4) . . .
27.1(29) . . .
33.9(30) . . .
33.6(31) . . .
37.7(34) . . .
37.1(34) . . .
31.0(29) . . .
26.8(27) . . .
23.3(26) . . .
26.0(28) . . .
36.9(35) . . .
29.9(28) . . .
28.8(29) . . .
31.4(29) . . .
35.9(33) . . .
30.6(31) . . .
25.1(27) . . .
31.9(29) . . .
40.2(34) . . .
26.7(27) . . .
36.9(35) . . .
38.0(34) . . .
37.5(32) . . .
30.5(28) . . .
32.7(31) . . .
26.3(27) . . .
34.2(31) . . .
26.8(27) . . .
35.0(31) . . .
30.6(30) . . .
34.3(31) . . .
40.6(33) . . .
33.7(31) . . .
32.0(32) . . .
31.0(32) . . .
37.1(33) . . .
36.9(34) . . .
32.3(30) . . .
30.6(29) . . .
29.0(30) . . .
33.1(31) . . .
33.4(30) . . .
34.3(30) . . .
31.7(30) . . .
30.5(31) . . .
30.6(31) . . .
32.0(30) . . .
26.0(26) . . .
34.6(34) . . .
28.5(30) . . .
21.9(25) . . .
29.0(28) . . .
24.6(27) . . .
30.4(29) . . .
37.3(32) . . .
30.8(29) . . .
32.4(30) . . .
35.7(32) . . .
36.4(34) . . .
30.0(30) . . .
24.8(26) . . .
25.8(27) . . .
27.5(27) . . .
33.5(33) . . .
34.1(33) . . .
27.5(28) . . .
35.6(31) . . .
28.9(28) . . .
28.7(30) . . .
32.0(30) . . .
30.8(30) . . .
39.2(32) . . .
31.5(30) . . .
36.0(34) . . .
34.8(32) . . .
28.1(27) . . .
35.3(31) . . .
33.5(32) . . .
28.5(29) . . .
38.8(33) . . .
32.8(30) . . .
29.1(29) . . .
34.3(31) . . .
24.8(27) . . .
26.2(27) . . .
32.6(30) . . .
28.4(28) . . .
32.0(31) . . .
31.8(31) . . .
23.4(27) . . .
27.6(28) . . .
23.5(27) . . .
32.4(32) . . .
30.9(29) . . .
34.7(33) . . .
32.7(30) . . .
30.2(30) . . .
32.5(31) . . .
42(4) . . .
31.5(31) . . .
27.9(28) . . .
24.9(27) . . .
28.5(31) . . .
28.9(31) . . .
24.9(27) . . .
29.6(28) . . .
33.0(33) . . .
32.7(31) . . .
26.7(28) . . .
25.6(27) . . .
31.1(29) . . .
29.0(28) . . .
32.2(30) . . .
33.5(30) . . .
30.9(30) . . .
25.0(26) . . .
31.9(30) . . .
31.0(29) . . .
37.4(35) . . .
30.1(28) . . .
35.2(31) . . .
37.3(33) . . .
30.1(28) . . .
29.6(28) . . .
30.5(31) . . .
32.4(30) . . .
32.4(31) . . .
31.3(33) . . .
38.0(33) . . .
31.6(30) . . .
34.3(32) . . .
31.4(29) . . .
28.9(30) . . .
29.7(30) . . .
34.3(30) . . .
25.3(27) . . .
39(4) . . .
35.9(34) . . .
36.6(32) . . .
34.4(31) . . .
28.5(28) . . .
31.1(31) . . .
26.6(27) . . .
32.2(32) . . .
42.0(34) . . .
33.4(30) . . .
33.8(31) . . .
29.0(29) . . .
35.1(32) . . .
27.9(28) . . .
26.6(27) . . .
28.1(28) . . .
36.5(33) . . .
32.6(29) . . .
34.6(31) . . .
35.6(33) . . .
29.3(30) . . .
28.2(29) . . .
28.7(29) . . .
32.5(30) . . .
42.8(35) . . .
32.3(31) . . .
22.1(25) . . .
33.0(31) . . .
30.0(29) . . .
39.8(35) . . .
33.8(31) . . .
32.4(33) . . .
36.4(33) . . .
33.8(30) . . .
39.7(35) . . .
35.0(32) . . .
30.4(30) . . .
37.8(32) . . .
34.0(30) . . .
28.1(29) . . .
17.3(23) . . .
23.9(28) . . .
27.6(27) . . .
22.5(25) . . .
28.9(29) . . .
25.3(28) . . .
32.8(31) . . .
33.9(30) . . .
36.9(32) . . .
34.2(32) . . .
27.5(27) . . .
29.6(30) . . .
31.2(30) . . .
28.9(29) . . .
37.9(35) . . .
32.6(32) . . .
36.0(34) . . .
31.7(29) . . .
24.7(26) . . .
34.0(32) . . .
32.5(33) . . .
32.7(31) . . .
34.0(30) . . .
39.6(33) . . .
39.1(33) . . .
30.8(30) . . .
36.4(33) . . .
29.2(28) . . .
34.7(32) . . .
30.3(30) . . .
28.5(28) . . .
24.7(26) . . .
36.6(32) . . .
31.2(30) . . .
24.1(26) . . .
33.3(32) . . .
34.2(31) . . .
23.9(25) . . .
24.1(25) . . .
34.3(32) . . .
33.8(34) . . .
30.5(29) . . .
29.9(28) . . .
28.8(29) . . .
32.4(33) . . .
32.6(30) . . .
29.9(29) . . .
29.0(29) . . .
26.3(27) . . .
33.7(32) . . .
40.9(33) . . .
46(4) . . .
29.5(28) . . .
41.4(35) . . .
30.6(27) . . .
37.8(33) . . .
25.5(26) . . .
27.7(27) . . .
28.6(29) . . .
34.2(32) . . .
32.1(30) . . .
26.6(27) . . .
27.8(27) . . .
30.7(30) . . .
36.9(34) . . .
31.8(31) . . .
33.9(31) . . .
31.0(29) . . .
36.0(34) . . .
28.8(29) . . .
37.1(33) . . .
32.5(30) . . .
35.2(32) . . .
30.3(29) . . .
26.1(28) . . .
29.1(30) . . .
25.8(27) . . .
27.6(28) . . .
28.3(30) . . .
28.6(29) . . .
31.0(30) . . .
29.1(28) . . .
31.1(32) . . .
38(4) . . .
38(4) . . .
26.9(27) . . .
30.1(29) . . .
31.7(30) . . .
34.3(33) . . .
31.0(30) . . .
32.1(30) . . .
26.1(27) . . .
32.3(32) . . .
31.9(33) . . .
35.3(33) . . .
35.3(31) . . .
36.3(31) . . .
25.1(25) . . .
34.3(32) . . .
29.7(28) . . .
35.6(31) . . .
28.1(28) . . .
21.9(24) . . .
31.8(34) . . .
33.3(31) . . .
39.8(33) . . .
28.6(27) . . .
29.7(30) . . .
30.3(29) . . .
36.2(31) . . .
34.3(30) . . .
33.2(30) . . .
35.8(32) . . .
38.5(35) . . .
29.0(28) . . .
27.0(27) . . .
31.9(30) . . .
29.4(29) . . .
30.1(32) . . .
38.1(34) . . .
35.2(31) . . .
39.5(34) . . .
34.3(32) . . .
37(4) . . .
33.0(31) . . .
33.0(30) . . .
37.4(33) . . .
30.0(32) . . .
33.0(31) . . .
37.7(32) . . .
28.0(28) . . .
25.5(28) . . .
25.4(27) . . .
29.2(30) . . .
33.4(33) . . .
33.1(31) . . .
35.6(34) . . .
31.9(32) . . .
25.7(27) . . .
25.1(27) . . .
33.9(30) . . .
29.9(29) . . .
26.5(30) . . .
33.1(33) . . .
26.8(28) . . .
30.6(29) . . .
29.7(29) . . .
33.7(32) . . .
31.8(30) . . .
28.2(28) . . .
31.9(29) . . .
33.7(31) . . .
29.2(30) . . .
37.1(32) . . .
31.6(29) . . .
28.6(28) . . .
38.0(33) . . .
34.0(31) . . .
33.2(31) . . .
29.6(29) . . .
28.2(28) . . .
30.6(30) . . .
26.8(27) . . .
31.0(31) . . .
31.6(29) . . .
26.5(28) . . .
27.7(29) . . .
27.7(31) . . .
28.0(28) . . .
32.8(30) . . .
30.4(30) . . .
31.1(32) . . .
22.6(27) . . .
29.9(30) . . .
34.6(31) . . .
39.5(33) . . .
32.2(31) . . .
30.3(29) . . .
29.7(30) . . .
26.8(27) . . .
27.6(27) . . .
37.8(34) . . .
30.0(29) . . .
27.8(28) . . .
30.3(29) . . .
31.0(30) . . .
25.7(29) . . .
32.0(31) . . .
33.9(31) . . .
31.4(29) . . .
36.1(32) . . .
34.1(31) . . .
38.5(33) . . .
29.8(29) . . .
34.0(30) . . .
33.1(30) . . .
29.8(28) . . .
24.3(27) . . .
24.5(26) . . .
30.8(29) . . .
31.9(30) . . .
33.2(33) . . .
27.0(27) . . .
34.6(31) . . .
36.3(31) . . .
29.4(31) . . .
35(4) . . .
29.3(29) . . .
32.9(30) . . .
36.7(31) . . .
24.1(26) . . .
31.5(31) . . .
29.0(28) . . .
35.1(31) . . .
32.6(30) . . .
30.3(29) . . .
27.4(29) . . .
30.1(30) . . .
28.1(28) . . .
27.0(27) . . .
26.5(27) . . .
29.5(30) . . .
37.1(32) . . .
28.0(28) . . .
31.7(30) . . .
30.3(32) . . .
30.9(31) . . .
26.0(27) . . .
27.7(27) . . .
35.9(33) . . .
29.1(29) . . .
31.4(31) . . .
27.8(28) . . .
27.9(28) . . .
32.5(31) . . .
32.7(31) . . .
34.4(31) . . .
31.0(30) . . .
27.4(27) . . .
33.6(31) . . .
35.7(31) . . .
32.8(30) . . .
28.7(27) . . .
32.4(31) . . .
28.4(28) . . .
25.7(27) . . .
35.8(34) . . .
24.8(26) . . .
39.0(32) . . .
24.9(27) . . .
26.0(28) . . .
31.1(31) . . .
28.8(29) . . .
37.9(32) . . .
39.1(34) . . .
40.9(35) . . .
24.6(26) . . .
32.8(30) . . .
24.5(26) . . .
26.7(28) . . .
26.9(32) . . .
27.0(29) . . .
29.5(28) . . .
28.4(27) . . .
31.6(31) . . .
32.2(32) . . .
37.7(33) . . .
21.9(25) . . .
33.1(31) . . .
30.2(28) . . .
31.2(31) . . .
27.8(29) . . .
23.3(25) . . .
28.8(30) . . .
30.2(30) . . .
28.5(28) . . .
32.4(30) . . .
23.9(26) . . .
27.9(30) . . .
31.6(31) . . .
25.5(26) . . .
28.2(29) . . .
32.1(30) . . .
34.3(31) . . .
20.4(26) . . .
22.9(26) . . .
24.1(27) . . .
28.9(28) . . .
25.3(27) . . .
29.9(31) . . .
28.6(29) . . .
30.0(29) . . .
28.9(28) . . .
32.9(31) . . .
37.6(34) . . .
35.8(32) . . .
33.5(31) . . .
25.2(26) . . .
34.2(31) . . .
36.0(33) . . .
37.0(32) . . .
35.1(32) . . .
34.0(30) . . .
19.0(23) . . .
27.1(30) . . .
21.0(25) . . .
28.2(27) . . .
38.6(33) . . .
26.7(28) . . .
29.0(31) . . .
27.8(28) . . .
26.8(27) . . .
29.3(28) . . .
31.9(30) . . .
33.8(32) . . .
27.9(27) . . .
33.8(30) . . .
31.3(29) . . .
33.7(32) . . .
29.4(30) . . .
30.6(30) . . .
27.4(27) . . .
28.8(29) . . .
36.8(33) . . .
41(4) . . .
32.1(31) . . .
28.7(28) . . .
27.7(27) . . .
26.6(28) . . .
26.4(27) . . .
30.5(30) . . .
22.3(25) . . .
33.2(32) . . .
33.8(31) . . .
28.3(28) . . .
32.7(31) . . .
29.3(28) . . .
33.6(30) . . .
37.0(34) . . .
36.1(30) . . .
42.5(35) . . .
36.8(32) . . .
27.0(27) . . .
30.3(30) . . .
30.9(31) . . .
26.4(27) . . .
27.6(28) . . .
34.2(32) . . .
33.4(33) . . .
27.6(28) . . .
31.7(30) . . .
35.2(31) . . .
23.4(25) . . .
31.0(33) . . .
24.1(26) . . .
28.4(28) . . .
24.6(25) . . .
34.1(31) . . .
27.5(29) . . .
26.8(27) . . .
30.6(28) . . .
30.3(29) . . .
23.9(27) . . .
34.5(33) . . .
34.0(32) . . .
29.6(29) . . .
25.6(26) . . .
27.5(29) . . .
28.8(30) . . .
29.5(29) . . .
37.1(31) . . .
32.5(30) . . .
23.9(26) . . .
22.5(26) . . .
27.5(29) . . .
30.6(29) . . .
29.6(32) . . .
32.9(32) . . .
32.3(32) . . .
33.7(30) . . .
29.2(29) . . .
35.7(33) . . .
28.8(29) . . .
25.4(27) . . .
29.9(29) . . .
32.3(30) . . .
34.7(33) . . .
35.6(32) . . .
28.5(28) . . .
29.3(29) . . .
25.1(26) . . .
29.0(30) . . .
37.2(33) . . .
34.3(31) . . .
30.0(29) . . .
26.8(27) . . .
31.9(30) . . .
30.0(29) . . .
29.7(29) . . .
33.6(30) . . .
32.4(29) . . .
33.4(31) . . .
32.6(33) . . .
26.8(27) . . .
29.3(28) . . .
33.7(30) . . .
37.0(34) . . .
26.4(30) . . .
28.4(27) . . .
27.7(27) . . .
35.2(32) . . .
33.6(32) . . .
31.1(29) . . .
35.0(31) . . .
30.7(29) . . .
27.9(27) . . .
30.5(30) . . .
19.1(24) . . .
27.2(28) . . .
35.3(31) . . .
37.7(32) . . .
28.6(28) . . .
20.4(24) . . .
22.3(25) . . .
24.0(25) . . .
26.0(27) . . .
35.3(32) . . .
28.5(29) . . .
29.0(29) . . .
36.3(31) . . .
27.1(27) . . .
30.3(30) . . .
36(4) . . .
28.2(28) . . .
33.6(30) . . .
34.0(33) . . .
32.9(31) . . .
34.1(30) . . .
27.0(27) . . .
25.0(26) . . .
33.7(31) . . .
31.5(29) . . .
31.7(29) . . .
29.1(28) . . .
33.3(30) . . .
29.3(29) . . .
28.1(30) . . .
30.0(31) . . .
23.0(26) . . .
34.1(31) . . .
29.4(31) . . .
29.3(32) . . .
29.2(29) . . .
31.9(29) . . .
32.0(30) . . .
26.3(28) . . .
28.5(31) . . .
33.1(31) . . .
29.7(28) . . .
34.4(31) . . .
28.7(29) . . .
32.3(32) . . .
27.9(28) . . .
26.1(27) . . .
26.4(29) . . .
27.7(29) . . .
24.4(27) . . .
23.7(27) . . .
22.5(25) . . .
32.7(30) . . .
36.8(34) . . .
30.5(30) . . .
35.3(33) . . .
32.5(30) . . .
29.6(29) . . .
24.7(28) . . .
25.0(28) . . .
31.2(31) . . .
26.2(27) . . .
32.3(30) . . .
28.3(28) . . .
32.3(32) . . .
24.3(26) . . .
23.2(25) . . .
29.3(30) . . .
35.0(34) . . .
30.0(28) . . .
33.0(30) . . .
29.5(28) . . .
36.4(32) . . .
35.8(32) . . .
24.7(25) . . .
26.5(27) . . .
24.9(26) . . .
33.8(32) . . .
32.1(31) . . .
35.4(33) . . .
22.7(24) . . .
25.7(26) . . .
34.5(32) . . .
39.0(35) . . .
30.2(29) . . .
40.9(33) . . .
31.4(29) . . .
27.7(29) . . .
32.3(32) . . .
27.3(29) . . .
34.7(32) . . .
26.9(27) . . .
34.4(32) . . .
31.6(35) . . .
28.4(28) . . .
33.9(30) . . .
29.1(28) . . .
37.5(34) . . .
28.9(31) . . .
27.9(27) . . .
32.1(30) . . .
29.8(29) . . .
37.5(32) . . .
28.7(31) . . .
25.0(26) . . .
30.2(29) . . .
27.5(27) . . .
24.5(26) . . .
25.1(28) . . .
26.0(28) . . .
32.5(30) . . .
30.5(30) . . .
30.2(29) . . .
38.9(35) . . .
35.5(31) . . .
33.3(30) . . .
26.4(28) . . .
22.2(25) . . .
29.3(30) . . .
23.1(26) . . .
22.7(25) . . .
26.2(28) . . .
24.4(25) . . .
33.1(31) . . .
29.8(29) . . .
39.2(33) . . .
37.1(35) . . .
32.0(31) . . .
32.7(31) . . .
30.8(29) . . .
29.1(28) . . .
30.4(29) . . .
30.1(32) . . .
26.2(27) . . .
28.0(28) . . .
22.0(25) . . .
24.5(26) . . .
27.7(29) . . .
31.4(31) . . .
36.4(31) . . .
38.1(32) . . .
32.0(31) . . .
28.8(29) . . .
25.7(27) . . .
26.6(27) . . .
25.4(27) . . .
28.2(29) . . .
23.2(26) . . .
27.4(27) . . .
35.5(31) . . .
32.5(29) . . .
25.5(26) . . .
42(4) . . .
32.8(30) . . .
35.4(31) . . .
34.7(32) . . .
29.2(31) . . .
31.1(32) . . .
33.0(32) . . .
34.5(30) . . .
34.2(31) . . .
32.5(30) . . .
30.4(31) . . .
35.2(34) . . .
29.7(29) . . .
32.7(30) . . .
30.5(31) . . .
35.7(34) . . .
29.1(28) . . .
34.9(31) . . .
29.5(29) . . .
29.7(30) . . .
27.3(28) . . .
37.1(33) . . .
27.6(28) . . .
26.4(29) . . .
32.0(31) . . .
31.7(29) . . .
36.4(32) . . .
28.4(27) . . .
39.4(34) . . .
40.3(33) . . .
33.5(31) . . .
32.7(30) . . .
30.0(28) . . .
34.2(31) . . .
31.5(33) . . .
27.3(28) . . .
32.3(31) . . .
32.0(29) . . .
28.3(28) . . .
30.5(31) . . .
36.5(33) . . .
29.0(28) . . .
27.4(27) . . .
31.1(31) . . .
36(4) . . .
32.3(33) . . .
33.6(31) . . .
28.1(27) . . .
31.7(30) . . .
32.6(32) . . .
38.4(33) . . .
34.8(31) . . .
22.7(25) . . .
30.9(31) . . .
22.5(24) . . .
35.9(32) . . .
32.8(30) . . .
35.0(33) . . .
26.1(28) . . .
26.3(29) . . .
27.7(30) . . .
30.6(29) . . .
33.4(30) . . .
37(4) . . .
28.6(28) . . .
27.7(28) . . .
30.9(29) . . .
33.9(32) . . .
28.7(30) . . .
30.2(30) . . .
27.9(28) . . .
24.5(26) . . .
32.9(30) . . .
34.9(31) . . .
24.7(26) . . .
29.7(28) . . .
26.4(27) . . .
29.0(30) . . .
29.9(29) . . .
29.3(28) . . .
26.3(27) . . .
26.0(27) . . .
23.0(26) . . .
29.5(30) . . .
31.6(30) . . .
25.7(27) . . .
26.3(27) . . .
26.3(28) . . .
27.3(30) . . .
30.6(31) . . .
31.0(29) . . .
35.3(31) . . .
31.8(30) . . .
39(4) . . .
35.0(34) . . .
31.8(29) . . .
31.6(29) . . .
31.3(29) . . .
26.0(28) . . .
28.8(29) . . .
33.4(31) . . .
28.1(28) . . .
35.4(32) . . .
34.9(33) . . .
32.6(31) . . .
27.0(27) . . .
31.5(29) . . .
24.9(27) . . .
30.2(31) . . .
32.4(30) . . .
35.1(31) . . .
34.8(31) . . .
29.8(30) . . .
30.2(30) . . .
36.8(32) . . .
28.8(28) . . .
25.6(27) . . .
27.6(27) . . .
30.3(29) . . .
31.6(30) . . .
28.6(28) . . .
29.2(29) . . .
30.8(31) . . .
34.3(33) . . .
31.0(30) . . .
27.9(28) . . .
35.1(33) . . .
32.5(33) . . .
25.7(28) . . .
25.0(26) . . .
27.2(27) . . .
28.5(29) . . .
29.8(31) . . .
31.1(30) . . .
27.1(27) . . .
27.9(27) . . .
23.6(25) . . .
21.9(25) . . .
21.6(25) . . .
29.9(28) . . .
24.8(26) . . .
29.3(31) . . .
24.1(26) . . .
32.6(30) . . .
31.7(31) . . .
38.7(33) . . .
33.6(31) . . .
22.8(25) . . .
26.0(27) . . .
30.6(29) . . .
29.8(30) . . .
30.0(31) . . .
32.8(31) . . .
30.0(28) . . .
30.2(29) . . .
26.3(27) . . .
26.9(28) . . .
28.1(29) . . .
30.9(30) . . .
30.6(29) . . .
25.9(31) . . .
29.3(29) . . .
34.5(32) . . .
31.5(29) . . .
31.9(30) . . .
33.8(31) . . .
32.7(32) . . .
27.0(27) . . .
34.5(32) . . .
37.5(32) . . .
31.9(31) . . .
32.7(31) . . .
38.8(32) . . .
36.2(33) . . .
28.4(28) . . .
26.3(28) . . .
23.7(25) . . .
29.8(31) . . .
27.5(29) . . .
35.8(31) . . .
33.9(31) . . .
32.0(31) . . .
28.8(30) . . .
33.8(31) . . .
20.0(24) . . .
25.8(27) . . .
31.5(32) . . .
26.0(30) . . .
39.5(35) . . .
33.0(30) . . .
32.9(31) . . .
36(4) . . .
27.7(28) . . .
27.7(27) . . .
31.8(31) . . .
27.6(28) . . .
29.0(30) . . .
25.3(27) . . .
29.5(29) . . .
27.3(27) . . .
27.7(27) . . .
30.2(30) . . .
34.0(30) . . .
24.5(26) . . .
20.6(25) . . .
36.0(34) . . .
24.8(26) . . .
29.0(29) . . .
33.2(30) . . .
34.8(32) . . .
30.0(30) . . .
34.2(32) . . .
29.8(29) . . .
34.5(31) . . .
37.0(32) . . .
37.2(35) . . .
29.4(30) . . .
26.9(27) . . .
26.6(27) . . .
33.2(31) . . .
29.3(29) . . .
28.9(28) . . .
29.5(28) . . .
23.5(25) . . .
37.4(33) . . .
27.5(27) . . .
32.3(32) . . .
29.9(29) . . .
24.4(26) . . .
27.5(28) . . .
34.8(34) . . .
26.7(28) . . .
29.1(30) . . .
28.0(29) . . .
27.9(29) . . .
27.0(28) . . .
29.0(30) . . .
25.3(26) . . .
27.0(27) . . .
35.4(31) . . .
32.6(32) . . .
29.7(31) . . .
32.1(30) . . .
35.5(32) . . .
33.4(31) . . .
28.1(29) . . .
26.7(28) . . .
26.9(27) . . .
31.8(29) . . .
29.2(29) . . .
30.0(30) . . .
26.2(29) . . .
24.7(27) . . .
29.1(28) . . .
32.0(30) . . .
33.9(32) . . .
29.0(28) . . .
26.2(27) . . .
31.7(32) . . .
33.0(32) . . .
32.2(30) . . .
33.2(32) . . .
32.1(29) . . .
24.4(26) . . .
29.5(31) . . .
27.3(29) . . .
23.6(25) . . .
32.0(30) . . .
28.4(29) . . .
32.2(35) . . .
27.8(28) . . .
29.3(28) . . .
26.8(27) . . .
25.8(27) . . .
31.8(31) . . .
34.6(32) . . .
32.7(30) . . .
31.9(31) . . .
33.9(31) . . .
29.0(29) . . .
35.8(34) . . .
34.9(31) . . .
27.0(27) . . .
31.9(32) . . .
35.7(32) . . .
30.7(29) . . .
30.3(28) . . .
32.3(29) . . .
32.6(31) . . .
33.6(32) . . .
29.8(29) . . .
30.0(29) . . .
33.2(31) . . .
35.6(33) . . .
23.7(28) . . .
27.9(28) . . .
33.5(31) . . .
29.3(28) . . .
31.2(30) . . .
38(4) . . .
35.8(32) . . .
29.4(28) . . .
30.1(29) . . .
34.2(34) . . .
28.9(29) . . .
25.3(27) . . .
29.0(29) . . .
27.9(28) . . .
37.1(35) . . .
30.2(28) . . .
34.8(31) . . .
28.3(28) . . .
34.0(31) . . .
27.8(28) . . .
23.7(26) . . .
28.7(29) . . .
28.6(28) . . .
32.5(30) . . .
36.1(33) . . .
29.4(29) . . .
28.7(29) . . .
30.7(29) . . .
26.3(28) . . .
33.7(34) . . .
32.1(33) . . .
31.1(29) . . .
32.8(30) . . .
28.5(32) . . .
32.0(32) . . .
37.0(34) . . .
25.3(27) . . .
30.2(29) . . .
30.5(29) . . .
34(4) . . .
18.4(23) . . .
21.7(25) . . .
28.8(28) . . .
36.6(32) . . .
25.3(28) . . .
34.3(33) . . .
32.6(30) . . .
34.6(31) . . .
34.1(31) . . .
40(4) . . .
24.6(29) . . .
26.4(27) . . .
24.8(26) . . .
29.6(28) . . .
34.2(32) . . .
31.0(29) . . .
29.3(28) . . .
26.6(27) . . .
27.5(27) . . .
31.9(31) . . .
29.4(29) . . .
27.7(28) . . .
22.3(25) . . .
31.2(33) . . .
30.5(33) . . .
30.3(29) . . .
33.7(30) . . .
32.5(30) . . .
25.8(28) . . .
23.9(27) . . .
28.1(28) . . .
33.5(30) . . .
34.5(31) . . .
34.7(34) . . .
31.3(30) . . .
33.6(31) . . .
27.6(28) . . .
31.8(29) . . .
27.9(28) . . .
29.0(30) . . .
39.1(33) . . .
28.4(28) . . .
34.0(32) . . .
21.0(24) . . .
21.0(24) . . .
27.6(28) . . .
31.8(29) . . .
32.2(30) . . .
33.5(31) . . .
28.1(28) . . .
29.6(29) . . .
24.6(25) . . .
28.4(29) . . .
34.8(33) . . .
34.1(30) . . .
29.2(28) . . .
26.2(26) . . .
26.3(27) . . .
28.8(30) . . .
33.1(33) . . .
27.2(28) . . .
30.9(29) . . .
31.8(30) . . .
28.1(30) . . .
35.3(32) . . .
32.4(30) . . .
29.7(29) . . .
26.4(27) . . .
36(4) . . .
27.2(27) . . .
28.0(27) . . .
28.4(29) . . .
35.4(31) . . .
40(4) . . .
21.6(24) . . .
26.4(27) . . .
39.3(34) . . .
30.3(30) . . .
32.0(31) . . .
31.8(30) . . .
28.6(29) . . .
35.3(32) . . .
36.7(33) . . .
25.1(26) . . .
32.3(31) . . .
30.9(29) . . .
31.0(29) . . .
30.3(30) . . .
21.9(26) . . .
23.3(27) . . .
32.1(30) . . .
30.4(29) . . .
30.6(31) . . .
25.9(26) . . .
27.9(27) . . .
25.7(27) . . .
38.3(35) . . .
33.8(32) . . .
27.7(30) . . .
32.4(30) . . .
30.4(29) . . .
31.7(31) . . .
30.0(31) . . .
30.3(30) . . .
26.5(27) . . .
26.7(28) . . .
27.2(27) . . .
22.9(28) . . .
26.3(27) . . .
31.0(30) . . .
27.8(27) . . .
28.6(30) . . .
35.5(34) . . .
35.8(33) . . .
28.8(28) . . .
30.0(29) . . .
33.8(32) . . .
23.7(27) . . .
25.2(26) . . .
33.5(31) . . .
34.2(31) . . .
28.1(29) . . .
38.3(35) . . .
25.1(27) . . .
24.3(26) . . .
31.6(29) . . .
33.3(30) . . .
29.3(31) . . .
27.7(31) . . .
25.5(26) . . .
28.6(29) . . .
32.8(32) . . .
25.9(27) . . .
30.6(31) . . .
40.1(33) . . .
38.3(34) . . .
28.3(30) . . .
34.0(32) . . .
35.8(32) . . .
30.0(29) . . .
31.4(29) . . .
34.1(33) . . .
28.6(27) . . .
33.6(30) . . .
35.7(31) . . .
28.5(27) . . .
36.5(32) . . .
29.2(28) . . .
31.0(29) . . .
39.0(32) . . .
23.5(26) . . .
28.9(30) . . .
28.3(28) . . .
31.1(29) . . .
36.4(32) . . .
33.5(32) . . .
30.5(30) . . .
27.6(28) . . .
28.1(28) . . .
25.6(26) . . .
31.9(30) . . .
29.0(29) . . .
35.5(34) . . .
26.8(27) . . .
30.9(29) . . .
27.6(29) . . .
23.1(27) . . .
26.4(27) . . .
26.3(27) . . .
30.0(30) . . .
29.5(29) . . .
29.8(29) . . .
26.8(28) . . .
30.2(28) . . .
35.3(32) . . .
29.0(28) . . .
31.5(30) . . .
33.3(34) . . .
28.7(27) . . .
28.1(28) . . .
30.1(31) . . .
29.0(31) . . .
32.1(32) . . .
33.1(30) . . .
29.5(32) . . .
31.6(32) . . .
33.3(32) . . .
36.0(31) . . .
30.6(29) . . .
34.3(31) . . .
34.3(33) . . .
27.0(27) . . .
28.8(28) . . .
38.1(32) . . .
33.5(30) . . .
25.7(27) . . .
21.1(25) . . .
26.0(26) . . .
32.0(30) . . .
32.8(31) . . .
36.4(34) . . .
36.0(32) . . .
27.2(28) . . .
33.1(30) . . .
26.3(28) . . .
34.3(33) . . .
34.7(32) . . .
27.7(28) . . .
29.4(28) . . .
32.5(31) . . .
25.9(28) . . .
31.4(29) . . .
33.5(30) . . .
31.1(29) . . .
22.0(24) . . .
23.5(26) . . .
27.8(28) . . .
38.2(33) . . .
27.8(30) . . .
36.0(32) . . .
32.4(30) . . .
29.3(31) . . .
25.6(26) . . .
32.0(32) . . .
21.3(24) . . .
29.1(29) . . .
30.9(30) . . .
31.0(30) . . .
24.8(26) . . .
22.5(24) . . .
35.5(32) . . .
30.4(29) . . .
34.2(30) . . .
34.7(33) . . .
40(4) . . .
32.9(29) . . .
41.9(35) . . .
26.6(27) . . .
33.4(31) . . .
34.3(31) . . .
25.6(26) . . .
26.0(27) . . .
40.4(33) . . .
35.7(33) . . .
31.3(30) . . .
39.7(34) . . .
31.6(29) . . .
37.7(33) . . .
36.5(34) . . .
33.0(31) . . .
35.3(31) . . .
34.2(31) . . .
31.5(30) . . .
33.7(31) . . .
27.1(29) . . .
27.7(29) . . .
29.3(29) . . .
32.2(29) . . .
26.2(27) . . .
26.1(28) . . .
28.5(30) . . .
28.6(27) . . .
26.3(28) . . .
32.3(30) . . .
40.7(34) . . .
34.2(31) . . .
24.9(25) . . .
29.7(29) . . .
34.0(31) . . .
31.9(30) . . .
35.8(32) . . .
35.0(31) . . .
28.5(29) . . .
23.1(26) . . .
22.0(26) . . .
30.0(30) . . .
28.1(28) . . .
31.7(29) . . .
29.2(29) . . .
32.4(34) . . .
25.1(27) . . .
26.2(27) . . .
31.4(30) . . .
25.1(25) . . .
31.8(31) . . .
32.1(30) . . .
37.2(32) . . .
21.0(25) . . .
38(4) . . .
29.2(28) . . .
29.9(29) . . .
40.8(33) . . .
23.4(26) . . .
29.5(32) . . .
27.4(28) . . .
33.1(30) . . .
35.2(31) . . .
22.0(25) . . .
34.9(33) . . .
34.7(31) . . .
26.5(27) . . .
40.4(33) . . .
31.8(31) . . .
32.3(33) . . .
39.2(34) . . .
32.1(29) . . .
27.8(27) . . .
27.3(28) . . .
33.5(35) . . .
25.3(29) . . .
30.0(29) . . .
28.4(29) . . .
28.0(29) . . .
31.2(34) . . .
25.4(28) . . .
32.4(30) . . .
28.1(28) . . .
21.9(26) . . .
33.3(33) . . .
23.9(27) . . .
22.5(25) . . .
30.1(28) . . .
35.6(33) . . .
29.9(30) . . .
30.7(31) . . .
33.1(30) . . .
33.7(31) . . .
31.3(32) . . .
34.2(31) . . .
29.6(29) . . .
33.9(31) . . .
34.5(30) . . .
29.0(28) . . .
33.6(30) . . .
34.4(31) . . .
29.8(28) . . .
32.3(31) . . .
31.8(32) . . .
30.6(29) . . .
29.7(29) . . .
22.6(25) . . .
27.3(28) . . .
24.7(28) . . .
27.0(30) . . .
35.3(32) . . .
31.6(31) . . .
17.4(22) . . .
24.1(28) . . .
35.4(33) . . .
28.1(28) . . .
30.4(29) . . .
33.7(32) . . .
34.0(33) . . .
31.2(29) . . .
33.7(30) . . .
29.9(29) . . .
34.3(33) . . .
32.0(31) . . .
33.5(30) . . .
27.8(28) . . .
37.8(31) . . .
32.0(30) . . .
26.3(27) . . .
29.3(28) . . .
32.1(30) . . .
35.2(31) . . .
29.6(28) . . .
30.1(31) . . .
35.5(32) . . .
30.3(30) . . .
27.7(27) . . .
29.5(28) . . .
27.7(29) . . .
24.8(26) . . .
36.8(31) . . .
24.5(27) . . .
22.8(25) . . .
29.3(30) . . .
27.6(28) . . .
39.4(33) . . .
31.4(30) . . .
29.5(29) . . .
37.5(34) . . .
30.0(28) . . .
29.3(29) . . .
36.6(32) . . .
28.4(29) . . .
34.2(32) . . .
34.8(31) . . .
27.2(28) . . .
27.0(28) . . .
30.3(30) . . .
28.8(29) . . .
27.7(28) . . .
29.1(28) . . .
32.6(32) . . .
30.4(31) . . .
27.8(28) . . .
31.2(29) . . .
29.0(28) . . .
39.0(34) . . .
28.4(30) . . .
22.3(24) . . .
25.7(26) . . .
30.6(29) . . .
26.6(28) . . .
34.3(33) . . .
30.8(30) . . .
39.9(35) . . .
34.0(30) . . .
27.6(28) . . .
26.1(28) . . .
23.9(26) . . .
34.9(31) . . .
38.4(32) . . .
22.6(24) . . .
29.4(31) . . .
34.0(32) . . .
39.0(33) . . .
36.2(32) . . .
23.0(25) . . .
26.8(29) . . .
23.8(26) . . .
33.4(30) . . .
27.7(27) . . .
30.9(30) . . .
32.1(33) . . .
36(4) . . .
34.7(31) . . .
30.4(29) . . .
36.1(33) . . .
31.7(31) . . .
31.6(30) . . .
29.8(28) . . .
33.5(32) . . .
24.6(25) . . .
25.0(26) . . .
29.3(28) . . .
27.6(28) . . .
34.6(31) . . .
27.5(29) . . .
35.2(33) . . .
36.9(32) . . .
27.5(27) . . .
34.7(33) . . .
29.9(30) . . .
30.8(31) . . .
28.9(29) . . .
35.8(32) . . .
33.4(32) . . .
32.7(32) . . .
23.2(25) . . .
34.3(30) . . .
29.4(28) . . .
30.0(33) . . .
24.4(28) . . .
29.5(30) . . .
29.7(28) . . .
28.7(28) . . .
23.3(24) . . .
38.9(34) . . .
39.7(34) . . .
28.2(28) . . .
43.8(34) . . .
31.4(30) . . .
38(4) . . .
31.0(29) . . .
36.3(32) . . .
35.4(30) . . .
24.3(26) . . .
22.2(26) . . .
24.0(26) . . .
34.6(31) . . .
31.1(29) . . .
27.9(27) . . .
35.6(35) . . .
28.8(28) . . .
30.1(29) . . .
23.1(25) . . .
26.0(26) . . .
36.5(33) . . .
36.5(32) . . .
31.1(29) . . .
33.8(30) . . .
34.7(32) . . .
39(4) . . .
33.8(31) . . .
33.9(31) . . .
28.9(28) . . .
33.0(30) . . .
32.4(30) . . .
35.8(33) . . .
26.7(27) . . .
34.0(32) . . .
30.4(29) . . .
34.5(32) . . .
31.5(29) . . .
28.3(28) . . .
29.5(31) . . .
26.5(27) . . .
27.2(26) . . .
36.3(31) . . .
28.6(29) . . .
25.3(27) . . .
28.8(29) . . .
27.6(28) . . .
26.7(27) . . .
26.0(27) . . .
34.4(32) . . .
29.0(30) . . .
28.7(29) . . .
28.4(28) . . .
26.6(27) . . .
27.1(29) . . .
26.3(29) . . .
25.5(27) . . .
30.1(29) . . .
36.9(32) . . .
29.3(28) . . .
31.3(29) . . .
33.7(32) . . .
34.0(30) . . .
24.7(27) . . .
33.6(31) . . .
26.5(28) . . .
25.1(27) . . .
31.5(29) . . .
30.2(29) . . .
25.1(26) . . .
24.1(25) . . .
30.2(29) . . .
31.1(29) . . .
30.6(29) . . .
32.6(31) . . .
29.2(28) . . .
33.5(32) . . .
21.9(25) . . .
35.0(32) . . .
30.8(29) . . .
32.0(32) . . .
26.8(28) . . .
28.7(29) . . .
23.7(28) . . .
32.0(34) . . .
34.4(32) . . .
29.3(28) . . .
35.9(32) . . .
30.8(29) . . .
27.9(28) . . .
25.5(27) . . .
31.1(29) . . .
28.0(28) . . .
34.9(31) . . .
26.6(29) . . .
29.1(29) . . .
33.4(30) . . .
31.5(29) . . .
30.2(29) . . .
29.3(31) . . .
28.1(29) . . .
32.5(30) . . .
25.4(27) . . .
43(4) . . .
18.5(23) . . .
27.9(30) . . .
28.2(29) . . .
31.6(29) . . .
28.9(29) . . .
39(4) . . .
32.3(30) . . .
33.4(30) . . .
20.4(24) . . .
27.9(28) . . .
29.1(30) . . .
32.2(30) . . .
34.0(31) . . .
26.0(27) . . .
27.6(30) . . .
33.1(32) . . .
22.0(25) . . .
33.8(32) . . .
27.5(28) . . .
24.7(27) . . .
30.0(30) . . .
29.6(30) . . .
35.6(31) . . .
42(4) . . .
34.6(33) . . .
29.2(30) . . .
31.4(29) . . .
33.5(31) . . .
26.7(28) . . .
35.7(32) . . .
31.7(30) . . .
28.7(28) . . .
29.2(29) . . .
27.8(28) . . .
25.9(28) . . .
27.2(29) . . .
26.3(28) . . .
32.0(29) . . .
37.1(33) . . .
30.8(30) . . .
20.2(24) . . .
24.9(28) . . .
34.0(30) . . .
30.2(29) . . .
37.7(35) . . .
32.3(31) . . .
30.3(29) . . .
27.3(27) . . .
30.0(30) . . .
34.4(32) . . .
38.7(35) . . .
23.4(26) . . .
26.1(27) . . .
29.3(31) . . .
39(4) . . .
34.1(33) . . .
29.0(29) . . .
24.1(27) . . .
28.5(29) . . .
32.0(32) . . .
31.7(30) . . .
30.0(28) . . .
31.4(30) . . .
30.5(32) . . .
23.7(28) . . .
30.7(31) . . .
30.5(29) . . .
31.0(29) . . .
27.9(28) . . .
29.4(30) . . .
26.5(28) . . .
29.9(29) . . .
39.6(33) . . .
30.4(35) . . .
28.7(31) . . .
31.5(30) . . .
32.5(29) . . .
34.0(31) . . .
27.7(29) . . .
29.4(30) . . .
31.6(30) . . .
34.9(32) . . .
30.8(30) . . .
23.6(25) . . .
26.9(27) . . .
28.4(27) . . .
24.6(25) . . .
24.4(27) . . .
26.8(28) . . .
34.5(33) . . .
33.0(30) . . .
33.3(30) . . .
28.6(27) . . .
34.5(33) . . .
27.8(27) . . .
30.0(28) . . .
30.5(28) . . .
32.3(31) . . .
25.7(28) . . .
35.2(32) . . .
41.0(33) . . .
31.5(30) . . .
31.8(30) . . .
33.1(31) . . .
35.0(32) . . .
30.0(29) . . .
28.8(29) . . .
28.5(29) . . .
28.7(30) . . .
22.4(25) . . .
31.5(30) . . .
31.0(30) . . .
29.1(30) . . .
28.5(29) . . .
26.0(26) . . .
32.0(29) . . .
36.7(32) . . .
33.4(32) . . .
27.5(28) . . .
32.6(32) . . .
36.0(31) . . .
35.0(31) . . .
26.9(27) . . .
31.0(31) . . .
32.0(30) . . .
27.3(28) . . .
31.5(30) . . .
31.0(29) . . .
27.7(29) . . .
24.5(26) . . .
32.4(30) . . .
31.2(31) . . .
25.7(27) . . .
34.0(31) . . .
34.6(31) . . .
39.7(33) . . .
34.5(32) . . .
30.7(31) . . .
32.7(31) . . .
31.9(29) . . .
35.8(31) . . .
39.4(33) . . .
36.4(34) . . .
33.0(30) . . .
40.3(33) . . .
30.2(30) . . .
21.1(24) . . .
20.6(24) . . .
34.3(33) . . .
29.3(28) . . .
20.4(24) . . .
36.1(32) . . .
26.7(28) . . .
28.5(31) . . .
25.4(28) . . .
41.7(34) . . .
25.5(27) . . .
29.1(28) . . .
34.5(32) . . .
36.0(31) . . .
21.9(26) . . .
23.8(26) . . .
38.3(35) . . .
24.5(25) . . .
40.3(33) . . .
30.2(28) . . .
25.0(25) . . .
28.3(28) . . .
35.0(32) . . .
28.7(28) . . .
35.2(34) . . .
27.5(29) . . .
30.8(31) . . .
32.6(30) . . .
31.9(30) . . .
35.0(34) . . .
28.8(29) . . .
28.0(27) . . .
26.1(26) . . .
33.7(32) . . .
28.3(30) . . .
27.2(28) . . .
28.9(28) . . .
30.8(29) . . .
37.3(32) . . .
32.2(30) . . .
29.6(29) . . .
37.3(34) . . .
23.4(26) . . .
28.2(27) . . .
26.6(27) . . .
30.4(31) . . .
27.8(28) . . .
25.9(27) . . .
30.1(28) . . .
34.2(32) . . .
22.0(26) . . .
21.9(24) . . .
35.7(33) . . .
33.3(31) . . .
37.2(33) . . .
35.4(34) . . .
26.8(28) . . .
27.8(28) . . .
33.0(30) . . .
25.5(27) . . .
32.5(31) . . .
27.7(28) . . .
22.3(25) . . .
26.5(27) . . .
29.2(29) . . .
28.9(28) . . .
28.2(28) . . .
31.6(29) . . .
24.5(26) . . .
27.7(30) . . .
28.5(32) . . .
27.3(30) . . .
30.7(29) . . .
27.8(30) . . .
26.5(29) . . .
30.1(31) . . .
35.4(32) . . .
38.0(32) . . .
29.0(28) . . .
28.8(30) . . .
29.1(30) . . .
33.4(33) . . .
30.6(29) . . .
24.5(26) . . .
27.2(28) . . .
31.7(30) . . .
32.5(31) . . .
23.9(26) . . .
32.9(30) . . .
36.7(33) . . .
30.3(29) . . .
35.9(32) . . .
34.3(30) . . .
34.5(31) . . .
35.0(33) . . .
32.5(30) . . .
28.1(27) . . .
31.6(29) . . .
25.3(26) . . .
20.9(25) . . .
33.8(33) . . .
36.6(32) . . .
28.1(28) . . .
29.5(29) . . .
28.6(29) . . .
32.3(30) . . .
22.3(25) . . .
21.7(24) . . .
28.2(28) . . .
28.6(29) . . .
31.3(30) . . .
30.7(29) . . .
28.6(28) . . .
29.6(29) . . .
31.6(31) . . .
22.4(25) . . .
25.6(26) . . .
26.2(27) . . .
27.3(28) . . .
31.4(32) . . .
24.3(26) . . .
27.4(28) . . .
32.2(31) . . .
24.4(26) . . .
28.8(29) . . .
26.0(28) . . .
33.1(30) . . .
25.6(26) . . .
24.7(26) . . .
28.8(28) . . .
35.9(32) . . .
24.2(26) . . .
31.3(30) . . .
29.1(27) . . .
30.8(29) . . .
26.5(26) . . .
34.5(30) . . .
40(4) . . .
30.3(31) . . .
29.8(31) . . .
29.5(28) . . .
29.5(28) . . .
26.7(29) . . .
28.4(31) . . .
24.9(26) . . .
32.0(30) . . .
23.7(25) . . .
34.3(33) . . .
29.5(30) . . .
28.2(28) . . .
29.0(30) . . .
29.2(28) . . .
22.5(26) . . .
20.4(27) . . .
26.6(27) . . .
33.7(32) . . .
25.8(26) . . .
28.9(28) . . .
38(4) . . .
22.1(25) . . .
30.5(29) . . .
39.3(32) . . .
24.5(27) . . .
29.0(31) . . .
27.7(27) . . .
27.0(28) . . .
38.7(33) . . .
28.6(29) . . .
25.7(27) . . .
31.1(30) . . .
32.0(30) . . .
30.4(29) . . .
29.3(29) . . .
25.3(27) . . .
25.7(28) . . .
29.3(28) . . .
33.8(30) . . .
32.3(34) . . .
35.3(35) . . .
27.0(31) . . .
26.2(27) . . .
24.7(26) . . .
23.0(27) . . .
38(4) . . .
28.9(28) . . .
36.3(31) . . .
27.7(29) . . .
28.7(31) . . .
27.9(28) . . .
33.5(31) . . .
26.6(27) . . .
30.4(30) . . .
30.8(30) . . .
33.1(30) . . .
24.9(27) . . .
28.3(28) . . .
38(4) . . .
35.7(35) . . .
27.6(28) . . .
24.9(26) . . .
31.9(30) . . .
32.2(29) . . .
31.5(32) . . .
34.4(31) . . .
35.3(31) . . .
30.8(29) . . .
21.6(24) . . .
23.5(26) . . .
34.3(32) . . .
30.4(29) . . .
29.6(28) . . .
28.9(31) . . .
29.6(30) . . .
34.6(31) . . .
33.1(31) . . .
34.1(30) . . .
27.9(27) . . .
32.7(31) . . .
37.1(33) . . .
34.3(31) . . .
29.6(29) . . .
26.3(28) . . .
30.1(30) . . .
26.8(28) . . .
28.3(28) . . .
27.0(29) . . .
31.4(31) . . .
34.3(34) . . .
34.1(32) . . .
33.5(30) . . .
32.2(31) . . .
26.6(29) . . .
33.2(31) . . .
31.8(30) . . .
24.1(27) . . .
29.8(29) . . .
24.6(27) . . .
22.9(25) . . .
29.4(28) . . .
32.2(30) . . .
33.3(31) . . .
33.2(31) . . .
30.3(29) . . .
30.0(29) . . .
25.8(26) . . .
34.3(31) . . .
33.7(33) . . .
32.5(33) . . .
27.5(27) . . .
30.9(29) . . .
31.4(30) . . .
36.5(35) . . .
26.5(28) . . .
35.7(30) . . .
36.0(31) . . .
40.3(34) . . .
31.7(31) . . .
25.0(26) . . .
32.4(29) . . .
34.4(31) . . .
35.0(32) . . .
23.3(25) . . .
31.7(31) . . .
34.5(31) . . .
34.5(30) . . .
31.8(31) . . .
26.1(29) . . .
29.9(29) . . .
24.4(26) . . .
27.8(28) . . .
33.5(31) . . .
25.8(27) . . .
30.8(29) . . .
29.3(29) . . .
30.0(29) . . .
33.2(31) . . .
32.0(30) . . .
30.0(29) . . .
26.9(27) . . .
27.6(28) . . .
33.6(31) . . .
29.9(29) . . .
20.4(25) . . .
28.8(28) . . .
33.8(31) . . .
27.2(27) . . .
26.0(28) . . .
23.4(26) . . .
30.6(30) . . .
26.1(27) . . .
30.2(31) . . .
33.1(31) . . .
28.5(28) . . .
33.5(30) . . .
24.8(25) . . .
33.4(33) . . .
24.9(27) . . .
30.5(29) . . .
35.2(31) . . .
34.5(31) . . .
26.5(27) . . .
25.7(27) . . .
31.1(29) . . .
36.8(32) . . .
30.4(31) . . .
19.3(24) . . .
21.7(27) . . .
34.3(31) . . .
29.8(30) . . .
38.5(34) . . .
38.0(34) . . .
38.2(34) . . .
39.1(33) . . .
30.2(29) . . .
32.2(30) . . .
34.0(33) . . .
30.8(31) . . .
26.1(27) . . .
33.0(30) . . .
26.6(26) . . .
33.8(32) . . .
35.5(33) . . .
28.5(28) . . .
25.8(27) . . .
28.9(29) . . .
27.0(28) . . .
29.3(29) . . .
30.6(29) . . .
33.0(31) . . .
28.2(29) . . .
32.6(32) . . .
36.7(32) . . .
32.2(29) . . .
26.9(29) . . .
26.2(28) . . .
28.7(30) . . .
36.7(32) . . .
27.2(27) . . .
29.4(34) . . .
27.7(29) . . .
25.3(27) . . .
23.4(26) . . .
25.4(26) . . .
30.5(29) . . .
29.8(29) . . .
25.5(29) . . .
27.1(27) . . .
32.7(31) . . .
25.2(27) . . .
25.2(28) . . .
33.4(32) . . .
27.2(28) . . .
30.9(29) . . .
32.3(30) . . .
32.6(30) . . .
33.9(30) . . .
34.1(31) . . .
30.4(29) . . .
29.1(28) . . .
28.9(29) . . .
32.4(31) . . .
25.2(26) . . .
27.4(28) . . .
28.6(29) . . .
31.0(32) . . .
34.5(31) . . .
34.2(30) . . .
27.3(27) . . .
32.1(30) . . .
34.3(32) . . .
33.3(30) . . .
27.7(27) . . .
35.0(34) . . .
28.4(28) . . .
38(4) . . .
33.6(31) . . .
30.5(28) . . .
22.9(25) . . .
29.6(29) . . .
31.8(29) . . .
26.7(27) . . .
25.3(27) . . .
24.4(27) . . .
34.7(33) . . .
27.1(28) . . .
35.0(32) . . .
31.5(29) . . .
29.4(30) . . .
25.3(27) . . .
28.3(29) . . .
29.5(29) . . .
25.9(26) . . .
35.8(34) . . .
26.1(29) . . .
27.5(28) . . .
30.4(30) . . .
32.4(29) . . .
23.5(27) . . .
26.9(29) . . .
26.5(27) . . .
26.1(27) . . .
34.8(32) . . .
31.1(30) . . .
31.9(32) . . .
23.7(25) . . .
32.2(31) . . .
35.0(31) . . .
30.9(29) . . .
20.6(25) . . .
28.3(28) . . .
29.1(28) . . .
28.8(28) . . .
18.0(22) . . .
27.3(29) . . .
28.5(28) . . .
27.3(27) . . .
29.7(29) . . .
25.5(26) . . .
32.0(32) . . .
30.9(29) . . .
31.1(30) . . .
31.7(30) . . .
33.8(32) . . .
38(4) . . .
32.4(30) . . .
28.4(27) . . .
33.7(31) . . .
38.6(35) . . .
33.0(31) . . .
34.0(32) . . .
23.9(26) . . .
31.3(30) . . .
27.4(27) . . .
30.5(31) . . .
32.6(30) . . .
27.8(27) . . .
28.8(31) . . .
30.0(33) . . .
27.7(29) . . .
29.7(29) . . .
26.8(27) . . .
40(4) . . .
36.8(33) . . .
33.4(31) . . .
33.6(30) . . .
36.1(31) . . .
33.8(31) . . .
32.2(30) . . .
29.0(30) . . .
27.8(28) . . .
27.9(27) . . .
29.6(30) . . .
32.4(33) . . .
35.9(31) . . .
36.4(31) . . .
27.8(29) . . .
32.8(30) . . .
27.5(28) . . .
29.2(29) . . .
39(4) . . .
31.2(29) . . .
29.7(31) . . .
28.7(31) . . .
32.5(31) . . .
31.9(29) . . .
26.5(27) . . .
24.9(26) . . .
37.8(33) . . .
34.5(30) . . .
28.6(28) . . .
29.3(30) . . .
31.6(33) . . .
26.7(28) . . .
30.1(30) . . .
29.4(30) . . .
32.6(30) . . .
25.6(26) . . .
32.8(32) . . .
28.7(27) . . .
29.7(29) . . .
30.7(29) . . .
26.3(28) . . .
33.4(33) . . .
33.9(30) . . .
34.6(31) . . .
30.8(29) . . .
29.1(28) . . .
36.6(34) . . .
40.1(33) . . .
27.1(27) . . .
24.4(26) . . .
27.9(29) . . .
32.5(30) . . .
28.3(28) . . .
33.3(30) . . .
24.2(28) . . .
24.9(28) . . .
42(4) . . .
31.8(30) . . .
28.4(28) . . .
27.5(27) . . .
40(4) . . .
33.6(32) . . .
25.5(28) . . .
27.3(27) . . .
20.8(23) . . .
25.6(27) . . .
29.8(29) . . .
30.5(29) . . .
32.8(30) . . .
31.0(29) . . .
32.4(32) . . .
29.1(30) . . .
28.2(28) . . .
34.7(31) . . .
32.2(32) . . .
32.3(34) . . .
38.2(35) . . .
29.3(28) . . .
36.0(32) . . .
35.4(31) . . .
28.4(29) . . .
32.2(31) . . .
26.1(27) . . .
37.9(33) . . .
34.7(30) . . .
32.7(31) . . .
33.1(31) . . .
26.0(27) . . .
26.7(28) . . .
27.2(30) . . .
26.6(29) . . .
25.7(27) . . .
32.7(31) . . .
30.4(29) . . .
22.5(25) . . .
26.4(28) . . .
21.5(24) . . .
26.6(27) . . .
24.2(27) . . .
38(4) . . .
35.9(32) . . .
32.1(30) . . .
33.1(30) . . .
30.0(29) . . .
27.0(28) . . .
30.5(30) . . .
28.5(27) . . .
42.2(34) . . .
27.1(28) . . .
29.6(31) . . .
27.3(28) . . .
30.7(29) . . .
30.3(29) . . .
34.4(33) . . .
26.5(28) . . .
30.8(29) . . .
32.4(29) . . .
29.7(28) . . .
36.3(32) . . .
29.3(32) . . .
31.6(31) . . .
37.3(32) . . .
36.6(31) . . .
27.8(30) . . .
24.0(29) . . .
26.5(28) . . .
30.2(29) . . .
26.9(27) . . .
27.2(27) . . .
23.5(27) . . .
32.0(31) . . .
29.5(28) . . .
25.8(28) . . .
34.2(34) . . .
33.0(31) . . .
31.7(31) . . .
30.8(29) . . .
29.0(29) . . .
36.2(35) . . .
26.7(29) . . .
36.2(34) . . .
27.5(28) . . .
32.0(31) . . .
28.5(29) . . .
30.5(30) . . .
35.2(31) . . .
31.8(29) . . .
28.4(28) . . .
22.3(27) . . .
28.1(29) . . .
30.4(28) . . .
28.1(28) . . .
30.0(32) . . .
28.8(30) . . .
32.4(32) . . .
31.9(29) . . .
32.3(30) . . .
23.5(27) . . .
31.3(29) . . .
31.2(29) . . .
26.7(27) . . .
30.6(29) . . .
23.0(28) . . .
19.3(25) . . .
27.7(28) . . .
27.3(27) . . .
18.8(23) . . .
31.4(32) . . .
29.0(31) . . .
30.6(30) . . .
32.0(30) . . .
31.9(29) . . .
24.1(26) . . .
36(4) . . .
30.7(30) . . .
30.6(29) . . .
33.5(31) . . .
32.7(30) . . .
38(4) . . .
29.9(28) . . .
29.4(28) . . .
29.9(28) . . .
32.6(32) . . .
26.6(30) . . .
29.9(30) . . .
31.3(29) . . .
27.8(28) . . .
26.1(29) . . .
25.8(29) . . .
21.6(24) . . .
25.0(26) . . .
19.8(24) . . .
21.8(24) . . .
26.7(27) . . .
19.4(23) . . .
23.6(25) . . .
31.6(30) . . .
27.8(27) . . .
34.1(32) . . .
27.3(27) . . .
33.2(30) . . .
33.8(31) . . .
26.6(27) . . .
30.2(30) . . .
26.9(27) . . .
30.4(29) . . .
29.5(29) . . .
33.9(31) . . .
34.7(32) . . .
32.4(31) . . .
34.5(30) . . .
29.1(28) . . .
28.8(28) . . .
28.9(28) . . .
25.1(26) . . .
24.7(26) . . .
35.4(33) . . .
23.6(26) . . .
24.6(25) . . .
22.4(24) . . .
31.1(30) . . .
28.5(29) . . .
35.6(35) . . .
33.5(30) . . .
32.2(30) . . .
28.4(27) . . .
25.2(28) . . .
34.0(33) . . .
39.9(35) . . .
25.3(27) . . .
28.6(28) . . .
30.6(30) . . .
29.1(31) . . .
33.4(33) . . .
38.9(32) . . .
34.4(32) . . .
29.9(28) . . .
30.8(31) . . .
30.4(29) . . .
39.4(33) . . .
27.4(28) . . .
26.9(27) . . .
30.1(30) . . .
23.9(28) . . .
25.1(26) . . .
31.5(31) . . .
23.3(24) . . .
24.8(26) . . .
34.1(32) . . .
25.9(26) . . .
29.4(29) . . .
30.5(30) . . .
28.2(28) . . .
25.9(26) . . .
35.7(31) . . .
33.3(31) . . .
24.1(25) . . .
34.7(32) . . .
26.1(26) . . .
27.6(27) . . .
22.0(24) . . .
27.8(29) . . .
26.8(28) . . .
19.0(23) . . .
30.3(29) . . .
32.9(29) . . .
33.6(31) . . .
32.9(30) . . .
19.9(23) . . .
27.3(27) . . .
32.3(31) . . .
28.5(30) . . .
29.3(28) . . .
31.8(29) . . .
21.6(24) . . .
27.4(28) . . .
25.3(27) . . .
23.3(27) . . .
22.4(25) . . .
22.7(26) . . .
25.7(27) . . .
24.6(27) . . .
33.7(32) . . .
26.2(27) . . .
25.6(28) . . .
28.2(29) . . .
26.4(28) . . .
30.0(29) . . .
34.1(31) . . .
19.7(23) . . .
42(4) . . .
26.2(26) . . .
26.1(27) . . .
25.9(27) . . .
19.0(22) . . .
34.0(32) . . .
28.3(28) . . .
30.9(30) . . .
29.1(28) . . .
24.6(26) . . .
31.3(31) . . .
31.6(30) . . .
26.6(26) . . .
37.3(32) . . .
30.1(29) . . .
29.0(29) . . .
31.3(32) . . .
22.6(25) . . .
28.4(28) . . .
27.2(27) . . .
22.7(24) . . .
25.4(27) . . .
24.3(26) . . .
27.0(29) . . .
33.3(31) . . .
31.1(31) . . .
28.6(29) . . .
32.8(29) . . .
25.7(28) . . .
28.3(28) . . .
31.3(30) . . .
32.2(30) . . .
29.8(30) . . .
25.9(26) . . .
22.9(25) . . .
24.9(27) . . .
25.4(26) . . .
20.4(24) . . .
24.7(27) . . .
29.9(29) . . .
23.1(25) . . .
25.1(28) . . .
31.9(30) . . .
37.9(33) . . .
32.1(32) . . .
28.4(30) . . .
26.6(26) . . .
30.3(29) . . .
31.5(30) . . .
33.0(31) . . .
28.5(29) . . .
25.0(26) . . .
23.8(26) . . .
35.8(34) . . .
33.5(32) . . .
29.1(29) . . .
30.0(29) . . .
26.5(27) . . .
22.0(25) . . .
30.6(30) . . .
26.3(26) . . .
29.8(28) . . .
30.6(29) . . .
33.0(32) . . .
26.1(28) . . .
22.5(25) . . .
29.1(28) . . .
30.4(29) . . .
34.6(32) . . .
28.0(28) . . .
30.9(30) . . .
42.0(34) . . .
31.5(30) . . .
31.8(30) . . .
30.4(32) . . .
32.6(33) . . .
29.8(29) . . .
28.7(28) . . .
31.2(30) . . .
32.9(33) . . .
26.1(27) . . .
38.6(32) . . .
28.5(28) . . .
32.2(30) . . .
34.2(34) . . .
28.9(29) . . .
29.6(29) . . .
35.3(31) . . .
24.5(26) . . .
32.7(32) . . .
32.4(30) . . .
34.4(31) . . .
28.3(28) . . .
26.9(28) . . .
30.1(31) . . .
27.6(29) . . .
31.2(29) . . .
29.6(29) . . .
34.6(32) . . .
33.0(33) . . .
26.9(29) . . .
22.9(25) . . .
27.2(27) . . .
26.2(28) . . .
26.2(27) . . .
29.6(30) . . .
24.8(26) . . .
33.2(32) . . .
30.9(32) . . .
25.8(27) . . .
26.9(30) . . .
29.8(28) . . .
26.4(27) . . .
28.3(27) . . .
27.6(27) . . .
26.0(26) . . .
36.2(32) . . .
35.6(32) . . .
31.2(32) . . .
28.2(28) . . .
25.5(27) . . .
31.3(28) . . .
31.4(29) . . .
31.2(31) . . .
26.9(29) . . .
25.7(28) . . .
32.7(29) . . .
35.7(33) . . .
27.6(30) . . .
28.1(29) . . .
32.4(31) . . .
36.5(31) . . .
30.3(29) . . .
28.2(29) . . .
29.0(29) . . .
26.4(26) . . .
30.0(29) . . .
33.3(33) . . .
30.5(29) . . .
35.9(32) . . .
31.3(29) . . .
27.0(27) . . .
35.2(32) . . .
27.0(28) . . .
28.9(29) . . .
31.2(29) . . .
28.8(28) . . .
34.9(31) . . .
38.1(34) . . .
23.1(26) . . .
24.7(26) . . .
27.9(28) . . .
31.2(29) . . .
34.7(31) . . .
29.9(29) . . .
27.1(27) . . .
30.3(30) . . .
28.1(29) . . .
30.5(31) . . .
34.8(32) . . .
25.8(27) . . .
29.1(29) . . .
19.7(23) . . .
23.1(25) . . .
34.2(31) . . .
33.8(30) . . .
32.2(30) . . .
32.2(30) . . .
25.5(26) . . .
33.0(32) . . .
26.5(27) . . .
28.1(28) . . .
28.2(29) . . .
27.5(30) . . .
23.6(25) . . .
30.5(28) . . .
31.9(31) . . .
27.0(29) . . .
23.1(27) . . .
25.3(28) . . .
33.1(30) . . .
27.8(29) . . .
21.1(24) . . .
28.2(28) . . .
32.6(30) . . .
28.9(28) . . .
30.1(29) . . .
29.5(30) . . .
28.5(29) . . .
24.2(25) . . .
28.8(29) . . .
32.1(30) . . .
34.6(33) . . .
30.9(30) . . .
34.3(31) . . .
28.3(28) . . .
26.9(28) . . .
32.2(32) . . .
37.8(33) . . .
22.3(25) . . .
27.6(27) . . .
32.6(30) . . .
25.4(28) . . .
26.6(27) . . .
35.4(31) . . .
29.3(31) . . .
27.5(30) . . .
28.4(31) . . .
24.4(28) . . .
27.1(27) . . .
26.5(27) . . .
28.6(30) . . .
33.5(33) . . .
29.1(29) . . .
26.4(27) . . .
25.3(27) . . .
29.2(31) . . .
30.3(30) . . .
32.0(32) . . .
24.3(25) . . .
23.5(26) . . .
27.1(31) . . .
27.5(30) . . .
31.4(30) . . .
31.6(30) . . .
20.3(23) . . .
31.8(32) . . .
29.5(29) . . .
23.3(26) . . .
32.4(29) . . .
29.8(29) . . .
36(4) . . .
25.3(28) . . .
23.8(25) . . .
27.8(28) . . .
31.8(32) . . .
30.2(29) . . .
36.7(32) . . .
30.8(29) . . .
32.2(29) . . .
30.3(30) . . .
27.0(28) . . .
30.8(29) . . .
29.2(28) . . .
24.9(26) . . .
22.9(26) . . .
29.0(31) . . .
35.5(32) . . .
31.2(30) . . .
29.2(28) . . .
36.2(33) . . .
27.3(28) . . .
34.0(31) . . .
39.3(33) . . .
29.8(29) . . .
31.3(31) . . .
35.7(34) . . .
28.5(28) . . .
28.9(28) . . .
28.7(29) . . .
30.8(32) . . .
24.6(26) . . .
36.4(32) . . .
24.5(26) . . .
30.8(31) . . .
25.5(27) . . .
27.8(28) . . .
29.7(29) . . .
30.1(28) . . .
24.6(28) . . .
20.5(24) . . .
23.0(24) . . .
21.5(24) . . .
29.6(28) . . .
28.8(28) . . .
28.1(31) . . .
32.0(31) . . .
26.1(26) . . .
23.9(25) . . .
27.8(28) . . .
36.3(34) . . .
30.6(30) . . .
30.8(29) . . .
29.3(29) . . .
23.2(25) . . .
29.5(30) . . .
36.9(33) . . .
33.3(30) . . .
28.1(27) . . .
31.3(31) . . .
26.4(28) . . .
31.0(29) . . .
30.2(29) . . .
35.0(31) . . .
31.2(29) . . .
23.8(26) . . .
31.6(32) . . .
32.0(30) . . .
32.8(30) . . .
35.5(32) . . .
30.2(29) . . .
31.0(31) . . .
24.5(26) . . .
29.1(30) . . .
28.9(32) . . .
29.1(30) . . .
36.1(33) . . .
29.0(28) . . .
37.9(35) . . .
36.1(33) . . .
31.1(30) . . .
34.0(33) . . .
29.4(28) . . .
29.6(29) . . .
32.1(31) . . .
26.0(27) . . .
32.3(30) . . .
40.3(33) . . .
28.5(28) . . .
27.6(28) . . .
30.5(31) . . .
31.8(29) . . .
30.8(29) . . .
23.4(25) . . .
27.5(30) . . .
23.1(25) . . .
24.6(26) . . .
27.9(27) . . .
33.2(31) . . .
28.0(28) . . .
26.2(29) . . .
31.9(29) . . .
33.6(31) . . .
28.7(29) . . .
23.7(27) . . .
30.1(31) . . .
31.3(29) . . .
33.7(31) . . .
31.5(30) . . .
31.9(31) . . .
25.9(28) . . .
28.2(28) . . .
28.2(28) . . .
30.5(30) . . .
21.3(25) . . .
27.9(29) . . .
30.9(29) . . .
29.5(31) . . .
28.0(31) . . .
20.7(25) . . .
34.0(31) . . .
28.3(28) . . .
27.2(28) . . .
26.5(28) . . .
25.1(25) . . .
34.9(32) . . .
30.0(29) . . .
32.4(30) . . .
29.9(31) . . .
27.2(28) . . .
27.6(28) . . .
29.0(28) . . .
33.4(30) . . .
25.1(26) . . .
29.8(30) . . .
30.1(30) . . .
30.1(28) . . .
32.7(30) . . .
35.6(32) . . .
30.3(29) . . .
34.2(31) . . .
36.1(31) . . .
34.2(31) . . .
32.8(31) . . .
31.8(30) . . .
25.2(26) . . .
33.5(30) . . .
35.8(34) . . .
31.3(31) . . .
34.0(31) . . .
32.3(31) . . .
25.9(27) . . .
32.4(30) . . .
25.7(27) . . .
26.4(27) . . .
28.6(28) . . .
31.9(30) . . .
29.6(31) . . .
31.5(33) . . .
31.6(31) . . .
37.5(33) . . .
27.3(28) . . .
25.6(27) . . .
32.2(33) . . .
30.1(30) . . .
36.1(32) . . .
30.6(31) . . .
26.8(28) . . .
30.8(32) . . .
32.5(31) . . .
31.3(29) . . .
27.3(27) . . .
25.0(26) . . .
30.1(30) . . .
33.0(32) . . .
26.4(27) . . .
29.3(29) . . .
27.9(28) . . .
35.4(33) . . .
32.1(30) . . .
30.5(29) . . .
26.3(27) . . .
34.3(34) . . .
34.1(32) . . .
25.1(27) . . .
18.6(22) . . .
25.0(29) . . .
24.1(27) . . .
26.5(27) . . .
25.8(27) . . .
26.9(27) . . .
35.8(33) . . .
29.4(29) . . .
30.5(33) . . .
36.2(31) . . .
30.8(29) . . .
29.5(30) . . .
27.1(29) . . .
31.2(31) . . .
32.7(29) . . .
32.2(31) . . .
31.0(30) . . .
31.4(31) . . .
25.4(27) . . .
31.0(30) . . .
36.1(32) . . .
25.9(29) . . .
26.3(29) . . .
25.3(26) . . .
28.5(28) . . .
27.6(29) . . .
24.6(27) . . .
27.3(30) . . .
31.2(30) . . .
25.9(27) . . .
36.7(32) . . .
37.3(33) . . .
36.2(30) . . .
36.7(31) . . .
31.0(29) . . .
34.4(32) . . .
34.3(33) . . .
30.1(31) . . .
29.2(29) . . .
34.9(31) . . .
33.1(32) . . .
27.3(27) . . .
44(4) . . .
29.1(29) . . .
30.4(29) . . .
26.7(27) . . .
27.2(30) . . .
32.8(34) . . .
26.7(27) . . .
22.6(25) . . .
34.2(32) . . .
34.2(33) . . .
29.3(28) . . .
25.0(26) . . .
29.0(28) . . .
28.3(32) . . .
30.4(31) . . .
29.7(29) . . .
28.3(28) . . .
30.2(28) . . .
27.8(28) . . .
28.5(29) . . .
33.0(31) . . .
25.6(26) . . .
24.2(27) . . .
31.0(30) . . .
38(4) . . .
38.2(33) . . .
28.5(28) . . .
30.7(29) . . .
25.5(26) . . .
30.2(31) . . .
24.5(25) . . .
27.0(27) . . .
32.5(30) . . .
22.6(25) . . .
21.7(26) . . .
21.6(25) . . .
19.4(23) . . .
25.1(26) . . .
29.5(31) . . .
30.9(32) . . .
42(4) . . .
31.8(30) . . .
34.2(31) . . .
37.0(32) . . .
33.5(32) . . .
35.7(31) . . .
29.5(28) . . .
31.0(32) . . .
32.3(32) . . .
28.3(28) . . .
35.5(32) . . .
27.7(27) . . .
20.7(26) . . .
29.6(30) . . .
25.9(26) . . .
23.5(26) . . .
27.3(28) . . .
31.2(33) . . .
21.4(25) . . .
37(4) . . .
25.4(30) . . .
24.7(26) . . .
25.7(28) . . .
24.8(27) . . .
32.4(31) . . .
32.0(30) . . .
30.1(29) . . .
27.4(28) . . .
34.7(33) . . .
28.7(28) . . .
29.0(28) . . .
25.5(26) . . .
26.3(28) . . .
26.4(29) . . .
28.0(29) . . .
30.7(29) . . .
26.7(26) . . .
21.5(26) . . .
25.3(29) . . .
26.0(28) . . .
30.7(30) . . .
34.0(30) . . .
33.9(32) . . .
28.4(29) . . .
28.9(29) . . .
25.1(27) . . .
21.7(25) . . .
29.3(30) . . .
24.3(26) . . .
32.6(30) . . .
31.3(29) . . .
31.0(30) . . .
27.0(27) . . .
36.0(33) . . .
34.2(32) . . .
33.4(31) . . .
33.8(32) . . .
33.8(31) . . .
29.7(28) . . .
25.5(26) . . .
29.8(29) . . .
25.8(28) . . .
22.6(25) . . .
29.5(30) . . .
32.6(31) . . .
31.5(29) . . .
32.1(33) . . .
32.6(32) . . .
30.3(29) . . .
29.6(28) . . .
29.8(28) . . .
38.5(34) . . .
23.9(25) . . .
26.5(27) . . .
31.8(29) . . .
22.0(24) . . .
29.4(30) . . .
28.0(29) . . .
37.8(35) . . .
28.7(28) . . .
33.1(30) . . .
29.4(28) . . .
31.5(32) . . .
31.1(29) . . .
31.5(29) . . .
24.2(26) . . .
35.0(31) . . .
38.7(35) . . .
28.3(28) . . .
30.9(29) . . .
32.2(29) . . .
29.6(30) . . .
31.9(30) . . .
37.7(34) . . .
33.8(31) . . .
31.4(29) . . .
30.5(30) . . .
29.9(28) . . .
28.2(29) . . .
26.0(26) . . .
27.2(27) . . .
23.7(26) . . .
26.8(28) . . .
27.7(28) . . .
35.2(31) . . .
37.1(32) . . .
21.9(25) . . .
24.8(28) . . .
27.0(28) . . .
28.0(28) . . .
26.7(27) . . .
25.8(28) . . .
30.3(29) . . .
31.1(30) . . .
27.1(28) . . .
33.5(30) . . .
32.9(30) . . .
28.5(29) . . .
22.7(26) . . .
27.8(28) . . .
29.0(29) . . .
30.5(29) . . .
30.5(30) . . .
21.4(24) . . .
28.8(28) . . .
29.1(29) . . .
22.4(25) . . .
33.7(32) . . .
31.4(29) . . .
27.6(28) . . .
35.2(31) . . .
37.0(33) . . .
31.9(30) . . .
35.1(31) . . .
32.8(29) . . .
36.0(33) . . .
31.4(32) . . .
26.2(27) . . .
25.1(26) . . .
30.5(30) . . .
27.7(29) . . .
27.8(32) . . .
28.5(29) . . .
24.5(26) . . .
32.4(30) . . .
26.8(27) . . .
25.0(28) . . .
28.2(30) . . .
28.9(28) . . .
32.8(30) . . .
26.0(27) . . .
29.8(29) . . .
31.4(29) . . .
26.3(27) . . .
34.5(31) . . .
24.0(26) . . .
33.0(33) . . .
25.1(27) . . .
27.3(27) . . .
29.4(28) . . .
30.7(30) . . .
23.0(24) . . .
27.9(28) . . .
35.4(31) . . .
36.4(32) . . .
39.4(34) . . .
28.7(28) . . .
27.0(28) . . .
30.2(29) . . .
28.4(29) . . .
39(4) . . .
31.0(30) . . .
26.2(27) . . .
30.2(28) . . .
21.9(25) . . .
28.0(30) . . .
25.9(28) . . .
26.5(28) . . .
28.7(28) . . .
25.9(27) . . .
30.8(28) . . .
29.4(31) . . .
26.9(28) . . .
30.3(30) . . .
31.1(30) . . .
31.0(30) . . .
28.8(30) . . .
32.0(30) . . .
31.5(30) . . .
30.6(30) . . .
33.1(32) . . .
29.4(29) . . .
26.1(27) . . .
25.0(26) . . .
29.1(28) . . .
36.4(34) . . .
34.6(31) . . .
34.3(32) . . .
30.5(31) . . .
33.2(31) . . .
29.4(30) . . .
32.1(31) . . .
23.0(26) . . .
24.7(27) . . .
28.5(28) . . .
32.0(30) . . .
29.7(29) . . .
28.1(28) . . .
30.3(30) . . .
37(4) . . .
32.2(31) . . .
35.1(31) . . .
30.8(29) . . .
33.8(32) . . .
35.3(34) . . .
27.6(27) . . .
27.7(27) . . .
26.3(27) . . .
23.4(25) . . .
29.2(30) . . .
33.1(31) . . .
25.2(26) . . .
24.1(25) . . .
27.6(29) . . .
21.8(25) . . .
28.5(31) . . .
37.0(31) . . .
32.7(30) . . .
34.2(32) . . .
26.2(28) . . .
24.4(28) . . .
25.4(26) . . .
24.7(26) . . .
37.6(33) . . .
32.1(31) . . .
29.9(28) . . .
34.5(30) . . .
28.4(28) . . .
34.0(31) . . .
30.1(29) . . .
29.4(29) . . .
26.1(27) . . .
26.1(28) . . .
33.3(31) . . .
36.7(34) . . .
28.4(28) . . .
25.6(27) . . .
27.8(28) . . .
29.9(32) . . .
25.5(27) . . .
37.7(33) . . .
31.3(30) . . .
32.1(29) . . .
36.1(32) . . .
27.5(26) . . .
30.8(29) . . .
33.9(30) . . .
27.5(28) . . .
39(4) . . .
29.6(30) . . .
31.5(31) . . .
31.8(29) . . .
27.7(28) . . .
30.0(30) . . .
25.2(26) . . .
33.3(31) . . .
29.6(28) . . .
26.6(27) . . .
31.9(30) . . .
38.7(33) . . .
28.0(27) . . .
28.9(28) . . .
31.5(30) . . .
30.6(31) . . .
25.6(26) . . .
18.8(22) . . .
32.9(31) . . .
33.8(31) . . .
26.4(28) . . .
32.3(32) . . .
31.0(29) . . .
21.6(24) . . .
25.9(28) . . .
29.3(30) . . .
35.0(32) . . .
36.9(31) . . .
23.4(25) . . .
25.7(27) . . .
35.1(32) . . .
29.1(29) . . .
30.8(29) . . .
31.3(29) . . .
29.0(31) . . .
34.6(35) . . .
26.9(27) . . .
33.2(30) . . .
25.1(26) . . .
32.0(30) . . .
36(4) . . .
27.5(28) . . .
27.8(28) . . .
28.5(29) . . .
30.7(31) . . .
26.1(27) . . .
29.2(28) . . .
29.7(29) . . .
36.5(33) . . .
25.9(26) . . .
25.6(27) . . .
22.8(25) . . .
20.0(24) . . .
33.8(34) . . .
20.6(24) . . .
39(4) . . .
26.1(28) . . .
33.3(30) . . .
32.1(30) . . .
31.7(31) . . .
25.9(26) . . .
28.9(28) . . .
28.2(28) . . .
28.1(28) . . .
34.4(34) . . .
26.4(29) . . .
27.8(30) . . .
34.3(31) . . .
27.0(27) . . .
27.5(28) . . .
28.5(27) . . .
35.0(31) . . .
23.0(25) . . .
34.8(32) . . .
26.6(27) . . .
31.2(30) . . .
24.0(25) . . .
31.1(30) . . .
31.8(31) . . .
34.1(35) . . .
27.7(30) . . .
26.9(27) . . .
33.8(31) . . .
32.9(31) . . .
31.2(32) . . .
37(4) . . .
25.1(26) . . .
32.1(31) . . .
20.2(23) . . .
27.6(31) . . .
31.9(31) . . .
25.8(28) . . .
32.0(30) . . .
27.6(27) . . .
30.8(29) . . .
24.4(26) . . .
23.7(25) . . .
27.8(30) . . .
30.0(29) . . .
35.0(31) . . .
27.9(29) . . .
41.4(33) . . .
39.0(34) . . .
26.8(28) . . .
35.6(34) . . .
29.9(28) . . .
34.9(31) . . .
33.8(32) . . .
26.3(27) . . .
24.3(27) . . .
18.0(22) . . .
23.3(25) . . .
30.4(31) . . .
39.0(34) . . .
30.6(28) . . .
25.6(26) . . .
23.8(26) . . .
27.2(31) . . .
28.4(29) . . .
31.8(32) . . .
27.6(28) . . .
29.2(28) . . .
27.4(31) . . .
29.1(30) . . .
31.7(30) . . .
31.1(29) . . .
31.8(30) . . .
26.5(29) . . .
20.6(25) . . .
23.0(26) . . .
34.5(31) . . .
33.5(31) . . .
28.5(30) . . .
35.8(34) . . .
41(4) . . .
39.4(33) . . .
34.5(31) . . .
28.5(28) . . .
27.6(28) . . .
21.6(25) . . .
27.7(28) . . .
28.2(28) . . .
30.6(32) . . .
31.3(31) . . .
31.5(31) . . .
21.7(25) . . .
35.4(33) . . .
30.9(30) . . .
31.5(30) . . .
23.5(26) . . .
29.9(28) . . .
31.3(29) . . .
29.8(30) . . .
30.1(29) . . .
30.8(30) . . .
37.2(32) . . .
27.3(28) . . .
28.2(30) . . .
30.5(30) . . .
26.5(27) . . .
27.2(27) . . .
36.9(32) . . .
34.0(31) . . .
28.5(28) . . .
29.0(28) . . .
25.5(27) . . .
24.6(27) . . .
32.6(32) . . .
29.7(29) . . .
21.8(24) . . .
25.4(26) . . .
28.5(28) . . .
27.3(31) . . .
28.8(29) . . .
34.0(30) . . .
35.3(31) . . .
33.9(32) . . .
28.7(29) . . .
28.5(29) . . .
33.2(30) . . .
31.5(30) . . .
28.4(28) . . .
31.8(33) . . .
32.1(31) . . .
21.9(24) . . .
32.3(30) . . .
29.8(29) . . .
29.7(31) . . .
19.9(23) . . .
31.6(31) . . .
28.5(30) . . .
36.5(32) . . .
34.1(33) . . .
28.9(30) . . .
31.4(29) . . .
29.2(28) . . .
27.6(28) . . .
22.4(25) . . .
35.5(32) . . .
33.9(31) . . .
33.0(30) . . .
37.9(34) . . .
30.1(29) . . .
35.8(33) . . .
31.3(29) . . .
24.9(27) . . .
30.0(30) . . .
22.4(25) . . .
29.4(29) . . .
28.5(27) . . .
24.1(26) . . .
32.5(30) . . .
30.8(30) . . .
29.2(28) . . .
25.2(26) . . .
26.4(28) . . .
33.0(33) . . .
27.9(27) . . .
29.8(29) . . .
31.9(30) . . .
33.5(33) . . .
29.9(29) . . .
29.9(28) . . .
31.5(29) . . .
29.5(28) . . .
25.1(27) . . .
32.8(34) . . .
25.2(26) . . .
31.3(30) . . .
32.2(30) . . .
29.1(28) . . .
27.9(30) . . .
31.7(33) . . .
25.5(26) . . .
23.7(26) . . .
28.0(29) . . .
28.0(30) . . .
23.0(25) . . .
21.5(24) . . .
29.1(28) . . .
28.7(27) . . .
30.9(29) . . .
28.5(27) . . .
25.6(27) . . .
29.4(29) . . .
22.9(27) . . .
23.4(27) . . .
27.8(27) . . .
28.7(28) . . .
35.9(31) . . .
42(4) . . .
27.7(30) . . .
28.5(29) . . .
28.2(27) . . .
35.8(35) . . .
32.1(32) . . .
30.3(29) . . .
28.7(28) . . .
33.8(31) . . .
26.1(27) . . .
36(4) . . .
35.5(33) . . .
34.1(31) . . .
26.3(28) . . .
34.0(32) . . .
31.2(31) . . .
28.0(28) . . .
32.5(32) . . .
29.3(28) . . .
32.1(31) . . .
31.8(32) . . .
26.2(27) . . .
31.9(31) . . .
26.5(27) . . .
37.0(33) . . .
27.4(28) . . .
26.5(28) . . .
24.5(26) . . .
37.0(32) . . .
23.7(26) . . .
36(4) . . .
26.5(27) . . .
31.4(30) . . .
24.5(27) . . .
25.0(27) . . .
29.9(31) . . .
34.0(33) . . .
25.7(27) . . .
26.7(28) . . .
26.3(27) . . .
32.4(31) . . .
31.6(33) . . .
23.8(26) . . .
23.2(25) . . .
25.6(27) . . .
31.8(33) . . .
26.3(28) . . .
37.6(33) . . .
29.0(29) . . .
28.6(29) . . .
27.2(30) . . .
26.4(27) . . .
23.0(25) . . .
26.1(27) . . .
28.9(30) . . .
23.5(27) . . .
28.6(30) . . .
36.7(32) . . .
36.6(32) . . .
32.8(30) . . .
16.7(22) . . .
29.9(29) . . .
31.6(30) . . .
20.6(24) . . .
29.4(31) . . .
29.6(29) . . .
29.3(28) . . .
26.9(27) . . .
23.0(26) . . .
25.8(27) . . .
44(4) . . .
29.1(28) . . .
26.8(28) . . .
28.5(30) . . .
23.2(27) . . .
26.5(27) . . .
35.3(31) . . .
32.0(30) . . .
27.0(28) . . .
24.5(27) . . .
23.5(26) . . .
23.3(26) . . .
28.6(27) . . .
26.5(27) . . .
31.6(30) . . .
29.4(28) . . .
36.3(31) . . .
34.8(32) . . .
18.9(22) . . .
22.1(25) . . .
26.0(27) . . .
25.6(26) . . .
27.9(29) . . .
29.4(30) . . .
30.8(31) . . .
24.2(27) . . .
27.0(27) . . .
24.8(27) . . .
28.2(29) . . .
24.2(25) . . .
30.4(29) . . .
32.4(29) . . .
28.1(28) . . .
34.7(34) . . .
30.1(31) . . .
26.4(27) . . .
35.5(31) . . .
28.0(28) . . .
27.7(29) . . .
27.5(28) . . .
36.5(32) . . .
33.3(30) . . .
30.3(32) . . .
21.8(25) . . .
28.2(29) . . .
27.8(28) . . .
23.2(25) . . .
25.1(28) . . .
30.3(31) . . .
30.5(29) . . .
25.0(27) . . .
30.1(29) . . .
33.9(31) . . .
30.6(31) . . .
24.6(26) . . .
29.1(28) . . .
33.7(30) . . .
24.8(25) . . .
32.3(32) . . .
29.5(28) . . .
30.5(30) . . .
27.4(27) . . .
29.3(28) . . .
38.5(35) . . .
34.0(31) . . .
29.2(28) . . .
29.6(28) . . .
29.6(30) . . .
26.5(29) . . .
34.5(34) . . .
29.0(28) . . .
31.3(29) . . .
27.2(28) . . .
29.1(29) . . .
36.4(34) . . .
32.4(29) . . .
27.3(27) . . .
25.3(27) . . .
27.1(29) . . .
29.6(31) . . .
30.4(30) . . .
31.5(30) . . .
24.2(26) . . .
26.0(28) . . .
30.0(29) . . .
27.5(28) . . .
32.6(30) . . .
32.5(30) . . .
27.5(26) . . .
29.8(29) . . .
25.5(26) . . .
27.5(28) . . .
24.7(28) . . .
24.7(26) . . .
29.0(28) . . .
32.5(30) . . .
36.8(32) . . .
37(4) . . .
28.8(29) . . .
31.5(29) . . .
31.0(29) . . .
29.4(29) . . .
26.3(27) . . .
32.4(32) . . .
27.4(28) . . .
25.7(26) . . .
24.4(26) . . .
28.9(30) . . .
26.7(26) . . .
28.7(27) . . .
34.4(32) . . .
23.2(27) . . .
25.6(30) . . .
28.3(28) . . .
32.6(31) . . .
28.3(28) . . .
20.1(24) . . .
31.5(32) . . .
28.9(28) . . .
31.4(29) . . .
28.2(28) . . .
24.1(26) . . .
26.9(29) . . .
25.5(28) . . .
29.0(28) . . .
22.9(25) . . .
21.8(26) . . .
31.8(33) . . .
26.9(29) . . .
29.5(28) . . .
29.2(31) . . .
24.5(28) . . .
25.9(27) . . .
27.5(29) . . .
31.0(29) . . .
30.0(28) . . .
32.7(31) . . .
37.9(34) . . .
30.9(29) . . .
35.6(31) . . .
32.6(30) . . .
27.1(26) . . .
35.1(33) . . .
22.0(24) . . .
29.2(28) . . .
38.0(32) . . .
40.1(34) . . .
28.4(29) . . .
27.4(28) . . .
29.7(28) . . .
32.6(32) . . .
32.0(33) . . .
23.7(27) . . .
30.0(28) . . .
36.3(31) . . .
28.7(28) . . .
24.6(27) . . .
30.1(30) . . .
32.5(29) . . .
23.8(26) . . .
24.2(25) . . .
33.3(35) . . .
28.5(30) . . .
21.9(25) . . .
31.7(29) . . .
31.6(31) . . .
26.2(29) . . .
27.7(30) . . .
22.5(25) . . .
23.3(25) . . .
30.0(30) . . .
24.3(28) . . .
24.7(27) . . .
27.5(27) . . .
24.0(26) . . .
31.4(30) . . .
27.8(28) . . .
24.4(27) . . .
29.4(29) . . .
29.7(30) . . .
24.6(26) . . .
28.8(29) . . .
34.8(31) . . .
28.6(28) . . .
25.0(27) . . .
34.0(32) . . .
27.5(29) . . .
30.6(30) . . .
26.8(27) . . .
30.5(33) . . .
24.1(28) . . .
30.6(31) . . .
29.0(29) . . .
31.5(29) . . .
24.8(27) . . .
29.7(29) . . .
34.3(31) . . .
34.6(31) . . .
34.2(30) . . .
25.0(26) . . .
22.5(25) . . .
27.3(30) . . .
30.6(30) . . .
30.4(29) . . .
32.1(31) . . .
37.9(34) . . .
36.6(33) . . .
32.7(30) . . .
26.2(27) . . .
23.9(28) . . .
28.8(32) . . .
23.5(26) . . .
27.6(28) . . .
23.4(26) . . .
29.2(29) . . .
27.6(29) . . .
27.1(29) . . .
23.6(25) . . .
30.6(29) . . .
30.6(30) . . .
28.7(30) . . .
26.3(26) . . .
28.5(28) . . .
25.7(27) . . .
30.1(29) . . .
24.3(27) . . .
30.9(30) . . .
27.9(28) . . .
40.0(34) . . .
24.6(26) . . .
30.8(32) . . .
23.5(26) . . .
27.8(28) . . .
30.4(28) . . .
37.3(34) . . .
24.6(25) . . .
29.7(28) . . .
33.9(32) . . .
40(4) . . .
33.9(32) . . .
21.6(25) . . .
25.0(27) . . .
25.4(27) . . .
24.5(29) . . .
25.1(28) . . .
35.7(33) . . .
18.2(23) . . .
30.8(29) . . .
33.0(31) . . .
27.5(27) . . .
25.5(27) . . .
23.4(25) . . .
27.1(27) . . .
31.8(31) . . .
33.4(34) . . .
27.7(29) . . .
18.7(23) . . .
23.1(25) . . .
34.8(33) . . .
34.3(33) . . .
32.4(31) . . .
24.4(25) . . .
26.7(28) . . .
30.5(29) . . .
35.2(32) . . .
32.1(30) . . .
24.5(26) . . .
29.6(29) . . .
32.2(31) . . .
31.8(30) . . .
29.4(28) . . .
23.1(25) . . .
23.9(25) . . .
23.3(26) . . .
23.2(27) . . .
26.9(28) . . .
28.1(28) . . .
23.5(25) . . .
31.8(33) . . .
25.3(30) . . .
28.3(29) . . .
25.5(27) . . .
25.4(26) . . .
29.4(31) . . .
21.5(25) . . .
24.7(28) . . .
35.1(30) . . .
26.4(27) . . .
29.3(30) . . .
30.1(32) . . .
34.5(35) . . .
35.6(31) . . .
24.5(25) . . .
30.5(31) . . .
23.0(26) . . .
28.3(28) . . .
34.2(30) . . .
32.2(30) . . .
34.3(34) . . .
35.8(33) . . .
38.1(33) . . .
35.2(31) . . .
30.8(29) . . .
26.5(28) . . .
28.8(29) . . .
28.4(28) . . .
30.5(29) . . .
25.4(26) . . .
33.9(31) . . .
34.3(30) . . .
36.1(32) . . .
32.4(30) . . .
24.6(26) . . .
31.4(30) . . .
32.2(30) . . .
35.7(31) . . .
30.2(29) . . .
28.4(28) . . .
33.9(32) . . .
31.3(30) . . .
33.6(31) . . .
38.1(32) . . .
30.5(29) . . .
29.7(29) . . .
34.0(31) . . .
24.0(26) . . .
27.6(28) . . .
24.4(25) . . .
34.5(33) . . .
28.6(28) . . .
22.2(26) . . .
29.6(29) . . .
25.4(27) . . .
21.7(25) . . .
24.2(26) . . .
26.8(27) . . .
21.7(25) . . .
36.2(35) . . .
27.2(29) . . .
27.3(29) . . .
30.0(29) . . .
30.3(31) . . .
29.1(29) . . .
30.6(31) . . .
26.4(28) . . .
31.1(30) . . .
25.1(29) . . .
27.9(28) . . .
37.0(34) . . .
22.6(25) . . .
19.9(23) . . .
22.8(25) . . .
24.9(27) . . .
27.7(28) . . .
28.2(28) . . .
28.9(28) . . .
28.0(28) . . .
31.5(32) . . .
29.8(30) . . .
34.1(31) . . .
35.4(32) . . .
27.0(28) . . .
24.6(27) . . .
27.7(28) . . .
29.4(28) . . .
31.3(29) . . .
31.1(30) . . .
22.6(26) . . .
37.1(33) . . .
24.3(26) . . .
25.4(27) . . .
32.3(31) . . .
21.8(25) . . .
32.8(32) . . .
26.7(28) . . .
26.6(26) . . .
29.7(30) . . .
29.7(31) . . .
19.5(23) . . .
28.2(28) . . .
33.3(32) . . .
30.5(30) . . .
34.5(31) . . .
32.8(30) . . .
30.0(29) . . .
24.6(26) . . .
35.7(33) . . .
35.3(33) . . .
35.3(31) . . .
28.8(28) . . .
26.4(29) . . .
27.2(29) . . .
34.5(32) . . .
25.5(27) . . .
21.6(25) . . .
32.6(31) . . .
31.2(31) . . .
34.6(32) . . .
36.6(33) . . .
24.5(26) . . .
29.0(31) . . .
35.9(33) . . .
24.9(26) . . .
27.0(27) . . .
25.2(26) . . .
25.0(27) . . .
33.4(34) . . .
25.7(28) . . .
27.6(28) . . .
39.5(33) . . .
31.9(31) . . .
31.8(33) . . .
26.2(29) . . .
22.2(24) . . .
30.7(29) . . .
27.8(27) . . .
26.5(30) . . .
30.0(30) . . .
25.5(26) . . .
35.9(31) . . .
37.8(35) . . .
26.6(29) . . .
28.9(30) . . .
29.8(30) . . .
30.0(29) . . .
34.6(32) . . .
29.3(30) . . .
23.7(27) . . .
28.0(28) . . .
22.8(25) . . .
26.4(28) . . .
32.8(34) . . .
27.5(27) . . .
27.7(27) . . .
32.8(31) . . .
31.8(32) . . .
26.0(28) . . .
24.6(26) . . .
24.8(26) . . .
24.9(27) . . .
22.2(25) . . .
21.9(26) . . .
22.9(26) . . .
29.6(28) . . .
31.7(30) . . .
27.4(29) . . .
27.9(30) . . .
25.2(27) . . .
30.7(29) . . .
34.5(35) . . .
28.4(31) . . .
30.1(31) . . .
32.5(30) . . .
31.8(30) . . .
28.5(29) . . .
28.5(29) . . .
41(4) . . .
30.3(29) . . .
29.7(29) . . .
32.2(32) . . .
22.3(25) . . .
36.1(32) . . .
30.8(29) . . .
27.9(27) . . .
26.1(30) . . .
24.3(26) . . .
29.4(29) . . .
30.8(29) . . .
30.7(29) . . .
27.0(28) . . .
29.6(31) . . .
33.2(32) . . .
30.4(29) . . .
32.7(31) . . .
31.9(30) . . .
22.8(24) . . .
34.1(32) . . .
21.7(25) . . .
28.1(29) . . .
22.6(26) . . .
28.9(30) . . .
25.3(26) . . .
28.4(27) . . .
30.1(29) . . .
23.9(26) . . .
31.4(31) . . .
26.1(27) . . .
30.8(29) . . .
31.2(30) . . .
32.8(33) . . .
22.5(28) . . .
26.8(28) . . .
26.6(27) . . .
25.4(26) . . .
25.1(27) . . .
28.5(29) . . .
30.4(29) . . .
27.3(27) . . .
32.0(31) . . .
21.9(24) . . .
25.7(29) . . .
32.2(29) . . .
34.9(30) . . .
30.5(30) . . .
27.2(28) . . .
24.4(27) . . .
32.0(31) . . .
21.9(24) . . .
30.0(31) . . .
28.7(29) . . .
31.3(29) . . .
33.0(30) . . .
25.0(26) . . .
23.9(29) . . .
37(4) . . .
29.1(29) . . .
28.3(27) . . .
27.6(27) . . .
31.2(30) . . .
26.3(31) . . .
29.0(29) . . .
37.8(34) . . .
24.9(26) . . .
23.8(29) . . .
23.9(28) . . .
26.8(29) . . .
28.6(28) . . .
23.8(26) . . .
31.2(33) . . .
33.3(32) . . .
27.5(28) . . .
27.6(28) . . .
27.9(28) . . .
30.6(32) . . .
29.8(31) . . .
22.3(25) . . .
24.8(26) . . .
23.7(26) . . .
28.3(32) . . .
24.2(27) . . .
32.5(30) . . .
30.3(29) . . .
32.0(29) . . .
33.6(31) . . .
24.3(25) . . .
32.6(30) . . .
32.8(30) . . .
32.0(31) . . .
25.6(27) . . .
23.9(27) . . .
18.2(22) . . .
29.5(29) . . .
32.7(31) . . .
24.6(26) . . .
33.2(30) . . .
39.3(34) . . .
27.8(28) . . .
31.9(31) . . .
22.8(25) . . .
21.1(25) . . .
24.0(25) . . .
28.0(29) . . .
23.9(26) . . .
24.8(27) . . .
25.3(25) . . .
31.1(29) . . .
30.1(29) . . .
30.0(29) . . .
33.4(32) . . .
39(4) . . .
26.8(28) . . .
32.5(29) . . .
27.7(27) . . .
33.1(31) . . .
34.6(31) . . .
37.6(32) . . .
32.2(32) . . .
28.8(30) . . .
32.9(33) . . .
22.4(25) . . .
27.1(28) . . .
23.5(25) . . .
27.0(29) . . .
38(4) . . .
30.9(30) . . .
26.8(27) . . .
32.9(31) . . .
36.3(32) . . .
24.9(27) . . .
24.0(27) . . .
34.1(31) . . .
35.5(31) . . .
30.7(28) . . .
30.1(28) . . .
31.4(29) . . .
25.0(26) . . .
26.9(28) . . .
21.6(24) . . .
26.0(29) . . .
27.9(28) . . .
24.8(26) . . .
29.0(29) . . .
29.5(30) . . .
25.5(28) . . .
29.3(28) . . .
29.8(28) . . .
34.9(34) . . .
25.1(27) . . .
31.1(31) . . .
24.7(26) . . .
32.5(30) . . .
30.1(29) . . .
30.0(31) . . .
22.9(25) . . .
31.9(29) . . .
31.4(30) . . .
26.9(27) . . .
31.9(33) . . .
30.7(29) . . .
26.9(28) . . .
26.7(28) . . .
20.8(24) . . .
26.9(29) . . .
29.2(30) . . .
31.5(29) . . .
22.8(25) . . .
28.3(28) . . .
29.6(31) . . .
30.2(31) . . .
31.4(30) . . .
26.4(28) . . .
36.8(32) . . .
28.6(29) . . .
23.6(28) . . .
21.6(23) . . .
26.4(29) . . .
28.6(30) . . .
24.6(27) . . .
29.1(29) . . .
34.0(30) . . .
29.7(30) . . .
27.9(30) . . .
32.3(31) . . .
31.0(30) . . .
28.8(28) . . .
32.3(32) . . .
25.1(27) . . .
41(4) . . .
27.7(28) . . .
25.9(27) . . .
27.4(29) . . .
30.1(31) . . .
33.7(33) . . .
25.9(27) . . .
26.3(27) . . .
29.4(30) . . .
26.3(28) . . .
23.9(26) . . .
31.2(29) . . .
26.8(27) . . .
28.8(30) . . .
29.0(29) . . .
38.9(34) . . .
29.5(29) . . .
23.5(25) . . .
28.2(28) . . .
32.9(32) . . .
31.3(30) . . .
23.0(25) . . .
39.0(32) . . .
41.4(34) . . .
27.2(28) . . .
20.1(24) . . .
25.0(26) . . .
33.0(30) . . .
31.8(31) . . .
24.0(27) . . .
32.3(34) . . .
29.5(29) . . .
31.0(29) . . .
27.5(29) . . .
38(4) . . .
33.8(31) . . .
25.9(27) . . .
30.4(30) . . .
24.7(27) . . .
23.5(25) . . .
24.9(28) . . .
28.1(28) . . .
30.6(29) . . .
31.1(32) . . .
29.3(30) . . .
35.6(33) . . .
32.3(29) . . .
26.9(27) . . .
30.9(30) . . .
32.7(31) . . .
21.9(24) . . .
24.1(25) . . .
28.7(30) . . .
30.0(31) . . .
25.6(27) . . .
27.2(27) . . .
24.5(27) . . .
42(4) . . .
29.8(28) . . .
27.5(27) . . .
34.4(30) . . .
28.1(28) . . .
30.0(30) . . .
33.5(31) . . .
35.9(32) . . .
28.9(28) . . .
29.7(29) . . .
31.4(32) . . .
27.5(29) . . .
32.2(30) . . .
39.3(32) . . .
35.8(33) . . .
28.5(29) . . .
19.0(24) . . .
28.6(31) . . .
28.3(29) . . .
29.6(30) . . .
34.0(32) . . .
37(4) . . .
25.2(29) . . .
22.7(25) . . .
25.5(29) . . .
28.3(29) . . .
30.1(29) . . .
32.2(31) . . .
30.3(29) . . .
35.0(35) . . .
28.1(30) . . .
29.0(31) . . .
31.6(30) . . .
28.8(28) . . .
25.8(27) . . .
37(4) . . .
32.3(32) . . .
30.0(29) . . .
26.5(28) . . .
35.8(31) . . .
34.0(32) . . .
31.9(31) . . .
31.6(30) . . .
26.3(27) . . .
26.6(27) . . .
37.8(34) . . .
28.6(28) . . .
31.7(29) . . .
26.6(27) . . .
26.4(27) . . .
27.4(28) . . .
30.7(30) . . .
28.2(27) . . .
36.6(33) . . .
24.2(26) . . .
27.3(27) . . .
40.6(34) . . .
34.1(30) . . .
25.1(26) . . .
27.5(29) . . .
27.0(30) . . .
36.3(32) . . .
29.0(28) . . .
32.7(31) . . .
25.4(28) . . .
32.2(33) . . .
28.7(28) . . .
28.5(29) . . .
29.7(28) . . .
26.6(27) . . .
27.5(28) . . .
33.2(31) . . .
23.1(26) . . .
25.9(28) . . .
34.8(32) . . .
29.2(30) . . .
22.8(25) . . .
27.1(28) . . .
28.7(29) . . .
30.0(29) . . .
31.1(31) . . .
25.1(27) . . .
35.0(31) . . .
32.8(30) . . .
31.7(30) . . .
32.4(30) . . .
30.1(30) . . .
26.7(27) . . .
25.7(26) . . .
28.1(28) . . .
29.7(29) . . .
26.1(26) . . .
28.6(28) . . .
35.0(31) . . .
37.5(34) . . .
25.9(29) . . .
26.1(26) . . .
30.4(29) . . .
28.5(28) . . .
31.9(31) . . .
37.9(33) . . .
28.5(27) . . .
34.6(30) . . .
24.6(27) . . .
25.1(27) . . .
31.7(30) . . .
31.4(29) . . .
30.7(29) . . .
27.0(27) . . .
25.0(27) . . .
28.7(28) . . .
38.3(32) . . .
26.5(27) . . .
25.3(27) . . .
29.5(31) . . .
22.8(27) . . .
25.2(27) . . .
27.0(27) . . .
29.7(30) . . .
31.5(32) . . .
35(4) . . .
29.3(28) . . .
28.6(28) . . .
28.3(28) . . .
32.0(32) . . .
25.2(28) . . .
24.4(26) . . .
28.3(27) . . .
27.5(27) . . .
35.4(34) . . .
26.8(28) . . .
29.5(28) . . .
30.9(29) . . .
36.5(33) . . .
31.1(31) . . .
24.7(26) . . .
25.6(27) . . .
39.1(34) . . .
37.4(34) . . .
25.8(28) . . .
38.3(35) . . .
25.2(26) . . .
23.1(25) . . .
30.6(32) . . .
32.4(32) . . .
33.0(30) . . .
33.7(30) . . .
36.0(34) . . .
31.2(29) . . .
34.2(31) . . .
28.5(29) . . .
31.3(30) . . .
25.0(25) . . .
33.0(33) . . .
22.5(25) . . .
24.7(26) . . .
28.0(27) . . .
36.9(33) . . .
25.8(28) . . .
30.1(29) . . .
34.0(30) . . .
27.9(27) . . .
20.3(30) . . .
32(4) . . .
31.1(33) . . .
23.3(26) . . .
33.8(32) . . .
20.1(24) . . .
25.6(28) . . .
30.3(29) . . .
27.1(27) . . .
31.6(29) . . .
42(4) . . .
26.3(26) . . .
29.9(30) . . .
29.9(29) . . .
31.8(29) . . .
29.0(29) . . .
39(4) . . .
33.7(31) . . .
32.3(30) . . .
38.0(33) . . .
33.2(32) . . .
29.2(31) . . .
25.1(27) . . .
24.7(26) . . .
26.7(27) . . .
36.3(33) . . .
28.5(30) . . .
28.1(28) . . .
22.7(25) . . .
28.1(30) . . .
32.6(31) . . .
26.6(26) . . .
29.5(29) . . .
30.1(29) . . .
30.0(29) . . .
25.5(28) . . .
35.8(32) . . .
35.4(32) . . .
34.9(31) . . .
29.1(30) . . .
29.9(31) . . .
28.1(29) . . .
27.7(28) . . .
25.3(27) . . .
23.3(25) . . .
31.5(32) . . .
29.1(30) . . .
28.7(28) . . .
34.1(31) . . .
28.4(28) . . .
33.9(33) . . .
24.6(27) . . .
34.2(30) . . .
33.2(30) . . .
28.8(28) . . .
24.5(28) . . .
30.6(31) . . .
31.7(29) . . .
29.2(28) . . .
34.5(33) . . .
24.8(27) . . .
36.0(33) . . .
30.3(29) . . .
31.6(30) . . .
28.2(28) . . .
27.8(29) . . .
28.1(30) . . .
26.6(28) . . .
27.6(27) . . .
28.8(28) . . .
28.2(28) . . .
29.0(29) . . .
19.1(23) . . .
22.3(25) . . .
30.1(31) . . .
28.4(28) . . .
25.2(26) . . .
29.4(29) . . .
22.4(25) . . .
30.5(30) . . .
30.7(29) . . .
33.1(31) . . .
28.7(28) . . .
33.8(31) . . .
27.6(27) . . .
24.2(27) . . .
27.9(27) . . .
25.0(27) . . .
22.5(25) . . .
32.3(30) . . .
24.7(27) . . .
31.9(31) . . .
26.1(27) . . .
23.9(27) . . .
29.0(32) . . .
29.9(31) . . .
26.6(26) . . .
38.0(32) . . .
29.0(28) . . .
24.2(27) . . .
25.9(30) . . .
19.6(23) . . .
25.6(26) . . .
34.4(33) . . .
33.1(33) . . .
24.2(25) . . .
30.2(29) . . .
29.1(29) . . .
31.5(31) . . .
20.9(25) . . .
24.8(26) . . .
31.4(29) . . .
33.6(31) . . .
28.3(29) . . .
23.0(25) . . .
26.9(28) . . .
30.0(29) . . .
30.1(29) . . .
29.3(29) . . .
25.8(27) . . .
30.5(30) . . .
30.0(29) . . .
25.8(26) . . .
27.8(28) . . .
34.1(34) . . .
23.9(26) . . .
24.5(26) . . .
31.8(31) . . .
27.8(29) . . .
27.5(28) . . .
34.9(35) . . .
30.3(29) . . .
32.4(30) . . .
21.5(24) . . .
29.8(30) . . .
25.0(26) . . .
29.6(29) . . .
22.1(25) . . .
30.0(31) . . .
31.5(32) . . .
32.7(30) . . .
28.8(28) . . .
30.3(30) . . .
29.6(30) . . .
24.2(25) . . .
30.7(29) . . .
25.3(26) . . .
32.5(31) . . .
33.4(32) . . .
34.1(30) . . .
28.5(28) . . .
29.8(28) . . .
24.4(25) . . .
26.3(27) . . .
35.6(33) . . .
29.6(28) . . .
28.4(27) . . .
27.4(29) . . .
31.9(31) . . .
26.9(27) . . .
28.7(28) . . .
32.2(30) . . .
32.3(31) . . .
23.6(27) . . .
33.7(31) . . .
28.8(28) . . .
32.6(30) . . .
32.4(31) . . .
26.9(29) . . .
24.9(26) . . .
33.7(30) . . .
31.0(29) . . .
32.6(31) . . .
26.4(28) . . .
25.4(27) . . .
30.3(30) . . .
39.0(34) . . .
27.2(27) . . .
34.4(33) . . .
25.6(26) . . .
26.4(27) . . .
29.1(28) . . .
26.2(27) . . .
27.1(28) . . .
38.1(33) . . .
22.1(25) . . .
24.2(26) . . .
28.2(30) . . .
29.5(29) . . .
34.3(31) . . .
30.9(29) . . .
18.5(22) . . .
27.1(29) . . .
37.3(34) . . .
31.2(31) . . .
19.9(24) . . .
29.6(30) . . .
34.8(34) . . .
26.3(27) . . .
32.8(30) . . .
33.5(31) . . .
30.6(29) . . .
26.7(30) . . .
27.3(28) . . .
28.3(28) . . .
25.0(26) . . .
25.9(28) . . .
37.7(35) . . .
28.0(28) . . .
27.5(27) . . .
24.0(25) . . .
30.3(28) . . .
29.5(30) . . .
28.8(31) . . .
30.8(29) . . .
28.1(27) . . .
30.9(31) . . .
22.2(25) . . .
26.8(28) . . .
29.0(27) . . .
34.8(31) . . .
31.2(30) . . .
22.8(26) . . .
27.7(29) . . .
35.5(32) . . .
34.9(31) . . .
28.2(29) . . .
26.3(27) . . .
33.5(32) . . .
29.9(28) . . .
25.5(27) . . .
28.7(30) . . .
30.7(31) . . .
21.9(25) . . .
23.8(25) . . .
28.2(28) . . .
31.6(31) . . .
24.5(26) . . .
28.8(28) . . .
28.7(28) . . .
27.2(29) . . .
23.8(25) . . .
26.1(27) . . .
23.3(26) . . .
22.1(25) . . .
23.3(26) . . .
24.2(26) . . .
32.6(30) . . .
27.4(28) . . .
29.5(28) . . .
31.6(31) . . .
31.5(32) . . .
25.1(28) . . .
33.3(31) . . .
32.1(30) . . .
28.9(29) . . .
30.1(30) . . .
33.4(30) . . .
34.6(30) . . .
34.3(30) . . .
36.7(32) . . .
25.3(28) . . .
25.2(27) . . .
28.6(28) . . .
32.3(30) . . .
27.0(29) . . .
27.6(31) . . .
32.6(33) . . .
26.4(28) . . .
26.4(27) . . .
21.1(23) . . .
29.8(31) . . .
23.1(25) . . .
28.3(28) . . .
28.0(27) . . .
30.8(30) . . .
28.7(29) . . .
25.8(26) . . .
36.0(31) . . .
25.3(28) . . .
23.5(25) . . .
24.3(27) . . .
27.0(27) . . .
28.3(28) . . .
26.8(27) . . .
30.7(32) . . .
28.5(29) . . .
30.0(29) . . .
31.8(29) . . .
28.2(29) . . .
23.6(26) . . .
21.0(23) . . .
34.5(32) . . .
30.8(29) . . .
31.4(30) . . .
29.2(30) . . .
25.2(27) . . .
23.7(27) . . .
35.5(31) . . .
26.5(26) . . .
27.2(27) . . .
29.5(30) . . .
28.8(28) . . .
29.7(29) . . .
32.1(31) . . .
23.5(26) . . .
23.0(25) . . .
31.8(30) . . .
29.7(29) . . .
28.1(28) . . .
27.8(29) . . .
26.5(27) . . .
23.5(25) . . .
29.2(29) . . .
26.5(28) . . .
29.8(33) . . .
27.3(29) . . .
23.1(25) . . .
30.8(30) . . .
25.7(28) . . .
32.6(32) . . .
24.1(25) . . .
29.1(28) . . .
34.6(32) . . .
21.7(24) . . .
26.9(28) . . .
29.2(29) . . .
27.7(28) . . .
32.7(30) . . .
28.8(28) . . .
24.5(27) . . .
28.9(28) . . .
29.0(29) . . .
31.2(29) . . .
35.0(33) . . .
26.5(27) . . .
27.5(27) . . .
35.2(32) . . .
29.1(29) . . .
29.4(29) . . .
24.1(26) . . .
22.5(25) . . .
25.8(27) . . .
26.9(27) . . .
29.8(31) . . .
28.6(29) . . .
35.7(33) . . .
31.9(29) . . .
30.4(32) . . .
38(4) . . .
25.2(25) . . .
22.6(24) . . .
17.8(22) . . .
30.0(30) . . .
27.1(29) . . .
33.2(32) . . .
33.9(31) . . .
33.4(31) . . .
23.9(26) . . .
27.7(29) . . .
22.9(25) . . .
24.2(26) . . .
24.9(26) . . .
25.3(28) . . .
28.8(30) . . .
27.8(27) . . .
32.3(30) . . .
22.1(25) . . .
29.3(32) . . .
23.7(28) . . .
23.7(27) . . .
20.9(24) . . .
23.8(25) . . .
28.7(29) . . .
23.9(25) . . .
30.5(30) . . .
27.9(28) . . .
26.8(27) . . .
30.7(32) . . .
25.1(26) . . .
21.6(24) . . .
27.3(28) . . .
30.4(29) . . .
21.9(26) . . .
26.4(28) . . .
32.0(30) . . .
27.8(28) . . .
25.3(30) . . .
24.7(28) . . .
31.4(31) . . .
28.0(29) . . .
29.1(28) . . .
35.2(31) . . .
39(4) . . .
22.3(25) . . .
30.9(31) . . .
31.4(29) . . .
34.7(33) . . .
27.3(27) . . .
35.0(30) . . .
33.5(30) . . .
23.2(27) . . .
25.5(28) . . .
30.5(32) . . .
34.7(31) . . .
28.3(28) . . .
30.7(29) . . .
30.8(31) . . .
30.7(32) . . .
33.2(32) . . .
32.3(29) . . .
30.7(30) . . .
30.5(30) . . .
29.8(31) . . .
30.1(30) . . .
26.6(27) . . .
26.4(26) . . .
24.8(27) . . .
33.0(33) . . .
36.9(33) . . .
39.7(33) . . .
31.0(31) . . .
31.3(30) . . .
33.3(33) . . .
26.1(26) . . .
29.9(29) . . .
31.7(29) . . .
23.1(24) . . .
26.6(27) . . .
31.8(30) . . .
33.4(30) . . .
25.1(26) . . .
22.2(25) . . .
26.8(28) . . .
22.4(25) . . .
27.3(27) . . .
29.5(30) . . .
28.6(28) . . .
29.2(29) . . .
25.3(27) . . .
34.9(31) . . .
24.6(26) . . .
33.0(33) . . .
30.5(30) . . .
31.9(29) . . .
24.5(26) . . .
27.4(27) . . .
26.7(28) . . .
23.7(25) . . .
35.7(31) . . .
27.1(27) . . .
39.8(35) . . .
28.3(30) . . .
29.8(30) . . .
26.0(26) . . .
26.2(27) . . .
27.3(28) . . .
34.3(34) . . .
25.5(27) . . .
30.7(28) . . .
31.5(29) . . .
24.2(26) . . .
36(4) . . .
24.3(28) . . .
27.2(27) . . .
23.7(27) . . .
26.9(28) . . .
31.6(32) . . .
26.7(27) . . .
26.0(27) . . .
21.4(25) . . .
26.9(27) . . .
26.8(29) . . .
34.8(32) . . .
31.3(29) . . .
27.8(28) . . .
26.0(27) . . .
26.3(29) . . .
32.3(30) . . .
28.2(28) . . .
25.7(29) . . .
28.6(29) . . .
25.7(28) . . .
29.6(29) . . .
27.3(28) . . .
30.3(30) . . .
23.8(25) . . .
28.8(29) . . .
32.5(31) . . .
29.3(28) . . .
24.8(26) . . .
29.8(29) . . .
23.1(25) . . .
23.9(26) . . .
34.2(30) . . .
26.8(28) . . .
29.0(32) . . .
22.3(24) . . .
27.7(28) . . .
27.2(27) . . .
33.2(34) . . .
24.9(27) . . .
26.7(27) . . .
27.3(28) . . .
31.9(30) . . .
30.2(32) . . .
32.4(31) . . .
32.8(30) . . .
30.8(30) . . .
28.3(27) . . .
19.9(22) . . .
25.9(27) . . .
25.9(27) . . .
25.6(26) . . .
27.0(29) . . .
30.2(31) . . .
29.1(28) . . .
26.5(28) . . .
30.4(28) . . .
26.5(28) . . .
31.4(30) . . .
30.5(29) . . .
20.8(24) . . .
21.4(24) . . .
25.3(26) . . .
31.0(31) . . .
38.2(35) . . .
26.4(27) . . .
31.0(29) . . .
29.2(29) . . .
35.3(33) . . .
30.7(31) . . .
38.8(34) . . .
35.2(32) . . .
23.0(24) . . .
32.7(31) . . .
33.1(32) . . .
32.9(30) . . .
34.9(31) . . .
24.3(27) . . .
27.5(27) . . .
28.8(28) . . .
27.7(29) . . .
21.9(24) . . .
21.0(28) . . .
30.3(30) . . .
21.2(23) . . .
35.8(33) . . .
19.5(23) . . .
29.4(30) . . .
28.8(30) . . .
30.5(30) . . .
33.9(31) . . .
34.8(31) . . .
26.8(28) . . .
25.6(29) . . .
19.4(24) . . .
24.4(26) . . .
30.7(30) . . .
27.5(28) . . .
30.5(32) . . .
31.3(31) . . .
33.4(30) . . .
34.0(32) . . .
29.3(28) . . .
28.5(29) . . .
35.3(33) . . .
31.6(30) . . .
34.7(31) . . .
26.8(28) . . .
24.5(26) . . .
28.6(28) . . .
30.2(29) . . .
30.7(30) . . .
23.1(25) . . .
24.0(27) . . .
35.1(34) . . .
21.9(25) . . .
24.5(26) . . .
23.9(29) . . .
24.4(27) . . .
26.9(28) . . .
26.8(27) . . .
24.5(26) . . .
29.4(29) . . .
36(4) . . .
27.7(28) . . .
30.4(29) . . .
29.0(28) . . .
30.1(31) . . .
25.0(27) . . .
24.1(27) . . .
25.3(26) . . .
26.9(28) . . .
29.3(31) . . .
33.3(31) . . .
33.7(31) . . .
29.5(29) . . .
26.1(30) . . .
30.3(31) . . .
31.1(32) . . .
32.6(30) . . .
23.9(26) . . .
26.7(29) . . .
30.2(31) . . .
28.3(27) . . .
37.3(31) . . .
32.4(30) . . .
35.2(33) . . .
34.9(31) . . .
32.8(30) . . .
27.4(27) . . .
33.2(31) . . .
22.0(26) . . .
27.9(29) . . .
42(4) . . .
29.4(29) . . .
26.9(28) . . .
27.2(28) . . .
24.1(26) . . .
27.3(29) . . .
31.6(29) . . .
29.7(29) . . .
25.4(28) . . .
22.0(27) . . .
20.1(23) . . .
22.4(25) . . .
25.9(27) . . .
30.0(30) . . .
33.2(32) . . .
35.5(32) . . .
27.7(27) . . .
28.1(29) . . .
30.1(31) . . .
24.5(25) . . .
28.6(28) . . .
32.3(30) . . .
31.6(31) . . .
27.2(30) . . .
31.4(31) . . .
23.8(28) . . .
24.8(26) . . .
34.5(31) . . .
24.8(27) . . .
26.6(28) . . .
23.8(25) . . .
31.8(30) . . .
30.5(30) . . .
28.7(31) . . .
27.6(30) . . .
34.0(30) . . .
26.2(27) . . .
28.0(29) . . .
26.4(30) . . .
30.7(31) . . .
31.0(29) . . .
29.1(29) . . .
29.2(30) . . .
35.0(33) . . .
34.7(32) . . .
23.8(26) . . .
27.1(27) . . .
28.8(28) . . .
31.0(29) . . .
32.1(32) . . .
33.2(30) . . .
29.6(28) . . .
25.2(26) . . .
29.4(32) . . .
20.4(24) . . .
31.4(30) . . .
28.7(29) . . .
29.3(31) . . .
21.0(25) . . .
24.9(27) . . .
27.6(28) . . .
28.8(28) . . .
31.5(30) . . .
23.9(25) . . .
35.4(32) . . .
37.4(32) . . .
29.4(29) . . .
23.3(25) . . .
22.3(29) . . .
25.7(28) . . .
30.9(30) . . .
29.0(28) . . .
37.2(34) . . .
29.3(28) . . .
31.0(31) . . .
26.2(26) . . .
32.2(29) . . .
35.2(34) . . .
26.4(28) . . .
31.1(30) . . .
34.1(31) . . .
33.5(31) . . .
22.9(27) . . .
26.1(27) . . .
26.9(27) . . .
29.9(29) . . .
23.7(25) . . .
28.1(28) . . .
29.3(29) . . .
33.0(30) . . .
31.6(29) . . .
31.9(30) . . .
26.1(28) . . .
32.4(32) . . .
29.9(29) . . .
29.8(28) . . .
27.0(27) . . .
31.9(33) . . .
23.6(26) . . .
29.7(29) . . .
27.6(28) . . .
30.7(32) . . .
21.4(25) . . .
23.5(27) . . .
30.4(28) . . .
30.0(31) . . .
31.6(30) . . .
35.4(34) . . .
23.0(26) . . .
33.3(30) . . .
22.9(25) . . .
30.3(33) . . .
25.7(27) . . .
31.4(30) . . .
27.0(27) . . .
27.8(28) . . .
27.4(30) . . .
33.7(31) . . .
31.6(29) . . .
27.9(27) . . .
30.4(30) . . .
24.5(28) . . .
22.6(27) . . .
17.8(22) . . .
21.5(24) . . .
30.7(30) . . .
25.3(27) . . .
23.3(25) . . .
21.9(24) . . .
27.3(28) . . .
31.7(32) . . .
31.1(34) . . .
25.0(28) . . .
28.6(28) . . .
27.0(27) . . .
24.9(27) . . .
30.6(30) . . .
22.0(24) . . .
20.5(24) . . .
28.0(27) . . .
37.1(33) . . .
30.8(31) . . .
31.5(31) . . .
30.6(31) . . .
24.7(26) . . .
31.8(31) . . .
26.9(30) . . .
27.7(30) . . .
33.5(31) . . .
32.2(30) . . .
24.0(25) . . .
29.8(30) . . .
20.8(24) . . .
30.5(29) . . .
27.5(27) . . .
32.9(31) . . .
30.5(30) . . .
26.0(27) . . .
25.3(26) . . .
28.2(28) . . .
30.0(31) . . .
29.8(32) . . .
30.2(31) . . .
37.5(32) . . .
31.1(30) . . .
28.6(28) . . .
29.8(29) . . .
38.4(34) . . .
35.2(31) . . .
26.1(26) . . .
33.8(30) . . .
31.4(30) . . .
22.4(24) . . .
32.4(30) . . .
29.9(30) . . .
19.1(23) . . .
27.1(31) . . .
22.3(27) . . .
26.1(27) . . .
32.5(31) . . .
32.0(31) . . .
35.1(33) . . .
32.2(30) . . .
27.0(27) . . .
35.7(35) . . .
26.5(28) . . .
31.7(31) . . .
24.3(26) . . .
22.2(24) . . .
29.9(29) . . .
26.9(28) . . .
29.9(31) . . .
30.3(29) . . .
31.9(29) . . .
39.2(33) . . .
33.6(33) . . .
29.4(30) . . .
27.3(28) . . .
32.4(29) . . .
30.9(30) . . .
25.0(26) . . .
30.4(30) . . .
30.0(29) . . .
30.1(29) . . .
24.4(26) . . .
28.2(28) . . .
28.4(28) . . .
23.6(26) . . .
25.0(26) . . .
32.0(30) . . .
27.1(27) . . .
28.3(27) . . .
30.4(29) . . .
32.1(31) . . .
31.0(31) . . .
25.7(27) . . .
26.3(28) . . .
30.1(29) . . .
26.5(28) . . .
25.8(26) . . .
21.4(25) . . .
24.4(26) . . .
28.5(28) . . .
28.7(29) . . .
34.5(33) . . .
19.9(22) . . .
28.4(28) . . .
27.1(28) . . .
28.7(29) . . .
28.0(30) . . .
28.7(30) . . .
26.6(27) . . .
27.5(29) . . .
26.8(28) . . .
31.5(32) . . .
30.0(29) . . .
27.7(28) . . .
23.9(26) . . .
29.0(29) . . .
34.8(34) . . .
28.3(28) . . .
36.4(31) . . .
26.8(28) . . .
37.2(32) . . .
33.9(31) . . .
25.6(27) . . .
31.0(29) . . .
36.0(32) . . .
30.8(30) . . .
34.2(34) . . .
26.0(26) . . .
25.7(26) . . .
28.4(28) . . .
32.3(30) . . .
36.5(33) . . .
32.5(32) . . .
33.5(29) . . .
23.2(26) . . .
27.6(29) . . .
33.0(32) . . .
38.0(33) . . .
20.8(23) . . .
27.9(28) . . .
24.3(26) . . .
32.1(32) . . .
25.9(27) . . .
26.5(27) . . .
31.8(31) . . .
26.4(30) . . .
20.4(24) . . .
34.5(31) . . .
26.8(28) . . .
23.4(27) . . .
26.5(29) . . .
28.9(28) . . .
34.6(32) . . .
37.3(32) . . .
28.9(29) . . .
31.5(31) . . .
25.4(26) . . .
32.8(31) . . .
23.7(26) . . .
32.5(31) . . .
30.0(29) . . .
30.1(29) . . .
33.8(31) . . .
21.7(26) . . .
27.7(28) . . .
23.0(29) . . .
22.2(25) . . .
24.8(26) . . .
27.8(27) . . .
28.5(29) . . .
24.1(25) . . .
30.1(29) . . .
27.2(27) . . .
25.1(27) . . .
33.4(31) . . .
30.9(30) . . .
27.9(28) . . .
29.2(28) . . .
30.9(29) . . .
29.3(29) . . .
26.8(28) . . .
30.9(29) . . .
33.4(30) . . .
25.7(27) . . .
22.4(24) . . .
26.3(29) . . .
24.6(25) . . .
30.9(29) . . .
30.1(29) . . .
33.5(32) . . .
28.3(27) . . .
28.3(28) . . .
35.1(31) . . .
39(4) . . .
33.5(30) . . .
29.2(30) . . .
25.8(27) . . .
29.7(28) . . .
21.5(26) . . .
33.3(34) . . .
24.9(26) . . .
28.5(28) . . .
26.7(27) . . .
31.2(31) . . .
26.5(28) . . .
31.0(30) . . .
37.9(33) . . .
35.7(31) . . .
32.1(30) . . .
25.9(27) . . .
28.5(28) . . .
22.6(26) . . .
22.7(25) . . .
29.2(30) . . .
22.9(24) . . .
27.7(27) . . .
28.1(28) . . .
29.4(28) . . .
29.8(30) . . .
29.8(33) . . .
30.3(30) . . .
23.0(25) . . .
33.2(31) . . .
25.6(26) . . .
27.4(28) . . .
29.2(31) . . .
27.7(28) . . .
21.5(24) . . .
34.0(32) . . .
26.6(28) . . .
33.8(32) . . .
25.8(27) . . .
31.2(30) . . .
28.1(30) . . .
19.5(24) . . .
33.2(31) . . .
32.9(30) . . .
27.3(27) . . .
26.9(28) . . .
30.8(32) . . .
25.9(28) . . .
34.6(30) . . .
32.5(30) . . .
34.7(33) . . .
32.3(32) . . .
40.0(35) . . .
31.5(29) . . .
31.5(31) . . .
30.1(33) . . .
30.0(32) . . .
35.4(32) . . .
22.9(25) . . .
33.0(31) . . .
29.3(29) . . .
28.7(29) . . .
35.2(32) . . .
32.0(29) . . .
28.6(29) . . .
29.1(31) . . .
20.0(23) . . .
31.8(30) . . .
33.9(30) . . .
32.3(31) . . .
35.4(35) . . .
32.1(31) . . .
24.1(25) . . .
20.6(25) . . .
24.0(26) . . .
28.2(31) . . .
28.3(32) . . .
26.6(27) . . .
28.6(28) . . .
23.5(25) . . .
28.1(30) . . .
30.1(29) . . .
24.7(27) . . .
23.4(26) . . .
26.7(28) . . .
29.6(30) . . .
32.7(31) . . .
36.2(31) . . .
34.9(30) . . .
28.9(28) . . .
29.1(31) . . .
24.5(27) . . .
28.0(28) . . .
28.5(28) . . .
34.0(32) . . .
22.4(24) . . .
27.3(28) . . .
27.2(28) . . .
28.4(29) . . .
25.5(27) . . .
30.0(30) . . .
27.0(27) . . .
27.3(27) . . .
30.0(30) . . .
31.5(31) . . .
28.1(28) . . .
30.5(29) . . .
26.9(28) . . .
21.6(25) . . .
24.9(27) . . .
24.2(25) . . .
28.1(27) . . .
26.3(27) . . .
30.5(29) . . .
35.8(31) . . .
37.9(33) . . .
30.0(28) . . .
26.2(26) . . .
29.3(28) . . .
25.9(27) . . .
23.9(25) . . .
25.0(26) . . .
32.8(29) . . .
25.5(27) . . .
27.1(30) . . .
28.9(28) . . .
33.3(31) . . .
25.5(28) . . .
22.0(24) . . .
29.2(31) . . .
29.2(28) . . .
31.8(30) . . .
34.5(31) . . .
36.9(33) . . .
26.5(26) . . .
34.0(33) . . .
31.8(30) . . .
28.6(28) . . .
28.2(28) . . .
28.9(30) . . .
27.4(28) . . .
27.1(28) . . .
28.9(28) . . .
34.9(32) . . .
31.0(30) . . .
28.9(28) . . .
29.6(28) . . .
24.9(26) . . .
26.7(28) . . .
22.7(24) . . .
27.8(28) . . .
29.2(28) . . .
25.2(27) . . .
30.6(31) . . .
26.1(27) . . .
26.5(27) . . .
29.7(28) . . .
33.3(34) . . .
34.4(31) . . .
31.2(30) . . .
35.1(32) . . .
23.0(25) . . .
24.2(28) . . .
30.6(32) . . .
26.5(27) . . .
25.1(27) . . .
20.3(23) . . .
22.6(25) . . .
27.3(28) . . .
27.0(28) . . .
25.9(26) . . .
31.4(30) . . .
27.1(28) . . .
26.7(30) . . .
32.4(31) . . .
28.6(28) . . .
29.1(28) . . .
33.8(32) . . .
34.7(33) . . .
24.0(26) . . .
33.4(31) . . .
28.6(28) . . .
33.5(31) . . .
29.8(33) . . .
27.6(28) . . .
28.0(28) . . .
32.5(31) . . .
32.5(32) . . .
30.9(29) . . .
36.1(35) . . .
28.8(28) . . .
25.1(26) . . .
25.3(29) . . .
24.4(26) . . .
33.2(32) . . .
35.0(31) . . .
28.8(28) . . .
33.8(33) . . .
32.6(31) . . .
24.4(27) . . .
23.8(26) . . .
23.7(28) . . .
27.9(30) . . .
24.9(25) . . .
32.8(30) . . .
24.9(26) . . .
30.0(29) . . .
30.8(29) . . .
27.0(28) . . .
20.3(24) . . .
29.5(29) . . .
41(4) . . .
26.0(29) . . .
37.4(35) . . .
28.9(29) . . .
36.5(32) . . .
22.0(26) . . .
28.0(30) . . .
31.5(31) . . .
31.0(30) . . .
32.5(30) . . .
34.2(35) . . .
28.4(29) . . .
30.5(28) . . .
27.1(27) . . .
27.9(30) . . .
26.4(27) . . .
23.9(28) . . .
22.4(26) . . .
21.6(24) . . .
33.5(30) . . .
34.7(33) . . .
26.0(30) . . .
25.7(28) . . .
27.3(27) . . .
31.3(29) . . .
31.8(29) . . .
22.3(25) . . .
31.8(32) . . .
29.5(29) . . .
25.5(26) . . .
31.9(30) . . .
28.8(29) . . .
27.4(28) . . .
34.1(30) . . .
28.5(30) . . .
37.3(34) . . .
32.1(31) . . .
24.7(26) . . .
28.9(29) . . .
27.3(27) . . .
25.1(27) . . .
32.4(33) . . .
26.1(28) . . .
25.3(26) . . .
25.2(27) . . .
33.0(32) . . .
30.0(29) . . .
31.7(31) . . .
26.6(27) . . .
32.1(30) . . .
36.1(33) . . .
25.2(28) . . .
27.8(27) . . .
21.7(24) . . .
32.5(33) . . .
30.1(32) . . .
28.5(29) . . .
29.8(28) . . .
29.2(28) . . .
28.7(29) . . .
28.3(29) . . .
34.1(32) . . .
23.8(25) . . .
26.2(28) . . .
29.6(31) . . .
32.8(34) . . .
23.8(25) . . .
25.9(27) . . .
22.9(26) . . .
24.9(27) . . .
26.6(29) . . .
31.0(31) . . .
31.4(29) . . .
33.4(30) . . .
32.7(30) . . .
22.8(24) . . .
36.5(33) . . .
35.7(31) . . .
23.9(27) . . .
23.5(24) . . .
27.9(29) . . .
30.1(29) . . .
32.0(30) . . .
23.9(26) . . .
29.9(30) . . .
26.3(27) . . .
35.6(32) . . .
34.8(31) . . .
23.3(27) . . .
22.8(27) . . .
27.7(30) . . .
24.5(27) . . .
27.1(27) . . .
36.9(33) . . .
33.3(30) . . .
29.9(29) . . .
32.3(31) . . .
27.6(27) . . .
32.8(30) . . .
32.7(33) . . .
29.2(29) . . .
25.2(26) . . .
20.9(24) . . .
25.6(27) . . .
28.0(28) . . .
25.6(27) . . .
30.0(30) . . .
31.2(29) . . .
27.6(28) . . .
22.7(26) . . .
30.8(31) . . .
33.6(30) . . .
33.2(30) . . .
26.4(27) . . .
26.9(30) . . .
35.4(32) . . .
21.6(25) . . .
25.2(26) . . .
25.6(27) . . .
25.9(27) . . .
25.3(28) . . .
26.9(27) . . .
22.8(25) . . .
32.1(30) . . .
29.4(30) . . .
30.5(31) . . .
25.5(26) . . .
33.9(30) . . .
34.4(33) . . .
26.4(29) . . .
28.1(29) . . .
36.7(33) . . .
28.4(28) . . .
32.3(31) . . .
31.3(30) . . .
28.2(28) . . .
28.6(28) . . .
33.9(31) . . .
29.9(29) . . .
22.0(23) . . .
29.6(29) . . .
28.8(28) . . .
25.3(27) . . .
25.0(28) . . .
25.8(27) . . .
34.9(30) . . .
30.1(29) . . .
34.7(31) . . .
29.8(30) . . .
33.8(33) . . .
23.3(26) . . .
27.6(27) . . .
26.2(27) . . .
28.9(30) . . .
25.0(27) . . .
30.1(29) . . .
25.6(26) . . .
26.3(27) . . .
25.5(27) . . .
34.3(33) . . .
29.7(28) . . .
28.8(28) . . .
35.3(32) . . .
26.3(29) . . .
31.0(31) . . .
36.9(32) . . .
30.0(28) . . .
30.7(29) . . .
29.1(29) . . .
26.6(27) . . .
28.3(28) . . .
26.6(27) . . .
32.7(31) . . .
24.0(26) . . .
29.1(29) . . .
31.6(29) . . .
31.6(31) . . .
22.4(25) . . .
23.5(27) . . .
25.0(27) . . .
29.7(28) . . .
30.9(29) . . .
30.2(29) . . .
29.5(29) . . .
28.1(29) . . .
22.1(25) . . .
27.3(27) . . .
27.6(29) . . .
33.2(33) . . .
37.3(34) . . .
28.9(28) . . .
20.5(25) . . .
26.5(29) . . .
26.1(27) . . .
25.3(27) . . .
26.0(27) . . .
31.8(30) . . .
27.9(27) . . .
35.7(34) . . .
33.1(31) . . .
28.4(27) . . .
23.9(26) . . .
37.1(34) . . .
26.9(26) . . .
25.8(26) . . .
34.2(31) . . .
26.6(28) . . .
25.9(28) . . .
26.8(28) . . .
25.3(26) . . .
26.1(27) . . .
25.6(28) . . .
24.9(28) . . .
25.2(29) . . .
33.9(31) . . .
29.5(29) . . .
31.8(31) . . .
33.5(34) . . .
35.7(32) . . .
36.4(32) . . .
23.4(25) . . .
25.4(26) . . .
27.3(31) . . .
32.2(34) . . .
22.3(25) . . .
28.8(28) . . .
28.5(31) . . .
28.6(30) . . .
26.8(29) . . .
25.2(26) . . .
28.7(28) . . .
26.9(28) . . .
27.7(28) . . .
30.7(32) . . .
29.1(29) . . .
31.3(29) . . .
36.1(32) . . .
28.5(28) . . .
23.6(26) . . .
24.9(26) . . .
34.8(33) . . .
22.7(25) . . .
31.5(30) . . .
33.5(32) . . .
22.0(24) . . .
22.5(25) . . .
18.9(22) . . .
29.3(30) . . .
29.5(30) . . .
25.6(26) . . .
24.1(26) . . .
21.8(25) . . .
26.8(28) . . .
30.3(29) . . .
28.9(28) . . .
29.7(30) . . .
29.2(29) . . .
31.1(33) . . .
29.7(28) . . .
20.5(24) . . .
36.4(32) . . .
31.5(31) . . .
29.6(30) . . .
36.2(32) . . .
27.8(29) . . .
26.3(28) . . .
28.4(31) . . .
30.3(29) . . .
33.2(31) . . .
31.2(29) . . .
34.1(31) . . .
31.4(31) . . .
29.0(30) . . .
28.0(28) . . .
22.4(26) . . .
32.0(31) . . .
29.3(30) . . .
27.4(30) . . .
24.8(26) . . .
33.5(30) . . .
33.8(30) . . .
33.6(30) . . .
32.1(30) . . .
26.1(27) . . .
22.3(25) . . .
20.9(25) . . .
22.2(26) . . .
29.4(28) . . .
28.4(28) . . .
24.9(26) . . .
29.1(29) . . .
35.9(35) . . .
35.0(32) . . .
28.9(28) . . .
29.1(29) . . .
23.2(26) . . .
29.5(32) . . .
22.7(27) . . .
23.5(26) . . .
27.1(27) . . .
27.3(28) . . .
25.4(26) . . .
34.2(30) . . .
29.8(29) . . .
33.4(34) . . .
22.0(25) . . .
26.5(27) . . .
24.5(25) . . .
23.2(25) . . .
26.4(30) . . .
28.0(32) . . .
29.2(28) . . .
30.3(28) . . .
28.2(29) . . .
36.2(32) . . .
31.5(33) . . .
19.6(24) . . .
20.0(23) . . .
28.3(28) . . .
31.7(30) . . .
26.8(29) . . .
29.3(29) . . .
32.3(30) . . .
28.1(28) . . .
29.3(29) . . .
32.1(32) . . .
28.9(29) . . .
25.4(26) . . .
26.3(28) . . .
28.2(30) . . .
25.8(29) . . .
27.1(28) . . .
31.8(29) . . .
30.2(28) . . .
29.6(28) . . .
27.0(29) . . .
34.8(31) . . .
36.2(31) . . .
31.8(29) . . .
28.7(29) . . .
31.2(32) . . .
34.5(32) . . .
28.1(28) . . .
28.7(28) . . .
36.5(33) . . .
28.0(28) . . .
30.2(30) . . .
27.4(28) . . .
36.1(34) . . .
26.8(27) . . .
28.1(28) . . .
30.5(29) . . .
29.6(28) . . .
26.2(28) . . .
22.0(24) . . .
31.4(30) . . .
30.6(29) . . .
35.3(31) . . .
33.3(30) . . .
22.3(26) . . .
23.0(26) . . .
34.9(30) . . .
31.3(29) . . .
26.7(28) . . .
34.3(33) . . .
24.9(27) . . .
25.9(27) . . .
25.9(27) . . .
23.8(26) . . .
27.0(28) . . .
28.0(29) . . .
33.8(31) . . .
27.6(27) . . .
31.2(28) . . .
29.9(29) . . .
31.5(32) . . .
22.9(25) . . .
25.5(27) . . .
28.3(28) . . .
34.1(32) . . .
28.1(28) . . .
28.4(28) . . .
26.8(27) . . .
32.3(31) . . .
29.1(30) . . .
19.2(23) . . .
32.0(30) . . .
30.5(30) . . .
27.6(29) . . .
27.7(29) . . .
22.5(25) . . .
30.8(29) . . .
26.5(29) . . .
32.7(31) . . .
29.8(30) . . .
31.5(30) . . .
32.0(29) . . .
24.9(27) . . .
26.1(28) . . .
27.4(28) . . .
22.6(24) . . .
25.8(27) . . .
29.6(30) . . .
32.9(32) . . .
24.5(27) . . .
28.0(28) . . .
33.9(31) . . .
32.3(30) . . .
32.2(31) . . .
35.2(32) . . .
24.4(26) . . .
32.3(29) . . .
26.5(31) . . .
36(4) . . .
29.6(29) . . .
29.5(28) . . .
19.7(23) . . .
24.5(28) . . .
29.0(31) . . .
20.5(24) . . .
31.7(30) . . .
32.5(29) . . .
20.5(23) . . .
30.9(31) . . .
38.3(33) . . .
30.0(28) . . .
35.3(32) . . .
35.3(33) . . .
26.2(30) . . .
31.5(30) . . .
30.2(28) . . .
34.3(31) . . .
36(4) . . .
27.4(28) . . .
30.0(29) . . .
25.2(26) . . .
20.8(24) . . .
24.6(26) . . .
27.9(30) . . .
24.5(26) . . .
31.0(29) . . .
22.0(25) . . .
36.2(34) . . .
30.1(28) . . .
34.3(31) . . .
30.0(29) . . .
26.0(27) . . .
20.3(23) . . .
27.4(30) . . .
29.3(29) . . .
26.9(27) . . .
36.9(34) . . .
35.9(32) . . .
27.8(28) . . .
19.4(23) . . .
32.5(29) . . .
29.8(28) . . .
25.0(27) . . .
28.1(28) . . .
29.0(29) . . .
26.9(27) . . .
27.1(29) . . .
27.8(29) . . .
32.1(31) . . .
33.8(31) . . .
34.6(30) . . .
29.8(29) . . .
27.5(30) . . .
35.2(33) . . .
29.3(29) . . .
24.1(26) . . .
28.1(31) . . .
25.3(28) . . .
31.0(30) . . .
25.8(27) . . .
33.0(30) . . .
33.3(30) . . .
35.7(33) . . .
46(4) . . .
32.4(30) . . .
28.2(28) . . .
27.3(27) . . .
27.3(29) . . .
28.1(28) . . .
32.5(30) . . .
32.0(31) . . .
26.3(28) . . .
32.1(32) . . .
32.7(32) . . .
35.0(31) . . .
21.8(24) . . .
33.5(30) . . .
40.2(35) . . .
24.7(26) . . .
32.3(30) . . .
27.8(28) . . .
34.8(32) . . .
33.1(32) . . .
29.6(29) . . .
26.8(27) . . .
28.2(29) . . .
24.2(28) . . .
27.7(29) . . .
28.5(28) . . .
30.9(29) . . .
37.6(34) . . .
loop_
_refln_index_h
_refln_index_k
_refln_index_l
_refln_observed_status
_refln_F_squared_meas
_refln_F_squared_calc
_refln_phase_calc
_refln_d_spacing
_gsas_i100_meas
0 0 2 o 18.431 292.797 180.00 6.58433 0.03
0 2 0 o 1249.320 1537.556 180.00 8.20275 2.67
0 1 3 o 82.028 26.664 180.00 4.24039 0.09
0 0 4 o 79.612 116.766 180.00 3.29217 0.03
1 0 1 o 13136.459 13459.232 0.00 5.87738 28.85
0 2 2 o 33155.984 33404.121 0.00 5.13474 55.60
0 3 1 o 1352.351 1539.894 180.00 5.05036 2.19
0 4 0 o 3310.544 1543.380 0.00 4.10138 1.77
1 1 2 o 4819.924 3930.613 0.00 4.47374 12.28
1 0 3 o 281.635 191.684 180.00 3.64950 0.24
1 2 1 o 1799.758 1798.072 0.00 4.77759 5.23
0 2 4 o 1159.959 915.716 0.00 3.05528 0.69
0 1 5 o 1400.684 1517.557 180.00 2.60044 0.61
1 1 4 o 34.100 74.736 0.00 2.89687 0.04
1 0 5 o 389.335 568.117 180.00 2.44451 0.15
0 0 6 o 1937.919 2623.161 0.00 2.19478 0.30
1 2 3 o 715.517 988.968 0.00 3.33438 1.01
0 5 1 o 14.390 17.521 180.00 3.18376 0.01
0 3 3 o 12821.688 13344.413 0.00 3.42316 9.58
1 4 1 o 785.577 848.870 180.00 3.36341 1.13
0 2 6 o 357.479 512.332 180.00 2.12019 0.10
0 6 0 o 1592.130 1932.610 0.00 2.73425 0.38
0 4 2 o 1.438 6.426 0.00 3.48124 0.00
1 3 2 o 3626.647 3837.650 0.00 3.54244 5.80
1 2 5 o 370.718 547.839 0.00 2.34270 0.26
1 1 6 o 1063.191 1032.518 180.00 2.06507 0.58
0 1 7 o 213.608 925.731 0.00 1.86899 0.05
0 3 5 o 33.363 141.813 0.00 2.37287 0.01
1 3 4 o 45.209 46.243 0.00 2.59162 0.04
1 0 7 o 1019.617 1247.327 0.00 1.80851 0.22
0 0 8 o 153.387 195.505 180.00 1.64608 0.01
2 0 0 o 2197.500 2127.362 180.00 3.28391 0.76
2 1 1 o 924.006 866.448 180.00 3.12788 1.15
2 0 2 o 383.948 357.731 0.00 2.93869 0.21
2 2 0 o 83.349 65.063 0.00 3.04868 0.05
1 6 1 o 537.042 767.995 0.00 2.47911 0.42
0 7 1 o 117.938 232.773 0.00 2.30739 0.04
0 3 7 o 1497.975 1521.738 0.00 1.77892 0.31
2 1 3 o 1147.534 1133.395 0.00 2.59636 0.99
0 6 2 o 35.850 433.827 0.00 2.52518 0.01
1 2 7 o 1318.326 1330.709 180.00 1.76610 0.53
2 0 4 o 1665.968 1533.339 180.00 2.32499 0.58
0 4 4 o 10404.670 12209.660 0.00 2.56737 4.39
1 5 2 o 2713.372 2801.981 180.00 2.68089 2.49
0 2 8 o 799.935 961.650 180.00 1.61391 0.14
1 3 6 o 1340.531 1080.901 0.00 1.94544 0.65
0 8 0 o 148.374 132.803 0.00 2.05069 0.02
2 2 2 o 2056.790 2036.177 180.00 2.76651 2.01
1 1 8 o 866.264 1292.838 0.00 1.58919 0.28
2 1 5 o 263.193 195.570 180.00 2.03866 0.14
2 3 1 o 632.556 641.382 0.00 2.75308 0.61
0 1 9 o 1717.195 1546.923 0.00 1.45740 0.24
2 4 0 o 1647.520 1960.929 180.00 2.56345 0.69
1 4 3 o 5033.416 5514.515 0.00 2.72641 4.78
0 4 6 o 3199.661 2753.379 180.00 1.93512 0.77
2 0 6 o 1.976 2.709 0.00 1.82475 0.00
2 2 4 o 0.000 31.298 0.00 2.23687 0.00
1 0 9 o 1168.095 1170.642 180.00 1.42817 0.16
0 0 10 o 4177.067 6508.725 180.00 1.31687 0.24
1 4 5 o 140.324 132.256 180.00 2.09983 0.08
0 5 3 o 484.794 479.125 180.00 2.62806 0.21
2 5 1 o 0.000 7.754 0.00 2.28585 0.00
2 1 7 o 203.231 262.017 0.00 1.62434 0.07
1 8 1 o 681.800 575.607 180.00 1.93622 0.33
1 3 8 o 57.589 70.588 0.00 1.53270 0.02
0 3 9 o 91.740 101.607 0.00 1.41346 0.01
2 2 6 o 767.660 776.594 180.00 1.78121 0.31
2 6 0 o 2828.009 2636.859 180.00 2.10125 0.80
2 3 3 o 0.164 53.575 180.00 2.36977 0.00
1 2 9 o 31.179 34.860 180.00 1.40701 0.01
1 7 2 o 2595.502 2462.621 0.00 2.09285 1.46
0 2 10 o 0.007 0.009 180.00 1.30022 0.00
0 9 1 o 3264.742 3921.497 0.00 1.80562 0.69
2 0 8 o 537.236 507.917 180.00 1.47156 0.08
1 1 10 o 12.111 13.975 0.00 1.28719 0.00
2 4 2 o 183.806 317.797 180.00 2.38879 0.13
0 8 2 o 2226.171 1963.155 180.00 1.95793 0.55
1 4 7 o 127.642 179.497 180.00 1.65478 0.05
0 4 8 o 66.028 85.359 180.00 1.52764 0.01
0 5 5 o 24711.432 23665.209 0.00 2.05389 6.70
2 3 5 o 845.823 754.108 0.00 1.92332 0.40
0 10 0 o 8418.820 9936.247 180.00 1.64055 0.73
1 5 4 o 6397.386 6561.356 0.00 2.19088 3.94
2 2 8 o 1479.573 1181.956 0.00 1.44844 0.41
0 7 3 o 6871.353 6685.324 0.00 2.06742 1.89
2 1 9 o 858.258 1278.516 180.00 1.33211 0.20
1 6 3 o 4800.461 4863.888 180.00 2.18823 2.95
2 7 1 o 485.968 624.217 180.00 1.88795 0.22
2 4 4 o 1346.713 952.595 180.00 2.02261 0.71
2 3 7 o 1643.563 1891.861 180.00 1.56416 0.52
1 3 10 o 6.435 5.966 0.00 1.25662 0.00
0 5 7 o 0.036 0.045 180.00 1.63202 0.00
1 4 9 o 0.000 0.001 180.00 1.34874 0.00
2 6 2 o 604.350 552.346 180.00 2.00178 0.31
1 5 6 o 961.891 1002.820 0.00 1.75773 0.38
2 4 6 o 2074.025 2170.586 0.00 1.66719 0.75
2 8 0 o 10.195 12.476 0.00 1.73940 0.00
1 9 2 o 17.157 17.722 0.00 1.69710 0.01
3 0 1 o 2546.728 2494.755 180.00 2.15963 0.76
1 10 1 o 277.225 406.362 180.00 1.58015 0.09
0 4 10 o 25.576 22.683 180.00 1.25382 0.00
3 0 3 o 3512.130 3172.944 0.00 1.95913 0.87
2 0 10 o 2259.002 2124.909 0.00 1.22226 0.22
0 5 9 o 3.909 4.837 0.00 1.33633 0.00
3 2 1 o 27.249 26.350 0.00 2.08846 0.02
3 1 2 o 2774.957 2817.687 180.00 2.06099 1.52
2 5 3 o 88.294 87.728 0.00 2.05189 0.05
0 10 2 o 747.403 1110.100 0.00 1.59188 0.12
2 3 9 o 1067.187 1217.675 0.00 1.29831 0.24
2 2 10 o 1002.143 1035.015 180.00 1.20891 0.19
0 11 1 o 6674.133 5143.048 180.00 1.48194 0.95
3 0 5 o 3522.724 3021.248 180.00 1.68358 0.65
0 6 4 o 8295.822 7488.678 180.00 2.10340 2.36
3 1 4 o 3471.705 3801.610 0.00 1.81184 1.47
1 5 8 o 21.125 20.421 180.00 1.43572 0.01
1 8 3 o 137.600 157.975 0.00 1.78778 0.06
3 2 3 o 5357.181 4264.116 180.00 1.90553 2.51
0 9 3 o 94.226 79.838 180.00 1.68345 0.02
2 8 2 o 112.681 99.178 180.00 1.68171 0.04
2 9 1 o 17.035 27.241 180.00 1.58222 0.01
0 6 6 o 5251.584 6803.671 0.00 1.71158 1.00
3 1 6 o 159.200 173.663 180.00 1.54312 0.05
2 4 8 o 1999.028 1848.148 180.00 1.38510 0.50
3 4 1 o 1042.336 830.424 180.00 1.91090 0.49
3 3 2 o 1088.075 781.752 0.00 1.94203 0.53
3 2 5 o 256.485 370.133 0.00 1.64920 0.09
2 5 5 o 2032.158 2360.929 180.00 1.74135 0.80
0 12 0 o 3200.530 3379.880 0.00 1.36713 0.20
3 0 7 o 290.279 293.433 180.00 1.42682 0.04
1 6 5 o 572.075 687.684 0.00 1.82239 0.25
0 6 8 o 67.853 72.710 180.00 1.41024 0.01
2 10 0 o 53.273 54.361 0.00 1.46760 0.01
3 2 7 o 24.790 28.659 0.00 1.40571 0.01
3 3 4 o 72.157 355.283 180.00 1.72943 0.03
2 7 3 o 1553.695 1497.744 180.00 1.74958 0.61
3 1 8 o 586.547 896.979 180.00 1.31146 0.13
1 6 7 o 334.650 412.130 0.00 1.50841 0.10
1 11 2 o 145.165 150.990 180.00 1.42015 0.04
3 6 1 o 2092.660 2011.182 180.00 1.69475 0.78
3 0 9 o 1727.192 1748.451 0.00 1.21650 0.17
3 3 6 o 31.765 20.093 0.00 1.49125 0.01
2 5 7 o 2677.415 2530.387 0.00 1.46148 0.75
1 7 4 o 484.291 567.953 180.00 1.83337 0.21
3 5 2 o 248.592 233.515 0.00 1.75521 0.10
0 12 2 o 3393.178 3855.966 180.00 1.33858 0.40
0 8 4 o 1029.015 1225.382 0.00 1.74062 0.20
1 12 1 o 3.058 4.894 180.00 1.33158 0.00
1 10 3 o 7.347 6.382 180.00 1.49632 0.00
2 6 4 o 1016.674 787.923 0.00 1.77122 0.41
3 4 3 o 291.051 258.721 180.00 1.76780 0.12
1 6 9 o 80.533 82.154 180.00 1.26589 0.02
2 5 9 o 2611.544 1870.050 180.00 1.23777 0.53
0 13 1 o 3152.353 2941.497 0.00 1.25621 0.33
0 11 3 o 848.892 942.033 0.00 1.41213 0.11
3 3 8 o 28.312 31.257 180.00 1.27917 0.01
0 7 5 o 1335.636 1179.656 180.00 1.75082 0.26
2 10 2 o 318.683 312.127 180.00 1.43245 0.09
2 11 1 o 194.733 264.367 0.00 1.35077 0.05
3 4 5 o 24.337 31.221 180.00 1.55746 0.01
0 7 7 o 5119.037 5467.025 0.00 1.46707 0.72
2 6 6 o 2428.584 2906.144 180.00 1.51779 0.73
3 8 1 o 6.648 4.098 0.00 1.48708 0.00
3 7 2 o 1670.867 2082.393 180.00 1.55461 0.52
2 9 3 o 28.170 27.775 0.00 1.49808 0.01
3 4 7 o 221.182 289.370 0.00 1.34760 0.05
1 7 6 o 557.954 699.911 0.00 1.55636 0.18
2 12 0 o 554.711 533.444 180.00 1.26212 0.06
1 9 4 o 260.019 309.285 0.00 1.54968 0.08
0 10 4 o 92.608 100.564 180.00 1.46834 0.01
2 6 8 o 2696.399 2941.015 0.00 1.29581 0.60
1 7 8 o 290.574 494.669 0.00 1.31956 0.07
3 5 4 o 385.346 486.870 180.00 1.59355 0.13
3 6 3 o 244.988 328.575 0.00 1.59253 0.08
1 13 2 o 44.061 45.631 180.00 1.21791 0.01
0 7 9 o 496.621 361.826 0.00 1.24116 0.05
1 12 3 o 28.039 31.153 180.00 1.28025 0.01
2 8 4 o 2042.302 2447.063 180.00 1.53794 0.63
4 0 0 o 2890.080 3266.467 0.00 1.64196 0.25
4 0 2 o 137.347 172.562 180.00 1.59317 0.02
4 1 1 o 1255.055 1290.159 0.00 1.62136 0.43
3 5 6 o 219.161 309.708 180.00 1.40148 0.06
2 12 2 o 1351.967 952.672 0.00 1.23955 0.27
4 2 0 o 408.458 321.042 180.00 1.61002 0.07
3 10 1 o 33.123 46.376 0.00 1.30637 0.01
3 9 2 o 55.545 61.540 180.00 1.37017 0.01
0 13 3 o 643.207 658.394 180.00 1.21284 0.06
4 1 5 o 1401.598 1179.175 0.00 1.38836 0.35
4 1 3 o 424.440 516.845 180.00 1.53117 0.13
2 11 3 o 1125.555 1195.964 180.00 1.29727 0.25
4 0 4 o 940.886 1024.949 0.00 1.46935 0.13
2 7 5 o 1482.962 1448.786 0.00 1.54496 0.46
4 0 6 o 739.667 1209.702 180.00 1.31475 0.08
1 8 5 o 576.374 718.020 180.00 1.57108 0.18
3 5 8 o 481.986 510.635 0.00 1.22116 0.09
4 2 2 o 1905.434 2056.768 0.00 1.56394 0.61
4 3 1 o 738.753 858.710 180.00 1.56150 0.23
4 4 0 o 968.348 1576.887 0.00 1.52434 0.15
4 2 4 o 1072.423 704.936 180.00 1.44633 0.29
4 1 7 o 663.471 453.974 180.00 1.23354 0.13
0 8 6 o 1172.668 1275.317 180.00 1.49841 0.17
2 7 7 o 3454.288 3592.489 180.00 1.33948 0.81
3 8 3 o 640.146 925.608 180.00 1.41658 0.17
1 11 4 o 12.551 26.923 180.00 1.33035 0.00
0 9 5 o 1124.491 1188.833 0.00 1.49886 0.16
0 12 4 o 6.683 6.322 180.00 1.26259 0.00
4 5 1 o 2334.689 2370.094 0.00 1.45931 0.65
4 2 6 o 389.607 407.712 0.00 1.29818 0.09
3 6 5 o 36.070 34.367 180.00 1.43361 0.01
4 4 2 o 2079.129 1410.008 180.00 1.48506 0.60
4 3 3 o 3062.389 2464.870 0.00 1.48046 0.87
4 6 0 o 3718.418 3616.700 180.00 1.40765 0.48
0 8 8 o 891.868 1031.661 0.00 1.28368 0.10
2 10 4 o 553.190 562.330 0.00 1.34045 0.13
1 8 7 o 152.238 289.782 0.00 1.35639 0.04
3 7 4 o 4.813 4.883 0.00 1.43894 0.00
4 3 5 o 109.988 138.735 180.00 1.35022 0.03
3 11 2 o 315.209 337.355 0.00 1.21153 0.06
3 6 7 o 605.932 566.450 180.00 1.26495 0.13
4 6 2 o 1149.012 1206.050 0.00 1.37654 0.29
4 7 1 o 2233.320 2373.440 180.00 1.33781 0.52
4 8 0 o 1542.559 1707.917 0.00 1.28172 0.17
4 4 4 o 1211.306 1086.439 0.00 1.38326 0.30
3 10 3 o 403.019 400.667 180.00 1.25779 0.08
1 10 5 o 267.052 250.404 0.00 1.36222 0.06
4 5 3 o 654.262 553.024 180.00 1.39251 0.17
4 4 6 o 90.640 71.999 180.00 1.25200 0.02
0 11 5 o 491.854 497.683 0.00 1.29778 0.05
2 8 6 o 2706.215 2414.001 0.00 1.36320 0.66
2 9 5 o 4426.773 3890.845 180.00 1.36354 1.08
3 7 6 o 28.297 31.627 0.00 1.29283 0.01
3 9 4 o 188.237 229.653 180.00 1.28899 0.04
1 9 6 o 354.461 438.861 180.00 1.37136 0.09
4 9 1 o 1570.686 1500.073 0.00 1.21479 0.31
0 9 7 o 0.353 0.620 180.00 1.30910 0.00
4 8 2 o 1862.060 1891.116 180.00 1.25811 0.39
4 5 5 o 649.371 730.344 0.00 1.28251 0.14
4 7 3 o 693.399 833.338 0.00 1.28578 0.15
4 6 4 o 341.659 362.742 180.00 1.29430 0.08
3 8 5 o 109.364 120.532 180.00 1.30123 0.02
0 10 6 o 0.687 1.073 180.00 1.31403 0.00
5 0 1 o 2112.419 2648.352 0.00 1.30708 0.24
5 2 1 o 497.248 665.876 0.00 1.29079 0.11
5 1 2 o 467.852 580.953 0.00 1.28423 0.10
5 0 3 o 5.099 5.502 0.00 1.25843 0.00
5 1 4 o 15.058 14.844 0.00 1.21668 0.00
2 9 7 o 13.299 12.610 0.00 1.21604 0.00
5 2 3 o 404.839 465.836 0.00 1.24387 0.08
5 3 2 o 674.441 670.600 0.00 1.25386 0.14
5 4 1 o 2.683 2.855 180.00 1.24536 0.00
1 11 6 o 114.944 126.939 0.00 1.21236 0.02
2 10 6 o 217.074 275.007 180.00 1.21999 0.04
1 10 7 o 234.695 205.886 180.00 1.21510 0.05
