#------------------------------------------------------------------------------
#$Date: 2016-03-21 01:21:50 +0200 (Mon, 21 Mar 2016) $
#$Revision: 178377 $
#$URL: svn://www.crystallography.net/cod/cif/4/00/20/4002098.cif $
#------------------------------------------------------------------------------
#
# This file is available in the Crystallography Open Database (COD),
# http://www.crystallography.net/
#
# All data on this site have been placed in the public domain by the
# contributors.
#
data_4002098
loop_
_publ_author_name
'Nanthamathee, Chompoonoot'
'Ling, Sanliang'
'Slater, Ben'
'Attfield, Martin P.'
_publ_section_title
;
 Contradistinct Thermoresponsive Behavior of Isostructural MIL-53 Type
 Metal--Organic Frameworks by Modifying the Framework Inorganic Anion
;
_journal_name_full               'Chemistry of Materials'
_journal_page_first              141223143002002
_journal_paper_doi               10.1021/cm503311x
_journal_year                    2014
_chemical_formula_sum            'C8 Al F O4'
_chemical_formula_weight         206.06
_chemical_name_systematic        ' ?'
_space_group_IT_number           74
_symmetry_cell_setting           orthorhombic
_symmetry_space_group_name_Hall  '-I 2b 2'
_symmetry_space_group_name_H-M   'I m m a'
_audit_creation_date             2014-08-28T13:15
_audit_creation_method           'from EXP file using GSAS2CIF'
_audit_update_record
' 2014-08-28T13:15  Initial CIF as created by GSAS2CIF'
_cell_angle_alpha                90.0
_cell_angle_beta                 90.0
_cell_angle_gamma                90.0
_cell_formula_units_Z            4
_cell_length_a                   6.56766(16)
_cell_length_b                   16.4042(5)
_cell_length_c                   13.1657(7)
_cell_volume                     1418.44(9)
_computing_structure_refinement  GSAS
_diffrn_radiation_polarisn_ratio 0.95
_diffrn_radiation_probe          x-ray
_diffrn_radiation_wavelength     0.825993
_exptl_absorpt_correction_T_max  1.00000
_exptl_absorpt_correction_T_min  1.00000
_exptl_absorpt_process_details
;   GSAS Absorption/surface roughness correction: function number 0
 No correction is applied.
;
_pd_block_id                     2014-08-28T13:15|325K|325K|
_pd_calc_method                  'Rietveld Refinement'
_pd_instr_location               ' ?'
_pd_meas_2theta_range_inc        0.003
_pd_meas_2theta_range_max        149.9955
_pd_meas_2theta_range_min        0.0015
_pd_meas_number_of_points        49999
_pd_phase_name                   325K
_pd_proc_2theta_range_inc        0.003
_pd_proc_2theta_range_max        150.00519
_pd_proc_2theta_range_min        0.011197
_pd_proc_info_datetime           2014-08-28T13:15:45
_pd_proc_info_excluded_regions   ' ?'
_pd_proc_ls_background_function
;   GSAS Background function number 1 with  2 terms.
 Shifted Chebyshev function of 1st kind
      1:    0.00000     2:    0.00000    
;
_pd_proc_ls_peak_cutoff          0.00010
_pd_proc_ls_profile_function
;
 CW Profile function number 4 with  18 terms
 Pseudovoigt profile coefficients as parameterized in
 P. Thompson, D.E. Cox & J.B. Hastings (1987). J. Appl. Cryst.,20,79-83.
 Asymmetry correction of L.W. Finger, D.E. Cox & A. P. Jephcoat (1994).
 J. Appl. Cryst.,27,892-900.
 Microstrain broadening by P.W. Stephens,  (1999). J. Appl. Cryst.,32,281-289.
 Peak tails are ignored  where the intensity is below 0.0001 times the peak
   Aniso. broadening axis   1.0   0.0   1.0
;
_pd_proc_ls_prof_R_factor        0.0326
_pd_proc_ls_prof_wR_expected     0.0254
_pd_proc_ls_prof_wR_factor       0.0417
_pd_proc_number_of_points        49999
_pd_spec_mounting                ' ?'
_refine_ls_goodness_of_fit_all   1.64
_refine_ls_matrix_type           full
_refine_ls_number_parameters     30
_refine_ls_number_restraints     0
_refine_ls_R_Fsqd_factor         0.18535
_refine_ls_shift/su_max          0.03
_refine_ls_shift/su_mean         0.01
_reflns_d_resolution_high        1.209
_reflns_d_resolution_low         8.202
_reflns_limit_h_max              5
_reflns_limit_h_min              0
_reflns_limit_k_max              13
_reflns_limit_k_min              0
_reflns_limit_l_max              11
_reflns_limit_l_min              0
_reflns_number_total             252
_cod_data_source_file            alf325K.cif
_cod_data_source_block           325K_publ
_cod_depositor_comments
;
The following automatic conversions were performed:

'_geom_bond_publ_flag' value 'N' changed to 'n' according to
/home/saulius/struct/COD-crude-data--automatic-downloads/rss-feeds/ACS/lib/dictionaries/cif_core.dic
dictionary named 'cif_core.dic' version 2.4.2 from 2011-04-26 (18
times).

'_geom_angle_publ_flag' value 'N' changed to 'n' according
to
/home/saulius/struct/COD-crude-data--automatic-downloads/rss-feeds/ACS/lib/dictionaries/cif_core.dic
dictionary named 'cif_core.dic' version 2.4.2 from 2011-04-26 (24
times).

Automatic conversion script
Id: cif_fix_values 2935 2014-11-11 08:27:57Z andrius 
;
_cod_original_cell_volume        1418.43(8)
_cod_database_code               4002098
#BEGIN Tags that were not found in dictionaries:
_gsas_exptl_extinct_corr_t_min   1.00000
_gsas_exptl_extinct_corr_t_max   1.00000
#END Tags that were not found in dictionaries
loop_
_symmetry_equiv_pos_site_id
_symmetry_equiv_pos_as_xyz
1 +x,+y,+z
2 -x,+y,+z
3 +x,-y+1/2,+z
4 -x,-y+1/2,+z
-1 -x,-y,-z
-2 +x,-y,-z
-3 -x,+y+1/2,-z
-4 +x,+y+1/2,-z
101 +x+1/2,+y+1/2,+z+1/2
102 -x+1/2,+y+1/2,+z+1/2
103 +x+1/2,-y,+z+1/2
104 -x+1/2,-y,+z+1/2
-101 -x+1/2,-y+1/2,-z+1/2
-102 +x+1/2,-y+1/2,-z+1/2
-103 -x+1/2,+y,-z+1/2
-104 +x+1/2,+y,-z+1/2
loop_
_atom_site_type_symbol
_atom_site_label
_atom_site_fract_x
_atom_site_fract_y
_atom_site_fract_z
_atom_site_occupancy
_atom_site_thermal_displace_type
_atom_site_U_iso_or_equiv
_atom_site_symmetry_multiplicity
Al Al1 0.25 0.25 0.75 1.0 Uiso 0.0153(17) 4
F F1 0.0 0.25 0.6931(6) 1.0 Uiso 0.0184(14) 4
O O1 0.1700(6) 0.16765(25) 0.83945(34) 1.0 Uiso 0.0184(14) 16
C C1 -0.1933(7) 0.0287(5) 0.9560(7) 1.0 Uiso 0.0250(23) 16
C C2 0.0 0.0633(6) 0.9489(9) 1.0 Uiso 0.0250(23) 8
C C3 0.0 0.1380(7) 0.8707(9) 1.0 Uiso 0.0250(23) 8
loop_
_atom_type_symbol
_atom_type_number_in_cell
_atom_type_scat_dispersion_real
_atom_type_scat_dispersion_imag
_atom_type_scat_Cromer_Mann_a1
_atom_type_scat_Cromer_Mann_a2
_atom_type_scat_Cromer_Mann_a3
_atom_type_scat_Cromer_Mann_a4
_atom_type_scat_Cromer_Mann_b1
_atom_type_scat_Cromer_Mann_b2
_atom_type_scat_Cromer_Mann_b3
_atom_type_scat_Cromer_Mann_b4
_atom_type_scat_Cromer_Mann_c
_atom_type_scat_source
Al 4.0 0.000 0.000 6.42020 3.03870 1.90020 0.74260 1.59360 31.5472 1.96460
85.0886 1.11510 International_Tables_Vol_C
F 4.0 0.000 0.000 3.53920 10.2825 2.64120 4.29440 1.51700 0.26150 1.02430
26.1476 0.27760 International_Tables_Vol_C
O 16.0 0.000 0.000 3.04850 13.2771 2.28680 5.70110 1.54630 0.32390 0.86700
32.9089 0.25080 International_Tables_Vol_C
C 32.0 0.000 0.000 2.31000 20.8439 1.02000 10.2075 1.58860 0.56870 0.86500
51.6512 0.21560 International_Tables_Vol_C
loop_
_geom_angle_atom_site_label_1
_geom_angle_atom_site_label_2
_geom_angle_atom_site_label_3
_geom_angle
_geom_angle_site_symmetry_1
_geom_angle_site_symmetry_3
_geom_angle_publ_flag
F1 Al1 F1 180.0 1_555 -101_546 n
F1 Al1 O1 90.33(18) 1_555 1_555 n
F1 Al1 O1 90.33(18) 1_555 3_555 n
F1 Al1 O1 89.67(18) 1_555 -101_566 n
F1 Al1 O1 89.67(18) 1_555 -103_566 n
F1 Al1 O1 89.67(18) -101_566 1_555 n
F1 Al1 O1 89.67(18) -101_566 3_555 n
F1 Al1 O1 90.33(18) -101_566 -101_566 n
F1 Al1 O1 90.33(18) -101_566 -103_566 n
O1 Al1 O1 92.66(31) 1_555 3_555 n
O1 Al1 O1 180.0 1_555 -101_566 n
O1 Al1 O1 87.34(31) 1_555 -103_566 n
O1 Al1 O1 87.34(31) 3_555 -101_566 n
O1 Al1 O1 180.0 3_555 -103_566 n
O1 Al1 O1 92.66(31) -101_566 -103_566 n
Al1 F1 Al1 131.0(4) 1_555 2_555 n
Al1 O1 C3 136.0(5) 1_555 1_555 n
C1 C1 C2 108.0(7) -2_557 1_555 n
C1 C2 C1 131.3(12) 1_555 2_555 n
C1 C2 C3 110.8(6) 1_555 1_555 n
C1 C2 C3 110.8(6) 2_555 1_555 n
O1 C3 O1 120.6(9) 1_555 2_555 n
O1 C3 C2 119.7(5) 1_555 1_555 n
O1 C3 C2 119.7(5) 2_555 1_555 n
loop_
_geom_bond_atom_site_label_1
_geom_bond_atom_site_label_2
_geom_bond_distance
_geom_bond_site_symmetry_2
_geom_bond_publ_flag
Al1 F1 1.8046(32) 1_555 n
Al1 F1 1.8046(32) -101_445 n
Al1 O1 1.8675(33) 1_555 n
Al1 O1 1.8675(33) 3_555 n
Al1 O1 1.8675(33) -101_445 n
Al1 O1 1.8675(33) -103_445 n
F1 Al1 1.8046(32) 1_555 n
F1 Al1 1.8046(32) 2_555 n
O1 Al1 1.8675(33) 1_555 n
O1 C3 1.286(5) 1_555 n
C1 C1 1.493(12) -2_557 n
C1 C2 1.394(6) 1_555 n
C2 C1 1.394(6) 1_555 n
C2 C1 1.394(6) 2_555 n
C2 C3 1.601(10) 1_555 n
C3 O1 1.286(5) 1_555 n
C3 O1 1.286(5) 2_555 n
C3 C2 1.601(10) 1_555 n
loop_
_pd_meas_intensity_total
_pd_proc_ls_weight
_pd_proc_intensity_bkg_calc
_pd_calc_intensity_total
22.4(26) 0.0 0.00 .
15.6(21) 0.0 0.00 .
21.0(24) 0.0 0.00 .
22.0(25) 0.0 0.00 .
42.1(35) 0.0 0.00 .
159(7) 0.0 0.0 .
132(7) 0.0 0.0 .
879(16) 0.0 0.0 .
1528(20) 0.0 0.0 .
2919(30) 0.0 0.0 .
3428(31) 0.0 0.0 .
3426(30) 0.0 0.0 .
3330(30) 0.0 0.0 .
1148(20) 0.0 0.0 .
92(5) 0.0 0.0 .
54(4) 0.0 0.0 .
45(4) 0.0 0.0 .
43(4) 0.0 0.0 .
26.6(28) 0.0 0.00 .
75(5) 0.0 0.0 .
240(9) 0.0 0.0 .
388(10) 0.0 0.0 .
787(15) 0.0 0.0 .
1010(17) 0.0 0.0 .
1117(18) 0.0 0.0 .
1220(19) 0.0 0.0 .
1295(19) 0.0 0.0 .
1458(20) 0.0 0.0 .
1756(23) 0.0 0.0 .
1880(23) 0.0 0.0 .
1989(24) 0.0 0.0 .
2079(24) 0.0 0.0 .
1792(23) 0.0 0.0 .
1579(22) 0.0 0.0 .
1171(18) 0.0 0.0 .
647(13) 0.0 0.0 .
338(10) 0.0 0.0 .
193(8) 0.0 0.0 .
141(7) 0.0 0.0 .
68(4) 0.0 0.0 .
52(4) 0.0 0.0 .
29.3(28) 0.0 0.00 .
33.2(31) 0.0 0.00 .
30.1(29) 0.0 0.00 .
26.0(27) 0.0 0.00 .
28.5(28) 0.0 0.00 .
31.1(29) 0.0 0.00 .
32.4(30) 0.0 0.00 .
32.5(32) 0.0 0.00 .
24.4(26) 0.0 0.00 .
30.8(29) 0.0 0.00 .
23.5(25) 0.0 0.00 .
28.2(29) 0.0 0.00 .
27.9(29) 0.0 0.00 .
30.2(28) 0.0 0.00 .
33.7(30) 0.0 0.00 .
24.1(25) 0.0 0.00 .
25.6(26) 0.0 0.00 .
34.2(34) 0.0 0.00 .
26.2(27) 0.0 0.00 .
33.5(30) 0.0 0.00 .
32.2(31) 0.0 0.00 .
23.3(25) 0.0 0.00 .
27.1(26) 0.0 0.00 .
31.3(29) 0.0 0.00 .
35.0(31) 0.0 0.00 .
37.4(33) 0.0 0.00 .
31.4(31) 0.0 0.00 .
37.2(34) 0.0 0.00 .
32.9(30) 0.0 0.00 .
25.6(27) 0.0 0.00 .
34.1(30) 0.0 0.00 .
42.4(34) 0.0 0.00 .
41(4) 0.0 0.0 .
31.5(30) 0.0 0.00 .
31.6(29) 0.0 0.00 .
32.5(31) 0.0 0.00 .
33.9(33) 0.0 0.00 .
37.7(34) 0.0 0.00 .
37.3(33) 0.0 0.00 .
31.7(29) 0.0 0.00 .
40.3(34) 0.0 0.00 .
37.4(33) 0.0 0.00 .
42(4) 0.0 0.0 .
40.2(34) 0.0 0.00 .
31.9(30) 0.0 0.00 .
31.1(30) 0.0 0.00 .
35.8(31) 0.0 0.00 .
40.3(33) 0.0 0.00 .
42.5(34) 0.0 0.00 .
43.3(34) 0.0 0.00 .
46(4) 0.0 0.0 .
58(4) 0.0 0.0 .
59(4) 0.0 0.0 .
61(4) 0.0 0.0 .
55(4) 0.0 0.0 .
81(5) 0.0 0.0 .
81(5) 0.0 0.0 .
96(5) 0.0 0.0 .
103(5) 0.0 0.0 .
118(6) 0.0 0.0 .
111(6) 0.0 0.0 .
132(7) 0.0 0.0 .
133(6) 0.0 0.0 .
132(6) 0.0 0.0 .
148(6) 0.0 0.0 .
149(6) 0.0 0.0 .
158(7) 0.0 0.0 .
171(7) 0.0 0.0 .
182(7) 0.0 0.0 .
188(7) 0.0 0.0 .
201(8) 0.0 0.0 .
214(8) 0.0 0.0 .
233(8) 0.0 0.0 .
232(8) 0.0 0.0 .
228(8) 0.0 0.0 .
231(8) 0.0 0.0 .
233(8) 0.0 0.0 .
259(9) 0.0 0.0 .
267(8) 0.0 0.0 .
260(8) 0.0 0.0 .
295(9) 0.0 0.0 .
306(10) 0.0 0.0 .
308(9) 0.0 0.0 .
327(9) 0.0 0.0 .
346(10) 0.0 0.0 .
315(10) 0.0 0.0 .
353(10) 0.0 0.0 .
367(10) 0.0 0.0 .
381(10) 0.0 0.0 .
380(10) 0.0 0.0 .
386(11) 0.0 0.0 .
379(10) 0.0 0.0 .
406(11) 0.0 0.0 .
415(11) 0.0 0.0 .
412(11) 0.0 0.0 .
409(11) 0.0 0.0 .
428(11) 0.0 0.0 .
444(11) 0.0 0.0 .
416(11) 0.0 0.0 .
459(11) 0.0 0.0 .
455(12) 0.0 0.0 .
487(12) 0.0 0.0 .
498(12) 0.0 0.0 .
483(11) 0.0 0.0 .
496(12) 0.0 0.0 .
483(12) 0.0 0.0 .
491(12) 0.0 0.0 .
490(12) 0.0 0.0 .
491(11) 0.0 0.0 .
514(12) 0.0 0.0 .
507(13) 0.0 0.0 .
540(13) 0.0 0.0 .
521(12) 0.0 0.0 .
534(12) 0.0 0.0 .
539(13) 0.0 0.0 .
531(13) 0.0 0.0 .
541(13) 0.0 0.0 .
521(12) 0.0 0.0 .
571(13) 0.0 0.0 .
555(13) 0.0 0.0 .
516(12) 0.0 0.0 .
546(12) 0.0 0.0 .
572(12) 0.0 0.0 .
554(12) 0.0 0.0 .
565(13) 0.0 0.0 .
580(13) 0.0 0.0 .
602(13) 0.0 0.0 .
585(13) 0.0 0.0 .
556(12) 0.0 0.0 .
597(13) 0.0 0.0 .
600(13) 0.0 0.0 .
577(13) 0.0 0.0 .
583(13) 0.0 0.0 .
609(13) 0.0 0.0 .
585(13) 0.0 0.0 .
617(13) 0.0 0.0 .
609(13) 0.0 0.0 .
579(12) 0.0 0.0 .
603(13) 0.0 0.0 .
612(13) 0.0 0.0 .
613(13) 0.0 0.0 .
611(13) 0.0 0.0 .
613(13) 0.0 0.0 .
629(13) 0.0 0.0 .
631(14) 0.0 0.0 .
605(13) 0.0 0.0 .
590(13) 0.0 0.0 .
643(13) 0.0 0.0 .
647(14) 0.0 0.0 .
654(14) 0.0 0.0 .
621(13) 0.0 0.0 .
654(13) 0.0 0.0 .
670(13) 0.0 0.0 .
666(14) 0.0 0.0 .
685(15) 0.0 0.0 .
677(14) 0.0 0.0 .
679(14) 0.0 0.0 .
670(13) 0.0 0.0 .
700(14) 0.0 0.0 .
651(14) 0.0 0.0 .
686(14) 0.0 0.0 .
695(14) 0.0 0.0 .
690(14) 0.0 0.0 .
710(14) 0.0 0.0 .
681(14) 0.0 0.0 .
672(14) 0.0 0.0 .
698(14) 0.0 0.0 .
684(14) 0.0 0.0 .
693(14) 0.0 0.0 .
748(15) 0.0 0.0 .
717(15) 0.0 0.0 .
749(14) 0.0 0.0 .
705(14) 0.0 0.0 .
721(14) 0.0 0.0 .
731(15) 0.0 0.0 .
717(15) 0.0 0.0 .
740(14) 0.0 0.0 .
753(14) 0.0 0.0 .
731(14) 0.0 0.0 .
725(15) 0.0 0.0 .
734(15) 0.0 0.0 .
763(14) 0.0 0.0 .
761(14) 0.0 0.0 .
741(15) 0.0 0.0 .
776(15) 0.0 0.0 .
770(15) 0.0 0.0 .
777(14) 0.0 0.0 .
762(15) 0.0 0.0 .
786(15) 0.0 0.0 .
788(15) 0.0 0.0 .
770(15) 0.0 0.0 .
795(15) 0.0 0.0 .
749(15) 0.0 0.0 .
739(15) 0.0 0.0 .
804(15) 0.0 0.0 .
815(15) 0.0 0.0 .
788(15) 0.0 0.0 .
820(15) 0.0 0.0 .
835(16) 0.0 0.0 .
794(15) 0.0 0.0 .
804(15) 0.0 0.0 .
853(15) 0.0 0.0 .
872(16) 0.0 0.0 .
890(16) 0.0 0.0 .
828(15) 0.0 0.0 .
847(15) 0.0 0.0 .
823(15) 0.0 0.0 .
821(16) 0.0 0.0 .
835(16) 0.0 0.0 .
815(15) 0.0 0.0 .
810(15) 0.0 0.0 .
850(15) 0.0 0.0 .
837(15) 0.0 0.0 .
809(16) 0.0 0.0 .
814(15) 0.0 0.0 .
808(15) 0.0 0.0 .
852(15) 0.0 0.0 .
881(16) 0.0 0.0 .
851(16) 0.0 0.0 .
842(16) 0.0 0.0 .
848(15) 0.0 0.0 .
855(15) 0.0 0.0 .
878(16) 0.0 0.0 .
866(16) 0.0 0.0 .
855(16) 0.0 0.0 .
862(15) 0.0 0.0 .
872(15) 0.0 0.0 .
904(16) 0.0 0.0 .
909(16) 0.0 0.0 .
913(16) 0.0 0.0 .
879(15) 0.0 0.0 .
864(16) 0.0 0.0 .
867(16) 0.0 0.0 .
862(16) 0.0 0.0 .
895(16) 0.0 0.0 .
858(15) 0.0 0.0 .
916(16) 0.0 0.0 .
882(16) 0.0 0.0 .
868(16) 0.0 0.0 .
900(16) 0.0 0.0 .
884(15) 0.0 0.0 .
931(16) 0.0 0.0 .
883(16) 0.0 0.0 .
909(16) 0.0 0.0 .
894(16) 0.0 0.0 .
925(16) 0.0 0.0 .
935(16) 0.0 0.0 .
860(16) 0.0 0.0 .
910(16) 0.0 0.0 .
949(16) 0.0 0.0 .
977(16) 0.0 0.0 .
896(16) 0.0 0.0 .
961(17) 0.0 0.0 .
900(16) 0.0 0.0 .
931(16) 0.0 0.0 .
919(16) 0.0 0.0 .
873(16) 0.0 0.0 .
912(17) 0.0 0.0 .
922(16) 0.0 0.0 .
900(16) 0.0 0.0 .
944(16) 0.0 0.0 .
977(17) 0.0 0.0 .
928(17) 0.0 0.0 .
955(16) 0.0 0.0 .
974(16) 0.0 0.0 .
935(16) 0.0 0.0 .
951(16) 0.0 0.0 .
911(17) 0.0 0.0 .
894(16) 0.0 0.0 .
923(16) 0.0 0.0 .
955(16) 0.0 0.0 .
933(16) 0.0 0.0 .
991(17) 0.0 0.0 .
948(16) 0.0 0.0 .
969(16) 0.0 0.0 .
995(17) 0.0 0.0 .
985(17) 0.0 0.0 .
952(17) 0.0 0.0 .
1044(17) 0.0 0.0 .
1000(16) 0.0 0.0 .
942(16) 0.0 0.0 .
933(16) 0.0 0.0 .
967(17) 0.0 0.0 .
971(17) 0.0 0.0 .
1010(16) 0.0 0.0 .
956(16) 0.0 0.0 .
1020(17) 0.0 0.0 .
1019(17) 0.0 0.0 .
996(17) 0.0 0.0 .
992(16) 0.0 0.0 .
1012(17) 0.0 0.0 .
976(17) 0.0 0.0 .
1000(17) 0.0 0.0 .
1037(17) 0.0 0.0 .
985(16) 0.0 0.0 .
1013(17) 0.0 0.0 .
992(17) 0.0 0.0 .
1027(17) 0.0 0.0 .
1034(17) 0.0 0.0 .
1048(17) 0.0 0.0 .
1021(17) 0.0 0.0 .
1043(18) 0.0 0.0 .
1065(18) 0.0 0.0 .
1062(17) 0.0 0.0 .
1034(17) 0.0 0.0 .
1034(17) 0.0 0.0 .
1038(18) 0.0 0.0 .
1063(18) 0.0 0.0 .
1075(17) 0.0 0.0 .
1119(17) 0.0 0.0 .
1095(18) 0.0 0.0 .
1063(18) 0.0 0.0 .
1093(18) 0.0 0.0 .
1122(17) 0.0 0.0 .
1091(17) 0.0 0.0 .
1082(18) 0.0 0.0 .
1120(18) 0.0 0.0 .
1112(18) 0.0 0.0 .
1082(17) 0.0 0.0 .
1113(18) 0.0 0.0 .
1073(18) 0.0 0.0 .
1098(18) 0.0 0.0 .
1085(18) 0.0 0.0 .
1094(17) 0.0 0.0 .
1156(18) 0.0 0.0 .
1162(19) 0.0 0.0 .
1127(18) 0.0 0.0 .
1113(18) 0.0 0.0 .
1178(18) 0.0 0.0 .
1142(18) 0.0 0.0 .
1180(19) 0.0 0.0 .
1144(18) 0.0 0.0 .
1189(19) 0.0 0.0 .
1186(18) 0.0 0.0 .
1185(18) 0.0 0.0 .
1213(19) 0.0 0.0 .
1208(19) 0.0 0.0 .
1165(18) 0.0 0.0 .
1131(17) 0.0 0.0 .
1180(18) 0.0 0.0 .
1174(19) 0.0 0.0 .
1153(18) 0.0 0.0 .
1171(18) 0.0 0.0 .
1181(18) 0.0 0.0 .
1204(19) 0.0 0.0 .
1242(19) 0.0 0.0 .
1174(18) 0.0 0.0 .
1178(18) 0.0 0.0 .
1193(18) 0.0 0.0 .
1165(18) 0.0 0.0 .
1256(20) 0.0 0.0 .
1233(19) 0.0 0.0 .
1230(18) 0.0 0.0 .
1214(18) 0.0 0.0 .
1245(19) 0.0 0.0 .
1240(19) 0.0 0.0 .
1215(18) 0.0 0.0 .
1239(18) 0.0 0.0 .
1204(18) 0.0 0.0 .
1258(19) 0.0 0.0 .
1214(19) 0.0 0.0 .
1288(19) 0.0 0.0 .
1279(19) 0.0 0.0 .
1257(18) 0.0 0.0 .
1226(19) 0.0 0.0 .
1230(19) 0.0 0.0 .
1259(19) 0.0 0.0 .
1244(18) 0.0 0.0 .
1250(18) 0.0 0.0 .
1301(20) 0.0 0.0 .
1260(20) 0.0 0.0 .
1247(19) 0.0 0.0 .
1269(18) 0.0 0.0 .
1255(19) 0.0 0.0 .
1283(19) 0.0 0.0 .
1294(20) 0.0 0.0 .
1260(19) 0.0 0.0 .
1230(18) 0.0 0.0 .
1265(19) 0.0 0.0 .
1236(19) 0.0 0.0 .
1288(20) 0.0 0.0 .
1240(19) 0.0 0.0 .
1268(18) 0.0 0.0 .
1270(19) 0.0 0.0 .
1293(19) 0.0 0.0 .
1331(20) 0.0 0.0 .
1304(19) 0.0 0.0 .
1275(18) 0.0 0.0 .
1299(19) 0.0 0.0 .
1303(20) 0.0 0.0 .
1291(19) 0.0 0.0 .
1257(19) 0.0 0.0 .
1284(19) 0.0 0.0 .
1317(20) 0.0 0.0 .
1312(20) 0.0 0.0 .
1308(19) 0.0 0.0 .
1294(19) 0.0 0.0 .
1260(18) 0.0 0.0 .
1324(20) 0.0 0.0 .
1337(20) 0.0 0.0 .
1327(20) 0.0 0.0 .
1339(19) 0.0 0.0 .
1326(19) 0.0 0.0 .
1347(20) 0.0 0.0 .
1362(21) 0.0 0.0 .
1303(19) 0.0 0.0 .
1326(19) 0.0 0.0 .
1297(19) 0.0 0.0 .
1284(19) 0.0 0.0 .
1274(20) 0.0 0.0 .
1293(19) 0.0 0.0 .
1301(19) 0.0 0.0 .
1290(19) 0.0 0.0 .
1308(19) 0.0 0.0 .
1357(21) 0.0 0.0 .
1315(19) 0.0 0.0 .
1277(18) 0.0 0.0 .
1292(19) 0.0 0.0 .
1339(20) 0.0 0.0 .
1362(21) 0.0 0.0 .
1296(19) 0.0 0.0 .
1313(19) 0.0 0.0 .
1331(19) 0.0 0.0 .
1286(19) 0.0 0.0 .
1346(20) 0.0 0.0 .
1269(19) 0.0 0.0 .
1257(18) 0.0 0.0 .
1315(19) 0.0 0.0 .
1347(20) 0.0 0.0 .
1277(20) 0.0 0.0 .
1342(20) 0.0 0.0 .
1278(19) 0.0 0.0 .
1317(19) 0.0 0.0 .
1309(19) 0.0 0.0 .
1348(20) 0.0 0.0 .
1312(19) 0.0 0.0 .
1316(19) 0.0 0.0 .
1319(19) 0.0 0.0 .
1338(20) 0.0 0.0 .
1340(20) 0.0 0.0 .
1267(19) 0.0 0.0 .
1290(19) 0.0 0.0 .
1299(19) 0.0 0.0 .
1293(20) 0.0 0.0 .
1285(19) 0.0 0.0 .
1282(19) 0.0 0.0 .
1273(19) 0.0 0.0 .
1338(20) 0.0 0.0 .
1307(20) 0.0 0.0 .
1293(19) 0.0 0.0 .
1300(19) 0.0 0.0 .
1299(19) 0.0 0.0 .
1314(19) 0.0 0.0 .
1320(20) 0.0 0.0 .
1317(19) 0.0 0.0 .
1269(19) 0.0 0.0 .
1277(19) 0.0 0.0 .
1305(19) 0.0 0.0 .
1285(20) 0.0 0.0 .
1263(19) 0.0 0.0 .
1347(19) 0.0 0.0 .
1270(19) 0.0 0.0 .
1313(19) 0.0 0.0 .
1293(20) 0.0 0.0 .
1305(20) 0.0 0.0 .
1256(18) 0.0 0.0 .
1301(19) 0.0 0.0 .
1320(19) 0.0 0.0 .
1320(20) 0.0 0.0 .
1306(20) 0.0 0.0 .
1284(19) 0.0 0.0 .
1300(19) 0.0 0.0 .
1251(19) 0.0 0.0 .
1302(20) 0.0 0.0 .
1274(19) 0.0 0.0 .
1260(18) 0.0 0.0 .
1306(19) 0.0 0.0 .
1294(19) 0.0 0.0 .
1258(19) 0.0 0.0 .
1304(20) 0.0 0.0 .
1321(19) 0.0 0.0 .
1261(19) 0.0 0.0 .
1278(19) 0.0 0.0 .
1259(19) 0.0 0.0 .
1294(19) 0.0 0.0 .
1316(19) 0.0 0.0 .
1298(19) 0.0 0.0 .
1310(19) 0.0 0.0 .
1292(19) 0.0 0.0 .
1201(18) 0.0 0.0 .
1295(19) 0.0 0.0 .
1292(19) 0.0 0.0 .
1284(20) 0.0 0.0 .
1299(20) 0.0 0.0 .
1257(19) 0.0 0.0 .
1289(19) 0.0 0.0 .
1302(19) 0.0 0.0 .
1274(19) 0.0 0.0 .
1292(19) 0.0 0.0 .
1243(18) 0.0 0.0 .
1274(19) 0.0 0.0 .
1286(19) 0.0 0.0 .
1277(20) 0.0 0.0 .
1269(19) 0.0 0.0 .
1237(18) 0.0 0.0 .
1271(18) 0.0 0.0 .
1251(19) 0.0 0.0 .
1281(20) 0.0 0.0 .
1288(19) 0.0 0.0 .
1235(18) 0.0 0.0 .
1288(19) 0.0 0.0 .
1235(19) 0.0 0.0 .
1211(19) 0.0 0.0 .
1287(19) 0.0 0.0 .
1271(18) 0.0 0.0 .
1237(18) 0.0 0.0 .
1239(19) 0.0 0.0 .
1238(20) 0.0 0.0 .
1303(19) 0.0 0.0 .
1290(19) 0.0 0.0 .
1229(18) 0.0 0.0 .
1237(19) 0.0 0.0 .
1260(20) 0.0 0.0 .
1237(19) 0.0 0.0 .
1225(18) 0.0 0.0 .
1307(19) 0.0 0.0 .
1248(19) 0.0 0.0 .
1259(19) 0.0 0.0 .
1230(19) 0.0 0.0 .
1232(18) 0.0 0.0 .
1274(19) 0.0 0.0 .
1227(19) 0.0 0.0 .
1238(19) 0.0 0.0 .
1252(19) 0.0 0.0 .
1295(19) 0.0 0.0 .
1246(19) 0.0 0.0 .
1259(19) 0.0 0.0 .
1291(20) 0.0 0.0 .
1248(19) 0.0 0.0 .
1235(18) 0.0 0.0 .
1220(19) 0.0 0.0 .
1241(19) 0.0 0.0 .
1205(19) 0.0 0.0 .
1216(18) 0.0 0.0 .
1163(18) 0.0 0.0 .
1225(19) 0.0 0.0 .
1262(19) 0.0 0.0 .
1206(19) 0.0 0.0 .
1230(18) 0.0 0.0 .
1196(18) 0.0 0.0 .
1255(19) 0.0 0.0 .
1191(19) 0.0 0.0 .
1229(19) 0.0 0.0 .
1216(18) 0.0 0.0 .
1227(18) 0.0 0.0 .
1206(19) 0.0 0.0 .
1238(19) 0.0 0.0 .
1209(19) 0.0 0.0 .
1245(18) 0.0 0.0 .
1233(18) 0.0 0.0 .
1179(18) 0.0 0.0 .
1238(20) 0.0 0.0 .
1209(19) 0.0 0.0 .
1229(18) 0.0 0.0 .
1220(18) 0.0 0.0 .
1208(19) 0.0 0.0 .
1180(19) 0.0 0.0 .
1245(19) 0.0 0.0 .
1242(18) 0.0 0.0 .
1183(18) 0.0 0.0 .
1188(19) 0.0 0.0 .
1166(19) 0.0 0.0 .
1192(19) 0.0 0.0 .
1205(18) 0.0 0.0 .
1146(18) 0.0 0.0 .
1148(18) 0.0 0.0 .
1204(19) 0.0 0.0 .
1218(19) 0.0 0.0 .
1211(18) 0.0 0.0 .
1219(18) 0.0 0.0 .
1199(19) 0.0 0.0 .
1220(19) 0.0 0.0 .
1203(18) 0.0 0.0 .
1196(18) 0.0 0.0 .
1174(18) 0.0 0.0 .
1204(19) 0.0 0.0 .
1224(19) 0.0 0.0 .
1218(19) 0.0 0.0 .
1192(18) 0.0 0.0 .
1170(18) 0.0 0.0 .
1186(19) 0.0 0.0 .
1142(18) 0.0 0.0 .
1232(19) 0.0 0.0 .
1191(18) 0.0 0.0 .
1162(18) 0.0 0.0 .
1202(19) 0.0 0.0 .
1158(18) 0.0 0.0 .
1211(18) 0.0 0.0 .
1220(18) 0.0 0.0 .
1183(19) 0.0 0.0 .
1169(19) 0.0 0.0 .
1157(18) 0.0 0.0 .
1173(18) 0.0 0.0 .
1196(18) 0.0 0.0 .
1097(18) 0.0 0.0 .
1209(19) 0.0 0.0 .
1160(18) 0.0 0.0 .
1184(18) 0.0 0.0 .
1169(18) 0.0 0.0 .
1122(18) 0.0 0.0 .
1162(19) 0.0 0.0 .
1168(18) 0.0 0.0 .
1191(18) 0.0 0.0 .
1145(18) 0.0 0.0 .
1155(18) 0.0 0.0 .
1210(20) 0.0 0.0 .
1149(18) 0.0 0.0 .
1111(17) 0.0 0.0 .
1169(18) 0.0 0.0 .
1161(18) 0.0 0.0 .
1175(19) 0.0 0.0 .
1169(18) 0.0 0.0 .
1160(18) 0.0 0.0 .
1157(18) 0.0 0.0 .
1124(18) 0.0 0.0 .
1136(19) 0.0 0.0 .
1161(18) 0.0 0.0 .
1114(17) 0.0 0.0 .
1147(18) 0.0 0.0 .
1128(18) 0.0 0.0 .
1143(19) 0.0 0.0 .
1174(19) 0.0 0.0 .
1154(18) 0.0 0.0 .
1121(18) 0.0 0.0 .
1141(18) 0.0 0.0 .
1142(18) 0.0 0.0 .
1124(18) 0.0 0.0 .
1151(18) 0.0 0.0 .
1133(18) 0.0 0.0 .
1147(18) 0.0 0.0 .
1129(18) 0.0 0.0 .
1173(18) 0.0 0.0 .
1147(18) 0.0 0.0 .
1169(18) 0.0 0.0 .
1138(18) 0.0 0.0 .
1108(18) 0.0 0.0 .
1124(18) 0.0 0.0 .
1133(17) 0.0 0.0 .
1117(18) 0.0 0.0 .
1154(19) 0.0 0.0 .
1145(18) 0.0 0.0 .
1122(18) 0.0 0.0 .
1139(18) 0.0 0.0 .
1086(18) 0.0 0.0 .
1090(18) 0.0 0.0 .
1109(18) 0.0 0.0 .
1076(17) 0.0 0.0 .
1133(17) 0.0 0.0 .
1139(18) 0.0 0.0 .
1113(19) 0.0 0.0 .
1101(18) 0.0 0.0 .
1106(17) 0.0 0.0 .
1109(17) 0.0 0.0 .
1080(17) 0.0 0.0 .
1144(19) 0.0 0.0 .
1085(18) 0.0 0.0 .
1140(18) 0.0 0.0 .
1089(17) 0.0 0.0 .
1069(18) 0.0 0.0 .
1089(18) 0.0 0.0 .
1089(18) 0.0 0.0 .
1115(17) 0.0 0.0 .
1169(18) 0.0 0.0 .
1129(18) 0.0 0.0 .
1114(18) 0.0 0.0 .
1070(18) 0.0 0.0 .
1105(17) 0.0 0.0 .
1114(18) 0.0 0.0 .
1053(18) 0.0 0.0 .
1015(17) 0.0 0.0 .
1131(18) 0.0 0.0 .
1102(17) 0.0 0.0 .
1096(18) 0.0 0.0 .
1095(18) 0.0 0.0 .
1086(18) 0.0 0.0 .
1071(17) 0.0 0.0 .
1059(17) 0.0 0.0 .
1068(17) 0.0 0.0 .
1096(18) 0.0 0.0 .
1100(18) 0.0 0.0 .
1036(17) 0.0 0.0 .
1116(17) 0.0 0.0 .
1060(17) 0.0 0.0 .
1015(17) 0.0 0.0 .
1067(18) 0.0 0.0 .
1085(17) 0.0 0.0 .
1081(17) 0.0 0.0 .
1068(18) 0.0 0.0 .
1086(18) 0.0 0.0 .
1012(17) 0.0 0.0 .
1078(17) 0.0 0.0 .
1070(17) 0.0 0.0 .
1084(18) 0.0 0.0 .
1061(18) 0.0 0.0 .
1086(18) 0.0 0.0 .
1069(17) 0.0 0.0 .
1062(17) 0.0 0.0 .
1064(18) 0.0 0.0 .
1021(18) 0.0 0.0 .
1040(17) 0.0 0.0 .
1069(17) 0.0 0.0 .
1083(17) 0.0 0.0 .
1032(17) 0.0 0.0 .
1077(18) 0.0 0.0 .
1018(17) 0.0 0.0 .
1000(16) 0.0 0.0 .
1039(17) 0.0 0.0 .
1020(17) 0.0 0.0 .
1027(18) 0.0 0.0 .
1042(17) 0.0 0.0 .
1009(17) 0.0 0.0 .
1030(17) 0.0 0.0 .
1009(17) 0.0 0.0 .
1018(18) 0.0 0.0 .
1071(18) 0.0 0.0 .
1030(17) 0.0 0.0 .
1044(17) 0.0 0.0 .
1061(17) 0.0 0.0 .
1038(18) 0.0 0.0 .
1040(17) 0.0 0.0 .
985(16) 0.0 0.0 .
1013(17) 0.0 0.0 .
1013(17) 0.0 0.0 .
1032(17) 0.0 0.0 .
996(17) 0.0 0.0 .
980(16) 0.0 0.0 .
1033(17) 0.0 0.0 .
1014(17) 0.0 0.0 .
1026(17) 0.0 0.0 .
1024(17) 0.0 0.0 .
1037(17) 0.0 0.0 .
1007(17) 0.0 0.0 .
1010(17) 0.0 0.0 .
1022(17) 0.0 0.0 .
986(17) 0.0 0.0 .
996(16) 0.0 0.0 .
998(17) 0.0 0.0 .
997(17) 0.0 0.0 .
1006(17) 0.0 0.0 .
1002(17) 0.0 0.0 .
1057(17) 0.0 0.0 .
1018(17) 0.0 0.0 .
1021(18) 0.0 0.0 .
962(17) 0.0 0.0 .
971(16) 0.0 0.0 .
1017(17) 0.0 0.0 .
972(17) 0.0 0.0 .
989(17) 0.0 0.0 .
1001(17) 0.0 0.0 .
1021(17) 0.0 0.0 .
1024(17) 0.0 0.0 .
1028(17) 0.0 0.0 .
985(17) 0.0 0.0 .
1031(17) 0.0 0.0 .
1015(17) 0.0 0.0 .
1007(16) 0.0 0.0 .
998(17) 0.0 0.0 .
1048(18) 0.0 0.0 .
1012(17) 0.0 0.0 .
979(16) 0.0 0.0 .
1022(17) 0.0 0.0 .
990(17) 0.0 0.0 .
1034(18) 0.0 0.0 .
991(17) 0.0 0.0 .
1054(17) 0.0 0.0 .
986(16) 0.0 0.0 .
1000(17) 0.0 0.0 .
1001(17) 0.0 0.0 .
977(17) 0.0 0.0 .
975(16) 0.0 0.0 .
960(16) 0.0 0.0 .
993(17) 0.0 0.0 .
986(17) 0.0 0.0 .
980(17) 0.0 0.0 .
962(16) 0.0 0.0 .
953(16) 0.0 0.0 .
1001(17) 0.0 0.0 .
1018(17) 0.0 0.0 .
989(17) 0.0 0.0 .
971(16) 0.0 0.0 .
938(16) 0.0 0.0 .
991(17) 0.0 0.0 .
969(17) 0.0 0.0 .
978(17) 0.0 0.0 .
958(16) 0.0 0.0 .
982(17) 0.0 0.0 .
987(17) 0.0 0.0 .
993(17) 0.0 0.0 .
985(17) 0.0 0.0 .
979(16) 0.0 0.0 .
1007(17) 0.0 0.0 .
956(17) 0.0 0.0 .
990(17) 0.0 0.0 .
959(16) 0.0 0.0 .
958(16) 0.0 0.0 .
999(17) 0.0 0.0 .
994(17) 0.0 0.0 .
907(16) 0.0 0.0 .
977(16) 0.0 0.0 .
974(16) 0.0 0.0 .
996(17) 0.0 0.0 .
1004(18) 0.0 0.0 .
919(16) 0.0 0.0 .
933(16) 0.0 0.0 .
952(16) 0.0 0.0 .
957(17) 0.0 0.0 .
1000(18) 0.0 0.0 .
980(17) 0.0 0.0 .
940(16) 0.0 0.0 .
938(16) 0.0 0.0 .
961(16) 0.0 0.0 .
934(17) 0.0 0.0 .
947(17) 0.0 0.0 .
991(16) 0.0 0.0 .
947(16) 0.0 0.0 .
970(17) 0.0 0.0 .
916(16) 0.0 0.0 .
934(17) 0.0 0.0 .
971(16) 0.0 0.0 .
983(16) 0.0 0.0 .
977(17) 0.0 0.0 .
913(16) 0.0 0.0 .
972(17) 0.0 0.0 .
962(16) 0.0 0.0 .
921(16) 0.0 0.0 .
927(16) 0.0 0.0 .
962(17) 0.0 0.0 .
907(16) 0.0 0.0 .
938(16) 0.0 0.0 .
922(16) 0.0 0.0 .
945(17) 0.0 0.0 .
899(16) 0.0 0.0 .
876(16) 0.0 0.0 .
898(16) 0.0 0.0 .
956(17) 0.0 0.0 .
917(16) 0.0 0.0 .
942(16) 0.0 0.0 .
916(16) 0.0 0.0 .
945(16) 0.0 0.0 .
990(17) 0.0 0.0 .
941(17) 0.0 0.0 .
901(16) 0.0 0.0 .
910(16) 0.0 0.0 .
938(16) 0.0 0.0 .
905(16) 0.0 0.0 .
925(17) 0.0 0.0 .
951(17) 0.0 0.0 .
928(16) 0.0 0.0 .
912(16) 0.0 0.0 .
943(16) 0.0 0.0 .
919(17) 0.0 0.0 .
877(16) 0.0 0.0 .
924(16) 0.0 0.0 .
913(16) 0.0 0.0 .
891(16) 0.0 0.0 .
895(17) 0.0 0.0 .
924(16) 0.0 0.0 .
944(16) 0.0 0.0 .
886(15) 0.0 0.0 .
912(16) 0.0 0.0 .
925(17) 0.0 0.0 .
904(16) 0.0 0.0 .
892(15) 0.0 0.0 .
872(15) 0.0 0.0 .
948(17) 0.0 0.0 .
916(17) 0.0 0.0 .
938(17) 0.0 0.0 .
948(16) 0.0 0.0 .
934(16) 0.0 0.0 .
903(16) 0.0 0.0 .
918(17) 0.0 0.0 .
916(16) 0.0 0.0 .
928(16) 0.0 0.0 .
908(16) 0.0 0.0 .
881(16) 0.0 0.0 .
874(16) 0.0 0.0 .
876(16) 0.0 0.0 .
881(15) 0.0 0.0 .
887(16) 0.0 0.0 .
916(16) 0.0 0.0 .
891(16) 0.0 0.0 .
911(16) 0.0 0.0 .
918(16) 0.0 0.0 .
929(16) 0.0 0.0 .
900(16) 0.0 0.0 .
896(16) 0.0 0.0 .
870(15) 0.0 0.0 .
930(16) 0.0 0.0 .
901(16) 0.0 0.0 .
875(16) 0.0 0.0 .
889(16) 0.0 0.0 .
921(16) 0.0 0.0 .
910(16) 0.0 0.0 .
899(16) 0.0 0.0 .
879(16) 0.0 0.0 .
885(16) 0.0 0.0 .
888(16) 0.0 0.0 .
868(15) 0.0 0.0 .
851(16) 0.0 0.0 .
839(16) 0.0 0.0 .
871(16) 0.0 0.0 .
862(15) 0.0 0.0 .
885(15) 0.0 0.0 .
862(16) 0.0 0.0 .
856(16) 0.0 0.0 .
883(16) 0.0 0.0 .
890(15) 0.0 0.0 .
883(15) 0.0 0.0 .
866(16) 0.0 0.0 .
853(16) 0.0 0.0 .
843(16) 0.0 0.0 .
855(15) 0.0 0.0 .
870(15) 0.0 0.0 .
881(16) 0.0 0.0 .
883(17) 0.0 0.0 .
913(16) 0.0 0.0 .
883(15) 0.0 0.0 .
925(16) 0.0 0.0 .
859(15) 0.0 0.0 .
878(16) 0.0 0.0 .
877(16) 0.0 0.0 .
903(16) 0.0 0.0 .
899(16) 0.0 0.0 .
874(16) 0.0 0.0 .
838(16) 0.0 0.0 .
860(16) 0.0 0.0 .
823(15) 0.0 0.0 .
845(15) 0.0 0.0 .
857(16) 0.0 0.0 .
837(16) 0.0 0.0 .
860(16) 0.0 0.0 .
829(15) 0.0 0.0 .
869(16) 0.0 0.0 .
837(16) 0.0 0.0 .
829(16) 0.0 0.0 .
827(16) 0.0 0.0 .
855(15) 0.0 0.0 .
821(15) 0.0 0.0 .
820(16) 0.0 0.0 .
851(16) 0.0 0.0 .
851(15) 0.0 0.0 .
857(15) 0.0 0.0 .
857(16) 0.0 0.0 .
840(16) 0.0 0.0 .
836(16) 0.0 0.0 .
855(15) 0.0 0.0 .
843(15) 0.0 0.0 .
843(16) 0.0 0.0 .
847(16) 0.0 0.0 .
826(15) 0.0 0.0 .
838(15) 0.0 0.0 .
840(15) 0.0 0.0 .
828(15) 0.0 0.0 .
830(16) 0.0 0.0 .
832(16) 0.0 0.0 .
846(15) 0.0 0.0 .
827(15) 0.0 0.0 .
834(16) 0.0 0.0 .
788(16) 0.0 0.0 .
797(15) 0.0 0.0 .
839(15) 0.0 0.0 .
836(15) 0.0 0.0 .
817(15) 0.0 0.0 .
824(16) 0.0 0.0 .
838(16) 0.0 0.0 .
816(15) 0.0 0.0 .
859(15) 0.0 0.0 .
887(16) 0.0 0.0 .
851(16) 0.0 0.0 .
841(16) 0.0 0.0 .
841(15) 0.0 0.0 .
825(15) 0.0 0.0 .
768(15) 0.0 0.0 .
810(16) 0.0 0.0 .
836(16) 0.0 0.0 .
852(15) 0.0 0.0 .
823(15) 0.0 0.0 .
816(15) 0.0 0.0 .
783(15) 0.0 0.0 .
836(15) 0.0 0.0 .
838(15) 0.0 0.0 .
823(15) 0.0 0.0 .
812(15) 0.0 0.0 .
835(16) 0.0 0.0 .
794(15) 0.0 0.0 .
796(15) 0.0 0.0 .
818(15) 0.0 0.0 .
821(16) 0.0 0.0 .
816(15) 0.0 0.0 .
854(16) 0.0 0.0 .
812(15) 0.0 0.0 .
793(15) 0.0 0.0 .
785(15) 0.0 0.0 .
830(16) 0.0 0.0 .
817(15) 0.0 0.0 .
815(15) 0.0 0.0 .
793(15) 0.0 0.0 .
791(15) 0.0 0.0 .
835(15) 0.0 0.0 .
792(15) 0.0 0.0 .
801(15) 0.0 0.0 .
807(15) 0.0 0.0 .
806(16) 0.0 0.0 .
823(15) 0.0 0.0 .
801(15) 0.0 0.0 .
810(15) 0.0 0.0 .
815(15) 0.0 0.0 .
812(16) 0.0 0.0 .
821(15) 0.0 0.0 .
772(14) 0.0 0.0 .
784(15) 0.0 0.0 .
788(15) 0.0 0.0 .
771(16) 0.0 0.0 .
787(15) 0.0 0.0 .
795(15) 0.0 0.0 .
801(15) 0.0 0.0 .
777(15) 0.0 0.0 .
761(15) 0.0 0.0 .
810(15) 0.0 0.0 .
783(14) 0.0 0.0 .
769(15) 0.0 0.0 .
820(15) 0.0 0.0 .
794(15) 0.0 0.0 .
789(15) 0.0 0.0 .
801(15) 0.0 0.0 .
780(15) 0.0 0.0 .
808(15) 0.0 0.0 .
789(15) 0.0 0.0 .
770(15) 0.0 0.0 .
804(15) 0.0 0.0 .
791(15) 0.0 0.0 .
739(15) 0.0 0.0 .
803(16) 0.0 0.0 .
784(15) 0.0 0.0 .
777(14) 0.0 0.0 .
752(15) 0.0 0.0 .
770(15) 0.0 0.0 .
760(15) 0.0 0.0 .
758(14) 0.0 0.0 .
764(14) 0.0 0.0 .
785(15) 0.0 0.0 .
717(14) 0.0 0.0 .
755(15) 0.0 0.0 .
763(15) 0.0 0.0 .
795(15) 0.0 0.0 .
782(15) 0.0 0.0 .
758(15) 0.0 0.0 .
783(15) 0.0 0.0 .
824(15) 0.0 0.0 .
768(14) 0.0 0.0 .
765(15) 0.0 0.0 .
743(15) 0.0 0.0 .
759(15) 0.0 0.0 .
755(14) 0.0 0.0 .
788(15) 0.0 0.0 .
755(15) 0.0 0.0 .
756(15) 0.0 0.0 .
754(15) 0.0 0.0 .
719(14) 0.0 0.0 .
756(14) 0.0 0.0 .
781(15) 0.0 0.0 .
766(15) 0.0 0.0 .
753(15) 0.0 0.0 .
805(15) 0.0 0.0 .
753(14) 0.0 0.0 .
794(15) 0.0 0.0 .
751(15) 0.0 0.0 .
747(15) 0.0 0.0 .
781(15) 0.0 0.0 .
737(14) 0.0 0.0 .
732(15) 0.0 0.0 .
762(15) 0.0 0.0 .
749(15) 0.0 0.0 .
728(14) 0.0 0.0 .
784(15) 0.0 0.0 .
777(15) 0.0 0.0 .
781(15) 0.0 0.0 .
742(15) 0.0 0.0 .
745(14) 0.0 0.0 .
743(14) 0.0 0.0 .
738(15) 0.0 0.0 .
733(15) 0.0 0.0 .
732(15) 0.0 0.0 .
740(14) 0.0 0.0 .
721(14) 0.0 0.0 .
747(15) 0.0 0.0 .
745(15) 0.0 0.0 .
757(14) 0.0 0.0 .
764(14) 0.0 0.0 .
742(15) 0.0 0.0 .
740(15) 0.0 0.0 .
746(15) 0.0 0.0 .
738(14) 0.0 0.0 .
712(14) 0.0 0.0 .
711(14) 0.0 0.0 .
762(15) 0.0 0.0 .
746(14) 0.0 0.0 .
755(14) 0.0 0.0 .
746(14) 0.0 0.0 .
708(14) 0.0 0.0 .
713(15) 0.0 0.0 .
738(14) 0.0 0.0 .
755(14) 0.0 0.0 .
754(14) 0.0 0.0 .
744(14) 0.0 0.0 .
767(15) 0.0 0.0 .
757(15) 0.0 0.0 .
735(14) 0.0 0.0 .
742(14) 0.0 0.0 .
708(14) 0.0 0.0 .
755(15) 0.0 0.0 .
764(15) 0.0 0.0 .
723(14) 0.0 0.0 .
710(14) 0.0 0.0 .
735(14) 0.0 0.0 .
717(15) 0.0 0.0 .
710(14) 0.0 0.0 .
694(14) 0.0 0.0 .
711(14) 0.0 0.0 .
715(14) 0.0 0.0 .
709(14) 0.0 0.0 .
738(15) 0.0 0.0 .
734(14) 0.0 0.0 .
714(14) 0.0 0.0 .
715(14) 0.0 0.0 .
694(14) 0.0 0.0 .
737(15) 0.0 0.0 .
735(14) 0.0 0.0 .
763(14) 0.0 0.0 .
691(14) 0.0 0.0 .
748(15) 0.0 0.0 .
725(14) 0.0 0.0 .
741(14) 0.0 0.0 .
706(14) 0.0 0.0 .
710(14) 0.0 0.0 .
718(15) 0.0 0.0 .
678(14) 0.0 0.0 .
712(14) 0.0 0.0 .
741(15) 0.0 0.0 .
751(15) 0.0 0.0 .
702(14) 0.0 0.0 .
714(14) 0.0 0.0 .
729(14) 0.0 0.0 .
700(14) 0.0 0.0 .
709(15) 0.0 0.0 .
672(14) 0.0 0.0 .
712(14) 0.0 0.0 .
745(14) 0.0 0.0 .
698(14) 0.0 0.0 .
712(15) 0.0 0.0 .
718(14) 0.0 0.0 .
740(14) 0.0 0.0 .
715(14) 0.0 0.0 .
706(14) 0.0 0.0 .
709(15) 0.0 0.0 .
684(14) 0.0 0.0 .
679(14) 0.0 0.0 .
741(14) 0.0 0.0 .
726(14) 0.0 0.0 .
705(15) 0.0 0.0 .
694(14) 0.0 0.0 .
695(14) 0.0 0.0 .
711(14) 0.0 0.0 .
738(15) 0.0 0.0 .
704(15) 0.0 0.0 .
700(14) 0.0 0.0 .
698(14) 0.0 0.0 .
728(14) 0.0 0.0 .
693(14) 0.0 0.0 .
666(14) 0.0 0.0 .
666(14) 0.0 0.0 .
738(14) 0.0 0.0 .
666(14) 0.0 0.0 .
730(15) 0.0 0.0 .
693(14) 0.0 0.0 .
691(14) 0.0 0.0 .
703(14) 0.0 0.0 .
713(14) 0.0 0.0 .
739(15) 0.0 0.0 .
735(15) 0.0 0.0 .
706(14) 0.0 0.0 .
732(14) 0.0 0.0 .
723(14) 0.0 0.0 .
722(14) 0.0 0.0 .
742(15) 0.0 0.0 .
718(14) 0.0 0.0 .
707(14) 0.0 0.0 .
690(14) 0.0 0.0 .
696(14) 0.0 0.0 .
651(14) 0.0 0.0 .
665(14) 0.0 0.0 .
675(14) 0.0 0.0 .
694(14) 0.0 0.0 .
707(14) 0.0 0.0 .
708(14) 0.0 0.0 .
679(14) 0.0 0.0 .
699(14) 0.0 0.0 .
689(14) 0.0 0.0 .
691(14) 0.0 0.0 .
717(14) 0.0 0.0 .
700(14) 0.0 0.0 .
643(13) 0.0 0.0 .
703(14) 0.0 0.0 .
727(15) 0.0 0.0 .
703(14) 0.0 0.0 .
665(13) 0.0 0.0 .
681(14) 0.0 0.0 .
689(14) 0.0 0.0 .
668(14) 0.0 0.0 .
667(14) 0.0 0.0 .
685(14) 0.0 0.0 .
655(13) 0.0 0.0 .
677(14) 0.0 0.0 .
673(14) 0.0 0.0 .
654(14) 0.0 0.0 .
676(14) 0.0 0.0 .
687(14) 0.0 0.0 .
680(14) 0.0 0.0 .
650(14) 0.0 0.0 .
657(14) 0.0 0.0 .
664(13) 0.0 0.0 .
688(14) 0.0 0.0 .
669(14) 0.0 0.0 .
672(14) 0.0 0.0 .
677(14) 0.0 0.0 .
689(14) 0.0 0.0 .
705(14) 0.0 0.0 .
716(14) 0.0 0.0 .
687(14) 0.0 0.0 .
685(14) 0.0 0.0 .
680(14) 0.0 0.0 .
698(14) 0.0 0.0 .
662(14) 0.0 0.0 .
665(14) 0.0 0.0 .
677(14) 0.0 0.0 .
692(14) 0.0 0.0 .
674(14) 0.0 0.0 .
705(14) 0.0 0.0 .
675(14) 0.0 0.0 .
705(14) 0.0 0.0 .
665(13) 0.0 0.0 .
689(14) 0.0 0.0 .
662(14) 0.0 0.0 .
683(14) 0.0 0.0 .
695(14) 0.0 0.0 .
672(13) 0.0 0.0 .
663(14) 0.0 0.0 .
706(15) 0.0 0.0 .
691(14) 0.0 0.0 .
682(14) 0.0 0.0 .
665(13) 0.0 0.0 .
687(14) 0.0 0.0 .
682(14) 0.0 0.0 .
668(14) 0.0 0.0 .
681(14) 0.0 0.0 .
674(13) 0.0 0.0 .
714(14) 0.0 0.0 .
667(14) 0.0 0.0 .
701(14) 0.0 0.0 .
667(13) 0.0 0.0 .
685(14) 0.0 0.0 .
669(14) 0.0 0.0 .
651(14) 0.0 0.0 .
680(14) 0.0 0.0 .
660(13) 0.0 0.0 .
674(13) 0.0 0.0 .
681(14) 0.0 0.0 .
669(14) 0.0 0.0 .
687(14) 0.0 0.0 .
665(13) 0.0 0.0 .
665(14) 0.0 0.0 .
693(14) 0.0 0.0 .
673(14) 0.0 0.0 .
690(14) 0.0 0.0 .
667(13) 0.0 0.0 .
683(14) 0.0 0.0 .
672(14) 0.0 0.0 .
694(15) 0.0 0.0 .
639(14) 0.0 0.0 .
665(13) 0.0 0.0 .
649(14) 0.0 0.0 .
623(13) 0.0 0.0 .
658(14) 0.0 0.0 .
681(14) 0.0 0.0 .
665(13) 0.0 0.0 .
633(13) 0.0 0.0 .
615(13) 0.0 0.0 .
644(14) 0.0 0.0 .
648(14) 0.0 0.0 .
652(13) 0.0 0.0 .
651(14) 0.0 0.0 .
641(14) 0.0 0.0 .
648(14) 0.0 0.0 .
672(14) 0.0 0.0 .
653(13) 0.0 0.0 .
655(14) 0.0 0.0 .
650(14) 0.0 0.0 .
609(13) 0.0 0.0 .
637(13) 0.0 0.0 .
696(14) 0.0 0.0 .
669(14) 0.0 0.0 .
664(14) 0.0 0.0 .
663(14) 0.0 0.0 .
672(14) 0.0 0.0 .
660(13) 0.0 0.0 .
665(14) 0.0 0.0 .
683(15) 0.0 0.0 .
671(14) 0.0 0.0 .
642(13) 0.0 0.0 .
672(13) 0.0 0.0 .
636(14) 0.0 0.0 .
635(14) 0.0 0.0 .
652(14) 0.0 0.0 .
662(13) 0.0 0.0 .
654(13) 0.0 0.0 .
689(14) 0.0 0.0 .
642(14) 0.0 0.0 .
655(14) 0.0 0.0 .
647(13) 0.0 0.0 .
640(13) 0.0 0.0 .
680(14) 0.0 0.0 .
675(14) 0.0 0.0 .
643(14) 0.0 0.0 .
683(13) 0.0 0.0 .
630(13) 0.0 0.0 .
615(13) 0.0 0.0 .
652(14) 0.0 0.0 .
651(14) 0.0 0.0 .
689(14) 0.0 0.0 .
646(13) 0.0 0.0 .
643(14) 0.0 0.0 .
639(14) 0.0 0.0 .
658(14) 0.0 0.0 .
622(13) 0.0 0.0 .
639(13) 0.0 0.0 .
630(14) 0.0 0.0 .
658(14) 0.0 0.0 .
612(13) 0.0 0.0 .
643(13) 0.0 0.0 .
643(14) 0.0 0.0 .
632(14) 0.0 0.0 .
655(14) 0.0 0.0 .
662(14) 0.0 0.0 .
665(13) 0.0 0.0 .
680(14) 0.0 0.0 .
660(14) 0.0 0.0 .
656(14) 0.0 0.0 .
675(14) 0.0 0.0 .
657(13) 0.0 0.0 .
665(14) 0.0 0.0 .
657(14) 0.0 0.0 .
640(13) 0.0 0.0 .
652(13) 0.0 0.0 .
645(13) 0.0 0.0 .
669(14) 0.0 0.0 .
669(14) 0.0 0.0 .
667(14) 0.0 0.0 .
626(13) 0.0 0.0 .
677(14) 0.0 0.0 .
651(14) 0.0 0.0 .
658(14) 0.0 0.0 .
671(14) 0.0 0.0 .
675(13) 0.0 0.0 .
627(13) 0.0 0.0 .
655(14) 0.0 0.0 .
689(15) 0.0 0.0 .
673(14) 0.0 0.0 .
665(13) 0.0 0.0 .
653(13) 0.0 0.0 .
667(14) 0.0 0.0 .
663(14) 0.0 0.0 .
652(14) 0.0 0.0 .
659(13) 0.0 0.0 .
677(14) 0.0 0.0 .
692(14) 0.0 0.0 .
685(14) 0.0 0.0 .
666(14) 0.0 0.0 .
664(13) 0.0 0.0 .
663(14) 0.0 0.0 .
674(14) 0.0 0.0 .
646(14) 0.0 0.0 .
683(14) 0.0 0.0 .
646(13) 0.0 0.0 .
676(14) 0.0 0.0 .
670(14) 0.0 0.0 .
677(14) 0.0 0.0 .
689(14) 0.0 0.0 .
661(13) 0.0 0.0 .
661(14) 0.0 0.0 .
709(15) 0.0 0.0 .
663(14) 0.0 0.0 .
696(14) 0.0 0.0 .
648(13) 0.0 0.0 .
672(14) 0.0 0.0 .
670(14) 0.0 0.0 .
650(14) 0.0 0.0 .
651(13) 0.0 0.0 .
679(14) 0.0 0.0 .
711(14) 0.0 0.0 .
685(14) 0.0 0.0 .
668(14) 0.0 0.0 .
680(14) 0.0 0.0 .
663(13) 0.0 0.0 .
693(14) 0.0 0.0 .
716(15) 0.0 0.0 .
684(14) 0.0 0.0 .
725(14) 0.0 0.0 .
701(14) 0.0 0.0 .
711(14) 0.0 0.0 .
695(15) 0.0 0.0 .
671(14) 0.0 0.0 .
701(14) 0.0 0.0 .
719(14) 0.0 0.0 .
684(14) 0.0 0.0 .
702(15) 0.0 0.0 .
720(14) 0.0 0.0 .
731(14) 0.0 0.0 .
723(14) 0.0 0.0 .
703(14) 0.0 0.0 .
712(15) 0.0 0.0 .
705(14) 0.0 0.0 .
747(14) 0.0 0.0 .
724(14) 0.0 0.0 .
764(15) 0.0 0.0 .
764(15) 0.0 0.0 .
790(15) 0.0 0.0 .
745(14) 0.0 0.0 .
772(15) 0.0 0.0 .
805(15) 0.0 0.0 .
796(15) 0.0 0.0 .
866(16) 0.0 0.0 .
830(15) 0.0 0.0 .
851(15) 0.0 0.0 .
855(16) 0.0 0.0 .
877(16) 0.0 0.0 .
894(16) 0.0 0.0 .
913(16) 0.0 0.0 .
1000(17) 0.0 0.0 .
942(17) 0.0 0.0 .
962(17) 0.0 0.0 .
1040(17) 0.0 0.0 .
1051(17) 0.0 0.0 .
1073(18) 0.0 0.0 .
1190(19) 0.0 0.0 .
1222(19) 0.0 0.0 .
1186(18) 0.0 0.0 .
1278(19) 0.0 0.0 .
1324(19) 0.0 0.0 .
1398(21) 0.0 0.0 .
1446(20) 0.0 0.0 .
1444(20) 0.0 0.0 .
1519(20) 0.0 0.0 .
1564(21) 0.0 0.0 .
1655(22) 0.0 0.0 .
1779(23) 0.0 0.0 .
1944(23) 0.0 0.0 .
2012(23) 0.0 0.0 .
2171(25) 0.0 0.0 .
2364(27) 0.0 0.0 .
2698(28) 0.0 0.0 .
3035(29) 0.0 0.0 .
3303(30) 0.0 0.0 .
3937(34) 0.0 0.0 .
4389(37) 0.0 0. .
5117(39) 0.0 0. .
5834(40) 0.0 0. .
6686(43) 0.0 0. .
7855(48) 0.0 0. .
9027(53) 0.0 0. .
10155(55) 0.0 0. .
11435(56) 0.0 0. .
12601(59) 0.0 0. .
13796(64) 0.0 0. .
15392(69) 0.0 0. .
16954(71) 0.0 0. .
18486(72) 0.0 0. .
20418(76) 0.0 0. .
22723(82) 0.0 0. .
25772(89) 0.0 0. .
28804(94) 0.0 0. .
32307(96) 0.0 0. .
35620(100) 0.0 0. .
37420(110) 0.0 0. .
37500(110) 0.0 0. .
34650(100) 0.0 0. .
30148(92) 0.0 0. .
25205(87) 0.0 0. .
20687(79) 0.0 0. .
17372(72) 0.0 0. .
14377(64) 0.0 0. .
11862(57) 0.0 0. .
10087(55) 0.0 0. .
8460(50) 0.0 0. .
7210(46) 0.0 0. .
6167(41) 0.0 0. .
5284(38) 0.0 0. .
4688(37) 0.0 0. .
4048(35) 0.0 0.0 .
3593(32) 0.0 0.0 .
3319(30) 0.0 0.0 .
2953(28) 0.0 0.0 .
2658(28) 0.0 0.0 .
2448(27) 0.0 0.0 .
2168(25) 0.0 0.0 .
2046(24) 0.0 0.0 .
1881(23) 0.0 0.0 .
1752(22) 0.0 0.0 .
1636(23) 0.0 0.0 .
1580(21) 0.0 0.0 .
1464(20) 0.0 0.0 .
1437(20) 0.0 0.0 .
1318(20) 0.0 0.0 .
1260(20) 0.0 0.0 .
1219(19) 0.0 0.0 .
1195(18) 0.0 0.0 .
1129(18) 0.0 0.0 .
1076(18) 0.0 0.0 .
1045(18) 0.0 0.0 .
1049(18) 0.0 0.0 .
1032(17) 0.0 0.0 .
1018(17) 0.0 0.0 .
954(17) 0.0 0.0 .
953(17) 0.0 0.0 .
867(16) 0.0 0.0 .
919(16) 0.0 0.0 .
926(16) 0.0 0.0 .
899(16) 0.0 0.0 .
841(16) 0.0 0.0 .
874(16) 0.0 0.0 .
818(15) 0.0 0.0 .
821(15) 0.0 0.0 .
826(15) 0.0 0.0 .
775(15) 0.0 0.0 .
750(15) 0.0 0.0 .
743(14) 0.0 0.0 .
769(15) 0.0 0.0 .
761(15) 0.0 0.0 .
752(15) 0.0 0.0 .
754(15) 0.0 0.0 .
753(14) 0.0 0.0 .
752(15) 0.0 0.0 .
722(15) 0.0 0.0 .
737(15) 0.0 0.0 .
729(14) 0.0 0.0 .
728(14) 0.0 0.0 .
741(15) 0.0 0.0 .
692(14) 0.0 0.0 .
685(14) 0.0 0.0 .
703(14) 0.0 0.0 .
718(14) 0.0 0.0 .
696(14) 0.0 0.0 .
652(14) 0.0 0.0 .
659(14) 0.0 0.0 .
663(14) 0.0 0.0 .
712(14) 0.0 0.0 .
685(14) 0.0 0.0 .
663(14) 0.0 0.0 .
668(14) 0.0 0.0 .
656(13) 0.0 0.0 .
678(14) 0.0 0.0 .
685(14) 0.0 0.0 .
625(14) 0.0 0.0 .
654(14) 0.0 0.0 .
666(13) 0.0 0.0 .
678(14) 0.0 0.0 .
652(14) 0.0 0.0 .
634(14) 0.0 0.0 .
618(13) 0.0 0.0 .
627(13) 0.0 0.0 .
623(13) 0.0 0.0 .
650(14) 0.0 0.0 .
671(14) 0.0 0.0 .
658(14) 0.0 0.0 .
620(13) 0.0 0.0 .
642(13) 0.0 0.0 .
636(14) 0.0 0.0 .
639(14) 0.0 0.0 .
657(14) 0.0 0.0 .
620(13) 0.0 0.0 .
625(13) 0.0 0.0 .
636(14) 0.0 0.0 .
635(14) 0.0 0.0 .
631(13) 0.0 0.0 .
603(13) 0.0 0.0 .
649(13) 0.0 0.0 .
632(14) 0.0 0.0 .
614(13) 0.0 0.0 .
603(13) 0.0 0.0 .
584(13) 0.0 0.0 .
609(13) 0.0 0.0 .
632(14) 0.0 0.0 .
585(13) 0.0 0.0 .
613(13) 0.0 0.0 .
593(13) 0.0 0.0 .
613(13) 0.0 0.0 .
618(14) 0.0 0.0 .
581(13) 0.0 0.0 .
603(13) 0.0 0.0 .
631(13) 0.0 0.0 .
615(14) 0.0 0.0 .
578(13) 0.0 0.0 .
602(13) 0.0 0.0 .
610(13) 0.0 0.0 .
615(13) 0.0 0.0 .
609(13) 0.0 0.0 .
633(14) 0.0 0.0 .
624(13) 0.0 0.0 .
626(13) 0.0 0.0 .
605(13) 0.0 0.0 .
613(13) 0.0 0.0 .
610(14) 0.0 0.0 .
613(13) 0.0 0.0 .
618(13) 0.0 0.0 .
639(13) 0.0 0.0 .
627(14) 0.0 0.0 .
623(14) 0.0 0.0 .
584(13) 0.00570 598.8 39.4
594(13) 0.00586 598.8 38.9
572(12) 0.00610 598.8 38.3
604(13) 0.00548 598.8 37.7
636(14) 0.00500 598.5 37.2
615(13) 0.00528 598.0 36.7
617(13) 0.00571 597.6 36.2
607(13) 0.00575 597.2 35.7
653(14) 0.00505 596.8 35.2
597(13) 0.00529 596.4 34.7
581(13) 0.00542 596.0 34.2
596(13) 0.00586 595.6 33.7
599(13) 0.00567 595.1 33.3
609(13) 0.00528 594.7 32.8
568(13) 0.00554 594.3 32.4
576(13) 0.00573 593.9 32.0
553(12) 0.00632 593.5 31.6
594(13) 0.00570 593.1 31.2
653(14) 0.00489 592.6 30.7
610(14) 0.00522 592.2 30.4
605(13) 0.00560 591.8 30.0
582(13) 0.00600 591.4 29.6
588(13) 0.00563 591.0 29.2
615(13) 0.00537 590.6 28.9
578(13) 0.00564 590.2 28.5
569(12) 0.00607 589.7 28.1
592(13) 0.00593 589.3 27.8
606(13) 0.00547 588.9 27.5
594(13) 0.00549 588.5 27.1
592(13) 0.00564 588.1 26.8
569(12) 0.00608 587.7 26.5
598(13) 0.00586 587.3 26.2
584(13) 0.00558 586.8 25.9
578(13) 0.00542 586.4 25.6
604(13) 0.00524 586.0 25.3
542(12) 0.00631 585.6 25.0
594(13) 0.00598 585.2 24.7
598(13) 0.00556 584.8 24.4
554(13) 0.00562 584.4 24.1
558(13) 0.00583 583.9 23.9
572(13) 0.00590 583.5 23.6
594(13) 0.00589 583.1 23.3
593(13) 0.00573 582.7 23.1
575(13) 0.00549 582.3 22.8
584(13) 0.00572 581.9 22.6
594(13) 0.00586 581.4 22.3
573(12) 0.00619 581.0 22.1
593(13) 0.00560 580.6 21.9
584(13) 0.00524 580.2 21.6
584(13) 0.00566 579.8 21.4
578(12) 0.00611 579.4 21.2
576(12) 0.00608 579.0 21.0
582(13) 0.00569 578.5 20.7
549(13) 0.00569 578.1 20.5
568(13) 0.00566 577.7 20.3
574(12) 0.00611 577.3 20.1
587(13) 0.00594 576.9 19.9
587(13) 0.00566 576.5 19.7
575(13) 0.00552 576.1 19.5
539(13) 0.00605 575.6 19.3
546(12) 0.00644 575.2 19.1
569(13) 0.00601 574.8 18.9
582(13) 0.00575 574.4 18.8
580(13) 0.00548 574.0 18.6
568(13) 0.00574 573.6 18.4
602(13) 0.00587 573.2 18.2
566(13) 0.00586 572.7 18.0
552(13) 0.00595 572.3 17.9
558(13) 0.00583 571.9 17.7
538(12) 0.00612 571.5 17.5
560(12) 0.00628 571.1 17.4
536(12) 0.00618 570.7 17.2
555(13) 0.00577 570.2 17.1
555(13) 0.00579 569.8 16.9
543(12) 0.00624 569.4 16.8
559(12) 0.00629 569.0 16.6
537(12) 0.00624 568.6 16.5
562(13) 0.00563 568.2 16.3
551(13) 0.00578 567.8 16.2
555(12) 0.00613 567.3 16.0
561(12) 0.00624 566.9 15.9
559(13) 0.00591 566.5 15.7
559(13) 0.00577 566.1 15.6
577(13) 0.00565 565.7 15.5
571(13) 0.00599 565.3 15.4
573(12) 0.00614 564.9 15.2
546(13) 0.00590 564.4 15.1
573(13) 0.00547 564.0 15.0
577(13) 0.00577 563.6 14.8
567(12) 0.00606 563.2 14.7
541(12) 0.00652 562.8 14.6
558(13) 0.00585 562.4 14.5
575(13) 0.00531 562.0 14.4
555(13) 0.00597 561.5 14.3
561(12) 0.00628 561.1 14.1
547(12) 0.00637 560.7 14.0
556(13) 0.00578 560.3 13.9
551(13) 0.00541 559.9 13.8
546(13) 0.00588 559.5 13.7
577(13) 0.00605 559.0 13.6
558(12) 0.00632 558.6 13.5
572(13) 0.00574 558.2 13.4
561(13) 0.00558 557.8 13.3
586(13) 0.00566 557.4 13.2
587(12) 0.00606 557.0 13.1
569(13) 0.00605 556.6 13.0
598(13) 0.00550 556.1 12.9
534(13) 0.00593 555.7 12.8
543(13) 0.00593 555.3 12.7
563(12) 0.00624 554.9 12.7
591(13) 0.00572 554.5 12.6
547(12) 0.00614 554.1 12.5
581(13) 0.00550 553.7 12.4
552(13) 0.00585 553.2 12.3
547(12) 0.00641 552.8 12.2
550(12) 0.00621 552.4 12.1
555(13) 0.00576 552.0 12.1
546(13) 0.00578 551.6 12.0
518(12) 0.00641 551.2 11.9
559(12) 0.00630 550.8 11.8
536(12) 0.00614 550.3 11.8
510(12) 0.00641 549.9 11.7
559(13) 0.00579 549.5 11.6
583(13) 0.00585 549.1 11.5
541(12) 0.00648 548.7 11.5
541(13) 0.00603 548.3 11.4
569(13) 0.00554 547.8 11.3
592(13) 0.00555 547.4 11.3
551(12) 0.00629 547.0 11.2
572(12) 0.00614 546.6 11.2
555(13) 0.00576 546.2 11.1
535(12) 0.00613 545.8 11.0
571(13) 0.00571 545.4 11.0
533(12) 0.00630 544.9 10.9
539(12) 0.00649 544.5 10.9
573(13) 0.00569 544.1 10.8
538(13) 0.00595 543.7 10.7
575(13) 0.00566 543.3 10.7
553(12) 0.00616 542.9 10.6
557(12) 0.00636 542.5 10.6
552(13) 0.00580 542.0 10.5
549(13) 0.00550 541.9 10.5
558(13) 0.00584 541.8 10.4
554(12) 0.00632 541.6 10.4
543(12) 0.00649 541.5 10.4
540(13) 0.00600 541.4 10.3
525(13) 0.00592 541.3 10.3
531(12) 0.00628 541.2 10.2
528(12) 0.00657 541.0 10.2
509(12) 0.00679 540.9 10.2
532(12) 0.00622 540.8 10.1
542(13) 0.00572 540.7 10.1
553(12) 0.00605 540.6 10.1
549(12) 0.00644 540.4 10.0
550(12) 0.00629 540.3 10.0
521(12) 0.00628 540.2 10.0
487(12) 0.00654 540.1 9.9
543(13) 0.00604 540.0 9.9
540(12) 0.00648 539.8 9.9
548(12) 0.00627 539.7 9.9
553(13) 0.00600 539.6 9.8
554(13) 0.00577 539.5 9.8
548(13) 0.00574 539.4 9.8
566(12) 0.00625 539.2 9.8
553(13) 0.00603 539.1 9.8
528(12) 0.00631 539.0 9.8
591(13) 0.00529 538.9 9.8
528(12) 0.00633 538.8 9.8
551(12) 0.00634 538.6 9.7
538(12) 0.00633 538.5 9.7
570(13) 0.00561 538.4 9.7
541(13) 0.00589 538.3 9.7
534(12) 0.00624 538.2 9.7
529(12) 0.00666 538.0 9.7
527(12) 0.00625 537.9 9.8
556(13) 0.00579 537.8 9.8
545(13) 0.00590 537.7 9.8
542(12) 0.00626 537.6 9.8
555(12) 0.00640 537.4 9.8
572(13) 0.00565 537.3 9.8
547(13) 0.00602 537.2 9.9
566(13) 0.00570 537.1 9.9
559(12) 0.00615 537.0 9.9
534(12) 0.00657 536.8 10.0
558(13) 0.00591 536.7 10.0
529(12) 0.00606 536.6 10.0
536(12) 0.00622 536.5 10.1
516(12) 0.00672 536.4 10.1
573(12) 0.00616 536.2 10.2
553(13) 0.00604 536.1 10.3
522(13) 0.00586 536.0 10.3
546(13) 0.00590 535.9 10.4
541(12) 0.00643 535.8 10.5
556(12) 0.00626 535.6 10.6
561(13) 0.00588 535.5 10.7
554(13) 0.00544 535.4 10.8
536(12) 0.00612 535.3 10.9
564(12) 0.00629 535.2 11.0
551(12) 0.00633 535.0 11.1
533(12) 0.00621 534.9 11.2
516(12) 0.00611 534.8 11.4
539(12) 0.00623 534.7 11.5
543(12) 0.00641 534.6 11.7
550(12) 0.00640 534.4 11.8
543(12) 0.00608 534.3 12.0
557(13) 0.00563 534.2 12.2
551(13) 0.00603 534.1 12.4
569(12) 0.00619 534.0 12.7
538(12) 0.00643 533.8 12.9
534(12) 0.00627 533.7 13.2
543(13) 0.00590 533.6 13.5
560(13) 0.00584 533.5 13.8
523(12) 0.00669 533.4 14.1
551(12) 0.00613 533.2 14.5
542(12) 0.00607 533.1 14.8
546(13) 0.00570 533.0 15.3
591(13) 0.00542 532.9 15.7
525(12) 0.00665 532.8 16.2
567(13) 0.00591 532.6 16.7
526(12) 0.00624 532.5 17.3
517(12) 0.00623 532.4 17.9
567(13) 0.00570 532.3 18.6
548(12) 0.00640 532.2 19.4
544(12) 0.00609 532.0 20.2
566(13) 0.00582 531.9 21.1
559(13) 0.00593 531.8 22.2
554(13) 0.00605 531.7 23.3
581(12) 0.00609 531.6 24.7
597(13) 0.00568 531.4 26.2
580(13) 0.00553 531.3 27.9
569(13) 0.00588 531.2 29.9
594(13) 0.00584 531.1 32.2
553(12) 0.00631 531.0 35.0
589(13) 0.00539 530.8 38.2
558(13) 0.00577 530.7 42.0
596(13) 0.00552 530.6 46.5
556(12) 0.00627 530.5 51.8
638(13) 0.00558 530.4 58.0
620(13) 0.00540 530.2 65.2
660(14) 0.00473 530.1 73.6
631(13) 0.00536 530.0 83.2
674(14) 0.00520 529.9 94.1
625(13) 0.00564 529.8 106.3
674(14) 0.00489 529.6 120.0
675(15) 0.00455 529.5 134.9
705(14) 0.00477 529.4 151.1
666(13) 0.00532 529.3 168.1
711(14) 0.00498 529.2 185.8
700(14) 0.00481 529.0 203.5
710(15) 0.00436 528.9 220.4
701(14) 0.00473 528.8 235.8
686(13) 0.00525 528.7 248.5
700(14) 0.00501 528.6 257.4
700(14) 0.00473 528.4 261.8
685(14) 0.00460 528.3 261.1
691(14) 0.00474 528.2 255.4
725(14) 0.00488 528.1 245.4
701(14) 0.00497 528.0 231.8
706(14) 0.00470 527.8 215.9
693(15) 0.00454 527.7 198.6
636(14) 0.00518 527.6 180.8
654(13) 0.00541 527.5 163.3
632(13) 0.00539 527.4 146.4
639(14) 0.00510 527.2 130.5
596(13) 0.00531 527.1 115.8
583(13) 0.00567 527.0 102.5
575(12) 0.00614 526.9 90.5
561(13) 0.00605 526.8 79.9
591(13) 0.00534 526.6 70.6
522(12) 0.00619 526.5 62.5
563(13) 0.00581 526.4 55.5
531(12) 0.00659 526.3 49.5
563(13) 0.00577 526.2 44.4
543(13) 0.00599 526.0 40.0
572(13) 0.00567 525.9 36.3
542(12) 0.00613 525.8 33.2
532(12) 0.00654 525.7 30.5
540(13) 0.00600 525.6 28.2
548(13) 0.00589 525.4 26.2
540(13) 0.00595 525.3 24.5
525(12) 0.00641 525.2 23.0
529(12) 0.00661 525.1 21.7
556(13) 0.00596 525.0 20.5
552(13) 0.00572 524.8 19.4
514(12) 0.00617 524.7 18.5
535(12) 0.00641 524.6 17.6
501(12) 0.00700 524.5 16.8
568(13) 0.00580 524.4 16.1
547(13) 0.00576 524.2 15.4
542(12) 0.00623 524.1 14.8
526(12) 0.00668 524.0 14.3
529(12) 0.00668 523.9 13.7
516(12) 0.00634 523.8 13.2
507(12) 0.00631 523.6 12.8
553(13) 0.00595 523.5 12.4
535(12) 0.00655 523.4 12.0
532(12) 0.00660 523.3 11.6
513(12) 0.00657 523.2 11.2
522(13) 0.00594 523.0 10.9
517(12) 0.00655 522.9 10.6
518(12) 0.00673 522.8 10.3
520(12) 0.00673 522.7 10.0
520(12) 0.00633 522.6 9.7
529(13) 0.00600 522.4 9.5
564(13) 0.00589 522.3 9.3
544(12) 0.00641 522.2 9.0
551(12) 0.00624 522.1 8.8
513(12) 0.00653 522.0 8.6
525(12) 0.00610 521.8 8.4
536(12) 0.00622 521.7 8.3
499(12) 0.00700 521.6 8.1
513(12) 0.00663 521.5 7.9
529(12) 0.00623 521.4 7.8
545(13) 0.00583 521.2 7.6
533(13) 0.00595 521.1 7.5
520(12) 0.00675 521.0 7.3
548(12) 0.00610 520.9 7.2
510(12) 0.00643 520.8 7.1
517(12) 0.00631 520.6 6.9
518(12) 0.00647 520.5 6.8
542(12) 0.00643 520.4 6.7
538(12) 0.00627 520.3 6.6
543(13) 0.00597 520.2 6.5
502(12) 0.00644 520.0 6.4
515(12) 0.00644 519.9 6.3
525(12) 0.00669 519.8 6.2
537(13) 0.00597 519.7 6.1
518(12) 0.00620 519.6 6.0
494(12) 0.00678 519.4 5.9
529(12) 0.00630 519.3 5.9
485(11) 0.00720 519.2 5.8
535(12) 0.00612 519.1 5.7
504(12) 0.00635 519.0 5.6
546(13) 0.00590 518.8 5.6
518(12) 0.00649 518.7 5.5
521(12) 0.00673 518.6 5.4
502(12) 0.00662 518.5 5.4
538(13) 0.00593 518.4 5.3
506(12) 0.00657 518.2 5.2
507(12) 0.00677 518.1 5.2
540(12) 0.00644 518.0 5.1
529(12) 0.00630 517.9 5.1
516(12) 0.00607 517.8 5.0
501(12) 0.00661 517.6 4.9
536(12) 0.00646 517.5 4.9
528(12) 0.00661 517.4 4.8
531(12) 0.00628 517.3 4.8
520(13) 0.00605 517.2 4.7
542(12) 0.00615 517.0 4.7
506(12) 0.00687 516.9 4.7
518(12) 0.00665 516.8 4.6
533(12) 0.00626 516.8 4.6
517(13) 0.00583 516.7 4.5
478(12) 0.00671 516.7 4.5
553(12) 0.00628 516.6 4.4
526(12) 0.00662 516.6 4.4
538(12) 0.00614 516.5 4.4
522(13) 0.00590 516.4 4.3
544(13) 0.00597 516.4 4.3
499(12) 0.00700 516.3 4.2
503(12) 0.00687 516.3 4.2
496(12) 0.00674 516.2 4.2
547(13) 0.00580 516.2 4.1
532(13) 0.00603 516.1 4.1
534(12) 0.00659 516.1 4.1
522(12) 0.00653 516.0 4.0
547(13) 0.00595 515.9 4.0
543(13) 0.00577 515.9 4.0
518(12) 0.00630 515.8 3.9
505(12) 0.00692 515.8 3.9
521(12) 0.00641 515.7 3.9
494(12) 0.00663 515.7 3.9
488(12) 0.00661 515.6 3.8
484(12) 0.00695 515.6 3.8
496(12) 0.00699 515.5 3.8
511(12) 0.00646 515.4 3.7
505(12) 0.00634 515.4 3.7
525(12) 0.00608 515.3 3.7
507(12) 0.00662 515.3 3.7
508(12) 0.00686 515.2 3.6
503(12) 0.00652 515.2 3.6
528(13) 0.00604 515.1 3.6
500(12) 0.00664 515.0 3.6
508(12) 0.00679 515.0 3.5
527(12) 0.00662 514.9 3.5
499(12) 0.00657 514.9 3.5
502(12) 0.00630 514.8 3.5
551(13) 0.00592 514.8 3.5
533(12) 0.00651 514.7 3.4
510(12) 0.00694 514.7 3.4
522(12) 0.00628 514.6 3.4
496(12) 0.00638 514.5 3.4
496(12) 0.00666 514.5 3.4
532(12) 0.00656 514.4 3.3
532(12) 0.00661 514.4 3.3
510(12) 0.00635 514.3 3.3
502(13) 0.00602 514.3 3.3
507(12) 0.00641 514.2 3.3
493(11) 0.00710 514.2 3.2
537(12) 0.00645 514.1 3.2
534(12) 0.00621 514.0 3.2
522(13) 0.00573 514.0 3.2
494(12) 0.00655 513.9 3.2
521(12) 0.00660 513.9 3.1
546(12) 0.00624 513.8 3.1
498(12) 0.00649 513.8 3.1
508(12) 0.00611 513.7 3.1
533(13) 0.00601 513.6 3.1
534(12) 0.00654 513.6 3.1
516(12) 0.00659 513.5 3.0
538(13) 0.00604 513.5 3.0
555(13) 0.00558 513.4 3.0
521(12) 0.00635 513.4 3.0
512(12) 0.00675 513.3 3.0
494(12) 0.00690 513.3 3.0
525(12) 0.00618 513.2 2.9
504(12) 0.00642 513.1 2.9
530(12) 0.00621 513.1 2.9
505(12) 0.00692 513.0 2.9
479(12) 0.00704 513.0 2.9
517(12) 0.00611 512.9 2.9
527(12) 0.00606 512.9 2.9
481(12) 0.00694 512.8 2.8
463(11) 0.00749 512.8 2.8
483(12) 0.00670 512.7 2.8
497(12) 0.00629 512.6 2.8
473(12) 0.00677 512.6 2.8
512(12) 0.00659 512.5 2.8
515(12) 0.00673 512.5 2.8
511(12) 0.00652 512.4 2.8
501(12) 0.00639 512.4 2.7
524(12) 0.00610 512.3 2.7
512(12) 0.00670 512.2 2.7
523(12) 0.00664 512.2 2.7
516(12) 0.00608 512.1 2.7
503(12) 0.00637 512.1 2.7
512(12) 0.00645 512.0 2.7
545(12) 0.00620 512.0 2.7
527(12) 0.00661 511.9 2.6
529(12) 0.00637 511.9 2.6
527(13) 0.00596 511.8 2.6
557(13) 0.00596 511.7 2.6
553(12) 0.00633 511.7 2.6
508(12) 0.00673 511.6 2.6
504(12) 0.00644 511.6 2.6
508(12) 0.00610 511.5 2.6
536(13) 0.00602 511.5 2.5
529(12) 0.00660 511.4 2.5
513(12) 0.00673 511.3 2.5
496(12) 0.00643 511.3 2.5
503(12) 0.00609 511.2 2.5
509(12) 0.00639 511.2 2.5
557(12) 0.00630 511.1 2.5
505(12) 0.00696 511.1 2.5
526(12) 0.00637 511.0 2.5
518(12) 0.00614 511.0 2.5
507(12) 0.00641 510.9 2.4
493(11) 0.00710 510.8 2.4
539(12) 0.00633 510.8 2.4
520(12) 0.00640 510.7 2.4
512(12) 0.00624 510.7 2.4
512(12) 0.00630 510.6 2.4
503(12) 0.00691 510.6 2.4
496(12) 0.00690 510.5 2.4
514(12) 0.00631 510.5 2.6
496(12) 0.00633 510.4 2.6
511(12) 0.00638 510.3 2.6
524(12) 0.00668 510.3 2.6
535(12) 0.00626 510.2 2.6
519(12) 0.00654 510.2 2.6
551(13) 0.00583 510.1 2.6
504(12) 0.00660 510.1 2.6
511(12) 0.00684 510.0 2.6
521(12) 0.00646 509.9 2.6
534(12) 0.00619 509.9 2.6
512(12) 0.00651 509.8 2.6
508(12) 0.00652 509.8 2.6
512(12) 0.00683 509.7 2.5
520(12) 0.00644 509.7 2.5
506(12) 0.00636 509.6 2.5
513(12) 0.00633 509.6 2.5
515(12) 0.00655 509.5 2.5
533(12) 0.00661 509.4 2.5
554(13) 0.00601 509.4 2.5
526(12) 0.00613 509.3 2.5
531(12) 0.00626 509.3 2.5
544(12) 0.00631 509.2 2.5
522(12) 0.00674 509.2 2.5
545(13) 0.00597 509.1 2.5
542(13) 0.00573 509.1 2.5
558(13) 0.00585 509.0 2.5
517(12) 0.00668 508.9 2.5
538(12) 0.00653 508.9 2.4
512(12) 0.00644 508.8 2.4
548(13) 0.00575 508.8 2.4
534(12) 0.00633 508.7 2.4
519(12) 0.00661 508.7 2.4
517(12) 0.00673 508.6 2.4
507(12) 0.00649 508.5 2.4
503(12) 0.00614 508.5 2.4
507(12) 0.00637 508.4 2.4
508(12) 0.00682 508.4 2.4
505(12) 0.00700 508.3 2.4
488(12) 0.00677 508.3 2.4
514(13) 0.00599 508.2 2.4
545(13) 0.00597 508.2 2.4
517(12) 0.00673 508.1 2.4
479(11) 0.00714 508.0 2.4
509(12) 0.00663 508.0 2.4
494(12) 0.00662 507.9 2.4
547(12) 0.00608 507.9 2.4
536(12) 0.00656 507.8 2.3
525(12) 0.00653 507.8 2.3
500(12) 0.00654 507.7 2.3
531(13) 0.00579 507.7 2.3
503(12) 0.00628 507.6 2.3
524(12) 0.00662 507.5 2.3
482(11) 0.00713 507.5 2.3
523(12) 0.00617 507.4 2.3
524(12) 0.00612 507.4 2.3
534(12) 0.00613 507.3 2.3
492(11) 0.00709 507.3 2.3
505(12) 0.00668 507.2 2.3
514(12) 0.00626 507.1 2.3
494(12) 0.00660 507.1 2.3
507(12) 0.00659 507.1 2.3
480(11) 0.00728 507.1 2.3
517(12) 0.00636 507.1 2.3
500(12) 0.00659 507.1 2.3
510(12) 0.00637 507.1 2.3
528(12) 0.00637 507.0 2.3
516(12) 0.00679 507.0 2.3
501(12) 0.00645 507.0 2.3
467(12) 0.00700 507.0 2.3
482(12) 0.00694 507.0 2.3
532(12) 0.00633 507.0 2.3
480(11) 0.00722 507.0 2.2
513(12) 0.00631 507.0 2.2
493(12) 0.00633 507.0 2.2
488(12) 0.00665 507.0 2.2
515(12) 0.00662 506.9 2.2
503(12) 0.00695 506.9 2.2
474(12) 0.00697 506.9 2.2
498(12) 0.00609 506.9 2.2
498(12) 0.00664 506.9 2.2
484(11) 0.00720 506.9 2.2
509(12) 0.00683 506.9 2.2
510(12) 0.00659 506.9 2.2
489(12) 0.00632 506.9 2.2
505(12) 0.00640 506.9 2.2
505(12) 0.00681 506.9 2.2
494(12) 0.00705 506.8 2.2
509(12) 0.00655 506.8 2.2
534(13) 0.00570 506.8 2.2
516(12) 0.00629 506.8 2.2
522(12) 0.00674 506.8 2.2
505(12) 0.00684 506.8 2.2
501(12) 0.00648 506.8 2.2
511(13) 0.00603 506.8 2.2
516(12) 0.00637 506.8 2.2
555(12) 0.00633 506.8 2.2
495(12) 0.00690 506.7 2.2
515(12) 0.00631 506.7 2.2
503(12) 0.00633 506.7 2.2
502(12) 0.00648 506.7 2.2
530(12) 0.00657 506.7 2.2
504(12) 0.00670 506.7 2.2
511(12) 0.00644 506.7 2.2
504(12) 0.00637 506.7 2.2
480(12) 0.00702 506.7 2.2
495(12) 0.00701 506.7 2.2
492(12) 0.00695 506.7 2.2
532(13) 0.00599 506.6 2.2
481(12) 0.00680 506.6 2.2
514(12) 0.00626 506.6 2.2
478(11) 0.00731 506.6 2.2
475(12) 0.00689 506.6 2.2
503(12) 0.00630 506.6 2.2
515(12) 0.00623 506.6 2.2
515(12) 0.00643 506.6 2.2
553(12) 0.00638 506.6 2.2
494(12) 0.00665 506.6 2.2
479(12) 0.00667 506.6 2.2
493(12) 0.00664 506.5 2.2
518(12) 0.00660 506.5 2.2
534(12) 0.00654 506.5 2.2
512(12) 0.00625 506.5 2.2
511(12) 0.00609 506.5 2.2
510(12) 0.00615 506.5 2.2
534(12) 0.00634 506.5 2.2
507(12) 0.00695 506.5 2.2
488(12) 0.00679 506.5 2.2
523(13) 0.00592 506.5 2.2
522(12) 0.00634 506.4 2.2
501(12) 0.00694 506.4 2.2
535(12) 0.00649 506.4 2.2
492(12) 0.00671 506.4 2.2
499(12) 0.00609 506.4 2.2
497(12) 0.00659 506.4 2.2
502(12) 0.00692 506.4 2.2
491(12) 0.00704 506.4 2.2
481(12) 0.00662 506.4 2.2
463(12) 0.00660 506.4 2.2
517(12) 0.00642 506.4 2.2
513(12) 0.00678 506.3 2.2
498(12) 0.00693 506.3 2.2
503(12) 0.00640 506.3 2.2
524(13) 0.00600 506.3 2.2
502(12) 0.00676 506.3 2.2
509(12) 0.00685 506.3 2.2
503(12) 0.00681 506.3 2.2
522(12) 0.00629 506.3 2.2
516(13) 0.00590 506.3 2.2
472(12) 0.00687 506.3 2.2
539(12) 0.00655 506.2 2.2
482(12) 0.00694 506.2 2.2
480(12) 0.00679 506.2 2.3
467(12) 0.00691 506.2 2.3
477(12) 0.00686 506.2 2.3
494(12) 0.00708 506.2 2.3
486(12) 0.00689 506.2 2.3
493(12) 0.00673 506.2 2.3
522(13) 0.00597 506.2 2.3
550(13) 0.00595 506.2 2.3
483(11) 0.00719 506.2 2.3
495(12) 0.00675 506.1 2.3
518(12) 0.00617 506.1 2.3
533(13) 0.00605 506.1 2.3
510(12) 0.00658 506.1 2.3
494(12) 0.00701 506.1 2.3
501(12) 0.00650 506.1 2.3
517(12) 0.00606 506.1 2.4
516(12) 0.00620 506.1 2.4
497(12) 0.00692 506.1 2.4
525(12) 0.00657 506.1 2.4
507(12) 0.00643 506.1 2.4
518(13) 0.00597 506.0 2.4
510(12) 0.00639 506.0 2.4
503(12) 0.00686 506.0 2.4
488(12) 0.00703 506.0 2.4
496(12) 0.00665 506.0 2.4
507(12) 0.00619 506.0 2.5
541(12) 0.00608 506.0 2.5
529(12) 0.00654 506.0 2.5
510(12) 0.00673 506.0 2.5
504(12) 0.00645 506.0 2.5
503(13) 0.00600 505.9 2.9
487(12) 0.00689 505.9 3.0
506(12) 0.00681 505.9 3.0
502(12) 0.00689 505.9 3.0
501(12) 0.00659 505.9 3.0
506(13) 0.00586 505.9 3.0
506(12) 0.00642 505.9 3.1
497(12) 0.00704 505.9 3.1
493(12) 0.00695 505.9 3.1
488(12) 0.00658 505.9 3.1
509(12) 0.00608 505.9 3.1
511(12) 0.00640 505.8 3.2
501(12) 0.00697 505.8 3.2
527(12) 0.00665 505.8 3.2
525(12) 0.00614 505.8 3.2
492(12) 0.00634 505.8 3.3
508(12) 0.00625 505.8 3.3
526(12) 0.00662 505.8 3.3
484(12) 0.00701 505.8 3.4
511(12) 0.00628 505.8 3.4
483(12) 0.00660 505.8 3.4
515(12) 0.00632 505.7 3.5
480(11) 0.00725 505.7 3.5
540(12) 0.00631 505.7 3.6
515(12) 0.00617 505.7 3.6
498(12) 0.00641 505.7 3.6
497(12) 0.00662 505.8 3.7
504(12) 0.00688 505.8 3.7
516(12) 0.00645 505.9 3.8
539(13) 0.00584 506.0 3.8
499(12) 0.00660 506.1 3.9
498(12) 0.00691 506.1 4.0
483(11) 0.00723 506.2 4.0
499(12) 0.00659 506.3 4.1
490(12) 0.00655 506.3 4.2
511(12) 0.00642 506.4 4.2
530(12) 0.00631 506.5 4.3
506(12) 0.00687 506.6 4.4
523(12) 0.00624 506.6 4.5
530(13) 0.00596 506.7 4.6
520(12) 0.00635 506.8 4.7
518(12) 0.00669 506.8 4.8
510(12) 0.00686 506.9 4.9
522(12) 0.00632 507.0 5.1
516(12) 0.00607 507.1 5.2
491(12) 0.00677 507.1 5.4
515(12) 0.00667 507.2 5.6
500(12) 0.00699 507.3 5.7
517(12) 0.00622 507.3 6.0
467(12) 0.00674 507.4 6.2
475(11) 0.00723 507.5 6.4
551(12) 0.00626 507.5 6.7
521(12) 0.00669 507.6 7.0
507(12) 0.00652 507.7 7.3
536(13) 0.00570 507.8 7.7
515(12) 0.00647 507.8 8.0
527(12) 0.00660 507.9 8.5
531(12) 0.00652 508.0 8.9
511(12) 0.00650 508.0 9.4
500(12) 0.00614 508.1 9.9
499(12) 0.00660 508.2 10.5
527(12) 0.00659 508.3 11.1
506(12) 0.00684 508.3 11.7
492(12) 0.00658 508.4 12.4
511(13) 0.00599 508.5 13.2
480(12) 0.00670 508.5 13.9
503(12) 0.00697 508.6 14.8
497(12) 0.00695 508.7 15.6
522(12) 0.00617 508.8 16.5
507(12) 0.00624 508.8 17.5
535(13) 0.00602 508.9 18.4
528(12) 0.00660 509.0 19.4
513(12) 0.00665 509.0 20.4
526(12) 0.00613 509.1 21.4
499(12) 0.00640 509.2 22.3
523(12) 0.00616 509.3 23.2
523(12) 0.00669 509.3 24.0
532(12) 0.00612 509.4 24.7
514(12) 0.00642 509.5 25.3
518(12) 0.00634 509.5 25.8
514(12) 0.00651 509.6 26.1
503(12) 0.00695 509.7 26.2
503(12) 0.00653 509.8 26.2
516(12) 0.00622 509.8 26.0
513(12) 0.00631 509.9 25.6
512(12) 0.00651 510.0 25.1
540(12) 0.00648 510.0 24.4
516(12) 0.00628 510.1 23.7
508(12) 0.00638 510.2 22.8
511(12) 0.00655 510.3 21.9
495(12) 0.00680 510.3 21.0
499(12) 0.00697 510.4 20.0
506(12) 0.00633 510.5 19.0
500(12) 0.00633 510.5 18.1
490(12) 0.00684 510.6 17.1
498(12) 0.00686 510.7 16.2
521(12) 0.00675 510.8 15.4
495(12) 0.00674 510.8 14.5
543(13) 0.00562 510.9 13.7
521(12) 0.00622 511.0 13.0
519(12) 0.00670 511.0 12.3
525(12) 0.00666 511.1 11.6
509(12) 0.00652 511.2 11.0
518(13) 0.00603 511.2 10.4
521(12) 0.00618 511.3 9.9
535(12) 0.00644 511.4 9.4
462(11) 0.00734 511.5 9.0
529(12) 0.00623 511.5 8.6
552(13) 0.00557 511.6 8.2
501(12) 0.00679 511.7 7.8
511(12) 0.00688 511.7 7.5
521(12) 0.00672 511.8 7.2
523(12) 0.00616 511.9 7.0
508(12) 0.00609 512.0 6.7
554(13) 0.00593 512.0 6.5
551(12) 0.00637 512.1 6.3
495(12) 0.00688 512.2 6.1
512(12) 0.00633 512.2 6.0
522(12) 0.00612 512.3 5.8
525(12) 0.00612 512.4 5.7
509(12) 0.00681 512.5 5.5
518(12) 0.00659 512.5 5.4
523(12) 0.00623 512.6 5.3
510(12) 0.00630 512.7 5.2
499(12) 0.00667 512.7 5.1
541(12) 0.00645 512.8 5.0
519(12) 0.00640 512.9 5.0
523(12) 0.00607 513.0 4.9
519(12) 0.00614 513.0 4.8
521(12) 0.00634 513.1 4.8
536(12) 0.00652 513.2 4.7
518(12) 0.00642 513.2 4.7
522(12) 0.00619 513.3 4.6
524(12) 0.00615 513.4 4.6
534(12) 0.00626 513.5 4.5
468(11) 0.00741 513.5 4.5
505(12) 0.00636 513.6 4.5
508(12) 0.00625 513.7 4.4
509(12) 0.00641 513.7 4.4
501(12) 0.00683 513.8 4.4
502(12) 0.00697 513.9 4.4
495(12) 0.00638 514.0 4.3
494(12) 0.00607 514.0 4.3
497(12) 0.00653 514.1 4.3
509(12) 0.00672 514.2 4.3
471(11) 0.00738 514.2 4.3
504(12) 0.00631 514.3 4.2
538(13) 0.00571 514.4 4.2
506(12) 0.00647 514.5 4.2
493(12) 0.00705 514.5 4.2
491(12) 0.00699 514.6 4.2
520(12) 0.00641 514.7 4.2
508(12) 0.00629 514.7 4.2
524(12) 0.00635 514.8 4.2
518(12) 0.00673 514.9 4.2
499(12) 0.00696 515.0 4.2
536(12) 0.00614 515.0 4.2
532(13) 0.00582 515.1 4.2
496(12) 0.00683 515.2 4.2
484(11) 0.00714 515.2 4.2
518(12) 0.00663 515.3 4.2
534(12) 0.00617 515.4 4.2
514(12) 0.00610 515.4 4.2
500(12) 0.00678 515.5 4.2
498(12) 0.00696 515.6 4.2
544(12) 0.00633 515.7 4.2
529(12) 0.00627 515.7 4.2
520(13) 0.00587 515.8 4.2
496(12) 0.00651 515.9 4.2
507(12) 0.00695 515.9 4.2
520(12) 0.00646 516.0 4.2
489(12) 0.00665 516.1 4.2
520(12) 0.00614 516.2 4.3
502(12) 0.00666 516.2 4.3
508(12) 0.00687 516.3 4.3
500(12) 0.00678 516.4 4.3
524(12) 0.00614 516.4 4.3
496(12) 0.00684 516.5 4.3
523(12) 0.00641 516.6 4.3
521(12) 0.00669 516.7 4.4
506(12) 0.00655 516.7 4.4
506(12) 0.00631 516.8 4.4
512(12) 0.00637 516.9 4.4
519(12) 0.00655 516.9 4.4
515(12) 0.00680 517.0 4.4
489(12) 0.00679 517.1 4.5
506(12) 0.00617 517.2 4.5
516(12) 0.00630 517.2 4.5
515(12) 0.00665 517.3 4.5
519(12) 0.00672 517.4 4.6
495(12) 0.00665 517.4 4.6
524(13) 0.00592 517.5 4.6
517(12) 0.00611 517.6 4.6
499(12) 0.00672 517.7 4.7
511(12) 0.00687 517.7 4.7
524(13) 0.00599 517.8 4.7
516(12) 0.00607 517.9 4.7
563(13) 0.00575 517.9 4.8
530(12) 0.00655 518.0 4.8
550(12) 0.00633 518.1 4.8
526(12) 0.00632 518.2 4.8
528(13) 0.00587 518.2 4.9
547(12) 0.00614 518.3 4.9
535(12) 0.00655 518.4 4.9
531(12) 0.00663 518.4 5.0
541(12) 0.00621 518.5 5.0
568(13) 0.00553 518.6 5.0
515(12) 0.00662 518.7 5.1
504(12) 0.00694 518.7 5.1
540(12) 0.00643 518.8 5.2
529(12) 0.00635 518.9 5.2
517(13) 0.00601 518.9 5.2
491(12) 0.00680 519.0 5.3
523(12) 0.00669 519.1 5.3
537(12) 0.00641 519.1 5.4
536(12) 0.00624 519.2 5.5
539(13) 0.00574 519.3 5.5
538(12) 0.00606 519.4 5.6
544(12) 0.00647 519.4 5.6
532(12) 0.00641 519.5 5.6
512(12) 0.00647 519.6 5.7
523(13) 0.00595 519.6 5.7
512(12) 0.00631 519.8 5.8
512(12) 0.00682 520.1 5.9
533(12) 0.00633 520.3 5.9
550(13) 0.00563 520.5 6.0
496(12) 0.00643 520.7 6.0
529(12) 0.00621 520.9 6.1
514(12) 0.00673 521.1 6.1
519(12) 0.00633 521.4 6.2
526(12) 0.00613 521.6 6.2
544(13) 0.00595 521.8 6.3
544(12) 0.00620 522.0 6.4
506(12) 0.00688 522.2 6.4
525(12) 0.00625 522.5 6.5
533(12) 0.00608 522.7 6.6
528(12) 0.00630 522.9 6.6
551(13) 0.00598 523.1 6.7
510(12) 0.00682 523.3 6.8
502(12) 0.00659 523.5 6.9
523(13) 0.00592 523.8 6.9
535(13) 0.00598 524.0 7.0
518(12) 0.00668 524.2 7.1
517(12) 0.00677 524.4 7.2
505(12) 0.00641 524.6 7.3
509(12) 0.00616 524.9 7.4
537(12) 0.00620 525.1 7.4
528(12) 0.00651 525.3 7.5
547(12) 0.00634 525.5 7.6
532(12) 0.00621 525.7 7.7
545(13) 0.00576 525.9 7.8
546(13) 0.00594 526.2 7.9
525(12) 0.00655 526.4 8.0
524(12) 0.00664 526.6 8.1
523(12) 0.00613 526.8 8.2
542(13) 0.00553 527.0 8.4
544(12) 0.00610 527.3 8.5
536(12) 0.00652 527.5 8.6
538(12) 0.00643 527.7 8.7
519(12) 0.00639 527.9 8.8
542(13) 0.00557 528.1 9.0
514(12) 0.00634 528.3 9.1
550(12) 0.00646 528.6 9.2
552(12) 0.00629 528.8 9.4
540(12) 0.00622 529.0 9.5
534(13) 0.00595 529.2 9.7
551(13) 0.00581 529.4 9.8
529(12) 0.00657 529.7 10.0
518(12) 0.00671 529.9 10.1
536(12) 0.00618 530.1 10.3
548(13) 0.00563 530.3 10.5
508(12) 0.00637 530.5 10.6
505(12) 0.00691 530.7 10.8
539(12) 0.00625 531.0 11.0
530(12) 0.00618 531.2 11.2
527(12) 0.00607 531.4 11.4
540(13) 0.00599 531.6 11.6
538(12) 0.00654 531.8 11.8
529(12) 0.00640 532.0 12.0
513(12) 0.00636 532.3 12.3
501(12) 0.00638 532.5 12.5
498(12) 0.00658 532.7 12.7
550(12) 0.00639 532.9 13.0
534(12) 0.00619 533.1 13.2
542(13) 0.00603 533.4 13.5
519(12) 0.00626 533.6 13.8
520(12) 0.00647 533.8 14.1
552(12) 0.00637 534.0 14.4
491(12) 0.00665 534.2 14.7
549(13) 0.00553 534.4 15.0
536(12) 0.00616 534.7 15.3
528(12) 0.00646 534.9 15.6
550(12) 0.00642 535.1 16.0
534(12) 0.00611 535.3 16.4
561(13) 0.00548 535.5 16.8
510(12) 0.00651 535.8 17.2
526(12) 0.00655 536.0 17.6
540(12) 0.00645 536.2 18.0
521(12) 0.00638 536.4 18.5
536(13) 0.00565 536.6 18.9
548(13) 0.00580 536.8 19.4
570(12) 0.00605 537.1 19.9
535(12) 0.00661 537.3 20.4
558(13) 0.00589 537.5 21.0
544(13) 0.00550 537.7 21.6
551(13) 0.00605 537.9 22.2
526(12) 0.00658 538.2 22.8
544(12) 0.00649 538.4 23.5
552(13) 0.00602 538.6 24.2
556(13) 0.00542 538.8 24.9
517(12) 0.00640 539.0 25.7
537(12) 0.00653 539.2 26.5
566(12) 0.00611 539.5 27.4
529(12) 0.00631 539.7 28.2
567(13) 0.00544 539.9 29.2
549(13) 0.00602 540.1 30.2
551(12) 0.00635 540.3 31.2
523(12) 0.00658 540.6 32.3
567(13) 0.00571 540.8 33.5
542(12) 0.00618 541.0 34.7
583(13) 0.00564 541.2 36.0
563(12) 0.00626 541.4 37.4
559(13) 0.00599 541.6 38.9
559(13) 0.00603 541.9 40.5
559(13) 0.00584 542.1 42.2
584(13) 0.00557 542.3 43.9
575(12) 0.00618 542.5 45.8
570(13) 0.00594 542.7 47.9
544(13) 0.00600 542.9 50.0
588(13) 0.00550 543.2 52.4
573(13) 0.00583 543.4 54.9
582(12) 0.00607 543.6 57.6
571(13) 0.00596 543.8 60.5
565(13) 0.00589 544.0 63.6
584(13) 0.00572 544.3 67.0
567(12) 0.00613 544.5 70.7
600(13) 0.00587 544.7 74.7
607(13) 0.00553 544.9 79.0
655(14) 0.00482 545.1 83.7
617(14) 0.00518 545.3 88.9
625(13) 0.00551 545.6 94.6
631(13) 0.00562 545.8 100.8
630(14) 0.00520 546.0 107.7
624(14) 0.00515 546.2 115.3
625(13) 0.00532 546.4 123.8
695(14) 0.00509 546.7 133.3
691(14) 0.00511 546.9 143.9
657(14) 0.00511 547.1 155.8
701(15) 0.00448 547.3 169.4
719(14) 0.00459 547.5 185.1
783(15) 0.00443 547.7 203.4
794(15) 0.00450 548.0 225.1
786(15) 0.00434 548.2 251.4
839(16) 0.00375 548.4 284.0
936(16) 0.00360 548.6 324.9
941(16) 0.00380 548.8 377.2
1016(17) 0.003507 549.1 444.7
1076(18) 0.003165 549.3 532.0
1249(20) 0.002523 549.5 644.3
1362(20) 0.002469 549.7 787.1
1576(21) 0.002297 549.9 965.9
1782(22) 0.002040 550.1 1184.9
2037(24) 0.001678 550.4 1446.5
2289(26) 0.001424 550.6 1750.2
2572(27) 0.001330 550.8 2090.5
2885(28) 0.001267 551.0 2456.4
3192(30) 0.001132 551.2 2828.0
3582(32) 0.000962 551.5 3175.0
4043(35) 0.000809 551.7 3456.7
4342(36) 0.000784 552. 3629.
4456(35) 0.000822 552.1 3658.5
4330(35) 0.000827 552.3 3539.7
3961(34) 0.000852 552.5 3296.0
3461(32) 0.000960 552.8 2969.4
2973(29) 0.001162 553.0 2603.3
2627(27) 0.001396 553.2 2232.1
2357(26) 0.001470 553.4 1880.1
2098(25) 0.001615 553.6 1561.1
1806(23) 0.001897 553.8 1282.7
1636(22) 0.002093 554.1 1047.1
1472(20) 0.002463 554.3 853.0
1322(19) 0.002578 554.5 696.6
1276(19) 0.002592 554.7 573.0
1153(18) 0.002924 554.9 476.5
1071(17) 0.003251 555.2 401.9
980(16) 0.00368 555.4 344.1
940(17) 0.00353 555.6 299.1
853(16) 0.00380 555.8 263.6
848(16) 0.00387 556.0 235.1
820(15) 0.00421 556.2 211.8
799(15) 0.00449 556.5 192.2
768(15) 0.00437 556.7 175.6
734(15) 0.00433 556.9 161.3
717(14) 0.00467 557.1 148.7
722(14) 0.00480 557.3 137.6
705(14) 0.00505 557.6 127.8
678(14) 0.00482 557.8 119.0
680(15) 0.00451 558.0 111.0
638(13) 0.00529 558.2 103.9
661(13) 0.00525 558.4 97.4
631(13) 0.00567 558.6 91.5
652(14) 0.00515 558.9 86.2
624(14) 0.00501 559.1 81.3
618(13) 0.00535 559.3 76.8
618(13) 0.00568 559.5 72.7
634(13) 0.00556 559.7 68.9
595(13) 0.00540 560.0 65.4
572(13) 0.00535 560.2 62.2
588(13) 0.00563 560.4 59.3
598(13) 0.00590 560.6 56.5
613(13) 0.00574 560.8 53.9
607(13) 0.00550 561.0 51.6
595(13) 0.00528 561.3 49.3
596(13) 0.00552 561.5 47.3
616(13) 0.00569 561.7 45.3
588(13) 0.00587 561.9 43.5
592(13) 0.00547 562.1 41.8
569(13) 0.00547 562.4 40.2
566(13) 0.00581 562.6 38.7
564(12) 0.00628 562.8 37.3
567(13) 0.00602 563.0 36.0
582(13) 0.00553 563.2 34.7
584(13) 0.00537 563.4 33.6
575(13) 0.00553 563.7 32.5
572(12) 0.00617 563.9 31.4
615(13) 0.00552 564.1 30.4
548(13) 0.00597 564.3 29.5
565(13) 0.00558 564.5 28.6
554(13) 0.00597 564.7 27.7
591(13) 0.00598 565.0 26.9
596(13) 0.00560 565.2 26.1
579(13) 0.00563 565.4 25.4
576(13) 0.00557 565.6 24.7
552(12) 0.00614 565.8 24.1
566(12) 0.00619 566.1 23.4
573(13) 0.00579 566.3 22.8
591(13) 0.00536 566.5 22.3
587(13) 0.00545 566.7 21.7
577(13) 0.00586 566.9 21.2
581(13) 0.00603 567.1 20.7
567(13) 0.00588 567.4 20.2
545(13) 0.00580 567.6 19.7
591(13) 0.00524 567.8 19.3
548(12) 0.00625 568.0 18.9
603(13) 0.00586 568.2 18.5
563(13) 0.00564 568.5 18.1
549(13) 0.00578 568.7 17.7
542(12) 0.00607 568.9 17.4
555(12) 0.00612 569.1 17.0
579(13) 0.00602 569.3 16.7
572(13) 0.00582 569.5 16.4
577(13) 0.00525 569.8 16.1
540(12) 0.00605 570.0 15.8
537(12) 0.00641 570.2 15.5
547(12) 0.00643 570.4 15.2
603(13) 0.00551 570.6 15.0
618(14) 0.00498 570.9 14.7
589(13) 0.00562 571.1 14.5
576(13) 0.00603 571.3 14.2
550(12) 0.00639 571.5 14.0
593(13) 0.00560 571.7 13.8
569(13) 0.00555 571.9 13.6
579(13) 0.00559 572.2 13.4
599(13) 0.00587 572.4 13.2
583(13) 0.00599 572.6 13.0
544(12) 0.00617 572.8 12.8
578(13) 0.00550 573.0 12.7
570(13) 0.00578 573.3 12.5
590(13) 0.00593 573.5 12.3
559(12) 0.00608 573.7 12.2
565(13) 0.00572 573.9 12.0
562(13) 0.00580 574.1 11.9
581(13) 0.00569 574.3 11.7
582(12) 0.00606 574.6 11.6
563(12) 0.00607 574.8 11.5
583(13) 0.00568 575.0 11.4
581(13) 0.00561 575.2 11.2
591(13) 0.00553 575.4 11.1
575(12) 0.00614 575.6 11.0
588(13) 0.00565 575.9 10.9
543(13) 0.00601 576.1 10.8
570(13) 0.00559 576.3 10.7
574(13) 0.00585 576.5 10.6
566(12) 0.00619 576.7 10.5
573(13) 0.00565 577.0 10.4
616(14) 0.00510 577.2 10.3
584(13) 0.00548 577.4 10.2
550(13) 0.00603 577.6 10.1
560(12) 0.00624 577.8 10.1
571(13) 0.00574 578.0 10.0
580(13) 0.00546 578.3 9.9
579(13) 0.00571 578.5 9.8
593(13) 0.00578 578.7 9.8
570(12) 0.00619 578.9 9.7
557(13) 0.00589 579.1 9.6
556(13) 0.00575 579.4 9.6
557(13) 0.00598 579.6 9.5
574(13) 0.00596 579.8 9.5
570(12) 0.00624 580.0 9.4
597(13) 0.00560 580.2 9.4
618(14) 0.00501 580.4 9.3
600(13) 0.00559 580.7 9.3
575(12) 0.00612 580.9 9.2
582(13) 0.00598 581.1 9.2
602(13) 0.00547 581.3 9.1
602(14) 0.00513 581.5 9.1
618(13) 0.00531 581.8 9.0
579(12) 0.00608 582.0 9.0
577(13) 0.00602 582.2 9.0
596(13) 0.00538 582.4 8.9
557(13) 0.00551 582.6 8.9
521(12) 0.00640 582.8 8.9
587(13) 0.00593 583.1 8.9
574(12) 0.00612 583.3 8.8
579(13) 0.00576 583.5 8.8
571(13) 0.00552 583.7 8.8
586(13) 0.00569 583.9 8.8
596(13) 0.00591 584.2 8.7
562(12) 0.00615 584.4 8.7
557(13) 0.00577 584.6 8.7
592(13) 0.00525 584.8 8.7
614(13) 0.00537 585.0 8.7
561(12) 0.00622 585.2 8.7
604(13) 0.00571 585.5 8.6
571(13) 0.00568 585.7 8.6
578(13) 0.00558 585.9 8.6
612(13) 0.00535 586.1 8.6
615(13) 0.00571 586.3 8.6
590(13) 0.00566 586.5 8.6
566(13) 0.00569 586.8 8.6
594(13) 0.00535 587.0 8.7
570(13) 0.00585 587.2 8.7
594(13) 0.00593 587.4 8.7
580(13) 0.00586 587.6 8.7
598(13) 0.00541 587.9 8.7
584(13) 0.00547 588.1 8.7
596(13) 0.00562 588.3 8.7
579(12) 0.00609 588.5 8.7
572(13) 0.00560 588.7 8.7
584(13) 0.00537 588.9 8.7
600(13) 0.00540 589.2 8.7
593(13) 0.00569 589.4 8.7
572(12) 0.00614 589.6 8.8
578(13) 0.00558 589.8 8.8
555(13) 0.00559 590.0 8.8
591(13) 0.00553 590.3 8.8
593(13) 0.00584 590.5 8.8
564(12) 0.00620 590.7 8.8
586(13) 0.00574 590.9 8.9
586(13) 0.00535 591.1 8.9
582(13) 0.00580 591.3 8.9
604(13) 0.00572 591.6 8.9
590(13) 0.00598 591.8 9.0
618(13) 0.00526 592.0 9.0
601(14) 0.00517 592.3 9.0
610(13) 0.00534 592.7 9.1
622(13) 0.00566 593.2 9.1
599(13) 0.00581 593.6 9.1
579(13) 0.00571 594.1 9.2
589(14) 0.00519 594.6 9.2
609(13) 0.00541 595.0 9.2
586(12) 0.00605 595.5 9.3
609(13) 0.00581 596.0 9.3
582(13) 0.00573 596.4 9.3
586(13) 0.00532 596.9 9.4
593(13) 0.00560 597.3 9.4
627(13) 0.00566 597.8 9.5
573(13) 0.00584 598.3 9.5
626(14) 0.00511 598.7 9.6
611(14) 0.00518 599.2 9.6
599(13) 0.00553 599.6 9.7
636(13) 0.00553 600.1 9.7
581(13) 0.00600 600.6 9.8
603(13) 0.00544 601.0 9.8
642(14) 0.00487 601.5 9.9
622(13) 0.00529 602.0 9.9
602(13) 0.00581 602.4 10.0
630(13) 0.00545 602.9 10.1
608(13) 0.00547 603.3 10.1
592(13) 0.00556 603.8 10.2
613(13) 0.00537 604.3 10.3
586(13) 0.00602 604.7 10.3
613(13) 0.00545 605.2 10.4
594(13) 0.00536 605.7 10.5
625(14) 0.00513 606.1 10.5
591(13) 0.00580 606.6 10.6
602(13) 0.00581 607.0 10.7
636(13) 0.00528 607.5 10.8
607(13) 0.00536 608.0 10.8
595(13) 0.00552 608.4 10.9
611(13) 0.00555 608.9 11.0
611(13) 0.00576 609.3 11.1
617(13) 0.00539 609.8 11.2
599(13) 0.00535 610.3 11.3
619(13) 0.00534 610.7 11.4
618(13) 0.00562 611.2 11.5
630(13) 0.00560 611.7 11.6
632(14) 0.00518 612.1 11.7
572(13) 0.00551 612.6 11.8
630(14) 0.00516 613.0 11.9
614(13) 0.00567 613.5 12.0
580(13) 0.00599 614.0 12.1
604(13) 0.00533 614.4 12.2
567(13) 0.00545 614.9 12.3
614(13) 0.00529 615.4 12.4
638(13) 0.00550 615.8 12.5
606(13) 0.00582 616.3 12.7
648(14) 0.00513 616.7 12.8
631(14) 0.00501 617.2 12.9
607(13) 0.00540 617.7 13.0
619(13) 0.00566 618.1 13.2
600(13) 0.00583 618.6 13.3
608(13) 0.00543 619.0 13.4
638(14) 0.00482 619.5 13.6
633(13) 0.00528 620.0 13.7
617(13) 0.00569 620.4 13.9
647(13) 0.00529 620.9 14.0
649(14) 0.00518 621.4 14.2
665(14) 0.00473 621.8 14.3
596(13) 0.00553 622.3 14.5
611(13) 0.00578 622.7 14.7
642(13) 0.00534 623.2 14.8
631(14) 0.00522 623.7 15.0
638(14) 0.00491 624.1 15.2
604(13) 0.00535 624.6 15.4
598(13) 0.00589 625.0 15.6
608(13) 0.00564 625.5 15.8
629(13) 0.00526 626.0 16.0
645(14) 0.00498 626.4 16.2
644(14) 0.00499 626.9 16.4
618(13) 0.00573 627.4 16.6
629(13) 0.00543 627.8 16.8
600(13) 0.00548 628.3 17.0
625(14) 0.00517 628.7 17.3
626(13) 0.00537 629.2 17.5
648(13) 0.00548 629.7 17.7
648(14) 0.00507 630.1 18.0
602(13) 0.00534 630.6 18.2
630(14) 0.00513 631.1 18.5
616(13) 0.00553 631.5 18.8
639(13) 0.00554 632.0 19.0
620(13) 0.00532 632.4 19.3
618(14) 0.00508 632.9 19.6
588(13) 0.00560 633.4 19.9
620(13) 0.00551 633.8 20.2
614(13) 0.00574 634.3 20.5
643(14) 0.00504 634.7 20.8
612(14) 0.00516 635.2 21.1
599(13) 0.00553 635.7 21.5
622(13) 0.00552 636.1 21.8
624(13) 0.00565 636.6 22.2
611(13) 0.00550 637.1 22.6
599(14) 0.00519 637.5 22.9
621(13) 0.00525 638.0 23.3
636(13) 0.00554 638.4 23.7
603(13) 0.00577 638.9 24.1
630(14) 0.00517 639.4 24.6
642(14) 0.00475 639.8 25.0
685(14) 0.00487 640.3 25.4
666(13) 0.00531 640.8 25.9
598(13) 0.00581 641.2 26.4
648(14) 0.00510 641.7 26.9
644(14) 0.00489 642.1 27.4
651(14) 0.00507 642.6 27.9
662(13) 0.00529 643.1 28.4
649(13) 0.00533 643.5 29.0
604(13) 0.00552 644.0 29.6
642(14) 0.00484 644.4 30.2
676(14) 0.00483 644.9 30.8
665(13) 0.00530 645.4 31.4
653(13) 0.00533 645.8 32.1
659(14) 0.00503 646.3 32.7
667(14) 0.00471 646.8 33.4
646(14) 0.00508 647.2 34.2
682(14) 0.00520 647.7 34.9
633(13) 0.00537 648.1 35.7
634(14) 0.00506 648.6 36.5
666(14) 0.00484 649.1 37.3
632(13) 0.00528 649.5 38.2
651(13) 0.00542 650.0 39.1
688(14) 0.00496 650.5 40.0
678(14) 0.00481 650.9 41.0
693(14) 0.00472 651.4 42.0
704(14) 0.00477 651.8 43.0
710(14) 0.00498 652.3 44.1
681(14) 0.00494 652.8 45.2
685(14) 0.00476 653.2 46.4
682(14) 0.00476 653.7 47.6
691(14) 0.00500 654.1 48.9
714(14) 0.00498 654.6 50.2
687(14) 0.00483 655.1 51.6
671(14) 0.00469 655.5 53.0
685(14) 0.00479 656.0 54.5
715(14) 0.00493 656.5 56.1
690(14) 0.00511 656.9 57.7
716(14) 0.00462 657.4 59.4
701(15) 0.00449 657.8 61.2
680(14) 0.00486 658.3 63.1
699(14) 0.00499 658.8 65.1
742(14) 0.00481 659.2 67.1
704(14) 0.00481 659.7 69.3
725(15) 0.00431 660.2 71.6
676(14) 0.00504 660.6 74.0
687(14) 0.00505 661.1 76.5
708(14) 0.00507 661.5 79.1
726(15) 0.00449 662.0 81.9
719(15) 0.00421 662.5 84.9
692(14) 0.00470 662.9 88.0
748(14) 0.00468 663.4 91.3
764(14) 0.00465 663.8 94.8
770(15) 0.00436 664.3 98.5
726(15) 0.00432 664.8 102.4
724(14) 0.00461 665.2 106.5
706(14) 0.00506 665.7 110.9
741(14) 0.00474 666.2 115.6
742(14) 0.00459 666.6 120.6
747(15) 0.00422 667.1 126.0
709(14) 0.00466 667.5 131.6
742(14) 0.00481 668.0 137.7
734(14) 0.00476 668.5 144.3
747(15) 0.00435 668.9 151.3
748(15) 0.00424 669.4 158.8
754(15) 0.00444 669.9 166.9
792(15) 0.00450 670.3 175.6
758(15) 0.00456 670.8 185.0
811(15) 0.00406 671.2 195.2
869(16) 0.00372 671.7 206.3
832(15) 0.00407 672.2 218.3
834(15) 0.00431 672.6 231.4
895(16) 0.00383 673.1 245.7
872(16) 0.00385 673.5 261.4
879(16) 0.00378 674.0 278.8
905(16) 0.00371 674.5 297.9
939(16) 0.00385 674.9 319.3
958(16) 0.00356 675.4 343.2
935(17) 0.00353 675.9 370.3
1025(17) 0.003266 676.3 401.1
1003(17) 0.00352 676.8 436.6
1093(17) 0.003294 677.2 477.9
1134(18) 0.002967 677.7 526.3
1162(19) 0.002833 678.2 583.6
1251(19) 0.002722 678.6 651.9
1371(20) 0.002539 679.1 733.6
1485(20) 0.002436 679.6 831.7
1595(21) 0.002134 680.0 949.2
1730(23) 0.001874 680.5 1089.6
1891(23) 0.001791 680.9 1256.3
2104(24) 0.001710 681.4 1452.8
2255(25) 0.001624 681.9 1681.9
2644(28) 0.001294 682.3 1945.7
2849(29) 0.001151 682.8 2245.6
3292(31) 0.001030 683.2 2580.7
3739(32) 0.000970 683.7 2948.3
4207(34) 0.000874 684.2 3341.8
4741(37) 0.000731 685. 3750.
5282(41) 0.000604 685. 4156.
5438(40) 0.000632 686. 4536.
5871(40) 0.000618 686. 4859.
6155(41) 0.000594 686. 5092.
6171(42) 0.000560 687. 5207.
6010(43) 0.000531 687. 5188.
5592(40) 0.000622 688. 5037.
5273(38) 0.000695 688. 4775.
4852(37) 0.000744 689. 4433.
4417(36) 0.000776 689. 4043.
4064(35) 0.000800 690. 3634.
3717(33) 0.000925 690.2 3229.0
3354(30) 0.001095 690.6 2842.3
3117(29) 0.001151 691.1 2483.9
2844(29) 0.001204 691.6 2159.2
2661(28) 0.001228 692.0 1870.1
2468(27) 0.001399 692.5 1616.9
2243(25) 0.001633 692.9 1397.9
2085(24) 0.001712 693.4 1210.7
1971(24) 0.001711 693.9 1052.5
1880(24) 0.001757 694.3 919.5
1686(22) 0.002048 694.8 808.5
1696(21) 0.002139 695.3 716.0
1549(21) 0.002281 695.7 639.0
1512(21) 0.002222 696.2 574.9
1386(20) 0.002393 696.6 521.0
1310(19) 0.002619 697.1 475.7
1265(18) 0.002864 697.6 437.1
1254(19) 0.002762 698.0 404.0
1175(18) 0.002861 698.5 375.4
1170(18) 0.002876 698.9 350.5
1132(18) 0.003076 699.4 328.8
1134(17) 0.003179 699.9 309.6
1110(18) 0.003054 700.3 292.8
1045(18) 0.003141 700.8 278.0
1062(18) 0.003144 701.3 265.1
1022(17) 0.003391 701.7 254.0
985(16) 0.00367 702.2 244.4
983(17) 0.003405 702.6 236.5
988(17) 0.003344 703.1 230.2
997(17) 0.003369 703.6 225.5
956(16) 0.00371 704.0 222.4
948(16) 0.00377 704.5 220.9
917(16) 0.00369 705.0 221.0
924(17) 0.003476 705.4 222.8
953(17) 0.00352 705.9 226.3
929(16) 0.00381 706.3 231.4
966(16) 0.00372 706.8 238.0
974(17) 0.003435 707.3 245.9
916(17) 0.003498 707.7 254.9
949(17) 0.003452 708.2 264.6
916(16) 0.00386 708.6 274.4
975(16) 0.00367 709.1 283.5
936(16) 0.00363 709.6 291.0
954(17) 0.003318 710.0 295.9
973(17) 0.003504 710.5 297.2
999(16) 0.00362 711.0 294.5
958(16) 0.00368 711.4 287.7
933(16) 0.00371 711.9 277.0
938(17) 0.003444 712.3 263.4
925(16) 0.00372 712.8 247.7
910(16) 0.00395 713.3 231.0
917(16) 0.00383 713.7 214.0
845(15) 0.00406 714.2 197.3
874(16) 0.00366 714.7 181.3
817(15) 0.00407 715.1 166.3
810(15) 0.00441 715.6 152.5
807(15) 0.00432 716.0 139.9
767(15) 0.00424 716.5 128.6
778(15) 0.00410 717.0 118.4
758(15) 0.00438 717.4 109.4
761(14) 0.00468 717.9 101.5
776(15) 0.00443 718.3 94.5
816(16) 0.00392 718.8 88.3
784(15) 0.00407 719.3 83.0
755(15) 0.00439 719.7 78.2
762(14) 0.00468 720.2 74.0
769(15) 0.00439 720.7 70.3
752(15) 0.00437 721.1 67.0
798(15) 0.00405 721.6 64.1
761(15) 0.00446 722.0 61.4
750(14) 0.00473 722.5 59.0
780(15) 0.00434 723.0 56.7
739(15) 0.00439 723.4 54.7
727(14) 0.00462 723.9 52.8
733(14) 0.00460 724.4 51.0
743(14) 0.00477 724.8 49.4
721(14) 0.00465 725.3 47.8
787(15) 0.00415 725.7 46.4
767(15) 0.00448 726.2 45.0
744(14) 0.00463 726.7 43.7
754(14) 0.00472 727.1 42.5
732(15) 0.00453 727.6 41.3
754(15) 0.00421 728.0 40.2
725(14) 0.00459 728.5 39.2
753(14) 0.00461 729.0 38.2
789(15) 0.00452 729.4 37.2
723(14) 0.00474 729.9 36.3
731(15) 0.00438 730.4 35.4
718(14) 0.00467 730.8 34.6
736(14) 0.00477 731.3 33.8
753(14) 0.00468 731.7 33.0
751(15) 0.00449 732.2 32.3
741(15) 0.00418 732.7 31.6
783(15) 0.00427 733.1 30.9
739(14) 0.00486 733.6 30.3
719(14) 0.00490 734.1 29.6
733(15) 0.00449 734.5 29.0
733(15) 0.00419 735.0 28.5
736(15) 0.00452 735.4 27.9
705(14) 0.00505 735.9 27.4
720(14) 0.00488 736.4 26.9
793(15) 0.00413 736.8 26.4
699(14) 0.00456 737.3 25.9
737(15) 0.00453 737.7 25.4
727(14) 0.00488 738.2 25.0
738(14) 0.00472 738.7 24.5
703(14) 0.00465 739.1 24.1
701(15) 0.00456 739.6 23.7
745(15) 0.00452 740.1 23.3
739(14) 0.00482 740.5 22.9
736(14) 0.00473 741.0 22.6
739(15) 0.00448 741.4 22.2
719(14) 0.00459 741.9 21.9
756(15) 0.00444 742.4 21.5
799(15) 0.00449 742.8 21.2
759(15) 0.00448 743.3 20.9
731(15) 0.00437 743.8 20.6
740(15) 0.00446 744.2 20.3
776(15) 0.00440 744.7 20.0
741(14) 0.00480 745.1 19.7
748(14) 0.00457 745.6 19.5
756(15) 0.00432 746.1 19.2
731(15) 0.00454 746.5 19.0
746(15) 0.00451 747.0 18.7
743(14) 0.00477 747.4 18.5
766(15) 0.00433 747.9 18.3
761(15) 0.00428 748.4 18.0
779(15) 0.00431 748.8 17.8
743(14) 0.00474 749.3 17.6
750(14) 0.00475 749.8 17.4
755(15) 0.00444 750.2 17.2
781(15) 0.00412 750.7 17.0
788(15) 0.00430 751.1 16.9
794(15) 0.00443 751.6 16.7
788(15) 0.00454 752.1 16.5
775(15) 0.00437 752.5 16.4
751(15) 0.00423 753.0 16.2
737(15) 0.00448 753.5 16.1
798(15) 0.00441 753.9 15.9
732(14) 0.00482 754.4 15.8
745(15) 0.00452 754.8 15.7
757(15) 0.00415 755.3 15.5
764(15) 0.00430 755.8 15.4
753(14) 0.00468 756.2 15.3
765(14) 0.00458 756.7 15.2
753(15) 0.00447 757.2 15.1
743(15) 0.00420 757.8 15.0
755(15) 0.00442 758.4 14.9
768(14) 0.00465 758.9 14.8
776(14) 0.00457 759.5 14.7
746(15) 0.00447 760.1 14.7
734(15) 0.00426 760.6 14.6
750(15) 0.00442 761.2 14.5
736(14) 0.00488 761.8 14.5
747(14) 0.00465 762.3 14.4
764(15) 0.00433 762.9 14.4
746(15) 0.00423 763.5 14.4
782(15) 0.00416 764.1 14.3
761(14) 0.00470 764.6 14.3
750(15) 0.00456 765.2 14.3
786(15) 0.00415 765.8 14.3
790(15) 0.00406 766.3 14.3
769(15) 0.00437 766.9 14.3
741(14) 0.00475 767.5 14.3
751(15) 0.00452 768.0 14.3
772(15) 0.00427 768.6 14.3
785(15) 0.00420 769.2 14.4
794(15) 0.00424 769.7 14.4
752(14) 0.00476 770.3 14.5
773(15) 0.00435 770.9 14.6
778(15) 0.00417 771.4 14.6
775(15) 0.00420 772.0 14.7
767(15) 0.00443 772.6 14.8
764(14) 0.00468 773.1 15.0
795(15) 0.00420 773.7 15.1
754(15) 0.00436 774.3 15.2
750(15) 0.00445 774.9 15.4
749(15) 0.00452 775.4 15.6
772(14) 0.00461 776.0 15.8
751(15) 0.00437 776.6 16.0
765(15) 0.00410 777.1 16.2
770(15) 0.00433 777.7 16.5
780(15) 0.00450 778.3 16.8
783(15) 0.00454 778.8 17.1
771(15) 0.00432 779.4 17.5
777(15) 0.00411 780.0 17.9
820(15) 0.00409 780.5 18.3
823(15) 0.00420 781.1 18.7
784(15) 0.00453 781.7 19.2
801(15) 0.00415 782.2 19.8
790(15) 0.00403 782.8 20.4
835(16) 0.00399 783.4 21.1
807(15) 0.00442 783.9 21.8
778(15) 0.00454 784.5 22.7
785(15) 0.00418 785.1 23.6
773(15) 0.00401 785.7 24.6
792(15) 0.00427 786.2 25.7
782(15) 0.00455 786.8 27.0
769(15) 0.00455 787.4 28.4
794(15) 0.00425 787.9 30.0
832(16) 0.00374 788.5 31.7
817(15) 0.00411 789.1 33.7
809(15) 0.00443 789.6 36.0
819(15) 0.00427 790.2 38.6
816(15) 0.00406 790.8 41.7
856(16) 0.00366 791.3 45.2
872(16) 0.00380 791.9 49.4
853(15) 0.00417 792.5 54.5
858(15) 0.00407 793.0 60.9
875(16) 0.00373 793.6 69.0
938(17) 0.003406 794.2 79.6
933(16) 0.00359 794.7 93.7
922(16) 0.00387 795.3 112.3
943(16) 0.00363 795.9 137.1
981(17) 0.003389 796.4 169.6
989(17) 0.003330 797.0 211.2
1072(17) 0.003189 797.6 263.2
1151(18) 0.003143 798.2 326.2
1217(18) 0.002875 798.7 399.5
1336(20) 0.002455 799.3 481.1
1339(20) 0.002532 799.9 566.5
1379(20) 0.002480 800.4 647.9
1508(20) 0.002427 801.0 714.3
1552(21) 0.002200 801.6 752.9
1565(22) 0.002116 802.1 754.7
1596(21) 0.002126 802.7 719.2
1514(20) 0.002362 803.3 654.8
1342(19) 0.002692 803.8 574.2
1204(19) 0.002757 804.4 488.8
1164(19) 0.002797 805.0 406.5
1067(18) 0.003166 805.5 332.2
1024(17) 0.003440 806.1 268.2
964(16) 0.00373 806.7 215.0
954(17) 0.00355 807.2 172.4
893(16) 0.00363 807.8 139.1
887(16) 0.00378 808.4 113.6
908(16) 0.00391 809.0 94.4
884(15) 0.00404 809.5 79.9
857(16) 0.00396 810.1 68.9
856(16) 0.00365 810.7 60.5
870(16) 0.00385 811.2 53.9
877(15) 0.00406 811.8 48.7
848(15) 0.00418 812.4 44.3
868(16) 0.00381 812.9 40.6
853(16) 0.00364 813.5 37.5
820(15) 0.00407 814.1 34.8
827(15) 0.00430 814.6 32.4
838(15) 0.00422 815.2 30.3
840(15) 0.00403 815.8 28.4
824(16) 0.00382 816.3 26.8
829(15) 0.00412 816.9 25.3
856(15) 0.00420 817.5 23.9
843(15) 0.00412 818.0 22.7
832(15) 0.00407 818.6 21.6
853(16) 0.00369 819.2 20.6
839(16) 0.00396 819.7 19.7
824(15) 0.00433 820.3 18.9
867(15) 0.00408 820.9 18.1
844(16) 0.00399 821.5 17.4
826(16) 0.00390 822.0 16.8
836(16) 0.00388 822.6 16.2
818(15) 0.00432 823.2 15.6
811(15) 0.00429 823.7 15.1
825(15) 0.00403 824.3 14.7
796(15) 0.00409 824.9 14.2
828(15) 0.00408 825.4 13.8
825(15) 0.00431 826.0 13.4
835(15) 0.00412 826.6 13.1
820(15) 0.00408 827.1 12.7
809(15) 0.00403 827.7 12.4
812(15) 0.00415 828.3 12.2
825(15) 0.00434 828.8 11.9
820(15) 0.00414 829.4 11.6
815(15) 0.00413 830.0 11.4
815(15) 0.00407 830.5 11.2
825(15) 0.00421 831.1 11.0
852(15) 0.00418 831.7 10.8
857(16) 0.00383 832.3 10.6
827(16) 0.00392 832.8 10.4
860(16) 0.00380 833.4 10.2
858(15) 0.00404 834.0 10.1
841(15) 0.00424 834.5 9.9
872(16) 0.00384 835.1 9.8
846(16) 0.00381 835.7 9.6
827(15) 0.00411 836.2 9.5
851(15) 0.00414 836.8 9.4
873(15) 0.00412 837.4 9.3
806(15) 0.00420 837.9 9.2
858(16) 0.00371 838.5 9.1
866(16) 0.00393 839.1 9.0
842(15) 0.00421 839.6 8.9
854(15) 0.00417 840.2 8.8
839(15) 0.00404 840.8 8.7
846(16) 0.00372 841.3 8.7
836(16) 0.00401 841.9 8.6
843(15) 0.00421 842.5 8.5
850(15) 0.00419 843.1 8.5
840(15) 0.00407 843.6 8.4
861(16) 0.00367 844.2 8.3
882(16) 0.00379 844.8 8.3
845(15) 0.00425 845.3 8.2
850(15) 0.00415 845.9 8.2
846(16) 0.00398 846.5 8.2
815(16) 0.00395 847.0 8.1
828(16) 0.00398 847.6 8.1
842(15) 0.00419 848.2 8.1
844(15) 0.00416 848.7 8.0
827(15) 0.00404 849.3 8.0
831(16) 0.00387 849.9 8.0
836(15) 0.00407 850.4 8.0
864(15) 0.00415 851.0 7.9
822(15) 0.00433 851.6 7.9
859(16) 0.00395 852.1 7.9
889(16) 0.00361 852.7 7.9
827(15) 0.00406 853.3 7.9
834(15) 0.00428 853.8 7.9
842(15) 0.00406 854.4 7.9
849(16) 0.00393 855.0 7.9
839(16) 0.00391 855.6 7.9
873(16) 0.00386 856.1 7.9
875(15) 0.00411 856.7 7.9
843(15) 0.00403 857.3 7.9
862(16) 0.00384 857.8 7.9
893(16) 0.00374 858.4 7.9
896(16) 0.00381 859.0 7.9
859(15) 0.00416 859.5 8.0
846(15) 0.00402 860.1 8.0
810(15) 0.00413 860.7 8.0
871(16) 0.00385 861.2 8.0
852(15) 0.00410 861.8 8.1
898(16) 0.00400 862.4 8.1
850(15) 0.00404 862.9 8.1
867(16) 0.00369 863.5 8.2
879(16) 0.00375 864.1 8.2
877(16) 0.00398 864.6 8.2
846(15) 0.00423 865.2 8.3
888(16) 0.00370 865.8 8.3
865(16) 0.00359 866.3 8.4
853(16) 0.00388 866.8 8.4
885(16) 0.00398 867.3 8.5
858(15) 0.00417 867.9 8.5
872(16) 0.00383 868.4 8.6
855(16) 0.00363 868.9 8.7
871(16) 0.00382 869.4 8.7
865(15) 0.00411 870.0 8.8
904(16) 0.00392 870.5 8.9
884(16) 0.00382 871.0 8.9
877(16) 0.00356 871.5 9.0
879(16) 0.00394 872.0 9.1
895(15) 0.00401 872.6 9.2
896(16) 0.00394 873.1 9.3
836(16) 0.00397 873.6 9.4
878(16) 0.00359 874.1 9.5
886(16) 0.00389 874.7 9.6
905(16) 0.00396 875.2 9.7
920(16) 0.00384 875.7 9.8
909(16) 0.00369 876.2 9.9
865(16) 0.00372 876.7 10.0
908(16) 0.00365 877.3 10.2
921(16) 0.00390 877.8 10.3
950(16) 0.00370 878.3 10.4
865(16) 0.00388 878.8 10.6
850(16) 0.00386 879.3 10.7
875(16) 0.00380 879.9 10.9
916(16) 0.00390 880.4 11.1
884(16) 0.00390 880.9 11.2
902(16) 0.00362 881.4 11.4
856(16) 0.00386 882.0 11.6
880(16) 0.00385 882.5 11.8
878(15) 0.00407 883.0 12.0
872(16) 0.00389 883.5 12.2
923(17) 0.00351 884.0 12.4
883(16) 0.00381 884.6 12.6
886(16) 0.00385 885.1 12.9
909(16) 0.00394 885.6 13.1
873(16) 0.00390 886.1 13.4
864(16) 0.00377 886.7 13.6
896(16) 0.00372 887.2 13.9
879(16) 0.00398 887.7 14.2
872(15) 0.00412 888.2 14.5
931(16) 0.00358 888.7 14.8
867(16) 0.00376 889.3 15.2
910(16) 0.00370 889.8 15.5
898(16) 0.00393 890.3 15.9
909(16) 0.00396 890.8 16.3
903(16) 0.00370 891.4 16.7
901(17) 0.00352 891.9 17.1
893(16) 0.00380 892.4 17.5
941(16) 0.00374 892.9 18.0
908(16) 0.00395 893.4 18.5
905(16) 0.00364 894.0 19.0
919(17) 0.003423 894.5 19.5
929(16) 0.00358 895.0 20.1
889(16) 0.00401 895.5 20.7
933(16) 0.00383 896.1 21.3
929(16) 0.00357 896.6 22.0
879(16) 0.00362 897.1 22.7
951(16) 0.00362 897.6 23.4
982(16) 0.00364 898.1 24.2
919(16) 0.00386 898.7 25.1
934(16) 0.00361 899.2 25.9
956(17) 0.003276 899.7 26.9
941(17) 0.00355 900.2 27.9
938(16) 0.00381 900.7 28.9
899(16) 0.00393 901.3 30.0
941(17) 0.00355 901.8 31.2
930(17) 0.00351 902.3 32.5
946(17) 0.00353 902.8 33.8
957(16) 0.00376 903.4 35.3
945(16) 0.00373 903.9 36.8
976(17) 0.003434 904.4 38.5
914(16) 0.00360 904.9 40.3
920(16) 0.00367 905.4 42.2
931(16) 0.00385 906.0 44.3
943(16) 0.00368 906.5 46.6
947(17) 0.00351 907.0 49.0
945(17) 0.003479 907.5 51.7
964(16) 0.00356 908.1 54.6
973(16) 0.00369 908.6 57.8
955(16) 0.00363 909.1 61.4
911(16) 0.00371 909.6 65.3
970(17) 0.003399 910.1 69.7
939(16) 0.00369 910.7 74.6
985(16) 0.00366 911.2 80.2
1009(17) 0.003399 911.7 86.4
990(17) 0.003387 912.2 93.5
1001(17) 0.003347 912.8 101.6
998(17) 0.003451 913.3 110.8
992(16) 0.00363 913.8 121.3
997(17) 0.003354 914.3 133.2
1054(18) 0.003106 914.8 146.8
1095(18) 0.003070 915.4 162.3
1085(17) 0.003241 915.9 179.8
1134(17) 0.003179 916.4 199.5
1080(18) 0.003138 916.9 221.7
1136(19) 0.002823 917.5 246.4
1132(18) 0.003009 918.0 273.8
1204(18) 0.002960 918.5 303.9
1243(18) 0.002912 919.0 336.8
1281(19) 0.002685 919.5 372.3
1332(20) 0.002426 920.1 410.1
1409(20) 0.002392 920.6 449.8
1436(20) 0.002500 921.1 490.5
1461(20) 0.002467 921.6 531.3
1573(21) 0.002165 922.1 570.7
1627(23) 0.001921 922.7 606.9
1618(22) 0.002098 923.2 638.0
1681(21) 0.002165 923.7 661.8
1638(21) 0.002191 924.2 676.4
1669(22) 0.002054 924.8 680.8
1659(23) 0.001913 925.3 674.4
1609(22) 0.002096 925.8 657.8
1517(20) 0.002391 926.3 632.5
1505(20) 0.002384 926.8 600.3
1480(21) 0.002292 927.4 563.3
1475(21) 0.002193 927.9 523.5
1441(20) 0.002357 928.4 482.6
1433(20) 0.002528 928.9 441.9
1368(19) 0.002608 929.5 402.6
1287(19) 0.002631 930.0 365.2
1272(20) 0.002551 930.5 330.2
1301(19) 0.002588 931.0 297.8
1267(18) 0.002867 931.5 268.1
1207(18) 0.002898 932.1 241.2
1193(19) 0.002826 932.6 217.0
1228(19) 0.002724 933.1 195.3
1149(18) 0.002986 933.6 176.0
1162(18) 0.003100 934.2 158.9
1152(18) 0.002978 934.7 143.8
1087(18) 0.003129 935.2 130.5
1160(19) 0.002803 935.7 118.8
1108(18) 0.003075 936.2 108.6
1112(17) 0.003256 936.8 99.6
1044(17) 0.003283 937.3 91.7
1050(18) 0.003160 937.8 84.8
1029(17) 0.003263 938.3 78.7
1074(17) 0.003240 938.9 73.2
1101(17) 0.003274 939.4 68.4
1033(17) 0.003213 939.9 64.1
998(17) 0.003299 940.4 60.2
1037(17) 0.003282 940.9 56.7
1021(17) 0.003434 941.5 53.5
987(16) 0.00367 942.0 50.6
1004(17) 0.003334 942.5 48.0
1014(18) 0.003156 943.0 45.6
956(17) 0.00354 943.5 43.3
990(17) 0.003491 944.1 41.3
1014(16) 0.00358 944.6 39.3
1046(18) 0.003167 945.1 37.6
1013(18) 0.003147 945.6 35.9
1028(17) 0.003332 946.2 34.4
999(17) 0.00354 946.7 32.9
982(16) 0.00365 947.2 31.6
981(17) 0.003422 947.7 30.3
964(17) 0.003262 948.2 29.1
973(17) 0.003460 948.8 28.0
983(16) 0.00363 949.3 26.9
942(16) 0.00379 949.8 25.9
1030(17) 0.003205 950.3 25.0
990(18) 0.003145 950.9 24.1
998(17) 0.003410 951.4 23.3
1038(17) 0.003485 951.9 22.5
975(16) 0.00364 952.4 21.7
988(17) 0.003421 952.9 21.0
987(17) 0.003278 953.5 20.3
996(17) 0.003382 954.0 19.7
972(16) 0.00367 954.5 19.1
992(17) 0.00355 955.0 18.5
984(17) 0.003373 955.6 17.9
998(17) 0.003179 956.1 17.4
1008(17) 0.003337 956.6 16.9
973(16) 0.00367 957.1 16.4
1006(17) 0.003492 957.6 16.0
999(17) 0.003381 958.2 15.5
999(17) 0.003275 958.7 15.1
959(17) 0.00355 959.2 14.7
994(16) 0.00361 959.7 14.3
964(16) 0.00359 960.3 14.0
983(17) 0.003331 960.8 13.6
1033(17) 0.003186 961.3 13.3
1035(17) 0.003331 961.8 13.0
985(16) 0.00365 962.3 12.6
962(16) 0.00358 962.9 12.3
989(17) 0.003323 963.4 12.1
1003(17) 0.003330 963.9 11.8
957(16) 0.00364 964.4 11.5
991(16) 0.00362 964.9 11.3
981(17) 0.003400 965.5 11.0
964(17) 0.003386 966.0 10.8
1040(17) 0.003206 966.5 10.5
961(16) 0.00367 967.0 10.3
953(16) 0.00376 967.6 10.1
1018(17) 0.003273 968.1 9.9
1023(18) 0.003146 968.6 9.7
993(17) 0.003403 969.1 9.5
1036(17) 0.003441 969.6 9.3
968(16) 0.00372 970.2 9.2
970(17) 0.003438 970.7 9.0
987(17) 0.003251 971.2 8.9
1007(17) 0.003295 971.7 8.7
1005(16) 0.00357 972.3 8.6
1003(16) 0.00358 972.8 8.4
981(17) 0.003428 973.3 8.3
973(17) 0.003298 973.8 8.1
1043(17) 0.003221 974.3 8.0
1007(17) 0.00353 974.9 7.9
970(16) 0.00371 975.4 7.7
1005(17) 0.003315 975.9 7.6
1000(18) 0.003166 976.4 7.5
1046(18) 0.003166 977.0 7.4
1005(17) 0.00353 977.5 7.2
1010(17) 0.00354 978.0 7.1
990(17) 0.003340 978.5 7.0
1001(18) 0.003146 979.0 6.9
998(17) 0.003418 979.6 6.8
1032(17) 0.003472 980.1 6.7
996(17) 0.003502 980.6 6.6
965(17) 0.003390 981.1 6.5
946(17) 0.003478 981.7 6.4
1005(17) 0.003390 982.2 6.3
1039(17) 0.003443 982.7 6.3
982(17) 0.00353 983.2 6.2
1011(17) 0.003268 983.7 6.1
994(17) 0.003307 984.3 6.0
1033(17) 0.003252 984.8 5.9
1019(17) 0.00351 985.3 5.9
1047(17) 0.003245 985.8 5.8
1033(17) 0.003223 986.3 5.7
988(17) 0.003379 986.9 5.7
984(17) 0.003433 987.4 5.6
1012(17) 0.00355 987.9 5.5
1011(17) 0.003396 988.4 5.5
980(17) 0.003462 989.0 5.4
981(17) 0.003430 989.5 5.3
999(17) 0.003464 990.0 5.3
964(16) 0.00372 990.5 5.2
1001(17) 0.003393 991.0 5.2
988(17) 0.003327 991.6 5.1
1006(17) 0.003321 992.1 5.1
1011(17) 0.003433 992.6 5.0
992(16) 0.00358 993.1 5.0
1025(17) 0.003269 993.7 4.9
989(17) 0.003271 994.2 4.9
1016(17) 0.003263 994.7 4.8
1058(17) 0.003305 995.2 4.8
1016(17) 0.00354 995.7 4.7
1002(17) 0.003352 996.3 4.7
981(17) 0.003289 996.8 4.6
1059(17) 0.003223 997.3 4.6
1042(17) 0.003434 997.8 4.6
1031(17) 0.00352 998.4 4.5
1007(17) 0.003367 998.9 4.5
1018(18) 0.003115 999.4 4.5
1014(17) 0.003345 999.9 4.4
998(16) 0.00358 1000.4 4.4
1003(16) 0.00357 1001.0 4.4
1026(17) 0.003302 1001.5 4.3
1005(18) 0.003108 1002.0 4.3
962(17) 0.00355 1002.5 4.3
1026(17) 0.003499 1003.1 4.3
1021(17) 0.00351 1003.6 4.2
1035(17) 0.003256 1004.1 4.2
978(17) 0.003232 1004.6 4.2
955(17) 0.00351 1005.1 4.2
1009(17) 0.00353 1005.7 4.2
1040(17) 0.003373 1006.2 4.1
987(17) 0.003473 1006.7 4.1
1024(18) 0.003132 1007.2 4.1
1021(17) 0.003220 1007.8 4.1
1002(16) 0.00359 1008.3 4.1
990(16) 0.00358 1008.8 4.1
1018(17) 0.003293 1009.3 4.1
1018(17) 0.003204 1009.8 4.1
983(17) 0.003440 1010.4 4.1
1008(17) 0.00354 1010.9 4.1
947(16) 0.00372 1011.4 4.1
1027(17) 0.003227 1011.9 4.1
1039(18) 0.003134 1012.4 4.1
1029(17) 0.003193 1013.0 4.1
1026(17) 0.003497 1013.5 4.1
997(17) 0.003494 1014.0 4.1
1042(18) 0.003121 1014.5 4.1
994(17) 0.003336 1015.1 4.1
993(17) 0.003441 1015.6 4.2
1058(17) 0.003411 1016.1 4.2
1040(17) 0.003213 1016.6 4.2
1038(18) 0.003161 1017.1 4.2
1071(18) 0.003168 1017.7 4.2
1085(17) 0.003212 1018.2 4.3
1011(16) 0.00358 1018.7 4.3
994(17) 0.003444 1019.2 4.3
1054(18) 0.003088 1019.8 4.4
1033(17) 0.003270 1020.3 4.4
1000(17) 0.00351 1020.8 4.4
1023(17) 0.00353 1021.1 4.5
1037(18) 0.003163 1021.1 4.5
1037(18) 0.003066 1021.1 4.5
1041(17) 0.003197 1021.1 4.5
1010(17) 0.00352 1021.2 4.6
1013(17) 0.00355 1021.2 4.6
1009(17) 0.003327 1021.2 4.6
1038(18) 0.002974 1021.2 4.6
1031(17) 0.003353 1021.2 4.6
1027(17) 0.003486 1021.3 4.6
988(16) 0.00366 1021.3 4.6
1060(17) 0.003199 1021.3 4.6
1032(18) 0.003028 1021.3 4.6
1050(18) 0.003156 1021.4 4.6
1032(17) 0.003483 1021.4 4.5
1035(17) 0.003476 1021.4 4.5
1005(17) 0.003347 1021.4 4.5
1018(18) 0.003144 1021.4 4.4
1002(17) 0.003367 1021.5 4.4
1033(17) 0.003480 1021.5 4.3
1065(17) 0.003340 1021.5 4.3
1037(17) 0.003293 1021.5 4.2
1040(18) 0.003085 1021.5 4.2
1024(17) 0.003269 1021.6 4.1
992(16) 0.00365 1021.6 4.1
1024(17) 0.003448 1021.6 4.0
1011(17) 0.003366 1021.6 4.0
1055(18) 0.003093 1021.7 3.9
1032(17) 0.003256 1021.7 3.9
1040(17) 0.003459 1021.7 3.8
1011(17) 0.003420 1021.7 3.8
1004(17) 0.003351 1021.7 3.7
1035(18) 0.003170 1021.8 3.7
1041(17) 0.003219 1021.8 3.7
1034(17) 0.003494 1021.8 3.6
1038(17) 0.003306 1021.8 3.6
1038(17) 0.003181 1021.8 3.6
1030(17) 0.003261 1021.9 3.5
1013(17) 0.003399 1021.9 3.5
1003(16) 0.00358 1021.9 3.5
1029(17) 0.003330 1021.9 3.5
1018(17) 0.003261 1022.0 3.5
1012(17) 0.003332 1022.0 3.4
1052(17) 0.003296 1022.0 3.4
1027(17) 0.00352 1022.0 3.4
1050(18) 0.003087 1022.0 3.4
993(17) 0.003317 1022.1 3.4
1021(17) 0.003308 1022.1 3.4
1054(17) 0.003324 1022.1 3.4
1008(16) 0.00359 1022.1 3.4
1064(18) 0.003151 1022.1 3.4
1016(17) 0.003261 1022.2 3.4
1054(17) 0.003262 1022.2 3.4
1082(17) 0.003263 1022.2 3.4
1022(17) 0.00352 1022.2 3.4
1001(17) 0.003331 1022.3 3.4
1022(18) 0.003106 1022.3 3.4
1001(17) 0.003330 1022.3 3.4
1054(17) 0.003299 1022.3 3.4
1060(17) 0.003408 1022.3 3.5
1011(17) 0.003339 1022.4 3.5
1025(18) 0.003088 1022.4 3.5
1043(17) 0.003262 1022.4 3.5
1059(17) 0.003370 1022.4 3.5
1045(17) 0.003443 1022.5 3.6
1016(17) 0.003336 1022.5 3.6
1020(18) 0.003091 1022.5 3.6
1053(17) 0.003188 1022.5 3.6
1017(17) 0.00355 1022.5 3.7
1001(17) 0.00354 1022.6 3.7
1050(17) 0.003251 1022.6 3.7
1020(18) 0.003085 1022.6 3.8
1022(17) 0.003257 1022.6 3.8
1034(17) 0.003497 1022.6 3.9
1024(17) 0.003442 1022.7 3.9
1033(17) 0.003274 1022.7 4.0
1098(18) 0.002943 1022.7 4.0
1048(17) 0.003275 1022.7 4.1
1071(17) 0.003373 1022.8 4.1
1043(17) 0.003349 1022.8 4.2
1036(17) 0.003219 1022.8 4.3
1017(17) 0.003187 1022.8 4.3
1026(17) 0.003255 1022.8 4.4
1030(17) 0.003501 1022.9 4.5
1003(17) 0.003486 1022.9 4.6
1057(18) 0.003158 1022.9 4.7
1018(17) 0.003333 1022.9 4.8
1053(17) 0.003315 1022.9 4.9
1057(17) 0.003411 1023.0 5.0
1088(17) 0.003199 1023.0 5.1
1052(17) 0.003193 1023.0 5.2
1047(17) 0.003179 1023.0 5.4
1030(17) 0.003373 1023.1 5.5
1032(17) 0.003499 1023.1 5.7
1032(17) 0.003257 1023.1 5.8
1031(17) 0.003226 1023.1 6.0
1072(18) 0.003129 1023.1 6.2
1061(17) 0.003283 1023.2 6.4
1084(17) 0.003325 1023.2 6.7
1063(18) 0.003148 1023.2 6.9
1053(18) 0.003033 1023.2 7.2
1001(17) 0.003315 1023.2 7.5
1106(17) 0.003196 1023.3 7.8
1005(16) 0.00358 1023.3 8.2
1011(17) 0.003255 1023.3 8.6
1054(18) 0.003036 1023.3 9.0
1103(18) 0.003049 1023.4 9.5
1042(17) 0.003387 1023.4 9.8
1039(17) 0.003489 1023.4 10.4
1072(18) 0.003140 1023.4 11.0
1018(18) 0.003132 1023.4 11.7
951(16) 0.00358 1023.5 12.4
1043(17) 0.003427 1023.5 13.2
1074(17) 0.003314 1023.5 14.0
1014(17) 0.003313 1023.5 14.9
1060(18) 0.002890 1023.6 15.9
1038(17) 0.003229 1023.6 17.0
1027(17) 0.00351 1023.6 18.1
1098(17) 0.003256 1023.6 19.3
1034(17) 0.003325 1023.6 20.6
1042(18) 0.003105 1023.7 22.0
1067(18) 0.003131 1023.7 23.5
1081(17) 0.003333 1023.7 25.0
1021(17) 0.003454 1023.7 26.6
1049(17) 0.003234 1023.7 28.2
1098(18) 0.002875 1023.8 29.9
1083(18) 0.003090 1023.8 31.7
1079(17) 0.003335 1023.8 33.4
1106(17) 0.003182 1023.8 35.1
1068(18) 0.003123 1023.9 36.8
1037(17) 0.003174 1023.9 38.4
1069(17) 0.003174 1023.9 39.9
1032(17) 0.003495 1023.9 41.2
1078(17) 0.003194 1023.9 42.3
1096(18) 0.002992 1024.0 43.2
1089(18) 0.003027 1024.0 43.7
1091(18) 0.003096 1024.0 44.0
1045(17) 0.003455 1024.0 44.0
1112(18) 0.003055 1024.0 43.7
1082(18) 0.003080 1024.1 43.0
1083(18) 0.003106 1024.1 42.1
1045(17) 0.003295 1024.1 41.0
1061(17) 0.003402 1024.1 39.6
1086(18) 0.003131 1024.2 38.1
1085(18) 0.003023 1024.2 36.5
1101(18) 0.003043 1024.2 34.8
1109(18) 0.003125 1024.2 33.1
1056(17) 0.003407 1024.2 31.3
1026(18) 0.003129 1024.3 29.6
1045(18) 0.003024 1024.3 27.9
1062(18) 0.003155 1024.3 26.2
1046(17) 0.003354 1024.3 24.6
1048(17) 0.003439 1024.3 23.1
1117(18) 0.003023 1024.4 21.7
1084(18) 0.002980 1024.4 20.3
1055(17) 0.003247 1024.4 19.0
1103(17) 0.003250 1024.4 17.8
1094(17) 0.003316 1024.5 16.6
1025(17) 0.003285 1024.5 15.6
1058(18) 0.002975 1024.5 14.6
1074(18) 0.003094 1024.5 13.7
1050(17) 0.003415 1024.5 12.8
1052(17) 0.003425 1024.6 12.0
1043(17) 0.003233 1024.6 11.3
1039(18) 0.003009 1024.6 10.6
1050(17) 0.003218 1024.6 10.0
1082(17) 0.003301 1024.7 9.5
1073(17) 0.003360 1024.7 9.0
1014(17) 0.003330 1024.7 8.5
1054(18) 0.003012 1024.7 8.1
1066(18) 0.003100 1024.7 7.7
1009(16) 0.00358 1024.8 7.3
1062(17) 0.003349 1024.8 7.0
1056(17) 0.003211 1024.8 6.6
1001(17) 0.003265 1024.8 6.4
1002(17) 0.003348 1024.8 6.1
1041(17) 0.003478 1024.9 5.9
1041(17) 0.003383 1024.9 5.6
1004(17) 0.003389 1024.9 5.4
1070(18) 0.003064 1024.9 5.2
1062(18) 0.003130 1025.0 5.1
999(16) 0.00361 1025.0 4.9
1045(17) 0.003305 1025.0 4.7
1065(18) 0.003165 1025.0 4.6
1091(18) 0.003013 1025.0 4.4
1031(17) 0.003327 1025.1 4.3
1034(17) 0.003472 1025.1 4.2
1074(17) 0.003223 1025.1 4.1
1039(17) 0.003238 1025.1 4.0
1065(18) 0.003167 1025.1 3.9
1068(17) 0.003230 1025.2 3.8
1049(17) 0.003443 1025.2 3.7
1051(17) 0.003174 1025.2 3.6
1026(17) 0.003268 1025.2 3.5
1018(17) 0.003303 1025.3 3.4
1030(17) 0.003406 1025.3 3.3
1042(17) 0.003466 1025.3 3.3
1033(17) 0.003257 1025.3 3.2
1065(18) 0.003031 1025.3 3.1
1015(17) 0.003349 1025.4 3.1
1062(17) 0.003233 1025.4 3.0
1033(17) 0.003475 1025.4 2.9
1079(18) 0.003074 1025.4 2.9
1049(18) 0.003058 1025.4 2.8
1038(17) 0.003289 1025.5 2.8
1045(17) 0.003417 1025.5 2.7
1013(16) 0.00357 1025.5 2.7
1049(17) 0.003231 1025.5 2.6
1061(18) 0.003032 1025.6 2.6
996(17) 0.003405 1025.6 2.5
1015(17) 0.00355 1025.6 2.5
1006(17) 0.003498 1025.6 2.5
1046(17) 0.003193 1025.6 2.4
1033(18) 0.003063 1025.7 2.4
1050(18) 0.003162 1025.7 2.3
990(16) 0.00362 1025.7 2.3
1031(17) 0.003482 1025.7 2.3
1092(18) 0.003065 1025.8 2.2
1041(18) 0.003029 1025.8 2.2
1042(17) 0.003249 1025.8 2.2
1029(17) 0.003499 1025.8 2.2
1048(17) 0.003394 1025.8 2.1
1065(18) 0.003165 1025.9 2.1
1071(18) 0.003069 1025.9 2.1
1074(17) 0.003175 1025.9 2.0
1056(17) 0.003400 1025.9 2.0
1039(17) 0.003441 1025.9 2.0
1070(17) 0.003197 1026.0 2.0
1078(18) 0.003004 1026.0 1.9
1051(18) 0.003115 1026.0 1.9
1042(17) 0.003476 1026.0 1.9
1041(17) 0.003366 1026.1 1.9
1044(18) 0.003138 1026.1 1.9
1043(18) 0.003031 1026.1 1.8
999(17) 0.003387 1026.1 1.8
1051(17) 0.003420 1026.1 1.8
1013(17) 0.003434 1026.2 1.8
1048(17) 0.003218 1026.2 1.8
1072(18) 0.003077 1026.2 1.7
1080(18) 0.003133 1026.2 1.7
995(16) 0.00360 1026.2 1.7
1036(17) 0.003299 1026.3 1.7
1065(18) 0.003083 1026.3 1.7
1059(18) 0.003081 1026.3 1.7
1022(17) 0.003344 1026.3 1.7
1067(17) 0.003371 1026.4 1.6
1016(17) 0.003331 1026.4 1.6
1073(18) 0.003028 1026.4 1.6
1027(17) 0.003276 1026.4 1.6
1033(17) 0.003364 1026.4 1.6
1096(17) 0.003287 1026.5 1.6
1025(17) 0.003242 1026.5 1.6
1044(18) 0.003049 1026.5 1.5
1067(18) 0.003123 1026.5 1.5
1081(17) 0.003296 1026.6 1.5
1077(17) 0.003351 1026.6 1.5
1033(17) 0.003304 1026.6 1.5
1028(18) 0.003154 1026.6 1.5
1038(17) 0.003313 1026.6 1.5
1072(17) 0.003294 1026.3 1.5
1035(17) 0.003487 1025.8 1.5
1029(17) 0.003246 1025.4 1.4
1060(18) 0.002958 1025.0 1.4
1060(17) 0.003243 1024.6 1.4
1066(17) 0.003351 1024.1 1.4
1052(17) 0.003423 1023.7 1.4
1027(17) 0.003215 1023.3 1.4
1036(18) 0.003032 1022.8 1.4
1047(17) 0.003227 1022.4 1.4
1045(17) 0.003437 1022.0 1.4
1068(17) 0.003330 1021.5 1.4
1040(17) 0.003192 1021.1 1.4
1019(18) 0.003117 1020.7 1.3
1002(17) 0.003395 1020.2 1.3
979(16) 0.00368 1019.8 1.3
1030(17) 0.003418 1019.4 1.3
1021(17) 0.003352 1018.9 1.3
1023(18) 0.003164 1018.5 1.3
1003(17) 0.003314 1018.1 1.3
1014(17) 0.00354 1017.7 1.3
1040(17) 0.003378 1017.2 1.3
1038(17) 0.003291 1016.8 1.3
1027(17) 0.003231 1016.4 1.3
1035(17) 0.003246 1015.9 1.3
1051(17) 0.003413 1015.5 1.3
1052(17) 0.003341 1015.1 1.3
1043(17) 0.003185 1014.6 1.3
1055(18) 0.003116 1014.2 1.3
1030(17) 0.003310 1013.8 1.3
1002(16) 0.00357 1013.3 1.3
1054(17) 0.003239 1012.9 1.3
1016(17) 0.003224 1012.5 1.3
1013(17) 0.003303 1012.0 1.3
1035(17) 0.003284 1011.6 1.3
1025(17) 0.00353 1011.2 1.3
1064(17) 0.003180 1010.8 1.3
1040(18) 0.003145 1010.3 1.3
1025(17) 0.003277 1009.9 1.3
986(17) 0.00355 1009.5 1.3
987(16) 0.00365 1009.0 1.3
1020(17) 0.003298 1008.6 1.3
1095(18) 0.002888 1008.2 1.3
1056(17) 0.003224 1007.7 1.2
1011(17) 0.003464 1007.3 1.2
1035(17) 0.003490 1006.9 1.2
1029(17) 0.003276 1006.4 1.2
970(17) 0.003294 1006.0 1.2
989(17) 0.003359 1005.6 1.2
1064(17) 0.003276 1005.1 1.2
996(16) 0.00360 1004.7 1.2
977(17) 0.003453 1004.3 1.2
988(17) 0.003185 1003.9 1.2
997(17) 0.003384 1003.4 1.2
1049(17) 0.003378 1003.0 1.2
1043(17) 0.003416 1002.6 1.2
965(16) 0.00356 1002.1 1.2
995(18) 0.003144 1001.7 1.2
960(17) 0.00352 1001.3 1.2
993(16) 0.00362 1000.8 1.2
1009(17) 0.00352 1000.4 1.2
1016(17) 0.003250 1000.0 1.2
1014(18) 0.003162 999.5 1.2
1012(17) 0.003324 999.1 1.2
1013(16) 0.00358 998.7 1.2
1044(17) 0.003403 998.2 1.2
1015(17) 0.003344 997.8 1.2
995(18) 0.003170 997.4 1.2
947(17) 0.00355 996.9 1.2
1029(17) 0.003480 996.5 1.2
1016(17) 0.003501 996.1 1.2
1006(17) 0.003360 995.7 1.2
986(17) 0.003286 995.2 1.2
985(17) 0.003387 994.8 1.2
1010(16) 0.00356 994.4 1.2
1013(17) 0.003460 993.9 1.1
998(17) 0.003315 993.5 1.1
1010(18) 0.003168 993.1 1.1
981(17) 0.003462 992.6 1.1
1025(17) 0.00352 992.2 1.1
1018(17) 0.003365 991.8 1.1
963(17) 0.003439 991.3 1.1
1012(17) 0.003273 990.9 1.1
1052(17) 0.003260 990.5 1.1
1034(17) 0.003473 990.0 1.1
1014(17) 0.003291 989.6 1.1
992(17) 0.003303 989.2 1.1
1038(17) 0.003190 988.8 1.1
968(16) 0.00363 988.3 1.1
997(16) 0.00362 987.9 1.1
1023(17) 0.003270 987.5 1.1
965(17) 0.003417 987.0 1.1
983(17) 0.003427 986.6 1.1
1033(17) 0.003429 986.2 1.1
1018(17) 0.00355 985.7 1.1
1005(17) 0.003337 985.3 1.1
965(17) 0.003379 984.9 1.1
980(17) 0.003380 984.4 1.1
957(16) 0.00370 984.0 1.1
979(16) 0.00365 983.6 1.1
1011(17) 0.003355 983.1 1.1
1020(18) 0.003107 982.7 1.1
973(17) 0.003460 982.3 1.1
986(16) 0.00359 981.9 1.1
997(16) 0.00360 981.4 1.1
1030(17) 0.003291 981.0 1.1
1016(18) 0.003106 980.6 1.1
1024(17) 0.003303 980.1 1.1
1016(17) 0.00353 979.7 1.1
1022(17) 0.003487 979.3 1.1
986(17) 0.003381 978.8 1.1
975(17) 0.003204 978.4 1.1
978(17) 0.003408 978.0 1.1
972(16) 0.00372 977.5 1.1
989(16) 0.00357 977.1 1.1
997(17) 0.003361 976.7 1.1
1047(18) 0.003055 976.2 1.1
969(16) 0.00356 975.8 1.1
1009(17) 0.00354 975.4 1.1
976(16) 0.00364 974.9 1.1
974(17) 0.003486 974.5 1.1
1005(17) 0.003189 974.1 1.1
948(16) 0.00362 973.7 1.1
997(16) 0.00360 973.2 1.1
999(17) 0.00354 972.8 1.1
999(17) 0.003388 972.4 1.1
1006(17) 0.003300 971.9 1.1
982(17) 0.003494 971.5 1.1
951(16) 0.00379 971.1 1.1
1003(17) 0.003388 970.6 1.1
998(17) 0.003362 970.2 1.1
994(17) 0.003300 969.8 1.1
948(16) 0.00363 969.3 1.1
982(16) 0.00367 968.9 1.1
973(17) 0.003494 968.5 1.1
968(17) 0.003397 968.0 1.1
964(17) 0.003417 967.6 1.1
963(17) 0.00353 967.2 1.1
938(16) 0.00384 966.8 1.1
961(17) 0.003493 966.3 1.1
954(17) 0.003416 965.9 1.1
997(17) 0.003296 965.5 1.1
998(17) 0.003440 965.0 1.1
962(16) 0.00373 964.6 1.1
977(17) 0.00352 964.2 1.1
991(17) 0.003308 963.7 1.1
988(17) 0.003429 963.3 1.1
983(16) 0.00364 962.9 1.1
948(16) 0.00378 962.4 1.1
949(16) 0.00363 962.0 1.1
963(17) 0.003334 961.6 1.1
976(17) 0.003456 961.1 1.1
993(16) 0.00360 960.7 1.1
982(16) 0.00368 960.3 1.1
979(17) 0.003395 959.9 1.1
959(17) 0.003310 959.4 1.1
1016(17) 0.003343 959.0 1.1
959(16) 0.00369 958.6 1.1
1007(16) 0.00356 958.1 1.1
969(17) 0.00351 957.7 1.1
983(17) 0.003229 957.3 1.1
976(17) 0.003456 956.8 1.1
977(16) 0.00367 956.4 1.1
983(16) 0.00357 956.0 1.1
963(17) 0.00355 955.5 1.1
980(17) 0.003266 955.1 1.1
975(17) 0.003460 954.7 1.1
967(16) 0.00375 954.2 1.1
952(16) 0.00365 953.8 1.1
958(17) 0.003477 953.4 1.1
966(17) 0.003305 953.0 1.1
958(17) 0.003459 952.5 1.1
936(16) 0.00385 952.1 1.1
946(16) 0.00374 951.7 1.1
992(17) 0.003368 951.2 1.1
911(16) 0.00363 950.8 1.1
936(16) 0.00357 950.4 1.1
923(16) 0.00389 949.9 1.1
905(16) 0.00375 949.5 1.1
925(16) 0.00357 949.1 1.1
946(17) 0.003481 948.6 1.1
976(17) 0.003447 948.2 1.1
991(16) 0.00364 947.8 1.1
960(17) 0.00351 947.3 1.1
957(17) 0.003381 946.9 1.1
986(17) 0.003400 946.5 1.1
959(16) 0.00360 946.0 1.1
981(16) 0.00367 945.6 1.1
921(16) 0.00368 945.2 1.1
938(17) 0.003429 944.8 1.1
974(17) 0.003331 944.3 1.1
939(16) 0.00372 943.9 1.1
998(16) 0.00358 943.5 1.1
1015(17) 0.003293 943.0 1.2
967(17) 0.003320 942.6 1.2
939(16) 0.00360 942.2 1.2
922(16) 0.00382 941.7 1.2
923(16) 0.00387 941.3 1.2
947(16) 0.00357 940.9 1.2
939(17) 0.003421 940.4 1.2
953(16) 0.00357 940.0 1.2
979(16) 0.00360 939.6 1.2
936(16) 0.00384 939.1 1.2
923(16) 0.00363 938.7 1.2
904(17) 0.003492 938.3 1.2
943(17) 0.00354 937.9 1.2
940(16) 0.00381 937.4 1.2
951(16) 0.00376 937.0 1.2
926(16) 0.00369 936.6 1.2
993(18) 0.003155 936.1 1.2
937(16) 0.00368 935.7 1.2
987(16) 0.00357 935.3 1.2
889(16) 0.00399 934.8 1.2
931(16) 0.00361 934.4 1.2
910(17) 0.00353 934.0 1.2
917(16) 0.00366 933.5 1.2
963(16) 0.00373 933.1 1.2
922(16) 0.00384 932.7 1.2
927(17) 0.00355 932.2 1.2
911(16) 0.00357 931.8 1.2
966(17) 0.003480 931.4 1.2
934(16) 0.00387 931.0 1.2
930(16) 0.00369 930.5 1.2
891(16) 0.00374 930.1 1.2
937(17) 0.003465 929.7 1.2
912(16) 0.00366 929.2 1.2
932(16) 0.00385 928.7 1.3
966(16) 0.00357 928.2 1.3
905(16) 0.00373 927.7 1.3
926(17) 0.00354 927.2 1.3
941(16) 0.00363 926.6 1.3
923(16) 0.00390 926.1 1.3
921(16) 0.00373 925.6 1.3
933(17) 0.00352 925.1 1.3
967(17) 0.003401 924.5 1.3
899(16) 0.00380 924.0 1.3
948(16) 0.00378 923.5 1.3
912(16) 0.00374 923.0 1.3
926(17) 0.00355 922.4 1.3
892(16) 0.00379 921.9 1.3
927(16) 0.00369 921.4 1.3
969(16) 0.00369 920.9 1.3
949(17) 0.003444 920.3 1.3
915(17) 0.00353 919.8 1.3
892(16) 0.00371 919.3 1.3
918(16) 0.00379 918.8 1.3
964(16) 0.00373 918.2 1.4
924(16) 0.00365 917.7 1.4
921(17) 0.003492 917.2 1.4
909(16) 0.00368 916.7 1.4
946(16) 0.00369 916.1 1.4
899(16) 0.00401 915.6 1.4
958(17) 0.003442 915.1 1.4
957(17) 0.003218 914.6 1.4
941(16) 0.00357 914.0 1.4
926(16) 0.00389 913.5 1.4
903(16) 0.00390 913.0 1.4
906(16) 0.00372 912.5 1.4
904(17) 0.003474 911.9 1.4
892(16) 0.00371 911.4 1.4
916(16) 0.00390 910.9 1.5
930(16) 0.00381 910.4 1.5
892(16) 0.00383 909.8 1.5
893(16) 0.00357 909.3 1.5
886(16) 0.00376 908.8 1.5
918(16) 0.00389 908.3 1.5
924(16) 0.00381 907.7 1.5
894(16) 0.00376 907.2 1.5
891(17) 0.00351 906.7 1.5
894(16) 0.00366 906.2 1.5
888(15) 0.00402 905.6 1.5
848(15) 0.00413 905.1 1.5
928(17) 0.00353 904.6 1.6
901(16) 0.00356 904.1 1.6
881(16) 0.00376 903.5 1.6
898(16) 0.00398 903.0 1.6
915(16) 0.00377 902.5 1.6
881(16) 0.00373 901.9 1.6
901(16) 0.00356 901.4 1.6
919(16) 0.00367 900.9 1.6
900(16) 0.00401 900.4 1.7
906(16) 0.00368 899.8 1.7
916(16) 0.00357 899.3 1.7
872(16) 0.00381 898.8 1.7
904(16) 0.00378 898.3 1.7
918(16) 0.00389 897.7 1.7
914(16) 0.00367 897.2 1.7
908(16) 0.00363 896.7 1.7
910(16) 0.00369 896.2 1.8
917(16) 0.00384 895.6 1.8
899(16) 0.00397 895.1 1.8
905(16) 0.00371 894.6 1.8
889(16) 0.00370 894.1 1.8
867(16) 0.00381 893.5 1.9
868(16) 0.00401 893.0 1.9
893(16) 0.00399 892.5 1.9
909(16) 0.00370 892.0 1.9
893(16) 0.00365 891.4 1.9
902(16) 0.00371 890.9 2.0
901(16) 0.00386 890.4 2.0
898(16) 0.00399 889.9 2.0
909(16) 0.00371 889.3 2.0
941(17) 0.003304 888.8 2.0
924(16) 0.00369 888.3 2.1
902(16) 0.00399 887.8 2.1
892(15) 0.00403 887.2 2.1
884(16) 0.00382 886.7 2.2
905(17) 0.00351 886.2 2.2
883(16) 0.00385 885.7 2.2
897(16) 0.00397 885.1 2.3
827(15) 0.00431 884.6 2.3
899(16) 0.00377 884.1 2.3
924(17) 0.003472 883.6 2.4
886(16) 0.00382 883.0 2.4
876(15) 0.00408 882.5 2.5
917(16) 0.00384 882.0 2.5
878(16) 0.00378 881.5 2.6
848(16) 0.00373 880.9 2.6
914(16) 0.00364 880.4 2.7
885(15) 0.00403 879.9 2.7
843(15) 0.00416 879.4 2.8
864(16) 0.00386 878.8 2.9
907(17) 0.00352 878.3 3.0
884(16) 0.00370 877.8 3.0
888(16) 0.00400 877.3 3.1
890(16) 0.00390 876.7 3.2
885(16) 0.00375 876.2 3.3
894(16) 0.00364 875.7 3.4
849(16) 0.00398 875.2 3.5
900(16) 0.00396 874.6 3.6
899(16) 0.00382 874.1 3.7
885(16) 0.00367 873.6 3.9
871(16) 0.00376 873.0 4.0
913(16) 0.00370 872.5 4.1
908(16) 0.00390 872.0 4.3
943(17) 0.003502 871.5 4.5
895(16) 0.00362 870.9 4.6
888(16) 0.00375 870.4 4.8
860(16) 0.00400 869.9 5.0
870(15) 0.00408 869.4 5.2
895(16) 0.00370 868.8 5.3
896(16) 0.00363 868.3 5.5
911(16) 0.00370 867.8 5.8
851(15) 0.00411 867.3 6.0
862(15) 0.00414 866.7 6.2
865(16) 0.00389 866.2 6.4
862(16) 0.00377 865.7 6.6
898(16) 0.00374 865.2 6.8
908(16) 0.00377 864.6 7.0
905(16) 0.00400 864.1 7.2
912(16) 0.00362 863.6 7.4
888(16) 0.00361 863.1 7.6
885(16) 0.00374 862.5 7.7
909(16) 0.00387 862.0 7.9
845(15) 0.00418 861.5 8.0
823(16) 0.00399 861.0 8.1
864(17) 0.00355 860.4 8.1
843(16) 0.00393 859.9 8.1
898(16) 0.00400 859.4 8.2
889(16) 0.00392 858.9 8.1
877(16) 0.00388 858.3 8.1
889(17) 0.00355 857.8 8.0
878(16) 0.00379 857.3 7.9
848(15) 0.00425 856.8 7.8
879(15) 0.00402 856.2 7.6
872(16) 0.00381 855.7 7.5
830(16) 0.00391 855.2 7.3
853(16) 0.00399 854.7 7.1
894(16) 0.00401 854.1 7.0
877(15) 0.00401 853.6 6.8
828(15) 0.00408 853.1 6.6
852(16) 0.00383 852.6 6.5
876(16) 0.00380 852.0 6.3
882(15) 0.00407 851.5 6.1
836(15) 0.00416 851.0 6.0
838(16) 0.00401 850.5 5.8
847(16) 0.00384 849.9 5.7
881(16) 0.00376 849.4 5.6
806(15) 0.00441 848.9 5.4
866(16) 0.00392 848.4 5.3
842(16) 0.00389 847.8 5.2
843(16) 0.00379 847.3 5.1
856(16) 0.00398 846.8 5.0
886(15) 0.00404 846.3 4.9
849(15) 0.00403 845.7 4.9
857(16) 0.00379 845.2 4.8
874(16) 0.00378 844.7 4.7
832(15) 0.00419 844.1 4.7
843(15) 0.00423 843.6 4.6
876(16) 0.00386 843.1 4.6
852(16) 0.00380 842.6 4.6
823(15) 0.00406 842.0 4.5
844(15) 0.00411 841.5 4.5
819(15) 0.00433 841.0 4.5
827(15) 0.00404 840.5 4.5
863(16) 0.00378 839.9 4.5
835(15) 0.00409 839.4 4.5
851(15) 0.00408 838.9 4.5
836(15) 0.00429 838.4 4.5
868(16) 0.00389 837.8 4.5
830(16) 0.00383 837.3 4.5
844(16) 0.00396 836.8 4.6
844(15) 0.00419 836.3 4.6
812(15) 0.00440 835.7 4.6
831(15) 0.00405 835.2 4.6
805(16) 0.00393 834.7 4.7
830(16) 0.00395 834.2 4.7
878(15) 0.00403 833.6 4.8
807(15) 0.00443 833.1 4.8
850(16) 0.00398 832.6 4.9
858(16) 0.00366 832.1 4.9
837(16) 0.00396 831.6 5.0
828(15) 0.00428 831.1 5.1
841(15) 0.00419 830.6 5.1
829(16) 0.00399 830.1 5.2
849(16) 0.00381 829.6 5.3
868(16) 0.00389 829.1 5.4
822(15) 0.00437 828.7 5.5
821(15) 0.00430 828.2 5.6
822(15) 0.00409 827.7 5.6
835(16) 0.00388 827.2 5.7
810(15) 0.00413 826.7 5.9
813(15) 0.00432 826.3 6.0
849(15) 0.00412 825.8 6.1
837(16) 0.00400 825.3 6.2
826(15) 0.00406 824.8 6.3
826(15) 0.00409 824.3 6.5
844(15) 0.00421 823.8 6.6
813(15) 0.00428 823.4 6.8
799(15) 0.00415 822.9 6.9
814(15) 0.00406 822.4 7.1
807(15) 0.00427 821.9 7.3
844(15) 0.00423 821.4 7.5
829(15) 0.00411 821.0 7.7
846(16) 0.00392 820.5 7.9
841(16) 0.00395 820.0 8.1
823(15) 0.00424 819.5 8.3
807(15) 0.00444 819.0 8.6
810(15) 0.00418 818.5 8.8
843(16) 0.00386 818.1 9.1
828(16) 0.00398 817.6 9.4
790(15) 0.00442 817.1 9.7
836(15) 0.00428 816.6 10.1
863(16) 0.00384 816.1 10.4
848(16) 0.00382 815.7 10.8
866(16) 0.00382 815.2 11.2
827(15) 0.00418 814.7 11.6
790(15) 0.00451 814.2 12.1
794(15) 0.00419 813.7 12.6
806(16) 0.00396 813.2 13.1
806(15) 0.00422 812.8 13.7
840(15) 0.00421 812.3 14.3
842(15) 0.00427 811.8 15.0
839(16) 0.00397 811.3 15.7
826(16) 0.00366 810.8 16.5
779(15) 0.00422 810.3 17.4
839(15) 0.00427 809.9 18.3
846(15) 0.00418 809.4 19.3
822(15) 0.00416 808.9 20.5
827(16) 0.00375 808.4 21.7
845(16) 0.00399 807.9 23.0
818(15) 0.00440 807.5 24.5
868(15) 0.00404 807.0 26.2
885(16) 0.00378 806.5 28.1
843(16) 0.00372 806.0 30.1
828(15) 0.00410 805.5 32.5
851(15) 0.00420 805.0 35.1
849(15) 0.00418 804.6 38.1
846(15) 0.00409 804.1 41.5
840(16) 0.00391 803.6 45.4
843(16) 0.00394 803.1 49.9
867(15) 0.00413 802.6 55.3
876(16) 0.00401 802.2 61.6
854(16) 0.00383 801.7 69.4
867(16) 0.00364 801.2 79.1
877(16) 0.00373 800.7 91.5
920(16) 0.00392 800.2 107.6
944(16) 0.00364 799.7 128.9
959(17) 0.003457 799.3 157.3
1000(17) 0.003335 798.8 194.7
1066(18) 0.003132 798.3 243.5
1065(17) 0.003386 797.8 305.5
1130(18) 0.003073 797.3 381.9
1258(19) 0.002667 796.8 472.6
1294(19) 0.002624 796.4 575.2
1379(20) 0.002501 795.9 683.2
1474(20) 0.002465 795.4 784.5
1584(21) 0.002166 794.9 861.1
1661(22) 0.001998 794.4 893.7
1747(23) 0.001925 794.0 872.5
1675(22) 0.002097 793.5 804.1
1499(20) 0.002414 793.0 706.5
1393(20) 0.002399 792.5 598.8
1261(19) 0.002638 792.0 494.4
1174(18) 0.002874 791.5 400.8
1078(17) 0.003245 791.1 321.3
1071(17) 0.003376 790.6 256.3
1005(17) 0.003360 790.1 204.9
975(17) 0.003290 789.6 165.2
956(17) 0.003471 789.1 135.1
922(16) 0.00379 788.7 112.5
878(15) 0.00409 788.2 95.4
874(16) 0.00388 787.7 82.4
864(16) 0.00366 787.2 72.3
831(15) 0.00405 786.7 64.3
845(15) 0.00422 786.2 57.7
862(15) 0.00413 785.8 52.2
834(15) 0.00404 785.3 47.6
875(16) 0.00356 784.8 43.6
803(15) 0.00420 784.3 40.2
787(15) 0.00452 783.8 37.2
802(15) 0.00446 783.4 34.6
801(15) 0.00429 782.9 32.3
807(16) 0.00394 782.4 30.2
812(15) 0.00421 781.9 28.4
840(15) 0.00428 781.4 26.8
805(15) 0.00442 780.9 25.3
781(15) 0.00424 780.5 24.0
777(15) 0.00412 780.0 22.8
790(15) 0.00430 779.5 21.8
798(15) 0.00449 779.0 20.8
810(15) 0.00431 778.5 19.9
807(15) 0.00407 778.0 19.1
772(15) 0.00424 777.6 18.4
803(15) 0.00420 777.1 17.8
805(15) 0.00441 776.6 17.2
758(14) 0.00462 776.1 16.6
775(15) 0.00418 775.6 16.1
805(16) 0.00397 775.2 15.7
816(15) 0.00405 774.7 15.3
785(15) 0.00450 774.2 14.9
795(15) 0.00429 773.7 14.6
797(15) 0.00412 773.2 14.3
770(15) 0.00425 772.7 14.0
748(15) 0.00449 772.3 13.7
741(14) 0.00480 771.8 13.5
766(15) 0.00447 771.3 13.3
783(15) 0.00423 770.8 13.1
829(16) 0.00395 770.3 12.9
795(15) 0.00426 769.9 12.8
761(14) 0.00468 769.4 12.7
773(15) 0.00420 768.9 12.5
749(15) 0.00433 768.4 12.4
746(15) 0.00454 767.9 12.4
758(14) 0.00459 767.4 12.3
799(15) 0.00445 767.0 12.2
771(15) 0.00429 766.5 12.2
756(15) 0.00419 766.0 12.2
764(15) 0.00438 765.5 12.2
750(14) 0.00472 765.0 12.2
753(14) 0.00471 764.5 12.2
778(15) 0.00424 764.1 12.2
771(15) 0.00403 763.6 12.2
818(16) 0.00400 763.1 12.3
806(15) 0.00438 762.6 12.4
778(14) 0.00460 762.1 12.5
782(15) 0.00426 761.7 12.6
768(15) 0.00403 761.2 12.7
773(15) 0.00424 760.7 12.8
735(14) 0.00480 760.2 13.0
745(14) 0.00478 759.7 13.2
784(15) 0.00416 759.2 13.4
792(16) 0.00386 758.8 13.6
785(15) 0.00427 758.3 13.9
751(14) 0.00475 757.8 14.1
779(15) 0.00448 757.3 14.4
762(15) 0.00440 756.9 14.6
769(15) 0.00404 756.4 14.8
726(14) 0.00460 756.0 15.0
771(14) 0.00463 755.5 15.2
776(15) 0.00451 755.0 15.3
783(15) 0.00431 754.6 15.4
769(15) 0.00417 754.1 15.6
763(15) 0.00431 753.7 15.8
782(15) 0.00455 753.2 16.0
734(14) 0.00471 752.7 16.2
751(15) 0.00434 752.3 16.4
725(15) 0.00443 751.8 16.7
760(15) 0.00431 751.4 17.0
772(14) 0.00461 750.9 17.3
773(15) 0.00441 750.4 17.7
777(15) 0.00405 750.0 18.1
707(14) 0.00464 749.5 18.5
755(14) 0.00458 749.1 18.9
740(14) 0.00483 748.6 19.4
754(15) 0.00456 748.1 19.9
787(15) 0.00416 747.7 20.4
749(15) 0.00439 747.2 21.0
732(14) 0.00471 746.8 21.6
751(14) 0.00475 746.3 22.2
741(15) 0.00453 745.8 22.9
736(15) 0.00450 745.4 23.6
735(14) 0.00458 744.9 24.3
767(15) 0.00450 744.5 25.1
759(14) 0.00465 744.0 25.9
777(15) 0.00428 743.5 26.8
770(15) 0.00425 743.1 27.7
749(15) 0.00445 742.6 28.7
770(14) 0.00459 742.2 29.8
753(14) 0.00470 741.7 30.9
746(15) 0.00442 741.2 32.1
755(15) 0.00426 740.8 33.4
763(15) 0.00445 740.3 34.8
773(15) 0.00452 739.9 36.2
776(14) 0.00459 739.4 37.8
762(15) 0.00443 738.9 39.4
768(15) 0.00411 738.5 41.2
753(15) 0.00447 738.0 43.1
776(15) 0.00455 737.6 45.2
741(14) 0.00484 737.1 47.5
790(15) 0.00426 736.7 49.9
805(16) 0.00388 736.2 52.5
770(15) 0.00428 735.7 55.4
775(14) 0.00458 735.3 58.6
829(15) 0.00426 734.8 62.0
738(15) 0.00451 734.4 65.9
755(15) 0.00415 733.9 70.1
774(15) 0.00433 733.4 74.8
794(15) 0.00448 733.0 80.1
807(15) 0.00435 732.5 86.1
819(15) 0.00406 732.1 92.7
831(16) 0.00378 731.6 100.3
789(15) 0.00429 731.1 108.9
816(15) 0.00440 730.7 118.7
833(15) 0.00422 730.2 129.8
856(16) 0.00393 729.8 142.3
869(16) 0.00370 729.3 156.6
869(16) 0.00381 728.8 172.8
914(16) 0.00392 728.4 191.0
895(16) 0.00386 727.9 211.6
955(17) 0.003489 727.5 234.5
936(17) 0.003506 727.0 260.1
975(17) 0.003416 726.5 288.3
1007(16) 0.00356 726.1 319.2
1029(17) 0.003407 725.6 352.9
1125(18) 0.002966 725.2 389.2
1152(18) 0.002921 724.7 427.7
1264(19) 0.002717 724.2 467.9
1265(18) 0.002858 723.8 509.0
1272(19) 0.002678 723.3 549.8
1352(20) 0.002423 722.9 589.0
1383(20) 0.002404 722.4 624.5
1444(20) 0.002447 721.9 654.4
1410(20) 0.002561 721.5 676.5
1392(20) 0.002434 721.0 689.2
1434(21) 0.002306 720.6 691.4
1363(20) 0.002520 720.1 682.8
1267(19) 0.002826 719.6 664.3
1308(19) 0.002765 719.2 637.3
1271(19) 0.002628 718.7 603.8
1213(19) 0.002659 718.3 565.9
1178(18) 0.002930 717.8 525.5
1156(18) 0.003105 717.3 484.4
1135(17) 0.003179 716.9 443.8
1101(18) 0.003036 716.4 404.7
1018(18) 0.003068 716.0 367.6
1001(17) 0.003315 715.5 332.9
1016(17) 0.00352 715.0 300.9
1009(17) 0.003492 714.6 271.7
996(17) 0.003282 714.1 245.2
962(17) 0.003197 713.7 221.3
940(16) 0.00356 713.2 199.9
932(16) 0.00381 712.7 180.9
874(15) 0.00411 712.3 164.0
854(16) 0.00393 711.8 149.1
867(16) 0.00363 711.4 136.0
852(15) 0.00404 710.9 124.4
876(15) 0.00407 710.4 114.2
872(15) 0.00405 710.0 105.3
865(16) 0.00385 709.5 97.4
851(16) 0.00380 709.1 90.5
817(15) 0.00403 708.6 84.4
792(15) 0.00450 708.1 79.0
821(15) 0.00430 707.7 74.2
788(15) 0.00439 707.2 69.8
816(15) 0.00404 706.8 66.0
795(15) 0.00415 706.3 62.5
758(14) 0.00473 705.8 59.4
761(14) 0.00460 705.4 56.5
773(15) 0.00434 704.9 54.0
744(15) 0.00444 704.5 51.6
752(15) 0.00452 704.0 49.5
754(14) 0.00473 703.5 47.5
758(15) 0.00449 703.1 45.7
777(15) 0.00413 702.6 44.1
736(15) 0.00448 702.2 42.6
756(15) 0.00447 701.7 41.2
762(14) 0.00469 701.2 39.9
715(14) 0.00467 700.8 38.8
760(15) 0.00419 700.3 37.7
720(14) 0.00465 699.9 36.8
761(15) 0.00448 699.4 36.0
731(14) 0.00488 698.9 35.2
720(14) 0.00457 698.5 34.6
751(15) 0.00426 698.0 34.0
718(14) 0.00463 697.6 33.6
738(14) 0.00472 697.1 33.2
753(14) 0.00477 696.6 32.9
772(15) 0.00432 696.2 32.7
717(15) 0.00449 695.7 32.7
708(14) 0.00477 695.3 32.7
687(14) 0.00513 694.8 32.8
722(14) 0.00491 694.3 33.1
738(15) 0.00455 693.9 33.5
737(15) 0.00423 693.4 34.1
735(15) 0.00456 693.0 34.8
741(14) 0.00480 692.5 35.7
714(14) 0.00498 692.0 36.8
696(14) 0.00489 691.6 38.0
716(15) 0.00432 691.1 39.5
724(14) 0.00459 690.7 41.2
734(14) 0.00481 690.2 43.1
733(14) 0.00481 689.7 45.3
741(15) 0.00445 689.3 47.7
732(15) 0.00430 688.8 50.3
739(15) 0.00442 688.4 53.2
721(14) 0.00489 687.9 56.3
743(14) 0.00478 687.4 59.6
753(15) 0.00437 687.0 63.1
745(15) 0.00430 686.5 66.7
781(15) 0.00427 686.1 70.3
748(14) 0.00477 685.6 73.8
762(14) 0.00465 685.1 77.2
794(15) 0.00435 684.7 80.2
796(15) 0.00408 684.2 82.7
760(15) 0.00440 683.8 84.5
744(14) 0.00478 683.3 85.6
772(15) 0.00446 682.8 85.9
765(15) 0.00431 682.4 85.3
762(15) 0.00422 681.9 83.9
771(15) 0.00436 681.5 81.8
798(15) 0.00446 681.0 79.2
752(14) 0.00463 680.5 76.1
765(15) 0.00435 680.1 72.8
776(15) 0.00414 679.6 69.4
701(14) 0.00498 679.2 66.0
706(14) 0.00498 678.7 62.8
715(14) 0.00478 678.2 59.6
734(15) 0.00446 677.8 56.8
747(15) 0.00440 677.3 54.1
703(14) 0.00487 676.9 51.8
668(13) 0.00533 676.4 49.8
719(15) 0.00455 675.9 48.0
647(14) 0.00512 675.5 46.6
699(14) 0.00471 675.0 45.5
703(14) 0.00483 674.6 44.7
679(14) 0.00519 674.1 44.2
724(15) 0.00450 673.7 44.0
679(14) 0.00479 673.2 44.1
695(14) 0.00477 672.7 44.5
694(14) 0.00501 672.3 45.1
706(14) 0.00503 671.8 46.1
718(15) 0.00454 671.4 47.2
714(15) 0.00437 670.9 48.6
712(14) 0.00465 670.4 50.2
674(13) 0.00525 670.0 52.0
720(14) 0.00489 669.5 54.0
756(15) 0.00436 669.1 56.2
720(15) 0.00435 668.6 58.5
704(14) 0.00483 668.1 60.8
754(14) 0.00469 667.7 63.3
751(14) 0.00475 667.2 65.6
743(15) 0.00440 666.8 67.9
756(15) 0.00409 666.3 70.1
709(14) 0.00478 665.8 71.9
737(14) 0.00478 665.4 73.5
753(14) 0.00470 664.9 74.6
758(15) 0.00438 664.5 75.3
744(15) 0.00429 664.0 75.5
743(15) 0.00449 663.5 75.1
728(14) 0.00492 663.1 74.2
690(14) 0.00510 662.6 72.8
708(14) 0.00464 662.2 70.9
720(15) 0.00432 661.7 68.7
678(14) 0.00490 661.2 66.1
692(14) 0.00511 660.8 63.4
693(14) 0.00502 660.3 60.5
699(14) 0.00469 659.9 57.5
718(15) 0.00447 659.4 54.5
689(14) 0.00485 658.9 51.5
713(14) 0.00499 658.5 48.5
708(14) 0.00480 658.0 45.7
697(14) 0.00465 657.6 43.0
675(14) 0.00483 657.1 40.4
653(14) 0.00516 656.6 38.0
693(14) 0.00510 656.2 35.7
661(14) 0.00510 655.7 33.5
662(14) 0.00490 655.3 31.5
663(14) 0.00492 654.8 29.6
662(14) 0.00504 654.3 27.9
677(13) 0.00525 653.9 26.3
697(14) 0.00470 653.4 24.8
656(14) 0.00485 653.0 23.5
625(13) 0.00530 652.5 22.3
672(14) 0.00517 652.0 21.1
618(13) 0.00569 651.6 20.1
661(14) 0.00495 651.1 19.2
647(14) 0.00487 650.7 18.3
657(14) 0.00495 650.2 17.5
677(14) 0.00512 649.7 16.8
657(13) 0.00541 649.3 16.2
648(14) 0.00509 648.8 15.6
649(14) 0.00485 648.4 15.1
617(13) 0.00543 647.9 14.6
658(13) 0.00531 647.4 14.2
625(13) 0.00566 647.0 13.8
670(14) 0.00500 646.5 13.4
660(14) 0.00464 646.1 13.1
615(13) 0.00553 645.6 12.9
645(13) 0.00542 645.1 12.6
622(13) 0.00566 644.7 12.4
671(14) 0.00490 644.2 12.2
627(14) 0.00502 643.8 12.1
649(14) 0.00513 643.3 12.0
651(13) 0.00541 642.8 11.9
664(13) 0.00527 642.4 11.8
603(13) 0.00540 641.9 11.8
590(13) 0.00530 641.5 11.8
625(14) 0.00520 641.0 11.8
628(13) 0.00565 640.5 11.9
645(13) 0.00541 640.1 12.0
601(13) 0.00563 639.6 12.2
643(14) 0.00491 639.2 12.4
664(14) 0.00496 638.7 12.7
624(13) 0.00564 638.2 13.0
664(14) 0.00522 637.8 13.5
665(14) 0.00484 637.3 14.0
648(14) 0.00494 636.9 14.8
646(14) 0.00513 636.4 15.7
662(13) 0.00538 635.9 16.9
634(13) 0.00543 635.5 18.5
684(14) 0.00485 635.0 20.9
669(14) 0.00484 634.6 24.4
660(14) 0.00508 634.1 29.7
676(14) 0.00521 633.6 37.6
688(14) 0.00493 633.2 48.9
734(15) 0.00438 632.7 64.6
706(14) 0.00464 632.3 84.6
748(15) 0.00452 631.8 108.1
738(14) 0.00484 631.3 132.3
801(15) 0.00420 630.9 151.5
833(16) 0.00391 630.4 158.3
784(15) 0.00427 630.0 149.6
781(15) 0.00440 629.5 129.3
748(14) 0.00473 629.0 104.8
730(15) 0.00442 628.6 81.3
692(14) 0.00469 628.1 61.5
665(14) 0.00508 627.7 46.2
634(13) 0.00551 627.2 35.0
640(13) 0.00555 626.7 27.2
683(14) 0.00490 626.3 22.0
658(14) 0.00483 625.8 18.4
610(13) 0.00547 625.4 15.9
655(13) 0.00532 624.9 14.1
623(13) 0.00573 624.4 12.7
642(14) 0.00522 624.0 11.6
596(13) 0.00535 623.5 10.7
614(13) 0.00545 623.1 9.9
630(13) 0.00561 622.6 9.3
629(13) 0.00555 622.1 8.7
590(13) 0.00558 621.7 8.2
581(13) 0.00525 621.2 7.8
620(13) 0.00546 620.8 7.4
629(13) 0.00562 620.3 7.0
628(13) 0.00555 619.8 6.7
605(13) 0.00552 619.4 6.5
643(14) 0.00474 618.9 6.2
600(13) 0.00556 618.5 6.0
627(13) 0.00557 618.0 5.8
593(13) 0.00593 617.5 5.6
626(13) 0.00528 617.1 5.4
625(14) 0.00506 616.6 5.2
648(14) 0.00513 616.2 5.1
630(13) 0.00561 615.7 4.9
613(13) 0.00561 615.2 4.8
606(13) 0.00539 614.8 4.7
631(14) 0.00502 614.3 4.6
648(14) 0.00512 613.9 4.4
641(13) 0.00547 613.4 4.3
620(13) 0.00558 612.9 4.2
589(13) 0.00563 612.5 4.1
630(14) 0.00515 612.0 4.1
615(13) 0.00538 611.6 4.0
618(13) 0.00571 611.1 3.9
590(13) 0.00576 610.7 3.8
600(13) 0.00536 610.2 3.7
580(13) 0.00567 609.7 3.7
587(13) 0.00576 609.3 3.6
624(13) 0.00567 608.8 3.5
581(13) 0.00575 608.4 3.5
606(13) 0.00530 607.9 3.4
592(13) 0.00554 607.4 3.4
600(13) 0.00576 607.0 3.3
582(13) 0.00601 606.5 3.3
619(13) 0.00536 606.1 3.2
611(13) 0.00532 605.6 3.2
609(13) 0.00540 605.1 3.1
604(13) 0.00552 604.7 3.1
568(12) 0.00619 604.2 3.0
575(13) 0.00570 603.8 3.0
591(13) 0.00528 603.3 3.0
592(13) 0.00562 602.8 2.9
627(13) 0.00552 602.4 2.9
607(13) 0.00575 601.9 2.9
582(13) 0.00579 601.5 2.8
631(14) 0.00488 601.1 2.8
613(13) 0.00536 600.7 2.8
626(13) 0.00559 600.2 2.7
612(13) 0.00577 599.8 2.7
623(13) 0.00524 599.4 2.7
606(14) 0.00502 599.0 2.6
579(13) 0.00566 598.6 2.6
585(13) 0.00590 598.2 2.6
610(13) 0.00576 597.8 2.6
610(13) 0.00541 597.4 2.5
594(14) 0.00518 597.0 2.5
596(13) 0.00553 596.6 2.5
554(12) 0.00639 596.2 2.5
554(12) 0.00623 595.8 2.4
597(13) 0.00558 595.4 2.4
594(13) 0.00536 595.0 2.4
614(13) 0.00536 594.6 2.4
595(13) 0.00596 594.2 2.4
581(13) 0.00603 593.8 2.4
555(13) 0.00598 593.3 2.3
585(13) 0.00547 592.9 2.3
586(13) 0.00565 592.5 2.3
597(13) 0.00592 592.1 2.3
595(13) 0.00563 591.7 2.3
595(13) 0.00553 591.3 2.2
620(14) 0.00516 590.9 2.2
598(13) 0.00558 590.5 2.2
593(13) 0.00596 590.1 2.2
578(13) 0.00581 589.7 2.2
550(13) 0.00577 589.3 2.2
586(13) 0.00533 588.9 2.2
567(13) 0.00601 588.5 2.2
586(13) 0.00597 588.1 2.1
599(13) 0.00547 587.7 2.1
571(13) 0.00571 587.3 2.1
569(13) 0.00573 586.9 2.1
597(13) 0.00558 586.5 2.1
602(13) 0.00583 586.0 2.1
585(13) 0.00575 585.6 2.1
611(13) 0.00530 585.2 2.1
567(13) 0.00590 584.8 2.1
570(13) 0.00605 584.4 2.0
604(13) 0.00587 584.0 2.0
590(13) 0.00566 583.6 2.0
608(14) 0.00521 583.2 2.0
551(12) 0.00608 582.8 2.0
604(13) 0.00555 582.4 2.0
544(12) 0.00652 582.0 2.0
597(13) 0.00559 581.6 2.0
573(13) 0.00556 581.2 2.0
586(13) 0.00562 580.8 2.0
601(13) 0.00579 580.4 2.0
543(12) 0.00647 580.0 2.0
600(13) 0.00552 579.6 2.0
571(13) 0.00545 579.1 2.0
579(13) 0.00571 578.7 1.9
575(12) 0.00613 578.3 1.9
587(13) 0.00597 577.9 1.9
619(13) 0.00530 577.5 1.9
582(13) 0.00538 577.1 1.9
580(13) 0.00572 576.7 1.9
609(13) 0.00579 576.3 1.9
596(13) 0.00583 575.9 1.9
556(13) 0.00599 575.5 1.9
577(13) 0.00529 575.1 1.9
570(13) 0.00575 574.7 1.9
584(13) 0.00603 574.3 2.0
607(13) 0.00572 573.9 2.0
557(13) 0.00602 573.5 2.0
567(13) 0.00544 573.1 2.0
594(13) 0.00538 572.7 2.0
572(12) 0.00609 572.3 2.0
538(12) 0.00636 571.8 2.0
542(13) 0.00603 571.4 2.0
553(13) 0.00566 571.0 2.0
577(13) 0.00563 570.6 2.0
597(13) 0.00587 570.2 2.0
537(12) 0.00626 569.8 2.1
558(13) 0.00575 569.4 2.1
581(13) 0.00545 569.0 2.1
591(13) 0.00558 568.6 2.1
563(12) 0.00623 568.2 2.1
577(13) 0.00573 567.8 2.1
575(13) 0.00553 567.4 2.1
600(13) 0.00532 567.0 2.2
533(12) 0.00621 566.6 2.2
556(12) 0.00629 566.2 2.2
571(13) 0.00573 565.8 2.2
549(13) 0.00578 565.4 2.2
595(13) 0.00534 564.9 2.2
570(13) 0.00587 564.5 2.2
571(12) 0.00614 564.1 2.2
553(13) 0.00577 563.7 2.2
537(13) 0.00584 563.3 2.2
555(13) 0.00598 562.9 2.2
563(12) 0.00616 562.5 2.2
568(12) 0.00618 562.1 2.2
583(13) 0.00578 561.7 2.2
598(13) 0.00529 561.3 2.1
585(13) 0.00559 560.9 2.1
531(12) 0.00648 560.5 2.1
556(12) 0.00630 560.1 2.1
582(13) 0.00558 559.7 2.1
547(13) 0.00578 559.3 2.1
595(13) 0.00556 558.9 2.1
568(12) 0.00617 558.5 2.1
555(12) 0.00634 558.1 2.1
554(13) 0.00588 557.6 2.1
574(13) 0.00524 557.2 2.1
578(13) 0.00581 556.8 2.1
573(12) 0.00606 556.4 2.1
568(12) 0.00608 556.0 2.1
538(12) 0.00609 555.6 2.1
549(13) 0.00547 555.2 2.1
547(13) 0.00600 554.8 2.2
570(12) 0.00616 554.4 2.2
556(12) 0.00622 554.0 2.2
572(13) 0.00565 553.6 2.2
537(13) 0.00573 553.2 2.2
566(13) 0.00554 552.8 2.2
553(12) 0.00635 552.5 2.3
568(13) 0.00593 552.3 2.3
564(13) 0.00581 552.0 2.3
550(13) 0.00577 551.8 2.3
532(12) 0.00616 551.5 2.4
541(12) 0.00642 551.3 2.4
523(12) 0.00651 551.0 2.4
524(12) 0.00615 550.8 2.5
545(13) 0.00577 550.6 2.5
545(12) 0.00621 550.3 2.6
548(12) 0.00640 550.1 2.6
563(13) 0.00605 549.8 2.7
544(13) 0.00589 549.6 2.7
556(13) 0.00577 549.3 2.8
561(13) 0.00600 549.1 2.9
547(12) 0.00639 548.9 2.9
571(13) 0.00577 548.6 3.0
574(13) 0.00566 548.4 3.1
518(12) 0.00628 548.1 3.2
553(12) 0.00613 547.9 3.3
535(12) 0.00653 547.6 3.4
544(12) 0.00608 547.4 3.5
540(13) 0.00579 547.1 3.6
567(13) 0.00557 546.9 3.8
548(12) 0.00633 546.7 3.9
536(12) 0.00657 546.4 4.1
573(13) 0.00579 546.2 4.2
563(13) 0.00562 545.9 4.4
558(13) 0.00578 545.7 4.6
549(12) 0.00626 545.4 4.9
582(13) 0.00597 545.2 5.1
540(12) 0.00620 545.0 5.4
566(13) 0.00555 544.7 5.7
547(13) 0.00605 544.5 6.1
549(12) 0.00633 544.2 6.5
559(12) 0.00631 544.0 7.0
550(13) 0.00597 543.7 7.5
531(13) 0.00581 543.5 8.1
524(12) 0.00648 543.2 8.7
575(12) 0.00609 543.0 9.5
546(12) 0.00634 542.8 10.4
550(13) 0.00594 542.5 11.5
571(13) 0.00535 542.3 12.7
552(13) 0.00598 542.0 14.2
567(12) 0.00616 541.8 16.1
548(12) 0.00636 541.5 18.5
562(13) 0.00582 541.3 21.6
551(13) 0.00571 541.1 25.8
574(13) 0.00588 540.8 31.4
589(13) 0.00598 540.6 38.9
651(13) 0.00527 540.3 49.0
616(13) 0.00545 540.1 62.3
613(14) 0.00519 539.8 79.0
630(13) 0.00529 539.6 99.4
679(14) 0.00521 539.4 122.9
731(14) 0.00473 539.1 147.6
731(15) 0.00450 538.9 170.1
720(15) 0.00453 538.6 184.9
744(15) 0.00446 538.4 187.2
687(14) 0.00518 538.1 176.2
688(14) 0.00494 537.9 155.7
660(14) 0.00496 537.6 131.2
663(14) 0.00492 537.4 107.1
633(13) 0.00536 537.2 85.5
585(13) 0.00603 536.9 67.5
607(13) 0.00546 536.7 53.2
608(13) 0.00537 536.4 42.1
584(13) 0.00575 536.2 33.7
547(12) 0.00617 535.9 27.5
540(12) 0.00649 535.7 23.0
554(13) 0.00590 535.5 19.5
556(13) 0.00561 535.2 16.9
530(12) 0.00617 535.0 14.9
555(12) 0.00621 534.7 13.3
563(12) 0.00629 534.5 12.0
534(13) 0.00603 534.2 10.9
535(13) 0.00594 534.0 9.9
544(12) 0.00608 533.7 9.1
544(12) 0.00635 533.5 8.4
561(12) 0.00624 533.3 7.8
562(13) 0.00585 533.0 7.3
549(13) 0.00573 532.8 6.8
552(13) 0.00599 532.5 6.4
543(12) 0.00639 532.3 6.1
549(12) 0.00632 532.0 5.7
523(12) 0.00632 531.8 5.4
541(13) 0.00565 531.6 5.2
555(13) 0.00590 531.3 5.0
552(12) 0.00625 531.1 4.7
492(12) 0.00697 530.8 4.6
486(12) 0.00674 530.6 4.4
532(13) 0.00578 530.3 4.2
547(13) 0.00600 530.1 4.1
528(12) 0.00653 529.8 4.0
538(12) 0.00653 529.6 3.9
528(12) 0.00631 529.4 3.8
495(12) 0.00636 529.1 3.7
532(13) 0.00593 528.9 3.6
543(12) 0.00647 528.6 3.5
528(12) 0.00655 528.4 3.4
485(12) 0.00691 528.1 3.4
500(12) 0.00620 527.9 3.3
534(12) 0.00610 527.7 3.3
547(12) 0.00642 527.4 3.2
546(12) 0.00627 527.2 3.2
532(12) 0.00621 526.9 3.1
548(13) 0.00582 526.7 3.1
539(12) 0.00615 526.4 3.1
524(12) 0.00676 526.2 3.0
546(12) 0.00609 526.0 3.0
510(12) 0.00651 525.7 3.0
539(13) 0.00595 525.5 3.0
554(13) 0.00591 525.2 3.0
526(12) 0.00668 525.0 3.0
524(12) 0.00632 524.7 3.0
533(13) 0.00603 524.5 3.0
559(13) 0.00585 524.2 3.0
521(12) 0.00641 524.0 3.0
525(12) 0.00672 523.8 3.0
524(12) 0.00637 523.5 3.0
527(13) 0.00602 523.3 3.0
528(12) 0.00608 523.0 3.1
524(12) 0.00637 522.8 3.1
526(12) 0.00661 522.5 3.1
498(12) 0.00639 522.3 3.2
496(12) 0.00634 522.1 3.2
547(13) 0.00599 521.8 3.2
542(12) 0.00632 521.6 3.3
524(12) 0.00665 521.3 3.3
510(12) 0.00640 521.1 3.4
530(13) 0.00583 520.8 3.5
538(12) 0.00610 520.6 3.5
495(12) 0.00699 520.3 3.6
489(11) 0.00718 520.1 3.7
498(12) 0.00655 519.9 3.8
471(12) 0.00658 519.6 3.9
519(12) 0.00634 519.4 3.9
521(12) 0.00662 519.1 4.0
538(12) 0.00647 518.9 4.2
490(12) 0.00651 518.6 4.3
520(13) 0.00573 518.4 4.4
554(13) 0.00590 518.2 4.5
552(12) 0.00635 517.9 4.7
519(12) 0.00659 517.7 4.8
498(12) 0.00668 517.4 5.0
509(12) 0.00626 517.2 5.1
510(12) 0.00653 516.9 5.3
498(12) 0.00701 516.7 5.5
514(12) 0.00678 516.4 5.7
541(12) 0.00608 516.2 5.9
544(13) 0.00581 516.0 6.1
534(12) 0.00622 515.7 6.3
527(12) 0.00663 515.5 6.5
520(12) 0.00660 515.2 6.8
567(13) 0.00566 515.0 7.0
534(13) 0.00596 514.7 7.3
508(12) 0.00637 514.5 7.5
505(12) 0.00693 514.3 7.9
522(12) 0.00657 514.0 8.2
516(12) 0.00614 513.8 8.4
518(12) 0.00619 513.5 8.7
531(12) 0.00639 513.3 9.1
524(12) 0.00663 513.0 9.4
524(12) 0.00636 512.8 9.7
533(12) 0.00613 512.6 10.0
539(12) 0.00620 512.3 10.3
538(12) 0.00635 512.1 10.7
547(12) 0.00639 511.8 11.0
553(12) 0.00616 511.6 11.3
561(13) 0.00585 511.3 11.6
546(13) 0.00589 511.1 11.9
529(12) 0.00640 510.8 12.2
550(12) 0.00637 510.6 12.5
509(12) 0.00641 510.4 12.7
497(12) 0.00625 510.1 13.0
534(13) 0.00605 509.9 13.2
517(12) 0.00667 509.6 13.4
526(12) 0.00663 509.4 13.6
537(12) 0.00607 509.1 13.9
522(13) 0.00594 508.9 14.1
525(12) 0.00637 508.7 14.3
523(12) 0.00664 508.4 14.5
550(12) 0.00639 508.2 14.8
533(12) 0.00622 507.9 15.1
512(12) 0.00620 507.7 15.5
515(12) 0.00641 507.4 15.9
522(12) 0.00660 507.2 16.3
515(12) 0.00681 506.9 16.7
548(12) 0.00606 506.7 17.0
525(13) 0.00584 506.5 17.1
519(12) 0.00635 506.2 17.0
537(12) 0.00639 506.0 16.5
539(12) 0.00645 505.7 15.7
549(13) 0.00590 505.5 14.8
528(13) 0.00575 505.2 13.9
476(12) 0.00676 505.0 13.0
511(12) 0.00679 504.8 12.1
528(12) 0.00652 504.5 11.3
493(12) 0.00661 504.3 10.6
515(13) 0.00601 504.0 9.9
499(12) 0.00650 503.8 9.4
516(12) 0.00684 503.5 8.9
517(12) 0.00664 503.3 8.4
499(12) 0.00669 503.0 8.0
558(13) 0.00568 502.8 7.6
495(12) 0.00661 502.6 7.3
517(12) 0.00668 502.3 7.0
506(12) 0.00690 502.1 6.7
514(12) 0.00635 501.8 6.4
496(12) 0.00653 501.6 6.1
495(12) 0.00658 501.3 5.9
484(11) 0.00718 501.1 5.7
550(12) 0.00609 500.9 5.4
510(12) 0.00634 500.6 5.2
512(12) 0.00639 500.4 5.0
519(12) 0.00646 500.1 4.8
493(11) 0.00709 499.9 4.7
489(12) 0.00678 499.6 4.5
519(12) 0.00616 499.4 4.3
498(12) 0.00669 499.2 4.2
527(12) 0.00637 498.9 4.0
521(12) 0.00671 498.7 3.9
520(12) 0.00617 498.4 3.8
488(12) 0.00643 498.2 3.6
522(12) 0.00636 497.9 3.5
504(12) 0.00670 497.7 3.4
525(12) 0.00665 497.4 3.3
497(12) 0.00664 497.2 3.2
469(12) 0.00676 497.0 3.1
515(12) 0.00634 496.7 3.0
518(12) 0.00665 496.5 2.9
474(11) 0.00728 496.2 2.9
498(12) 0.00641 496.0 2.8
515(13) 0.00591 495.7 2.7
489(12) 0.00674 495.5 2.7
504(12) 0.00683 495.3 2.6
512(12) 0.00687 495.0 2.5
486(12) 0.00678 494.8 2.5
478(12) 0.00630 494.5 2.4
470(12) 0.00705 494.3 2.4
449(11) 0.00772 494.0 2.3
501(12) 0.00689 493.8 2.3
516(12) 0.00624 493.5 2.2
499(12) 0.00616 493.3 2.2
538(12) 0.00613 493.1 2.2
509(12) 0.00695 492.8 2.1
494(12) 0.00689 492.6 2.1
511(12) 0.00650 492.3 2.0
510(12) 0.00622 492.1 2.0
515(12) 0.00624 491.8 2.0
484(11) 0.00716 491.6 2.0
497(12) 0.00690 491.4 1.9
488(12) 0.00661 491.1 1.9
466(12) 0.00677 490.9 1.9
538(13) 0.00592 490.6 1.8
522(12) 0.00671 490.4 1.8
512(12) 0.00656 490.1 1.8
491(12) 0.00661 489.9 1.8
485(12) 0.00659 489.7 1.8
470(12) 0.00704 489.4 1.7
493(11) 0.00709 489.2 1.7
510(12) 0.00668 488.9 1.7
518(13) 0.00599 488.7 1.7
476(12) 0.00672 488.4 1.7
466(12) 0.00702 488.2 1.6
482(11) 0.00720 487.9 1.6
490(12) 0.00674 487.7 1.6
489(12) 0.00637 487.5 1.6
490(12) 0.00649 487.2 1.6
473(11) 0.00716 487.0 1.6
490(12) 0.00705 486.7 1.6
446(11) 0.00738 486.5 1.5
474(12) 0.00660 486.2 1.5
470(12) 0.00701 486.0 1.5
484(12) 0.00691 485.8 1.5
470(11) 0.00737 485.5 1.5
491(12) 0.00655 485.3 1.5
494(12) 0.00623 485.1 1.5
488(12) 0.00671 484.9 1.5
454(11) 0.00763 484.7 1.5
479(11) 0.00726 484.4 1.4
479(12) 0.00678 484.2 1.4
480(12) 0.00647 484.0 1.4
492(12) 0.00651 483.8 1.4
476(11) 0.00722 483.6 1.4
479(11) 0.00720 483.3 1.4
477(12) 0.00683 483.1 1.4
469(12) 0.00642 482.9 1.4
483(12) 0.00665 482.7 1.4
465(11) 0.00736 482.5 1.4
487(12) 0.00706 482.3 1.4
466(11) 0.00710 482.0 1.4
480(12) 0.00643 481.8 1.4
466(12) 0.00702 481.6 1.4
484(11) 0.00717 481.4 1.4
484(11) 0.00721 481.2 1.4
504(12) 0.00647 481.0 1.4
501(12) 0.00616 480.7 1.4
495(12) 0.00652 480.5 1.3
512(12) 0.00683 480.3 1.3
478(11) 0.00715 480.1 1.3
478(12) 0.00685 479.9 1.3
492(12) 0.00633 479.6 1.3
476(12) 0.00681 479.4 1.3
478(11) 0.00721 479.2 1.3
469(11) 0.00734 479.0 1.3
513(12) 0.00643 478.8 1.3
471(12) 0.00676 478.6 1.3
484(12) 0.00666 478.3 1.3
497(12) 0.00704 478.1 1.3
470(11) 0.00724 477.9 1.3
482(12) 0.00659 477.7 1.3
461(12) 0.00693 477.5 1.3
490(12) 0.00658 477.3 1.3
483(11) 0.00729 477.0 1.4
494(12) 0.00653 476.8 1.4
472(12) 0.00672 476.6 1.4
454(11) 0.00709 476.4 1.4
479(12) 0.00694 476.2 1.4
479(11) 0.00726 476.0 1.4
464(12) 0.00706 475.7 1.4
480(12) 0.00669 475.5 1.4
461(12) 0.00697 475.3 1.4
473(11) 0.00718 475.1 1.4
490(11) 0.00709 474.9 1.4
500(12) 0.00639 474.6 1.4
455(12) 0.00698 474.4 1.4
452(12) 0.00708 474.2 1.4
441(11) 0.00755 474.0 1.4
435(11) 0.00798 473.8 1.5
443(11) 0.00725 473.6 1.5
450(12) 0.00696 473.3 1.5
451(11) 0.00717 473.1 1.5
479(11) 0.00709 472.9 1.5
467(11) 0.00743 472.7 1.5
450(11) 0.00732 472.5 1.5
489(12) 0.00621 472.3 1.6
487(12) 0.00675 472.0 1.6
497(12) 0.00697 471.8 1.6
470(11) 0.00730 471.6 1.6
446(11) 0.00747 471.4 1.7
479(12) 0.00635 471.2 1.7
463(11) 0.00711 471.0 1.7
470(11) 0.00737 470.7 1.7
469(11) 0.00728 470.5 1.8
440(11) 0.00735 470.3 1.8
488(12) 0.00622 470.1 1.8
470(12) 0.00678 469.9 1.9
448(11) 0.00774 469.6 1.9
461(11) 0.00741 469.4 2.0
492(12) 0.00667 469.2 2.0
503(12) 0.00616 469.0 2.1
464(11) 0.00712 468.8 2.1
454(11) 0.00764 468.6 2.2
483(12) 0.00698 468.3 2.3
488(12) 0.00661 468.1 2.3
487(12) 0.00632 467.9 2.4
434(11) 0.00732 467.7 2.5
436(11) 0.00786 467.5 2.6
477(12) 0.00696 467.3 2.7
483(12) 0.00681 467.0 2.9
468(12) 0.00706 466.8 3.0
466(11) 0.00715 466.6 3.2
464(11) 0.00739 466.4 3.4
475(12) 0.00696 466.2 3.6
465(12) 0.00688 465.9 3.8
460(12) 0.00707 465.7 4.1
447(11) 0.00740 465.5 4.4
459(11) 0.00757 465.3 4.8
494(12) 0.00659 465.1 5.3
453(11) 0.00709 464.9 5.8
450(11) 0.00720 464.6 6.4
484(12) 0.00687 464.4 7.1
463(11) 0.00743 464.2 7.9
473(12) 0.00696 464.0 8.9
482(12) 0.00659 463.8 9.9
506(12) 0.00633 463.6 11.1
472(11) 0.00716 463.3 12.5
475(11) 0.00735 463.1 14.0
477(12) 0.00654 462.9 15.5
453(12) 0.00658 462.7 17.2
437(11) 0.00743 462.5 18.9
460(11) 0.00736 462.3 20.4
470(11) 0.00741 462.0 21.8
497(12) 0.00649 461.8 22.8
457(12) 0.00673 461.6 23.4
471(12) 0.00698 461.4 23.5
486(11) 0.00716 461.2 23.0
470(11) 0.00733 460.9 22.0
509(12) 0.00638 460.7 20.7
441(12) 0.00679 460.5 19.1
457(12) 0.00700 460.3 17.5
447(11) 0.00761 460.1 15.8
453(11) 0.00756 459.9 14.3
444(11) 0.00734 459.6 12.8
467(12) 0.00624 459.4 11.4
477(12) 0.00691 459.2 10.2
501(12) 0.00694 459.0 9.1
465(11) 0.00733 458.8 8.2
473(12) 0.00674 458.6 7.3
454(12) 0.00665 458.3 6.6
454(11) 0.00713 458.1 6.0
457(11) 0.00756 457.9 5.5
478(12) 0.00695 457.7 5.0
454(11) 0.00726 457.5 4.6
467(12) 0.00660 457.2 4.3
473(12) 0.00683 457.0 4.0
474(11) 0.00734 456.8 3.8
438(11) 0.00766 456.6 3.6
465(12) 0.00707 456.4 3.4
467(12) 0.00698 456.2 3.3
495(12) 0.00677 455.9 3.2
463(11) 0.00750 455.7 3.0
478(12) 0.00687 455.5 2.9
470(12) 0.00676 455.3 2.9
490(12) 0.00647 455.1 2.8
483(12) 0.00674 454.9 2.7
465(11) 0.00742 454.6 2.6
473(12) 0.00672 454.4 2.6
443(12) 0.00706 454.2 2.5
467(12) 0.00671 454.0 2.5
450(11) 0.00738 453.8 2.5
454(11) 0.00764 453.6 2.4
458(12) 0.00708 453.3 2.4
448(11) 0.00713 453.1 2.4
438(11) 0.00754 452.9 2.4
447(11) 0.00764 452.7 2.4
448(11) 0.00776 452.5 2.4
439(11) 0.00729 452.2 2.4
436(12) 0.00700 452.0 2.4
458(11) 0.00716 451.8 2.4
457(11) 0.00745 451.6 2.4
446(11) 0.00782 451.4 2.4
475(12) 0.00686 451.2 2.4
446(12) 0.00682 450.9 2.4
450(11) 0.00716 450.7 2.5
443(11) 0.00777 450.5 2.5
426(11) 0.00804 450.3 2.5
446(11) 0.00712 450.1 2.5
461(12) 0.00656 449.9 2.6
443(11) 0.00737 449.6 2.6
474(11) 0.00733 449.4 2.7
466(11) 0.00735 449.2 2.7
442(11) 0.00754 449.0 2.7
449(12) 0.00661 448.8 2.8
423(11) 0.00763 448.6 2.8
472(11) 0.00735 448.3 2.9
446(11) 0.00767 448.1 2.9
483(12) 0.00658 447.9 3.0
450(12) 0.00679 447.7 3.0
455(11) 0.00721 447.5 3.1
462(11) 0.00758 447.2 3.1
452(11) 0.00747 447.0 3.2
432(11) 0.00750 446.8 3.2
441(12) 0.00694 446.6 3.3
451(11) 0.00718 446.4 3.3
443(11) 0.00778 446.2 3.3
446(11) 0.00754 445.9 3.4
449(11) 0.00718 445.7 3.4
462(12) 0.00676 445.5 3.4
430(11) 0.00766 445.3 3.5
440(11) 0.00784 445.1 3.5
440(11) 0.00737 444.9 3.5
434(11) 0.00716 444.8 3.5
420(11) 0.00749 444.6 3.5
443(11) 0.00743 444.4 3.5
444(11) 0.00784 444.3 3.5
443(11) 0.00734 444.1 3.5
460(12) 0.00677 443.9 3.5
435(11) 0.00734 443.8 3.4
439(11) 0.00757 443.6 3.4
445(11) 0.00778 443.4 3.4
437(11) 0.00736 443.3 3.3
418(11) 0.00742 443.1 3.3
451(11) 0.00713 442.9 3.2
447(11) 0.00752 442.8 3.2
450(11) 0.00771 442.6 3.1
462(12) 0.00694 442.5 3.1
421(11) 0.00744 442.3 3.0
438(11) 0.00742 442.1 3.0
438(11) 0.00771 442.0 2.9
444(11) 0.00773 441.8 2.9
431(11) 0.00751 441.6 2.8
448(12) 0.00701 441.5 2.7
479(12) 0.00668 441.3 2.7
432(11) 0.00793 441.1 2.6
451(11) 0.00768 441.0 2.6
443(11) 0.00719 440.8 2.5
458(12) 0.00656 440.6 2.5
455(11) 0.00708 440.5 2.4
421(11) 0.00817 440.3 2.4
444(11) 0.00777 440.1 2.3
405(11) 0.00808 440.0 2.3
430(12) 0.00703 439.8 2.2
431(11) 0.00748 439.6 2.2
422(11) 0.00823 439.5 2.2
459(11) 0.00755 439.3 2.1
447(11) 0.00743 439.2 2.1
460(12) 0.00671 439.0 2.0
455(12) 0.00699 438.8 2.0
433(11) 0.00804 438.7 2.0
438(11) 0.00772 438.5 1.9
480(12) 0.00676 438.3 1.9
460(12) 0.00686 438.2 1.9
465(12) 0.00676 438.0 1.9
427(11) 0.00810 437.8 1.8
431(11) 0.00784 437.7 1.8
442(11) 0.00716 437.5 1.8
442(11) 0.00724 437.3 1.8
460(12) 0.00694 437.2 1.8
465(11) 0.00743 437.0 1.7
437(11) 0.00746 436.8 1.7
440(12) 0.00698 436.7 1.7
447(12) 0.00702 436.5 1.7
443(11) 0.00745 436.3 1.7
452(11) 0.00765 436.2 1.7
447(11) 0.00759 436.0 1.7
458(12) 0.00697 435.8 1.6
437(11) 0.00736 435.7 1.6
415(11) 0.00798 435.5 1.6
421(11) 0.00816 435.4 1.6
429(11) 0.00751 435.2 1.6
434(11) 0.00735 435.0 1.6
439(11) 0.00743 434.9 1.6
451(11) 0.00737 434.7 1.6
420(11) 0.00828 434.5 1.6
452(11) 0.00722 434.4 1.6
442(12) 0.00697 434.2 1.6
454(11) 0.00719 434.0 1.6
428(11) 0.00792 433.9 1.6
449(11) 0.00763 433.7 1.6
413(11) 0.00778 433.5 1.6
408(11) 0.00756 433.4 1.6
431(11) 0.00776 433.2 1.6
423(11) 0.00811 433.0 1.6
457(11) 0.00756 432.9 1.6
439(11) 0.00711 432.7 1.6
426(11) 0.00710 432.5 1.6
422(11) 0.00780 432.4 1.6
426(11) 0.00810 432.2 1.6
484(11) 0.00721 432.0 1.6
437(11) 0.00729 431.9 1.6
433(11) 0.00721 431.7 1.6
437(11) 0.00739 431.6 1.6
414(11) 0.00828 431.4 1.6
446(11) 0.00778 431.2 1.6
446(11) 0.00751 431.1 1.6
416(11) 0.00739 430.9 1.6
452(12) 0.00699 430.7 1.6
454(11) 0.00766 430.6 1.6
448(11) 0.00744 430.4 1.6
443(11) 0.00737 430.2 1.6
453(12) 0.00704 430.1 1.6
421(11) 0.00761 429.9 1.6
424(11) 0.00819 429.7 1.6
427(11) 0.00785 429.6 1.6
428(11) 0.00756 429.4 1.6
410(11) 0.00774 429.2 1.6
421(11) 0.00753 429.1 1.6
433(11) 0.00793 428.9 1.6
447(11) 0.00751 428.7 1.6
452(12) 0.00704 428.6 1.6
438(11) 0.00745 428.4 1.6
446(11) 0.00737 428.2 1.7
422(11) 0.00820 428.1 1.7
407(11) 0.00799 427.9 1.7
418(11) 0.00759 427.8 1.7
443(11) 0.00724 427.6 1.7
418(11) 0.00788 427.4 1.7
410(11) 0.00834 427.3 1.7
410(11) 0.00806 427.1 1.7
412(11) 0.00780 426.9 1.7
455(12) 0.00702 426.8 1.7
444(11) 0.00742 426.6 1.7
437(11) 0.00792 426.4 1.7
431(11) 0.00745 426.3 1.7
413(11) 0.00755 426.1 1.8
408(11) 0.00798 425.9 1.8
432(11) 0.00806 425.8 1.8
440(11) 0.00780 425.6 1.8
419(11) 0.00769 425.4 1.8
440(12) 0.00699 425.3 1.8
428(11) 0.00766 425.1 1.8
425(11) 0.00812 424.9 1.8
412(11) 0.00838 424.8 1.8
417(11) 0.00753 424.6 1.9
434(12) 0.00700 424.4 1.9
412(11) 0.00810 424.3 1.9
426(11) 0.00799 424.1 1.9
420(11) 0.00830 424.0 1.9
425(11) 0.00733 423.8 1.9
414(11) 0.00732 423.6 1.9
424(11) 0.00764 423.5 1.9
431(11) 0.00803 423.3 2.0
443(11) 0.00773 423.1 2.0
421(11) 0.00757 423.0 2.0
411(11) 0.00723 422.8 2.0
415(11) 0.00779 422.6 2.0
426(11) 0.00815 422.5 2.0
466(11) 0.00718 422.3 2.1
406(11) 0.00813 422.1 2.1
417(11) 0.00734 422.0 2.1
376(10) 0.00877 421.8 2.1
414(11) 0.00825 421.6 2.1
419(11) 0.00807 421.5 2.1
412(11) 0.00787 421.3 2.2
391(11) 0.00795 421.1 2.2
432(11) 0.00746 421.0 2.2
450(11) 0.00772 420.8 2.2
430(11) 0.00770 420.6 2.2
423(11) 0.00760 420.5 2.3
396(11) 0.00826 420.3 2.3
445(11) 0.00742 420.2 2.3
437(11) 0.00790 420.0 2.3
414(11) 0.00802 419.8 2.3
447(12) 0.00700 419.7 2.4
431(11) 0.00734 419.5 2.4
417(11) 0.00802 419.4 2.4
412(11) 0.00838 419.3 2.4
408(11) 0.00800 419.2 2.5
427(11) 0.00738 419.1 2.5
419(11) 0.00772 418.9 2.5
403(11) 0.00824 418.8 2.5
404(10) 0.00850 418.7 2.6
403(11) 0.00802 418.6 2.6
410(11) 0.00778 418.5 2.6
440(11) 0.00733 418.4 2.7
425(11) 0.00792 418.3 2.7
407(10) 0.00842 418.2 2.7
393(11) 0.00824 418.1 2.8
424(11) 0.00742 417.9 2.8
437(11) 0.00740 417.8 2.8
398(10) 0.00847 417.7 2.9
412(10) 0.00843 417.6 2.9
396(11) 0.00813 417.5 2.9
421(11) 0.00725 417.4 3.0
412(11) 0.00774 417.3 3.0
420(11) 0.00793 417.2 3.1
416(11) 0.00821 417.0 3.1
431(11) 0.00734 416.9 3.1
423(12) 0.00691 416.8 3.2
392(11) 0.00825 416.7 3.2
416(11) 0.00823 416.6 3.3
427(11) 0.00805 416.5 3.3
438(11) 0.00751 416.4 3.4
409(11) 0.00738 416.3 3.4
390(11) 0.00823 416.2 3.5
383(10) 0.00876 416.0 3.5
415(11) 0.00820 415.9 3.6
450(11) 0.00717 415.8 3.7
437(12) 0.00681 415.7 3.7
403(11) 0.00773 415.6 3.8
425(11) 0.00796 415.5 3.9
426(11) 0.00806 415.4 3.9
444(12) 0.00706 415.3 4.0
423(11) 0.00728 415.2 4.1
432(11) 0.00735 415.0 4.1
404(10) 0.00849 414.9 4.2
427(11) 0.00774 414.8 4.3
432(11) 0.00729 414.7 4.4
397(11) 0.00811 414.6 4.5
406(11) 0.00776 414.5 4.6
403(10) 0.00853 414.4 4.7
434(11) 0.00757 414.3 4.8
408(11) 0.00760 414.1 4.9
398(11) 0.00780 414.0 5.0
401(10) 0.00845 413.9 5.1
410(11) 0.00830 413.8 5.2
408(11) 0.00805 413.7 5.3
436(11) 0.00735 413.6 5.5
428(11) 0.00768 413.5 5.6
434(11) 0.00767 413.4 5.7
395(10) 0.00860 413.3 5.9
416(11) 0.00772 413.1 6.0
395(11) 0.00809 413.0 6.2
408(11) 0.00786 412.9 6.4
413(11) 0.00823 412.8 6.6
453(11) 0.00764 412.7 6.8
425(11) 0.00769 412.6 7.0
410(11) 0.00768 412.5 7.2
401(11) 0.00823 412.4 7.4
397(10) 0.00858 412.3 7.7
398(10) 0.00863 412.1 7.9
416(11) 0.00787 412.0 8.2
431(12) 0.00702 411.9 8.5
402(11) 0.00791 411.8 8.8
402(11) 0.00838 411.7 9.1
409(11) 0.00829 411.6 9.5
415(11) 0.00786 411.5 9.9
418(11) 0.00722 411.4 10.3
422(11) 0.00780 411.3 10.7
427(11) 0.00809 411.1 11.2
411(11) 0.00828 411.0 11.8
415(11) 0.00797 410.9 12.3
421(11) 0.00723 410.8 13.0
423(11) 0.00759 410.7 13.6
417(11) 0.00818 410.6 14.4
433(11) 0.00792 410.5 15.2
448(11) 0.00724 410.4 16.1
414(11) 0.00741 410.2 17.1
438(11) 0.00745 410.1 18.2
434(11) 0.00801 410.0 19.5
434(11) 0.00773 409.9 20.9
426(11) 0.00779 409.8 22.6
413(11) 0.00750 409.7 24.4
443(12) 0.00700 409.6 26.6
437(11) 0.00791 409.5 29.2
415(11) 0.00819 409.4 32.2
448(11) 0.00738 409.2 35.8
472(12) 0.00662 409.1 40.2
437(11) 0.00722 409.0 45.6
441(11) 0.00783 408.9 52.0
500(12) 0.00664 408.8 59.8
468(12) 0.00697 408.7 69.2
512(12) 0.00610 408.6 80.3
497(12) 0.00667 408.5 93.3
509(12) 0.00688 408.4 108.4
570(13) 0.00584 408.2 125.5
558(13) 0.00586 408.1 144.2
599(13) 0.00533 408.0 163.9
633(13) 0.00525 407.9 183.4
712(14) 0.00499 407.8 200.7
675(14) 0.00488 407.7 213.6
641(14) 0.00506 407.6 219.9
681(14) 0.00486 407.5 218.4
671(14) 0.00516 407.3 209.5
634(13) 0.00559 407.2 194.9
582(13) 0.00555 407.1 177.0
587(13) 0.00540 407.0 157.9
555(13) 0.00583 406.9 139.2
532(12) 0.00635 406.8 122.0
558(12) 0.00623 406.7 106.7
518(12) 0.00624 406.6 93.4
513(13) 0.00604 406.5 82.3
491(12) 0.00662 406.3 73.1
474(11) 0.00733 406.2 65.7
471(11) 0.00731 406.1 60.0
464(12) 0.00679 406.0 55.8
430(12) 0.00704 405.9 52.9
466(12) 0.00686 405.8 51.1
488(11) 0.00713 405.7 50.4
467(11) 0.00737 405.6 50.7
476(12) 0.00685 405.5 51.9
477(12) 0.00633 405.3 54.0
486(12) 0.00685 405.2 56.8
469(11) 0.00743 405.1 60.4
476(11) 0.00717 405.0 64.5
500(12) 0.00659 404.9 69.0
478(12) 0.00662 404.8 73.5
498(12) 0.00649 404.7 77.4
487(11) 0.00716 404.6 80.3
507(12) 0.00673 404.4 81.6
502(12) 0.00668 404.3 80.9
489(12) 0.00664 404.2 78.4
501(12) 0.00654 404.1 74.4
483(11) 0.00719 404.0 69.6
470(11) 0.00722 403.9 64.3
467(11) 0.00709 403.8 59.2
461(12) 0.00687 403.7 54.4
463(12) 0.00700 403.6 50.0
459(11) 0.00752 403.4 46.3
424(11) 0.00781 403.3 43.1
459(12) 0.00704 403.2 40.4
446(12) 0.00704 403.1 38.3
425(11) 0.00790 403.0 36.6
453(11) 0.00764 402.9 35.3
401(11) 0.00820 402.8 34.5
410(11) 0.00776 402.7 33.9
441(11) 0.00725 402.6 33.6
427(11) 0.00793 402.4 33.5
447(11) 0.00780 402.3 33.6
429(11) 0.00753 402.2 34.0
438(11) 0.00721 402.1 34.4
437(11) 0.00752 402.0 35.1
428(11) 0.00791 401.9 35.8
425(11) 0.00803 401.8 36.8
420(11) 0.00776 401.7 37.8
434(11) 0.00728 401.5 39.0
424(11) 0.00767 401.4 40.3
459(11) 0.00753 401.3 41.8
440(11) 0.00781 401.2 43.4
416(11) 0.00765 401.1 45.1
440(12) 0.00699 401.0 47.1
450(11) 0.00726 400.9 49.2
452(11) 0.00763 400.8 51.6
440(11) 0.00791 400.7 54.2
431(11) 0.00739 400.5 57.1
422(11) 0.00731 400.4 60.3
469(12) 0.00703 400.3 63.9
453(11) 0.00763 400.2 68.1
433(11) 0.00799 400.1 72.8
450(12) 0.00697 400.0 78.4
502(13) 0.00578 399.9 84.9
509(12) 0.00637 399.8 92.8
517(12) 0.00672 399.7 102.5
514(12) 0.00674 399.5 114.4
512(12) 0.00648 399.4 129.2
532(13) 0.00578 399.3 147.6
577(13) 0.00567 399.2 170.4
603(13) 0.00582 399.1 198.4
622(13) 0.00556 399.0 232.5
632(13) 0.00527 398.9 273.3
676(14) 0.00473 398.8 321.1
746(14) 0.00459 398.7 375.4
841(15) 0.00423 398.5 435.0
811(15) 0.00430 398.4 496.4
860(16) 0.00389 398.3 554.1
966(17) 0.003289 398.2 599.8
975(17) 0.003384 398.1 625.0
1026(17) 0.00351 398.0 623.8
995(17) 0.003457 397.9 596.3
912(16) 0.00364 397.8 548.7
841(16) 0.00389 397.6 489.8
796(15) 0.00421 397.5 427.4
718(14) 0.00493 397.4 367.2
653(13) 0.00525 397.3 312.3
645(14) 0.00501 397.2 264.2
625(14) 0.00521 397.1 223.0
606(13) 0.00544 397.0 188.5
582(13) 0.00605 396.9 160.1
569(13) 0.00592 396.8 136.9
549(13) 0.00589 396.6 118.1
499(12) 0.00646 396.5 102.9
486(12) 0.00688 396.4 90.7
490(11) 0.00708 396.3 80.7
490(12) 0.00655 396.2 72.5
458(11) 0.00721 396.1 65.7
475(12) 0.00693 396.0 60.0
476(11) 0.00718 395.9 55.1
443(11) 0.00772 395.8 50.9
465(12) 0.00686 395.6 47.2
469(12) 0.00661 395.5 43.9
480(12) 0.00665 395.4 41.1
461(11) 0.00748 395.3 38.6
454(11) 0.00763 395.2 36.3
448(11) 0.00713 395.1 34.3
430(11) 0.00725 395.0 32.5
403(11) 0.00799 394.9 30.8
426(11) 0.00809 394.7 29.4
429(11) 0.00807 394.6 28.0
416(11) 0.00780 394.5 26.8
433(12) 0.00693 394.4 25.7
465(12) 0.00677 394.3 24.7
422(11) 0.00816 394.2 23.8
425(11) 0.00808 394.1 23.0
417(11) 0.00767 394.0 22.3
428(12) 0.00682 393.9 21.6
400(11) 0.00796 393.7 21.0
396(10) 0.00849 393.6 20.5
409(11) 0.00828 393.5 20.0
390(11) 0.00830 393.4 19.5
406(11) 0.00747 393.3 19.1
420(11) 0.00776 393.2 18.8
427(11) 0.00805 393.1 18.5
420(11) 0.00823 393.0 18.2
431(11) 0.00742 392.9 18.0
420(11) 0.00732 392.7 17.8
406(11) 0.00784 392.6 17.6
432(11) 0.00799 392.5 17.5
410(11) 0.00818 392.4 17.4
411(11) 0.00787 392.3 17.4
409(11) 0.00770 392.2 17.4
400(11) 0.00772 392.1 17.4
405(10) 0.00857 392.0 17.4
446(11) 0.00742 391.8 17.5
435(11) 0.00738 391.7 17.6
418(11) 0.00757 391.6 17.8
450(11) 0.00731 391.5 18.0
395(10) 0.00867 391.4 18.2
398(11) 0.00826 391.3 18.5
398(11) 0.00806 391.2 18.8
411(11) 0.00782 391.1 19.2
398(11) 0.00827 391.0 19.7
391(10) 0.00883 390.8 20.1
416(11) 0.00787 390.7 20.7
434(11) 0.00722 390.6 21.3
416(11) 0.00792 390.5 22.0
448(11) 0.00742 390.4 22.8
417(11) 0.00831 390.3 23.7
430(11) 0.00743 390.2 24.7
424(11) 0.00732 390.1 25.9
429(11) 0.00764 390.0 27.1
419(11) 0.00815 389.8 28.6
426(11) 0.00815 389.7 30.3
446(11) 0.00720 389.6 32.2
434(12) 0.00698 389.5 34.3
433(11) 0.00749 389.4 36.7
428(11) 0.00787 389.3 39.5
414(11) 0.00826 389.2 42.6
452(12) 0.00702 389.1 46.2
453(12) 0.00658 389.0 50.2
472(11) 0.00711 388.8 54.7
487(11) 0.00711 388.7 59.7
475(11) 0.00727 388.6 65.3
439(11) 0.00755 388.5 71.5
482(12) 0.00616 388.4 78.3
491(12) 0.00686 388.3 85.8
529(12) 0.00659 388.2 93.9
506(12) 0.00666 388.1 102.5
522(12) 0.00636 387.9 111.7
514(12) 0.00609 387.8 121.2
525(12) 0.00637 387.7 130.9
533(12) 0.00657 387.6 140.5
544(12) 0.00630 387.5 149.7
579(13) 0.00568 387.4 157.9
545(13) 0.00573 387.3 164.8
551(13) 0.00594 387.2 169.9
557(12) 0.00628 387.1 172.8
594(13) 0.00579 386.9 173.3
592(13) 0.00553 386.8 171.3
558(13) 0.00578 386.7 167.0
581(13) 0.00557 386.6 160.7
564(12) 0.00623 386.5 152.8
551(12) 0.00607 386.4 143.9
554(13) 0.00592 386.3 134.3
536(12) 0.00608 386.2 124.6
487(12) 0.00694 386.1 114.9
475(11) 0.00723 385.9 105.4
443(11) 0.00749 385.8 96.5
467(12) 0.00686 385.7 88.1
454(11) 0.00718 385.6 80.3
450(11) 0.00740 385.5 73.1
443(11) 0.00782 385.4 66.6
441(11) 0.00743 385.3 60.6
461(12) 0.00690 385.2 55.3
450(11) 0.00714 385.0 50.5
414(11) 0.00783 384.9 46.2
403(10) 0.00847 384.8 42.4
409(11) 0.00795 384.7 39.0
390(11) 0.00807 384.6 36.0
399(11) 0.00807 384.5 33.3
391(10) 0.00868 384.4 30.9
419(11) 0.00827 384.3 28.8
418(11) 0.00780 384.2 27.0
423(11) 0.00730 384.0 25.3
407(11) 0.00783 383.9 23.8
405(11) 0.00834 383.8 22.5
398(10) 0.00848 383.7 21.3
387(10) 0.00842 383.6 20.2
373(11) 0.00817 383.5 19.2
402(11) 0.00808 383.4 18.4
390(10) 0.00884 383.3 17.6
394(10) 0.00858 383.2 16.8
398(11) 0.00790 383.0 16.1
393(11) 0.00770 382.9 15.5
399(11) 0.00794 382.8 14.9
386(10) 0.00891 382.7 14.4
388(10) 0.00883 382.6 13.9
413(11) 0.00764 382.5 13.4
394(11) 0.00786 382.4 13.0
393(11) 0.00824 382.3 12.6
370(10) 0.00931 382.1 12.2
388(10) 0.00865 382.0 11.9
393(11) 0.00800 381.9 11.6
387(11) 0.00789 381.8 11.3
391(11) 0.00833 381.7 11.0
406(10) 0.00844 381.6 10.7
359(10) 0.00935 381.5 10.4
431(11) 0.00719 381.4 10.2
382(11) 0.00827 381.3 10.0
375(10) 0.00844 381.1 9.8
398(10) 0.00858 381.0 9.6
396(10) 0.00855 380.9 9.4
398(11) 0.00809 380.8 9.2
378(11) 0.00812 380.7 9.1
401(11) 0.00792 380.6 8.9
380(10) 0.00893 380.5 8.8
378(10) 0.00868 380.4 8.6
401(11) 0.00793 380.3 8.5
374(10) 0.00864 380.1 8.4
396(11) 0.00834 380.0 8.3
412(11) 0.00831 379.9 8.2
361(10) 0.00918 379.8 8.1
384(11) 0.00808 379.7 8.0
399(11) 0.00792 379.6 7.9
406(11) 0.00834 379.5 7.8
409(10) 0.00841 379.4 7.7
370(10) 0.00862 379.2 7.7
378(11) 0.00831 379.1 7.6
405(11) 0.00778 379.0 7.6
411(11) 0.00824 378.9 7.5
378(10) 0.00915 378.8 7.5
383(10) 0.00842 378.7 7.4
370(10) 0.00853 378.6 7.4
372(10) 0.00895 378.5 7.3
396(10) 0.00862 378.4 7.3
410(11) 0.00833 378.2 7.3
361(10) 0.00888 378.1 7.3
381(11) 0.00791 378.0 7.3
386(10) 0.00853 377.9 7.2
393(10) 0.00866 377.8 7.2
384(10) 0.00877 377.7 7.2
389(11) 0.00816 377.6 7.2
371(11) 0.00796 377.5 7.3
358(10) 0.00906 377.4 7.3
363(10) 0.00934 377.3 7.3
373(10) 0.00912 377.2 7.3
365(10) 0.00882 377.1 7.3
384(11) 0.00793 377.0 7.4
360(10) 0.00918 376.9 7.4
359(10) 0.00947 376.8 7.5
341(10) 0.00994 376.6 7.5
379(10) 0.00856 376.5 7.6
350(10) 0.00899 376.4 7.7
367(10) 0.00883 376.3 7.8
375(10) 0.00904 376.2 7.8
381(10) 0.00898 376.1 8.0
377(10) 0.00847 376.0 8.1
325(10) 0.00965 375.9 8.2
397(11) 0.00787 375.8 8.4
381(10) 0.00896 375.7 8.5
388(10) 0.00871 375.6 8.7
389(11) 0.00817 375.5 9.0
388(11) 0.00786 375.4 9.3
344(10) 0.00953 375.3 9.6
380(10) 0.00904 375.2 10.0
384(10) 0.00851 375.1 10.5
426(11) 0.00727 375.0 11.1
382(10) 0.00846 374.9 11.9
383(10) 0.00840 374.8 13.0
360(10) 0.00948 374.7 14.6
376(10) 0.00875 374.6 16.7
383(11) 0.00839 374.5 19.6
406(11) 0.00794 374.4 23.3
404(11) 0.00831 374.3 28.0
421(11) 0.00817 374.2 33.2
398(11) 0.00812 374.1 38.4
414(11) 0.00741 374.0 42.1
412(11) 0.00782 373.8 42.9
433(11) 0.00776 373.7 40.4
430(11) 0.00804 373.6 35.9
420(11) 0.00762 373.5 30.8
415(11) 0.00754 373.4 26.1
400(11) 0.00824 373.3 22.3
408(11) 0.00820 373.2 19.3
391(10) 0.00870 373.1 17.2
380(11) 0.00828 373.0 15.7
369(11) 0.00811 372.9 14.6
390(11) 0.00836 372.8 14.0
387(10) 0.00870 372.7 13.6
413(11) 0.00824 372.6 13.3
399(11) 0.00808 372.5 13.2
378(11) 0.00797 372.4 13.1
364(10) 0.00873 372.3 13.1
384(10) 0.00889 372.2 13.1
361(10) 0.00941 372.1 13.2
378(10) 0.00859 372.0 13.3
369(11) 0.00819 371.9 13.5
365(10) 0.00884 371.8 13.7
392(10) 0.00880 371.7 13.9
399(10) 0.00843 371.6 14.1
363(10) 0.00907 371.5 14.3
399(11) 0.00774 371.4 14.6
407(11) 0.00790 371.3 14.9
375(10) 0.00899 371.2 15.2
370(10) 0.00914 371.0 15.5
381(11) 0.00838 370.9 15.9
377(11) 0.00825 370.8 16.3
364(10) 0.00907 370.7 16.6
379(10) 0.00901 370.6 17.1
377(10) 0.00892 370.5 17.5
373(10) 0.00872 370.4 17.9
366(10) 0.00841 370.3 18.4
376(11) 0.00819 370.2 18.9
375(10) 0.00905 370.1 19.5
378(10) 0.00890 370.0 20.0
415(11) 0.00760 369.9 20.6
411(11) 0.00758 369.8 21.2
408(11) 0.00792 369.7 21.9
387(10) 0.00889 369.6 22.6
390(10) 0.00845 369.5 23.3
387(11) 0.00815 369.4 24.1
386(11) 0.00824 369.3 25.0
382(11) 0.00834 369.2 25.9
361(10) 0.00941 369.1 26.8
398(11) 0.00804 369.0 27.8
425(11) 0.00733 368.9 28.9
400(11) 0.00822 368.8 30.1
395(11) 0.00836 368.7 31.4
394(10) 0.00868 368.6 32.7
383(11) 0.00833 368.5 34.1
402(11) 0.00756 368.3 35.7
397(11) 0.00804 368.2 37.3
390(10) 0.00876 368.1 39.1
389(10) 0.00887 368.0 40.9
383(11) 0.00825 367.9 42.9
441(12) 0.00677 367.8 45.0
430(11) 0.00749 367.7 47.2
431(11) 0.00795 367.6 49.5
440(11) 0.00780 367.5 52.0
423(11) 0.00770 367.4 54.5
427(12) 0.00707 367.3 57.1
441(11) 0.00729 367.2 59.8
459(11) 0.00759 367.1 62.5
454(11) 0.00765 367.0 65.1
441(11) 0.00728 366.9 67.7
449(12) 0.00670 366.8 70.2
457(11) 0.00709 366.7 72.4
453(11) 0.00761 366.6 74.4
456(11) 0.00758 366.5 76.0
465(11) 0.00714 366.4 77.3
440(12) 0.00691 366.3 78.0
451(11) 0.00721 366.2 78.2
462(11) 0.00751 366.1 78.0
420(11) 0.00806 366.0 77.2
430(11) 0.00745 365.9 76.0
430(11) 0.00720 365.8 74.5
430(11) 0.00764 365.7 72.6
427(11) 0.00800 365.5 70.5
411(11) 0.00819 365.4 68.3
397(11) 0.00812 365.3 66.0
441(12) 0.00703 365.2 63.6
419(11) 0.00781 365.1 61.3
428(11) 0.00798 365.0 59.1
437(11) 0.00775 364.9 56.9
444(11) 0.00716 364.8 54.8
403(11) 0.00800 364.7 52.9
412(11) 0.00791 364.6 51.1
378(10) 0.00907 364.5 49.5
412(11) 0.00767 364.4 48.0
413(11) 0.00774 364.3 46.7
427(11) 0.00760 364.2 45.5
407(11) 0.00819 364.1 44.4
420(11) 0.00821 364.0 43.5
404(11) 0.00783 363.9 42.8
404(11) 0.00779 363.8 42.2
419(11) 0.00757 363.7 41.7
396(11) 0.00835 363.6 41.4
409(10) 0.00843 363.5 41.2
392(11) 0.00817 363.4 41.1
365(10) 0.00855 363.3 41.2
400(11) 0.00811 363.2 41.4
373(10) 0.00916 363.1 41.8
408(11) 0.00838 363.0 42.3
400(11) 0.00803 362.9 43.0
418(11) 0.00730 362.7 43.8
422(11) 0.00738 362.6 44.7
412(11) 0.00810 362.5 45.9
408(10) 0.00845 362.4 47.2
375(10) 0.00862 362.3 48.7
428(11) 0.00719 362.2 50.5
418(11) 0.00782 362.1 52.4
410(11) 0.00832 362.0 54.7
409(10) 0.00841 361.9 57.2
432(11) 0.00738 361.8 60.0
388(11) 0.00763 361.7 63.2
400(11) 0.00781 361.6 66.8
402(10) 0.00857 361.5 70.7
399(10) 0.00849 361.4 75.1
425(11) 0.00779 361.3 80.0
463(12) 0.00666 361.2 85.3
451(12) 0.00702 361.1 91.3
457(11) 0.00752 361.0 97.8
477(11) 0.00727 360.9 104.9
447(11) 0.00741 360.8 112.7
452(12) 0.00703 360.7 121.1
485(12) 0.00655 360.6 130.2
478(11) 0.00722 360.5 140.1
500(12) 0.00687 360.4 150.6
512(12) 0.00646 360.3 161.9
532(13) 0.00603 360.2 173.8
524(12) 0.00623 360.0 186.3
569(12) 0.00616 359.9 199.2
608(13) 0.00561 359.8 212.5
612(13) 0.00535 359.7 225.9
582(13) 0.00563 359.6 239.2
606(13) 0.00547 359.5 252.0
632(13) 0.00563 359.4 264.1
635(13) 0.00536 359.3 275.1
619(13) 0.00527 359.2 284.5
614(13) 0.00531 359.1 292.0
624(13) 0.00536 359.0 297.4
609(13) 0.00577 358.9 300.5
602(13) 0.00554 358.8 301.1
588(13) 0.00559 358.7 299.4
614(13) 0.00543 358.6 295.5
633(13) 0.00538 358.5 289.6
584(13) 0.00599 358.4 281.9
536(13) 0.00587 358.3 272.8
570(13) 0.00567 358.2 262.4
546(12) 0.00608 358.1 250.9
509(12) 0.00676 358.0 238.7
542(12) 0.00645 357.9 225.9
512(12) 0.00640 357.8 212.8
505(12) 0.00618 357.7 199.6
517(12) 0.00626 357.6 186.5
496(12) 0.00691 357.5 173.7
453(11) 0.00768 357.4 161.3
494(12) 0.00665 357.2 149.5
468(12) 0.00667 357.1 138.4
474(12) 0.00679 357.0 127.9
465(11) 0.00744 356.9 118.1
452(11) 0.00760 356.8 109.1
428(11) 0.00720 356.7 100.8
387(11) 0.00793 356.6 93.1
425(11) 0.00772 356.5 86.2
422(11) 0.00811 356.4 79.8
429(11) 0.00802 356.3 74.0
414(11) 0.00780 356.2 68.8
431(11) 0.00734 356.1 64.0
417(11) 0.00781 356.0 59.7
396(10) 0.00856 355.9 55.8
409(11) 0.00825 355.8 52.3
407(11) 0.00785 355.7 49.1
387(11) 0.00794 355.6 46.2
394(11) 0.00825 355.5 43.6
372(10) 0.00913 355.4 41.2
413(11) 0.00814 355.3 39.1
376(10) 0.00853 355.2 37.1
397(11) 0.00756 355.1 35.3
375(10) 0.00863 355.0 33.6
392(10) 0.00869 354.9 32.1
391(10) 0.00845 354.8 30.7
386(11) 0.00805 354.7 29.4
380(11) 0.00799 354.6 28.2
399(11) 0.00807 354.4 27.1
388(10) 0.00892 354.3 26.0
379(10) 0.00873 354.2 25.0
414(11) 0.00755 354.1 24.1
389(11) 0.00800 354.0 23.3
362(10) 0.00884 353.9 22.5
367(10) 0.00938 353.8 21.7
401(11) 0.00805 353.7 21.0
376(10) 0.00847 353.6 20.3
366(10) 0.00892 353.5 19.7
363(10) 0.00906 353.4 19.1
360(10) 0.00949 353.3 18.6
355(10) 0.00883 353.2 18.0
389(11) 0.00768 353.1 17.5
372(10) 0.00859 353.0 17.1
359(10) 0.00943 352.9 16.6
377(10) 0.00910 352.8 16.2
350(10) 0.00924 352.7 15.8
350(10) 0.00872 352.6 15.4
393(11) 0.00811 352.5 15.1
391(10) 0.00880 352.4 14.7
355(10) 0.00942 352.3 14.4
363(10) 0.00871 352.2 14.1
355(10) 0.00881 352.1 13.9
370(10) 0.00858 352.0 13.6
355(10) 0.00951 351.9 13.4
342(10) 0.00998 351.7 13.2
339(10) 0.00927 351.6 13.0
344(10) 0.00880 351.5 12.8
358(10) 0.00890 351.4 12.7
388(10) 0.00886 351.3 12.5
358(10) 0.00949 351.2 12.4
359(10) 0.00903 351.1 12.3
341(10) 0.00917 351.0 12.2
371(10) 0.00881 350.9 12.2
366(10) 0.00934 350.8 12.1
384(10) 0.00863 350.7 12.1
362(10) 0.00858 350.6 12.1
358(11) 0.00825 350.5 12.1
344(10) 0.00936 350.4 12.2
356(10) 0.00947 350.3 12.3
346(10) 0.00980 350.2 12.3
366(10) 0.00874 350.1 12.5
334(10) 0.00914 350.0 12.6
364(10) 0.00882 349.9 12.8
361(10) 0.00938 349.8 12.9
370(10) 0.00899 349.7 13.1
336(10) 0.00965 349.6 13.4
357(10) 0.00859 349.5 13.6
331(10) 0.00984 349.4 13.8
342(10) 0.00995 349.3 14.1
335(10) 0.00980 349.2 14.4
359(10) 0.00897 349.1 14.6
374(10) 0.00842 348.9 14.9
336(10) 0.00943 348.8 15.1
334(9) 0.01019 348.7 15.3
349(10) 0.00913 348.6 15.5
363(10) 0.00876 348.5 15.7
339(10) 0.00948 348.4 15.7
352(10) 0.00902 348.3 15.8
332(9) 0.01009 348.2 15.7
354(10) 0.00931 348.1 15.7
355(10) 0.00867 348.0 15.5
342(10) 0.00908 347.9 15.3
323(10) 0.01006 347.8 15.0
327(9) 0.01029 347.7 14.7
324(10) 0.00979 347.6 14.3
353(10) 0.00875 347.5 13.9
339(10) 0.00927 347.4 13.5
322(9) 0.01031 347.3 13.1
340(10) 0.00996 347.2 12.6
350(10) 0.00928 347.1 12.2
316(10) 0.00984 347.0 11.8
355(10) 0.00901 346.9 11.4
350(10) 0.00965 346.8 10.9
365(10) 0.00927 346.7 10.6
379(11) 0.00819 346.6 10.2
344(10) 0.00906 346.5 9.8
363(10) 0.00892 346.4 9.5
340(10) 0.00978 346.3 9.1
348(10) 0.00983 346.1 8.8
363(10) 0.00861 346.0 8.6
352(10) 0.00839 345.9 8.3
365(10) 0.00850 345.8 8.0
340(10) 0.00992 345.7 7.8
339(10) 0.00989 345.6 7.6
347(10) 0.00886 345.5 7.4
312(10) 0.00939 345.4 7.2
328(10) 0.00949 345.3 7.0
351(10) 0.00957 345.2 6.9
349(10) 0.00955 345.1 6.7
364(10) 0.00874 345.0 6.6
335(10) 0.00912 344.9 6.5
343(10) 0.00917 344.8 6.3
348(10) 0.00970 344.7 6.2
337(10) 0.00978 344.6 6.1
333(10) 0.00982 344.5 6.1
353(10) 0.00866 344.4 6.0
315(10) 0.01001 344.3 5.9
335(9) 0.01011 344.2 5.8
343(10) 0.00960 344.1 5.8
349(10) 0.00909 344.0 5.7
348(10) 0.00909 343.9 5.7
358(10) 0.00882 343.8 5.6
338(10) 0.00987 343.7 5.6
331(10) 0.00972 343.6 5.6
343(10) 0.00939 343.4 5.5
345(10) 0.00905 343.3 5.5
336(10) 0.00961 343.2 5.5
345(10) 0.00981 343.1 5.5
354(10) 0.00908 343.0 5.4
351(10) 0.00881 342.9 5.4
330(10) 0.00958 342.8 5.4
335(10) 0.00982 342.7 5.4
356(10) 0.00965 342.6 5.4
348(10) 0.00916 342.5 5.4
330(10) 0.00941 342.4 5.4
340(10) 0.00951 342.3 5.5
336(10) 0.00998 342.2 5.5
341(10) 0.00986 342.1 5.5
335(10) 0.00964 342.1 5.5
357(10) 0.00853 342.0 5.6
363(10) 0.00868 341.9 5.6
347(10) 0.00982 341.8 5.7
356(10) 0.00955 341.7 5.7
330(10) 0.00964 341.6 5.8
359(10) 0.00852 341.5 5.8
339(10) 0.00916 341.4 5.9
364(10) 0.00925 341.3 6.0
359(10) 0.00937 341.2 6.0
339(10) 0.00914 341.1 6.1
335(10) 0.00891 341.0 6.2
344(10) 0.00946 340.9 6.3
331(9) 0.01010 340.8 6.5
369(10) 0.00928 340.7 6.6
332(10) 0.00952 340.6 6.7
326(10) 0.00896 340.5 6.9
333(10) 0.00934 340.4 7.0
353(10) 0.00956 340.3 7.2
356(10) 0.00930 340.2 7.4
332(10) 0.00948 340.1 7.6
339(10) 0.00872 340.0 7.8
340(10) 0.00918 339.9 8.1
314(9) 0.01078 339.8 8.3
334(10) 0.00991 339.7 8.6
334(10) 0.00963 339.6 8.9
342(10) 0.00868 339.5 9.2
328(10) 0.00993 339.4 9.6
347(10) 0.00976 339.3 9.9
331(10) 0.00998 339.2 10.3
324(10) 0.01000 339.2 10.7
335(10) 0.00948 339.1 11.1
341(10) 0.00934 339.0 11.6
350(10) 0.00970 338.9 12.1
361(10) 0.00904 338.8 12.6
341(10) 0.00987 338.7 13.2
373(10) 0.00857 338.6 13.7
364(10) 0.00904 338.5 14.3
354(10) 0.00959 338.4 15.0
336(10) 0.00960 338.3 15.6
344(10) 0.00901 338.2 16.3
356(10) 0.00901 338.1 17.0
350(10) 0.00930 338.0 17.7
354(10) 0.00947 337.9 18.5
367(10) 0.00875 337.8 19.2
345(10) 0.00919 337.7 20.0
344(10) 0.00953 337.6 20.7
377(10) 0.00884 337.5 21.5
387(10) 0.00895 337.4 22.2
325(10) 0.00958 337.3 22.9
378(11) 0.00802 337.2 23.6
347(10) 0.00967 337.1 24.2
385(10) 0.00884 337.0 24.8
343(10) 0.00986 336.9 25.3
364(10) 0.00870 336.8 25.7
360(10) 0.00850 336.7 26.0
342(10) 0.00936 336.6 26.3
347(10) 0.00965 336.5 26.4
359(10) 0.00956 336.4 26.5
362(10) 0.00897 336.3 26.4
365(11) 0.00815 336.3 26.2
328(10) 0.00987 336.2 25.9
349(10) 0.00952 336.1 25.6
363(10) 0.00923 336.0 25.1
335(10) 0.00968 335.9 24.6
361(11) 0.00826 335.8 24.0
357(10) 0.00886 335.7 23.4
355(10) 0.00963 335.6 22.7
347(10) 0.00981 335.5 21.9
357(10) 0.00884 335.4 21.2
363(11) 0.00809 335.3 20.4
356(10) 0.00876 335.2 19.7
370(10) 0.00905 335.1 18.9
336(9) 0.01010 335.0 18.2
351(10) 0.00912 334.9 17.5
325(10) 0.00978 334.8 16.8
357(10) 0.00854 334.7 16.1
324(9) 0.01039 334.6 15.4
366(10) 0.00920 334.5 14.8
341(10) 0.00948 334.4 14.1
359(10) 0.00846 334.3 13.5
327(10) 0.00973 334.2 13.0
346(10) 0.00980 334.1 12.5
347(10) 0.00936 334.0 11.9
352(10) 0.00887 333.9 11.5
349(10) 0.00898 333.8 11.0
346(10) 0.00902 333.7 10.6
327(9) 0.01020 333.6 10.2
330(10) 0.00989 333.5 9.8
315(10) 0.01004 333.4 9.5
320(10) 0.01007 333.4 9.1
342(10) 0.00966 333.3 8.8
324(9) 0.01035 333.2 8.6
329(10) 0.00969 333.1 8.3
358(10) 0.00856 333.0 8.1
303(9) 0.01084 332.9 7.8
340(10) 0.00958 332.8 7.6
344(10) 0.00981 332.7 7.4
330(10) 0.00940 332.6 7.3
326(10) 0.00942 332.5 7.1
312(9) 0.01043 332.4 7.0
324(9) 0.01033 332.3 6.8
336(10) 0.01004 332.2 6.7
331(10) 0.00946 332.1 6.6
330(10) 0.00914 332.0 6.5
323(10) 0.00978 331.9 6.4
327(9) 0.01009 331.8 6.4
324(9) 0.01038 331.7 6.3
325(10) 0.00966 331.6 6.2
331(10) 0.00884 331.5 6.2
349(10) 0.00910 331.4 6.2
317(9) 0.01048 331.3 6.1
338(10) 0.00998 331.2 6.1
336(10) 0.00948 331.1 6.1
338(10) 0.00921 331.0 6.1
362(10) 0.00851 330.9 6.1
337(10) 0.00990 330.8 6.1
309(9) 0.01088 330.7 6.1
318(10) 0.00983 330.6 6.1
317(10) 0.00943 330.5 6.1
328(10) 0.00948 330.5 6.1
324(9) 0.01050 330.4 6.1
353(10) 0.00953 330.3 6.2
323(10) 0.00998 330.2 6.2
328(10) 0.00945 330.1 6.2
340(10) 0.00961 330.0 6.3
341(10) 0.00987 329.9 6.3
308(9) 0.01070 329.8 6.3
345(10) 0.00906 329.7 6.4
312(10) 0.00976 329.6 6.4
329(10) 0.00965 329.5 6.5
342(10) 0.00996 329.4 6.5
322(9) 0.01032 329.3 6.6
316(10) 0.01005 329.2 6.6
335(10) 0.00926 329.1 6.7
340(10) 0.00957 329.0 6.7
334(9) 0.01011 328.9 6.8
326(10) 0.00996 328.8 6.8
330(10) 0.00944 328.7 6.8
306(9) 0.01059 328.6 6.9
343(10) 0.00954 328.5 6.9
347(10) 0.00977 328.4 7.0
334(10) 0.00966 328.3 7.0
329(10) 0.00943 328.2 7.0
337(10) 0.00946 328.1 7.0
350(10) 0.00938 328.0 7.0
347(10) 0.00978 327.9 7.0
351(10) 0.00906 327.8 7.0
346(10) 0.00863 327.7 7.0
304(9) 0.01016 327.6 7.0
328(10) 0.00993 327.6 7.0
320(9) 0.01058 327.5 7.0
341(10) 0.00936 327.4 7.0
332(10) 0.00909 327.3 6.9
353(10) 0.00873 327.2 6.9
299(9) 0.01109 327.1 6.8
318(9) 0.01064 327.0 6.8
313(9) 0.01046 326.9 6.7
321(10) 0.00925 326.8 6.6
329(10) 0.00980 326.7 6.6
360(10) 0.00940 326.6 6.5
325(9) 0.01027 326.5 6.4
345(10) 0.00900 326.4 6.3
309(10) 0.00948 326.3 6.2
317(10) 0.01006 326.2 6.1
334(9) 0.01013 326.1 6.0
328(9) 0.01032 326.0 6.0
325(10) 0.00985 325.9 5.9
323(10) 0.00948 325.8 5.8
346(10) 0.00904 325.7 5.7
349(10) 0.00967 325.6 5.6
348(10) 0.00941 325.5 5.5
345(10) 0.00896 325.4 5.4
298(9) 0.01042 325.3 5.3
339(10) 0.00940 325.2 5.2
345(10) 0.00984 325.1 5.1
334(10) 0.00994 325.0 5.0
337(10) 0.00909 324.9 4.9
320(10) 0.00973 324.8 4.8
345(10) 0.00921 324.7 4.7
321(9) 0.01058 324.6 4.6
308(9) 0.01031 324.6 4.5
302(9) 0.01062 324.5 4.4
288(9) 0.01082 324.4 4.3
300(9) 0.01057 324.3 4.2
307(9) 0.01092 324.2 4.2
327(10) 0.00968 324.1 4.1
304(9) 0.01026 324.0 4.0
318(10) 0.00998 323.9 3.9
339(10) 0.00933 323.8 3.8
343(10) 0.01001 323.7 3.8
334(10) 0.00962 323.6 3.7
333(10) 0.00931 323.5 3.6
329(10) 0.00938 323.4 3.6
326(10) 0.01007 323.3 3.5
301(9) 0.01107 323.2 3.4
329(10) 0.00968 323.1 3.4
332(10) 0.00955 323.1 3.3
341(10) 0.00916 323.0 3.3
317(9) 0.01037 322.9 3.2
321(9) 0.01055 322.8 3.2
317(10) 0.00993 322.7 3.1
311(10) 0.00979 322.7 3.1
327(10) 0.00959 322.6 3.0
297(9) 0.01104 322.5 3.0
311(9) 0.01084 322.4 2.9
341(10) 0.00929 322.3 2.9
337(10) 0.00880 322.3 2.8
320(10) 0.00988 322.2 2.8
309(9) 0.01076 322.1 2.8
310(9) 0.01089 322.0 2.7
335(10) 0.00974 322.0 2.7
340(10) 0.00866 321.9 2.7
314(9) 0.01008 321.8 2.6
320(9) 0.01035 321.7 2.6
330(9) 0.01013 321.6 2.6
315(9) 0.01011 321.6 2.5
321(10) 0.00945 321.5 2.5
347(10) 0.00915 321.4 2.5
291(9) 0.01140 321.3 2.5
307(9) 0.01087 321.2 2.5
300(9) 0.01030 321.2 2.4
335(10) 0.00876 321.1 2.4
305(9) 0.01018 321.0 2.4
305(9) 0.01099 320.9 2.4
297(9) 0.01106 320.8 2.4
315(10) 0.00991 320.8 2.3
291(9) 0.01083 320.7 2.3
300(9) 0.01081 320.6 2.3
321(9) 0.01052 320.5 2.3
318(9) 0.01011 320.5 2.3
309(9) 0.01013 320.4 2.3
329(10) 0.00940 320.3 2.3
325(10) 0.00981 320.2 2.3
311(9) 0.01080 320.1 2.2
328(10) 0.00990 320.1 2.2
316(10) 0.01002 320.0 2.2
308(9) 0.01026 319.9 2.2
310(9) 0.01025 319.8 2.2
322(9) 0.01056 319.7 2.2
318(10) 0.00966 319.7 2.2
323(10) 0.00938 319.6 2.2
295(9) 0.01046 319.5 2.2
312(9) 0.01027 319.4 2.2
312(9) 0.01077 319.3 2.2
294(9) 0.01090 319.3 2.2
318(10) 0.00981 319.2 2.2
312(9) 0.01025 319.1 2.2
305(9) 0.01076 319.0 2.2
320(9) 0.01038 319.0 2.2
333(10) 0.00931 318.9 2.2
329(10) 0.00934 318.8 2.2
307(9) 0.01056 318.7 2.2
323(9) 0.01010 318.6 2.2
284(9) 0.01175 318.6 2.3
325(10) 0.00969 318.5 2.3
323(10) 0.00926 318.4 2.3
329(10) 0.00952 318.3 2.3
314(9) 0.01062 318.2 2.3
293(9) 0.01142 318.2 2.3
330(10) 0.00993 318.1 2.4
317(10) 0.00970 318.0 2.4
336(10) 0.00939 317.9 2.4
327(9) 0.01016 317.9 2.4
310(9) 0.01072 317.8 2.5
324(10) 0.00978 317.7 2.5
320(10) 0.00934 317.6 2.5
328(10) 0.00956 317.5 2.6
330(10) 0.00996 317.5 2.6
318(9) 0.01056 317.4 2.7
322(10) 0.00983 317.3 2.7
316(10) 0.00945 317.2 2.8
324(10) 0.00972 317.1 2.8
316(9) 0.01069 317.1 2.9
327(9) 0.01015 317.0 3.0
315(10) 0.00986 316.9 3.0
302(9) 0.01021 316.8 3.1
328(10) 0.00974 316.7 3.2
291(9) 0.01160 316.7 3.3
315(9) 0.01026 316.6 3.5
302(9) 0.01081 316.5 3.6
315(10) 0.00990 316.4 3.8
308(9) 0.01022 316.4 4.0
315(9) 0.01069 316.3 4.2
314(9) 0.01051 316.2 4.5
324(10) 0.00934 316.1 4.8
306(9) 0.01016 316.0 5.1
308(9) 0.01039 316.0 5.6
300(9) 0.01116 315.9 6.1
319(10) 0.01000 315.8 6.7
331(10) 0.00953 315.7 7.4
316(9) 0.01020 315.6 8.2
313(10) 0.01002 315.6 9.2
343(10) 0.00988 315.5 10.3
307(9) 0.01031 315.4 11.6
335(10) 0.00884 315.3 13.0
305(10) 0.01002 315.2 14.6
297(9) 0.01104 315.2 16.2
306(9) 0.01098 315.1 17.8
305(9) 0.01026 315.0 19.3
328(10) 0.00921 314.9 20.6
329(10) 0.00983 314.9 21.4
340(10) 0.00976 314.8 21.7
308(9) 0.01095 314.7 21.4
315(9) 0.01023 314.6 20.6
330(10) 0.00920 314.5 19.3
318(9) 0.01021 314.5 17.8
333(10) 0.01005 314.4 16.2
313(9) 0.01071 314.3 14.7
331(10) 0.00957 314.2 13.2
329(10) 0.00896 314.1 11.8
316(9) 0.01025 314.1 10.6
319(9) 0.01055 314.0 9.5
321(9) 0.01057 313.9 8.6
312(9) 0.01015 313.8 7.8
320(10) 0.00914 313.7 7.1
325(10) 0.00975 313.7 6.6
298(9) 0.01139 313.6 6.1
295(9) 0.01114 313.5 5.7
319(10) 0.00958 313.4 5.4
319(10) 0.00922 313.4 5.2
305(9) 0.01068 313.3 4.9
309(9) 0.01087 313.2 4.8
305(9) 0.01085 313.1 4.6
312(9) 0.01019 313.0 4.5
292(9) 0.01052 313.0 4.4
307(9) 0.01028 312.9 4.4
311(9) 0.01083 312.8 4.3
307(9) 0.01085 312.7 4.3
298(9) 0.01057 312.6 4.2
292(9) 0.01042 312.6 4.2
321(10) 0.00953 312.5 4.2
320(9) 0.01051 312.4 4.2
310(9) 0.01078 312.3 4.3
324(10) 0.00964 312.2 4.3
326(10) 0.00919 312.2 4.4
305(10) 0.00984 312.1 4.4
320(9) 0.01042 312.0 4.5
329(10) 0.00984 311.9 4.6
302(9) 0.01035 311.9 4.7
284(9) 0.01114 311.8 4.8
303(9) 0.01053 311.7 4.9
318(9) 0.01058 311.6 5.1
327(10) 0.00987 311.5 5.3
311(10) 0.00993 311.5 5.5
321(10) 0.00949 311.4 5.7
312(9) 0.01050 311.3 5.9
290(9) 0.01145 311.2 6.2
297(9) 0.01033 311.1 6.5
311(10) 0.00959 311.1 6.7
301(9) 0.01042 311.0 7.0
323(9) 0.01023 310.9 7.3
308(9) 0.01091 310.8 7.6
316(9) 0.01010 310.8 7.9
339(10) 0.00864 310.7 8.0
301(9) 0.01060 310.6 8.2
300(9) 0.01090 310.5 8.2
306(9) 0.01093 310.4 8.1
299(9) 0.01049 310.4 8.0
300(10) 0.00974 310.3 7.8
298(9) 0.01050 310.2 7.6
310(9) 0.01069 310.1 7.3
316(9) 0.01056 310.0 7.0
309(9) 0.01027 310.0 6.7
297(10) 0.00972 309.9 6.4
288(9) 0.01036 309.8 6.1
294(9) 0.01137 309.7 5.9
311(9) 0.01042 309.6 5.6
317(10) 0.01003 309.6 5.4
324(10) 0.00899 309.5 5.2
299(9) 0.01078 309.4 5.1
324(9) 0.01042 309.3 5.0
307(9) 0.01079 309.3 4.8
324(10) 0.00932 309.2 4.7
296(9) 0.01017 309.1 4.7
308(10) 0.00998 309.0 4.6
321(9) 0.01063 308.9 4.6
307(9) 0.01078 308.9 4.5
315(10) 0.00953 308.8 4.5
271(9) 0.01115 308.7 4.5
309(10) 0.00990 308.6 4.5
321(9) 0.01049 308.5 4.5
298(9) 0.01107 308.5 4.5
310(10) 0.00998 308.4 4.5
307(10) 0.00998 308.3 4.6
314(9) 0.01020 308.2 4.6
310(9) 0.01069 308.1 4.6
309(9) 0.01040 308.1 4.7
292(9) 0.01062 308.0 4.7
302(9) 0.01033 307.9 4.8
315(9) 0.01008 307.8 4.9
314(9) 0.01064 307.8 4.9
287(9) 0.01082 307.7 5.0
304(10) 0.00989 307.6 5.1
302(9) 0.01009 307.5 5.2
262(9) 0.01213 307.4 5.3
306(9) 0.01096 307.4 5.4
280(9) 0.01132 307.3 5.5
306(10) 0.00997 307.2 5.6
311(9) 0.01034 307.1 5.7
314(9) 0.01063 307.0 5.8
305(9) 0.01094 307.0 6.0
296(9) 0.01066 306.9 6.1
290(9) 0.01016 306.8 6.2
285(9) 0.01114 306.7 6.4
319(9) 0.01040 306.6 6.5
318(9) 0.01055 306.6 6.7
308(9) 0.01024 306.5 6.8
299(10) 0.00997 306.4 7.0
310(9) 0.01025 306.3 7.2
302(9) 0.01115 306.3 7.3
315(9) 0.01049 306.2 7.5
298(9) 0.01063 306.1 7.7
301(10) 0.00971 306.0 7.9
312(10) 0.00984 305.9 8.1
299(9) 0.01117 305.9 8.2
329(9) 0.01032 305.8 8.4
311(9) 0.01019 305.7 8.6
296(10) 0.00998 305.6 8.8
318(10) 0.00987 305.5 9.0
308(9) 0.01072 305.5 9.2
321(9) 0.01031 305.4 9.4
287(9) 0.01077 305.3 9.6
301(10) 0.00964 305.2 9.7
308(10) 0.00989 305.1 9.9
329(9) 0.01010 305.1 10.1
311(9) 0.01080 305.0 10.2
341(10) 0.00906 304.9 10.4
345(10) 0.00852 304.8 10.5
322(10) 0.00969 304.8 10.7
294(9) 0.01140 304.7 10.8
300(9) 0.01083 304.6 10.9
310(10) 0.01005 304.5 11.0
297(9) 0.01049 304.4 11.1
294(9) 0.01073 304.4 11.2
318(9) 0.01040 304.3 11.3
306(9) 0.01041 304.2 11.4
308(9) 0.01028 304.1 11.4
338(10) 0.00925 304.0 11.5
332(10) 0.00975 304.0 11.5
315(9) 0.01056 303.9 11.6
301(9) 0.01102 303.8 11.6
342(10) 0.00860 303.7 11.6
293(9) 0.01065 303.7 11.6
328(10) 0.00986 303.6 11.6
289(9) 0.01147 303.5 11.7
312(9) 0.01008 303.4 11.7
308(10) 0.01006 303.3 11.7
298(9) 0.01062 303.3 11.7
289(9) 0.01132 303.2 11.7
305(9) 0.01094 303.1 11.8
292(9) 0.01055 303.0 11.8
293(9) 0.01015 302.9 11.8
322(10) 0.00957 302.9 11.9
320(9) 0.01025 302.8 12.0
295(9) 0.01136 302.7 12.1
321(10) 0.00979 302.6 12.2
299(10) 0.01001 302.5 12.3
315(10) 0.01005 302.5 12.4
303(9) 0.01116 302.4 12.5
308(9) 0.01068 302.3 12.7
316(10) 0.00999 302.2 12.9
293(9) 0.01037 302.2 13.1
335(10) 0.00942 302.1 13.3
320(9) 0.01039 302.0 13.5
324(9) 0.01034 301.9 13.8
316(9) 0.01009 301.8 14.1
289(9) 0.01021 301.8 14.3
311(10) 0.00989 301.7 14.6
296(9) 0.01123 301.6 15.0
316(9) 0.01049 301.5 15.3
319(10) 0.00993 301.4 15.6
295(9) 0.01048 301.4 16.0
335(10) 0.00936 301.3 16.3
343(10) 0.00980 301.2 16.7
303(9) 0.01085 301.1 17.1
334(10) 0.00974 301.0 17.4
309(10) 0.00998 301.0 17.8
320(10) 0.00986 300.9 18.1
330(9) 0.01028 300.8 18.4
326(9) 0.01022 300.7 18.7
338(10) 0.00917 300.7 18.9
343(10) 0.00890 300.6 19.1
335(10) 0.00947 300.5 19.3
321(9) 0.01058 300.4 19.4
313(9) 0.01042 300.3 19.4
338(10) 0.00935 300.3 19.4
332(10) 0.00922 300.2 19.4
335(10) 0.00979 300.1 19.2
332(9) 0.01021 300.0 19.1
323(10) 0.01006 299.9 18.9
347(10) 0.00904 299.9 18.6
326(10) 0.00969 299.8 18.3
355(10) 0.00890 299.7 17.9
313(9) 0.01060 299.6 17.5
300(9) 0.01086 299.5 17.1
325(10) 0.00936 299.5 16.7
311(10) 0.00990 299.4 16.2
307(9) 0.01058 299.3 15.8
333(9) 0.01021 299.2 15.3
309(10) 0.00987 299.2 14.8
335(10) 0.00877 299.1 14.3
313(9) 0.01013 299.0 13.9
315(9) 0.01035 298.9 13.4
322(9) 0.01039 298.8 13.0
321(10) 0.00952 298.8 12.5
311(10) 0.00940 298.7 12.1
305(9) 0.01043 298.6 11.7
313(9) 0.01069 298.5 11.3
318(9) 0.01061 298.4 10.9
329(10) 0.00953 298.4 10.6
317(10) 0.00969 298.3 10.2
321(10) 0.00998 298.2 9.9
278(9) 0.01190 298.1 9.6
319(9) 0.01060 298.0 9.3
326(10) 0.00962 298.0 9.0
314(10) 0.00938 297.9 8.8
314(9) 0.01014 297.8 8.5
310(9) 0.01088 297.7 8.3
321(9) 0.01036 297.7 8.1
301(9) 0.01037 297.6 7.9
273(9) 0.01100 297.5 7.8
286(9) 0.01089 297.4 7.6
294(9) 0.01129 297.3 7.4
287(9) 0.01129 297.3 7.3
315(10) 0.00965 297.2 7.2
316(10) 0.00956 297.1 7.0
315(10) 0.00986 297.0 6.9
290(9) 0.01142 296.9 6.8
298(9) 0.01103 296.9 6.7
296(9) 0.01070 296.8 6.6
294(9) 0.01108 296.7 6.6
327(10) 0.00979 296.6 6.5
289(9) 0.01147 296.6 6.4
294(9) 0.01075 296.5 6.3
291(9) 0.01064 296.4 6.2
286(9) 0.01058 296.3 6.1
283(9) 0.01114 296.2 6.1
301(9) 0.01106 296.2 6.0
328(10) 0.00964 296.1 5.9
292(9) 0.01100 296.0 5.8
309(9) 0.01019 295.9 5.7
305(9) 0.01034 295.8 5.6
307(9) 0.01094 295.8 5.6
288(9) 0.01098 295.7 5.5
294(9) 0.01025 295.6 5.4
296(9) 0.01034 295.5 5.3
299(9) 0.01059 295.4 5.2
308(9) 0.01093 295.4 5.1
282(9) 0.01112 295.3 5.0
297(10) 0.01000 295.2 4.9
295(9) 0.01044 295.1 4.8
314(9) 0.01025 295.1 4.7
296(9) 0.01131 295.0 4.6
298(9) 0.01027 294.9 4.5
288(9) 0.01042 294.8 4.4
291(9) 0.01069 294.7 4.3
284(9) 0.01133 294.7 4.2
301(9) 0.01110 294.6 4.1
289(9) 0.01067 294.5 4.0
299(10) 0.00976 294.4 3.9
307(9) 0.01064 294.3 3.8
282(9) 0.01161 294.3 3.7
298(9) 0.01121 294.2 3.7
301(9) 0.01040 294.1 3.6
316(10) 0.00939 294.0 3.5
283(9) 0.01154 293.9 3.4
287(9) 0.01146 293.9 3.4
287(9) 0.01160 293.8 3.3
309(10) 0.01002 293.7 3.2
290(9) 0.01019 293.6 3.2
283(9) 0.01113 293.6 3.1
283(9) 0.01178 293.5 3.1
297(9) 0.01105 293.4 3.0
291(9) 0.01062 293.3 3.0
279(9) 0.01078 293.2 2.9
305(9) 0.01008 293.2 2.9
323(9) 0.01030 293.1 2.8
298(9) 0.01123 293.0 2.8
288(9) 0.01075 292.9 2.7
300(9) 0.01033 292.8 2.7
305(9) 0.01009 292.8 2.7
286(9) 0.01165 292.7 2.6
295(9) 0.01103 292.6 2.6
296(9) 0.01075 292.5 2.6
294(9) 0.01062 292.4 2.5
289(9) 0.01117 292.4 2.5
306(9) 0.01099 292.3 2.5
297(9) 0.01069 292.2 2.5
305(9) 0.01013 292.1 2.4
294(9) 0.01063 292.1 2.4
293(9) 0.01108 292.0 2.4
303(9) 0.01100 291.9 2.4
285(9) 0.01102 291.8 2.4
318(10) 0.00944 291.7 2.4
291(9) 0.01070 291.7 2.3
293(9) 0.01102 291.6 2.3
276(9) 0.01200 291.5 2.3
290(9) 0.01051 291.4 2.3
293(9) 0.01058 291.3 2.3
313(10) 0.00998 291.3 2.3
289(9) 0.01132 291.2 2.3
275(9) 0.01207 291.2 2.3
293(9) 0.01090 291.2 2.2
281(9) 0.01120 291.2 2.2
289(9) 0.01077 291.2 2.2
272(9) 0.01212 291.2 2.2
296(9) 0.01117 291.1 2.2
288(9) 0.01086 291.1 2.2
302(10) 0.00962 291.1 2.2
289(9) 0.01074 291.1 2.1
299(9) 0.01108 291.1 2.1
313(9) 0.01055 291.1 2.1
311(9) 0.01008 291.1 2.1
278(9) 0.01017 291.1 2.1
270(9) 0.01158 291.1 2.1
314(9) 0.01056 291.1 2.0
287(9) 0.01157 291.1 2.0
265(9) 0.01189 291.1 2.0
290(9) 0.01013 291.0 2.0
293(9) 0.01070 291.0 2.0
283(9) 0.01158 291.0 2.0
304(9) 0.01091 291.0 2.0
301(9) 0.01029 291.0 2.0
293(10) 0.00993 291.0 1.9
297(9) 0.01055 291.0 1.9
295(9) 0.01101 291.0 1.9
264(9) 0.01226 291.0 1.9
263(9) 0.01195 291.0 1.9
280(9) 0.01085 291.0 1.9
286(9) 0.01088 291.0 1.9
279(9) 0.01178 290.9 1.9
291(9) 0.01112 290.9 1.9
288(9) 0.01052 290.9 1.9
302(10) 0.00964 290.9 1.9
294(9) 0.01013 290.9 1.9
299(9) 0.01124 290.9 1.9
279(9) 0.01153 290.9 1.9
294(9) 0.01046 290.9 1.9
275(9) 0.01135 290.9 1.9
287(9) 0.01108 290.9 1.9
278(9) 0.01188 290.9 1.9
266(9) 0.01184 290.9 1.9
288(9) 0.01060 290.8 1.9
276(9) 0.01151 290.8 1.9
289(9) 0.01134 290.8 1.9
304(9) 0.01108 290.8 1.9
292(9) 0.01054 290.8 1.9
288(9) 0.01048 290.8 1.9
299(9) 0.01062 290.8 1.9
294(9) 0.01104 290.8 1.9
289(9) 0.01151 290.8 1.9
296(9) 0.01051 290.8 1.9
294(9) 0.01045 290.8 1.9
291(9) 0.01067 290.8 1.9
294(9) 0.01095 290.7 1.9
302(9) 0.01112 290.7 1.9
285(9) 0.01085 290.7 1.9
289(9) 0.01025 290.7 1.9
315(10) 0.01004 290.7 1.9
291(9) 0.01136 290.7 1.9
316(9) 0.01064 290.7 1.9
295(9) 0.01052 290.7 1.9
299(10) 0.00984 290.7 1.9
293(9) 0.01100 290.7 1.9
291(9) 0.01154 290.7 1.9
308(9) 0.01073 290.7 1.9
281(9) 0.01092 290.6 1.9
280(9) 0.01026 290.6 1.9
298(9) 0.01021 290.6 1.9
283(9) 0.01169 290.6 1.9
284(9) 0.01173 290.6 1.9
285(9) 0.01107 290.6 1.9
302(10) 0.00971 290.6 1.9
296(9) 0.01096 290.6 1.9
317(9) 0.01052 290.6 1.9
266(9) 0.01223 290.6 2.0
295(9) 0.01077 290.6 2.0
286(9) 0.01087 290.6 2.0
262(9) 0.01219 290.5 2.0
300(9) 0.01113 290.5 2.0
284(9) 0.01149 290.5 2.0
290(9) 0.01070 290.5 2.0
277(9) 0.01115 290.5 2.0
279(9) 0.01125 290.5 2.0
301(9) 0.01114 290.5 2.0
293(9) 0.01068 290.5 2.0
298(9) 0.01018 290.5 2.0
294(9) 0.01080 290.5 2.1
307(9) 0.01036 290.5 2.1
299(9) 0.01129 290.5 2.1
312(9) 0.01018 290.4 2.1
316(10) 0.00984 290.4 2.1
295(9) 0.01057 290.4 2.1
302(9) 0.01095 290.4 2.1
319(9) 0.01056 290.4 2.1
302(9) 0.01050 290.4 2.1
287(9) 0.01074 290.4 2.2
278(9) 0.01129 290.4 2.2
274(9) 0.01168 290.4 2.2
283(9) 0.01192 290.4 2.2
286(9) 0.01085 290.4 2.2
291(9) 0.01026 290.4 2.2
278(9) 0.01128 290.3 2.2
299(9) 0.01075 290.3 2.3
289(9) 0.01161 290.3 2.3
278(9) 0.01145 290.3 2.3
286(9) 0.01018 290.3 2.3
288(9) 0.01074 290.3 2.3
271(9) 0.01204 290.3 2.4
270(9) 0.01213 290.3 2.4
313(10) 0.00995 290.3 2.4
317(10) 0.00909 290.3 2.4
276(9) 0.01098 290.3 2.4
271(8) 0.01234 290.3 2.5
270(9) 0.01212 290.2 2.5
285(9) 0.01100 290.2 2.5
291(10) 0.01003 290.2 2.6
276(9) 0.01171 290.2 2.6
303(9) 0.01097 290.2 2.6
273(9) 0.01221 290.2 2.7
279(9) 0.01070 290.2 2.7
265(9) 0.01116 290.2 2.7
303(9) 0.01044 290.2 2.8
296(9) 0.01126 290.2 2.8
287(9) 0.01147 290.2 2.9
307(10) 0.01006 290.2 2.9
298(10) 0.00977 290.1 3.0
288(9) 0.01108 290.1 3.0
290(9) 0.01154 290.1 3.1
310(9) 0.01041 290.1 3.1
296(9) 0.01046 290.1 3.2
265(9) 0.01164 290.1 3.2
317(10) 0.00994 290.1 3.3
279(9) 0.01189 290.1 3.4
303(9) 0.01075 290.1 3.4
295(9) 0.01047 290.1 3.5
297(9) 0.01047 290.1 3.6
297(9) 0.01051 290.1 3.7
272(9) 0.01211 290.0 3.8
283(9) 0.01124 290.0 3.8
281(9) 0.01090 290.0 3.9
302(9) 0.01026 290.0 4.0
301(9) 0.01049 290.0 4.1
286(9) 0.01163 290.0 4.2
319(10) 0.00991 290.0 4.3
292(9) 0.01053 290.0 4.4
290(9) 0.01086 290.0 4.5
299(9) 0.01100 290.0 4.6
303(9) 0.01103 290.0 4.7
279(9) 0.01078 290.0 4.8
268(9) 0.01121 289.9 4.9
321(10) 0.00940 289.9 5.0
275(9) 0.01193 289.9 5.1
294(9) 0.01143 289.9 5.2
271(9) 0.01186 289.9 5.2
301(9) 0.01011 289.9 5.3
302(9) 0.01044 289.9 5.3
296(9) 0.01098 289.9 5.4
291(9) 0.01149 289.9 5.4
268(9) 0.01169 289.9 5.4
285(9) 0.01033 289.9 5.4
308(10) 0.00982 289.9 5.4
295(9) 0.01095 289.8 5.4
288(9) 0.01173 289.8 5.3
285(9) 0.01112 289.8 5.3
297(10) 0.00963 289.8 5.3
303(10) 0.00993 289.8 5.2
294(9) 0.01103 289.8 5.2
293(9) 0.01147 289.9 5.1
287(9) 0.01096 289.9 5.1
297(10) 0.00996 289.9 5.0
303(9) 0.01053 290.0 5.0
277(9) 0.01195 290.0 5.0
296(9) 0.01123 290.0 4.9
282(9) 0.01085 290.1 4.9
283(9) 0.01056 290.1 4.8
300(9) 0.01042 290.1 4.8
314(9) 0.01081 290.2 4.8
305(9) 0.01062 290.2 4.8
281(9) 0.01070 290.2 4.7
303(10) 0.00967 290.3 4.7
305(10) 0.01006 290.3 4.7
315(9) 0.01058 290.3 4.7
303(9) 0.01084 290.4 4.7
311(9) 0.01014 290.4 4.7
290(9) 0.01048 290.4 4.7
294(9) 0.01032 290.5 4.7
302(9) 0.01108 290.5 4.7
301(9) 0.01044 290.5 4.7
292(9) 0.01059 290.6 4.8
293(9) 0.01062 290.6 4.8
294(9) 0.01118 290.6 4.8
298(9) 0.01122 290.7 4.8
293(9) 0.01065 290.7 4.9
277(9) 0.01106 290.7 4.9
274(9) 0.01129 290.8 4.9
297(9) 0.01085 290.8 5.0
302(9) 0.01108 290.8 5.0
298(9) 0.01030 290.9 5.1
291(9) 0.01047 290.9 5.1
295(9) 0.01062 290.9 5.2
324(10) 0.00994 291.0 5.2
276(9) 0.01210 291.0 5.3
288(9) 0.01097 291.0 5.4
294(10) 0.01007 291.1 5.4
301(9) 0.01043 291.1 5.5
277(9) 0.01204 291.1 5.6
292(9) 0.01147 291.2 5.6
301(9) 0.01017 291.2 5.7
295(9) 0.01027 291.2 5.8
281(9) 0.01123 291.3 5.9
294(9) 0.01098 291.3 6.0
303(9) 0.01092 291.3 6.1
283(9) 0.01108 291.4 6.2
324(10) 0.00918 291.4 6.3
323(10) 0.00997 291.4 6.4
291(9) 0.01159 291.5 6.5
311(9) 0.01064 291.5 6.6
301(9) 0.01079 291.5 6.7
283(9) 0.01037 291.6 6.8
289(9) 0.01072 291.6 6.9
310(9) 0.01079 291.6 7.0
308(9) 0.01084 291.7 7.2
307(9) 0.01026 291.7 7.3
282(9) 0.01080 291.7 7.5
298(9) 0.01075 291.8 7.6
289(9) 0.01150 291.8 7.7
292(9) 0.01116 291.8 7.9
293(9) 0.01056 291.9 8.1
267(9) 0.01137 291.9 8.2
304(10) 0.01006 291.9 8.4
296(9) 0.01124 292.0 8.6
294(9) 0.01097 292.0 8.8
287(9) 0.01094 292.0 9.0
301(9) 0.01025 292.1 9.2
313(9) 0.01045 292.1 9.4
331(9) 0.01024 292.1 9.6
303(9) 0.01087 292.2 9.8
292(9) 0.01050 292.2 10.1
264(9) 0.01140 292.2 10.3
283(9) 0.01137 292.3 10.6
319(9) 0.01052 292.3 10.8
301(9) 0.01105 292.3 11.1
305(9) 0.01038 292.4 11.4
304(9) 0.01021 292.4 11.6
311(9) 0.01022 292.4 12.0
298(9) 0.01123 292.5 12.3
284(9) 0.01104 292.5 12.6
297(9) 0.01025 292.5 12.9
311(9) 0.01038 292.6 13.3
314(9) 0.01061 292.6 13.7
310(9) 0.01072 292.6 14.1
274(9) 0.01161 292.7 14.5
311(10) 0.00945 292.7 14.9
299(9) 0.01068 292.7 15.3
321(10) 0.01005 292.8 15.8
328(9) 0.01039 292.8 16.3
302(9) 0.01043 292.8 16.8
308(10) 0.00957 292.9 17.3
316(10) 0.00999 292.9 17.9
309(9) 0.01084 292.9 18.5
306(9) 0.01087 293.0 19.1
304(9) 0.01010 293.0 19.8
308(10) 0.00948 293.0 20.5
306(9) 0.01046 293.1 21.2
310(9) 0.01073 293.1 22.0
327(9) 0.01031 293.1 22.8
337(10) 0.00939 293.2 23.7
317(10) 0.00924 293.2 24.6
304(9) 0.01048 293.2 25.6
332(9) 0.01009 293.3 26.6
314(9) 0.01079 293.3 27.7
317(10) 0.01005 293.3 28.9
323(10) 0.00923 293.4 30.2
328(10) 0.00962 293.4 31.5
333(9) 0.01024 293.4 33.0
305(9) 0.01073 293.5 34.6
334(10) 0.00929 293.5 36.3
319(10) 0.00979 293.5 38.1
316(9) 0.01008 293.6 40.1
340(10) 0.01003 293.6 42.3
330(10) 0.01001 293.6 44.7
340(10) 0.00908 293.7 47.4
346(10) 0.00895 293.7 50.3
354(10) 0.00871 293.7 53.5
342(10) 0.00979 293.8 57.2
344(10) 0.00955 293.8 61.2
331(10) 0.00983 293.8 65.9
375(11) 0.00827 293.9 71.1
383(10) 0.00850 293.9 77.1
387(10) 0.00880 293.9 84.0
397(10) 0.00857 294.0 92.0
402(11) 0.00788 294.0 101.2
394(11) 0.00821 294.0 111.8
411(11) 0.00810 294.1 124.1
436(11) 0.00796 294.1 138.1
473(12) 0.00687 294.1 154.3
461(12) 0.00680 294.2 172.7
485(12) 0.00656 294.2 193.6
467(11) 0.00725 294.2 217.1
520(12) 0.00664 294.3 243.1
575(13) 0.00560 294.3 271.7
613(13) 0.00529 294.3 302.3
653(14) 0.00511 294.4 334.3
705(14) 0.00489 294.4 366.9
703(14) 0.00508 294.4 398.3
760(15) 0.00433 294.5 426.9
731(15) 0.00438 294.5 450.8
736(15) 0.00448 294.5 468.6
731(14) 0.00483 294.6 479.6
728(14) 0.00489 294.6 484.1
736(14) 0.00460 294.6 483.0
733(15) 0.00433 294.7 477.4
745(15) 0.00441 294.7 468.6
743(14) 0.00475 294.7 456.9
743(14) 0.00473 294.8 442.6
762(15) 0.00439 294.8 425.4
727(15) 0.00448 294.8 405.3
714(14) 0.00469 294.9 382.3
687(14) 0.00514 294.9 356.9
664(14) 0.00522 294.9 330.0
646(14) 0.00513 295.0 302.4
607(14) 0.00514 295.0 275.2
571(13) 0.00586 295.0 249.1
512(12) 0.00682 295.1 224.6
519(12) 0.00651 295.1 201.9
511(12) 0.00644 295.1 181.3
473(12) 0.00654 295.2 162.8
440(11) 0.00753 295.2 146.3
441(11) 0.00788 295.2 131.7
404(11) 0.00834 295.3 118.7
380(10) 0.00856 295.3 107.3
391(11) 0.00806 295.3 97.4
395(11) 0.00807 295.4 88.6
382(10) 0.00890 295.4 80.9
366(10) 0.00907 295.4 74.2
369(10) 0.00866 295.5 68.3
381(11) 0.00808 295.5 63.2
334(10) 0.00950 295.5 58.6
342(10) 0.00994 295.6 54.6
371(10) 0.00887 295.6 51.0
345(10) 0.00902 295.6 47.8
336(10) 0.00956 295.7 44.9
373(10) 0.00856 295.7 42.3
349(10) 0.00975 295.7 40.0
340(10) 0.00935 295.8 37.9
337(10) 0.00947 295.8 35.9
335(10) 0.00952 295.8 34.2
339(10) 0.00966 295.9 32.5
318(9) 0.01052 295.9 31.0
344(10) 0.00937 295.9 29.6
322(10) 0.00964 295.9 28.3
316(10) 0.00977 296.0 27.1
322(9) 0.01025 296.0 26.0
304(9) 0.01112 296.0 25.0
305(9) 0.01045 296.1 24.0
307(10) 0.00984 296.1 23.1
299(9) 0.01026 296.1 22.3
310(9) 0.01045 296.2 21.5
305(9) 0.01117 296.2 20.8
323(10) 0.00969 296.2 20.1
333(10) 0.00898 296.3 19.4
324(10) 0.00998 296.3 18.8
331(10) 0.00995 296.3 18.3
319(9) 0.01065 296.4 17.7
311(9) 0.01011 296.4 17.2
303(10) 0.00960 296.4 16.8
298(9) 0.01068 296.5 16.3
313(9) 0.01068 296.5 15.9
310(9) 0.01071 296.5 15.5
307(9) 0.01032 296.6 15.2
311(10) 0.00944 296.6 14.8
334(10) 0.00897 296.6 14.5
293(9) 0.01133 296.7 14.2
274(9) 0.01185 296.7 13.9
329(10) 0.00951 296.7 13.7
319(10) 0.00986 296.8 13.4
328(10) 0.00971 296.8 13.2
292(9) 0.01144 296.8 13.0
291(9) 0.01125 296.9 12.9
289(9) 0.01077 296.9 12.7
292(9) 0.01011 296.9 12.6
293(9) 0.01099 297.0 12.5
332(9) 0.01009 297.0 12.4
308(9) 0.01064 297.0 12.3
308(10) 0.01006 297.1 12.3
302(9) 0.01032 297.1 12.3
310(10) 0.00994 297.1 12.3
325(9) 0.01036 297.2 12.3
313(9) 0.01048 297.2 12.4
310(9) 0.01025 297.2 12.5
323(10) 0.00934 297.3 12.7
287(9) 0.01129 297.3 12.9
307(9) 0.01095 297.3 13.2
308(10) 0.00997 297.4 13.5
320(10) 0.00927 297.4 14.0
307(9) 0.01031 297.4 14.5
325(10) 0.01004 297.5 15.1
334(9) 0.01012 297.5 15.9
337(10) 0.00941 297.5 16.9
324(10) 0.00970 297.6 18.1
338(10) 0.00931 297.6 19.7
321(9) 0.01019 297.6 21.7
331(9) 0.01022 297.7 24.4
327(10) 0.00963 297.7 27.9
357(10) 0.00855 297.7 32.6
338(10) 0.00933 297.8 38.7
344(10) 0.00990 297.8 46.5
360(10) 0.00947 297.8 56.2
381(11) 0.00834 297.9 68.0
380(11) 0.00803 297.9 81.3
412(11) 0.00786 297.9 95.0
416(11) 0.00823 298.0 106.8
430(11) 0.00796 298.0 113.3
376(10) 0.00848 298.0 112.3
387(11) 0.00786 298.1 104.1
399(11) 0.00830 298.1 91.5
385(10) 0.00885 298.1 77.5
352(10) 0.00960 298.2 64.4
362(10) 0.00878 298.2 53.0
345(10) 0.00870 298.2 43.5
348(10) 0.00937 298.3 36.0
344(10) 0.00983 298.3 30.2
357(10) 0.00928 298.3 25.7
322(10) 0.00968 298.4 22.2
325(10) 0.00896 298.4 19.6
299(9) 0.01068 298.4 17.5
306(9) 0.01086 298.5 15.9
304(9) 0.01091 298.5 14.6
313(10) 0.00997 298.5 13.5
309(10) 0.00974 298.6 12.6
305(9) 0.01056 298.6 11.8
291(9) 0.01133 298.6 11.1
300(9) 0.01084 298.7 10.6
300(9) 0.01057 298.7 10.1
279(9) 0.01103 298.7 9.6
310(9) 0.01014 298.8 9.3
298(9) 0.01124 298.8 8.9
313(9) 0.01055 298.8 8.6
309(10) 0.00996 298.9 8.3
300(9) 0.01038 298.9 8.1
308(9) 0.01037 298.9 7.9
298(9) 0.01117 299.0 7.7
292(9) 0.01078 299.0 7.5
277(9) 0.01125 299.0 7.3
295(9) 0.01030 299.1 7.2
310(9) 0.01017 299.1 7.0
313(9) 0.01070 299.1 6.9
305(9) 0.01028 299.2 6.8
287(9) 0.01055 299.2 6.7
303(10) 0.01005 299.2 6.6
296(9) 0.01106 299.3 6.5
305(9) 0.01089 299.3 6.4
282(9) 0.01156 299.3 6.3
300(9) 0.01052 299.4 6.3
307(9) 0.01036 299.4 6.2
285(9) 0.01134 299.4 6.1
296(9) 0.01132 299.5 6.1
287(9) 0.01083 299.5 6.0
284(9) 0.01083 299.5 6.0
293(9) 0.01104 299.6 6.0
322(9) 0.01044 299.6 5.9
306(9) 0.01101 299.6 5.9
316(10) 0.00995 299.7 5.8
292(9) 0.01020 299.7 5.8
314(10) 0.00994 299.7 5.8
297(9) 0.01120 299.8 5.8
301(9) 0.01098 299.8 5.8
314(10) 0.00973 299.8 5.7
300(9) 0.01016 299.9 5.7
329(10) 0.00987 299.9 5.7
294(9) 0.01125 299.9 5.7
307(9) 0.01083 300.0 5.7
306(9) 0.01061 300.0 5.7
313(10) 0.00983 300.0 5.7
306(9) 0.01029 300.1 5.7
280(9) 0.01195 300.1 5.7
291(9) 0.01141 300.1 5.7
310(9) 0.01034 300.2 5.7
298(9) 0.01024 300.2 5.7
306(9) 0.01016 300.2 5.7
318(9) 0.01051 300.3 5.7
285(9) 0.01120 300.3 5.8
309(9) 0.01008 300.3 5.8
298(9) 0.01020 300.4 5.8
335(10) 0.00951 300.4 5.8
307(9) 0.01091 300.4 5.8
285(9) 0.01122 300.5 5.9
305(9) 0.01008 300.5 5.9
318(10) 0.00968 300.5 5.9
292(9) 0.01066 300.6 6.0
297(9) 0.01124 300.6 6.0
291(9) 0.01093 300.6 6.0
303(9) 0.01021 300.7 6.1
311(10) 0.01002 300.7 6.1
324(9) 0.01023 300.7 6.1
318(9) 0.01064 300.8 6.2
288(9) 0.01086 300.8 6.2
309(10) 0.00976 300.8 6.3
296(9) 0.01089 300.9 6.3
323(10) 0.00995 300.9 6.4
281(9) 0.01184 300.9 6.4
297(9) 0.01012 301.0 6.5
283(9) 0.01087 300.9 6.5
304(9) 0.01068 300.9 6.6
295(9) 0.01092 300.9 6.7
300(9) 0.01118 300.9 6.7
320(10) 0.00947 300.9 6.8
324(10) 0.00929 300.9 6.9
308(9) 0.01050 300.9 6.9
287(9) 0.01161 300.9 7.0
303(9) 0.01091 300.9 7.1
302(9) 0.01028 300.9 7.2
295(9) 0.01020 300.8 7.2
290(9) 0.01099 300.8 7.3
323(9) 0.01044 300.8 7.4
312(9) 0.01074 300.8 7.5
295(9) 0.01083 300.8 7.6
333(10) 0.00860 300.8 7.7
317(10) 0.00953 300.8 7.8
298(9) 0.01113 300.8 7.9
304(9) 0.01097 300.8 8.0
296(9) 0.01043 300.8 8.1
288(10) 0.00988 300.7 8.2
279(9) 0.01129 300.7 8.3
321(9) 0.01047 300.7 8.4
295(9) 0.01074 300.7 8.5
299(9) 0.01061 300.7 8.6
311(10) 0.00953 300.7 8.7
310(9) 0.01033 300.7 8.8
306(9) 0.01088 300.7 9.0
297(9) 0.01131 300.7 9.1
341(10) 0.00927 300.7 9.2
339(10) 0.00894 300.6 9.3
309(9) 0.01026 300.6 9.4
326(9) 0.01023 300.6 9.6
322(9) 0.01048 300.6 9.7
324(10) 0.00961 300.6 9.8
320(10) 0.00958 300.6 9.9
298(9) 0.01038 300.6 10.1
316(9) 0.01065 300.6 10.2
311(9) 0.01044 300.6 10.3
291(9) 0.01077 300.6 10.5
315(10) 0.00974 300.5 10.6
323(10) 0.00991 300.5 10.7
309(9) 0.01081 300.5 10.9
295(9) 0.01069 300.5 11.0
313(10) 0.00979 300.5 11.1
328(10) 0.00961 300.5 11.3
310(9) 0.01079 300.5 11.4
313(9) 0.01071 300.5 11.6
311(10) 0.00996 300.5 11.7
314(10) 0.00993 300.5 11.8
300(9) 0.01055 300.4 12.0
299(9) 0.01093 300.4 12.1
301(9) 0.01121 300.4 12.3
290(9) 0.01090 300.4 12.4
308(10) 0.00984 300.4 12.6
313(10) 0.00992 300.4 12.7
312(9) 0.01064 300.4 12.9
306(9) 0.01101 300.4 13.1
317(10) 0.00999 300.4 13.2
316(10) 0.00979 300.4 13.4
306(9) 0.01042 300.3 13.6
304(9) 0.01075 300.3 13.8
323(9) 0.01031 300.3 14.0
306(10) 0.01004 300.3 14.2
305(10) 0.00976 300.3 14.4
299(9) 0.01040 300.3 14.7
288(9) 0.01146 300.3 14.9
319(9) 0.01040 300.3 15.2
303(9) 0.01044 300.3 15.4
319(10) 0.00913 300.3 15.7
324(10) 0.00971 300.2 16.1
322(9) 0.01045 300.2 16.4
310(9) 0.01090 300.2 16.8
319(10) 0.00991 300.2 17.2
352(10) 0.00844 300.2 17.6
325(9) 0.01009 300.2 18.0
296(9) 0.01130 300.2 18.5
330(9) 0.01009 300.2 19.0
320(9) 0.01008 300.2 19.6
310(10) 0.00995 300.2 20.2
315(10) 0.01007 300.1 20.9
349(10) 0.00964 300.1 21.6
297(9) 0.01109 300.1 22.4
327(10) 0.00976 300.1 23.3
326(10) 0.00950 300.1 24.2
345(10) 0.00926 300.1 25.3
318(9) 0.01062 300.1 26.4
315(9) 0.01015 300.1 27.7
344(10) 0.00910 300.1 29.1
315(9) 0.01020 300.1 30.6
335(10) 0.00940 300.0 32.3
334(9) 0.01008 300.0 34.2
358(10) 0.00920 300.0 36.4
354(10) 0.00878 300.0 38.8
331(10) 0.00959 300.0 41.5
331(10) 0.00999 300.0 44.7
374(10) 0.00916 300.0 48.4
347(10) 0.00923 300.0 52.8
368(11) 0.00821 300.0 58.0
383(11) 0.00828 300.0 64.4
384(10) 0.00900 299.9 72.6
387(10) 0.00885 299.9 83.4
416(11) 0.00796 299.9 97.9
420(11) 0.00741 299.9 117.7
454(11) 0.00727 299.9 144.6
494(12) 0.00688 299.9 180.4
516(12) 0.00682 299.9 226.4
611(13) 0.00549 299.9 282.0
662(14) 0.00475 299.9 343.0
703(14) 0.00480 299.9 397.7
746(14) 0.00471 299.8 427.9
769(14) 0.00460 299.8 419.8
743(15) 0.00447 299.8 378.3
651(14) 0.00473 299.8 321.3
606(13) 0.00545 299.8 264.6
546(12) 0.00637 299.8 215.8
477(11) 0.00719 299.8 177.1
510(12) 0.00635 299.8 148.0
480(12) 0.00646 299.8 126.8
477(12) 0.00674 299.8 111.7
434(11) 0.00796 299.7 101.1
436(11) 0.00773 299.7 93.4
424(11) 0.00750 299.7 87.8
391(11) 0.00798 299.7 83.5
375(10) 0.00851 299.7 80.2
381(10) 0.00911 299.7 77.5
425(11) 0.00793 299.7 75.4
389(10) 0.00845 299.7 73.7
382(10) 0.00843 299.7 72.4
390(11) 0.00817 299.7 71.3
372(10) 0.00915 299.6 70.5
408(11) 0.00801 299.6 69.9
371(10) 0.00861 299.6 69.6
377(11) 0.00826 299.6 69.4
359(10) 0.00878 299.6 69.3
354(10) 0.00962 299.6 69.4
357(10) 0.00902 299.6 69.6
391(11) 0.00804 299.6 69.9
367(10) 0.00852 299.6 70.3
370(10) 0.00867 299.6 70.7
402(10) 0.00849 299.5 71.1
357(10) 0.00905 299.5 71.5
356(10) 0.00890 299.5 71.9
374(11) 0.00836 299.5 72.2
376(10) 0.00846 299.5 72.4
367(10) 0.00928 299.5 72.5
367(10) 0.00849 299.5 72.5
381(11) 0.00785 299.5 72.3
360(10) 0.00872 299.5 72.0
381(10) 0.00858 299.5 71.4
379(10) 0.00902 299.4 70.7
362(10) 0.00877 299.4 69.8
352(10) 0.00893 299.4 68.8
375(11) 0.00807 299.4 67.6
337(10) 0.00995 299.4 66.3
355(10) 0.00955 299.4 64.8
373(10) 0.00866 299.4 63.3
389(11) 0.00766 299.4 61.8
356(10) 0.00920 299.4 60.2
374(10) 0.00892 299.4 58.6
365(10) 0.00931 299.3 57.0
371(10) 0.00855 299.3 55.5
351(10) 0.00842 299.3 53.9
351(10) 0.00880 299.3 52.3
367(10) 0.00932 299.3 50.7
326(9) 0.01018 299.3 49.0
346(10) 0.00918 299.3 47.3
341(10) 0.00919 299.3 45.6
347(10) 0.00938 299.3 44.0
339(10) 0.00974 299.3 42.4
322(9) 0.01038 299.2 40.9
356(10) 0.00895 299.2 39.5
356(10) 0.00843 299.2 38.2
357(10) 0.00928 299.2 37.0
329(9) 0.01037 299.2 35.9
325(10) 0.01005 299.2 34.8
349(10) 0.00913 299.2 33.9
333(10) 0.00894 299.2 33.0
321(10) 0.00987 299.2 32.3
322(9) 0.01039 299.2 31.6
308(9) 0.01091 299.1 30.9
325(10) 0.00939 299.1 30.3
320(10) 0.00956 299.1 29.8
371(11) 0.00822 299.1 29.4
336(9) 0.01008 299.1 29.0
342(10) 0.00944 299.1 28.6
346(10) 0.00940 299.1 28.3
312(9) 0.01014 299.1 28.1
320(10) 0.00983 299.1 27.9
315(9) 0.01067 299.1 27.7
318(9) 0.01008 299.0 27.6
325(10) 0.00942 299.0 27.6
334(10) 0.00899 299.0 27.6
317(9) 0.01030 299.0 27.6
336(9) 0.01008 299.0 27.7
325(10) 0.00973 299.0 27.8
327(10) 0.00949 299.0 28.0
349(10) 0.00909 299.0 28.2
322(9) 0.01037 299.0 28.4
329(9) 0.01023 299.0 28.7
344(10) 0.00898 298.9 29.1
336(10) 0.00905 298.9 29.4
326(10) 0.00996 298.9 29.9
327(10) 0.01004 298.9 30.3
315(9) 0.01068 298.9 30.9
308(10) 0.00992 298.9 31.4
334(10) 0.00904 298.9 32.1
329(10) 0.00986 298.9 32.8
331(10) 0.00993 298.9 33.6
334(9) 0.01031 298.9 34.4
348(10) 0.00921 298.8 35.3
370(11) 0.00797 298.8 36.3
339(10) 0.00941 298.8 37.4
342(10) 0.00995 298.8 38.6
331(9) 0.01024 298.8 39.9
341(10) 0.00945 298.8 41.4
362(11) 0.00804 298.8 42.9
332(10) 0.00949 298.8 44.6
345(10) 0.00984 298.8 46.5
337(10) 0.01000 298.8 48.5
351(10) 0.00918 298.7 50.8
358(10) 0.00859 298.7 53.2
371(10) 0.00855 298.7 55.8
385(10) 0.00894 298.7 58.6
351(10) 0.00921 298.7 61.7
362(10) 0.00865 298.7 65.0
355(10) 0.00890 298.7 68.6
408(11) 0.00773 298.7 72.4
395(10) 0.00872 298.7 76.5
383(10) 0.00870 298.7 80.9
394(11) 0.00803 298.6 85.6
391(11) 0.00799 298.6 90.4
426(11) 0.00760 298.6 95.5
413(11) 0.00828 298.6 100.9
407(11) 0.00820 298.6 106.3
416(11) 0.00758 298.6 111.8
394(11) 0.00794 298.6 117.4
418(11) 0.00769 298.6 122.8
426(11) 0.00810 298.6 128.0
413(11) 0.00786 298.6 132.9
461(12) 0.00695 298.5 137.3
442(12) 0.00701 298.5 141.0
417(11) 0.00786 298.5 144.1
448(11) 0.00772 298.5 146.4
471(12) 0.00698 298.5 147.9
456(11) 0.00722 298.5 148.7
471(12) 0.00703 298.5 148.7
441(11) 0.00770 298.5 148.3
462(11) 0.00749 298.5 147.5
473(12) 0.00672 298.5 146.5
452(12) 0.00689 298.4 145.6
461(12) 0.00691 298.4 144.9
437(11) 0.00774 298.4 144.6
473(11) 0.00742 298.4 145.1
442(11) 0.00720 298.4 146.4
433(11) 0.00717 298.4 148.7
424(11) 0.00757 298.4 152.3
466(11) 0.00718 298.4 157.3
442(11) 0.00786 298.4 163.8
467(12) 0.00681 298.4 171.9
499(12) 0.00629 298.3 181.7
495(12) 0.00672 298.3 193.0
514(12) 0.00672 298.3 205.6
516(12) 0.00674 298.3 218.9
519(12) 0.00638 298.3 231.9
532(13) 0.00591 298.3 243.5
544(13) 0.00604 298.3 252.3
554(12) 0.00629 298.3 257.1
539(12) 0.00649 298.3 257.4
539(12) 0.00633 298.3 253.7
544(13) 0.00577 298.2 247.2
525(12) 0.00627 298.2 239.1
474(11) 0.00737 298.2 230.7
496(12) 0.00691 298.2 223.1
490(12) 0.00664 298.2 216.8
492(12) 0.00627 298.2 212.1
518(12) 0.00629 298.2 209.1
512(12) 0.00679 298.2 207.8
497(12) 0.00692 298.2 208.2
518(12) 0.00635 298.2 210.1
540(13) 0.00573 298.1 213.4
520(12) 0.00615 298.1 217.9
538(12) 0.00653 298.1 223.4
538(12) 0.00634 298.1 229.8
527(12) 0.00622 298.1 236.8
567(13) 0.00551 298.1 244.2
554(13) 0.00598 298.1 251.9
562(12) 0.00626 298.1 259.7
577(13) 0.00581 298.1 267.2
602(13) 0.00536 298.1 274.3
601(13) 0.00539 298.0 280.7
596(13) 0.00566 298.0 286.3
629(13) 0.00565 298.0 290.7
609(13) 0.00540 298.0 293.9
569(13) 0.00591 298.0 295.7
605(13) 0.00548 298.0 295.9
585(13) 0.00584 298.0 294.6
605(13) 0.00580 298.0 291.7
569(13) 0.00566 298.0 287.4
553(13) 0.00579 298.0 281.7
557(13) 0.00604 297.9 274.7
547(12) 0.00622 297.9 266.6
548(12) 0.00642 297.9 257.6
531(12) 0.00612 297.9 247.8
514(12) 0.00615 297.9 237.5
514(12) 0.00650 297.9 226.9
492(12) 0.00702 297.9 216.1
468(11) 0.00739 297.9 205.3
523(12) 0.00628 297.9 194.6
466(12) 0.00682 297.9 184.2
433(11) 0.00748 297.8 174.2
441(11) 0.00780 297.8 164.4
433(11) 0.00793 297.8 155.2
446(11) 0.00738 297.8 146.3
441(12) 0.00673 297.8 137.9
458(12) 0.00690 297.8 130.0
405(10) 0.00843 297.8 122.5
406(10) 0.00839 297.8 115.5
424(11) 0.00758 297.8 108.9
380(11) 0.00804 297.8 102.7
403(11) 0.00787 297.7 96.9
391(10) 0.00881 297.7 91.5
421(11) 0.00812 297.7 86.5
418(11) 0.00740 297.7 81.9
390(11) 0.00756 297.7 77.5
351(10) 0.00898 297.7 73.5
386(10) 0.00886 297.7 69.8
372(10) 0.00895 297.7 66.4
395(11) 0.00807 297.7 63.2
356(10) 0.00886 297.7 60.2
361(10) 0.00881 297.6 57.5
359(10) 0.00937 297.6 54.9
358(10) 0.00943 297.6 52.6
352(10) 0.00895 297.6 50.4
345(10) 0.00914 297.6 48.4
356(10) 0.00908 297.6 46.6
342(10) 0.00991 297.6 44.8
320(9) 0.01010 297.6 43.2
322(10) 0.00988 297.6 41.7
342(10) 0.00900 297.6 40.3
362(10) 0.00868 297.5 39.0
347(10) 0.00980 297.5 37.8
336(10) 0.00945 297.5 36.6
318(10) 0.00978 297.5 35.6
329(10) 0.00930 297.5 34.6
318(10) 0.01005 297.5 33.6
368(10) 0.00934 297.5 32.7
336(10) 0.00948 297.5 31.9
324(10) 0.00978 297.5 31.1
339(10) 0.00907 297.5 30.3
328(10) 0.00967 297.4 29.6
357(10) 0.00954 297.4 28.9
328(10) 0.00972 297.4 28.2
332(10) 0.00908 297.4 27.5
354(10) 0.00907 297.4 26.9
333(10) 0.01006 297.4 26.3
332(10) 0.01006 297.4 25.8
315(10) 0.00991 297.4 25.2
316(10) 0.00955 297.4 24.7
328(10) 0.00951 297.4 24.2
314(9) 0.01054 297.3 23.7
320(9) 0.01043 297.3 23.2
309(9) 0.01035 297.3 22.7
327(10) 0.00897 297.3 22.3
337(10) 0.00942 297.3 21.9
333(10) 0.01004 297.3 21.5
324(9) 0.01033 297.3 21.1
342(10) 0.00932 297.3 20.7
340(10) 0.00897 297.3 20.3
326(10) 0.00979 297.3 20.0
298(9) 0.01112 297.2 19.6
316(9) 0.01071 297.2 19.3
316(10) 0.00985 297.2 19.0
343(10) 0.00871 297.2 18.7
312(9) 0.01051 297.2 18.5
325(9) 0.01034 297.2 18.2
353(10) 0.00939 297.2 18.0
338(10) 0.00923 297.2 17.7
315(10) 0.00966 297.2 17.5
333(10) 0.00971 297.2 17.4
297(9) 0.01130 297.1 17.2
329(9) 0.01009 297.1 17.1
302(9) 0.01034 297.1 16.9
322(10) 0.00916 297.1 16.8
305(9) 0.01018 297.1 16.8
299(9) 0.01116 297.1 16.7
298(9) 0.01112 297.1 16.7
327(10) 0.00972 297.1 16.7
334(10) 0.00950 297.1 16.8
311(9) 0.01057 297.1 16.9
325(9) 0.01042 297.0 17.0
287(9) 0.01117 297.0 17.2
313(10) 0.00984 297.0 17.4
317(10) 0.00970 297.0 17.7
315(10) 0.00995 297.0 18.0
341(10) 0.00999 297.0 18.4
306(9) 0.01052 297.0 18.9
315(10) 0.00980 297.0 19.4
318(9) 0.01013 297.0 20.0
313(9) 0.01057 297.0 20.6
313(9) 0.01061 296.9 21.4
337(10) 0.00928 296.9 22.2
322(10) 0.00952 296.9 23.1
293(9) 0.01074 296.9 24.1
324(10) 0.01003 296.9 25.1
350(10) 0.00958 296.9 26.2
330(10) 0.00968 296.9 27.4
346(10) 0.00869 296.9 28.6
340(10) 0.00918 296.9 29.8
319(9) 0.01039 296.9 31.0
333(9) 0.01013 296.8 32.2
334(10) 0.00925 296.8 33.3
328(10) 0.00928 296.8 34.3
354(10) 0.00896 296.8 35.0
374(10) 0.00910 296.8 35.6
348(10) 0.00949 296.8 35.9
347(10) 0.00919 296.8 35.9
347(10) 0.00850 296.8 35.7
331(10) 0.00972 296.8 35.1
331(10) 0.01005 296.8 34.3
319(9) 0.01055 296.7 33.3
357(10) 0.00881 296.7 32.1
338(10) 0.00882 296.7 30.8
317(9) 0.01012 296.7 29.4
346(10) 0.00992 296.7 28.0
295(9) 0.01117 296.7 26.6
292(9) 0.01116 296.7 25.2
311(10) 0.00951 296.7 23.9
340(10) 0.00915 296.7 22.6
340(10) 0.00987 296.7 21.3
309(9) 0.01076 296.6 20.2
288(9) 0.01109 296.6 19.1
334(10) 0.00903 296.6 18.1
341(10) 0.00911 296.6 17.1
322(9) 0.01039 296.6 16.3
342(10) 0.00988 296.6 15.5
332(10) 0.00945 296.6 14.7
299(9) 0.01037 296.6 14.1
309(9) 0.01024 296.6 13.5
297(9) 0.01132 296.6 12.9
305(9) 0.01075 296.5 12.4
321(10) 0.00991 296.5 12.0
318(10) 0.00986 296.5 11.6
324(10) 0.00995 296.5 11.2
320(9) 0.01045 296.5 10.9
317(10) 0.00983 296.5 10.6
301(9) 0.01059 296.5 10.3
335(10) 0.00925 296.5 10.0
305(9) 0.01076 296.5 9.8
302(9) 0.01103 296.5 9.6
304(9) 0.01038 296.4 9.4
285(9) 0.01078 296.4 9.3
297(9) 0.01061 296.4 9.1
303(9) 0.01067 296.4 9.0
302(9) 0.01109 296.4 8.9
311(9) 0.01035 296.4 8.8
293(9) 0.01076 296.4 8.7
306(9) 0.01026 296.4 8.6
287(9) 0.01159 296.4 8.5
299(9) 0.01120 296.4 8.5
306(10) 0.01002 296.3 8.4
300(10) 0.00976 296.3 8.4
300(9) 0.01076 296.3 8.4
328(9) 0.01019 296.3 8.4
302(9) 0.01100 296.3 8.4
300(9) 0.01050 296.3 8.4
301(10) 0.01004 296.3 8.4
305(9) 0.01074 296.3 8.5
302(9) 0.01110 296.3 8.6
307(9) 0.01089 296.3 8.6
311(9) 0.01009 296.2 8.7
316(10) 0.00965 296.2 8.9
307(9) 0.01037 296.2 9.0
310(9) 0.01078 296.2 9.2
320(9) 0.01039 296.2 9.4
314(10) 0.00969 296.2 9.6
318(10) 0.00948 296.2 9.8
303(9) 0.01048 296.2 10.1
297(9) 0.01105 296.2 10.4
310(9) 0.01088 296.2 10.7
307(9) 0.01029 296.1 11.1
308(10) 0.00965 296.1 11.5
286(9) 0.01095 296.1 11.9
284(9) 0.01158 296.1 12.4
303(9) 0.01074 296.1 12.9
320(10) 0.00954 296.1 13.4
303(9) 0.01013 296.1 14.0
292(9) 0.01055 296.1 14.5
293(9) 0.01139 296.1 15.1
313(9) 0.01021 296.1 15.7
306(9) 0.01036 296.0 16.4
314(10) 0.00995 296.0 17.0
321(10) 0.00984 296.0 17.5
307(9) 0.01097 296.0 18.1
300(9) 0.01054 296.0 18.6
302(9) 0.01017 296.0 19.0
331(10) 0.00942 296.0 19.3
316(10) 0.01001 296.0 19.5
314(9) 0.01081 296.0 19.6
309(10) 0.00981 296.0 19.6
303(10) 0.00980 295.9 19.4
318(10) 0.01002 295.9 19.1
315(9) 0.01040 295.9 18.8
327(9) 0.01032 295.9 18.3
326(10) 0.00953 295.9 17.7
307(10) 0.00976 295.9 17.1
305(9) 0.01054 295.9 16.5
284(9) 0.01130 295.9 15.8
297(9) 0.01139 295.9 15.2
276(9) 0.01123 295.9 14.5
309(10) 0.00945 295.8 13.9
318(9) 0.01013 295.8 13.2
326(10) 0.01007 295.8 12.6
288(9) 0.01160 295.8 12.0
292(9) 0.01062 295.8 11.5
306(10) 0.00936 295.8 10.9
296(9) 0.01103 295.8 10.5
294(9) 0.01139 295.8 10.0
304(9) 0.01096 295.8 9.6
290(9) 0.01140 295.8 9.2
315(10) 0.00935 295.7 8.8
277(9) 0.01132 295.7 8.5
282(9) 0.01167 295.7 8.1
269(9) 0.01210 295.7 7.9
308(9) 0.01021 295.7 7.6
295(9) 0.01036 295.7 7.4
325(10) 0.00984 295.7 7.1
291(9) 0.01139 295.7 6.9
287(9) 0.01152 295.7 6.7
281(9) 0.01125 295.7 6.6
297(9) 0.01022 295.6 6.4
304(9) 0.01022 295.6 6.3
293(9) 0.01142 295.6 6.1
322(9) 0.01019 295.6 6.0
320(9) 0.01010 295.6 5.9
302(9) 0.01021 295.6 5.8
288(9) 0.01071 295.6 5.7
295(9) 0.01134 295.6 5.6
314(10) 0.00996 295.6 5.6
277(9) 0.01165 295.6 5.5
306(9) 0.01023 295.5 5.4
284(9) 0.01098 295.5 5.4
295(9) 0.01133 295.5 5.3
310(9) 0.01009 295.5 5.3
291(9) 0.01041 295.5 5.2
294(9) 0.01057 295.5 5.2
293(9) 0.01090 295.5 5.1
291(9) 0.01153 295.5 5.1
299(9) 0.01071 295.5 5.0
301(10) 0.01001 295.5 5.0
296(9) 0.01043 295.4 5.0
302(9) 0.01081 295.4 5.0
315(9) 0.01061 295.4 4.9
293(9) 0.01048 295.4 4.9
299(10) 0.00977 295.4 4.9
305(9) 0.01050 295.4 4.9
317(9) 0.01048 295.4 4.9
305(9) 0.01103 295.4 4.8
283(9) 0.01090 295.3 4.8
277(9) 0.01091 295.3 4.8
284(9) 0.01080 295.3 4.8
290(9) 0.01141 295.3 4.8
291(9) 0.01149 295.3 4.8
281(9) 0.01119 295.2 4.8
306(10) 0.00955 295.2 4.8
304(9) 0.01032 295.2 4.8
298(9) 0.01118 295.2 4.8
282(9) 0.01170 295.2 4.8
280(9) 0.01121 295.1 4.8
294(10) 0.00969 295.1 4.8
305(9) 0.01035 295.1 4.8
317(9) 0.01058 295.1 4.8
289(9) 0.01158 295.1 4.8
304(9) 0.01057 295.0 4.8
305(10) 0.00967 295.0 4.8
285(9) 0.01098 295.0 4.8
284(9) 0.01150 295.0 4.9
297(9) 0.01083 295.0 4.9
301(9) 0.01060 294.9 4.9
296(9) 0.01010 294.9 4.9
286(9) 0.01096 294.9 4.9
310(9) 0.01085 294.9 4.9
308(9) 0.01071 294.9 5.0
300(9) 0.01052 294.8 5.0
315(10) 0.00940 294.8 5.0
296(9) 0.01027 294.8 5.1
303(9) 0.01115 294.8 5.1
287(9) 0.01150 294.8 5.1
292(9) 0.01057 294.7 5.1
275(9) 0.01086 294.7 5.2
300(9) 0.01053 294.7 5.2
296(9) 0.01137 294.7 5.3
307(9) 0.01055 294.7 5.3
305(10) 0.01006 294.6 5.3
302(9) 0.01041 294.6 5.4
301(9) 0.01098 294.6 5.4
311(9) 0.01076 294.6 5.5
309(9) 0.01038 294.6 5.5
301(9) 0.01047 294.5 5.6
322(10) 0.00956 294.5 5.6
302(9) 0.01066 294.5 5.7
294(9) 0.01135 294.5 5.7
309(9) 0.01021 294.5 5.8
277(9) 0.01127 294.4 5.9
282(9) 0.01128 294.4 5.9
313(9) 0.01052 294.4 6.0
318(9) 0.01042 294.4 6.1
290(9) 0.01070 294.4 6.2
288(9) 0.01041 294.3 6.2
296(9) 0.01085 294.3 6.3
300(9) 0.01105 294.3 6.4
299(9) 0.01126 294.3 6.5
297(9) 0.01050 294.3 6.6
305(10) 0.00951 294.2 6.7
283(9) 0.01134 294.2 6.8
301(9) 0.01098 294.2 6.9
303(9) 0.01106 294.2 7.1
292(9) 0.01080 294.2 7.2
276(9) 0.01091 294.2 7.3
314(9) 0.01020 294.1 7.4
296(9) 0.01108 294.1 7.6
273(9) 0.01187 294.1 7.7
292(9) 0.01052 294.1 7.9
298(10) 0.00978 294.1 8.1
295(9) 0.01044 294.0 8.2
320(9) 0.01046 294.0 8.4
289(9) 0.01150 294.0 8.6
297(9) 0.01050 294.0 8.8
298(10) 0.01006 294.0 9.0
316(10) 0.00986 293.9 9.3
324(9) 0.01040 293.9 9.5
277(9) 0.01181 293.9 9.8
298(9) 0.01090 293.9 10.1
313(10) 0.00975 293.9 10.3
295(9) 0.01059 293.8 10.6
293(9) 0.01143 293.8 11.0
308(9) 0.01065 293.8 11.3
310(9) 0.01008 293.8 11.7
288(9) 0.01097 293.8 12.1
310(10) 0.00987 293.7 12.5
298(9) 0.01109 293.7 13.0
309(9) 0.01056 293.7 13.4
312(9) 0.01031 293.7 14.0
331(10) 0.00938 293.7 14.5
306(9) 0.01069 293.6 15.1
302(9) 0.01104 293.6 15.8
290(9) 0.01098 293.6 16.5
323(10) 0.00959 293.6 17.3
306(9) 0.01035 293.6 18.1
329(10) 0.00995 293.5 19.0
343(10) 0.00987 293.5 20.0
315(10) 0.00988 293.5 21.1
326(10) 0.00917 293.5 22.3
306(9) 0.01015 293.5 23.6
326(9) 0.01016 293.4 25.0
358(10) 0.00948 293.4 26.5
339(10) 0.00945 293.4 28.2
349(10) 0.00865 293.4 30.0
320(10) 0.00992 293.4 31.9
330(10) 0.01006 293.3 34.1
308(9) 0.01076 293.3 36.3
336(10) 0.00913 293.3 38.7
330(10) 0.00885 293.3 41.3
346(10) 0.00923 293.3 44.0
343(10) 0.00976 293.2 46.9
348(10) 0.00971 293.2 49.8
333(10) 0.00969 293.2 52.8
351(10) 0.00865 293.2 55.8
348(10) 0.00945 293.2 58.7
364(10) 0.00924 293.1 61.5
395(10) 0.00879 293.1 63.9
373(10) 0.00861 293.1 66.1
355(10) 0.00846 293.1 67.8
352(10) 0.00907 293.1 68.9
381(10) 0.00885 293.0 69.4
362(10) 0.00953 293.0 69.3
330(10) 0.00981 293.0 68.7
342(10) 0.00878 293.0 67.4
361(10) 0.00897 293.0 65.8
392(10) 0.00871 292.9 63.7
342(10) 0.00987 292.9 61.5
348(10) 0.00930 292.9 59.0
345(10) 0.00898 292.9 56.5
330(10) 0.00979 292.9 54.0
356(10) 0.00952 292.8 51.5
350(10) 0.00947 292.8 49.1
346(10) 0.00922 292.8 46.8
327(10) 0.00948 292.8 44.6
317(10) 0.01006 292.8 42.5
333(9) 0.01010 292.8 40.6
373(10) 0.00885 292.7 38.8
327(9) 0.01009 292.7 37.2
328(10) 0.00954 292.7 35.7
322(10) 0.00995 292.7 34.3
312(9) 0.01093 292.7 33.0
301(9) 0.01056 292.6 31.9
325(10) 0.00965 292.6 30.8
340(10) 0.00940 292.6 29.9
326(10) 0.01003 292.6 29.1
332(9) 0.01015 292.6 28.3
337(10) 0.00929 292.5 27.6
332(10) 0.00949 292.5 27.1
337(10) 0.00968 292.5 26.5
337(10) 0.00964 292.5 26.1
331(9) 0.01025 292.5 25.7
320(10) 0.00997 292.4 25.4
331(10) 0.00924 292.4 25.1
322(10) 0.00973 292.4 24.8
325(9) 0.01010 292.4 24.6
324(9) 0.01043 292.4 24.5
305(9) 0.01034 292.3 24.4
315(10) 0.00900 292.3 24.3
323(10) 0.01000 292.3 24.3
328(9) 0.01032 292.3 24.3
325(9) 0.01031 292.3 24.3
308(9) 0.01028 292.2 24.3
328(10) 0.00918 292.2 24.4
339(10) 0.00941 292.2 24.6
340(10) 0.00990 292.2 24.7
296(9) 0.01140 292.2 24.9
314(9) 0.01039 292.1 25.1
308(10) 0.00958 292.1 25.3
314(10) 0.00993 292.1 25.6
321(9) 0.01054 292.1 25.9
325(9) 0.01027 292.1 26.2
321(10) 0.00991 292.0 26.6
333(10) 0.00900 292.0 27.0
336(10) 0.00939 292.0 27.5
348(10) 0.00979 292.0 28.1
338(10) 0.00962 292.0 28.7
329(10) 0.00944 291.9 29.4
336(10) 0.00898 291.9 30.2
343(10) 0.00918 291.9 31.1
328(9) 0.01029 291.9 32.2
322(9) 0.01025 291.9 33.5
317(10) 0.00995 291.8 35.0
352(10) 0.00866 291.8 36.8
334(10) 0.00961 291.8 38.8
342(10) 0.00995 291.8 41.1
353(10) 0.00924 291.8 43.7
360(10) 0.00874 291.7 46.6
382(11) 0.00810 291.7 49.7
391(11) 0.00830 291.7 52.9
395(10) 0.00868 291.7 56.0
388(10) 0.00848 291.7 58.7
383(11) 0.00836 291.6 60.8
366(10) 0.00881 291.6 61.9
406(11) 0.00811 291.6 61.9
393(10) 0.00881 291.6 60.8
396(11) 0.00792 291.6 58.8
355(10) 0.00880 291.5 56.3
356(10) 0.00913 291.5 53.6
350(10) 0.00959 291.5 51.0
367(10) 0.00934 291.5 48.4
377(11) 0.00817 291.5 46.2
330(10) 0.00945 291.4 44.2
345(10) 0.00941 291.4 42.5
342(10) 0.00947 291.4 41.1
344(10) 0.00983 291.4 40.0
352(10) 0.00916 291.4 39.0
342(10) 0.00899 291.4 38.3
315(9) 0.01046 291.3 37.7
330(9) 0.01015 291.3 37.3
330(9) 0.01023 291.3 37.0
303(9) 0.01020 291.3 36.7
335(10) 0.00920 291.3 36.6
352(10) 0.00909 291.2 36.4
331(10) 0.00994 291.2 36.3
316(9) 0.01056 291.2 36.2
325(10) 0.00971 291.2 36.2
359(11) 0.00786 291.2 36.1
319(9) 0.01026 291.1 36.0
318(9) 0.01049 291.1 35.9
323(9) 0.01039 291.1 35.8
327(10) 0.01006 291.1 35.6
344(10) 0.00863 291.1 35.5
309(9) 0.01026 291.0 35.3
339(10) 0.00999 291.0 35.1
323(9) 0.01025 291.0 34.8
343(10) 0.00913 291.0 34.6
301(10) 0.01005 291.0 34.3
323(10) 0.00961 290.9 34.0
324(9) 0.01052 290.9 33.7
305(9) 0.01075 290.9 33.3
324(10) 0.00964 290.9 32.9
334(10) 0.00904 290.9 32.6
333(10) 0.00944 290.8 32.2
337(10) 0.01007 290.8 31.8
321(9) 0.01019 290.8 31.4
313(10) 0.00994 290.8 30.9
347(10) 0.00871 290.8 30.5
339(10) 0.00928 290.7 30.1
300(9) 0.01120 290.7 29.7
295(9) 0.01081 290.7 29.3
297(9) 0.01066 290.7 28.9
325(10) 0.00950 290.7 28.5
298(9) 0.01078 290.6 28.2
305(9) 0.01107 290.6 27.8
318(9) 0.01013 290.6 27.5
340(10) 0.00884 290.6 27.1
293(9) 0.01054 290.6 26.8
306(9) 0.01058 290.5 26.6
301(9) 0.01099 290.5 26.3
300(9) 0.01084 290.5 26.1
313(10) 0.00996 290.5 25.8
300(9) 0.01058 290.5 25.7
316(9) 0.01019 290.4 25.5
345(10) 0.00976 290.4 25.3
317(10) 0.00988 290.4 25.2
314(10) 0.00969 290.4 25.1
315(9) 0.01014 290.4 25.0
312(9) 0.01072 290.3 24.9
324(9) 0.01049 290.3 24.9
328(10) 0.00947 290.3 24.8
309(9) 0.01010 290.3 24.8
295(9) 0.01083 290.3 24.8
338(10) 0.00994 290.2 24.8
327(9) 0.01017 290.2 24.8
317(10) 0.00990 290.2 24.8
303(10) 0.00973 290.2 24.8
319(10) 0.00977 290.2 24.8
321(9) 0.01048 290.1 24.8
326(9) 0.01028 290.1 24.8
329(10) 0.00936 290.1 24.8
299(9) 0.01016 290.1 24.7
322(9) 0.01009 290.1 24.6
329(9) 0.01027 290.0 24.5
342(10) 0.00964 290.0 24.4
334(10) 0.00948 290.0 24.3
304(10) 0.00986 290.0 24.1
318(10) 0.00991 290.0 23.9
316(9) 0.01056 290.0 23.7
288(9) 0.01108 289.9 23.5
289(9) 0.01102 289.9 23.2
323(10) 0.00934 289.9 22.9
314(9) 0.01041 289.9 22.6
309(9) 0.01079 289.9 22.3
320(9) 0.01035 289.8 22.0
336(10) 0.00969 289.8 21.7
322(10) 0.00995 289.8 21.4
323(10) 0.00988 289.8 21.1
309(9) 0.01078 289.8 20.7
310(9) 0.01040 289.7 20.4
337(10) 0.00919 289.7 20.1
310(10) 0.00993 289.7 19.9
325(10) 0.00956 289.7 19.6
294(9) 0.01127 289.7 19.4
287(9) 0.01111 289.6 19.1
328(10) 0.00946 289.6 18.9
306(10) 0.01003 289.6 18.7
305(9) 0.01044 289.6 18.6
326(9) 0.01039 289.6 18.5
323(10) 0.00997 289.5 18.4
326(10) 0.00938 289.5 18.3
311(9) 0.01015 289.5 18.3
319(9) 0.01047 289.5 18.3
322(9) 0.01046 289.5 18.4
310(9) 0.01018 289.4 18.5
316(10) 0.00965 289.4 18.7
342(10) 0.00884 289.4 18.9
333(10) 0.01000 289.4 19.2
340(10) 0.01003 289.4 19.6
330(10) 0.00976 289.3 20.0
313(10) 0.00964 289.3 20.6
322(10) 0.00977 289.3 21.2
325(9) 0.01022 289.3 22.0
312(9) 0.01064 289.3 22.9
334(10) 0.00941 289.2 23.9
343(10) 0.00842 289.2 25.1
295(9) 0.01079 289.2 26.4
322(9) 0.01030 289.2 27.9
323(9) 0.01046 289.2 29.5
347(10) 0.00934 289.1 31.4
355(11) 0.00834 289.1 33.4
333(10) 0.00939 289.1 35.6
323(9) 0.01044 289.1 37.9
329(10) 0.00996 289.1 40.4
344(10) 0.00924 289.0 42.8
346(10) 0.00884 289.0 45.3
346(10) 0.00922 289.0 47.6
374(10) 0.00906 289.0 49.7
352(10) 0.00941 289.0 51.4
372(10) 0.00846 288.9 52.9
353(10) 0.00879 288.9 54.0
350(10) 0.00921 288.9 54.9
349(10) 0.00972 288.9 55.6
372(10) 0.00893 288.9 56.3
355(10) 0.00905 288.8 57.1
394(11) 0.00779 288.8 58.2
368(10) 0.00884 288.8 59.7
355(10) 0.00950 288.8 61.5
387(11) 0.00837 288.8 63.9
380(11) 0.00806 288.7 66.9
394(11) 0.00768 288.7 70.4
377(10) 0.00871 288.7 74.5
397(10) 0.00869 288.7 79.2
398(11) 0.00813 288.7 84.5
409(11) 0.00771 288.6 90.2
425(11) 0.00749 288.6 96.3
486(12) 0.00667 288.6 102.6
440(11) 0.00784 288.6 109.0
432(11) 0.00748 288.6 115.1
464(12) 0.00690 288.6 120.7
480(12) 0.00682 288.5 125.3
450(11) 0.00756 288.5 128.7
464(11) 0.00743 288.5 130.5
440(11) 0.00747 288.5 130.7
472(12) 0.00679 288.5 129.0
454(11) 0.00724 288.4 125.7
427(11) 0.00798 288.4 120.9
414(11) 0.00825 288.4 115.0
418(11) 0.00782 288.4 108.4
404(11) 0.00777 288.4 101.3
419(11) 0.00762 288.3 94.1
409(11) 0.00832 288.3 86.9
375(10) 0.00920 288.3 80.0
371(10) 0.00894 288.3 73.4
394(11) 0.00755 288.3 67.2
372(10) 0.00861 288.2 61.5
396(10) 0.00850 288.2 56.2
344(10) 0.00992 288.2 51.4
349(10) 0.00915 288.2 47.0
331(10) 0.00904 288.2 43.1
340(10) 0.00962 288.1 39.5
316(9) 0.01065 288.1 36.4
335(9) 0.01018 288.1 33.5
325(10) 0.00988 288.1 31.0
328(10) 0.00917 288.1 28.8
339(10) 0.00953 288.0 26.8
350(10) 0.00977 288.0 25.1
337(10) 0.00963 288.0 23.5
291(9) 0.01065 288.0 22.1
299(10) 0.01003 288.0 20.9
322(10) 0.00999 287.9 19.8
308(9) 0.01085 287.9 18.8
328(9) 0.01009 287.9 17.9
302(9) 0.01050 287.9 17.1
326(10) 0.00897 287.9 16.4
331(10) 0.00928 287.8 15.8
291(9) 0.01144 287.8 15.2
299(9) 0.01095 287.8 14.7
295(9) 0.01063 287.8 14.2
302(10) 0.00977 287.8 13.8
313(10) 0.01002 287.7 13.4
313(9) 0.01071 287.7 13.1
333(10) 0.00984 287.7 12.7
300(9) 0.01076 287.7 12.4
298(9) 0.01079 287.7 12.2
315(9) 0.01022 287.6 12.0
289(9) 0.01154 287.6 11.8
277(9) 0.01118 287.6 11.6
303(10) 0.00994 287.6 11.4
294(9) 0.01066 287.6 11.3
288(9) 0.01138 287.5 11.2
292(9) 0.01144 287.5 11.1
280(9) 0.01131 287.5 11.0
316(10) 0.00930 287.5 11.0
287(9) 0.01046 287.5 10.9
282(9) 0.01169 287.4 10.9
315(9) 0.01059 287.4 10.9
306(9) 0.01034 287.4 10.9
311(10) 0.00958 287.4 11.0
311(10) 0.00988 287.4 11.0
318(9) 0.01022 287.3 11.1
307(9) 0.01094 287.3 11.1
296(9) 0.01076 287.3 11.2
301(10) 0.00991 287.3 11.3
294(9) 0.01059 287.3 11.4
313(9) 0.01069 287.3 11.6
278(9) 0.01143 287.2 11.7
280(9) 0.01114 287.2 11.8
267(9) 0.01106 287.2 12.0
301(9) 0.01042 287.2 12.1
299(9) 0.01108 287.2 12.3
287(9) 0.01166 287.1 12.4
288(9) 0.01090 287.1 12.6
283(9) 0.01064 287.1 12.7
306(9) 0.01027 287.1 12.8
323(9) 0.01054 287.1 13.0
290(9) 0.01124 287.0 13.1
288(9) 0.01071 287.0 13.2
311(10) 0.00937 287.0 13.2
272(9) 0.01159 287.0 13.3
292(9) 0.01135 287.0 13.3
310(9) 0.01055 286.9 13.3
288(9) 0.01085 286.9 13.2
277(9) 0.01107 286.9 13.1
298(9) 0.01012 286.9 13.0
304(9) 0.01108 286.9 12.9
278(9) 0.01136 286.8 12.8
305(9) 0.01019 286.8 12.6
273(9) 0.01147 286.8 12.4
288(9) 0.01093 286.8 12.2
289(9) 0.01144 286.8 12.0
293(9) 0.01051 286.7 11.7
298(9) 0.01050 286.7 11.5
287(9) 0.01073 286.7 11.2
296(9) 0.01057 286.7 11.0
296(9) 0.01137 286.7 10.7
294(9) 0.01059 286.6 10.5
292(9) 0.01036 286.6 10.2
280(9) 0.01126 286.6 9.9
282(9) 0.01153 286.6 9.7
292(9) 0.01151 286.6 9.5
291(9) 0.01066 286.5 9.2
305(10) 0.00991 286.5 9.0
286(9) 0.01095 286.5 8.8
292(9) 0.01073 286.5 8.5
288(9) 0.01147 286.5 8.3
293(9) 0.01067 286.4 8.1
293(9) 0.01057 286.4 8.0
288(9) 0.01113 286.4 7.8
307(9) 0.01058 286.4 7.6
284(9) 0.01172 286.4 7.4
278(9) 0.01131 286.3 7.3
278(9) 0.01077 286.3 7.1
256(9) 0.01218 286.3 7.0
327(9) 0.01025 286.3 6.9
294(9) 0.01129 286.3 6.8
278(9) 0.01128 286.2 6.7
305(10) 0.00944 286.2 6.5
315(10) 0.00959 286.2 6.4
289(9) 0.01142 286.2 6.4
297(9) 0.01102 286.2 6.3
299(9) 0.01069 286.1 6.2
303(10) 0.01000 286.1 6.1
270(9) 0.01179 286.1 6.1
280(9) 0.01167 286.1 6.0
277(9) 0.01194 286.1 5.9
270(9) 0.01123 286.0 5.9
277(9) 0.01050 286.0 5.8
268(9) 0.01216 286.0 5.8
301(9) 0.01123 286.0 5.8
297(9) 0.01087 286.0 5.7
309(9) 0.01027 285.9 5.7
299(9) 0.01026 285.9 5.7
272(9) 0.01158 285.9 5.6
274(9) 0.01209 285.9 5.6
277(9) 0.01185 285.9 5.6
298(9) 0.01036 285.9 5.6
277(9) 0.01083 285.8 5.6
287(9) 0.01108 285.8 5.6
271(9) 0.01229 285.8 5.6
298(9) 0.01091 285.8 5.6
313(9) 0.01009 285.8 5.6
297(9) 0.01056 285.7 5.5
302(9) 0.01055 285.7 5.5
277(9) 0.01197 285.7 5.5
267(9) 0.01202 285.7 5.5
260(9) 0.01196 285.7 5.5
297(9) 0.01021 285.6 5.5
270(9) 0.01202 285.6 5.6
289(9) 0.01165 285.6 5.6
285(9) 0.01131 285.6 5.6
283(9) 0.01069 285.6 5.6
276(9) 0.01103 285.5 5.6
317(10) 0.01001 285.5 5.6
311(9) 0.01092 285.5 5.6
284(9) 0.01086 285.5 5.6
289(9) 0.01013 285.5 5.6
296(9) 0.01065 285.4 5.6
274(9) 0.01202 285.4 5.6
269(9) 0.01228 285.4 5.6
288(9) 0.01099 285.4 5.6
302(10) 0.00979 285.4 5.6
280(9) 0.01080 285.3 5.6
265(9) 0.01214 285.3 5.6
269(8) 0.01248 285.3 5.6
289(9) 0.01075 285.3 5.6
288(10) 0.00989 285.3 5.6
277(9) 0.01134 285.2 5.6
289(9) 0.01149 285.2 5.5
283(9) 0.01159 285.2 5.5
301(9) 0.01060 285.2 5.5
302(10) 0.00978 285.2 5.5
278(9) 0.01130 285.1 5.5
276(9) 0.01213 285.1 5.5
296(9) 0.01126 285.1 5.5
279(9) 0.01156 285.1 5.4
294(9) 0.01015 285.1 5.4
284(9) 0.01108 285.0 5.4
299(9) 0.01125 285.0 5.4
287(9) 0.01119 285.0 5.3
277(9) 0.01126 285.0 5.3
293(9) 0.01015 285.0 5.3
276(9) 0.01142 284.9 5.3
311(9) 0.01081 284.9 5.2
299(9) 0.01083 284.9 5.2
303(9) 0.01013 284.9 5.2
294(9) 0.01039 284.9 5.1
282(9) 0.01129 284.8 5.1
310(9) 0.01079 284.8 5.1
312(9) 0.01013 284.8 5.0
268(9) 0.01145 284.8 5.0
287(9) 0.01061 284.8 4.9
268(9) 0.01120 284.7 4.9
269(8) 0.01240 284.7 4.9
276(9) 0.01122 284.7 4.8
271(9) 0.01156 284.7 4.8
281(9) 0.01095 284.7 4.8
297(9) 0.01088 284.6 4.7
276(9) 0.01208 284.6 4.7
281(9) 0.01095 284.6 4.6
293(9) 0.01037 284.6 4.6
286(9) 0.01072 284.6 4.6
289(9) 0.01130 284.5 4.5
258(8) 0.01270 284.5 4.5
262(9) 0.01174 284.5 4.5
280(9) 0.01068 284.5 4.4
288(9) 0.01089 284.5 4.4
284(9) 0.01168 284.5 4.3
293(9) 0.01136 284.4 4.3
300(9) 0.01038 284.4 4.3
278(9) 0.01071 284.4 4.2
290(9) 0.01053 284.4 4.2
279(9) 0.01192 284.4 4.2
295(9) 0.01142 284.3 4.1
276(9) 0.01124 284.3 4.1
309(10) 0.00909 284.3 4.1
261(9) 0.01185 284.3 4.0
284(9) 0.01149 284.3 4.0
286(9) 0.01145 284.2 4.0
274(9) 0.01171 284.2 4.0
278(9) 0.01063 284.2 3.9
285(9) 0.01091 284.2 3.9
275(9) 0.01210 284.2 3.9
285(9) 0.01148 284.1 3.8
310(9) 0.01011 284.1 3.8
286(10) 0.01000 284.1 3.8
271(9) 0.01136 284.1 3.8
288(9) 0.01157 284.0 3.7
274(9) 0.01219 284.0 3.7
286(9) 0.01109 284.0 3.7
273(9) 0.01084 284.0 3.7
270(9) 0.01180 284.0 3.7
273(9) 0.01213 283.9 3.6
275(9) 0.01156 283.9 3.6
302(9) 0.01031 283.9 3.6
287(9) 0.01057 283.9 3.6
255(9) 0.01227 283.9 3.6
269(8) 0.01237 283.8 3.5
272(9) 0.01199 283.8 3.5
275(9) 0.01144 283.8 3.5
277(9) 0.01092 283.8 3.5
263(9) 0.01200 283.8 3.5
300(9) 0.01121 283.7 3.5
304(9) 0.01049 283.7 3.5
283(9) 0.01089 283.7 3.5
274(9) 0.01116 283.7 3.4
275(9) 0.01165 283.7 3.4
276(9) 0.01199 283.6 3.4
293(9) 0.01058 283.6 3.4
269(9) 0.01131 283.6 3.4
298(9) 0.01034 283.6 3.4
276(9) 0.01129 283.5 3.4
266(8) 0.01244 283.5 3.4
283(9) 0.01090 283.5 3.4
282(9) 0.01041 283.5 3.4
268(9) 0.01126 283.5 3.4
280(9) 0.01173 283.4 3.4
259(8) 0.01283 283.4 3.4
276(9) 0.01113 283.4 3.4
297(10) 0.01006 283.4 3.4
291(9) 0.01046 283.4 3.4
299(9) 0.01087 283.3 3.4
289(9) 0.01147 283.3 3.4
260(9) 0.01223 283.3 3.4
304(10) 0.00941 283.3 3.4
293(9) 0.01044 283.3 3.4
282(9) 0.01152 283.2 3.4
293(9) 0.01137 283.2 3.4
274(9) 0.01162 283.2 3.4
266(9) 0.01052 283.2 3.4
252(8) 0.01247 283.2 3.4
281(9) 0.01193 283.1 3.5
286(9) 0.01152 283.1 3.5
302(9) 0.01040 283.1 3.5
281(9) 0.01086 283.1 3.5
275(9) 0.01146 283.1 3.5
290(9) 0.01160 283.0 3.5
285(9) 0.01167 283.0 3.5
280(9) 0.01157 283.0 3.6
288(9) 0.01059 283.0 3.6
272(9) 0.01160 282.9 3.6
299(9) 0.01108 282.9 3.6
267(9) 0.01200 282.9 3.6
288(9) 0.01063 282.9 3.7
286(9) 0.01097 282.9 3.7
288(9) 0.01081 282.8 3.7
289(9) 0.01147 282.8 3.7
287(9) 0.01123 282.8 3.8
281(9) 0.01127 282.8 3.8
283(9) 0.01090 282.8 3.8
275(9) 0.01138 282.7 3.9
269(8) 0.01235 282.7 3.9
268(9) 0.01208 282.7 3.9
280(9) 0.01120 282.7 4.0
280(9) 0.01132 282.7 4.0
277(9) 0.01179 282.6 4.0
284(9) 0.01165 282.6 4.1
251(8) 0.01246 282.6 4.1
259(9) 0.01163 282.6 4.2
271(9) 0.01147 282.6 4.2
291(9) 0.01105 282.5 4.3
292(9) 0.01134 282.5 4.4
280(9) 0.01071 282.5 4.4
286(9) 0.01046 282.5 4.5
313(10) 0.01000 282.4 4.6
302(9) 0.01055 282.4 4.6
286(9) 0.01168 282.4 4.7
290(9) 0.01077 282.4 4.8
285(9) 0.01072 282.4 4.9
266(9) 0.01202 282.3 5.0
250(8) 0.01295 282.3 5.1
261(8) 0.01272 282.3 5.3
305(9) 0.01014 282.3 5.4
293(9) 0.01033 282.3 5.5
276(9) 0.01125 282.2 5.7
274(9) 0.01213 282.2 5.9
281(9) 0.01184 282.2 6.1
292(9) 0.01043 282.2 6.3
270(9) 0.01116 282.2 6.6
271(9) 0.01176 282.1 6.9
284(9) 0.01188 282.1 7.2
304(9) 0.01062 282.1 7.6
267(9) 0.01198 282.1 8.1
290(10) 0.00979 282.1 8.7
297(9) 0.01026 282.0 9.4
290(9) 0.01159 282.0 10.1
301(9) 0.01091 282.0 11.0
288(9) 0.01130 282.0 12.1
289(9) 0.01055 282.0 13.3
290(9) 0.01066 281.9 14.7
300(9) 0.01114 281.9 16.2
287(9) 0.01141 281.9 17.9
294(9) 0.01052 281.9 19.6
277(9) 0.01092 281.8 21.5
311(9) 0.01028 281.8 23.2
309(9) 0.01075 281.8 24.7
307(9) 0.01062 281.8 25.9
309(10) 0.01003 281.8 26.4
285(9) 0.01094 281.7 26.4
327(10) 0.00961 281.7 25.8
303(9) 0.01110 281.7 24.7
326(10) 0.00935 281.7 23.2
296(9) 0.01051 281.7 21.6
307(10) 0.00995 281.6 19.9
285(9) 0.01109 281.6 18.3
291(9) 0.01139 281.6 16.8
293(9) 0.01065 281.6 15.5
271(9) 0.01086 281.6 14.4
266(9) 0.01123 281.5 13.4
269(9) 0.01196 281.5 12.5
308(9) 0.01080 281.5 11.8
288(9) 0.01113 281.5 11.2
279(9) 0.01113 281.5 10.8
292(9) 0.01038 281.4 10.4
266(9) 0.01214 281.4 10.2
296(9) 0.01111 281.4 10.0
269(9) 0.01189 281.4 9.8
289(9) 0.01050 281.4 9.7
301(10) 0.01008 281.3 9.7
293(9) 0.01124 281.3 9.7
277(9) 0.01200 281.3 9.8
277(9) 0.01137 281.3 9.8
272(9) 0.01136 281.2 9.9
266(9) 0.01189 281.2 10.1
258(9) 0.01226 281.2 10.2
269(8) 0.01238 281.2 10.4
266(9) 0.01157 281.2 10.7
303(10) 0.00960 281.1 10.9
282(9) 0.01107 281.1 11.2
286(9) 0.01156 281.1 11.6
310(9) 0.01073 281.1 12.0
297(9) 0.01053 281.1 12.4
293(9) 0.01026 281.0 12.9
297(9) 0.01053 281.0 13.4
285(9) 0.01167 281.0 14.0
270(9) 0.01215 281.0 14.7
294(9) 0.01058 281.0 15.4
281(9) 0.01085 280.9 16.1
295(9) 0.01063 280.9 16.9
290(9) 0.01142 280.9 17.8
291(9) 0.01125 280.9 18.8
296(9) 0.01071 280.9 19.8
298(9) 0.01018 280.8 20.8
295(9) 0.01080 280.8 21.9
293(9) 0.01137 280.8 23.0
287(9) 0.01128 280.8 24.1
281(9) 0.01130 280.7 25.1
305(10) 0.00998 280.7 26.1
306(9) 0.01039 280.7 26.9
315(9) 0.01056 280.7 27.6
288(9) 0.01095 280.7 28.2
299(9) 0.01024 280.6 28.5
288(9) 0.01076 280.6 28.7
316(9) 0.01016 280.6 28.7
298(9) 0.01127 280.6 28.5
319(10) 0.00992 280.6 28.2
290(9) 0.01077 280.5 27.8
319(10) 0.00956 280.5 27.3
313(9) 0.01021 280.5 26.9
320(9) 0.01051 280.5 26.4
323(10) 0.01003 280.5 26.1
287(9) 0.01101 280.4 25.7
309(9) 0.01015 280.4 25.5
284(9) 0.01158 280.4 25.3
308(9) 0.01085 280.4 25.2
315(10) 0.00971 280.4 25.2
275(9) 0.01102 280.3 25.3
282(9) 0.01120 280.3 25.5
288(9) 0.01133 280.3 25.8
282(9) 0.01187 280.3 26.3
288(9) 0.01069 280.3 26.8
321(10) 0.00954 280.2 27.4
294(9) 0.01096 280.2 28.2
308(9) 0.01082 280.2 29.0
304(9) 0.01087 280.2 30.0
308(10) 0.01003 280.1 31.0
298(9) 0.01036 280.1 32.2
286(9) 0.01108 280.1 33.5
299(9) 0.01124 280.1 34.9
321(9) 0.01052 280.1 36.4
330(10) 0.00976 280.0 38.0
330(10) 0.00919 280.0 39.7
337(10) 0.00964 280.0 41.5
313(9) 0.01071 280.0 43.5
321(9) 0.01033 280.0 45.5
339(10) 0.00911 279.9 47.6
336(10) 0.00887 279.9 49.9
324(10) 0.01003 279.9 52.2
347(10) 0.00973 279.9 54.6
342(10) 0.00974 279.9 57.1
332(10) 0.00946 279.8 59.6
353(11) 0.00837 279.8 62.1
370(10) 0.00875 279.8 64.7
325(9) 0.01037 279.8 67.2
307(9) 0.01089 279.8 69.6
346(10) 0.00951 279.7 71.9
371(10) 0.00866 279.7 74.1
386(10) 0.00847 279.7 76.1
349(10) 0.00966 279.7 77.9
360(10) 0.00925 279.7 79.4
351(10) 0.00928 279.6 80.6
366(10) 0.00859 279.6 81.5
351(10) 0.00941 279.6 82.0
366(10) 0.00919 279.6 82.2
370(10) 0.00892 279.5 82.1
351(10) 0.00900 279.5 81.6
359(10) 0.00907 279.5 80.8
375(10) 0.00895 279.5 79.7
349(10) 0.00971 279.5 78.4
339(10) 0.00942 279.4 76.9
344(10) 0.00902 279.4 75.2
354(10) 0.00904 279.4 73.5
353(10) 0.00937 279.4 71.6
354(10) 0.00951 279.4 69.7
375(11) 0.00826 279.3 67.8
329(10) 0.00939 279.3 65.9
340(10) 0.00922 279.3 64.0
352(10) 0.00940 279.3 62.2
334(10) 0.01002 279.3 60.4
334(10) 0.00927 279.2 58.6
327(10) 0.00960 279.2 57.0
339(10) 0.00956 279.2 55.4
339(10) 0.00983 279.2 53.9
319(9) 0.01045 279.2 52.4
339(10) 0.00898 279.1 51.0
319(10) 0.00935 279.1 49.7
304(9) 0.01055 279.1 48.4
309(9) 0.01085 279.1 47.2
327(9) 0.01047 279.0 46.1
343(10) 0.00918 279.0 45.0
325(10) 0.00894 279.0 44.0
305(9) 0.01057 279.0 43.0
329(9) 0.01019 279.0 42.0
331(9) 0.01026 278.9 41.1
321(10) 0.00992 278.9 40.2
314(10) 0.00969 278.9 39.3
330(10) 0.00984 278.9 38.5
335(10) 0.01007 278.9 37.6
303(9) 0.01108 278.8 36.8
325(10) 0.00960 278.8 36.0
286(9) 0.01056 278.8 35.3
305(10) 0.00993 278.8 34.5
310(9) 0.01081 278.8 33.8
311(9) 0.01084 278.7 33.0
307(9) 0.01041 278.7 32.3
309(10) 0.00976 278.7 31.6
297(9) 0.01043 278.7 30.9
320(9) 0.01049 278.7 30.2
309(9) 0.01036 278.6 29.5
303(10) 0.00966 278.6 28.8
292(9) 0.01026 278.6 28.2
321(10) 0.00958 278.6 27.5
304(9) 0.01086 278.6 26.9
301(9) 0.01095 278.5 26.3
305(9) 0.01008 278.5 25.7
314(10) 0.00975 278.5 25.1
310(9) 0.01032 278.5 24.5
310(9) 0.01076 278.4 23.9
285(9) 0.01127 278.4 23.4
291(9) 0.01028 278.4 22.8
268(9) 0.01167 278.4 22.3
314(9) 0.01035 278.4 21.8
286(9) 0.01157 278.3 21.3
316(10) 0.01004 278.3 20.8
318(10) 0.00945 278.3 20.3
285(9) 0.01102 278.3 19.9
298(9) 0.01101 278.3 19.5
291(9) 0.01154 278.2 19.0
302(9) 0.01032 278.2 18.6
290(9) 0.01022 278.2 18.2
280(9) 0.01108 278.2 17.8
303(9) 0.01063 278.2 17.5
292(9) 0.01151 278.1 17.1
275(9) 0.01140 278.1 16.8
289(9) 0.01082 278.1 16.4
295(9) 0.01094 278.1 16.1
293(9) 0.01131 278.1 15.8
273(9) 0.01224 278.0 15.5
267(9) 0.01172 278.0 15.3
273(9) 0.01094 278.0 15.0
307(9) 0.01014 278.0 14.8
288(9) 0.01146 277.9 14.5
291(9) 0.01145 277.9 14.3
292(9) 0.01064 277.9 14.1
288(10) 0.00978 277.9 13.9
295(9) 0.01034 277.9 13.7
277(9) 0.01197 277.8 13.5
277(9) 0.01179 277.8 13.4
281(9) 0.01104 277.8 13.2
267(9) 0.01113 277.8 13.1
280(9) 0.01113 277.8 13.0
287(9) 0.01160 277.7 12.9
296(9) 0.01124 277.7 12.8
296(9) 0.01075 277.7 12.7
294(10) 0.01000 277.7 12.6
296(9) 0.01082 277.7 12.6
293(9) 0.01142 277.6 12.5
294(9) 0.01107 277.6 12.5
289(9) 0.01069 277.6 12.5
287(9) 0.01086 277.6 12.4
308(9) 0.01035 277.6 12.4
285(9) 0.01159 277.5 12.4
302(9) 0.01098 277.5 12.5
286(9) 0.01134 277.5 12.5
297(9) 0.01047 277.5 12.5
291(9) 0.01096 277.5 12.6
286(9) 0.01166 277.4 12.7
294(9) 0.01094 277.4 12.7
276(9) 0.01132 277.4 12.8
280(9) 0.01093 277.4 12.9
298(9) 0.01086 277.3 13.0
307(9) 0.01094 277.3 13.1
263(9) 0.01211 277.3 13.2
280(9) 0.01066 277.3 13.4
284(9) 0.01079 277.3 13.5
292(9) 0.01094 277.2 13.6
270(9) 0.01220 277.2 13.7
285(9) 0.01095 277.2 13.9
287(9) 0.01036 277.2 14.0
289(9) 0.01106 277.2 14.1
294(9) 0.01115 277.1 14.2
285(9) 0.01167 277.1 14.4
293(9) 0.01041 277.1 14.5
307(10) 0.00992 277.1 14.6
298(9) 0.01089 277.1 14.7
298(9) 0.01115 277.0 14.8
290(9) 0.01152 277.0 14.8
302(9) 0.01050 277.0 14.9
278(9) 0.01069 277.0 15.0
288(9) 0.01094 277.0 15.1
269(9) 0.01213 276.9 15.1
313(9) 0.01048 276.9 15.2
271(9) 0.01154 276.9 15.3
285(9) 0.01085 276.9 15.3
287(9) 0.01138 276.9 15.4
303(9) 0.01085 276.8 15.5
297(9) 0.01127 276.8 15.6
308(10) 0.00994 276.8 15.6
310(10) 0.00927 276.8 15.7
282(9) 0.01111 276.7 15.8
315(9) 0.01049 276.7 15.9
313(9) 0.01050 276.7 16.0
280(9) 0.01137 276.7 16.1
318(10) 0.00922 276.7 16.2
282(9) 0.01088 276.6 16.3
292(9) 0.01136 276.6 16.4
296(9) 0.01107 276.6 16.5
302(9) 0.01021 276.6 16.6
323(10) 0.00921 276.6 16.7
282(9) 0.01102 276.5 16.8
311(9) 0.01073 276.5 16.9
275(9) 0.01137 276.5 17.0
291(9) 0.01058 276.5 17.1
303(9) 0.01028 276.5 17.2
275(9) 0.01128 276.4 17.3
293(9) 0.01138 276.4 17.4
309(10) 0.00986 276.4 17.4
292(9) 0.01061 276.4 17.5
283(9) 0.01062 276.4 17.6
301(9) 0.01049 276.3 17.7
319(9) 0.01061 276.3 17.7
307(9) 0.01030 276.3 17.8
284(9) 0.01063 276.3 17.8
294(9) 0.01040 276.2 17.9
318(9) 0.01017 276.2 17.9
307(9) 0.01085 276.2 17.9
300(9) 0.01030 276.2 18.0
304(9) 0.01011 276.2 18.0
329(10) 0.00949 276.1 18.0
298(9) 0.01136 276.1 18.0
309(9) 0.01091 276.1 18.1
275(9) 0.01129 276.1 18.1
277(9) 0.01089 276.1 18.1
303(9) 0.01052 276.0 18.1
275(9) 0.01193 276.0 18.2
281(9) 0.01187 276.0 18.2
311(9) 0.01043 276.0 18.2
313(10) 0.00962 276.0 18.3
278(9) 0.01144 275.9 18.3
294(9) 0.01133 275.9 18.4
294(9) 0.01113 275.9 18.5
302(9) 0.01034 275.9 18.6
300(10) 0.00962 275.9 18.7
285(9) 0.01101 275.8 18.9
269(8) 0.01238 275.8 19.0
298(9) 0.01104 275.8 19.2
297(9) 0.01085 275.8 19.5
296(10) 0.00987 275.8 19.7
298(9) 0.01042 275.7 20.1
274(9) 0.01203 275.7 20.5
319(9) 0.01032 275.7 21.0
310(10) 0.01001 275.7 21.6
274(9) 0.01100 275.6 22.3
295(9) 0.01060 275.6 23.1
311(9) 0.01073 275.6 24.0
323(9) 0.01033 275.6 25.2
290(9) 0.01095 275.6 26.5
292(9) 0.01036 275.5 27.9
296(9) 0.01042 275.5 29.6
308(9) 0.01089 275.5 31.5
316(9) 0.01034 275.5 33.5
355(10) 0.00872 275.5 35.7
350(10) 0.00915 275.4 38.0
348(10) 0.00931 275.4 40.4
376(10) 0.00908 275.4 42.6
338(10) 0.00974 275.4 44.5
365(10) 0.00839 275.4 46.0
348(10) 0.00872 275.3 46.8
355(10) 0.00933 275.3 46.9
342(10) 0.00985 275.3 46.4
361(10) 0.00892 275.3 45.3
316(10) 0.00993 275.3 43.7
311(9) 0.01012 275.2 41.9
317(9) 0.01034 275.2 40.1
304(9) 0.01097 275.2 38.3
322(10) 0.00963 275.2 36.6
311(10) 0.00995 275.2 35.1
310(9) 0.01031 275.1 33.9
311(9) 0.01080 275.1 32.8
296(9) 0.01121 275.1 32.0
308(10) 0.01004 275.1 31.3
293(9) 0.01020 275.0 30.8
291(9) 0.01067 275.0 30.4
289(9) 0.01131 275.0 30.0
308(9) 0.01090 275.0 29.6
305(9) 0.01050 275.0 29.1
342(10) 0.00889 274.9 28.6
316(9) 0.01051 274.9 27.9
316(9) 0.01052 274.9 27.2
299(9) 0.01123 274.9 26.5
310(10) 0.01006 274.9 25.7
274(9) 0.01082 274.8 25.0
278(9) 0.01094 274.8 24.3
277(9) 0.01198 274.8 23.7
313(9) 0.01051 274.8 23.1
317(10) 0.00993 274.8 22.6
283(9) 0.01056 274.7 22.1
300(9) 0.01049 274.7 21.7
317(9) 0.01057 274.7 21.4
261(8) 0.01251 274.7 21.1
293(10) 0.01006 274.7 20.8
305(10) 0.00984 274.6 20.6
300(9) 0.01055 274.6 20.5
300(9) 0.01108 274.6 20.3
291(9) 0.01153 274.6 20.2
293(9) 0.01079 274.5 20.2
288(9) 0.01085 274.5 20.1
287(9) 0.01091 274.5 20.1
292(9) 0.01148 274.5 20.1
311(9) 0.01048 274.5 20.1
298(9) 0.01082 274.4 20.2
298(9) 0.01040 274.4 20.2
284(9) 0.01124 274.4 20.3
276(9) 0.01210 274.4 20.4
310(9) 0.01057 274.4 20.5
290(9) 0.01068 274.3 20.6
269(9) 0.01136 274.3 20.7
305(9) 0.01051 274.3 20.9
294(9) 0.01142 274.3 21.0
286(9) 0.01106 274.3 21.2
305(10) 0.01006 274.2 21.4
270(9) 0.01189 274.2 21.6
303(9) 0.01064 274.2 21.8
303(9) 0.01114 274.2 22.0
296(9) 0.01083 274.2 22.2
290(9) 0.01086 274.1 22.4
299(9) 0.01010 274.1 22.7
284(9) 0.01138 274.1 22.9
308(9) 0.01097 274.1 23.2
298(9) 0.01065 274.1 23.4
323(10) 0.00918 274.0 23.7
291(9) 0.01092 274.0 24.0
292(9) 0.01152 274.0 24.2
285(9) 0.01152 274.0 24.5
305(9) 0.01039 273.9 24.8
314(10) 0.00953 273.9 25.1
292(9) 0.01096 273.9 25.4
287(9) 0.01164 273.9 25.7
315(9) 0.01052 273.9 26.0
288(9) 0.01109 273.8 26.3
293(10) 0.01003 273.8 26.6
298(9) 0.01042 273.8 26.9
298(9) 0.01135 273.8 27.2
286(9) 0.01157 273.8 27.6
285(9) 0.01106 273.7 27.9
284(9) 0.01018 273.7 28.2
288(9) 0.01093 273.7 28.5
319(9) 0.01054 273.7 28.8
305(9) 0.01099 273.7 29.1
315(9) 0.01038 273.6 29.3
332(10) 0.00893 273.6 29.5
314(9) 0.01009 273.6 29.6
315(9) 0.01077 273.6 29.7
285(9) 0.01158 273.6 29.8
298(9) 0.01068 273.5 29.9
300(9) 0.01043 273.5 30.0
317(10) 0.00994 273.5 30.1
313(9) 0.01066 273.5 30.3
301(9) 0.01078 273.4 30.6
298(9) 0.01034 273.4 31.1
301(9) 0.01029 273.4 31.7
313(10) 0.01001 273.4 32.4
288(9) 0.01158 273.4 33.4
314(9) 0.01011 273.3 34.7
305(9) 0.01032 273.3 36.2
307(9) 0.01020 273.3 38.1
322(10) 0.00985 273.3 40.3
316(9) 0.01057 273.3 42.8
327(10) 0.00983 273.2 45.7
323(10) 0.00946 273.2 48.8
334(10) 0.00918 273.2 52.3
327(9) 0.01010 273.2 55.8
362(10) 0.00936 273.2 59.2
332(10) 0.00937 273.1 62.1
324(10) 0.00929 273.1 64.3
332(10) 0.00944 273.1 65.5
364(10) 0.00901 273.1 65.7
356(10) 0.00955 273.1 65.0
354(10) 0.00916 273.0 63.6
348(10) 0.00870 273.0 61.8
321(10) 0.00965 273.0 59.8
343(10) 0.00981 273.0 57.6
331(9) 0.01013 273.0 55.5
340(10) 0.00946 272.9 53.3
308(9) 0.01040 272.9 51.2
336(10) 0.00953 272.9 49.2
330(10) 0.01002 272.9 47.2
320(9) 0.01057 272.8 45.3
334(10) 0.00945 272.8 43.5
316(10) 0.00944 272.8 41.8
310(9) 0.01008 272.8 40.3
319(9) 0.01025 272.8 38.9
293(9) 0.01150 272.7 37.6
303(9) 0.01041 272.7 36.4
301(10) 0.00969 272.7 35.4
299(9) 0.01045 272.7 34.5
292(9) 0.01133 272.7 33.8
295(9) 0.01126 272.6 33.2
294(9) 0.01068 272.6 32.8
287(10) 0.00997 272.6 32.5
276(9) 0.01159 272.6 32.4
307(9) 0.01096 272.6 32.4
304(9) 0.01089 272.5 32.6
298(9) 0.01087 272.5 33.0
316(10) 0.00968 272.5 33.5
304(9) 0.01034 272.5 34.1
298(9) 0.01115 272.5 34.9
290(9) 0.01131 272.4 35.9
298(9) 0.01075 272.4 37.0
297(9) 0.01063 272.4 38.2
297(9) 0.01071 272.4 39.6
327(9) 0.01028 272.4 41.1
313(9) 0.01041 272.3 42.7
303(9) 0.01071 272.3 44.5
319(10) 0.01007 272.3 46.4
320(9) 0.01024 272.3 48.3
315(9) 0.01054 272.2 50.3
318(9) 0.01034 272.2 52.3
330(10) 0.00953 272.2 54.3
319(10) 0.00970 272.2 56.2
353(10) 0.00916 272.2 58.1
366(10) 0.00924 272.1 59.8
336(10) 0.00952 272.1 61.3
322(10) 0.00973 272.1 62.6
326(10) 0.00967 272.1 63.5
332(10) 0.00955 272.1 64.2
333(9) 0.01020 272.0 64.4
336(10) 0.00958 272.0 64.2
332(10) 0.00951 272.0 63.6
321(10) 0.00994 272.0 62.6
316(9) 0.01059 272.0 61.2
323(9) 0.01048 271.9 59.4
337(10) 0.00922 271.9 57.4
301(10) 0.00991 271.9 55.2
312(10) 0.00987 271.9 52.8
286(9) 0.01170 271.9 50.3
299(9) 0.01121 271.8 47.7
309(9) 0.01028 271.8 45.2
315(10) 0.00975 271.8 42.7
295(9) 0.01093 271.8 40.3
298(9) 0.01113 271.7 38.0
309(9) 0.01077 271.7 35.8
310(9) 0.01037 271.7 33.7
300(10) 0.00964 271.7 31.8
305(9) 0.01055 271.7 29.9
296(9) 0.01145 271.6 28.2
300(9) 0.01099 271.6 26.6
282(9) 0.01139 271.6 25.2
269(9) 0.01102 271.6 23.8
268(9) 0.01164 271.6 22.5
293(9) 0.01134 271.5 21.4
305(9) 0.01064 271.5 20.3
283(9) 0.01120 271.5 19.3
308(10) 0.00985 271.5 18.5
289(9) 0.01097 271.5 17.6
274(9) 0.01210 271.4 16.9
270(9) 0.01210 271.4 16.2
285(9) 0.01102 271.4 15.6
274(9) 0.01107 271.4 15.1
260(9) 0.01216 271.4 14.6
285(9) 0.01172 271.3 14.2
293(9) 0.01106 271.3 13.8
300(10) 0.00997 271.3 13.4
285(9) 0.01069 271.3 13.1
289(9) 0.01101 271.3 12.8
301(9) 0.01108 271.2 12.6
284(9) 0.01132 271.2 12.4
290(9) 0.01047 271.2 12.3
281(9) 0.01096 271.2 12.1
275(9) 0.01170 271.1 12.0
289(9) 0.01148 271.1 12.0
295(9) 0.01057 271.1 11.9
277(9) 0.01113 271.1 11.9
260(9) 0.01204 271.1 12.0
279(9) 0.01159 271.0 12.0
283(9) 0.01174 271.0 12.1
297(9) 0.01042 271.0 12.2
276(9) 0.01104 271.0 12.3
287(9) 0.01073 271.0 12.4
285(9) 0.01144 270.9 12.5
297(9) 0.01106 270.9 12.7
266(9) 0.01134 270.9 12.8
277(9) 0.01106 270.9 13.0
279(9) 0.01160 270.9 13.1
275(9) 0.01213 270.8 13.2
282(9) 0.01181 270.8 13.3
263(9) 0.01202 270.8 13.4
274(9) 0.01079 270.8 13.4
291(9) 0.01067 270.8 13.4
281(9) 0.01181 270.7 13.3
280(9) 0.01185 270.7 13.2
300(9) 0.01082 270.7 13.1
270(9) 0.01159 270.7 12.9
291(9) 0.01066 270.6 12.7
288(9) 0.01153 270.6 12.4
289(9) 0.01160 270.6 12.2
266(9) 0.01196 270.6 11.9
277(9) 0.01084 270.6 11.6
286(9) 0.01087 270.5 11.3
265(8) 0.01239 270.5 11.0
269(8) 0.01236 270.5 10.7
278(9) 0.01136 270.5 10.4
281(9) 0.01035 270.5 10.1
270(9) 0.01162 270.4 9.9
249(8) 0.01325 270.4 9.6
293(9) 0.01104 270.4 9.4
312(9) 0.01035 270.4 9.2
280(9) 0.01105 270.4 9.0
250(9) 0.01212 270.3 8.8
288(9) 0.01151 270.3 8.6
281(9) 0.01156 270.3 8.5
284(9) 0.01143 270.3 8.4
265(9) 0.01160 270.3 8.3
284(9) 0.01057 270.3 8.1
275(9) 0.01205 270.3 8.1
276(9) 0.01152 270.3 8.0
301(10) 0.01003 270.3 7.9
301(10) 0.00998 270.3 7.9
282(9) 0.01096 270.3 7.8
264(8) 0.01252 270.3 7.8
288(9) 0.01090 270.3 7.8
276(9) 0.01125 270.3 7.8
284(9) 0.01082 270.3 7.8
275(9) 0.01178 270.3 7.8
258(8) 0.01266 270.3 7.8
292(9) 0.01045 270.3 7.8
273(9) 0.01106 270.3 7.9
292(9) 0.01033 270.3 7.9
275(9) 0.01149 270.3 8.0
242(8) 0.01338 270.3 8.1
274(9) 0.01103 270.3 8.2
281(9) 0.01061 270.3 8.2
291(9) 0.01104 270.3 8.3
258(8) 0.01242 270.3 8.5
276(9) 0.01213 270.3 8.6
291(9) 0.01071 270.3 8.7
273(9) 0.01072 270.3 8.9
252(8) 0.01241 270.3 9.0
260(8) 0.01245 270.3 9.2
279(9) 0.01180 270.3 9.4
289(9) 0.01091 270.3 9.6
279(9) 0.01038 270.3 9.8
273(9) 0.01164 270.3 10.0
281(9) 0.01186 270.3 10.3
281(9) 0.01183 270.3 10.6
272(9) 0.01199 270.3 10.9
301(10) 0.00982 270.3 11.2
289(9) 0.01045 270.3 11.5
276(9) 0.01209 270.3 11.9
271(9) 0.01202 270.3 12.3
281(9) 0.01131 270.3 12.7
308(10) 0.00963 270.3 13.1
272(9) 0.01168 270.3 13.6
268(9) 0.01230 270.3 14.1
288(9) 0.01141 270.3 14.7
298(9) 0.01076 270.3 15.3
284(9) 0.01061 270.3 15.9
287(9) 0.01078 270.3 16.5
279(9) 0.01196 270.3 17.2
279(9) 0.01127 270.3 18.0
273(9) 0.01135 270.3 18.8
271(9) 0.01186 270.3 19.6
293(9) 0.01097 270.3 20.5
292(9) 0.01147 270.3 21.4
275(9) 0.01164 270.3 22.3
291(9) 0.01074 270.3 23.4
289(9) 0.01063 270.3 24.4
299(9) 0.01040 270.3 25.5
269(8) 0.01239 270.3 26.7
288(9) 0.01080 270.3 27.8
286(9) 0.01079 270.3 29.1
319(10) 0.00976 270.3 30.3
285(9) 0.01137 270.3 31.6
308(9) 0.01092 270.3 32.9
324(10) 0.00986 270.3 34.2
291(9) 0.01070 270.3 35.5
329(10) 0.00984 270.3 36.8
315(9) 0.01056 270.3 38.1
321(9) 0.01052 270.3 39.4
297(9) 0.01046 270.3 40.6
329(10) 0.00910 270.3 41.7
309(9) 0.01033 270.3 42.8
297(9) 0.01099 270.3 43.7
290(9) 0.01151 270.3 44.5
304(10) 0.01002 270.3 45.2
313(10) 0.00954 270.3 45.8
324(10) 0.00973 270.3 46.1
307(9) 0.01079 270.3 46.3
292(9) 0.01135 270.3 46.3
292(9) 0.01090 270.3 46.2
290(9) 0.01049 270.3 45.9
295(9) 0.01059 270.3 45.4
296(9) 0.01109 270.3 44.7
293(9) 0.01143 270.3 43.9
293(9) 0.01050 270.3 43.0
316(10) 0.00910 270.3 42.0
297(9) 0.01024 270.3 40.9
295(9) 0.01129 270.3 39.7
322(9) 0.01036 270.3 38.5
278(9) 0.01147 270.3 37.2
289(9) 0.01018 270.3 36.0
294(9) 0.01053 270.3 34.7
297(9) 0.01126 270.3 33.4
308(9) 0.01081 270.3 32.1
307(9) 0.01029 270.3 30.9
285(9) 0.01046 270.3 29.6
293(9) 0.01086 270.3 28.4
294(9) 0.01136 270.3 27.3
296(9) 0.01092 270.3 26.2
294(9) 0.01083 270.3 25.1
286(9) 0.01082 270.3 24.1
295(9) 0.01064 270.3 23.1
291(9) 0.01139 270.3 22.2
266(9) 0.01195 270.3 21.3
279(9) 0.01118 270.3 20.5
293(9) 0.01047 270.3 19.7
300(9) 0.01054 270.3 18.9
277(9) 0.01210 270.3 18.2
277(9) 0.01116 270.3 17.6
284(9) 0.01051 270.3 16.9
289(9) 0.01034 270.3 16.4
285(9) 0.01116 270.3 15.8
291(9) 0.01153 270.3 15.3
295(9) 0.01055 270.3 14.9
263(9) 0.01153 270.3 14.5
265(9) 0.01180 270.3 14.1
260(8) 0.01241 270.3 13.7
290(9) 0.01139 270.3 13.4
309(10) 0.00995 270.3 13.1
279(9) 0.01062 270.3 12.8
266(9) 0.01165 270.3 12.6
288(9) 0.01115 270.3 12.4
279(9) 0.01186 270.3 12.2
286(9) 0.01105 270.3 12.0
266(9) 0.01184 270.3 11.9
296(9) 0.01066 270.3 11.8
271(9) 0.01219 270.3 11.7
291(9) 0.01137 270.3 11.6
282(9) 0.01112 270.3 11.6
267(9) 0.01143 270.3 11.6
280(9) 0.01125 270.3 11.6
259(8) 0.01236 270.3 11.6
290(9) 0.01147 270.3 11.7
279(9) 0.01119 270.3 11.8
280(9) 0.01043 270.3 11.9
290(9) 0.01077 270.3 12.0
278(9) 0.01201 270.3 12.2
271(9) 0.01192 270.3 12.4
279(9) 0.01106 270.3 12.6
278(9) 0.01056 270.3 12.9
288(9) 0.01106 270.3 13.2
289(9) 0.01156 270.3 13.5
290(9) 0.01148 270.3 13.9
289(9) 0.01106 270.3 14.3
277(9) 0.01083 270.3 14.8
263(9) 0.01167 270.3 15.3
292(9) 0.01142 270.3 15.8
286(9) 0.01161 270.3 16.4
304(9) 0.01037 270.3 17.1
273(9) 0.01124 270.3 17.8
275(9) 0.01130 270.3 18.6
282(9) 0.01163 270.3 19.4
293(9) 0.01076 270.3 20.3
294(9) 0.01057 270.3 21.2
302(10) 0.01002 270.3 22.2
318(10) 0.00999 270.3 23.2
301(9) 0.01123 270.3 24.3
293(9) 0.01103 270.3 25.4
295(9) 0.01037 270.3 26.6
294(9) 0.01015 270.3 27.8
278(9) 0.01133 270.3 29.1
287(9) 0.01164 270.3 30.3
297(9) 0.01057 270.3 31.5
300(10) 0.00992 270.3 32.7
302(9) 0.01044 270.3 33.8
298(9) 0.01076 270.3 34.9
300(9) 0.01120 270.3 35.8
308(9) 0.01062 270.3 36.6
318(10) 0.00989 270.3 37.3
308(9) 0.01021 270.3 37.8
303(9) 0.01073 270.3 38.0
307(9) 0.01101 270.3 38.1
289(9) 0.01083 270.3 38.0
291(9) 0.01032 270.3 37.6
300(9) 0.01039 270.3 37.1
313(9) 0.01051 270.3 36.4
308(9) 0.01095 270.3 35.6
288(9) 0.01094 270.3 34.6
295(10) 0.00993 270.3 33.5
292(9) 0.01094 270.3 32.4
316(9) 0.01065 270.3 31.3
313(9) 0.01063 270.3 30.1
291(9) 0.01062 270.3 28.9
291(10) 0.01005 270.3 27.7
293(9) 0.01081 270.3 26.6
301(9) 0.01089 270.3 25.5
286(9) 0.01160 270.3 24.5
286(9) 0.01071 270.3 23.5
280(9) 0.01103 270.3 22.5
311(9) 0.01038 270.3 21.7
304(9) 0.01094 270.3 20.8
304(9) 0.01066 270.3 20.1
279(9) 0.01113 270.3 19.4
291(10) 0.00969 270.3 18.8
271(9) 0.01097 270.3 18.2
285(9) 0.01184 270.3 17.7
282(9) 0.01157 270.3 17.2
292(9) 0.01095 270.3 16.8
288(9) 0.01088 270.3 16.4
302(9) 0.01073 270.3 16.1
292(9) 0.01153 270.3 15.9
305(9) 0.01070 270.3 15.7
277(9) 0.01131 270.3 15.5
296(9) 0.01013 270.3 15.4
294(9) 0.01072 270.3 15.3
278(9) 0.01196 270.3 15.3
258(8) 0.01252 270.3 15.3
294(9) 0.01029 270.3 15.3
273(9) 0.01156 270.3 15.3
280(9) 0.01120 270.3 15.4
296(9) 0.01138 270.3 15.5
276(9) 0.01148 270.3 15.7
278(9) 0.01127 270.3 15.8
293(9) 0.01040 270.3 16.0
302(9) 0.01024 270.3 16.2
290(9) 0.01148 270.3 16.4
295(9) 0.01038 270.3 16.7
290(9) 0.01050 270.3 17.0
301(9) 0.01028 270.3 17.2
299(9) 0.01063 270.3 17.5
294(9) 0.01134 270.3 17.8
262(9) 0.01194 270.3 18.1
291(10) 0.00992 270.3 18.4
282(9) 0.01114 270.3 18.7
285(9) 0.01151 270.3 19.0
282(9) 0.01145 270.3 19.2
302(9) 0.01058 270.3 19.5
289(9) 0.01071 270.3 19.8
311(10) 0.00972 270.3 20.0
292(9) 0.01139 270.3 20.2
285(9) 0.01173 270.3 20.4
275(9) 0.01141 270.3 20.6
294(10) 0.00988 270.3 20.7
280(9) 0.01133 270.3 20.8
311(9) 0.01086 270.3 20.9
293(9) 0.01133 270.3 20.9
297(9) 0.01080 270.3 20.9
315(10) 0.00942 270.3 20.8
310(9) 0.01043 270.3 20.7
296(9) 0.01134 270.3 20.6
276(9) 0.01183 270.3 20.5
307(9) 0.01029 270.3 20.3
273(9) 0.01122 270.3 20.1
303(9) 0.01038 270.3 19.8
299(9) 0.01092 270.3 19.5
296(9) 0.01121 270.3 19.2
278(9) 0.01126 270.3 18.9
302(10) 0.01007 270.3 18.6
294(9) 0.01108 270.3 18.3
296(9) 0.01123 270.3 17.9
285(9) 0.01163 270.3 17.6
296(9) 0.01035 270.3 17.2
285(9) 0.01065 270.3 16.9
275(9) 0.01139 270.3 16.5
288(9) 0.01166 270.3 16.2
283(9) 0.01164 270.3 15.8
263(9) 0.01179 270.3 15.5
293(10) 0.00996 270.3 15.2
265(9) 0.01188 270.3 14.9
301(9) 0.01119 270.3 14.6
287(9) 0.01092 270.3 14.3
271(9) 0.01155 270.3 14.0
278(9) 0.01148 270.3 13.7
298(9) 0.01045 270.3 13.5
282(9) 0.01184 270.3 13.3
282(9) 0.01126 270.3 13.0
290(9) 0.01058 270.3 12.8
294(9) 0.01067 270.3 12.7
290(9) 0.01094 270.3 12.5
292(9) 0.01148 270.3 12.3
301(9) 0.01027 270.3 12.2
286(9) 0.01062 270.3 12.1
269(9) 0.01163 270.3 12.0
291(9) 0.01106 270.3 11.9
273(9) 0.01221 270.3 11.8
284(9) 0.01045 270.3 11.8
278(9) 0.01060 270.3 11.7
282(9) 0.01105 270.3 11.7
286(9) 0.01136 270.3 11.7
248(8) 0.01309 270.3 11.7
271(9) 0.01142 270.3 11.8
304(10) 0.00941 270.3 11.8
304(9) 0.01023 270.3 11.9
294(9) 0.01136 270.3 12.0
287(9) 0.01141 270.3 12.1
284(9) 0.01113 270.3 12.2
284(10) 0.01007 270.3 12.3
284(9) 0.01095 270.3 12.4
299(9) 0.01117 270.3 12.6
267(9) 0.01221 270.3 12.8
303(9) 0.01009 270.3 13.0
284(9) 0.01048 270.3 13.2
278(9) 0.01102 270.3 13.4
275(9) 0.01220 270.3 13.7
282(9) 0.01166 270.3 13.9
293(9) 0.01038 270.3 14.2
301(10) 0.00973 270.3 14.5
295(9) 0.01026 270.3 14.8
259(8) 0.01287 270.3 15.2
311(9) 0.01055 270.3 15.5
289(9) 0.01101 270.3 15.9
284(9) 0.01070 270.3 16.2
288(9) 0.01059 270.3 16.6
294(9) 0.01127 270.3 17.0
266(9) 0.01219 270.3 17.5
279(9) 0.01110 270.3 17.9
271(9) 0.01114 270.3 18.3
276(9) 0.01083 270.3 18.8
299(9) 0.01120 270.3 19.3
290(9) 0.01097 270.3 19.7
309(10) 0.00973 270.3 20.2
298(9) 0.01019 270.3 20.7
286(9) 0.01136 270.3 21.2
313(9) 0.01063 270.3 21.7
304(9) 0.01043 270.3 22.2
298(9) 0.01018 270.3 22.7
279(9) 0.01117 270.3 23.2
277(9) 0.01167 270.3 23.7
316(9) 0.01052 270.3 24.1
315(10) 0.00999 270.3 24.6
305(10) 0.00992 270.3 25.0
311(10) 0.00986 270.3 25.4
292(9) 0.01109 270.3 25.8
310(9) 0.01085 270.3 26.1
309(10) 0.00993 270.3 26.4
318(10) 0.00918 270.3 26.7
295(9) 0.01077 270.3 27.0
292(9) 0.01124 270.3 27.1
283(9) 0.01173 270.3 27.3
284(9) 0.01116 270.3 27.4
298(10) 0.01005 270.3 27.4
280(9) 0.01127 270.3 27.4
287(9) 0.01159 270.3 27.4
283(9) 0.01180 270.3 27.3
304(9) 0.01043 270.3 27.1
308(10) 0.00915 270.3 26.9
280(9) 0.01100 270.3 26.7
286(9) 0.01165 270.3 26.4
300(9) 0.01088 270.3 26.1
284(9) 0.01110 270.3 25.8
289(9) 0.01036 270.3 25.4
294(9) 0.01063 270.3 25.0
293(9) 0.01137 270.3 24.5
281(9) 0.01184 270.3 24.1
293(9) 0.01069 270.3 23.6
271(9) 0.01121 270.3 23.1
295(9) 0.01050 270.3 22.7
292(9) 0.01144 270.3 22.2
276(9) 0.01180 270.3 21.7
292(9) 0.01062 270.3 21.2
277(9) 0.01112 270.3 20.7
284(9) 0.01077 270.3 20.2
305(9) 0.01098 270.3 19.7
272(9) 0.01161 270.3 19.2
279(9) 0.01065 270.3 18.7
265(9) 0.01130 270.3 18.3
283(9) 0.01104 270.3 17.8
291(9) 0.01146 270.3 17.4
286(9) 0.01128 270.3 16.9
302(9) 0.01009 270.3 16.5
260(9) 0.01176 270.3 16.1
285(9) 0.01123 270.3 15.7
270(9) 0.01224 270.3 15.3
284(9) 0.01121 270.3 15.0
304(9) 0.01017 270.3 14.6
301(9) 0.01033 270.3 14.3
269(9) 0.01195 270.3 14.0
283(9) 0.01174 270.3 13.7
281(9) 0.01128 270.3 13.4
282(9) 0.01123 270.3 13.1
294(9) 0.01046 270.3 12.8
279(9) 0.01152 270.3 12.6
258(8) 0.01246 270.3 12.3
271(9) 0.01136 270.3 12.1
289(10) 0.00990 270.3 11.9
285(9) 0.01101 270.3 11.7
274(9) 0.01185 270.3 11.5
291(9) 0.01145 270.3 11.4
267(9) 0.01183 270.3 11.2
254(9) 0.01141 270.3 11.0
262(9) 0.01175 270.3 10.9
249(8) 0.01278 270.3 10.8
263(8) 0.01264 270.3 10.7
277(9) 0.01111 270.3 10.6
269(9) 0.01074 270.3 10.5
263(9) 0.01226 270.3 10.4
292(9) 0.01146 270.3 10.3
292(9) 0.01109 270.3 10.2
278(9) 0.01097 270.3 10.2
264(9) 0.01099 270.3 10.1
287(9) 0.01067 270.3 10.1
291(9) 0.01125 270.3 10.1
258(8) 0.01297 270.3 10.1
284(9) 0.01050 270.3 10.1
264(9) 0.01116 270.3 10.1
247(8) 0.01273 270.3 10.1
273(9) 0.01215 270.2 10.1
290(9) 0.01093 270.2 10.1
261(9) 0.01211 270.2 10.1
255(9) 0.01225 270.2 10.2
270(9) 0.01189 270.2 10.2
304(9) 0.01108 270.2 10.3
302(9) 0.01044 270.2 10.3
276(9) 0.01147 270.2 10.4
290(9) 0.01044 270.1 10.5
272(9) 0.01194 270.1 10.5
275(9) 0.01204 270.1 10.6
283(9) 0.01106 270.1 10.7
269(9) 0.01103 270.1 10.8
268(9) 0.01086 270.1 10.9
281(9) 0.01126 270.1 11.1
295(9) 0.01142 270.0 11.2
270(9) 0.01160 270.0 11.3
297(10) 0.01004 270.0 11.5
285(9) 0.01081 270.0 11.6
298(9) 0.01087 270.0 11.8
294(9) 0.01136 270.0 12.0
290(9) 0.01104 270.0 12.1
288(9) 0.01093 270.0 12.3
261(9) 0.01230 269.9 12.5
306(9) 0.01046 269.9 12.7
271(9) 0.01221 269.9 12.9
261(9) 0.01187 269.9 13.1
276(9) 0.01098 269.9 13.3
267(9) 0.01181 269.9 13.5
283(9) 0.01160 269.9 13.7
257(8) 0.01296 269.9 13.9
279(9) 0.01105 269.8 14.2
268(9) 0.01135 269.8 14.4
275(9) 0.01138 269.8 14.6
279(9) 0.01185 269.8 14.8
295(9) 0.01131 269.8 15.0
288(9) 0.01102 269.8 15.2
275(9) 0.01085 269.8 15.4
282(9) 0.01100 269.7 15.6
275(9) 0.01210 269.7 15.7
283(9) 0.01162 269.7 15.9
301(9) 0.01026 269.7 16.0
307(10) 0.00957 269.7 16.2
295(9) 0.01079 269.7 16.3
268(8) 0.01243 269.7 16.4
256(8) 0.01281 269.7 16.6
267(9) 0.01183 269.6 16.7
277(9) 0.01047 269.6 16.8
297(9) 0.01048 269.6 16.9
299(9) 0.01123 269.6 17.0
298(9) 0.01101 269.6 17.1
293(9) 0.01063 269.6 17.2
264(9) 0.01157 269.6 17.3
279(9) 0.01127 269.6 17.4
310(9) 0.01088 269.5 17.5
296(9) 0.01105 269.5 17.7
270(9) 0.01158 269.5 17.8
280(9) 0.01075 269.5 18.0
285(9) 0.01096 269.5 18.2
282(9) 0.01173 269.5 18.4
268(9) 0.01224 269.5 18.6
266(9) 0.01125 269.4 18.8
296(9) 0.01015 269.4 19.1
289(9) 0.01115 269.4 19.4
293(9) 0.01148 269.4 19.7
281(9) 0.01129 269.4 20.1
281(9) 0.01094 269.4 20.5
286(9) 0.01096 269.4 21.0
298(9) 0.01074 269.4 21.6
290(9) 0.01164 269.3 22.3
277(9) 0.01158 269.3 23.1
299(9) 0.01048 269.3 24.1
290(9) 0.01102 269.3 25.3
295(9) 0.01116 269.3 26.8
298(9) 0.01129 269.3 28.7
309(9) 0.01014 269.3 30.9
294(9) 0.01067 269.3 33.6
309(9) 0.01021 269.2 36.8
314(9) 0.01057 269.2 40.5
328(9) 0.01025 269.2 44.5
340(10) 0.00930 269.2 48.7
316(10) 0.00949 269.2 52.7
312(9) 0.01018 269.2 55.9
304(9) 0.01096 269.2 57.7
340(10) 0.00988 269.1 57.7
297(9) 0.01106 269.1 55.9
312(10) 0.00958 269.1 52.8
324(10) 0.00975 269.1 49.0
319(9) 0.01043 269.1 44.9
315(9) 0.01059 269.1 41.1
315(10) 0.00968 269.1 37.7
289(9) 0.01041 269.1 34.7
299(9) 0.01049 269.0 32.1
304(9) 0.01121 269.0 30.0
293(9) 0.01103 269.0 28.3
316(10) 0.01002 269.0 26.9
308(10) 0.00939 269.0 25.8
297(9) 0.01032 269.0 24.8
320(9) 0.01041 269.0 24.1
275(9) 0.01190 269.0 23.4
297(9) 0.01054 268.9 22.8
286(9) 0.01070 268.9 22.3
292(9) 0.01066 268.9 21.8
292(9) 0.01133 268.9 21.4
292(9) 0.01129 268.9 20.9
300(9) 0.01069 268.9 20.5
297(9) 0.01016 268.9 20.1
274(9) 0.01106 268.8 19.8
294(9) 0.01134 268.8 19.4
268(9) 0.01189 268.8 19.0
288(9) 0.01076 268.8 18.7
291(9) 0.01016 268.8 18.3
292(9) 0.01061 268.8 18.0
287(9) 0.01172 268.8 17.6
279(9) 0.01125 268.8 17.3
291(9) 0.01045 268.7 16.9
282(9) 0.01099 268.7 16.6
309(9) 0.01053 268.7 16.3
278(9) 0.01188 268.7 16.0
287(9) 0.01116 268.7 15.7
304(10) 0.01005 268.7 15.3
273(9) 0.01126 268.7 15.0
271(9) 0.01181 268.7 14.7
289(9) 0.01149 268.6 14.5
272(9) 0.01137 268.6 14.2
293(9) 0.01017 268.6 13.9
311(10) 0.00975 268.6 13.6
270(9) 0.01204 268.6 13.4
280(9) 0.01180 268.6 13.1
273(9) 0.01135 268.6 12.9
251(9) 0.01206 268.5 12.6
254(9) 0.01209 268.5 12.4
287(9) 0.01132 268.5 12.1
284(9) 0.01175 268.5 11.9
292(9) 0.01069 268.5 11.7
281(9) 0.01045 268.5 11.5
275(9) 0.01123 268.5 11.3
276(9) 0.01202 268.5 11.1
253(8) 0.01290 268.4 10.9
279(9) 0.01136 268.4 10.7
301(10) 0.00989 268.4 10.5
289(9) 0.01088 268.4 10.4
283(9) 0.01185 268.4 10.2
266(9) 0.01225 268.4 10.0
298(10) 0.00976 268.4 9.9
269(9) 0.01071 268.4 9.7
261(8) 0.01232 268.3 9.6
280(9) 0.01182 268.3 9.5
278(9) 0.01191 268.3 9.4
289(9) 0.01100 268.3 9.2
278(9) 0.01081 268.3 9.1
260(9) 0.01212 268.3 9.0
278(9) 0.01206 268.3 8.9
263(8) 0.01241 268.2 8.8
284(9) 0.01092 268.2 8.7
276(9) 0.01066 268.2 8.7
268(9) 0.01131 268.2 8.6
265(8) 0.01250 268.2 8.5
278(9) 0.01173 268.2 8.4
267(9) 0.01154 268.2 8.4
284(9) 0.01074 268.2 8.3
261(8) 0.01239 268.1 8.3
279(9) 0.01193 268.1 8.2
291(9) 0.01096 268.1 8.2
293(9) 0.01035 268.1 8.2
278(9) 0.01099 268.1 8.2
279(9) 0.01153 268.1 8.1
280(9) 0.01184 268.1 8.1
265(9) 0.01166 268.1 8.1
285(9) 0.01047 268.0 8.1
270(9) 0.01163 268.0 8.1
266(9) 0.01215 268.0 8.1
292(9) 0.01144 268.0 8.2
295(9) 0.01047 268.0 8.2
284(9) 0.01093 268.0 8.2
262(9) 0.01214 268.0 8.3
259(9) 0.01211 267.9 8.3
254(8) 0.01313 267.9 8.4
267(9) 0.01132 267.9 8.5
256(9) 0.01174 267.9 8.6
287(9) 0.01105 267.9 8.7
302(9) 0.01080 267.9 8.8
279(9) 0.01184 267.9 8.9
278(9) 0.01117 267.9 9.0
261(9) 0.01156 267.8 9.2
274(9) 0.01131 267.8 9.4
284(9) 0.01167 267.8 9.6
277(9) 0.01194 267.8 9.8
281(9) 0.01126 267.8 10.1
300(10) 0.00940 267.8 10.4
269(9) 0.01173 267.8 10.8
291(9) 0.01131 267.8 11.2
291(9) 0.01140 267.7 11.7
286(9) 0.01100 267.7 12.3
275(9) 0.01103 267.7 13.1
282(9) 0.01125 267.7 14.0
298(9) 0.01103 267.7 15.1
283(9) 0.01176 267.7 16.5
300(9) 0.01054 267.7 18.3
297(9) 0.01010 267.6 20.4
304(9) 0.01057 267.6 23.0
321(9) 0.01045 267.6 26.0
312(9) 0.01076 267.6 29.7
289(9) 0.01076 267.6 33.9
310(10) 0.00950 267.6 38.6
291(9) 0.01076 267.6 43.6
323(9) 0.01046 267.6 48.8
322(9) 0.01044 267.5 53.6
321(9) 0.01014 267.5 57.5
318(10) 0.00988 267.5 59.8
346(10) 0.00933 267.5 60.1
322(9) 0.01052 267.5 58.2
309(9) 0.01033 267.5 54.7
316(10) 0.00974 267.5 50.0
307(9) 0.01010 267.5 44.8
306(9) 0.01038 267.4 39.7
296(9) 0.01130 267.4 34.8
318(9) 0.01022 267.4 30.5
300(9) 0.01011 267.4 26.7
280(9) 0.01126 267.4 23.5
274(9) 0.01186 267.4 20.7
269(9) 0.01220 267.4 18.5
290(9) 0.01088 267.3 16.7
280(9) 0.01091 267.3 15.2
285(9) 0.01112 267.3 14.0
289(9) 0.01112 267.3 13.0
276(9) 0.01207 267.3 12.2
285(9) 0.01069 267.3 11.5
297(10) 0.00994 267.3 11.0
292(9) 0.01076 267.3 10.5
285(9) 0.01135 267.2 10.1
289(9) 0.01152 267.2 9.8
303(9) 0.01021 267.2 9.5
276(9) 0.01061 267.2 9.2
255(8) 0.01241 267.2 9.0
283(9) 0.01175 267.2 8.8
278(9) 0.01175 267.2 8.6
256(8) 0.01247 267.2 8.4
255(9) 0.01173 267.1 8.3
303(9) 0.01013 267.1 8.2
282(9) 0.01165 267.1 8.1
278(9) 0.01204 267.1 7.9
260(9) 0.01223 267.1 7.8
260(9) 0.01103 267.1 7.8
281(9) 0.01083 267.1 7.7
302(9) 0.01106 267.0 7.6
283(9) 0.01158 267.0 7.5
261(9) 0.01225 267.0 7.5
287(9) 0.01027 267.0 7.4
284(9) 0.01104 267.0 7.4
282(9) 0.01149 267.0 7.3
277(9) 0.01185 267.0 7.3
279(9) 0.01097 267.0 7.3
264(9) 0.01133 266.9 7.2
275(9) 0.01140 266.9 7.2
266(8) 0.01239 266.9 7.2
274(9) 0.01158 266.9 7.2
271(9) 0.01135 266.9 7.2
275(9) 0.01054 266.9 7.2
296(10) 0.00950 266.9 7.2
291(9) 0.01152 266.9 7.2
285(9) 0.01138 266.8 7.2
274(9) 0.01138 266.8 7.2
281(9) 0.01104 266.8 7.3
301(9) 0.01046 266.8 7.3
290(9) 0.01145 266.8 7.4
274(9) 0.01146 266.8 7.5
291(9) 0.01042 266.8 7.6
269(9) 0.01146 266.7 7.8
268(9) 0.01174 266.7 8.0
274(9) 0.01221 266.7 8.3
290(9) 0.01070 266.7 8.6
267(9) 0.01119 266.7 9.0
261(9) 0.01185 266.7 9.4
284(9) 0.01129 266.7 9.9
281(9) 0.01174 266.7 10.5
287(9) 0.01114 266.6 11.0
318(10) 0.00948 266.6 11.6
292(9) 0.01095 266.6 12.1
294(9) 0.01116 266.6 12.5
291(9) 0.01140 266.6 12.7
299(9) 0.01059 266.6 12.7
299(10) 0.00992 266.6 12.5
293(9) 0.01050 266.6 12.0
292(9) 0.01126 266.5 11.4
300(9) 0.01109 266.5 10.8
298(9) 0.01066 266.5 10.2
265(9) 0.01145 266.5 9.6
282(9) 0.01142 266.5 9.0
306(9) 0.01097 266.5 8.5
298(9) 0.01110 266.5 8.1
288(9) 0.01109 266.4 7.7
280(9) 0.01060 266.4 7.4
286(9) 0.01119 266.4 7.1
274(9) 0.01215 266.4 6.9
286(9) 0.01168 266.4 6.7
273(9) 0.01129 266.4 6.5
274(9) 0.01075 266.4 6.4
268(9) 0.01183 266.4 6.3
269(9) 0.01231 266.3 6.2
277(9) 0.01165 266.3 6.1
293(9) 0.01059 266.3 6.0
273(9) 0.01090 266.3 6.0
253(9) 0.01224 266.3 5.9
277(9) 0.01194 266.3 5.9
272(9) 0.01210 266.3 5.9
279(9) 0.01141 266.3 5.8
288(9) 0.01032 266.2 5.8
269(9) 0.01132 266.2 5.8
274(9) 0.01210 266.2 5.7
251(8) 0.01246 266.2 5.7
270(9) 0.01105 266.2 5.7
279(9) 0.01091 266.2 5.7
278(9) 0.01098 266.2 5.7
259(8) 0.01267 266.1 5.7
262(8) 0.01233 266.1 5.7
281(9) 0.01090 266.1 5.7
273(9) 0.01152 266.1 5.7
270(9) 0.01164 266.1 5.7
290(9) 0.01145 266.1 5.7
278(9) 0.01108 266.2 5.7
286(9) 0.01049 266.2 5.8
282(9) 0.01072 266.2 5.8
245(8) 0.01311 266.3 5.8
257(8) 0.01273 266.3 5.8
277(9) 0.01117 266.3 5.9
288(9) 0.01065 266.4 5.9
268(9) 0.01142 266.4 5.9
271(9) 0.01167 266.4 6.0
278(9) 0.01208 266.4 6.0
285(9) 0.01100 266.5 6.0
278(9) 0.01062 266.5 6.1
259(9) 0.01207 266.5 6.1
283(9) 0.01187 266.6 6.2
308(9) 0.01082 266.6 6.3
286(9) 0.01059 266.6 6.3
264(9) 0.01086 266.7 6.4
291(9) 0.01045 266.7 6.5
268(9) 0.01216 266.7 6.5
281(9) 0.01185 266.8 6.6
277(9) 0.01124 266.8 6.7
295(10) 0.00975 266.8 6.8
281(9) 0.01108 266.8 6.9
282(9) 0.01191 266.9 7.0
263(8) 0.01235 266.9 7.1
284(9) 0.01125 266.9 7.2
298(10) 0.00974 267.0 7.3
275(9) 0.01138 267.0 7.4
275(9) 0.01200 267.0 7.5
265(8) 0.01259 267.1 7.7
283(9) 0.01101 267.1 7.8
296(9) 0.01009 267.1 8.0
283(9) 0.01118 267.2 8.1
261(8) 0.01255 267.2 8.3
276(9) 0.01162 267.2 8.5
293(9) 0.01058 267.2 8.6
286(9) 0.01044 267.3 8.8
287(9) 0.01079 267.3 9.1
280(9) 0.01175 267.3 9.3
278(9) 0.01156 267.4 9.5
289(9) 0.01078 267.4 9.8
273(9) 0.01115 267.4 10.1
281(9) 0.01115 267.5 10.4
294(9) 0.01137 267.5 10.7
273(9) 0.01211 267.5 11.1
276(9) 0.01127 267.6 11.5
286(9) 0.01034 267.6 11.9
283(9) 0.01135 267.6 12.4
273(9) 0.01210 267.6 12.9
269(9) 0.01168 267.7 13.5
278(9) 0.01092 267.7 14.1
268(9) 0.01151 267.7 14.8
297(9) 0.01092 267.8 15.5
280(9) 0.01184 267.8 16.4
282(9) 0.01056 267.8 17.2
285(9) 0.01039 267.9 18.2
265(9) 0.01206 267.9 19.2
301(9) 0.01114 267.9 20.3
297(9) 0.01055 268.0 21.5
320(10) 0.00914 268.0 22.7
324(10) 0.00932 268.0 23.9
313(9) 0.01050 268.0 25.2
308(9) 0.01088 268.1 26.4
316(10) 0.00998 268.1 27.6
293(10) 0.01003 268.1 28.6
323(10) 0.00954 268.2 29.5
296(9) 0.01083 268.2 30.2
292(9) 0.01149 268.2 30.7
299(9) 0.01016 268.3 31.0
316(10) 0.00905 268.3 30.9
291(9) 0.01104 268.3 30.7
279(9) 0.01174 268.4 30.2
282(9) 0.01184 268.4 29.6
300(9) 0.01053 268.4 28.8
304(10) 0.00935 268.4 27.9
277(9) 0.01153 268.5 26.9
295(9) 0.01137 268.5 26.0
305(9) 0.01109 268.5 25.0
311(9) 0.01051 268.6 24.0
300(9) 0.01016 268.6 23.0
311(9) 0.01009 268.6 22.1
314(9) 0.01072 268.7 21.2
301(9) 0.01123 268.7 20.4
276(9) 0.01128 268.7 19.7
278(9) 0.01099 268.8 19.0
304(10) 0.01002 268.8 18.4
292(9) 0.01139 268.8 17.8
303(9) 0.01051 268.8 17.3
296(9) 0.01039 268.9 16.8
306(10) 0.00971 268.9 16.3
284(9) 0.01064 268.9 15.9
269(8) 0.01231 269.0 15.6
286(9) 0.01120 269.0 15.2
288(9) 0.01074 269.0 14.9
296(9) 0.01015 269.1 14.6
279(9) 0.01107 269.1 14.4
278(9) 0.01194 269.1 14.1
272(9) 0.01152 269.2 13.9
284(9) 0.01101 269.2 13.7
291(9) 0.01070 269.2 13.5
296(9) 0.01085 269.2 13.3
275(9) 0.01217 269.3 13.1
285(9) 0.01068 269.3 13.0
302(10) 0.00968 269.3 12.8
287(9) 0.01061 269.4 12.7
290(9) 0.01113 269.4 12.5
278(9) 0.01186 269.4 12.4
280(9) 0.01124 269.5 12.3
279(9) 0.01084 269.5 12.2
283(9) 0.01124 269.5 12.0
279(9) 0.01170 269.6 11.9
288(9) 0.01158 269.6 11.8
293(9) 0.01048 269.6 11.7
280(9) 0.01058 269.6 11.6
291(9) 0.01051 269.7 11.5
293(9) 0.01098 269.7 11.4
276(9) 0.01212 269.7 11.4
275(9) 0.01160 269.8 11.3
295(9) 0.01034 269.8 11.2
307(9) 0.01037 269.8 11.1
274(9) 0.01180 269.9 11.1
294(9) 0.01131 269.9 11.0
290(9) 0.01104 269.9 10.9
292(10) 0.00983 270.0 10.9
292(9) 0.01092 270.0 10.8
282(9) 0.01163 270.0 10.8
287(9) 0.01152 270.0 10.7
273(9) 0.01158 270.1 10.7
297(10) 0.00981 270.1 10.6
303(10) 0.01003 270.1 10.6
291(9) 0.01162 270.2 10.5
275(9) 0.01163 270.2 10.5
273(9) 0.01138 270.2 10.5
288(9) 0.01027 270.3 10.4
287(9) 0.01095 270.3 10.4
266(8) 0.01248 270.3 10.4
275(9) 0.01180 270.4 10.3
291(9) 0.01085 270.4 10.3
287(9) 0.01085 270.4 10.3
294(9) 0.01068 270.4 10.2
261(8) 0.01257 270.5 10.2
270(9) 0.01197 270.5 10.2
278(9) 0.01135 270.5 10.2
284(9) 0.01075 270.6 10.1
277(9) 0.01129 270.6 10.1
294(9) 0.01136 270.6 10.1
264(9) 0.01211 270.7 10.0
305(9) 0.01010 270.7 10.0
287(9) 0.01078 270.7 10.0
291(9) 0.01103 270.8 9.9
297(9) 0.01126 270.8 9.9
281(9) 0.01145 270.8 9.9
300(10) 0.00982 270.8 9.8
291(9) 0.01055 270.9 9.8
283(9) 0.01131 270.9 9.8
285(9) 0.01164 270.9 9.7
282(9) 0.01121 271.0 9.7
294(9) 0.01057 271.0 9.6
271(9) 0.01169 271.0 9.6
282(9) 0.01151 271.1 9.6
301(9) 0.01091 271.1 9.5
279(9) 0.01132 271.1 9.5
306(10) 0.00984 271.2 9.4
288(9) 0.01102 271.2 9.4
273(9) 0.01209 271.2 9.4
282(9) 0.01164 271.2 9.3
299(9) 0.01027 271.3 9.3
300(10) 0.01006 271.3 9.3
298(9) 0.01034 271.3 9.2
272(9) 0.01193 271.4 9.2
279(9) 0.01180 271.4 9.2
307(9) 0.01025 271.4 9.2
287(9) 0.01061 271.5 9.2
293(9) 0.01073 271.5 9.2
278(9) 0.01208 271.5 9.1
278(9) 0.01188 271.6 9.1
294(9) 0.01069 271.6 9.1
294(10) 0.01002 271.6 9.2
279(9) 0.01132 271.6 9.2
305(9) 0.01085 271.7 9.2
299(9) 0.01115 271.7 9.2
291(9) 0.01055 271.7 9.3
260(9) 0.01163 271.8 9.3
288(9) 0.01055 271.8 9.4
294(9) 0.01146 271.8 9.4
307(9) 0.01090 271.9 9.5
292(9) 0.01090 271.9 9.6
265(9) 0.01172 271.9 9.7
269(9) 0.01147 272.0 9.8
291(9) 0.01155 272.0 10.0
276(9) 0.01179 272.0 10.1
295(9) 0.01061 272.0 10.3
284(9) 0.01051 272.1 10.5
282(9) 0.01054 272.1 10.7
291(9) 0.01136 272.1 11.0
287(9) 0.01149 272.2 11.3
276(9) 0.01134 272.2 11.7
275(9) 0.01136 272.2 12.2
264(8) 0.01235 272.3 12.7
302(9) 0.01109 272.3 13.4
288(9) 0.01123 272.3 14.1
277(9) 0.01113 272.4 15.0
279(9) 0.01113 272.4 16.1
323(10) 0.00992 272.4 17.4
310(9) 0.01077 272.4 18.9
288(9) 0.01103 272.5 20.6
283(9) 0.01111 272.5 22.5
303(9) 0.01015 272.5 24.5
313(9) 0.01028 272.6 26.7
305(9) 0.01083 272.6 29.0
290(9) 0.01084 272.6 31.1
320(10) 0.00931 272.7 32.9
284(9) 0.01116 272.7 34.2
310(9) 0.01076 272.7 34.9
310(9) 0.01071 272.8 34.7
296(9) 0.01065 272.8 33.9
289(9) 0.01067 272.8 32.5
293(9) 0.01088 272.8 30.7
283(9) 0.01168 272.9 28.9
286(9) 0.01173 272.9 27.0
314(10) 0.00992 272.9 25.3
280(9) 0.01032 273.0 23.8
282(9) 0.01140 273.0 22.4
316(9) 0.01056 273.0 21.3
295(9) 0.01138 273.1 20.4
306(9) 0.01019 273.1 19.7
292(10) 0.00999 273.1 19.2
300(9) 0.01073 273.2 18.8
292(9) 0.01137 273.2 18.6
316(9) 0.01067 273.2 18.5
309(10) 0.00978 273.3 18.5
297(10) 0.00977 273.3 18.6
323(10) 0.00965 273.3 18.8
280(9) 0.01189 273.3 19.0
296(9) 0.01099 273.4 19.4
305(9) 0.01040 273.4 19.8
309(10) 0.00968 273.4 20.3
299(9) 0.01061 273.5 20.8
302(9) 0.01106 273.5 21.5
303(9) 0.01082 273.5 22.2
298(9) 0.01047 273.6 23.1
306(10) 0.01005 273.6 24.1
300(9) 0.01040 273.6 25.2
326(9) 0.01031 273.7 26.6
303(9) 0.01090 273.7 28.1
298(9) 0.01050 273.7 29.9
310(10) 0.00999 273.7 32.0
306(9) 0.01047 273.8 34.4
317(9) 0.01059 273.8 37.2
322(10) 0.01001 273.8 40.4
311(9) 0.01013 273.9 43.9
316(10) 0.01000 273.9 47.9
316(9) 0.01027 273.9 52.3
306(9) 0.01098 274.0 57.0
334(10) 0.00934 274.0 61.9
319(10) 0.00957 274.0 67.0
327(10) 0.00963 274.1 71.8
355(10) 0.00939 274.1 76.1
371(10) 0.00908 274.1 79.6
338(10) 0.00951 274.1 81.9
335(10) 0.00943 274.2 82.7
346(10) 0.00943 274.2 82.1
332(10) 0.00989 274.2 80.3
340(10) 0.00994 274.3 77.6
338(10) 0.00947 274.3 74.3
341(10) 0.00863 274.3 70.9
345(10) 0.00962 274.4 67.7
332(10) 0.01000 274.4 64.8
339(10) 0.01003 274.4 62.3
319(10) 0.00986 274.5 60.4
337(10) 0.00884 274.5 58.9
323(10) 0.00987 274.5 57.8
344(10) 0.00972 274.5 57.1
291(9) 0.01142 274.6 56.6
314(9) 0.01020 274.6 56.0
335(10) 0.00880 274.6 55.2
346(10) 0.00934 274.7 54.0
320(9) 0.01038 274.7 52.5
318(9) 0.01060 274.7 50.5
315(9) 0.01036 274.8 48.3
317(10) 0.00932 274.8 45.9
319(10) 0.00987 274.8 43.4
316(9) 0.01057 274.9 41.0
311(9) 0.01074 274.9 38.8
330(10) 0.00975 274.9 36.7
305(10) 0.01003 274.9 34.8
319(10) 0.00967 275.0 33.2
314(9) 0.01074 275.0 31.8
318(9) 0.01033 275.0 30.7
316(10) 0.01005 275.1 29.7
318(10) 0.00956 275.1 29.0
287(9) 0.01111 275.1 28.4
299(9) 0.01130 275.2 28.0
327(10) 0.01006 275.2 27.8
319(10) 0.01003 275.2 27.7
317(10) 0.00988 275.3 27.8
301(9) 0.01056 275.3 28.0
299(9) 0.01119 275.3 28.3
306(9) 0.01043 275.3 28.7
311(10) 0.00959 275.4 29.2
332(10) 0.00912 275.4 29.7
294(9) 0.01100 275.4 30.4
330(9) 0.01026 275.5 31.1
315(9) 0.01024 275.5 31.9
320(10) 0.00962 275.5 32.7
315(9) 0.01013 275.6 33.6
300(9) 0.01081 275.6 34.5
300(9) 0.01126 275.6 35.4
306(10) 0.01001 275.7 36.3
324(10) 0.00947 275.7 37.2
325(10) 0.00950 275.7 38.0
319(9) 0.01022 275.7 38.8
312(9) 0.01085 275.8 39.5
298(9) 0.01067 275.8 40.1
311(10) 0.00990 275.8 40.7
313(9) 0.01022 275.9 41.2
304(9) 0.01083 275.9 41.5
337(10) 0.00991 275.9 41.8
314(10) 0.01005 276.0 41.9
307(10) 0.00956 276.0 41.9
304(9) 0.01032 276.0 41.8
312(9) 0.01064 276.1 41.6
319(9) 0.01041 276.1 41.2
312(9) 0.01044 276.1 40.7
332(10) 0.00897 276.1 40.1
314(9) 0.01010 276.2 39.4
296(9) 0.01142 276.2 38.6
287(9) 0.01127 276.2 37.7
301(9) 0.01033 276.3 36.8
304(10) 0.00942 276.3 35.7
322(10) 0.00982 276.3 34.7
313(9) 0.01062 276.4 33.6
294(9) 0.01093 276.4 32.5
279(9) 0.01133 276.4 31.4
290(9) 0.01020 276.5 30.3
289(9) 0.01104 276.5 29.3
299(9) 0.01125 276.5 28.3
321(9) 0.01015 276.5 27.3
310(10) 0.01005 276.6 26.4
291(9) 0.01064 276.6 25.6
301(9) 0.01036 276.6 24.8
302(9) 0.01100 276.7 24.0
310(9) 0.01062 276.7 23.3
312(9) 0.01012 276.7 22.7
296(9) 0.01019 276.8 22.1
293(9) 0.01080 276.8 21.6
283(9) 0.01171 276.8 21.1
273(9) 0.01177 276.9 20.7
289(9) 0.01083 276.9 20.3
287(9) 0.01085 276.9 20.0
294(9) 0.01082 276.9 19.6
278(9) 0.01205 277.0 19.4
283(9) 0.01160 277.0 19.1
304(9) 0.01020 277.0 18.9
299(9) 0.01036 277.1 18.7
301(9) 0.01067 277.1 18.5
296(9) 0.01122 277.1 18.3
305(9) 0.01016 277.2 18.1
290(9) 0.01071 277.2 18.0
265(9) 0.01169 277.2 17.8
303(9) 0.01083 277.3 17.7
305(9) 0.01079 277.3 17.6
297(9) 0.01047 277.3 17.5
294(9) 0.01014 277.3 17.5
285(9) 0.01053 277.4 17.5
271(9) 0.01169 277.4 17.5
251(8) 0.01315 277.4 17.6
308(9) 0.01021 277.5 17.7
299(10) 0.00998 277.5 18.0
289(9) 0.01087 277.5 18.3
294(9) 0.01116 277.6 18.7
283(9) 0.01171 277.6 19.2
280(9) 0.01109 277.6 19.8
296(10) 0.00965 277.7 20.6
299(9) 0.01058 277.7 21.5
298(9) 0.01113 277.7 22.6
299(9) 0.01106 277.7 23.8
282(9) 0.01076 277.8 25.2
281(9) 0.01040 277.8 26.8
308(10) 0.00996 277.8 28.5
295(9) 0.01144 277.9 30.4
315(9) 0.01056 277.9 32.4
335(10) 0.00928 277.9 34.5
316(10) 0.00955 278.0 36.6
333(10) 0.00930 278.0 38.7
321(9) 0.01047 278.0 40.7
326(9) 0.01018 278.1 42.5
372(10) 0.00845 278.1 43.8
337(10) 0.00910 278.1 44.7
336(10) 0.00936 278.1 45.0
340(10) 0.01005 278.2 44.8
334(10) 0.00993 278.2 43.9
338(10) 0.00938 278.2 42.6
321(10) 0.00942 278.3 40.9
329(10) 0.00926 278.3 39.0
340(10) 0.01004 278.3 36.9
331(10) 0.01004 278.4 34.8
305(9) 0.01064 278.4 32.7
310(9) 0.01026 278.4 30.7
328(10) 0.00971 278.5 28.8
316(9) 0.01072 278.5 27.1
321(10) 0.00991 278.5 25.5
321(10) 0.00949 278.5 24.2
311(10) 0.00989 278.6 23.0
287(9) 0.01110 278.6 21.9
300(9) 0.01115 278.6 21.1
286(9) 0.01105 278.7 20.4
301(9) 0.01036 278.7 19.8
308(9) 0.01014 278.7 19.4
300(9) 0.01085 278.8 19.1
328(9) 0.01028 278.8 19.0
308(9) 0.01021 278.8 19.0
308(10) 0.01006 278.9 19.1
316(9) 0.01016 278.9 19.4
321(9) 0.01030 278.9 19.7
286(9) 0.01154 278.9 20.2
301(9) 0.01035 279.0 20.8
277(9) 0.01052 279.0 21.5
299(10) 0.01007 279.0 22.3
286(9) 0.01150 279.1 23.3
308(9) 0.01093 279.1 24.4
314(9) 0.01025 279.1 25.6
291(9) 0.01040 279.2 26.9
295(9) 0.01076 279.2 28.4
310(9) 0.01074 279.2 30.0
310(9) 0.01087 279.3 31.7
317(10) 0.00987 279.3 33.4
320(10) 0.00921 279.3 35.3
322(10) 0.00967 279.3 37.2
310(9) 0.01090 279.4 39.2
318(9) 0.01050 279.4 41.2
299(9) 0.01056 279.4 43.1
317(10) 0.00908 279.5 44.8
322(10) 0.00986 279.5 46.4
314(9) 0.01051 279.5 47.8
304(9) 0.01062 279.6 48.8
336(10) 0.00949 279.6 49.5
349(10) 0.00861 279.6 49.7
328(10) 0.00970 279.7 49.6
343(10) 0.00990 279.7 49.0
297(9) 0.01077 279.7 48.0
314(10) 0.00996 279.7 46.7
317(10) 0.00972 279.8 45.1
313(10) 0.00959 279.8 43.3
314(9) 0.01074 279.8 41.3
331(10) 0.00970 279.9 39.3
315(10) 0.00999 279.9 37.2
297(9) 0.01045 279.9 35.1
337(10) 0.00963 280.0 33.1
332(9) 0.01023 280.0 31.2
294(9) 0.01128 280.0 29.3
314(10) 0.00981 280.1 27.6
280(9) 0.01097 280.1 25.9
301(9) 0.01025 280.1 24.4
303(9) 0.01107 280.1 23.0
297(9) 0.01083 280.2 21.7
308(10) 0.00989 280.2 20.5
284(9) 0.01100 280.2 19.4
285(9) 0.01130 280.3 18.5
295(9) 0.01134 280.3 17.6
304(9) 0.01046 280.3 16.9
319(10) 0.00973 280.4 16.2
294(9) 0.01065 280.4 15.7
288(9) 0.01150 280.4 15.2
295(9) 0.01112 280.5 14.9
281(9) 0.01127 280.5 14.6
287(9) 0.01051 280.5 14.4
292(9) 0.01119 280.5 14.2
314(9) 0.01043 280.6 14.2
326(9) 0.01031 280.6 14.2
316(10) 0.00998 280.6 14.3
296(10) 0.01002 280.7 14.5
315(9) 0.01024 280.7 14.7
280(9) 0.01159 280.7 15.0
297(9) 0.01120 280.8 15.3
299(9) 0.01017 280.8 15.7
268(9) 0.01095 280.8 16.1
263(9) 0.01229 280.9 16.5
309(9) 0.01065 280.9 16.9
290(9) 0.01137 280.9 17.4
283(9) 0.01140 280.9 17.7
301(10) 0.00991 281.0 18.0
304(9) 0.01035 281.0 18.2
297(9) 0.01125 281.0 18.3
299(9) 0.01074 281.1 18.3
300(9) 0.01039 281.1 18.1
319(10) 0.00947 281.1 17.8
294(9) 0.01063 281.2 17.4
311(9) 0.01068 281.2 16.9
309(9) 0.01072 281.2 16.4
323(10) 0.00939 281.3 15.8
322(10) 0.00944 281.3 15.2
322(10) 0.00970 281.3 14.6
306(9) 0.01093 281.4 14.0
298(9) 0.01069 281.4 13.4
316(10) 0.00977 281.4 12.9
293(9) 0.01042 281.4 12.4
277(9) 0.01120 281.5 12.0
281(9) 0.01188 281.5 11.6
298(9) 0.01092 281.5 11.3
286(9) 0.01111 281.6 11.0
301(9) 0.01060 281.6 10.7
293(9) 0.01098 281.6 10.5
285(9) 0.01164 281.7 10.4
276(9) 0.01138 281.7 10.3
265(9) 0.01207 281.7 10.2
288(9) 0.01071 281.8 10.2
296(9) 0.01083 281.8 10.2
290(9) 0.01145 281.8 10.2
305(9) 0.01053 281.8 10.4
296(9) 0.01077 281.9 10.5
300(9) 0.01064 281.9 10.7
313(9) 0.01054 281.9 11.0
297(9) 0.01127 282.0 11.3
297(9) 0.01037 282.0 11.7
268(9) 0.01164 282.0 12.2
288(9) 0.01100 282.1 12.7
271(9) 0.01221 282.1 13.3
291(9) 0.01142 282.1 14.0
303(9) 0.01017 282.2 14.7
280(9) 0.01079 282.2 15.5
303(9) 0.01034 282.2 16.5
319(9) 0.01055 282.2 17.4
301(9) 0.01110 282.3 18.5
303(9) 0.01051 282.3 19.6
287(9) 0.01030 282.3 20.7
284(9) 0.01115 282.4 21.8
304(9) 0.01109 282.4 22.9
297(9) 0.01117 282.4 23.9
295(9) 0.01056 282.5 24.7
299(10) 0.00963 282.5 25.4
280(9) 0.01153 282.5 25.8
294(9) 0.01145 282.6 25.9
299(9) 0.01087 282.6 25.8
296(9) 0.01051 282.6 25.5
293(9) 0.01013 282.6 24.9
291(9) 0.01072 282.7 24.3
292(9) 0.01137 282.7 23.5
297(9) 0.01107 282.7 22.7
308(9) 0.01028 282.8 21.9
294(9) 0.01038 282.8 21.1
304(9) 0.01038 282.8 20.4
290(9) 0.01158 282.9 19.7
311(9) 0.01052 282.9 19.2
294(9) 0.01072 282.9 18.7
299(9) 0.01064 283.0 18.3
299(9) 0.01052 283.0 18.0
289(9) 0.01146 283.0 17.9
280(9) 0.01151 283.0 17.8
264(9) 0.01186 283.1 17.8
305(10) 0.00991 283.1 17.9
307(9) 0.01043 283.1 18.1
287(9) 0.01163 283.2 18.3
295(9) 0.01061 283.2 18.7
275(9) 0.01108 283.2 19.1
295(9) 0.01053 283.3 19.5
314(9) 0.01045 283.3 20.1
328(9) 0.01022 283.3 20.7
296(9) 0.01073 283.4 21.3
301(9) 0.01034 283.4 22.0
317(10) 0.01006 283.4 22.8
330(10) 0.00995 283.4 23.6
330(9) 0.01027 283.5 24.4
315(10) 0.01005 283.5 25.3
314(10) 0.00961 283.5 26.2
303(9) 0.01056 283.6 27.1
324(9) 0.01031 283.6 28.1
306(9) 0.01104 283.6 29.0
340(10) 0.00927 283.7 30.0
326(10) 0.00881 283.7 30.9
304(9) 0.01026 283.7 31.8
299(9) 0.01096 283.8 32.7
313(9) 0.01073 283.8 33.5
329(10) 0.00966 283.8 34.2
311(10) 0.00971 283.8 34.8
306(9) 0.01035 283.9 35.4
324(9) 0.01034 283.9 35.8
333(9) 0.01024 283.9 36.1
301(9) 0.01083 284.0 36.3
331(10) 0.00877 284.0 36.4
329(10) 0.00967 284.0 36.3
326(9) 0.01040 284.1 36.1
327(9) 0.01009 284.1 35.7
297(9) 0.01071 284.1 35.2
328(10) 0.00874 284.2 34.6
321(10) 0.00998 284.2 33.9
305(9) 0.01092 284.2 33.2
301(9) 0.01076 284.2 32.3
308(9) 0.01016 284.3 31.4
306(10) 0.00981 284.3 30.4
290(9) 0.01069 284.3 29.4
305(9) 0.01103 284.4 28.4
285(9) 0.01140 284.4 27.4
330(10) 0.00956 284.4 26.4
303(10) 0.01006 284.5 25.4
312(9) 0.01019 284.5 24.4
292(9) 0.01141 284.5 23.4
303(9) 0.01047 284.6 22.4
301(9) 0.01043 284.6 21.5
293(9) 0.01065 284.6 20.6
285(9) 0.01105 284.6 19.8
295(9) 0.01144 284.7 19.0
302(9) 0.01039 284.7 18.2
294(10) 0.00999 284.7 17.4
291(9) 0.01058 284.8 16.7
293(9) 0.01093 284.8 16.1
307(9) 0.01088 284.8 15.4
282(9) 0.01146 284.9 14.8
320(10) 0.00961 284.9 14.3
324(10) 0.00969 284.9 13.7
309(9) 0.01080 285.0 13.2
311(9) 0.01081 285.0 12.8
313(10) 0.00966 285.0 12.3
285(9) 0.01041 285.0 11.9
321(10) 0.00959 285.1 11.6
302(9) 0.01098 285.1 11.2
296(9) 0.01132 285.1 10.9
311(10) 0.00980 285.2 10.6
308(10) 0.00979 285.2 10.3
312(10) 0.00997 285.2 10.1
284(9) 0.01180 285.3 9.8
298(9) 0.01104 285.3 9.6
301(9) 0.01027 285.3 9.4
306(10) 0.00992 285.4 9.2
308(9) 0.01026 285.4 9.1
311(9) 0.01080 285.4 8.9
284(9) 0.01162 285.4 8.8
303(9) 0.01035 285.5 8.7
307(10) 0.00945 285.5 8.6
290(9) 0.01048 285.5 8.5
290(9) 0.01159 285.6 8.4
306(9) 0.01069 285.6 8.3
321(10) 0.01006 285.6 8.2
306(10) 0.00982 285.7 8.1
299(9) 0.01039 285.7 8.1
287(9) 0.01152 285.7 8.0
298(9) 0.01132 285.8 8.0
294(9) 0.01046 285.8 7.9
300(10) 0.01006 285.8 7.9
278(9) 0.01088 285.8 7.8
291(9) 0.01137 285.9 7.8
312(9) 0.01052 285.9 7.7
283(9) 0.01121 285.9 7.7
301(10) 0.00988 286.0 7.7
287(9) 0.01041 286.0 7.6
286(9) 0.01157 286.0 7.6
272(9) 0.01212 286.1 7.5
281(9) 0.01122 286.1 7.5
282(9) 0.01103 286.1 7.4
299(9) 0.01042 286.2 7.4
312(9) 0.01078 286.2 7.3
299(9) 0.01082 286.2 7.3
312(10) 0.00971 286.2 7.2
296(9) 0.01044 286.3 7.2
299(9) 0.01101 286.3 7.1
320(9) 0.01058 286.3 7.1
307(9) 0.01039 286.4 7.0
326(10) 0.00937 286.4 6.9
298(9) 0.01084 286.4 6.9
307(9) 0.01054 286.5 6.8
307(9) 0.01093 286.5 6.8
326(10) 0.00955 286.5 6.7
292(9) 0.01054 286.6 6.7
297(9) 0.01014 286.6 6.6
312(9) 0.01037 286.6 6.6
310(9) 0.01083 286.6 6.5
290(9) 0.01072 286.7 6.5
290(9) 0.01029 286.7 6.4
281(9) 0.01120 286.7 6.4
288(9) 0.01150 286.8 6.4
313(9) 0.01073 286.8 6.3
284(9) 0.01121 286.8 6.3
256(9) 0.01175 286.9 6.3
299(9) 0.01031 286.9 6.3
296(9) 0.01108 286.9 6.3
322(9) 0.01045 287.0 6.3
291(9) 0.01083 287.0 6.3
268(9) 0.01060 287.0 6.3
289(9) 0.01077 287.0 6.3
287(9) 0.01155 287.1 6.3
281(9) 0.01165 287.1 6.4
282(9) 0.01040 287.1 6.4
273(9) 0.01074 287.2 6.4
288(9) 0.01074 287.2 6.5
303(9) 0.01106 287.2 6.6
301(9) 0.01108 287.3 6.6
292(9) 0.01088 287.3 6.7
300(10) 0.00973 287.3 6.8
310(10) 0.00960 287.4 7.0
295(9) 0.01132 287.4 7.1
295(9) 0.01104 287.4 7.3
293(9) 0.01061 287.4 7.5
315(10) 0.00986 287.5 7.7
318(10) 0.00981 287.5 7.9
293(9) 0.01130 287.5 8.2
329(10) 0.00946 287.6 8.6
306(9) 0.01021 287.6 9.0
305(9) 0.01010 287.6 9.4
306(9) 0.01028 287.7 10.0
304(9) 0.01097 287.7 10.6
289(9) 0.01099 287.7 11.3
306(10) 0.01003 287.8 12.1
303(9) 0.01041 287.8 13.0
309(9) 0.01060 287.8 14.0
291(9) 0.01148 287.8 15.1
295(9) 0.01053 287.9 16.4
292(9) 0.01081 287.9 17.7
321(10) 0.00965 287.9 19.3
289(9) 0.01116 288.0 20.9
305(9) 0.01088 288.0 22.6
316(9) 0.01020 288.0 24.4
310(9) 0.01026 288.1 26.1
315(9) 0.01022 288.1 27.9
330(9) 0.01023 288.1 29.5
328(9) 0.01016 288.2 30.9
309(9) 0.01035 288.2 32.1
312(10) 0.00977 288.2 32.8
329(10) 0.00959 288.2 33.2
319(9) 0.01030 288.3 33.1
332(9) 0.01020 288.3 32.6
307(9) 0.01011 288.3 31.7
309(10) 0.00953 288.4 30.4
299(9) 0.01039 288.4 29.0
309(9) 0.01068 288.4 27.3
276(9) 0.01205 288.5 25.6
313(9) 0.01009 288.5 23.9
320(10) 0.00912 288.5 22.1
333(10) 0.00929 288.6 20.5
330(10) 0.01004 288.6 19.0
320(9) 0.01048 288.6 17.6
301(9) 0.01014 288.6 16.3
298(9) 0.01018 288.7 15.1
303(9) 0.01070 288.7 14.0
314(9) 0.01057 288.7 13.1
316(9) 0.01050 288.8 12.3
309(9) 0.01012 288.8 11.6
316(10) 0.00931 288.8 10.9
309(9) 0.01046 288.9 10.4
339(10) 0.01001 288.9 9.9
306(9) 0.01081 288.9 9.5
310(9) 0.01029 289.0 9.2
317(10) 0.00949 289.0 8.9
294(9) 0.01094 289.0 8.6
309(9) 0.01089 289.0 8.4
295(9) 0.01120 289.1 8.2
278(9) 0.01151 289.1 8.1
316(10) 0.00933 289.1 7.9
281(9) 0.01107 289.2 7.8
283(9) 0.01168 289.2 7.7
293(9) 0.01103 289.2 7.7
300(9) 0.01063 289.3 7.6
309(10) 0.00990 289.3 7.6
296(9) 0.01100 289.3 7.5
321(9) 0.01061 289.4 7.5
301(9) 0.01069 289.4 7.5
274(9) 0.01127 289.4 7.5
305(9) 0.01032 289.5 7.5
309(9) 0.01033 289.5 7.5
314(9) 0.01066 289.5 7.6
332(10) 0.00938 289.5 7.6
295(9) 0.01042 289.6 7.6
280(9) 0.01144 289.6 7.7
310(9) 0.01030 289.6 7.7
292(9) 0.01145 289.7 7.8
310(10) 0.00962 289.7 7.9
292(9) 0.01038 289.7 7.9
289(9) 0.01065 289.8 8.0
314(9) 0.01057 289.8 8.1
294(9) 0.01134 289.8 8.2
311(9) 0.01040 289.9 8.3
313(10) 0.00950 289.9 8.4
291(9) 0.01073 289.9 8.6
289(9) 0.01155 289.9 8.7
299(9) 0.01083 290.0 8.8
311(9) 0.01008 290.0 9.0
311(10) 0.00964 290.0 9.1
342(10) 0.00895 290.1 9.3
330(9) 0.01019 290.1 9.4
310(9) 0.01067 290.1 9.6
298(9) 0.01058 290.2 9.8
290(9) 0.01026 290.2 10.0
300(9) 0.01039 290.2 10.2
312(9) 0.01082 290.3 10.5
309(9) 0.01064 290.3 10.7
302(9) 0.01028 290.3 11.0
293(9) 0.01054 290.3 11.2
310(9) 0.01046 290.4 11.5
320(9) 0.01049 290.4 11.8
309(9) 0.01086 290.4 12.2
283(9) 0.01142 290.5 12.5
311(10) 0.00974 290.5 12.9
304(9) 0.01060 290.5 13.4
301(9) 0.01117 290.6 13.8
303(9) 0.01089 290.6 14.3
297(9) 0.01060 290.6 14.9
307(9) 0.01044 290.7 15.5
335(10) 0.00957 290.7 16.2
320(9) 0.01055 290.7 17.0
323(9) 0.01020 290.7 17.9
320(10) 0.00976 290.8 18.8
287(9) 0.01096 290.8 19.9
337(10) 0.00944 290.8 21.1
335(10) 0.01008 290.9 22.4
360(10) 0.00886 290.9 23.8
339(10) 0.00979 290.9 25.4
337(10) 0.00924 291.0 27.2
340(10) 0.00950 291.0 29.0
345(10) 0.00975 291.0 31.1
362(10) 0.00863 291.1 33.2
322(10) 0.00982 291.1 35.5
351(10) 0.00899 291.1 37.8
338(10) 0.00968 291.1 40.1
376(10) 0.00894 291.2 42.3
371(10) 0.00850 291.2 44.4
366(10) 0.00840 291.2 46.1
359(10) 0.00904 291.3 47.4
386(10) 0.00872 291.3 48.3
359(10) 0.00955 291.3 48.6
363(10) 0.00850 291.4 48.4
343(10) 0.00888 291.4 47.7
348(10) 0.00936 291.4 46.7
365(10) 0.00918 291.5 45.4
335(10) 0.01004 291.5 44.0
309(9) 0.01035 291.5 42.5
353(10) 0.00841 291.5 41.1
316(10) 0.01007 291.6 39.8
339(10) 0.00998 291.6 38.6
341(10) 0.01002 291.6 37.7
330(10) 0.00947 291.7 36.9
330(10) 0.00872 291.7 36.4
343(10) 0.00911 291.7 36.0
360(10) 0.00927 291.8 35.9
327(9) 0.01035 291.8 36.1
332(10) 0.00996 291.8 36.5
352(10) 0.00867 291.9 37.1
340(10) 0.00922 291.9 38.0
356(10) 0.00949 291.9 39.1
345(10) 0.00977 291.9 40.5
337(10) 0.00936 292.0 42.1
358(10) 0.00843 292.0 44.0
370(10) 0.00879 292.0 46.1
359(10) 0.00951 292.1 48.4
341(10) 0.00962 292.1 50.8
376(11) 0.00827 292.1 53.5
376(11) 0.00807 292.2 56.1
369(10) 0.00846 292.2 58.8
380(10) 0.00892 292.2 61.4
393(10) 0.00852 292.3 63.7
389(10) 0.00842 292.3 65.7
382(10) 0.00839 292.3 67.1
384(10) 0.00845 292.3 67.9
369(10) 0.00929 292.4 67.9
357(10) 0.00913 292.4 67.2
370(10) 0.00842 292.4 65.8
374(10) 0.00846 292.5 63.8
322(10) 0.00999 292.5 61.3
348(10) 0.00977 292.5 58.5
339(10) 0.00932 292.6 55.5
350(10) 0.00900 292.6 52.4
355(10) 0.00904 292.6 49.3
338(10) 0.00993 292.7 46.3
337(10) 0.00995 292.7 43.5
348(10) 0.00899 292.7 40.8
341(10) 0.00886 292.7 38.2
319(10) 0.00990 292.8 35.9
333(10) 0.01002 292.8 33.8
344(10) 0.01003 292.8 31.8
350(10) 0.00865 292.9 30.1
313(9) 0.01018 292.9 28.5
319(10) 0.01006 292.9 27.1
311(9) 0.01072 293.0 25.8
352(10) 0.00951 293.0 24.6
317(9) 0.01010 293.0 23.6
339(10) 0.00879 293.1 22.7
332(10) 0.00955 293.1 21.9
326(9) 0.01025 293.1 21.1
326(9) 0.01027 293.1 20.5
312(10) 0.01001 293.2 19.9
311(10) 0.00954 293.2 19.4
352(10) 0.00893 293.2 18.9
298(9) 0.01112 293.3 18.5
299(9) 0.01100 293.3 18.1
296(9) 0.01064 293.3 17.7
332(10) 0.00866 293.4 17.4
310(10) 0.01004 293.4 17.1
280(9) 0.01166 293.4 16.9
315(9) 0.01064 293.5 16.6
309(9) 0.01014 293.5 16.4
336(10) 0.00892 293.5 16.2
326(10) 0.00989 293.5 16.1
285(9) 0.01163 293.6 15.9
317(9) 0.01031 293.6 15.8
308(9) 0.01013 293.6 15.7
339(10) 0.00896 293.7 15.6
322(10) 0.00969 293.7 15.5
281(9) 0.01183 293.7 15.5
285(9) 0.01129 293.8 15.5
318(10) 0.00977 293.8 15.5
336(10) 0.00901 293.8 15.5
322(10) 0.01001 293.9 15.5
303(9) 0.01106 293.9 15.5
313(9) 0.01017 293.9 15.6
302(9) 0.01042 293.9 15.7
338(10) 0.00891 294.0 15.8
309(9) 0.01019 294.0 15.9
318(9) 0.01053 294.0 16.1
302(9) 0.01067 294.1 16.3
336(10) 0.00916 294.1 16.5
320(10) 0.00986 294.1 16.7
311(9) 0.01031 294.2 16.9
298(9) 0.01119 294.2 17.2
323(10) 0.00990 294.2 17.5
307(10) 0.00993 294.3 17.8
296(9) 0.01041 294.3 18.2
310(9) 0.01065 294.3 18.6
326(9) 0.01034 294.3 19.0
324(10) 0.00974 294.4 19.5
301(10) 0.01006 294.4 19.9
316(10) 0.00980 294.4 20.5
340(10) 0.00958 294.5 21.0
335(10) 0.01004 294.5 21.6
322(10) 0.00983 294.5 22.2
322(10) 0.00931 294.6 22.8
304(9) 0.01029 294.6 23.5
304(9) 0.01092 294.6 24.2
305(9) 0.01092 294.7 24.9
321(10) 0.00973 294.7 25.6
322(10) 0.00903 294.7 26.4
343(10) 0.00927 294.7 27.1
322(9) 0.01027 294.8 27.9
311(9) 0.01071 294.8 28.7
307(9) 0.01027 294.8 29.4
320(10) 0.00920 294.9 30.2
329(10) 0.00943 294.9 30.9
329(9) 0.01028 294.9 31.6
326(9) 0.01034 295.0 32.3
352(10) 0.00878 295.0 33.0
343(10) 0.00876 295.0 33.6
330(10) 0.00971 295.1 34.3
298(9) 0.01120 295.1 34.8
314(9) 0.01028 295.1 35.4
313(10) 0.00988 295.1 35.9
317(10) 0.00929 295.2 36.4
334(10) 0.00909 295.2 36.9
322(9) 0.01042 295.2 37.3
327(9) 0.01023 295.3 37.7
335(10) 0.00956 295.3 38.1
337(10) 0.00929 295.3 38.5
340(10) 0.00942 295.4 38.8
337(10) 0.00990 295.4 39.1
333(10) 0.00963 295.4 39.3
334(10) 0.00957 295.5 39.5
330(10) 0.00952 295.5 39.6
319(9) 0.01034 295.5 39.7
322(9) 0.01044 295.5 39.8
317(10) 0.01001 295.6 39.8
321(10) 0.00932 295.6 39.8
304(9) 0.01028 295.6 39.7
317(9) 0.01025 295.7 39.5
317(9) 0.01039 295.7 39.4
301(9) 0.01078 295.7 39.2
302(10) 0.01001 295.8 39.0
324(10) 0.00949 295.8 38.7
323(9) 0.01014 295.8 38.5
300(9) 0.01116 295.9 38.2
324(10) 0.00961 295.9 38.0
330(10) 0.00932 295.9 37.7
316(9) 0.01039 295.9 37.5
345(10) 0.00974 296.0 37.2
349(10) 0.00969 296.0 37.0
319(10) 0.00984 296.0 36.8
341(10) 0.00888 296.1 36.6
331(10) 0.00983 296.1 36.4
322(9) 0.01046 296.1 36.3
323(9) 0.01029 296.2 36.2
351(10) 0.00889 296.2 36.1
344(10) 0.00849 296.2 36.0
319(9) 0.01014 296.3 36.0
336(9) 0.01008 296.3 36.1
344(10) 0.00967 296.3 36.1
325(10) 0.00978 296.3 36.2
335(10) 0.00911 296.4 36.4
361(10) 0.00926 296.4 36.5
342(10) 0.00995 296.4 36.8
343(10) 0.00981 296.5 37.0
304(9) 0.01068 296.5 37.4
330(10) 0.00913 296.5 37.7
379(11) 0.00813 296.6 38.2
329(9) 0.01021 296.6 38.7
341(10) 0.00979 296.6 39.2
353(10) 0.00914 296.7 39.9
340(10) 0.00893 296.7 40.6
337(10) 0.00914 296.7 41.3
351(10) 0.00970 296.7 42.2
343(10) 0.00972 296.8 43.1
354(10) 0.00916 296.8 44.1
361(10) 0.00865 296.8 45.2
338(10) 0.00933 296.9 46.4
345(10) 0.00983 296.9 47.7
351(10) 0.00915 296.9 49.1
359(10) 0.00864 297.0 50.5
336(10) 0.00952 297.0 52.0
347(10) 0.00931 297.0 53.6
337(9) 0.01010 297.1 55.1
365(10) 0.00884 297.1 56.7
345(10) 0.00923 297.1 58.2
380(11) 0.00809 297.1 59.6
368(10) 0.00894 297.2 60.9
368(10) 0.00925 297.2 61.9
364(10) 0.00879 297.2 62.7
352(10) 0.00907 297.3 63.1
383(11) 0.00834 297.3 63.1
339(10) 0.00976 297.3 62.7
368(10) 0.00922 297.4 62.0
351(10) 0.00908 297.4 60.8
359(10) 0.00860 297.4 59.3
383(11) 0.00829 297.5 57.5
338(10) 0.00979 297.5 55.5
312(9) 0.01064 297.5 53.4
327(10) 0.00985 297.6 51.1
353(10) 0.00871 297.6 48.9
351(10) 0.00930 297.6 46.6
366(10) 0.00914 297.6 44.4
320(9) 0.01058 297.7 42.3
317(9) 0.01012 297.7 40.2
330(10) 0.00899 297.7 38.2
316(9) 0.01027 297.8 36.4
326(9) 0.01029 297.8 34.6
332(9) 0.01026 297.8 33.0
315(10) 0.00984 297.9 31.5
341(10) 0.00861 297.9 30.0
316(9) 0.01036 297.9 28.7
328(9) 0.01026 298.0 27.5
314(9) 0.01053 298.0 26.4
303(9) 0.01036 298.0 25.4
315(10) 0.00934 298.0 24.4
312(9) 0.01026 298.1 23.5
314(9) 0.01058 298.1 22.7
313(9) 0.01057 298.1 22.0
287(9) 0.01085 298.2 21.3
314(10) 0.00913 298.2 20.7
300(9) 0.01075 298.2 20.1
326(9) 0.01041 298.3 19.6
293(9) 0.01122 298.3 19.1
285(9) 0.01089 298.3 18.7
330(10) 0.00910 298.4 18.2
287(9) 0.01080 298.4 17.8
305(9) 0.01103 298.4 17.5
298(9) 0.01093 298.4 17.1
333(10) 0.00968 298.5 16.8
320(10) 0.00953 298.5 16.5
309(9) 0.01008 298.5 16.3
306(9) 0.01097 298.6 16.0
324(10) 0.00988 298.6 15.8
329(10) 0.00935 298.6 15.6
301(9) 0.01061 298.7 15.4
307(9) 0.01045 298.7 15.2
302(9) 0.01106 298.7 15.0
318(9) 0.01013 298.8 14.8
329(10) 0.00970 298.8 14.7
307(9) 0.01030 298.8 14.5
311(9) 0.01058 298.8 14.4
311(9) 0.01084 298.9 14.3
303(9) 0.01075 298.9 14.2
308(9) 0.01036 298.9 14.1
315(9) 0.01025 299.0 14.0
309(9) 0.01055 299.0 13.9
317(9) 0.01065 299.0 13.8
346(10) 0.00909 299.1 13.7
321(10) 0.00974 299.1 13.7
295(9) 0.01099 299.1 13.6
306(9) 0.01093 299.2 13.6
283(9) 0.01168 299.2 13.5
316(10) 0.01004 299.2 13.5
315(10) 0.00963 299.2 13.5
319(10) 0.01001 299.3 13.5
303(9) 0.01110 299.3 13.5
292(9) 0.01141 299.3 13.5
302(9) 0.01045 299.4 13.5
345(11) 0.00830 299.4 13.5
313(9) 0.01011 299.4 13.5
324(9) 0.01044 299.5 13.6
323(9) 0.01020 299.5 13.6
294(9) 0.01114 299.5 13.7
316(10) 0.00946 299.6 13.7
289(9) 0.01079 299.6 13.8
317(9) 0.01049 299.6 13.9
324(9) 0.01037 299.6 14.0
330(10) 0.00966 299.7 14.1
306(9) 0.01039 299.7 14.2
316(10) 0.01000 299.7 14.4
326(9) 0.01044 299.8 14.5
301(9) 0.01088 299.8 14.7
320(10) 0.00986 299.8 14.9
306(10) 0.00998 299.9 15.1
327(10) 0.00929 299.9 15.3
293(9) 0.01125 299.9 15.5
297(9) 0.01080 300.0 15.8
307(9) 0.01009 300.0 16.0
301(9) 0.01014 300.0 16.3
314(10) 0.01005 300.0 16.6
331(9) 0.01018 300.1 16.9
296(9) 0.01080 300.1 17.2
319(10) 0.00970 300.1 17.5
347(10) 0.00885 300.2 17.8
332(10) 0.00979 300.2 18.1
311(9) 0.01085 300.2 18.3
339(10) 0.00932 300.3 18.6
314(10) 0.00977 300.3 18.8
321(10) 0.00947 300.3 19.0
321(9) 0.01012 300.4 19.1
330(9) 0.01016 300.4 19.2
361(10) 0.00867 300.4 19.2
311(10) 0.01005 300.4 19.2
345(10) 0.00897 300.5 19.1
342(10) 0.00967 300.5 18.9
334(10) 0.00988 300.5 18.6
296(9) 0.01060 300.6 18.3
306(10) 0.00978 300.6 18.0
335(10) 0.00939 300.6 17.6
319(9) 0.01054 300.7 17.2
311(9) 0.01059 300.7 16.7
321(10) 0.00987 300.7 16.3
306(10) 0.00962 300.8 15.8
305(9) 0.01010 300.8 15.3
301(9) 0.01069 300.8 14.9
342(10) 0.00997 300.8 14.4
297(9) 0.01101 300.9 13.9
289(9) 0.01037 300.9 13.5
319(10) 0.00987 300.9 13.1
314(9) 0.01057 301.0 12.7
289(9) 0.01146 301.0 12.3
321(10) 0.00987 301.0 11.9
310(10) 0.00978 301.1 11.6
296(9) 0.01072 301.1 11.3
291(9) 0.01139 301.1 10.9
307(9) 0.01105 301.2 10.7
315(10) 0.00996 301.2 10.4
295(10) 0.01007 301.2 10.1
312(10) 0.01000 301.2 9.9
302(9) 0.01109 301.3 9.6
314(9) 0.01053 301.3 9.4
297(9) 0.01072 301.3 9.2
308(10) 0.00991 301.4 9.0
341(10) 0.00924 301.4 8.8
321(9) 0.01042 301.4 8.6
312(9) 0.01070 301.5 8.5
303(9) 0.01032 301.5 8.3
297(9) 0.01044 301.5 8.2
302(9) 0.01017 301.6 8.0
306(9) 0.01101 301.6 7.9
296(9) 0.01071 301.6 7.8
296(9) 0.01049 301.6 7.7
301(9) 0.01037 301.7 7.6
333(10) 0.00944 301.7 7.5
309(9) 0.01087 301.7 7.4
311(9) 0.01040 301.8 7.3
309(10) 0.00999 301.8 7.2
314(10) 0.00950 301.8 7.1
285(9) 0.01140 301.9 7.1
315(9) 0.01072 301.9 7.0
303(9) 0.01030 301.9 6.9
286(9) 0.01046 302.0 6.9
302(9) 0.01054 302.0 6.8
324(9) 0.01035 302.0 6.8
300(9) 0.01123 302.0 6.7
329(10) 0.00945 302.1 6.7
306(10) 0.00990 302.1 6.6
309(9) 0.01033 302.1 6.6
302(9) 0.01100 302.2 6.5
312(9) 0.01073 302.2 6.5
291(9) 0.01091 302.2 6.5
285(9) 0.01044 302.3 6.4
280(9) 0.01104 302.3 6.4
304(9) 0.01094 302.3 6.4
306(9) 0.01094 302.4 6.4
309(9) 0.01027 302.4 6.4
288(9) 0.01051 302.3 6.3
327(10) 0.00970 302.3 6.3
283(9) 0.01185 302.3 6.3
304(9) 0.01085 302.3 6.3
310(10) 0.00986 302.3 6.3
315(10) 0.00918 302.3 6.3
322(10) 0.00992 302.3 6.3
307(9) 0.01107 302.3 6.3
300(9) 0.01087 302.3 6.3
303(9) 0.01055 302.3 6.3
310(10) 0.00996 302.3 6.3
325(10) 0.00981 302.3 6.4
293(9) 0.01145 302.2 6.4
317(9) 0.01047 302.2 6.4
316(9) 0.01012 302.2 6.4
313(10) 0.00951 302.2 6.5
286(9) 0.01150 302.2 6.5
334(9) 0.01016 302.2 6.5
315(9) 0.01038 302.2 6.6
303(9) 0.01051 302.2 6.6
288(9) 0.01087 302.2 6.7
300(9) 0.01041 302.2 6.7
284(9) 0.01171 302.2 6.8
331(10) 0.00949 302.2 6.9
290(9) 0.01061 302.1 6.9
305(10) 0.01006 302.1 7.0
313(9) 0.01028 302.1 7.1
315(9) 0.01065 302.1 7.1
334(10) 0.00944 302.1 7.2
317(10) 0.00961 302.1 7.3
299(9) 0.01065 302.1 7.3
297(9) 0.01117 302.1 7.4
295(9) 0.01131 302.1 7.5
302(9) 0.01067 302.1 7.6
305(9) 0.01013 302.1 7.6
312(10) 0.00987 302.0 7.7
319(9) 0.01024 302.0 7.7
307(9) 0.01096 302.0 7.8
330(10) 0.00949 302.0 7.8
321(10) 0.00914 302.0 7.8
299(9) 0.01023 302.0 7.9
297(9) 0.01114 302.0 7.9
293(9) 0.01150 302.0 7.9
305(9) 0.01012 302.0 7.9
312(10) 0.00969 302.0 7.9
308(9) 0.01063 302.0 7.9
324(9) 0.01028 302.0 7.8
308(9) 0.01093 301.9 7.8
306(9) 0.01028 301.9 7.8
331(10) 0.00898 301.9 7.8
297(9) 0.01077 301.9 7.7
296(9) 0.01127 301.9 7.7
308(9) 0.01098 301.9 7.7
302(9) 0.01081 301.9 7.6
308(10) 0.00971 301.9 7.6
296(9) 0.01051 301.9 7.5
323(9) 0.01034 301.9 7.5
300(9) 0.01104 301.9 7.4
327(10) 0.00975 301.9 7.4
307(10) 0.00972 301.8 7.3
319(10) 0.00964 301.8 7.3
304(9) 0.01108 301.8 7.2
291(9) 0.01132 301.8 7.2
296(9) 0.01060 301.8 7.1
287(9) 0.01040 301.8 7.1
265(9) 0.01162 301.8 7.0
297(9) 0.01116 301.8 7.0
303(9) 0.01080 301.8 6.9
289(9) 0.01112 301.8 6.9
320(10) 0.00946 301.8 6.8
302(9) 0.01047 301.8 6.8
290(9) 0.01148 301.7 6.7
307(9) 0.01064 301.7 6.7
312(9) 0.01016 301.7 6.6
319(10) 0.00948 301.7 6.6
305(9) 0.01018 301.7 6.5
281(9) 0.01187 301.7 6.5
296(9) 0.01103 301.7 6.5
315(10) 0.00983 301.7 6.4
300(9) 0.01016 301.7 6.4
278(9) 0.01159 301.7 6.3
297(9) 0.01125 301.7 6.3
289(9) 0.01106 301.7 6.3
287(9) 0.01077 301.6 6.2
307(9) 0.01016 301.6 6.2
324(10) 0.00996 301.6 6.2
315(9) 0.01068 301.6 6.1
318(10) 0.01002 301.6 6.1
294(9) 0.01053 301.6 6.1
299(9) 0.01063 301.6 6.0
314(9) 0.01062 301.6 6.0
303(9) 0.01109 301.6 6.0
299(9) 0.01046 301.6 6.0
307(10) 0.00982 301.6 5.9
286(9) 0.01113 301.6 5.9
297(9) 0.01097 301.5 5.9
311(9) 0.01086 301.5 5.9
305(9) 0.01034 301.5 5.8
317(10) 0.00955 301.5 5.8
324(10) 0.00962 301.5 5.8
317(9) 0.01053 301.5 5.8
296(9) 0.01125 301.5 5.8
323(10) 0.00984 301.5 5.7
298(10) 0.00972 301.5 5.7
290(9) 0.01091 301.5 5.7
307(9) 0.01099 301.5 5.7
303(9) 0.01104 301.4 5.7
322(10) 0.00985 301.4 5.7
311(10) 0.00922 301.4 5.7
291(9) 0.01086 301.4 5.6
306(9) 0.01101 301.4 5.6
320(9) 0.01055 301.4 5.6
330(10) 0.00965 301.4 5.6
306(10) 0.01006 301.4 5.6
296(9) 0.01090 301.4 5.6
332(9) 0.01024 301.4 5.6
329(9) 0.01018 301.4 5.6
292(9) 0.01081 301.4 5.6
299(10) 0.00971 301.3 5.6
296(9) 0.01089 301.3 5.7
331(9) 0.01015 301.3 5.7
294(9) 0.01110 301.3 5.7
333(10) 0.00894 301.3 5.7
311(10) 0.00963 301.3 5.7
304(9) 0.01065 301.3 5.7
330(9) 0.01035 301.3 5.8
328(10) 0.00981 301.3 5.8
327(10) 0.00948 301.3 5.8
283(9) 0.01090 301.3 5.8
299(9) 0.01056 301.3 5.9
298(9) 0.01122 301.2 5.9
311(9) 0.01052 301.2 6.0
323(10) 0.00947 301.2 6.0
324(10) 0.00974 301.2 6.1
306(9) 0.01058 301.2 6.1
289(9) 0.01157 301.2 6.2
300(9) 0.01047 301.2 6.3
312(10) 0.00975 301.2 6.3
281(9) 0.01119 301.2 6.4
294(9) 0.01124 301.2 6.5
302(9) 0.01100 301.2 6.6
293(9) 0.01086 301.2 6.7
270(9) 0.01124 301.1 6.8
291(9) 0.01070 301.1 6.9
328(10) 0.01004 301.1 7.0
295(9) 0.01135 301.1 7.2
289(9) 0.01116 301.1 7.3
288(9) 0.01083 301.1 7.5
298(9) 0.01073 301.1 7.6
298(9) 0.01083 301.1 7.8
323(9) 0.01061 301.1 8.0
313(10) 0.00996 301.1 8.2
300(10) 0.00967 301.1 8.4
315(10) 0.00985 301.1 8.6
315(9) 0.01079 301.0 8.9
322(9) 0.01041 301.0 9.1
311(9) 0.01026 301.0 9.4
312(10) 0.00973 301.0 9.7
316(9) 0.01020 301.0 10.0
293(9) 0.01144 301.0 10.3
287(9) 0.01156 301.0 10.6
323(10) 0.00946 301.0 10.9
295(10) 0.00973 301.0 11.2
292(9) 0.01099 301.0 11.6
308(9) 0.01081 301.0 11.9
302(9) 0.01088 301.0 12.2
312(9) 0.01016 300.9 12.6
305(10) 0.00956 300.9 12.9
286(9) 0.01053 300.9 13.2
303(9) 0.01097 300.9 13.5
312(9) 0.01026 300.9 13.8
310(9) 0.01013 300.9 14.0
289(9) 0.01076 300.9 14.2
312(9) 0.01009 300.9 14.4
331(9) 0.01017 300.9 14.6
284(9) 0.01142 300.9 14.7
306(9) 0.01013 300.9 14.7
329(10) 0.00907 300.8 14.7
278(9) 0.01177 300.8 14.7
300(9) 0.01108 300.8 14.6
314(9) 0.01013 300.8 14.5
313(10) 0.00988 300.8 14.3
286(9) 0.01074 300.8 14.2
323(10) 0.00983 300.8 14.0
330(9) 0.01026 300.8 13.8
303(9) 0.01038 300.8 13.5
312(10) 0.00992 300.8 13.3
281(9) 0.01111 300.8 13.1
308(9) 0.01054 300.8 12.9
326(9) 0.01020 300.7 12.6
326(10) 0.00922 300.7 12.4
294(10) 0.01005 300.7 12.2
283(9) 0.01103 300.7 12.0
291(9) 0.01113 300.7 11.8
287(9) 0.01159 300.7 11.6
304(9) 0.01022 300.7 11.5
307(10) 0.00992 300.7 11.3
308(9) 0.01048 300.7 11.2
301(9) 0.01084 300.7 11.1
312(9) 0.01082 300.7 11.0
295(9) 0.01050 300.7 10.9
335(10) 0.00884 300.6 10.8
309(9) 0.01031 300.6 10.8
305(9) 0.01084 300.6 10.7
311(9) 0.01071 300.6 10.7
308(10) 0.00998 300.6 10.7
291(10) 0.00981 300.6 10.6
311(9) 0.01034 300.6 10.6
315(9) 0.01067 300.6 10.7
319(9) 0.01033 300.6 10.7
304(9) 0.01034 300.6 10.7
286(9) 0.01048 300.6 10.8
306(9) 0.01051 300.6 10.9
324(9) 0.01045 300.5 10.9
302(9) 0.01112 300.5 11.0
332(10) 0.00948 300.5 11.1
320(10) 0.00936 300.5 11.3
304(10) 0.01000 300.5 11.4
324(9) 0.01043 300.5 11.6
327(9) 0.01020 300.5 11.8
324(10) 0.00986 300.5 12.0
337(10) 0.00896 300.5 12.2
317(10) 0.00937 300.5 12.5
341(10) 0.00995 300.5 12.7
320(10) 0.00998 300.5 13.0
323(10) 0.00972 300.4 13.4
305(9) 0.01011 300.4 13.7
315(9) 0.01029 300.4 14.1
313(9) 0.01066 300.4 14.6
302(9) 0.01089 300.4 15.0
314(9) 0.01012 300.4 15.5
350(10) 0.00881 300.4 16.1
330(10) 0.00973 300.4 16.6
312(9) 0.01073 300.4 17.2
312(10) 0.01003 300.4 17.9
323(10) 0.00939 300.4 18.5
321(10) 0.00993 300.4 19.2
336(10) 0.00987 300.3 19.9
325(9) 0.01034 300.3 20.6
339(10) 0.00908 300.3 21.3
318(10) 0.00987 300.3 22.0
334(10) 0.00972 300.3 22.7
325(10) 0.00993 300.3 23.4
333(9) 0.01023 300.3 24.0
315(10) 0.00980 300.3 24.6
316(10) 0.00977 300.3 25.0
350(10) 0.00931 300.3 25.4
324(9) 0.01016 300.3 25.6
333(10) 0.01005 300.2 25.8
315(9) 0.01020 300.2 25.8
331(10) 0.00899 300.2 25.7
314(10) 0.01002 300.2 25.4
320(9) 0.01037 300.2 25.0
328(9) 0.01031 300.2 24.6
298(9) 0.01072 300.2 24.0
320(10) 0.00921 300.2 23.3
287(9) 0.01121 300.2 22.6
316(9) 0.01067 300.2 21.8
343(10) 0.00969 300.2 21.0
324(10) 0.00976 300.2 20.2
308(10) 0.00963 300.1 19.4
331(10) 0.01004 300.1 18.6
343(10) 0.00993 300.1 17.8
327(10) 0.01003 300.1 17.0
309(9) 0.01067 300.1 16.3
323(10) 0.00947 300.1 15.6
299(9) 0.01073 300.1 14.9
298(9) 0.01125 300.1 14.2
320(9) 0.01033 300.1 13.6
303(9) 0.01045 300.1 13.0
316(10) 0.00967 300.1 12.5
315(10) 0.01002 300.1 12.0
303(9) 0.01097 300.0 11.5
319(9) 0.01032 300.0 11.1
308(9) 0.01041 300.0 10.7
345(10) 0.00862 300.0 10.3
291(9) 0.01070 300.0 10.0
296(9) 0.01128 300.0 9.6
313(9) 0.01015 300.0 9.4
313(10) 0.01005 300.0 9.1
290(9) 0.01069 300.0 8.8
283(9) 0.01101 300.0 8.6
304(9) 0.01095 300.0 8.4
292(9) 0.01104 300.0 8.3
309(10) 0.00996 299.9 8.1
318(10) 0.00996 299.9 8.0
307(9) 0.01026 299.9 7.8
299(9) 0.01123 299.9 7.7
313(9) 0.01022 299.9 7.6
298(9) 0.01025 299.9 7.5
326(10) 0.00970 299.9 7.4
323(9) 0.01021 299.9 7.4
290(9) 0.01130 299.9 7.3
313(10) 0.00978 299.9 7.2
323(10) 0.00925 299.9 7.2
304(9) 0.01055 299.9 7.1
318(9) 0.01021 299.8 7.1
310(9) 0.01101 299.8 7.0
311(10) 0.00975 299.8 7.0
312(10) 0.00972 299.8 6.9
288(9) 0.01111 299.8 6.9
301(9) 0.01088 299.8 6.8
313(9) 0.01084 299.8 6.8
315(9) 0.01067 299.8 6.7
324(10) 0.00918 299.8 6.6
320(10) 0.00970 299.8 6.6
317(9) 0.01074 299.8 6.5
307(9) 0.01073 299.8 6.5
291(9) 0.01065 299.7 6.4
295(9) 0.01014 299.7 6.3
295(9) 0.01079 299.7 6.3
303(9) 0.01108 299.7 6.2
306(9) 0.01088 299.7 6.1
287(9) 0.01085 299.7 6.1
292(9) 0.01024 299.7 6.0
328(10) 0.00924 299.7 5.9
289(9) 0.01146 299.7 5.9
308(9) 0.01096 299.7 5.8
275(9) 0.01168 299.7 5.8
295(9) 0.01009 299.7 5.7
302(9) 0.01031 299.6 5.7
284(9) 0.01173 299.6 5.6
298(9) 0.01096 299.6 5.6
297(9) 0.01039 299.6 5.5
300(9) 0.01031 299.6 5.5
325(10) 0.00956 299.6 5.5
307(9) 0.01086 299.6 5.4
294(9) 0.01079 299.6 5.4
294(9) 0.01063 299.6 5.4
298(9) 0.01044 299.6 5.4
313(9) 0.01020 299.6 5.4
302(9) 0.01111 299.6 5.4
308(9) 0.01036 299.6 5.4
319(10) 0.00969 299.6 5.4
288(9) 0.01106 299.6 5.4
310(9) 0.01039 299.6 5.4
298(9) 0.01124 299.6 5.4
330(10) 0.00942 299.6 5.4
305(10) 0.01003 299.6 5.4
294(9) 0.01061 299.6 5.5
292(9) 0.01129 299.6 5.5
291(9) 0.01148 299.6 5.6
303(10) 0.00977 299.6 5.6
296(9) 0.01009 299.6 5.7
309(9) 0.01031 299.6 5.7
315(9) 0.01060 299.6 5.8
323(9) 0.01047 299.6 5.9
304(10) 0.00989 299.6 6.0
307(10) 0.00946 299.6 6.1
279(9) 0.01122 299.6 6.2
305(9) 0.01088 299.6 6.3
296(9) 0.01115 299.6 6.5
301(9) 0.01058 299.7 6.6
290(9) 0.01024 299.7 6.8
317(10) 0.00981 299.7 7.0
279(9) 0.01182 299.7 7.3
293(9) 0.01143 299.7 7.5
337(10) 0.00955 299.7 7.8
320(10) 0.00920 299.7 8.1
309(9) 0.01026 299.7 8.4
308(9) 0.01069 299.7 8.8
301(9) 0.01100 299.7 9.2
338(10) 0.00953 299.7 9.7
320(10) 0.00935 299.7 10.2
304(9) 0.01050 299.7 10.7
307(9) 0.01100 299.7 11.3
310(9) 0.01081 299.7 11.9
311(9) 0.01015 299.7 12.5
320(10) 0.00910 299.7 13.2
323(10) 0.00980 299.7 13.9
306(9) 0.01086 299.7 14.6
322(9) 0.01022 299.7 15.3
330(10) 0.00956 299.7 16.0
315(10) 0.00968 299.7 16.6
329(10) 0.00958 299.7 17.1
335(10) 0.00997 299.7 17.6
348(10) 0.00912 299.7 17.9
330(10) 0.00937 299.7 18.1
293(9) 0.01072 299.7 18.2
321(10) 0.00979 299.7 18.1
327(9) 0.01044 299.7 18.0
332(10) 0.00976 299.8 17.8
341(10) 0.00884 299.8 17.5
299(9) 0.01037 299.8 17.2
323(10) 0.00981 299.8 16.9
318(9) 0.01052 299.8 16.6
317(9) 0.01027 299.8 16.3
303(9) 0.01045 299.8 16.0
300(9) 0.01062 299.8 15.8
308(9) 0.01071 299.8 15.6
312(9) 0.01070 299.8 15.5
303(9) 0.01049 299.8 15.4
314(10) 0.00951 299.8 15.4
309(9) 0.01020 299.8 15.4
335(10) 0.00965 299.8 15.5
331(9) 0.01021 299.8 15.5
337(10) 0.00951 299.8 15.7
333(10) 0.00916 299.8 15.8
320(10) 0.00983 299.8 16.0
284(9) 0.01155 299.8 16.2
327(9) 0.01038 299.8 16.5
315(9) 0.01037 299.8 16.7
331(10) 0.00907 299.8 17.0
322(10) 0.00961 299.8 17.2
314(9) 0.01053 299.8 17.5
313(9) 0.01074 299.8 17.8
328(10) 0.00940 299.8 18.0
321(10) 0.00919 299.8 18.3
324(10) 0.00976 299.8 18.5
337(10) 0.00993 299.8 18.7
340(10) 0.01001 299.9 18.9
340(10) 0.00960 299.9 19.1
309(10) 0.00991 299.9 19.2
359(10) 0.00866 299.9 19.3
311(9) 0.01079 299.9 19.4
334(10) 0.00997 299.9 19.4
349(10) 0.00878 299.9 19.5
311(10) 0.00990 299.9 19.5
312(9) 0.01042 299.9 19.5
332(9) 0.01023 299.9 19.4
314(9) 0.01047 299.9 19.4
357(10) 0.00884 299.9 19.3
330(10) 0.00939 299.9 19.3
298(9) 0.01027 299.9 19.2
316(9) 0.01065 299.9 19.1
311(9) 0.01022 299.9 19.1
315(10) 0.00994 299.9 19.0
339(10) 0.00881 299.9 19.0
330(10) 0.00992 299.9 18.9
326(9) 0.01028 299.9 18.9
306(9) 0.01056 299.9 18.9
308(9) 0.01019 299.9 19.0
326(10) 0.00979 299.9 19.0
340(10) 0.00976 299.9 19.1
305(9) 0.01095 299.9 19.2
341(10) 0.00951 299.9 19.3
337(10) 0.00904 299.9 19.5
306(9) 0.01028 299.9 19.7
322(9) 0.01031 299.9 20.0
318(9) 0.01052 300.0 20.3
324(10) 0.00992 300.0 20.6
325(10) 0.00950 300.0 21.0
341(10) 0.00952 300.0 21.4
320(9) 0.01016 300.0 21.9
306(9) 0.01096 300.0 22.4
299(9) 0.01035 300.0 22.9
307(10) 0.00965 300.0 23.4
321(10) 0.00942 300.0 24.0
304(9) 0.01079 300.0 24.6
328(9) 0.01018 300.0 25.1
328(10) 0.00909 300.0 25.7
305(10) 0.00933 300.0 26.2
326(10) 0.00938 300.0 26.6
332(9) 0.01012 300.0 26.9
349(10) 0.00982 300.0 27.2
340(10) 0.00922 300.0 27.3
335(10) 0.00856 300.0 27.2
344(10) 0.00927 300.0 27.1
343(10) 0.00974 300.0 26.7
310(9) 0.01081 300.0 26.3
329(10) 0.00926 300.0 25.7
328(10) 0.00911 300.0 25.1
330(10) 0.00961 300.0 24.3
324(9) 0.01036 300.0 23.6
324(9) 0.01052 300.0 22.8
324(10) 0.00992 300.0 21.9
330(10) 0.00915 300.0 21.1
331(10) 0.00935 300.0 20.3
316(9) 0.01063 300.1 19.6
334(10) 0.00986 300.1 18.8
322(10) 0.01004 300.1 18.1
342(10) 0.00881 300.1 17.4
335(10) 0.00957 300.1 16.8
328(9) 0.01029 300.1 16.2
325(9) 0.01010 300.1 15.7
314(9) 0.01027 300.1 15.2
313(10) 0.00997 300.1 14.8
306(9) 0.01055 300.1 14.4
324(9) 0.01030 300.1 14.0
328(10) 0.01006 300.1 13.7
327(10) 0.00932 300.1 13.4
320(10) 0.00959 300.1 13.2
322(9) 0.01011 300.1 13.0
295(9) 0.01130 300.1 12.8
304(9) 0.01033 300.1 12.7
315(10) 0.00976 300.1 12.6
306(9) 0.01022 300.1 12.5
351(10) 0.00922 300.1 12.5
314(9) 0.01077 300.1 12.6
310(10) 0.00997 300.1 12.6
327(10) 0.00943 300.1 12.7
312(9) 0.01014 300.1 12.9
323(9) 0.01033 300.1 13.0
343(10) 0.00984 300.1 13.3
312(10) 0.01003 300.1 13.5
293(9) 0.01041 300.1 13.8
313(10) 0.00990 300.1 14.2
301(9) 0.01083 300.2 14.6
321(9) 0.01054 300.2 15.0
303(9) 0.01020 300.2 15.5
305(10) 0.00952 300.2 16.0
314(9) 0.01012 300.2 16.5
328(9) 0.01016 300.2 17.1
282(9) 0.01170 300.2 17.7
318(10) 0.00994 300.2 18.3
314(10) 0.00934 300.2 19.0
314(10) 0.00957 300.2 19.6
327(9) 0.01034 300.2 20.2
298(9) 0.01118 300.2 20.8
315(9) 0.01011 300.2 21.4
330(10) 0.00912 300.2 21.9
328(10) 0.00965 300.2 22.3
354(10) 0.00964 300.2 22.6
328(9) 0.01024 300.2 22.8
312(9) 0.01010 300.2 22.8
317(10) 0.00929 300.2 22.8
324(10) 0.00941 300.2 22.6
302(9) 0.01103 300.2 22.3
310(9) 0.01086 300.2 21.8
331(10) 0.00964 300.2 21.3
299(9) 0.01018 300.2 20.7
323(10) 0.00948 300.2 20.1
308(9) 0.01094 300.2 19.4
317(9) 0.01047 300.2 18.7
316(10) 0.00975 300.2 18.0
323(10) 0.00910 300.2 17.3
313(10) 0.00997 300.3 16.6
308(9) 0.01086 300.3 16.0
293(9) 0.01110 300.3 15.3
320(10) 0.00954 300.3 14.7
329(10) 0.00910 300.3 14.2
298(9) 0.01076 300.3 13.7
308(9) 0.01097 300.3 13.2
317(10) 0.00993 300.3 12.8
310(10) 0.00956 300.3 12.4
310(10) 0.00998 300.3 12.0
296(9) 0.01098 300.3 11.7
313(9) 0.01064 300.3 11.4
305(9) 0.01008 300.3 11.2
321(10) 0.00954 300.3 11.0
298(9) 0.01037 300.3 10.8
318(9) 0.01009 300.3 10.7
315(9) 0.01056 300.3 10.7
307(10) 0.01000 300.3 10.7
290(9) 0.01029 300.3 10.7
329(10) 0.00953 300.3 10.8
321(9) 0.01035 300.3 10.9
341(10) 0.01002 300.3 11.1
285(9) 0.01116 300.3 11.4
301(10) 0.00975 300.3 11.7
297(9) 0.01009 300.3 12.1
316(9) 0.01054 300.3 12.6
330(9) 0.01016 300.3 13.1
301(9) 0.01035 300.3 13.7
314(10) 0.00928 300.3 14.3
302(9) 0.01054 300.4 15.0
310(9) 0.01075 300.4 15.7
290(9) 0.01145 300.4 16.3
329(10) 0.00962 300.4 16.9
297(10) 0.00979 300.4 17.3
313(10) 0.00996 300.4 17.6
317(9) 0.01057 300.4 17.7
305(9) 0.01083 300.4 17.6
328(10) 0.00946 300.4 17.3
328(10) 0.00898 300.4 16.9
328(10) 0.00977 300.4 16.4
331(9) 0.01017 300.4 15.8
301(9) 0.01083 300.4 15.2
322(10) 0.00977 300.4 14.7
310(10) 0.00943 300.4 14.2
337(10) 0.00926 300.4 13.7
318(9) 0.01046 300.4 13.3
322(9) 0.01026 300.4 13.0
320(10) 0.00994 300.4 12.7
328(10) 0.00958 300.4 12.4
306(9) 0.01064 300.4 12.3
295(9) 0.01131 300.4 12.1
313(9) 0.01051 300.4 12.1
307(9) 0.01038 300.4 12.0
305(9) 0.01035 300.4 12.0
335(10) 0.00968 300.4 12.0
323(9) 0.01050 300.4 12.1
315(10) 0.00995 300.4 12.2
328(10) 0.00970 300.4 12.3
328(10) 0.00953 300.5 12.4
297(9) 0.01095 300.5 12.6
325(9) 0.01039 300.5 12.7
318(10) 0.00995 300.5 12.9
317(10) 0.00980 300.5 13.1
316(10) 0.00966 300.5 13.3
297(9) 0.01081 300.5 13.6
320(9) 0.01059 300.5 13.9
311(9) 0.01014 300.5 14.2
321(10) 0.00962 300.5 14.5
318(10) 0.00992 300.5 14.8
315(9) 0.01029 300.5 15.2
297(9) 0.01115 300.5 15.7
296(9) 0.01064 300.5 16.1
308(10) 0.00988 300.5 16.6
303(9) 0.01075 300.5 17.2
320(9) 0.01034 300.5 17.9
290(9) 0.01146 300.5 18.6
286(9) 0.01108 300.5 19.4
317(10) 0.00937 300.5 20.3
355(10) 0.00904 300.5 21.3
329(9) 0.01031 300.5 22.4
325(9) 0.01027 300.5 23.6
337(10) 0.00947 300.5 25.0
338(10) 0.00890 300.5 26.5
307(9) 0.01068 300.5 28.2
341(10) 0.00995 300.5 30.1
320(9) 0.01053 300.5 32.2
342(10) 0.00923 300.5 34.6
341(10) 0.00880 300.6 37.1
335(10) 0.00952 300.6 39.9
332(10) 0.01003 300.6 42.9
366(10) 0.00925 300.6 46.2
331(10) 0.00972 300.6 49.7
359(10) 0.00857 300.6 53.5
350(10) 0.00905 300.6 57.5
349(10) 0.00967 300.6 61.7
361(10) 0.00909 300.6 66.0
370(10) 0.00881 300.6 70.5
391(11) 0.00816 300.6 75.0
402(11) 0.00780 300.6 79.3
412(11) 0.00838 300.6 83.5
390(10) 0.00862 300.6 87.4
417(11) 0.00785 300.6 90.8
400(11) 0.00830 300.6 93.6
446(11) 0.00716 300.6 95.7
410(11) 0.00835 300.6 96.9
449(11) 0.00731 300.6 97.2
422(11) 0.00749 300.6 96.7
414(11) 0.00746 300.6 95.2
402(11) 0.00803 300.6 93.0
408(10) 0.00840 300.6 90.0
401(11) 0.00812 300.6 86.5
399(11) 0.00792 300.6 82.6
371(10) 0.00858 300.6 78.4
354(10) 0.00934 300.6 74.1
397(10) 0.00851 300.6 69.7
347(10) 0.00921 300.6 65.3
355(10) 0.00872 300.7 61.0
340(10) 0.00940 300.7 56.8
357(10) 0.00923 300.7 52.9
360(10) 0.00934 300.7 49.1
377(10) 0.00848 300.7 45.6
357(11) 0.00837 300.7 42.3
359(10) 0.00879 300.7 39.3
360(10) 0.00928 300.7 36.4
320(9) 0.01045 300.7 33.8
329(10) 0.00948 300.7 31.5
292(9) 0.01041 300.7 29.3
343(10) 0.00912 300.7 27.3
330(9) 0.01031 300.7 25.5
315(9) 0.01062 300.7 23.9
310(9) 0.01044 300.7 22.5
326(10) 0.00916 300.7 21.2
319(10) 0.00998 300.7 20.0
354(10) 0.00944 300.7 18.9
332(9) 0.01020 300.7 17.9
342(10) 0.00918 300.7 17.1
328(10) 0.00903 300.7 16.3
337(10) 0.00949 300.7 15.6
312(9) 0.01077 300.7 15.0
321(9) 0.01038 300.7 14.4
299(9) 0.01065 300.7 13.9
324(10) 0.00915 300.7 13.4
337(10) 0.00948 300.7 13.0
344(10) 0.00980 300.7 12.6
320(9) 0.01059 300.7 12.3
325(10) 0.00937 300.8 12.0
314(10) 0.00921 300.8 11.7
306(10) 0.00985 300.8 11.5
289(9) 0.01153 300.8 11.2
304(9) 0.01088 300.8 11.0
332(10) 0.00943 300.8 10.9
308(9) 0.01009 300.8 10.7
293(9) 0.01083 300.8 10.6
309(9) 0.01090 300.8 10.4
323(9) 0.01030 300.8 10.3
320(10) 0.00970 300.8 10.2
289(9) 0.01062 300.8 10.1
313(10) 0.01006 300.8 10.0
327(9) 0.01034 300.8 10.0
315(10) 0.00985 300.8 9.9
312(10) 0.00981 300.8 9.9
284(9) 0.01104 300.8 9.8
324(10) 0.01001 300.8 9.8
317(9) 0.01057 300.8 9.7
306(9) 0.01018 300.8 9.7
318(10) 0.00935 300.8 9.6
304(9) 0.01019 300.8 9.6
316(9) 0.01029 300.8 9.5
289(9) 0.01160 300.8 9.5
308(10) 0.00985 300.8 9.4
312(10) 0.00946 300.8 9.3
324(10) 0.00979 300.8 9.3
299(9) 0.01122 300.8 9.2
320(9) 0.01061 300.8 9.1
294(9) 0.01095 300.9 9.0
296(10) 0.00996 300.9 8.9
276(9) 0.01135 300.9 8.8
286(9) 0.01147 300.9 8.7
303(9) 0.01104 300.9 8.7
313(10) 0.00987 300.9 8.6
308(10) 0.00965 300.9 8.5
308(10) 0.00999 300.9 8.4
322(9) 0.01051 300.9 8.3
307(9) 0.01084 300.9 8.3
307(9) 0.01031 300.9 8.2
293(9) 0.01021 300.9 8.1
304(9) 0.01037 300.9 8.1
317(9) 0.01057 300.9 8.0
297(9) 0.01118 300.9 8.0
323(10) 0.00971 300.9 8.0
296(9) 0.01023 300.9 7.9
313(9) 0.01023 300.9 7.9
301(9) 0.01102 300.9 7.9
302(9) 0.01098 300.9 7.9
324(10) 0.00980 300.9 7.9
317(10) 0.00954 300.9 7.9
302(9) 0.01008 300.9 7.9
286(9) 0.01167 300.9 7.9
302(9) 0.01087 300.9 8.0
323(10) 0.00946 300.9 8.0
317(10) 0.00966 300.9 8.0
306(9) 0.01058 300.9 8.1
305(9) 0.01100 300.9 8.1
325(10) 0.00984 301.0 8.2
315(10) 0.00982 301.0 8.2
303(10) 0.00998 301.0 8.3
289(9) 0.01084 300.9 8.4
304(9) 0.01107 300.9 8.4
329(10) 0.01004 300.9 8.5
312(10) 0.00983 300.9 8.6
315(10) 0.00981 300.9 8.7
311(9) 0.01026 300.9 8.7
316(9) 0.01075 300.9 8.8
300(9) 0.01052 300.8 8.9
288(9) 0.01087 300.8 9.0
318(10) 0.00969 300.8 9.1
313(9) 0.01046 300.8 9.2
316(9) 0.01064 300.8 9.2
307(10) 0.01007 300.8 9.3
299(9) 0.01038 300.8 9.4
304(9) 0.01029 300.7 9.5
299(9) 0.01061 300.7 9.5
315(9) 0.01074 300.7 9.6
310(9) 0.01011 300.7 9.7
304(10) 0.00992 300.7 9.7
314(10) 0.01006 300.7 9.8
311(9) 0.01080 300.7 9.8
306(9) 0.01092 300.6 9.9
319(9) 0.01015 300.6 9.9
307(10) 0.00974 300.6 9.9
287(9) 0.01112 300.6 9.9
303(9) 0.01107 300.6 10.0
331(9) 0.01017 300.6 10.0
328(10) 0.00959 300.6 10.0
311(10) 0.00939 300.5 10.0
332(10) 0.00962 300.5 10.1
328(9) 0.01047 300.5 10.1
284(9) 0.01146 300.5 10.1
297(9) 0.01055 300.5 10.1
319(10) 0.00916 300.5 10.2
310(9) 0.01022 300.5 10.2
322(9) 0.01047 300.4 10.2
301(9) 0.01089 300.4 10.3
297(9) 0.01032 300.4 10.3
320(10) 0.00933 300.4 10.4
304(9) 0.01044 300.4 10.4
361(10) 0.00925 300.4 10.4
295(9) 0.01115 300.4 10.5
290(9) 0.01095 300.3 10.6
316(10) 0.00974 300.3 10.6
309(9) 0.01030 300.3 10.7
312(9) 0.01074 300.3 10.7
303(9) 0.01093 300.3 10.8
332(10) 0.00911 300.3 10.9
306(9) 0.01028 300.3 11.0
289(9) 0.01129 300.2 11.1
325(9) 0.01048 300.2 11.1
297(9) 0.01055 300.2 11.2
295(9) 0.01053 300.2 11.4
298(9) 0.01079 300.2 11.5
325(10) 0.01001 300.2 11.6
309(9) 0.01095 300.2 11.7
319(9) 0.01020 300.1 11.9
328(10) 0.00957 300.1 12.0
339(10) 0.00958 300.1 12.2
298(9) 0.01117 300.1 12.3
314(9) 0.01081 300.1 12.5
300(10) 0.01000 300.1 12.7
307(10) 0.00982 300.1 12.9
313(9) 0.01016 300.0 13.1
318(9) 0.01051 300.0 13.4
315(9) 0.01069 300.0 13.6
324(10) 0.00962 300.0 13.9
344(10) 0.00885 300.0 14.2
319(10) 0.00985 300.0 14.5
325(9) 0.01036 299.9 14.8
312(9) 0.01081 299.9 15.1
320(10) 0.00999 299.9 15.5
325(10) 0.00929 299.9 15.8
341(10) 0.00957 299.9 16.2
322(9) 0.01044 299.9 16.7
324(9) 0.01027 299.9 17.1
336(10) 0.00917 299.8 17.6
342(10) 0.00846 299.8 18.1
347(10) 0.00933 299.8 18.6
315(9) 0.01060 299.8 19.1
331(9) 0.01031 299.8 19.7
309(9) 0.01055 299.8 20.3
320(10) 0.00917 299.8 21.0
339(10) 0.00902 299.7 21.6
301(9) 0.01104 299.7 22.3
324(9) 0.01032 299.7 23.1
333(10) 0.00938 299.7 23.8
325(10) 0.00914 299.7 24.6
315(10) 0.00990 299.7 25.5
318(9) 0.01047 299.7 26.3
313(9) 0.01049 299.6 27.2
330(10) 0.00966 299.6 28.2
340(10) 0.00888 299.6 29.1
316(10) 0.00998 299.6 30.1
315(9) 0.01048 299.6 31.2
350(10) 0.00962 299.6 32.2
343(10) 0.00927 299.6 33.3
340(10) 0.00908 299.5 34.5
332(10) 0.00970 299.5 35.6
333(10) 0.01002 299.5 36.8
348(10) 0.00938 299.5 38.0
314(10) 0.00992 299.5 39.2
351(10) 0.00883 299.5 40.4
362(10) 0.00901 299.5 41.6
337(10) 0.01002 299.4 42.8
354(10) 0.00891 299.4 44.0
335(10) 0.00969 299.4 45.2
365(10) 0.00860 299.4 46.4
336(10) 0.00977 299.4 47.5
345(10) 0.00984 299.4 48.6
360(10) 0.00903 299.4 49.7
352(10) 0.00923 299.3 50.7
364(10) 0.00881 299.3 51.7
381(10) 0.00867 299.3 52.6
361(10) 0.00946 299.3 53.5
381(10) 0.00842 299.3 54.3
370(11) 0.00811 299.3 55.0
357(10) 0.00867 299.3 55.6
338(10) 0.00979 299.2 56.1
356(10) 0.00950 299.2 56.6
341(10) 0.00964 299.2 57.0
371(11) 0.00808 299.2 57.3
355(10) 0.00909 299.2 57.5
385(10) 0.00892 299.2 57.6
355(10) 0.00953 299.2 57.5
337(10) 0.00948 299.1 57.4
327(10) 0.00874 299.1 57.2
351(10) 0.00893 299.1 56.9
340(10) 0.00992 299.1 56.5
359(10) 0.00925 299.1 55.9
374(10) 0.00845 299.1 55.2
356(11) 0.00822 299.1 54.5
308(9) 0.01036 299.0 53.6
326(9) 0.01034 299.0 52.6
349(10) 0.00975 299.0 51.6
341(10) 0.00924 299.0 50.4
353(10) 0.00862 299.0 49.2
347(10) 0.00943 299.0 47.9
363(10) 0.00940 299.0 46.6
312(9) 0.01050 298.9 45.3
332(10) 0.00971 298.9 44.0
343(10) 0.00910 298.9 42.6
342(10) 0.00949 298.9 41.2
346(10) 0.00981 298.9 39.9
333(10) 0.00982 298.9 38.6
329(10) 0.00986 298.9 37.3
334(10) 0.00949 298.8 36.0
352(10) 0.00928 298.8 34.8
314(9) 0.01061 298.8 33.6
345(10) 0.00957 298.8 32.4
326(10) 0.00967 298.8 31.3
338(10) 0.00913 298.8 30.2
356(10) 0.00901 298.7 29.2
331(9) 0.01030 298.7 28.2
330(10) 0.00988 298.7 27.3
332(10) 0.00936 298.7 26.4
313(10) 0.00980 298.7 25.5
306(9) 0.01056 298.7 24.7
315(9) 0.01076 298.7 23.9
346(10) 0.00933 298.6 23.2
316(10) 0.00983 298.6 22.5
309(9) 0.01036 298.6 21.8
331(9) 0.01015 298.6 21.2
300(9) 0.01111 298.6 20.6
327(10) 0.00973 298.6 20.1
298(9) 0.01014 298.6 19.5
286(9) 0.01100 298.5 19.0
335(10) 0.00978 298.5 18.6
324(9) 0.01046 298.5 18.1
348(10) 0.00936 298.5 17.7
319(10) 0.00946 298.5 17.3
329(9) 0.01010 298.5 16.9
325(9) 0.01034 298.5 16.6
312(9) 0.01064 298.4 16.2
314(10) 0.01003 298.4 15.9
310(10) 0.00943 298.4 15.6
302(9) 0.01056 298.4 15.3
307(9) 0.01089 298.4 15.0
315(9) 0.01074 298.4 14.8
306(9) 0.01050 298.4 14.5
331(10) 0.00890 298.3 14.3
341(10) 0.00914 298.3 14.0
305(9) 0.01100 298.3 13.8
302(9) 0.01093 298.3 13.6
314(10) 0.00971 298.3 13.4
327(10) 0.00874 298.3 13.2
293(9) 0.01092 298.3 13.0
297(9) 0.01121 298.2 12.8
309(9) 0.01080 298.2 12.7
295(9) 0.01091 298.2 12.5
307(10) 0.00984 298.2 12.3
297(9) 0.01045 298.2 12.2
326(9) 0.01033 298.2 12.0
279(9) 0.01177 298.2 11.9
296(9) 0.01042 298.1 11.7
314(10) 0.00960 298.1 11.6
289(9) 0.01097 298.1 11.5
286(9) 0.01170 298.1 11.3
277(9) 0.01153 298.1 11.2
322(10) 0.00960 298.1 11.1
312(10) 0.00988 298.1 11.0
285(9) 0.01145 298.0 10.8
301(9) 0.01107 298.0 10.7
324(9) 0.01021 298.0 10.6
305(9) 0.01041 298.0 10.5
291(9) 0.01058 298.0 10.4
292(9) 0.01078 298.0 10.3
299(9) 0.01123 298.0 10.2
296(9) 0.01052 297.9 10.1
294(9) 0.01072 297.9 10.0
312(10) 0.00964 297.9 9.9
290(9) 0.01115 297.9 9.8
294(9) 0.01127 297.9 9.7
314(10) 0.00968 297.9 9.6
293(9) 0.01062 297.9 9.5
302(9) 0.01046 297.8 9.4
293(9) 0.01119 297.8 9.3
302(9) 0.01114 297.8 9.3
291(9) 0.01079 297.8 9.2
310(10) 0.00945 297.8 9.1
312(10) 0.01001 297.8 9.0
312(9) 0.01080 297.8 9.0
290(9) 0.01157 297.7 8.9
288(9) 0.01104 297.7 8.8
278(9) 0.01070 297.7 8.8
279(9) 0.01145 297.7 8.7
298(9) 0.01119 297.7 8.6
269(9) 0.01223 297.7 8.6
321(10) 0.00965 297.7 8.5
306(10) 0.00989 297.6 8.5
301(9) 0.01064 297.6 8.4
300(9) 0.01105 297.6 8.4
283(9) 0.01183 297.6 8.3
333(10) 0.00942 297.6 8.3
326(10) 0.00930 297.6 8.3
315(10) 0.00996 297.5 8.2
302(9) 0.01116 297.5 8.2
311(9) 0.01058 297.5 8.1
316(10) 0.00980 297.5 8.1
307(10) 0.00984 297.5 8.1
282(9) 0.01118 297.5 8.1
305(9) 0.01092 297.5 8.0
291(9) 0.01121 297.4 8.0
291(9) 0.01058 297.4 8.0
278(9) 0.01083 297.4 8.0
295(9) 0.01046 297.4 8.0
301(9) 0.01111 297.4 7.9
313(9) 0.01011 297.4 7.9
305(9) 0.01025 297.4 7.9
303(10) 0.00999 297.3 7.9
293(9) 0.01105 297.3 7.9
293(9) 0.01125 297.3 7.9
300(9) 0.01067 297.3 7.9
323(10) 0.00931 297.3 7.9
296(9) 0.01062 297.3 7.9
318(10) 0.00977 297.3 7.9
310(9) 0.01080 297.2 7.9
306(9) 0.01077 297.2 8.0
301(9) 0.01062 297.2 8.0
307(10) 0.01000 297.2 8.0
288(9) 0.01125 297.2 8.0
290(9) 0.01153 297.2 8.0
276(9) 0.01151 297.2 8.1
291(9) 0.01034 297.1 8.1
304(9) 0.01018 297.1 8.1
286(9) 0.01152 297.1 8.1
296(9) 0.01118 297.1 8.2
287(9) 0.01125 297.1 8.2
310(10) 0.00935 297.1 8.3
296(9) 0.01069 297.1 8.3
316(9) 0.01051 297.0 8.4
294(9) 0.01134 297.0 8.4
282(9) 0.01146 297.0 8.5
328(10) 0.00928 297.0 8.5
319(10) 0.01004 297.0 8.6
292(9) 0.01108 297.0 8.6
277(9) 0.01209 297.0 8.7
287(9) 0.01087 296.9 8.7
307(10) 0.00971 296.9 8.8
314(9) 0.01009 296.9 8.9
261(8) 0.01240 296.9 8.9
297(9) 0.01117 296.9 9.0
315(9) 0.01010 296.9 9.1
289(9) 0.01050 296.9 9.1
294(9) 0.01027 296.8 9.2
293(9) 0.01136 296.8 9.3
298(9) 0.01116 296.8 9.4
334(10) 0.00928 296.8 9.5
320(10) 0.00921 296.8 9.5
283(9) 0.01112 296.8 9.6
315(9) 0.01075 296.7 9.7
290(9) 0.01139 296.7 9.8
308(9) 0.01022 296.7 9.9
289(9) 0.01046 296.7 9.9
274(9) 0.01118 296.7 10.0
307(9) 0.01079 296.6 10.1
303(9) 0.01073 296.6 10.2
285(9) 0.01069 296.6 10.3
300(9) 0.01024 296.6 10.3
307(9) 0.01036 296.5 10.4
283(9) 0.01172 296.5 10.5
295(9) 0.01086 296.5 10.5
311(9) 0.01016 296.5 10.6
291(9) 0.01041 296.5 10.7
295(9) 0.01092 296.4 10.8
291(9) 0.01156 296.4 10.8
292(9) 0.01068 296.4 10.9
298(9) 0.01044 296.4 10.9
312(10) 0.00977 296.4 11.0
290(9) 0.01129 296.3 11.1
312(9) 0.01070 296.3 11.1
289(9) 0.01104 296.3 11.2
291(9) 0.01088 296.3 11.2
308(10) 0.01003 296.2 11.3
296(9) 0.01131 296.2 11.3
288(9) 0.01148 296.2 11.4
300(9) 0.01049 296.2 11.5
293(9) 0.01070 296.2 11.5
330(10) 0.00924 296.1 11.6
300(9) 0.01104 296.1 11.6
302(9) 0.01112 296.1 11.7
288(9) 0.01102 296.1 11.7
314(10) 0.00956 296.1 11.8
311(10) 0.01002 296.0 11.8
316(9) 0.01049 296.0 11.9
327(9) 0.01032 296.0 12.0
314(9) 0.01009 296.0 12.0
303(10) 0.00959 295.9 12.1
300(9) 0.01011 295.9 12.2
296(9) 0.01128 295.9 12.2
284(9) 0.01163 295.9 12.3
311(9) 0.01041 295.9 12.3
314(10) 0.00937 295.8 12.4
294(9) 0.01046 295.8 12.5
298(9) 0.01106 295.8 12.5
339(10) 0.00967 295.8 12.6
303(9) 0.01055 295.8 12.6
315(10) 0.00954 295.7 12.7
281(9) 0.01131 295.7 12.8
301(9) 0.01107 295.7 12.8
312(9) 0.01061 295.7 12.9
329(10) 0.00961 295.6 12.9
298(9) 0.01014 295.6 13.0
304(9) 0.01023 295.6 13.0
309(9) 0.01078 295.6 13.0
305(9) 0.01084 295.6 13.1
304(9) 0.01032 295.5 13.1
310(10) 0.01000 295.5 13.1
315(9) 0.01027 295.5 13.1
322(9) 0.01048 295.5 13.1
315(9) 0.01033 295.5 13.1
320(10) 0.00949 295.4 13.1
295(9) 0.01076 295.4 13.1
314(9) 0.01014 295.4 13.1
314(9) 0.01070 295.4 13.0
314(9) 0.01027 295.3 13.0
315(10) 0.00977 295.3 13.0
305(10) 0.01004 295.3 12.9
297(9) 0.01096 295.3 12.9
318(9) 0.01049 295.3 12.8
303(9) 0.01017 295.2 12.8
305(10) 0.01002 295.2 12.7
310(9) 0.01016 295.2 12.6
306(9) 0.01100 295.2 12.6
308(9) 0.01090 295.2 12.5
312(9) 0.01018 295.1 12.5
308(10) 0.01004 295.1 12.4
321(10) 0.00990 295.1 12.3
323(9) 0.01033 295.1 12.3
315(9) 0.01051 295.0 12.2
304(9) 0.01018 295.0 12.1
290(9) 0.01031 295.0 12.1
299(9) 0.01078 295.0 12.0
301(9) 0.01114 295.0 11.9
313(9) 0.01077 294.9 11.9
300(9) 0.01059 294.9 11.8
309(10) 0.00942 294.9 11.8
310(9) 0.01019 294.9 11.7
311(9) 0.01061 294.9 11.7
298(9) 0.01131 294.8 11.6
328(10) 0.00947 294.8 11.6
314(10) 0.00927 294.8 11.5
299(9) 0.01063 294.8 11.5
304(9) 0.01093 294.7 11.4
299(9) 0.01122 294.7 11.4
307(10) 0.00995 294.7 11.4
292(9) 0.01008 294.7 11.3
296(9) 0.01048 294.7 11.3
303(9) 0.01104 294.6 11.3
276(9) 0.01198 294.6 11.3
316(10) 0.00998 294.6 11.3
296(9) 0.01037 294.6 11.3
307(9) 0.01010 294.6 11.3
295(9) 0.01126 294.5 11.3
315(9) 0.01047 294.5 11.4
297(9) 0.01059 294.5 11.4
295(9) 0.01034 294.5 11.4
287(9) 0.01067 294.4 11.5
292(9) 0.01140 294.4 11.6
298(9) 0.01107 294.4 11.7
290(9) 0.01098 294.4 11.9
314(10) 0.00993 294.4 12.1
301(9) 0.01079 294.3 12.3
293(9) 0.01141 294.3 12.6
314(9) 0.01024 294.3 12.9
312(9) 0.01029 294.3 13.4
305(9) 0.01052 294.3 13.9
322(10) 0.00980 294.2 14.5
315(9) 0.01074 294.2 15.3
295(9) 0.01097 294.2 16.1
315(10) 0.01001 294.2 17.2
333(10) 0.00946 294.1 18.3
304(9) 0.01065 294.1 19.6
299(9) 0.01114 294.1 21.1
323(10) 0.00980 294.1 22.8
324(10) 0.00934 294.1 24.5
318(10) 0.00987 294.0 26.3
314(9) 0.01057 294.0 28.2
325(9) 0.01032 294.0 30.0
337(10) 0.00919 294.0 31.6
329(10) 0.00967 294.0 32.9
335(10) 0.00939 293.9 33.8
303(9) 0.01102 293.9 34.2
325(9) 0.01039 293.9 34.0
333(10) 0.00967 293.9 33.2
327(10) 0.00948 293.8 32.0
323(10) 0.00991 293.8 30.4
327(9) 0.01031 293.8 28.7
319(9) 0.01058 293.8 26.8
331(10) 0.00933 293.8 25.0
308(10) 0.00926 293.7 23.2
286(9) 0.01060 293.7 21.5
319(9) 0.01043 293.7 19.9
320(9) 0.01026 293.7 18.5
326(10) 0.00953 293.7 17.3
334(10) 0.00871 293.6 16.2
308(10) 0.01006 293.6 15.3
322(9) 0.01041 293.6 14.5
310(9) 0.01074 293.6 13.8
290(9) 0.01088 293.5 13.2
294(9) 0.01026 293.5 12.8
293(9) 0.01078 293.5 12.4
322(9) 0.01041 293.5 12.1
280(9) 0.01139 293.5 11.9
299(9) 0.01046 293.4 11.7
303(10) 0.00997 293.4 11.5
302(9) 0.01008 293.4 11.4
311(9) 0.01076 293.4 11.3
291(9) 0.01122 293.4 11.3
303(10) 0.00989 293.3 11.2
260(9) 0.01144 293.3 11.2
308(9) 0.01010 293.3 11.2
307(9) 0.01103 293.3 11.3
305(9) 0.01020 293.2 11.3
312(10) 0.01004 293.2 11.3
324(10) 0.00937 293.2 11.4
279(9) 0.01151 293.2 11.5
297(9) 0.01123 293.2 11.6
321(10) 0.00976 293.1 11.7
295(9) 0.01028 293.1 11.8
297(9) 0.01041 293.1 11.9
314(9) 0.01046 293.1 12.1
293(9) 0.01147 293.1 12.3
289(9) 0.01113 293.0 12.4
307(10) 0.01001 293.0 12.6
330(10) 0.00955 293.0 12.8
283(9) 0.01164 293.0 13.0
291(9) 0.01141 292.9 13.3
321(10) 0.00990 292.9 13.5
289(9) 0.01073 292.9 13.8
299(9) 0.01034 292.9 14.1
320(9) 0.01043 292.9 14.3
316(9) 0.01070 292.8 14.6
311(9) 0.01025 292.8 14.9
313(10) 0.00952 292.8 15.3
326(10) 0.00941 292.8 15.6
328(10) 0.00999 292.8 15.9
328(9) 0.01038 292.7 16.2
336(10) 0.00931 292.7 16.5
298(10) 0.00989 292.7 16.9
307(9) 0.01038 292.7 17.2
293(9) 0.01116 292.6 17.5
340(10) 0.01006 292.6 17.8
330(10) 0.00926 292.6 18.1
294(9) 0.01031 292.6 18.4
299(9) 0.01029 292.6 18.7
304(9) 0.01085 292.5 19.0
324(9) 0.01025 292.5 19.3
329(10) 0.00974 292.5 19.6
321(10) 0.00945 292.5 19.9
303(10) 0.01001 292.5 20.2
298(9) 0.01136 292.4 20.6
322(9) 0.01025 292.4 20.9
319(10) 0.00965 292.4 21.3
289(9) 0.01065 292.4 21.7
318(10) 0.00996 292.3 22.0
306(9) 0.01098 292.3 22.4
323(10) 0.00976 292.3 22.8
347(10) 0.00887 292.3 23.3
321(10) 0.00999 292.3 23.7
330(10) 0.00932 292.2 24.1
336(10) 0.00998 292.2 24.5
327(9) 0.01014 292.2 25.0
329(10) 0.00989 292.2 25.4
314(9) 0.01020 292.2 25.8
335(10) 0.00946 292.1 26.2
305(9) 0.01088 292.1 26.7
327(10) 0.00979 292.1 27.1
338(10) 0.00889 292.1 27.5
328(10) 0.00958 292.0 27.8
318(9) 0.01029 292.0 28.2
309(9) 0.01081 292.0 28.6
316(9) 0.01008 292.0 28.9
300(9) 0.01035 292.0 29.2
331(10) 0.00946 291.9 29.5
336(10) 0.00987 291.9 29.8
345(10) 0.00983 291.9 30.0
331(10) 0.00984 291.9 30.2
337(10) 0.00882 291.9 30.4
316(10) 0.00986 291.8 30.6
357(10) 0.00919 291.8 30.8
331(9) 0.01032 291.8 30.9
330(10) 0.00956 291.8 31.0
334(10) 0.00891 291.8 31.1
336(10) 0.00939 291.7 31.2
330(9) 0.01025 291.7 31.2
328(9) 0.01027 291.7 31.3
381(11) 0.00805 291.7 31.3
335(10) 0.00906 291.6 31.3
323(10) 0.00991 291.6 31.3
315(9) 0.01059 291.6 31.3
330(9) 0.01020 291.6 31.3
346(10) 0.00916 291.6 31.3
297(9) 0.01035 291.5 31.3
325(10) 0.00954 291.5 31.3
312(9) 0.01080 291.5 31.2
361(10) 0.00906 291.5 31.2
300(9) 0.01062 291.5 31.2
304(10) 0.00928 291.4 31.2
311(10) 0.00984 291.4 31.1
323(9) 0.01040 291.4 31.1
294(9) 0.01105 291.4 31.0
310(9) 0.01019 291.3 31.0
307(10) 0.00991 291.3 30.9
321(10) 0.00983 291.3 30.7
331(9) 0.01025 291.3 30.6
323(9) 0.01020 291.3 30.4
322(10) 0.00980 291.2 30.1
322(10) 0.00953 291.2 29.8
310(10) 0.00999 291.2 29.4
286(9) 0.01159 291.2 29.0
311(9) 0.01046 291.2 28.5
307(9) 0.01039 291.1 28.0
320(10) 0.00956 291.1 27.4
310(9) 0.01039 291.1 26.8
312(9) 0.01082 291.1 26.3
324(10) 0.00992 291.0 25.7
326(10) 0.00969 291.0 25.1
323(10) 0.00971 291.0 24.5
339(10) 0.00968 291.0 23.9
324(9) 0.01040 291.0 23.4
327(10) 0.00957 290.9 22.9
340(10) 0.00885 290.9 22.5
323(10) 0.00980 290.9 22.1
298(9) 0.01111 290.9 21.7
332(9) 0.01015 290.9 21.4
322(10) 0.00969 290.8 21.2
335(10) 0.00925 290.8 21.0
309(9) 0.01064 290.8 20.9
313(9) 0.01076 290.8 20.9
322(9) 0.01050 290.7 20.9
300(9) 0.01017 290.7 21.0
290(10) 0.01002 290.7 21.2
319(10) 0.00985 290.7 21.5
329(10) 0.01004 290.7 21.8
294(9) 0.01156 290.6 22.3
316(10) 0.00982 290.6 22.7
313(10) 0.00950 290.6 23.2
297(9) 0.01069 290.6 23.7
299(9) 0.01127 290.6 24.2
348(10) 0.00958 290.5 24.6
332(10) 0.00951 290.5 24.8
311(10) 0.00928 290.5 24.9
299(9) 0.01072 290.5 24.8
311(9) 0.01090 290.4 24.4
318(9) 0.01054 290.4 23.9
334(10) 0.00934 290.4 23.3
291(9) 0.01053 290.4 22.5
311(9) 0.01034 290.4 21.6
293(9) 0.01149 290.3 20.8
295(9) 0.01114 290.3 19.9
310(9) 0.01041 290.3 19.1
318(10) 0.00958 290.3 18.3
315(10) 0.00988 290.3 17.6
297(9) 0.01135 290.2 16.9
315(9) 0.01049 290.2 16.3
310(9) 0.01033 290.2 15.8
304(10) 0.00993 290.2 15.3
289(9) 0.01087 290.1 15.0
309(9) 0.01088 290.1 14.6
319(9) 0.01011 290.1 14.3
322(10) 0.00962 290.1 14.1
308(9) 0.01057 290.1 13.9
308(9) 0.01051 290.0 13.7
303(9) 0.01111 290.0 13.6
311(9) 0.01032 290.0 13.5
304(9) 0.01066 290.0 13.5
298(9) 0.01074 290.0 13.4
300(9) 0.01098 289.9 13.4
311(9) 0.01074 289.9 13.5
315(10) 0.00990 289.9 13.5
311(9) 0.01008 289.9 13.6
295(9) 0.01087 289.8 13.7
322(9) 0.01023 289.8 13.9
312(9) 0.01064 289.8 14.0
303(9) 0.01045 289.8 14.2
310(10) 0.00988 289.8 14.5
304(9) 0.01038 289.7 14.7
339(10) 0.00982 289.7 15.0
307(9) 0.01103 289.7 15.4
298(9) 0.01068 289.7 15.7
307(10) 0.00983 289.7 16.1
328(10) 0.00942 289.6 16.5
312(9) 0.01061 289.6 17.0
319(9) 0.01064 289.6 17.5
314(10) 0.00990 289.6 17.9
309(10) 0.00966 289.5 18.4
294(9) 0.01058 289.5 18.9
322(9) 0.01039 289.5 19.5
319(9) 0.01069 289.5 20.0
322(10) 0.00984 289.5 20.5
317(10) 0.00936 289.4 20.9
302(9) 0.01047 289.4 21.4
324(9) 0.01033 289.4 21.9
333(9) 0.01012 289.4 22.3
313(9) 0.01022 289.4 22.7
315(10) 0.00965 289.3 23.1
288(9) 0.01072 289.3 23.5
298(9) 0.01127 289.3 23.9
319(9) 0.01033 289.3 24.4
311(9) 0.01028 289.2 24.8
312(10) 0.00974 289.2 25.2
298(9) 0.01074 289.2 25.7
310(9) 0.01066 289.2 26.2
285(9) 0.01155 289.2 26.6
300(9) 0.01062 289.1 27.1
323(10) 0.00955 289.1 27.4
298(9) 0.01059 289.1 27.7
301(9) 0.01125 289.1 27.9
342(10) 0.00943 289.1 28.0
317(10) 0.00952 289.0 27.9
331(10) 0.00906 289.0 27.7
319(10) 0.00943 289.0 27.4
308(9) 0.01090 289.0 27.0
345(10) 0.00933 288.9 26.6
320(10) 0.00995 288.9 26.1
310(10) 0.01002 288.9 25.7
320(10) 0.00990 288.9 25.3
308(9) 0.01092 288.9 24.9
306(9) 0.01064 288.8 24.6
311(9) 0.01008 288.8 24.2
323(10) 0.00970 288.8 24.0
303(9) 0.01047 288.8 23.7
301(9) 0.01099 288.8 23.4
323(10) 0.00973 288.7 23.2
312(10) 0.00962 288.7 23.0
310(10) 0.01002 288.7 22.7
303(9) 0.01094 288.7 22.5
325(9) 0.01031 288.6 22.2
324(10) 0.00980 288.6 21.9
277(9) 0.01097 288.6 21.5
293(9) 0.01040 288.6 21.1
318(9) 0.01025 288.6 20.7
334(9) 0.01013 288.5 20.3
306(9) 0.01037 288.5 19.9
307(10) 0.00976 288.5 19.4
325(10) 0.00962 288.5 18.9
303(9) 0.01078 288.5 18.4
315(9) 0.01056 288.4 17.9
288(9) 0.01110 288.4 17.4
314(10) 0.00960 288.4 16.9
300(9) 0.01054 288.4 16.3
307(9) 0.01068 288.3 15.8
313(9) 0.01066 288.3 15.3
311(9) 0.01026 288.3 14.8
308(10) 0.00962 288.3 14.3
322(10) 0.00974 288.3 13.8
300(9) 0.01116 288.2 13.3
320(9) 0.01034 288.2 12.9
297(9) 0.01073 288.2 12.4
300(9) 0.01023 288.2 12.0
312(10) 0.00995 288.2 11.6
308(9) 0.01097 288.1 11.2
265(8) 0.01235 288.1 10.8
292(9) 0.01072 288.1 10.4
301(9) 0.01014 288.1 10.0
288(9) 0.01049 288.0 9.7
313(9) 0.01080 288.0 9.4
328(10) 0.00995 288.0 9.1
316(10) 0.00976 288.0 8.8
304(10) 0.00990 288.0 8.5
285(9) 0.01105 287.9 8.2
289(9) 0.01151 287.9 8.0
318(9) 0.01036 287.9 7.7
318(10) 0.00977 287.9 7.5
318(10) 0.00966 287.9 7.3
315(10) 0.01002 287.8 7.1
299(9) 0.01121 287.8 6.9
311(10) 0.01000 287.8 6.7
293(9) 0.01073 287.8 6.5
316(10) 0.00993 287.7 6.3
310(9) 0.01049 287.7 6.2
301(9) 0.01113 287.7 6.0
291(9) 0.01084 287.7 5.9
305(9) 0.01008 287.7 5.7
290(9) 0.01097 287.6 5.6
302(9) 0.01076 287.6 5.5
300(9) 0.01124 287.6 5.4
320(10) 0.00992 287.6 5.3
295(9) 0.01068 287.6 5.2
307(10) 0.00991 287.5 5.1
294(9) 0.01111 287.5 5.0
300(9) 0.01127 287.5 4.9
296(9) 0.01039 287.5 4.8
299(10) 0.00968 287.4 4.7
300(9) 0.01028 287.4 4.6
285(9) 0.01150 287.4 4.5
299(9) 0.01108 287.4 4.5
288(9) 0.01058 287.4 4.4
297(10) 0.01003 287.3 4.3
272(9) 0.01210 287.3 4.3
293(9) 0.01152 287.3 4.2
261(8) 0.01259 287.3 4.2
287(9) 0.01054 287.3 4.1
291(9) 0.01017 287.2 4.1
281(9) 0.01126 287.2 4.0
306(9) 0.01090 287.2 4.0
312(9) 0.01066 287.2 3.9
297(9) 0.01107 287.1 3.9
289(9) 0.01066 287.1 3.9
297(9) 0.01059 287.1 3.8
286(9) 0.01168 287.1 3.8
281(9) 0.01147 287.1 3.8
289(9) 0.01105 287.0 3.7
291(9) 0.01081 287.0 3.7
334(10) 0.00942 287.0 3.7
287(9) 0.01174 287.1 3.6
287(9) 0.01118 287.1 3.6
291(9) 0.01032 287.1 3.6
294(9) 0.01030 287.1 3.6
283(9) 0.01098 287.1 3.5
269(8) 0.01253 287.1 3.5
291(9) 0.01123 287.1 3.5
298(9) 0.01014 287.2 3.5
278(9) 0.01119 287.2 3.5
295(9) 0.01058 287.2 3.4
303(9) 0.01104 287.2 3.4
301(9) 0.01079 287.2 3.4
312(10) 0.00990 287.2 3.4
311(10) 0.00985 287.2 3.4
283(9) 0.01138 287.3 3.4
290(9) 0.01159 287.3 3.4
304(9) 0.01059 287.3 3.4
277(9) 0.01144 287.3 3.4
303(9) 0.01055 287.3 3.3
306(9) 0.01082 287.3 3.3
291(9) 0.01154 287.4 3.3
307(9) 0.01019 287.4 3.3
302(9) 0.01018 287.4 3.3
285(9) 0.01109 287.4 3.3
292(9) 0.01110 287.4 3.3
293(9) 0.01139 287.4 3.3
304(9) 0.01038 287.4 3.3
287(9) 0.01047 287.5 3.3
273(9) 0.01143 287.5 3.3
301(9) 0.01117 287.5 3.3
286(9) 0.01170 287.5 3.3
282(9) 0.01132 287.5 3.4
281(9) 0.01072 287.5 3.4
284(9) 0.01130 287.5 3.4
315(9) 0.01065 287.6 3.4
294(9) 0.01130 287.6 3.4
299(9) 0.01036 287.6 3.4
290(9) 0.01034 287.6 3.4
267(9) 0.01194 287.6 3.4
283(9) 0.01167 287.6 3.4
294(9) 0.01137 287.7 3.5
320(10) 0.00987 287.7 3.5
293(9) 0.01012 287.7 3.5
281(9) 0.01112 287.7 3.5
296(9) 0.01128 287.7 3.5
300(9) 0.01101 287.7 3.6
315(10) 0.00983 287.7 3.6
277(9) 0.01097 287.8 3.6
291(9) 0.01077 287.8 3.6
300(9) 0.01122 287.8 3.7
297(9) 0.01062 287.8 3.7
291(9) 0.01109 287.8 3.7
292(9) 0.01046 287.8 3.8
308(10) 0.01002 287.8 3.8
290(9) 0.01142 287.9 3.8
284(9) 0.01156 287.9 3.9
302(9) 0.01042 287.9 3.9
300(10) 0.01001 287.9 4.0
280(9) 0.01153 287.9 4.0
290(9) 0.01151 287.9 4.0
291(9) 0.01107 288.0 4.1
302(9) 0.01015 288.0 4.1
315(10) 0.01001 288.0 4.2
308(9) 0.01023 288.0 4.3
292(9) 0.01150 288.0 4.3
290(9) 0.01052 288.0 4.4
298(9) 0.01019 288.0 4.4
289(9) 0.01107 288.1 4.5
296(9) 0.01127 288.1 4.6
302(9) 0.01102 288.1 4.6
295(9) 0.01057 288.1 4.7
281(9) 0.01028 288.1 4.8
271(9) 0.01108 288.1 4.9
308(9) 0.01068 288.1 4.9
286(9) 0.01158 288.2 5.0
281(9) 0.01086 288.2 5.1
277(9) 0.01052 288.2 5.2
261(9) 0.01205 288.2 5.3
277(9) 0.01201 288.2 5.4
272(9) 0.01220 288.2 5.4
275(9) 0.01162 288.3 5.5
292(10) 0.01002 288.3 5.6
293(9) 0.01095 288.3 5.7
294(9) 0.01129 288.3 5.8
287(9) 0.01142 288.3 5.9
275(9) 0.01135 288.3 6.0
288(9) 0.01040 288.3 6.1
307(9) 0.01042 288.4 6.2
283(9) 0.01194 288.4 6.3
314(9) 0.01061 288.4 6.4
321(10) 0.00972 288.4 6.5
298(9) 0.01013 288.4 6.6
299(9) 0.01088 288.4 6.7
308(9) 0.01084 288.4 6.8
307(9) 0.01098 288.5 6.9
296(9) 0.01052 288.5 7.0
307(10) 0.00948 288.5 7.1
302(9) 0.01045 288.5 7.2
289(9) 0.01160 288.5 7.3
269(9) 0.01210 288.5 7.4
285(9) 0.01085 288.6 7.4
317(10) 0.00969 288.6 7.5
301(9) 0.01042 288.6 7.6
281(9) 0.01188 288.6 7.6
305(9) 0.01055 288.6 7.7
303(9) 0.01048 288.6 7.8
305(10) 0.00974 288.6 7.8
299(9) 0.01038 288.7 7.9
288(9) 0.01163 288.7 7.9
281(9) 0.01145 288.7 8.0
281(9) 0.01108 288.7 8.0
301(9) 0.01012 288.7 8.0
298(9) 0.01088 288.7 8.1
291(9) 0.01148 288.7 8.1
295(9) 0.01087 288.8 8.2
287(9) 0.01078 288.8 8.2
310(10) 0.01004 288.8 8.2
318(9) 0.01012 288.8 8.3
296(9) 0.01132 288.8 8.3
308(9) 0.01024 288.8 8.4
282(9) 0.01100 288.9 8.5
311(9) 0.01011 288.9 8.5
298(9) 0.01103 288.9 8.6
309(9) 0.01079 288.9 8.7
291(9) 0.01086 288.9 8.7
303(10) 0.00973 288.9 8.8
315(10) 0.00961 288.9 8.9
301(9) 0.01097 289.0 9.0
285(9) 0.01172 289.0 9.1
302(9) 0.01033 289.0 9.2
308(10) 0.00927 289.0 9.3
317(10) 0.00953 289.0 9.5
292(9) 0.01154 289.0 9.6
285(9) 0.01170 289.0 9.8
325(10) 0.00963 289.1 9.9
294(10) 0.00965 289.1 10.1
303(9) 0.01022 289.1 10.3
292(9) 0.01145 289.1 10.5
293(9) 0.01136 289.1 10.7
289(9) 0.01093 289.1 11.0
305(10) 0.00951 289.1 11.2
311(9) 0.01020 289.2 11.5
312(9) 0.01071 289.2 11.7
327(9) 0.01040 289.2 12.0
306(9) 0.01031 289.2 12.3
298(10) 0.00991 289.2 12.7
299(9) 0.01081 289.2 13.0
286(9) 0.01164 289.3 13.3
309(9) 0.01055 289.3 13.7
308(10) 0.00998 289.3 14.1
311(10) 0.00958 289.3 14.5
294(9) 0.01071 289.3 14.9
292(9) 0.01139 289.3 15.4
294(9) 0.01130 289.3 15.8
320(10) 0.00989 289.4 16.3
321(10) 0.00941 289.4 16.8
314(9) 0.01018 289.4 17.3
310(9) 0.01083 289.4 17.8
309(9) 0.01065 289.4 18.3
305(10) 0.01003 289.4 18.8
307(10) 0.00999 289.4 19.3
325(10) 0.00974 289.5 19.8
305(9) 0.01108 289.5 20.3
296(9) 0.01057 289.5 20.8
295(9) 0.01014 289.5 21.2
309(10) 0.00982 289.5 21.7
299(9) 0.01093 289.5 22.1
307(9) 0.01095 289.6 22.5
295(9) 0.01084 289.6 22.8
328(10) 0.00917 289.6 23.1
275(9) 0.01154 289.6 23.4
299(9) 0.01100 289.6 23.6
318(9) 0.01061 289.6 23.7
296(9) 0.01045 289.6 23.8
296(9) 0.01070 289.7 23.8
290(9) 0.01114 289.7 23.8
296(9) 0.01121 289.7 23.7
305(9) 0.01100 289.7 23.6
315(10) 0.00971 289.7 23.4
296(10) 0.01004 289.7 23.1
290(9) 0.01117 289.7 22.9
308(9) 0.01058 289.8 22.6
326(9) 0.01034 289.8 22.2
318(10) 0.00988 289.8 21.8
316(10) 0.00942 289.8 21.5
321(9) 0.01014 289.8 21.1
307(9) 0.01094 289.8 20.7
316(9) 0.01060 289.9 20.3
314(10) 0.00977 289.9 19.8
291(9) 0.01009 289.9 19.4
311(9) 0.01010 289.9 19.1
311(9) 0.01075 289.9 18.7
311(9) 0.01061 289.9 18.3
309(9) 0.01015 289.9 18.0
311(10) 0.00930 290.0 17.6
299(9) 0.01027 290.0 17.4
300(9) 0.01097 290.0 17.1
301(9) 0.01104 290.0 16.8
299(9) 0.01017 290.0 16.6
298(9) 0.01015 290.0 16.5
328(10) 0.00923 290.0 16.4
312(9) 0.01079 290.1 16.3
309(9) 0.01056 290.1 16.3
309(9) 0.01024 290.1 16.3
314(10) 0.00977 290.1 16.3
299(9) 0.01085 290.1 16.4
289(9) 0.01148 290.1 16.6
310(9) 0.01062 290.2 16.8
314(10) 0.00993 290.2 17.0
318(10) 0.00957 290.2 17.3
296(9) 0.01082 290.2 17.6
324(9) 0.01043 290.2 18.0
324(10) 0.00998 290.2 18.3
318(10) 0.00976 290.2 18.6
316(10) 0.00961 290.3 18.8
329(10) 0.00958 290.3 19.0
342(10) 0.00994 290.3 19.0
322(10) 0.00976 290.3 19.0
288(9) 0.01078 290.3 18.8
321(10) 0.00938 290.3 18.5
298(9) 0.01081 290.3 18.1
307(9) 0.01106 290.4 17.6
288(9) 0.01069 290.4 17.0
291(10) 0.01005 290.4 16.3
305(10) 0.01007 290.4 15.6
309(9) 0.01039 290.4 15.0
310(9) 0.01067 290.4 14.3
320(10) 0.00961 290.5 13.6
321(10) 0.00910 290.5 13.0
299(9) 0.01099 290.5 12.4
304(9) 0.01074 290.5 11.8
294(9) 0.01149 290.5 11.3
295(9) 0.01067 290.5 10.8
283(9) 0.01068 290.5 10.4
320(10) 0.00984 290.6 10.0
306(9) 0.01097 290.6 9.6
290(9) 0.01149 290.6 9.3
297(9) 0.01047 290.6 9.0
301(10) 0.00920 290.6 8.7
290(9) 0.01041 290.6 8.4
275(9) 0.01191 290.6 8.2
299(9) 0.01104 290.7 8.0
299(9) 0.01052 290.7 7.8
307(10) 0.00975 290.7 7.6
315(10) 0.00953 290.7 7.4
287(9) 0.01152 290.7 7.3
272(9) 0.01202 290.7 7.1
280(9) 0.01118 290.8 7.0
278(9) 0.01072 290.8 6.8
300(9) 0.01046 290.8 6.7
307(9) 0.01098 290.8 6.6
319(9) 0.01025 290.8 6.5
306(10) 0.00970 290.8 6.4
324(10) 0.00911 290.8 6.3
292(9) 0.01083 290.9 6.2
293(9) 0.01138 290.9 6.1
297(9) 0.01075 290.9 6.0
330(10) 0.00948 290.9 5.9
303(9) 0.01031 290.9 5.8
299(9) 0.01037 290.9 5.7
286(9) 0.01155 290.9 5.7
330(10) 0.00947 291.0 5.6
329(10) 0.00956 291.0 5.5
301(9) 0.01080 291.0 5.5
280(9) 0.01146 291.0 5.4
295(9) 0.01146 291.0 5.3
302(9) 0.01058 291.0 5.3
300(9) 0.01025 291.1 5.2
290(9) 0.01092 291.1 5.2
284(9) 0.01118 291.1 5.1
297(9) 0.01127 291.1 5.1
298(9) 0.01069 291.1 5.1
282(9) 0.01080 291.1 5.0
290(9) 0.01047 291.1 5.0
282(9) 0.01172 291.2 5.0
302(9) 0.01111 291.2 4.9
312(9) 0.01008 291.2 4.9
296(9) 0.01075 291.2 4.9
291(9) 0.01144 291.2 4.9
312(9) 0.01067 291.2 4.9
292(9) 0.01140 291.2 4.9
302(9) 0.01043 291.2 4.8
291(9) 0.01010 291.1 4.8
285(9) 0.01099 291.1 4.8
300(9) 0.01090 291.1 4.8
291(9) 0.01148 291.1 4.8
281(9) 0.01132 291.1 4.8
298(10) 0.00943 291.1 4.9
285(9) 0.01106 291.1 4.9
288(9) 0.01152 291.1 4.9
312(9) 0.01072 291.1 4.9
292(9) 0.01083 291.1 4.9
300(10) 0.00967 291.0 5.0
265(9) 0.01191 291.0 5.0
301(9) 0.01117 291.0 5.1
309(9) 0.01077 291.0 5.1
308(9) 0.01058 291.0 5.2
294(9) 0.01040 291.0 5.2
288(9) 0.01065 291.0 5.3
250(8) 0.01318 291.0 5.4
289(9) 0.01149 291.0 5.5
302(9) 0.01047 291.0 5.6
310(10) 0.01003 290.9 5.7
302(9) 0.01044 290.9 5.8
314(9) 0.01064 290.9 5.9
309(9) 0.01041 290.9 6.1
335(10) 0.00918 290.9 6.3
297(9) 0.01035 290.9 6.4
303(9) 0.01062 290.9 6.6
284(9) 0.01171 290.9 6.9
310(9) 0.01045 290.9 7.1
286(9) 0.01122 290.8 7.3
303(9) 0.01068 290.8 7.6
319(9) 0.01028 290.8 7.9
276(9) 0.01202 290.8 8.2
302(9) 0.01068 290.8 8.5
287(9) 0.01087 290.8 8.8
303(9) 0.01013 290.8 9.1
306(9) 0.01058 290.8 9.5
311(9) 0.01073 290.8 9.8
299(9) 0.01056 290.8 10.1
293(9) 0.01078 290.7 10.3
295(9) 0.01050 290.7 10.6
298(9) 0.01110 290.7 10.7
296(9) 0.01133 290.7 10.9
319(10) 0.00997 290.7 11.0
319(10) 0.00905 290.7 11.0
281(9) 0.01132 290.7 10.9
310(9) 0.01058 290.7 10.9
298(9) 0.01127 290.7 10.7
314(10) 0.01006 290.7 10.6
297(10) 0.00991 290.6 10.4
297(9) 0.01044 290.6 10.3
285(9) 0.01178 290.6 10.1
319(9) 0.01051 290.6 9.9
310(9) 0.01028 290.6 9.7
293(9) 0.01016 290.6 9.6
295(9) 0.01025 290.6 9.4
289(9) 0.01141 290.6 9.3
291(9) 0.01157 290.6 9.2
310(9) 0.01057 290.5 9.1
317(10) 0.00924 290.5 9.0
327(10) 0.00974 290.5 8.9
283(9) 0.01178 290.5 8.9
310(9) 0.01092 290.5 8.8
305(9) 0.01045 290.5 8.8
290(9) 0.01067 290.5 8.8
292(9) 0.01094 290.5 8.8
310(9) 0.01078 290.5 8.8
300(9) 0.01093 290.5 8.9
277(9) 0.01115 290.4 8.9
299(9) 0.01024 290.4 8.9
315(10) 0.01000 290.4 9.0
310(9) 0.01090 290.4 9.1
315(9) 0.01034 290.4 9.1
301(9) 0.01056 290.4 9.2
287(9) 0.01110 290.4 9.3
289(9) 0.01095 290.4 9.3
294(9) 0.01132 290.4 9.4
274(9) 0.01181 290.4 9.5
280(9) 0.01119 290.3 9.6
315(10) 0.01001 290.3 9.6
311(10) 0.01002 290.3 9.7
293(9) 0.01142 290.3 9.8
311(9) 0.01013 290.3 9.9
293(9) 0.01042 290.3 9.9
318(10) 0.00948 290.3 10.0
296(9) 0.01127 290.3 10.1
337(10) 0.00999 290.3 10.1
309(9) 0.01026 290.3 10.2
301(9) 0.01008 290.2 10.3
309(9) 0.01030 290.2 10.3
310(9) 0.01044 290.2 10.4
304(9) 0.01109 290.2 10.4
302(9) 0.01017 290.2 10.5
311(10) 0.00979 290.2 10.5
310(9) 0.01058 290.2 10.6
296(9) 0.01126 290.2 10.6
314(9) 0.01075 290.2 10.6
296(9) 0.01066 290.1 10.7
319(10) 0.00925 290.1 10.7
302(9) 0.01061 290.1 10.7
307(9) 0.01079 290.1 10.7
311(9) 0.01081 290.1 10.7
312(10) 0.00993 290.1 10.7
290(9) 0.01008 290.1 10.7
320(10) 0.00978 290.1 10.7
329(9) 0.01027 290.1 10.7
314(9) 0.01055 290.1 10.7
303(9) 0.01093 290.0 10.7
337(10) 0.00868 290.0 10.7
302(9) 0.01037 290.0 10.6
324(9) 0.01049 290.0 10.6
305(9) 0.01079 290.0 10.6
319(10) 0.00998 290.0 10.6
309(10) 0.00970 290.0 10.5
272(9) 0.01173 290.0 10.5
293(9) 0.01113 290.0 10.4
274(9) 0.01221 290.0 10.4
318(10) 0.00989 289.9 10.4
327(10) 0.00923 289.9 10.3
301(9) 0.01080 289.9 10.3
279(9) 0.01195 289.9 10.2
296(9) 0.01069 289.9 10.2
288(9) 0.01066 289.9 10.1
286(9) 0.01030 289.9 10.1
292(9) 0.01054 289.9 10.0
284(9) 0.01148 289.9 9.9
296(9) 0.01062 289.8 9.9
311(10) 0.00990 289.8 9.8
335(10) 0.00902 289.8 9.8
300(9) 0.01076 289.8 9.7
295(9) 0.01129 289.8 9.6
302(9) 0.01087 289.8 9.6
303(9) 0.01040 289.8 9.5
300(9) 0.01022 289.8 9.5
295(9) 0.01061 289.8 9.4
303(9) 0.01099 289.8 9.3
314(9) 0.01012 289.7 9.3
295(9) 0.01032 289.7 9.2
293(9) 0.01028 289.7 9.2
309(9) 0.01060 289.7 9.1
314(9) 0.01076 289.7 9.0
288(9) 0.01080 289.7 9.0
306(10) 0.00952 289.7 8.9
294(9) 0.01062 289.7 8.8
275(9) 0.01159 289.7 8.8
296(9) 0.01139 289.7 8.7
290(9) 0.01095 289.6 8.7
317(10) 0.00883 289.6 8.6
308(10) 0.00980 289.6 8.5
279(9) 0.01190 289.6 8.5
304(9) 0.01099 289.6 8.4
289(9) 0.01080 289.6 8.3
286(9) 0.01046 289.6 8.3
288(9) 0.01091 289.6 8.2
315(9) 0.01077 289.6 8.1
294(9) 0.01108 289.6 8.1
287(9) 0.01097 289.5 8.0
307(10) 0.00957 289.5 7.9
307(9) 0.01010 289.5 7.8
276(9) 0.01191 289.5 7.8
327(9) 0.01024 289.5 7.7
295(9) 0.01107 289.5 7.6
284(9) 0.01075 289.5 7.5
300(9) 0.01046 289.5 7.5
280(9) 0.01181 289.5 7.4
308(9) 0.01047 289.4 7.3
317(9) 0.01019 289.4 7.2
311(10) 0.00974 289.4 7.2
296(9) 0.01091 289.4 7.1
310(9) 0.01083 289.4 7.0
284(9) 0.01137 289.4 6.9
278(9) 0.01142 289.4 6.9
311(10) 0.00946 289.4 6.8
290(9) 0.01031 289.4 6.7
301(9) 0.01111 289.4 6.6
287(9) 0.01127 289.3 6.6
310(10) 0.00990 289.3 6.5
273(9) 0.01133 289.3 6.4
290(9) 0.01064 289.3 6.3
304(9) 0.01102 289.3 6.3
289(9) 0.01139 289.3 6.2
289(9) 0.01038 289.3 6.1
275(9) 0.01101 289.3 6.1
295(9) 0.01086 289.3 6.0
285(9) 0.01178 289.3 6.0
304(10) 0.00998 289.2 5.9
290(9) 0.01077 289.2 5.8
293(9) 0.01077 289.2 5.8
308(9) 0.01035 289.2 5.7
269(9) 0.01227 289.2 5.7
287(9) 0.01090 289.2 5.6
301(9) 0.01017 289.2 5.6
306(10) 0.00993 289.2 5.5
286(9) 0.01156 289.2 5.5
305(9) 0.01101 289.1 5.5
273(9) 0.01146 289.1 5.4
266(9) 0.01127 289.1 5.4
291(9) 0.01034 289.1 5.3
308(9) 0.01057 289.1 5.3
301(9) 0.01114 289.1 5.3
303(9) 0.01031 289.1 5.3
289(9) 0.01024 289.1 5.2
294(9) 0.01052 289.1 5.2
283(9) 0.01137 289.1 5.2
312(9) 0.01050 289.0 5.2
293(9) 0.01027 289.0 5.1
264(9) 0.01100 289.0 5.1
267(9) 0.01130 289.0 5.1
288(9) 0.01141 289.0 5.1
306(9) 0.01103 289.0 5.1
278(9) 0.01171 289.0 5.1
286(9) 0.01015 289.0 5.1
298(9) 0.01052 289.0 5.1
312(9) 0.01086 289.0 5.1
293(9) 0.01134 288.9 5.1
288(9) 0.01097 288.9 5.1
289(10) 0.01006 288.9 5.1
268(9) 0.01130 288.9 5.1
279(9) 0.01205 288.9 5.1
285(9) 0.01150 288.9 5.1
298(9) 0.01046 288.9 5.1
302(10) 0.00992 288.9 5.1
304(10) 0.01004 288.9 5.1
289(9) 0.01150 288.9 5.1
286(9) 0.01143 288.8 5.2
300(9) 0.01072 288.8 5.2
311(10) 0.00986 288.8 5.2
301(10) 0.01006 288.8 5.2
286(9) 0.01164 288.8 5.2
285(9) 0.01111 288.8 5.3
312(10) 0.00986 288.8 5.3
302(9) 0.01057 288.8 5.3
298(9) 0.01026 288.8 5.4
289(9) 0.01151 288.7 5.4
285(9) 0.01130 288.7 5.4
298(10) 0.01004 288.7 5.5
302(9) 0.01013 288.7 5.5
309(9) 0.01047 288.7 5.5
304(9) 0.01101 288.7 5.6
292(9) 0.01062 288.7 5.6
282(9) 0.01093 288.7 5.7
292(9) 0.01036 288.7 5.7
280(9) 0.01162 288.7 5.7
290(9) 0.01147 288.6 5.8
273(9) 0.01138 288.6 5.8
284(9) 0.01029 288.6 5.9
281(9) 0.01130 288.6 5.9
307(9) 0.01081 288.6 6.0
260(8) 0.01270 288.6 6.1
284(9) 0.01127 288.6 6.1
294(9) 0.01009 288.6 6.2
296(9) 0.01057 288.6 6.2
298(9) 0.01090 288.6 6.3
287(9) 0.01146 288.5 6.4
278(9) 0.01128 288.5 6.4
309(10) 0.00952 288.5 6.5
304(9) 0.01036 288.5 6.6
291(9) 0.01154 288.5 6.6
301(9) 0.01111 288.5 6.7
302(9) 0.01042 288.5 6.8
296(10) 0.00957 288.5 6.8
315(10) 0.00978 288.5 6.9
294(9) 0.01139 288.4 7.0
290(9) 0.01112 288.4 7.1
285(9) 0.01068 288.4 7.1
301(10) 0.00971 288.4 7.2
266(9) 0.01190 288.4 7.3
297(9) 0.01100 288.5 7.4
261(8) 0.01251 288.5 7.5
271(9) 0.01157 288.5 7.5
276(9) 0.01078 288.6 7.6
306(9) 0.01008 288.6 7.7
332(9) 0.01018 288.6 7.8
322(9) 0.01015 288.7 7.9
327(10) 0.00957 288.7 8.0
299(9) 0.01027 288.8 8.1
292(9) 0.01096 288.8 8.2
277(9) 0.01197 288.8 8.3
288(9) 0.01122 288.9 8.4
294(9) 0.01029 288.9 8.5
301(10) 0.00999 289.0 8.6
293(9) 0.01114 289.0 8.7
301(9) 0.01126 289.0 8.8
292(9) 0.01101 289.1 8.9
303(9) 0.01029 289.1 9.1
301(9) 0.01027 289.1 9.2
345(10) 0.00949 289.2 9.4
300(9) 0.01114 289.2 9.5
305(10) 0.00997 289.3 9.7
294(9) 0.01029 289.3 9.8
298(9) 0.01055 289.3 10.0
295(9) 0.01137 289.4 10.2
326(9) 0.01019 289.4 10.4
285(9) 0.01115 289.5 10.6
280(9) 0.01065 289.5 10.8
300(9) 0.01063 289.5 11.0
319(9) 0.01024 289.6 11.3
286(9) 0.01173 289.6 11.5
308(10) 0.00971 289.6 11.7
319(10) 0.00937 289.7 12.0
292(9) 0.01118 289.7 12.2
316(9) 0.01048 289.8 12.5
290(9) 0.01152 289.8 12.7
267(9) 0.01195 289.8 12.9
302(10) 0.00980 289.9 13.1
275(9) 0.01163 289.9 13.3
282(9) 0.01176 290.0 13.4
310(9) 0.01084 290.0 13.5
307(9) 0.01023 290.0 13.5
289(10) 0.00983 290.1 13.5
298(9) 0.01041 290.1 13.5
296(9) 0.01135 290.1 13.4
289(9) 0.01141 290.2 13.3
296(9) 0.01108 290.2 13.2
320(10) 0.00942 290.3 13.0
293(9) 0.01090 290.3 12.9
264(8) 0.01241 290.3 12.7
307(9) 0.01069 290.4 12.6
299(9) 0.01059 290.4 12.5
297(10) 0.00959 290.5 12.4
291(9) 0.01042 290.5 12.3
294(9) 0.01128 290.5 12.2
246(8) 0.01297 290.6 12.1
298(9) 0.01035 290.6 12.1
300(9) 0.01039 290.6 12.0
292(9) 0.01098 290.7 12.0
296(9) 0.01126 290.7 12.0
299(9) 0.01085 290.8 12.0
293(9) 0.01039 290.8 12.1
308(10) 0.00966 290.8 12.1
305(9) 0.01044 290.9 12.2
286(9) 0.01166 290.9 12.3
284(9) 0.01111 291.0 12.4
304(9) 0.01008 291.0 12.5
298(9) 0.01009 291.0 12.6
294(9) 0.01077 291.1 12.7
293(9) 0.01137 291.1 12.9
294(9) 0.01078 291.1 13.0
296(9) 0.01018 291.2 13.2
277(9) 0.01118 291.2 13.4
308(9) 0.01014 291.3 13.6
293(9) 0.01144 291.3 13.8
290(9) 0.01104 291.3 14.0
317(10) 0.00946 291.4 14.2
312(10) 0.00994 291.4 14.5
316(9) 0.01058 291.5 14.7
321(9) 0.01045 291.5 15.0
291(9) 0.01112 291.5 15.3
307(10) 0.00971 291.6 15.5
300(9) 0.01044 291.6 15.8
296(9) 0.01090 291.6 16.1
292(9) 0.01127 291.7 16.4
307(9) 0.01008 291.7 16.7
323(10) 0.00923 291.8 17.0
310(9) 0.01029 291.8 17.3
310(9) 0.01081 291.8 17.6
308(9) 0.01087 291.9 17.9
302(9) 0.01031 291.9 18.2
303(10) 0.00980 292.0 18.5
328(10) 0.00945 292.0 18.7
322(9) 0.01049 292.0 18.9
314(9) 0.01049 292.1 19.0
293(9) 0.01092 292.1 19.1
305(10) 0.00956 292.2 19.2
293(9) 0.01035 292.2 19.2
307(9) 0.01093 292.2 19.2
304(9) 0.01086 292.3 19.1
299(9) 0.01026 292.3 19.0
300(10) 0.00967 292.3 18.8
302(10) 0.01007 292.4 18.6
313(9) 0.01074 292.4 18.4
293(9) 0.01114 292.5 18.2
315(10) 0.00978 292.5 17.9
316(10) 0.00939 292.5 17.7
308(9) 0.01017 292.6 17.4
301(9) 0.01126 292.6 17.2
311(9) 0.01038 292.7 17.0
293(9) 0.01066 292.7 16.7
305(9) 0.01015 292.7 16.5
303(9) 0.01041 292.8 16.3
304(9) 0.01110 292.8 16.0
314(9) 0.01035 292.8 15.8
305(9) 0.01026 292.9 15.6
306(10) 0.00999 292.9 15.4
306(9) 0.01043 293.0 15.3
297(9) 0.01127 293.0 15.1
282(9) 0.01126 293.0 14.9
295(9) 0.01042 293.1 14.7
302(9) 0.01066 293.1 14.6
335(10) 0.00994 293.2 14.4
316(9) 0.01072 293.2 14.3
284(9) 0.01124 293.2 14.1
309(10) 0.00958 293.3 13.9
293(9) 0.01053 293.3 13.8
299(9) 0.01086 293.3 13.6
308(9) 0.01089 293.4 13.4
297(9) 0.01024 293.4 13.2
288(9) 0.01033 293.5 13.0
293(9) 0.01060 293.5 12.9
295(9) 0.01123 293.5 12.7
300(9) 0.01088 293.6 12.5
294(9) 0.01046 293.6 12.3
286(9) 0.01036 293.7 12.1
291(9) 0.01087 293.7 11.9
280(9) 0.01192 293.7 11.7
302(9) 0.01096 293.8 11.5
318(10) 0.00965 293.8 11.3
302(10) 0.00954 293.8 11.2
295(9) 0.01066 293.9 11.0
295(9) 0.01135 293.9 10.8
307(9) 0.01077 294.0 10.7
297(9) 0.01076 294.0 10.6
302(9) 0.01010 294.0 10.4
336(10) 0.00946 294.1 10.3
296(9) 0.01133 294.1 10.2
306(9) 0.01062 294.2 10.0
297(9) 0.01048 294.2 9.9
309(10) 0.00971 294.2 9.8
296(9) 0.01078 294.3 9.7
302(9) 0.01121 294.3 9.6
309(9) 0.01054 294.3 9.6
286(9) 0.01109 294.4 9.5
316(10) 0.00926 294.4 9.4
271(9) 0.01149 294.5 9.3
291(9) 0.01154 294.5 9.3
295(9) 0.01091 294.5 9.2
299(10) 0.01005 294.6 9.2
297(9) 0.01029 294.6 9.1
300(9) 0.01066 294.7 9.1
285(9) 0.01163 294.7 9.1
307(9) 0.01044 294.7 9.0
299(9) 0.01011 294.8 9.0
271(9) 0.01158 294.8 9.0
284(9) 0.01110 294.8 9.0
289(9) 0.01155 294.9 9.0
274(9) 0.01182 294.9 9.0
299(9) 0.01019 295.0 9.0
288(9) 0.01077 295.0 9.0
313(9) 0.01014 295.0 9.0
287(9) 0.01152 295.1 9.0
284(9) 0.01138 295.1 9.0
299(9) 0.01037 295.2 9.0
281(9) 0.01143 295.2 9.0
312(9) 0.01038 295.2 9.1
304(9) 0.01098 295.3 9.1
301(9) 0.01073 295.3 9.1
320(10) 0.00984 295.3 9.1
318(9) 0.01015 295.4 9.1
303(9) 0.01106 295.4 9.2
300(9) 0.01117 295.4 9.2
313(9) 0.01011 295.4 9.2
300(10) . . .
299(9) . . .
271(9) . . .
307(9) . . .
288(9) . . .
269(9) . . .
287(9) . . .
298(9) . . .
284(9) . . .
268(9) . . .
298(10) . . .
316(10) . . .
298(9) . . .
290(9) . . .
283(9) . . .
282(9) . . .
282(9) . . .
293(9) . . .
275(9) . . .
296(9) . . .
305(10) . . .
300(9) . . .
304(9) . . .
288(9) . . .
304(9) . . .
287(9) . . .
302(9) . . .
285(9) . . .
292(9) . . .
320(10) . . .
284(9) . . .
280(9) . . .
300(9) . . .
285(9) . . .
295(9) . . .
309(10) . . .
285(9) . . .
298(9) . . .
298(9) . . .
309(10) . . .
283(9) . . .
297(9) . . .
300(9) . . .
314(9) . . .
309(9) . . .
341(10) . . .
325(10) . . .
310(9) . . .
307(9) . . .
302(10) . . .
293(9) . . .
313(9) . . .
302(9) . . .
295(9) . . .
306(10) . . .
316(10) . . .
278(9) . . .
296(9) . . .
303(9) . . .
301(10) . . .
288(9) . . .
303(9) . . .
287(9) . . .
310(9) . . .
308(10) . . .
311(9) . . .
291(9) . . .
300(9) . . .
296(9) . . .
311(10) . . .
280(9) . . .
292(9) . . .
283(9) . . .
270(9) . . .
301(9) . . .
305(9) . . .
275(9) . . .
271(9) . . .
265(9) . . .
262(9) . . .
276(9) . . .
297(9) . . .
297(9) . . .
284(9) . . .
304(10) . . .
293(9) . . .
300(9) . . .
278(9) . . .
297(10) . . .
274(9) . . .
283(9) . . .
288(9) . . .
300(9) . . .
296(9) . . .
305(10) . . .
286(9) . . .
271(9) . . .
302(9) . . .
303(9) . . .
303(9) . . .
271(9) . . .
287(9) . . .
289(9) . . .
290(9) . . .
306(10) . . .
293(9) . . .
268(8) . . .
288(9) . . .
274(9) . . .
294(9) . . .
297(9) . . .
270(8) . . .
280(9) . . .
265(9) . . .
298(9) . . .
291(9) . . .
289(9) . . .
323(10) . . .
296(10) . . .
284(9) . . .
286(9) . . .
265(8) . . .
283(9) . . .
280(9) . . .
310(10) . . .
290(9) . . .
296(9) . . .
271(9) . . .
291(9) . . .
290(9) . . .
303(9) . . .
296(9) . . .
288(9) . . .
280(9) . . .
277(9) . . .
273(9) . . .
307(9) . . .
283(9) . . .
296(9) . . .
305(9) . . .
318(9) . . .
282(9) . . .
284(9) . . .
283(9) . . .
291(9) . . .
284(9) . . .
287(9) . . .
264(9) . . .
268(9) . . .
285(9) . . .
282(9) . . .
309(9) . . .
293(9) . . .
282(9) . . .
268(9) . . .
276(9) . . .
296(10) . . .
269(9) . . .
280(9) . . .
289(9) . . .
273(9) . . .
291(9) . . .
291(9) . . .
282(9) . . .
271(9) . . .
275(9) . . .
277(9) . . .
297(10) . . .
274(9) . . .
276(9) . . .
285(9) . . .
287(9) . . .
295(9) . . .
283(9) . . .
267(8) . . .
279(9) . . .
260(9) . . .
274(9) . . .
255(9) . . .
290(9) . . .
264(9) . . .
279(9) . . .
252(9) . . .
267(9) . . .
274(9) . . .
267(9) . . .
308(10) . . .
275(9) . . .
269(9) . . .
286(9) . . .
304(9) . . .
256(9) . . .
260(9) . . .
265(9) . . .
291(9) . . .
279(9) . . .
264(9) . . .
291(9) . . .
259(8) . . .
250(8) . . .
271(9) . . .
278(9) . . .
297(9) . . .
301(9) . . .
274(9) . . .
271(9) . . .
290(10) . . .
274(9) . . .
274(9) . . .
282(9) . . .
300(10) . . .
280(9) . . .
292(9) . . .
266(9) . . .
274(9) . . .
252(8) . . .
260(9) . . .
250(8) . . .
277(9) . . .
283(9) . . .
279(9) . . .
289(9) . . .
303(9) . . .
277(9) . . .
282(9) . . .
273(9) . . .
281(9) . . .
267(9) . . .
283(9) . . .
270(9) . . .
271(9) . . .
275(9) . . .
263(9) . . .
270(9) . . .
259(9) . . .
278(9) . . .
295(9) . . .
288(9) . . .
266(8) . . .
294(9) . . .
287(9) . . .
282(9) . . .
252(8) . . .
280(9) . . .
285(9) . . .
269(9) . . .
281(9) . . .
278(9) . . .
274(9) . . .
274(9) . . .
272(9) . . .
285(9) . . .
290(9) . . .
286(9) . . .
267(9) . . .
270(9) . . .
285(9) . . .
277(9) . . .
280(9) . . .
259(9) . . .
277(9) . . .
282(9) . . .
283(9) . . .
267(8) . . .
264(9) . . .
266(9) . . .
292(9) . . .
302(9) . . .
276(9) . . .
268(9) . . .
270(9) . . .
275(9) . . .
279(9) . . .
290(9) . . .
274(9) . . .
278(9) . . .
294(9) . . .
285(9) . . .
273(9) . . .
280(9) . . .
295(9) . . .
300(9) . . .
290(9) . . .
271(9) . . .
270(9) . . .
262(9) . . .
257(9) . . .
275(9) . . .
268(9) . . .
262(9) . . .
277(9) . . .
281(9) . . .
271(9) . . .
273(9) . . .
289(9) . . .
296(9) . . .
270(9) . . .
306(9) . . .
271(9) . . .
282(9) . . .
295(9) . . .
313(9) . . .
279(9) . . .
276(9) . . .
286(9) . . .
294(9) . . .
297(9) . . .
291(9) . . .
292(9) . . .
299(10) . . .
308(10) . . .
291(9) . . .
282(9) . . .
300(9) . . .
279(9) . . .
307(10) . . .
281(9) . . .
285(9) . . .
290(9) . . .
289(9) . . .
301(9) . . .
290(9) . . .
273(9) . . .
294(9) . . .
287(9) . . .
250(9) . . .
296(9) . . .
281(9) . . .
293(9) . . .
304(10) . . .
290(9) . . .
281(9) . . .
301(9) . . .
274(9) . . .
286(9) . . .
301(9) . . .
268(8) . . .
276(9) . . .
282(9) . . .
269(9) . . .
254(8) . . .
274(9) . . .
277(9) . . .
258(9) . . .
269(9) . . .
292(9) . . .
285(9) . . .
276(9) . . .
288(9) . . .
251(8) . . .
308(9) . . .
297(9) . . .
279(9) . . .
272(9) . . .
288(9) . . .
289(9) . . .
273(9) . . .
282(9) . . .
283(9) . . .
293(9) . . .
310(9) . . .
268(9) . . .
270(9) . . .
278(9) . . .
295(9) . . .
288(9) . . .
287(9) . . .
293(9) . . .
262(9) . . .
281(9) . . .
269(9) . . .
293(9) . . .
269(9) . . .
281(9) . . .
300(9) . . .
304(9) . . .
304(9) . . .
264(9) . . .
273(9) . . .
272(9) . . .
294(9) . . .
298(9) . . .
280(9) . . .
291(9) . . .
292(9) . . .
291(9) . . .
285(9) . . .
273(9) . . .
262(9) . . .
278(9) . . .
302(9) . . .
292(9) . . .
285(9) . . .
275(9) . . .
313(9) . . .
295(9) . . .
291(9) . . .
279(9) . . .
297(9) . . .
278(9) . . .
291(9) . . .
287(9) . . .
285(9) . . .
281(9) . . .
309(9) . . .
296(9) . . .
295(9) . . .
289(9) . . .
294(9) . . .
284(9) . . .
275(9) . . .
264(9) . . .
286(10) . . .
281(9) . . .
306(9) . . .
296(9) . . .
286(9) . . .
283(9) . . .
276(9) . . .
287(9) . . .
275(9) . . .
279(9) . . .
271(9) . . .
281(9) . . .
300(9) . . .
281(9) . . .
297(9) . . .
272(9) . . .
251(8) . . .
274(9) . . .
275(9) . . .
260(9) . . .
263(9) . . .
292(9) . . .
279(9) . . .
270(9) . . .
278(9) . . .
277(9) . . .
261(8) . . .
291(9) . . .
262(9) . . .
262(9) . . .
289(9) . . .
281(9) . . .
268(8) . . .
248(8) . . .
272(9) . . .
273(9) . . .
292(9) . . .
267(8) . . .
269(9) . . .
275(9) . . .
280(9) . . .
266(9) . . .
255(8) . . .
284(9) . . .
260(9) . . .
275(9) . . .
257(8) . . .
277(9) . . .
277(9) . . .
261(9) . . .
255(8) . . .
276(9) . . .
250(8) . . .
281(9) . . .
298(10) . . .
293(9) . . .
272(9) . . .
269(9) . . .
273(9) . . .
284(9) . . .
276(9) . . .
257(8) . . .
258(8) . . .
237(8) . . .
263(9) . . .
264(9) . . .
259(8) . . .
237(8) . . .
237(8) . . .
257(9) . . .
268(9) . . .
240(8) . . .
234(8) . . .
245(9) . . .
247(9) . . .
236(8) . . .
285(9) . . .
261(9) . . .
272(9) . . .
269(9) . . .
265(9) . . .
254(8) . . .
249(9) . . .
254(9) . . .
254(9) . . .
241(8) . . .
243(8) . . .
257(9) . . .
261(9) . . .
264(9) . . .
263(8) . . .
268(8) . . .
251(9) . . .
263(9) . . .
244(8) . . .
273(9) . . .
261(8) . . .
273(9) . . .
258(9) . . .
261(9) . . .
269(9) . . .
262(8) . . .
252(9) . . .
262(9) . . .
273(9) . . .
269(9) . . .
254(8) . . .
255(9) . . .
265(9) . . .
271(9) . . .
257(8) . . .
285(9) . . .
267(9) . . .
252(9) . . .
266(9) . . .
249(8) . . .
264(9) . . .
258(9) . . .
265(9) . . .
252(8) . . .
260(8) . . .
282(9) . . .
277(9) . . .
257(9) . . .
249(8) . . .
242(8) . . .
234(8) . . .
270(9) . . .
285(9) . . .
272(9) . . .
262(8) . . .
258(9) . . .
284(9) . . .
253(8) . . .
265(8) . . .
253(8) . . .
233(8) . . .
276(9) . . .
271(9) . . .
279(9) . . .
243(8) . . .
248(9) . . .
258(9) . . .
238(8) . . .
243(8) . . .
245(8) . . .
270(9) . . .
272(9) . . .
262(9) . . .
274(9) . . .
275(9) . . .
250(8) . . .
254(9) . . .
242(8) . . .
251(8) . . .
259(8) . . .
266(9) . . .
261(9) . . .
232(8) . . .
253(8) . . .
252(8) . . .
257(9) . . .
255(9) . . .
241(8) . . .
260(8) . . .
263(8) . . .
249(8) . . .
252(9) . . .
248(8) . . .
277(9) . . .
257(8) . . .
251(8) . . .
247(9) . . .
257(9) . . .
273(9) . . .
272(9) . . .
270(9) . . .
255(8) . . .
252(8) . . .
268(8) . . .
268(9) . . .
254(9) . . .
251(9) . . .
259(8) . . .
259(8) . . .
259(9) . . .
240(9) . . .
238(8) . . .
259(8) . . .
262(8) . . .
255(9) . . .
255(9) . . .
254(8) . . .
249(8) . . .
247(8) . . .
266(9) . . .
261(9) . . .
263(9) . . .
268(9) . . .
240(8) . . .
248(8) . . .
278(9) . . .
247(8) . . .
255(8) . . .
253(8) . . .
258(9) . . .
254(9) . . .
274(9) . . .
270(9) . . .
246(8) . . .
268(9) . . .
287(9) . . .
286(9) . . .
239(8) . . .
247(8) . . .
264(9) . . .
262(9) . . .
273(9) . . .
257(8) . . .
246(8) . . .
246(9) . . .
253(9) . . .
266(9) . . .
261(8) . . .
278(9) . . .
252(8) . . .
263(9) . . .
237(8) . . .
250(8) . . .
269(9) . . .
253(9) . . .
239(9) . . .
235(8) . . .
275(9) . . .
238(8) . . .
252(9) . . .
279(9) . . .
256(8) . . .
283(9) . . .
273(9) . . .
255(9) . . .
268(9) . . .
247(8) . . .
269(9) . . .
275(9) . . .
264(9) . . .
260(9) . . .
262(8) . . .
245(8) . . .
238(8) . . .
249(9) . . .
223(8) . . .
230(8) . . .
252(8) . . .
290(9) . . .
240(8) . . .
266(9) . . .
249(8) . . .
250(8) . . .
256(9) . . .
224(8) . . .
226(8) . . .
243(8) . . .
258(8) . . .
242(8) . . .
236(9) . . .
248(9) . . .
239(8) . . .
263(9) . . .
254(9) . . .
221(8) . . .
229(8) . . .
234(8) . . .
253(9) . . .
257(9) . . .
233(8) . . .
253(8) . . .
247(8) . . .
238(8) . . .
221(8) . . .
224(8) . . .
252(8) . . .
248(8) . . .
244(8) . . .
246(9) . . .
261(9) . . .
254(8) . . .
264(8) . . .
244(8) . . .
234(8) . . .
239(8) . . .
245(8) . . .
254(8) . . .
250(9) . . .
247(9) . . .
261(9) . . .
240(8) . . .
240(8) . . .
243(9) . . .
245(9) . . .
255(9) . . .
244(8) . . .
268(8) . . .
233(8) . . .
222(8) . . .
265(9) . . .
259(8) . . .
262(8) . . .
269(9) . . .
241(9) . . .
244(8) . . .
271(8) . . .
261(8) . . .
245(8) . . .
239(9) . . .
243(8) . . .
252(8) . . .
240(8) . . .
220(8) . . .
211(8) . . .
246(9) . . .
239(8) . . .
252(8) . . .
238(8) . . .
247(8) . . .
236(8) . . .
242(8) . . .
241(8) . . .
222(8) . . .
258(9) . . .
246(8) . . .
254(8) . . .
233(8) . . .
256(9) . . .
243(8) . . .
244(8) . . .
262(8) . . .
250(8) . . .
246(9) . . .
233(8) . . .
247(8) . . .
232(8) . . .
273(9) . . .
249(9) . . .
251(9) . . .
247(8) . . .
253(8) . . .
233(8) . . .
263(9) . . .
250(8) . . .
251(8) . . .
248(8) . . .
267(9) . . .
249(9) . . .
271(9) . . .
263(8) . . .
259(8) . . .
255(8) . . .
267(9) . . .
266(9) . . .
243(8) . . .
252(8) . . .
256(9) . . .
252(9) . . .
264(9) . . .
269(8) . . .
273(9) . . .
267(9) . . .
269(9) . . .
263(9) . . .
255(8) . . .
268(9) . . .
272(9) . . .
271(9) . . .
237(8) . . .
269(8) . . .
227(8) . . .
261(9) . . .
241(8) . . .
264(9) . . .
262(8) . . .
247(8) . . .
244(8) . . .
252(9) . . .
248(8) . . .
251(8) . . .
253(9) . . .
244(9) . . .
248(9) . . .
230(8) . . .
244(8) . . .
254(9) . . .
224(8) . . .
229(8) . . .
247(8) . . .
227(8) . . .
243(8) . . .
233(8) . . .
239(8) . . .
242(8) . . .
229(8) . . .
239(8) . . .
236(9) . . .
235(8) . . .
244(8) . . .
242(8) . . .
235(8) . . .
244(9) . . .
225(8) . . .
245(8) . . .
231(8) . . .
237(8) . . .
233(8) . . .
209(8) . . .
248(8) . . .
248(8) . . .
245(8) . . .
230(8) . . .
221(8) . . .
220(8) . . .
250(8) . . .
256(9) . . .
237(8) . . .
225(8) . . .
226(8) . . .
247(8) . . .
223(8) . . .
230(8) . . .
212(8) . . .
258(8) . . .
221(8) . . .
236(8) . . .
227(8) . . .
239(8) . . .
233(8) . . .
230(8) . . .
219(8) . . .
229(8) . . .
224(8) . . .
240(8) . . .
216(8) . . .
223(8) . . .
223(8) . . .
248(8) . . .
234(8) . . .
222(8) . . .
216(8) . . .
238(8) . . .
243(8) . . .
219(8) . . .
214(8) . . .
211(8) . . .
235(8) . . .
220(8) . . .
237(8) . . .
215(8) . . .
233(8) . . .
230(8) . . .
211(8) . . .
193(7) . . .
232(8) . . .
239(8) . . .
238(8) . . .
228(8) . . .
231(8) . . .
232(8) . . .
214(8) . . .
238(8) . . .
224(8) . . .
245(8) . . .
239(8) . . .
227(8) . . .
224(8) . . .
230(8) . . .
229(8) . . .
225(8) . . .
219(8) . . .
223(8) . . .
236(8) . . .
226(8) . . .
219(8) . . .
213(8) . . .
213(8) . . .
219(8) . . .
202(8) . . .
224(8) . . .
200(8) . . .
206(8) . . .
234(8) . . .
240(8) . . .
219(8) . . .
221(8) . . .
210(8) . . .
239(8) . . .
238(8) . . .
234(8) . . .
222(8) . . .
215(8) . . .
209(7) . . .
222(8) . . .
226(9) . . .
225(8) . . .
205(7) . . .
204(7) . . .
231(8) . . .
216(8) . . .
227(8) . . .
202(7) . . .
219(8) . . .
223(8) . . .
219(8) . . .
199(8) . . .
201(7) . . .
218(8) . . .
228(8) . . .
235(9) . . .
223(8) . . .
209(8) . . .
216(8) . . .
230(8) . . .
224(8) . . .
205(8) . . .
223(8) . . .
228(8) . . .
207(8) . . .
217(8) . . .
221(8) . . .
227(8) . . .
203(8) . . .
223(8) . . .
220(8) . . .
230(8) . . .
226(8) . . .
217(8) . . .
203(8) . . .
219(8) . . .
220(8) . . .
244(8) . . .
225(8) . . .
209(8) . . .
224(8) . . .
196(7) . . .
216(8) . . .
225(8) . . .
208(8) . . .
204(8) . . .
219(8) . . .
234(8) . . .
236(8) . . .
244(9) . . .
221(8) . . .
216(8) . . .
232(8) . . .
221(8) . . .
210(8) . . .
250(8) . . .
238(8) . . .
245(8) . . .
212(8) . . .
217(8) . . .
208(8) . . .
229(8) . . .
221(8) . . .
236(8) . . .
223(8) . . .
222(8) . . .
218(8) . . .
229(8) . . .
216(8) . . .
203(8) . . .
217(8) . . .
225(8) . . .
224(8) . . .
211(8) . . .
221(8) . . .
226(8) . . .
213(8) . . .
215(8) . . .
231(8) . . .
228(8) . . .
237(8) . . .
219(8) . . .
231(8) . . .
211(8) . . .
219(8) . . .
235(8) . . .
223(8) . . .
213(8) . . .
220(8) . . .
220(8) . . .
231(8) . . .
246(8) . . .
226(8) . . .
222(8) . . .
230(8) . . .
217(8) . . .
208(7) . . .
220(8) . . .
221(8) . . .
232(8) . . .
233(8) . . .
235(8) . . .
246(8) . . .
199(8) . . .
213(8) . . .
222(8) . . .
211(8) . . .
209(8) . . .
227(8) . . .
232(8) . . .
213(8) . . .
211(8) . . .
233(8) . . .
220(8) . . .
197(7) . . .
230(8) . . .
238(8) . . .
216(8) . . .
210(8) . . .
226(8) . . .
230(8) . . .
210(8) . . .
244(8) . . .
219(8) . . .
200(8) . . .
221(8) . . .
222(8) . . .
238(8) . . .
214(8) . . .
217(8) . . .
219(8) . . .
235(8) . . .
213(8) . . .
212(8) . . .
195(7) . . .
210(7) . . .
212(8) . . .
224(8) . . .
212(8) . . .
204(8) . . .
232(8) . . .
215(8) . . .
215(8) . . .
237(8) . . .
234(8) . . .
233(8) . . .
244(8) . . .
204(8) . . .
229(8) . . .
224(8) . . .
228(8) . . .
210(8) . . .
226(8) . . .
229(8) . . .
206(7) . . .
220(8) . . .
226(8) . . .
227(9) . . .
198(8) . . .
241(8) . . .
226(8) . . .
237(8) . . .
215(8) . . .
225(8) . . .
227(8) . . .
225(8) . . .
203(8) . . .
222(8) . . .
202(8) . . .
210(8) . . .
222(8) . . .
236(8) . . .
211(8) . . .
217(8) . . .
233(8) . . .
233(8) . . .
222(8) . . .
232(8) . . .
207(8) . . .
214(8) . . .
212(8) . . .
217(8) . . .
222(8) . . .
201(8) . . .
177(7) . . .
206(8) . . .
212(8) . . .
208(8) . . .
214(8) . . .
210(8) . . .
223(8) . . .
207(8) . . .
189(7) . . .
207(7) . . .
218(8) . . .
209(8) . . .
207(8) . . .
201(7) . . .
224(8) . . .
222(8) . . .
219(8) . . .
212(8) . . .
221(8) . . .
219(8) . . .
213(8) . . .
213(8) . . .
192(8) . . .
182(7) . . .
206(7) . . .
211(8) . . .
218(8) . . .
210(8) . . .
198(8) . . .
204(7) . . .
230(8) . . .
207(8) . . .
219(8) . . .
220(8) . . .
212(8) . . .
214(8) . . .
217(8) . . .
207(8) . . .
216(8) . . .
207(7) . . .
215(8) . . .
211(8) . . .
216(8) . . .
193(7) . . .
198(7) . . .
201(8) . . .
202(8) . . .
198(8) . . .
203(8) . . .
205(7) . . .
186(7) . . .
216(8) . . .
224(8) . . .
196(7) . . .
202(7) . . .
207(8) . . .
226(8) . . .
223(8) . . .
194(7) . . .
216(8) . . .
214(8) . . .
219(8) . . .
202(8) . . .
190(7) . . .
192(7) . . .
192(7) . . .
181(7) . . .
229(8) . . .
221(8) . . .
218(8) . . .
206(8) . . .
201(8) . . .
213(8) . . .
188(7) . . .
206(7) . . .
202(8) . . .
207(8) . . .
204(8) . . .
201(7) . . .
202(7) . . .
197(7) . . .
211(8) . . .
230(8) . . .
196(7) . . .
209(8) . . .
197(7) . . .
216(8) . . .
220(8) . . .
215(8) . . .
195(7) . . .
197(8) . . .
220(8) . . .
222(8) . . .
200(7) . . .
209(8) . . .
202(8) . . .
213(8) . . .
206(8) . . .
199(7) . . .
231(8) . . .
223(8) . . .
208(8) . . .
200(7) . . .
212(8) . . .
203(8) . . .
204(8) . . .
196(8) . . .
207(7) . . .
217(8) . . .
221(8) . . .
194(8) . . .
202(8) . . .
235(8) . . .
198(7) . . .
200(8) . . .
218(9) . . .
195(8) . . .
204(7) . . .
204(7) . . .
191(7) . . .
205(8) . . .
205(8) . . .
200(7) . . .
210(8) . . .
215(8) . . .
198(8) . . .
191(7) . . .
193(7) . . .
201(7) . . .
206(8) . . .
210(8) . . .
211(8) . . .
209(8) . . .
219(8) . . .
196(7) . . .
201(8) . . .
198(8) . . .
203(7) . . .
198(7) . . .
204(8) . . .
206(8) . . .
215(8) . . .
209(8) . . .
210(8) . . .
220(8) . . .
191(7) . . .
206(8) . . .
200(7) . . .
197(8) . . .
210(8) . . .
205(8) . . .
196(8) . . .
193(7) . . .
171(7) . . .
221(8) . . .
220(8) . . .
181(7) . . .
200(7) . . .
216(8) . . .
206(8) . . .
183(7) . . .
201(7) . . .
198(7) . . .
198(8) . . .
210(8) . . .
202(8) . . .
202(7) . . .
203(7) . . .
199(8) . . .
187(7) . . .
207(8) . . .
201(7) . . .
196(7) . . .
230(8) . . .
194(8) . . .
197(8) . . .
214(8) . . .
211(8) . . .
224(8) . . .
217(8) . . .
196(7) . . .
187(7) . . .
189(7) . . .
200(8) . . .
190(8) . . .
210(8) . . .
194(7) . . .
187(7) . . .
200(8) . . .
217(8) . . .
206(8) . . .
206(7) . . .
213(8) . . .
216(8) . . .
202(8) . . .
193(7) . . .
211(8) . . .
204(8) . . .
203(8) . . .
204(8) . . .
228(8) . . .
219(8) . . .
207(8) . . .
213(8) . . .
182(7) . . .
194(7) . . .
199(7) . . .
207(8) . . .
201(8) . . .
206(8) . . .
193(7) . . .
213(8) . . .
215(8) . . .
204(8) . . .
223(8) . . .
203(7) . . .
189(7) . . .
192(7) . . .
221(8) . . .
202(8) . . .
194(7) . . .
193(7) . . .
191(8) . . .
210(8) . . .
217(8) . . .
215(8) . . .
191(7) . . .
194(8) . . .
190(8) . . .
201(8) . . .
196(7) . . .
209(8) . . .
202(8) . . .
186(7) . . .
220(8) . . .
201(7) . . .
219(8) . . .
215(8) . . .
199(8) . . .
200(8) . . .
193(7) . . .
223(8) . . .
202(8) . . .
213(8) . . .
199(7) . . .
207(7) . . .
213(8) . . .
218(8) . . .
206(8) . . .
219(8) . . .
226(8) . . .
195(7) . . .
199(8) . . .
201(8) . . .
205(8) . . .
209(7) . . .
207(8) . . .
199(8) . . .
195(8) . . .
199(7) . . .
198(7) . . .
198(8) . . .
208(8) . . .
189(8) . . .
188(7) . . .
200(7) . . .
203(8) . . .
207(8) . . .
207(8) . . .
201(7) . . .
200(7) . . .
214(8) . . .
210(8) . . .
203(8) . . .
199(7) . . .
210(8) . . .
192(7) . . .
206(8) . . .
201(8) . . .
196(7) . . .
193(7) . . .
197(8) . . .
196(8) . . .
203(8) . . .
202(7) . . .
200(8) . . .
205(8) . . .
186(8) . . .
188(7) . . .
199(7) . . .
181(7) . . .
169(7) . . .
185(7) . . .
186(7) . . .
186(7) . . .
210(8) . . .
189(7) . . .
194(8) . . .
195(7) . . .
196(7) . . .
197(7) . . .
193(7) . . .
201(8) . . .
201(7) . . .
203(7) . . .
211(8) . . .
195(8) . . .
195(7) . . .
190(7) . . .
188(7) . . .
208(8) . . .
183(8) . . .
191(7) . . .
201(7) . . .
188(7) . . .
203(8) . . .
220(8) . . .
224(8) . . .
214(8) . . .
189(7) . . .
201(8) . . .
178(7) . . .
205(8) . . .
212(8) . . .
198(7) . . .
229(8) . . .
197(8) . . .
214(8) . . .
201(7) . . .
195(7) . . .
203(8) . . .
220(8) . . .
203(8) . . .
208(7) . . .
199(7) . . .
193(7) . . .
212(8) . . .
185(7) . . .
218(8) . . .
190(7) . . .
199(8) . . .
214(8) . . .
203(8) . . .
206(7) . . .
207(8) . . .
224(8) . . .
199(8) . . .
198(7) . . .
206(7) . . .
198(8) . . .
205(8) . . .
188(7) . . .
183(7) . . .
198(7) . . .
177(7) . . .
183(7) . . .
189(7) . . .
184(7) . . .
172(7) . . .
186(7) . . .
198(8) . . .
203(8) . . .
186(7) . . .
185(7) . . .
198(8) . . .
188(8) . . .
187(7) . . .
201(7) . . .
193(7) . . .
199(8) . . .
194(8) . . .
211(8) . . .
197(7) . . .
196(7) . . .
206(8) . . .
188(7) . . .
198(8) . . .
179(7) . . .
201(7) . . .
188(7) . . .
197(8) . . .
211(8) . . .
183(7) . . .
181(7) . . .
188(7) . . .
201(8) . . .
188(7) . . .
203(7) . . .
184(7) . . .
179(7) . . .
190(8) . . .
188(7) . . .
188(7) . . .
179(7) . . .
179(7) . . .
195(8) . . .
180(7) . . .
191(7) . . .
182(7) . . .
181(7) . . .
180(7) . . .
183(7) . . .
185(7) . . .
200(8) . . .
195(8) . . .
179(7) . . .
157(7) . . .
181(7) . . .
188(7) . . .
192(8) . . .
186(7) . . .
189(7) . . .
193(7) . . .
197(7) . . .
201(8) . . .
187(7) . . .
193(7) . . .
181(7) . . .
180(7) . . .
185(7) . . .
199(8) . . .
197(7) . . .
184(7) . . .
192(7) . . .
197(8) . . .
191(7) . . .
207(8) . . .
208(8) . . .
207(8) . . .
189(7) . . .
189(8) . . .
179(7) . . .
186(7) . . .
183(7) . . .
196(8) . . .
194(7) . . .
192(7) . . .
166(7) . . .
179(7) . . .
178(7) . . .
183(7) . . .
191(7) . . .
207(8) . . .
192(7) . . .
205(8) . . .
205(8) . . .
201(7) . . .
178(7) . . .
165(7) . . .
205(8) . . .
192(7) . . .
198(7) . . .
203(8) . . .
188(7) . . .
184(7) . . .
187(7) . . .
166(7) . . .
177(7) . . .
191(8) . . .
183(7) . . .
199(7) . . .
184(7) . . .
196(8) . . .
171(7) . . .
178(7) . . .
186(7) . . .
186(7) . . .
183(7) . . .
176(8) . . .
180(7) . . .
188(7) . . .
198(7) . . .
188(7) . . .
202(8) . . .
196(8) . . .
195(7) . . .
196(7) . . .
173(7) . . .
183(7) . . .
180(7) . . .
183(7) . . .
178(7) . . .
183(7) . . .
194(8) . . .
193(7) . . .
172(7) . . .
179(7) . . .
199(8) . . .
187(7) . . .
166(7) . . .
197(7) . . .
181(7) . . .
181(7) . . .
184(8) . . .
177(7) . . .
169(7) . . .
170(7) . . .
191(8) . . .
185(7) . . .
189(7) . . .
205(7) . . .
196(8) . . .
186(7) . . .
193(7) . . .
185(7) . . .
189(7) . . .
216(8) . . .
199(8) . . .
189(7) . . .
187(7) . . .
186(7) . . .
201(8) . . .
194(8) . . .
176(7) . . .
180(7) . . .
178(7) . . .
188(7) . . .
206(8) . . .
165(7) . . .
191(7) . . .
174(7) . . .
179(7) . . .
178(8) . . .
184(7) . . .
193(7) . . .
190(7) . . .
197(8) . . .
186(8) . . .
191(8) . . .
191(7) . . .
192(7) . . .
206(8) . . .
195(8) . . .
192(7) . . .
195(7) . . .
196(7) . . .
180(7) . . .
190(7) . . .
181(7) . . .
195(7) . . .
191(7) . . .
195(7) . . .
198(8) . . .
198(8) . . .
190(7) . . .
205(8) . . .
190(7) . . .
181(7) . . .
205(8) . . .
194(7) . . .
179(7) . . .
186(7) . . .
180(7) . . .
187(7) . . .
189(7) . . .
197(8) . . .
194(8) . . .
207(8) . . .
181(7) . . .
198(7) . . .
191(7) . . .
179(7) . . .
195(8) . . .
200(7) . . .
206(7) . . .
183(7) . . .
176(7) . . .
203(8) . . .
184(7) . . .
188(7) . . .
197(7) . . .
193(8) . . .
210(8) . . .
194(7) . . .
190(7) . . .
187(7) . . .
179(7) . . .
202(8) . . .
195(7) . . .
195(7) . . .
191(7) . . .
203(8) . . .
200(8) . . .
222(8) . . .
198(7) . . .
207(8) . . .
193(7) . . .
182(7) . . .
175(7) . . .
193(7) . . .
199(8) . . .
170(7) . . .
187(7) . . .
207(7) . . .
187(7) . . .
187(7) . . .
183(7) . . .
180(7) . . .
192(7) . . .
173(7) . . .
175(7) . . .
177(7) . . .
174(7) . . .
187(7) . . .
193(7) . . .
207(8) . . .
201(8) . . .
182(7) . . .
156(7) . . .
211(8) . . .
188(7) . . .
170(7) . . .
190(7) . . .
220(8) . . .
193(8) . . .
185(8) . . .
181(7) . . .
183(7) . . .
190(7) . . .
182(7) . . .
179(7) . . .
195(7) . . .
185(7) . . .
183(7) . . .
185(7) . . .
189(8) . . .
183(7) . . .
163(7) . . .
167(7) . . .
180(7) . . .
175(7) . . .
181(7) . . .
176(7) . . .
184(7) . . .
188(7) . . .
186(7) . . .
182(7) . . .
168(7) . . .
181(7) . . .
203(8) . . .
197(8) . . .
176(7) . . .
189(7) . . .
213(8) . . .
179(7) . . .
187(8) . . .
178(7) . . .
183(7) . . .
171(7) . . .
175(7) . . .
176(7) . . .
192(7) . . .
195(7) . . .
147(6) . . .
205(8) . . .
175(7) . . .
189(7) . . .
169(7) . . .
187(7) . . .
193(8) . . .
177(7) . . .
183(7) . . .
171(7) . . .
187(7) . . .
192(8) . . .
174(7) . . .
169(7) . . .
177(7) . . .
171(7) . . .
189(8) . . .
179(7) . . .
170(7) . . .
173(7) . . .
188(7) . . .
171(7) . . .
174(7) . . .
171(7) . . .
171(7) . . .
186(8) . . .
186(8) . . .
191(8) . . .
192(7) . . .
193(7) . . .
171(7) . . .
168(7) . . .
157(7) . . .
182(7) . . .
193(7) . . .
196(8) . . .
185(7) . . .
202(8) . . .
206(7) . . .
186(7) . . .
181(7) . . .
196(7) . . .
207(8) . . .
176(7) . . .
175(7) . . .
191(7) . . .
173(7) . . .
172(7) . . .
175(7) . . .
185(7) . . .
209(8) . . .
181(7) . . .
173(7) . . .
189(7) . . .
175(7) . . .
176(7) . . .
177(7) . . .
163(7) . . .
165(7) . . .
197(8) . . .
182(7) . . .
178(7) . . .
198(7) . . .
191(7) . . .
193(8) . . .
174(7) . . .
207(8) . . .
190(7) . . .
185(7) . . .
175(7) . . .
173(7) . . .
193(8) . . .
198(7) . . .
186(7) . . .
183(7) . . .
166(7) . . .
169(7) . . .
182(7) . . .
198(7) . . .
185(7) . . .
173(7) . . .
183(7) . . .
177(7) . . .
172(7) . . .
186(7) . . .
163(7) . . .
157(7) . . .
159(7) . . .
201(7) . . .
168(7) . . .
189(8) . . .
202(8) . . .
179(7) . . .
179(7) . . .
172(7) . . .
198(8) . . .
191(7) . . .
186(7) . . .
165(7) . . .
184(8) . . .
184(7) . . .
197(7) . . .
195(7) . . .
181(7) . . .
171(7) . . .
175(7) . . .
174(7) . . .
178(7) . . .
158(7) . . .
170(7) . . .
182(7) . . .
168(7) . . .
188(7) . . .
178(7) . . .
207(8) . . .
186(7) . . .
180(7) . . .
174(7) . . .
175(7) . . .
178(7) . . .
166(7) . . .
177(7) . . .
180(7) . . .
183(7) . . .
165(7) . . .
160(7) . . .
160(7) . . .
179(7) . . .
174(7) . . .
171(7) . . .
169(7) . . .
189(7) . . .
182(7) . . .
175(7) . . .
173(7) . . .
179(7) . . .
191(7) . . .
172(7) . . .
182(7) . . .
181(7) . . .
172(7) . . .
180(7) . . .
186(7) . . .
169(7) . . .
191(7) . . .
183(7) . . .
176(7) . . .
187(7) . . .
179(7) . . .
184(8) . . .
162(7) . . .
157(6) . . .
161(7) . . .
167(7) . . .
176(7) . . .
162(7) . . .
165(7) . . .
165(7) . . .
188(8) . . .
174(7) . . .
156(7) . . .
185(7) . . .
183(7) . . .
176(7) . . .
189(8) . . .
164(7) . . .
171(7) . . .
183(7) . . .
183(8) . . .
188(7) . . .
182(7) . . .
170(7) . . .
171(7) . . .
172(7) . . .
190(7) . . .
167(7) . . .
185(7) . . .
175(7) . . .
192(8) . . .
176(7) . . .
190(7) . . .
171(7) . . .
161(7) . . .
192(8) . . .
181(7) . . .
191(7) . . .
167(7) . . .
165(7) . . .
198(8) . . .
190(7) . . .
177(7) . . .
171(7) . . .
179(7) . . .
182(7) . . .
153(6) . . .
184(7) . . .
182(7) . . .
187(7) . . .
191(7) . . .
189(7) . . .
182(7) . . .
189(7) . . .
182(7) . . .
189(7) . . .
207(7) . . .
185(7) . . .
178(7) . . .
181(7) . . .
172(7) . . .
192(7) . . .
191(7) . . .
168(7) . . .
165(7) . . .
187(7) . . .
176(7) . . .
170(7) . . .
197(8) . . .
195(8) . . .
186(7) . . .
178(7) . . .
181(7) . . .
183(7) . . .
181(8) . . .
180(7) . . .
195(7) . . .
181(7) . . .
191(8) . . .
178(8) . . .
185(7) . . .
167(7) . . .
170(7) . . .
163(7) . . .
161(7) . . .
163(7) . . .
170(7) . . .
155(7) . . .
176(7) . . .
193(8) . . .
171(7) . . .
170(7) . . .
178(7) . . .
173(7) . . .
169(7) . . .
167(7) . . .
169(7) . . .
168(7) . . .
169(7) . . .
178(7) . . .
200(7) . . .
179(7) . . .
182(7) . . .
184(7) . . .
176(7) . . .
162(7) . . .
177(7) . . .
162(7) . . .
167(7) . . .
184(7) . . .
183(7) . . .
178(7) . . .
168(7) . . .
161(7) . . .
157(7) . . .
189(7) . . .
175(7) . . .
180(7) . . .
167(7) . . .
184(7) . . .
168(7) . . .
172(7) . . .
169(7) . . .
174(7) . . .
174(7) . . .
157(7) . . .
166(7) . . .
164(7) . . .
179(7) . . .
181(7) . . .
173(7) . . .
203(8) . . .
184(7) . . .
186(8) . . .
185(8) . . .
161(7) . . .
168(7) . . .
172(7) . . .
179(7) . . .
165(7) . . .
168(7) . . .
164(7) . . .
179(7) . . .
155(7) . . .
167(7) . . .
162(7) . . .
182(7) . . .
168(7) . . .
173(7) . . .
164(7) . . .
199(7) . . .
159(7) . . .
191(8) . . .
164(7) . . .
178(7) . . .
180(7) . . .
182(7) . . .
178(7) . . .
178(7) . . .
191(7) . . .
168(7) . . .
181(7) . . .
167(7) . . .
173(7) . . .
154(7) . . .
174(7) . . .
187(7) . . .
168(7) . . .
180(7) . . .
179(7) . . .
174(7) . . .
182(8) . . .
181(7) . . .
179(7) . . .
182(7) . . .
194(7) . . .
154(6) . . .
171(7) . . .
153(7) . . .
192(7) . . .
173(7) . . .
190(7) . . .
172(7) . . .
168(7) . . .
182(7) . . .
175(7) . . .
172(7) . . .
167(7) . . .
162(7) . . .
177(7) . . .
171(7) . . .
179(7) . . .
168(7) . . .
188(8) . . .
187(7) . . .
163(7) . . .
192(8) . . .
169(7) . . .
175(7) . . .
170(7) . . .
173(7) . . .
167(7) . . .
164(7) . . .
188(7) . . .
158(7) . . .
179(7) . . .
191(8) . . .
165(7) . . .
185(7) . . .
200(7) . . .
175(7) . . .
169(7) . . .
177(7) . . .
182(7) . . .
151(6) . . .
167(7) . . .
175(7) . . .
148(6) . . .
176(7) . . .
171(7) . . .
192(7) . . .
170(7) . . .
180(7) . . .
179(7) . . .
163(7) . . .
183(7) . . .
173(7) . . .
172(7) . . .
172(7) . . .
184(7) . . .
177(7) . . .
182(7) . . .
170(7) . . .
161(7) . . .
178(7) . . .
167(7) . . .
156(7) . . .
167(7) . . .
192(7) . . .
171(7) . . .
193(7) . . .
183(7) . . .
181(7) . . .
169(7) . . .
159(7) . . .
153(7) . . .
185(7) . . .
173(7) . . .
163(7) . . .
164(7) . . .
171(7) . . .
173(7) . . .
170(7) . . .
173(7) . . .
159(7) . . .
165(7) . . .
178(7) . . .
194(7) . . .
172(7) . . .
155(7) . . .
159(7) . . .
175(7) . . .
177(7) . . .
186(7) . . .
176(7) . . .
186(8) . . .
180(7) . . .
180(7) . . .
176(7) . . .
173(7) . . .
158(7) . . .
161(7) . . .
177(7) . . .
172(7) . . .
179(7) . . .
175(7) . . .
171(7) . . .
165(7) . . .
169(7) . . .
183(7) . . .
185(7) . . .
174(7) . . .
163(7) . . .
169(7) . . .
173(7) . . .
201(8) . . .
178(7) . . .
179(7) . . .
170(7) . . .
178(7) . . .
169(7) . . .
188(8) . . .
181(7) . . .
170(7) . . .
176(7) . . .
171(7) . . .
166(7) . . .
176(7) . . .
204(7) . . .
172(7) . . .
181(7) . . .
174(7) . . .
172(7) . . .
190(7) . . .
187(7) . . .
158(7) . . .
168(7) . . .
154(6) . . .
173(7) . . .
177(7) . . .
175(7) . . .
182(7) . . .
181(7) . . .
168(7) . . .
193(8) . . .
186(7) . . .
185(7) . . .
165(7) . . .
168(7) . . .
177(7) . . .
172(7) . . .
171(7) . . .
164(7) . . .
172(7) . . .
184(8) . . .
171(7) . . .
186(7) . . .
181(7) . . .
168(7) . . .
153(7) . . .
164(7) . . .
190(7) . . .
176(7) . . .
182(7) . . .
192(8) . . .
161(7) . . .
178(7) . . .
193(7) . . .
169(7) . . .
192(8) . . .
186(7) . . .
172(7) . . .
189(7) . . .
184(7) . . .
172(7) . . .
187(8) . . .
186(7) . . .
171(7) . . .
168(7) . . .
191(8) . . .
174(7) . . .
185(7) . . .
169(7) . . .
175(7) . . .
180(7) . . .
161(7) . . .
171(7) . . .
174(7) . . .
196(8) . . .
186(7) . . .
176(7) . . .
176(7) . . .
174(7) . . .
164(7) . . .
192(7) . . .
165(7) . . .
170(7) . . .
170(7) . . .
189(8) . . .
165(7) . . .
167(7) . . .
177(7) . . .
198(8) . . .
170(7) . . .
163(7) . . .
181(7) . . .
186(7) . . .
168(7) . . .
171(7) . . .
181(7) . . .
188(7) . . .
177(7) . . .
168(7) . . .
187(8) . . .
176(7) . . .
185(7) . . .
185(7) . . .
181(7) . . .
191(8) . . .
180(7) . . .
199(7) . . .
194(7) . . .
168(7) . . .
187(8) . . .
176(7) . . .
191(7) . . .
189(7) . . .
166(7) . . .
168(7) . . .
184(7) . . .
186(7) . . .
191(7) . . .
190(7) . . .
195(8) . . .
195(7) . . .
172(7) . . .
151(7) . . .
170(7) . . .
175(7) . . .
173(7) . . .
177(7) . . .
174(7) . . .
194(8) . . .
181(7) . . .
164(7) . . .
178(7) . . .
181(7) . . .
163(7) . . .
160(7) . . .
180(7) . . .
194(7) . . .
177(7) . . .
184(8) . . .
182(7) . . .
163(7) . . .
171(7) . . .
179(7) . . .
193(8) . . .
184(7) . . .
185(7) . . .
184(7) . . .
177(7) . . .
184(8) . . .
179(7) . . .
185(7) . . .
186(7) . . .
184(7) . . .
183(7) . . .
160(7) . . .
181(7) . . .
183(7) . . .
174(7) . . .
189(7) . . .
188(7) . . .
183(7) . . .
180(7) . . .
192(8) . . .
187(7) . . .
195(7) . . .
193(7) . . .
186(7) . . .
183(7) . . .
175(7) . . .
179(7) . . .
186(7) . . .
178(7) . . .
179(7) . . .
184(7) . . .
161(7) . . .
174(7) . . .
155(7) . . .
174(7) . . .
166(7) . . .
181(7) . . .
160(7) . . .
176(7) . . .
199(8) . . .
170(7) . . .
177(7) . . .
195(7) . . .
154(7) . . .
165(7) . . .
175(7) . . .
168(7) . . .
151(7) . . .
168(7) . . .
195(8) . . .
172(7) . . .
166(7) . . .
163(7) . . .
175(7) . . .
184(8) . . .
180(7) . . .
187(7) . . .
191(7) . . .
172(7) . . .
158(7) . . .
172(7) . . .
169(7) . . .
168(7) . . .
198(8) . . .
175(7) . . .
187(8) . . .
166(7) . . .
181(7) . . .
164(7) . . .
178(7) . . .
185(7) . . .
189(7) . . .
169(7) . . .
178(7) . . .
178(7) . . .
176(7) . . .
195(7) . . .
182(7) . . .
163(7) . . .
182(7) . . .
194(7) . . .
182(7) . . .
168(7) . . .
167(7) . . .
187(7) . . .
170(7) . . .
194(7) . . .
185(7) . . .
185(7) . . .
181(7) . . .
188(7) . . .
181(7) . . .
179(7) . . .
191(8) . . .
176(7) . . .
178(7) . . .
168(7) . . .
188(8) . . .
173(7) . . .
173(7) . . .
167(7) . . .
187(7) . . .
179(7) . . .
176(7) . . .
197(8) . . .
175(7) . . .
164(7) . . .
187(7) . . .
195(8) . . .
166(7) . . .
183(7) . . .
163(7) . . .
179(7) . . .
187(8) . . .
175(7) . . .
174(7) . . .
183(7) . . .
174(7) . . .
168(7) . . .
191(8) . . .
171(7) . . .
168(7) . . .
173(7) . . .
185(7) . . .
182(7) . . .
165(7) . . .
185(7) . . .
183(7) . . .
183(7) . . .
185(7) . . .
181(7) . . .
171(7) . . .
151(7) . . .
161(7) . . .
187(7) . . .
188(7) . . .
160(7) . . .
169(7) . . .
165(7) . . .
168(7) . . .
178(7) . . .
171(7) . . .
176(7) . . .
179(7) . . .
172(7) . . .
189(7) . . .
184(7) . . .
187(7) . . .
173(7) . . .
190(7) . . .
182(7) . . .
180(7) . . .
182(8) . . .
181(7) . . .
154(6) . . .
192(7) . . .
185(7) . . .
200(8) . . .
162(7) . . .
165(7) . . .
180(7) . . .
186(7) . . .
168(7) . . .
181(7) . . .
177(7) . . .
192(7) . . .
167(7) . . .
179(7) . . .
183(7) . . .
179(7) . . .
173(7) . . .
165(7) . . .
170(7) . . .
188(7) . . .
182(7) . . .
188(7) . . .
161(7) . . .
168(7) . . .
161(7) . . .
170(7) . . .
165(7) . . .
169(7) . . .
159(7) . . .
182(7) . . .
161(7) . . .
161(7) . . .
167(7) . . .
160(7) . . .
170(7) . . .
183(7) . . .
191(7) . . .
177(7) . . .
194(8) . . .
183(7) . . .
166(7) . . .
184(7) . . .
176(7) . . .
169(7) . . .
181(7) . . .
171(7) . . .
166(7) . . .
170(7) . . .
171(7) . . .
176(7) . . .
160(7) . . .
182(7) . . .
168(7) . . .
157(7) . . .
165(7) . . .
171(7) . . .
183(7) . . .
161(7) . . .
166(7) . . .
175(7) . . .
173(7) . . .
163(7) . . .
155(7) . . .
175(7) . . .
174(7) . . .
183(7) . . .
182(7) . . .
177(7) . . .
178(7) . . .
171(7) . . .
171(7) . . .
160(7) . . .
171(7) . . .
169(7) . . .
170(7) . . .
150(6) . . .
168(7) . . .
173(7) . . .
183(7) . . .
171(7) . . .
169(7) . . .
191(8) . . .
159(7) . . .
170(7) . . .
178(7) . . .
172(7) . . .
168(7) . . .
151(7) . . .
163(7) . . .
164(7) . . .
164(7) . . .
179(8) . . .
162(7) . . .
172(7) . . .
197(7) . . .
174(7) . . .
167(7) . . .
178(7) . . .
165(7) . . .
179(7) . . .
176(7) . . .
170(7) . . .
172(7) . . .
178(7) . . .
166(7) . . .
174(7) . . .
171(8) . . .
163(7) . . .
165(7) . . .
155(7) . . .
165(7) . . .
173(7) . . .
173(7) . . .
168(7) . . .
155(7) . . .
188(7) . . .
175(7) . . .
176(7) . . .
152(6) . . .
177(7) . . .
178(7) . . .
174(7) . . .
178(7) . . .
182(7) . . .
162(7) . . .
151(7) . . .
180(7) . . .
165(7) . . .
162(7) . . .
169(7) . . .
162(7) . . .
192(7) . . .
180(7) . . .
162(7) . . .
173(7) . . .
170(7) . . .
181(7) . . .
182(7) . . .
172(7) . . .
185(7) . . .
179(7) . . .
186(7) . . .
199(7) . . .
184(7) . . .
187(7) . . .
192(8) . . .
175(7) . . .
185(7) . . .
178(7) . . .
178(7) . . .
183(7) . . .
177(7) . . .
181(7) . . .
179(7) . . .
178(7) . . .
186(8) . . .
154(7) . . .
170(7) . . .
174(7) . . .
195(7) . . .
174(7) . . .
192(7) . . .
190(7) . . .
197(7) . . .
174(7) . . .
169(7) . . .
183(7) . . .
176(7) . . .
182(7) . . .
169(7) . . .
148(7) . . .
170(7) . . .
150(6) . . .
167(7) . . .
167(7) . . .
167(7) . . .
177(7) . . .
192(7) . . .
174(7) . . .
176(7) . . .
165(7) . . .
192(7) . . .
188(7) . . .
161(7) . . .
181(7) . . .
181(7) . . .
179(7) . . .
181(7) . . .
179(7) . . .
165(7) . . .
180(7) . . .
157(7) . . .
157(7) . . .
171(7) . . .
166(7) . . .
172(7) . . .
181(7) . . .
173(7) . . .
172(7) . . .
183(7) . . .
165(7) . . .
187(7) . . .
185(7) . . .
190(7) . . .
165(7) . . .
174(7) . . .
163(7) . . .
158(7) . . .
178(7) . . .
174(7) . . .
179(7) . . .
172(7) . . .
165(7) . . .
183(8) . . .
172(7) . . .
161(7) . . .
167(7) . . .
189(8) . . .
174(7) . . .
167(7) . . .
182(7) . . .
167(7) . . .
178(7) . . .
163(7) . . .
165(7) . . .
161(7) . . .
163(7) . . .
185(7) . . .
185(7) . . .
166(7) . . .
154(6) . . .
183(7) . . .
175(7) . . .
150(7) . . .
148(6) . . .
176(7) . . .
167(7) . . .
171(7) . . .
183(7) . . .
168(7) . . .
183(7) . . .
181(7) . . .
178(7) . . .
168(7) . . .
171(7) . . .
183(7) . . .
191(7) . . .
183(7) . . .
159(7) . . .
177(7) . . .
189(7) . . .
165(7) . . .
177(7) . . .
187(8) . . .
181(7) . . .
182(7) . . .
173(7) . . .
181(7) . . .
186(8) . . .
183(7) . . .
165(7) . . .
159(7) . . .
159(7) . . .
186(8) . . .
177(7) . . .
186(7) . . .
172(7) . . .
182(7) . . .
197(8) . . .
188(7) . . .
190(7) . . .
188(7) . . .
163(7) . . .
168(7) . . .
174(7) . . .
172(7) . . .
167(7) . . .
177(7) . . .
191(7) . . .
195(8) . . .
177(7) . . .
192(7) . . .
170(7) . . .
183(7) . . .
168(7) . . .
170(7) . . .
167(7) . . .
177(7) . . .
172(7) . . .
191(7) . . .
184(7) . . .
188(7) . . .
175(7) . . .
162(7) . . .
187(7) . . .
182(7) . . .
199(8) . . .
174(7) . . .
180(7) . . .
193(7) . . .
181(7) . . .
176(7) . . .
188(8) . . .
179(7) . . .
176(7) . . .
167(7) . . .
163(7) . . .
155(7) . . .
184(7) . . .
153(6) . . .
175(7) . . .
184(7) . . .
163(7) . . .
164(7) . . .
180(7) . . .
159(7) . . .
169(7) . . .
164(7) . . .
176(7) . . .
187(7) . . .
173(7) . . .
168(7) . . .
177(7) . . .
168(7) . . .
153(6) . . .
183(7) . . .
182(7) . . .
179(7) . . .
188(7) . . .
165(7) . . .
163(7) . . .
158(7) . . .
159(7) . . .
172(7) . . .
171(7) . . .
173(7) . . .
184(7) . . .
177(7) . . .
183(7) . . .
185(7) . . .
171(7) . . .
174(7) . . .
185(7) . . .
182(7) . . .
184(7) . . .
167(7) . . .
177(7) . . .
180(7) . . .
173(7) . . .
174(7) . . .
163(7) . . .
182(8) . . .
177(7) . . .
181(7) . . .
172(7) . . .
170(7) . . .
169(7) . . .
190(7) . . .
160(7) . . .
177(7) . . .
172(7) . . .
163(7) . . .
163(7) . . .
185(7) . . .
188(7) . . .
177(7) . . .
182(7) . . .
165(7) . . .
172(7) . . .
176(7) . . .
165(7) . . .
179(7) . . .
175(7) . . .
170(7) . . .
178(7) . . .
169(7) . . .
177(7) . . .
188(7) . . .
171(7) . . .
186(7) . . .
168(7) . . .
160(7) . . .
205(8) . . .
191(7) . . .
154(7) . . .
171(7) . . .
156(7) . . .
153(6) . . .
178(7) . . .
171(7) . . .
172(7) . . .
170(7) . . .
176(7) . . .
181(7) . . .
184(7) . . .
190(8) . . .
161(7) . . .
191(7) . . .
172(7) . . .
171(7) . . .
173(8) . . .
171(7) . . .
162(7) . . .
157(7) . . .
174(7) . . .
169(7) . . .
168(7) . . .
186(7) . . .
163(7) . . .
176(7) . . .
168(7) . . .
187(7) . . .
190(7) . . .
171(7) . . .
182(7) . . .
184(7) . . .
188(7) . . .
185(7) . . .
171(7) . . .
164(7) . . .
149(7) . . .
162(7) . . .
192(7) . . .
178(7) . . .
186(8) . . .
164(7) . . .
170(7) . . .
186(7) . . .
177(7) . . .
157(7) . . .
182(7) . . .
187(7) . . .
171(7) . . .
177(7) . . .
193(8) . . .
174(7) . . .
179(7) . . .
182(7) . . .
178(7) . . .
173(7) . . .
158(7) . . .
174(7) . . .
176(7) . . .
176(7) . . .
177(7) . . .
189(7) . . .
193(7) . . .
175(7) . . .
170(7) . . .
157(7) . . .
163(7) . . .
158(7) . . .
173(7) . . .
157(7) . . .
141(6) . . .
156(7) . . .
179(7) . . .
193(7) . . .
171(7) . . .
170(7) . . .
174(7) . . .
162(7) . . .
161(7) . . .
169(7) . . .
169(7) . . .
174(7) . . .
166(7) . . .
146(6) . . .
172(7) . . .
175(7) . . .
164(7) . . .
163(7) . . .
179(7) . . .
166(7) . . .
176(7) . . .
168(7) . . .
170(7) . . .
168(7) . . .
166(7) . . .
166(7) . . .
159(7) . . .
180(7) . . .
173(7) . . .
179(7) . . .
176(7) . . .
169(7) . . .
156(6) . . .
159(7) . . .
147(7) . . .
165(7) . . .
188(7) . . .
178(7) . . .
171(7) . . .
191(8) . . .
175(7) . . .
164(7) . . .
171(7) . . .
180(7) . . .
175(7) . . .
159(7) . . .
154(6) . . .
166(7) . . .
173(7) . . .
161(7) . . .
160(7) . . .
165(7) . . .
185(7) . . .
161(7) . . .
170(7) . . .
168(7) . . .
186(7) . . .
182(7) . . .
177(7) . . .
163(7) . . .
163(7) . . .
163(7) . . .
170(7) . . .
162(7) . . .
170(7) . . .
168(7) . . .
193(7) . . .
189(7) . . .
176(7) . . .
171(7) . . .
173(7) . . .
182(7) . . .
158(7) . . .
166(7) . . .
148(6) . . .
154(7) . . .
169(7) . . .
184(7) . . .
178(7) . . .
174(7) . . .
168(7) . . .
183(7) . . .
170(7) . . .
178(8) . . .
165(7) . . .
157(7) . . .
169(7) . . .
182(7) . . .
181(7) . . .
184(7) . . .
161(7) . . .
167(7) . . .
180(7) . . .
167(7) . . .
185(7) . . .
197(7) . . .
176(7) . . .
171(7) . . .
176(8) . . .
174(7) . . .
176(7) . . .
167(7) . . .
153(7) . . .
169(7) . . .
181(7) . . .
161(7) . . .
162(7) . . .
180(7) . . .
167(7) . . .
161(7) . . .
182(7) . . .
175(7) . . .
158(6) . . .
162(7) . . .
164(7) . . .
154(6) . . .
181(7) . . .
174(7) . . .
159(7) . . .
154(7) . . .
182(7) . . .
182(7) . . .
161(7) . . .
167(7) . . .
156(7) . . .
190(7) . . .
172(7) . . .
182(7) . . .
163(7) . . .
192(7) . . .
176(7) . . .
177(7) . . .
178(7) . . .
172(7) . . .
168(7) . . .
162(7) . . .
159(7) . . .
172(7) . . .
184(7) . . .
180(7) . . .
170(7) . . .
159(7) . . .
160(7) . . .
180(7) . . .
180(7) . . .
169(7) . . .
180(7) . . .
166(7) . . .
173(7) . . .
174(7) . . .
153(6) . . .
165(7) . . .
174(7) . . .
151(7) . . .
179(7) . . .
187(7) . . .
167(7) . . .
160(7) . . .
160(7) . . .
169(7) . . .
157(6) . . .
182(7) . . .
164(7) . . .
174(7) . . .
160(7) . . .
160(7) . . .
189(8) . . .
185(7) . . .
174(7) . . .
165(7) . . .
172(7) . . .
170(7) . . .
182(7) . . .
168(7) . . .
163(7) . . .
177(7) . . .
186(8) . . .
168(7) . . .
172(7) . . .
181(7) . . .
164(7) . . .
173(7) . . .
161(7) . . .
160(7) . . .
169(7) . . .
171(7) . . .
177(7) . . .
174(7) . . .
175(7) . . .
158(7) . . .
173(7) . . .
173(7) . . .
183(7) . . .
176(7) . . .
166(7) . . .
162(7) . . .
184(8) . . .
164(7) . . .
161(7) . . .
165(7) . . .
177(7) . . .
169(7) . . .
165(7) . . .
195(7) . . .
174(7) . . .
173(7) . . .
156(7) . . .
187(7) . . .
155(6) . . .
153(6) . . .
171(7) . . .
177(7) . . .
154(7) . . .
175(7) . . .
169(7) . . .
142(6) . . .
156(7) . . .
163(7) . . .
155(6) . . .
162(7) . . .
163(7) . . .
167(7) . . .
174(7) . . .
159(7) . . .
141(6) . . .
168(7) . . .
173(7) . . .
169(7) . . .
183(7) . . .
151(7) . . .
169(7) . . .
184(7) . . .
177(7) . . .
163(7) . . .
168(7) . . .
161(7) . . .
177(7) . . .
170(7) . . .
176(7) . . .
170(7) . . .
168(7) . . .
170(7) . . .
163(7) . . .
180(7) . . .
184(7) . . .
178(7) . . .
156(7) . . .
161(7) . . .
153(6) . . .
161(7) . . .
173(7) . . .
176(7) . . .
153(6) . . .
167(7) . . .
164(7) . . .
176(7) . . .
185(7) . . .
185(7) . . .
175(7) . . .
170(7) . . .
162(7) . . .
171(7) . . .
167(7) . . .
159(7) . . .
157(7) . . .
163(7) . . .
182(7) . . .
158(7) . . .
155(7) . . .
154(7) . . .
169(7) . . .
161(7) . . .
168(7) . . .
162(7) . . .
171(7) . . .
147(6) . . .
161(7) . . .
166(7) . . .
181(7) . . .
150(7) . . .
151(7) . . .
173(7) . . .
174(7) . . .
178(7) . . .
158(7) . . .
154(7) . . .
167(7) . . .
173(7) . . .
156(7) . . .
160(7) . . .
171(7) . . .
166(7) . . .
184(7) . . .
156(7) . . .
174(8) . . .
149(7) . . .
158(7) . . .
178(7) . . .
177(7) . . .
162(7) . . .
168(7) . . .
167(7) . . .
163(7) . . .
159(7) . . .
174(7) . . .
177(7) . . .
159(7) . . .
153(6) . . .
163(7) . . .
177(7) . . .
175(7) . . .
169(7) . . .
165(7) . . .
170(7) . . .
177(7) . . .
164(7) . . .
171(7) . . .
181(7) . . .
179(7) . . .
164(7) . . .
168(7) . . .
168(7) . . .
170(7) . . .
161(7) . . .
182(7) . . .
164(7) . . .
148(6) . . .
157(7) . . .
180(7) . . .
160(7) . . .
179(7) . . .
158(7) . . .
166(7) . . .
151(7) . . .
165(7) . . .
155(6) . . .
177(7) . . .
153(7) . . .
164(7) . . .
185(7) . . .
169(7) . . .
170(7) . . .
159(7) . . .
181(7) . . .
170(7) . . .
153(6) . . .
151(6) . . .
175(7) . . .
164(7) . . .
167(7) . . .
178(7) . . .
176(7) . . .
169(7) . . .
188(8) . . .
181(7) . . .
166(7) . . .
162(7) . . .
168(7) . . .
153(7) . . .
172(7) . . .
172(7) . . .
178(7) . . .
157(7) . . .
176(7) . . .
183(7) . . .
175(7) . . .
179(7) . . .
171(7) . . .
153(7) . . .
169(7) . . .
184(7) . . .
180(7) . . .
151(6) . . .
173(7) . . .
172(7) . . .
169(7) . . .
155(7) . . .
155(7) . . .
177(7) . . .
172(7) . . .
188(7) . . .
162(7) . . .
173(7) . . .
196(8) . . .
169(7) . . .
194(7) . . .
182(7) . . .
188(8) . . .
171(7) . . .
175(7) . . .
164(7) . . .
190(7) . . .
166(7) . . .
170(7) . . .
163(7) . . .
160(7) . . .
142(6) . . .
148(7) . . .
176(7) . . .
160(6) . . .
152(7) . . .
154(7) . . .
173(7) . . .
178(7) . . .
180(7) . . .
165(7) . . .
175(7) . . .
164(7) . . .
164(7) . . .
166(7) . . .
169(7) . . .
169(7) . . .
156(7) . . .
160(7) . . .
150(6) . . .
175(7) . . .
178(7) . . .
169(7) . . .
157(7) . . .
165(7) . . .
156(7) . . .
146(6) . . .
155(7) . . .
167(7) . . .
185(7) . . .
175(7) . . .
160(7) . . .
176(7) . . .
167(7) . . .
160(7) . . .
187(7) . . .
175(7) . . .
162(7) . . .
163(7) . . .
152(6) . . .
163(7) . . .
162(7) . . .
176(7) . . .
195(7) . . .
161(7) . . .
156(7) . . .
159(7) . . .
165(7) . . .
175(7) . . .
166(7) . . .
171(7) . . .
190(8) . . .
167(7) . . .
161(7) . . .
163(7) . . .
146(6) . . .
159(7) . . .
170(7) . . .
173(7) . . .
156(7) . . .
170(7) . . .
156(7) . . .
183(7) . . .
186(7) . . .
166(7) . . .
145(6) . . .
159(7) . . .
157(7) . . .
167(7) . . .
183(7) . . .
160(7) . . .
171(7) . . .
155(7) . . .
164(7) . . .
170(7) . . .
173(7) . . .
167(7) . . .
161(7) . . .
173(7) . . .
168(7) . . .
170(7) . . .
170(7) . . .
165(7) . . .
165(7) . . .
160(7) . . .
182(7) . . .
166(7) . . .
172(7) . . .
157(6) . . .
166(7) . . .
168(7) . . .
159(7) . . .
177(7) . . .
168(7) . . .
174(7) . . .
148(6) . . .
165(7) . . .
177(7) . . .
182(7) . . .
162(7) . . .
160(7) . . .
157(7) . . .
161(7) . . .
158(7) . . .
155(7) . . .
156(7) . . .
165(7) . . .
177(7) . . .
163(7) . . .
160(7) . . .
164(7) . . .
159(7) . . .
168(7) . . .
159(7) . . .
164(7) . . .
172(7) . . .
156(7) . . .
141(6) . . .
157(7) . . .
178(7) . . .
177(7) . . .
158(7) . . .
172(7) . . .
174(7) . . .
158(7) . . .
164(7) . . .
161(7) . . .
150(6) . . .
159(7) . . .
184(7) . . .
175(7) . . .
148(6) . . .
147(6) . . .
154(7) . . .
159(7) . . .
168(7) . . .
159(7) . . .
151(6) . . .
169(7) . . .
168(7) . . .
151(7) . . .
175(7) . . .
163(7) . . .
137(6) . . .
168(7) . . .
146(6) . . .
149(6) . . .
164(7) . . .
163(7) . . .
167(7) . . .
165(7) . . .
182(7) . . .
175(7) . . .
177(7) . . .
173(7) . . .
155(7) . . .
188(7) . . .
172(7) . . .
145(6) . . .
176(7) . . .
175(7) . . .
169(7) . . .
177(7) . . .
166(7) . . .
171(7) . . .
177(7) . . .
169(7) . . .
163(7) . . .
173(7) . . .
171(7) . . .
173(7) . . .
162(7) . . .
157(7) . . .
176(7) . . .
170(7) . . .
155(6) . . .
157(7) . . .
166(7) . . .
155(6) . . .
159(7) . . .
160(7) . . .
158(7) . . .
151(6) . . .
171(7) . . .
144(6) . . .
178(7) . . .
161(7) . . .
160(7) . . .
151(7) . . .
154(7) . . .
185(7) . . .
172(7) . . .
153(7) . . .
149(7) . . .
176(7) . . .
164(7) . . .
169(7) . . .
159(7) . . .
164(7) . . .
158(7) . . .
155(6) . . .
176(7) . . .
178(7) . . .
161(7) . . .
176(7) . . .
146(6) . . .
174(7) . . .
171(7) . . .
158(7) . . .
164(7) . . .
168(7) . . .
159(7) . . .
179(7) . . .
163(7) . . .
147(6) . . .
189(7) . . .
172(7) . . .
154(7) . . .
153(7) . . .
171(7) . . .
161(7) . . .
172(7) . . .
161(7) . . .
155(7) . . .
182(8) . . .
146(6) . . .
148(6) . . .
167(7) . . .
170(7) . . .
168(7) . . .
161(7) . . .
181(7) . . .
173(7) . . .
169(7) . . .
156(7) . . .
155(6) . . .
150(7) . . .
145(6) . . .
155(7) . . .
159(7) . . .
157(6) . . .
175(7) . . .
160(7) . . .
162(7) . . .
162(7) . . .
174(7) . . .
164(7) . . .
164(7) . . .
162(7) . . .
144(6) . . .
155(6) . . .
164(7) . . .
177(8) . . .
160(7) . . .
145(6) . . .
150(6) . . .
163(7) . . .
162(7) . . .
150(7) . . .
157(6) . . .
155(6) . . .
168(7) . . .
168(7) . . .
166(7) . . .
169(7) . . .
161(7) . . .
169(7) . . .
161(7) . . .
159(7) . . .
170(7) . . .
174(7) . . .
176(7) . . .
148(7) . . .
166(7) . . .
158(7) . . .
157(7) . . .
151(7) . . .
161(7) . . .
161(7) . . .
174(7) . . .
155(7) . . .
192(8) . . .
177(7) . . .
153(7) . . .
161(7) . . .
161(7) . . .
157(7) . . .
186(8) . . .
165(7) . . .
150(6) . . .
144(6) . . .
164(7) . . .
151(6) . . .
168(7) . . .
168(7) . . .
164(7) . . .
155(7) . . .
147(7) . . .
163(7) . . .
170(7) . . .
156(7) . . .
163(7) . . .
160(7) . . .
146(6) . . .
161(7) . . .
146(6) . . .
163(7) . . .
152(7) . . .
156(7) . . .
153(7) . . .
157(7) . . .
154(7) . . .
154(7) . . .
162(7) . . .
172(7) . . .
179(7) . . .
164(7) . . .
158(7) . . .
150(6) . . .
164(7) . . .
155(7) . . .
162(7) . . .
175(7) . . .
166(7) . . .
186(7) . . .
157(7) . . .
176(7) . . .
159(7) . . .
146(6) . . .
150(6) . . .
176(7) . . .
165(7) . . .
168(7) . . .
182(7) . . .
163(7) . . .
164(7) . . .
163(7) . . .
183(7) . . .
159(6) . . .
157(7) . . .
165(7) . . .
150(7) . . .
146(6) . . .
148(6) . . .
167(7) . . .
154(7) . . .
167(7) . . .
157(7) . . .
151(6) . . .
151(7) . . .
158(7) . . .
170(7) . . .
175(7) . . .
170(7) . . .
159(7) . . .
149(7) . . .
144(6) . . .
153(7) . . .
144(6) . . .
130(6) . . .
149(7) . . .
155(7) . . .
162(7) . . .
147(6) . . .
145(7) . . .
156(7) . . .
160(7) . . .
164(7) . . .
145(6) . . .
165(7) . . .
155(7) . . .
144(7) . . .
178(7) . . .
174(7) . . .
157(7) . . .
147(7) . . .
158(7) . . .
161(7) . . .
171(7) . . .
160(7) . . .
150(6) . . .
151(7) . . .
143(6) . . .
150(6) . . .
160(7) . . .
163(7) . . .
155(7) . . .
162(7) . . .
153(7) . . .
161(7) . . .
163(7) . . .
170(7) . . .
148(6) . . .
160(7) . . .
168(7) . . .
173(7) . . .
183(7) . . .
152(6) . . .
163(7) . . .
156(7) . . .
156(7) . . .
161(7) . . .
163(7) . . .
152(6) . . .
171(7) . . .
142(6) . . .
158(7) . . .
170(7) . . .
162(7) . . .
167(7) . . .
181(7) . . .
166(7) . . .
165(7) . . .
153(6) . . .
166(7) . . .
150(7) . . .
151(6) . . .
168(7) . . .
158(7) . . .
167(7) . . .
154(7) . . .
171(7) . . .
159(7) . . .
174(7) . . .
174(7) . . .
169(7) . . .
152(6) . . .
163(7) . . .
163(7) . . .
177(7) . . .
172(7) . . .
156(6) . . .
168(7) . . .
160(7) . . .
153(6) . . .
151(6) . . .
171(7) . . .
160(7) . . .
151(7) . . .
153(7) . . .
167(7) . . .
158(7) . . .
172(7) . . .
174(7) . . .
143(6) . . .
162(7) . . .
167(7) . . .
164(7) . . .
160(7) . . .
161(7) . . .
152(6) . . .
157(6) . . .
157(7) . . .
154(7) . . .
148(7) . . .
134(6) . . .
165(7) . . .
169(7) . . .
155(7) . . .
154(7) . . .
148(6) . . .
160(7) . . .
152(7) . . .
157(7) . . .
163(7) . . .
166(7) . . .
158(7) . . .
158(7) . . .
141(7) . . .
137(6) . . .
141(6) . . .
153(6) . . .
154(7) . . .
163(7) . . .
167(7) . . .
164(7) . . .
174(7) . . .
142(6) . . .
157(7) . . .
161(7) . . .
158(7) . . .
146(6) . . .
165(7) . . .
173(7) . . .
156(7) . . .
167(7) . . .
151(7) . . .
172(7) . . .
164(7) . . .
161(7) . . .
153(6) . . .
171(7) . . .
168(7) . . .
155(7) . . .
141(6) . . .
148(6) . . .
176(7) . . .
150(7) . . .
142(7) . . .
144(6) . . .
162(7) . . .
173(7) . . .
167(7) . . .
145(6) . . .
144(6) . . .
150(6) . . .
144(7) . . .
158(7) . . .
148(6) . . .
161(7) . . .
155(7) . . .
153(7) . . .
149(7) . . .
168(7) . . .
164(7) . . .
167(7) . . .
170(7) . . .
164(7) . . .
163(7) . . .
153(7) . . .
154(6) . . .
162(7) . . .
172(7) . . .
161(7) . . .
156(6) . . .
172(7) . . .
154(7) . . .
157(7) . . .
139(6) . . .
143(6) . . .
157(7) . . .
147(7) . . .
141(6) . . .
158(7) . . .
175(7) . . .
152(6) . . .
149(7) . . .
171(7) . . .
173(7) . . .
174(7) . . .
155(7) . . .
156(7) . . .
167(7) . . .
155(7) . . .
148(6) . . .
157(7) . . .
172(7) . . .
160(7) . . .
153(7) . . .
148(6) . . .
170(7) . . .
175(7) . . .
151(7) . . .
157(7) . . .
169(7) . . .
163(7) . . .
151(7) . . .
172(7) . . .
167(7) . . .
155(6) . . .
172(7) . . .
167(7) . . .
142(6) . . .
163(7) . . .
160(7) . . .
183(7) . . .
162(7) . . .
154(7) . . .
143(6) . . .
166(7) . . .
147(6) . . .
161(7) . . .
183(7) . . .
162(7) . . .
143(6) . . .
160(7) . . .
158(7) . . .
146(6) . . .
167(7) . . .
170(7) . . .
169(7) . . .
164(7) . . .
156(7) . . .
140(6) . . .
153(7) . . .
153(7) . . .
172(7) . . .
155(7) . . .
157(7) . . .
173(7) . . .
134(6) . . .
157(7) . . .
143(6) . . .
158(7) . . .
135(6) . . .
155(7) . . .
165(7) . . .
172(7) . . .
160(7) . . .
170(7) . . .
154(7) . . .
165(7) . . .
162(7) . . .
175(7) . . .
169(7) . . .
155(7) . . .
158(7) . . .
158(7) . . .
169(7) . . .
161(7) . . .
136(6) . . .
153(7) . . .
181(7) . . .
158(7) . . .
160(7) . . .
159(7) . . .
159(7) . . .
163(7) . . .
166(7) . . .
166(7) . . .
153(7) . . .
161(7) . . .
159(7) . . .
149(6) . . .
158(7) . . .
151(7) . . .
154(7) . . .
163(7) . . .
168(7) . . .
149(7) . . .
165(7) . . .
153(7) . . .
156(6) . . .
161(7) . . .
180(7) . . .
152(7) . . .
149(6) . . .
162(7) . . .
163(7) . . .
158(7) . . .
154(7) . . .
166(7) . . .
169(7) . . .
162(7) . . .
181(7) . . .
160(7) . . .
152(7) . . .
163(7) . . .
147(6) . . .
148(7) . . .
161(7) . . .
143(6) . . .
169(7) . . .
172(7) . . .
147(7) . . .
159(7) . . .
166(7) . . .
156(6) . . .
151(6) . . .
158(7) . . .
155(7) . . .
151(6) . . .
139(6) . . .
154(7) . . .
168(7) . . .
152(7) . . .
176(7) . . .
176(7) . . .
145(6) . . .
157(7) . . .
165(7) . . .
162(7) . . .
161(7) . . .
168(7) . . .
136(6) . . .
163(7) . . .
158(7) . . .
166(7) . . .
144(7) . . .
169(7) . . .
168(7) . . .
174(7) . . .
161(7) . . .
155(7) . . .
163(7) . . .
156(7) . . .
146(6) . . .
148(7) . . .
152(7) . . .
156(7) . . .
157(7) . . .
138(6) . . .
149(7) . . .
150(7) . . .
159(7) . . .
183(7) . . .
154(6) . . .
146(7) . . .
143(6) . . .
161(7) . . .
162(7) . . .
145(6) . . .
156(7) . . .
147(7) . . .
141(6) . . .
164(7) . . .
159(7) . . .
165(7) . . .
159(7) . . .
150(7) . . .
166(7) . . .
151(6) . . .
150(7) . . .
173(7) . . .
145(7) . . .
161(7) . . .
168(7) . . .
151(7) . . .
151(7) . . .
167(7) . . .
151(6) . . .
155(6) . . .
154(7) . . .
156(7) . . .
151(7) . . .
160(7) . . .
145(6) . . .
153(7) . . .
159(7) . . .
146(6) . . .
166(7) . . .
152(7) . . .
166(7) . . .
148(7) . . .
137(6) . . .
151(6) . . .
173(7) . . .
180(7) . . .
144(6) . . .
161(7) . . .
165(7) . . .
152(6) . . .
152(7) . . .
151(7) . . .
155(7) . . .
162(7) . . .
163(7) . . .
155(7) . . .
156(7) . . .
169(7) . . .
153(6) . . .
168(7) . . .
152(7) . . .
153(7) . . .
163(7) . . .
144(6) . . .
158(7) . . .
163(7) . . .
157(7) . . .
152(6) . . .
134(6) . . .
167(7) . . .
162(7) . . .
162(7) . . .
157(7) . . .
138(6) . . .
169(7) . . .
154(7) . . .
165(7) . . .
155(6) . . .
169(7) . . .
164(7) . . .
153(7) . . .
155(7) . . .
158(7) . . .
153(7) . . .
169(7) . . .
151(6) . . .
168(7) . . .
146(6) . . .
172(7) . . .
153(7) . . .
169(7) . . .
150(7) . . .
136(6) . . .
161(7) . . .
143(6) . . .
163(7) . . .
151(6) . . .
160(7) . . .
164(7) . . .
158(7) . . .
152(7) . . .
146(6) . . .
163(7) . . .
167(7) . . .
160(7) . . .
159(7) . . .
156(7) . . .
163(7) . . .
162(7) . . .
166(7) . . .
162(7) . . .
157(6) . . .
162(7) . . .
172(7) . . .
152(7) . . .
151(7) . . .
167(7) . . .
164(7) . . .
165(7) . . .
147(7) . . .
158(7) . . .
148(6) . . .
150(6) . . .
157(7) . . .
145(7) . . .
136(6) . . .
136(6) . . .
167(7) . . .
157(7) . . .
176(7) . . .
162(7) . . .
185(7) . . .
157(7) . . .
155(7) . . .
155(7) . . .
150(7) . . .
136(6) . . .
140(6) . . .
149(7) . . .
162(7) . . .
149(6) . . .
160(7) . . .
141(6) . . .
150(6) . . .
163(7) . . .
169(7) . . .
147(6) . . .
144(6) . . .
150(7) . . .
137(6) . . .
148(6) . . .
155(6) . . .
155(7) . . .
166(7) . . .
149(6) . . .
146(6) . . .
154(6) . . .
152(7) . . .
157(7) . . .
175(7) . . .
153(6) . . .
181(7) . . .
144(6) . . .
168(7) . . .
158(7) . . .
147(6) . . .
157(7) . . .
141(6) . . .
147(7) . . .
144(6) . . .
142(6) . . .
149(7) . . .
157(7) . . .
156(7) . . .
137(6) . . .
146(6) . . .
152(6) . . .
151(7) . . .
159(7) . . .
163(7) . . .
142(6) . . .
141(6) . . .
147(7) . . .
171(7) . . .
157(7) . . .
155(6) . . .
145(6) . . .
154(7) . . .
170(7) . . .
158(7) . . .
159(7) . . .
148(6) . . .
150(7) . . .
133(6) . . .
150(6) . . .
152(6) . . .
150(6) . . .
148(7) . . .
145(6) . . .
147(6) . . .
156(7) . . .
169(7) . . .
136(6) . . .
162(7) . . .
154(6) . . .
160(7) . . .
169(7) . . .
171(7) . . .
164(7) . . .
164(7) . . .
137(6) . . .
168(7) . . .
144(7) . . .
155(7) . . .
155(6) . . .
170(7) . . .
151(6) . . .
157(7) . . .
151(7) . . .
169(7) . . .
148(6) . . .
141(7) . . .
154(7) . . .
136(6) . . .
150(6) . . .
153(6) . . .
153(7) . . .
132(6) . . .
153(7) . . .
159(7) . . .
149(7) . . .
160(7) . . .
142(7) . . .
126(6) . . .
174(7) . . .
148(6) . . .
154(7) . . .
152(7) . . .
159(7) . . .
156(6) . . .
161(7) . . .
168(7) . . .
150(7) . . .
136(6) . . .
144(6) . . .
171(7) . . .
167(7) . . .
157(7) . . .
158(7) . . .
137(6) . . .
153(7) . . .
163(7) . . .
157(7) . . .
140(6) . . .
145(6) . . .
155(7) . . .
157(7) . . .
171(7) . . .
165(7) . . .
144(6) . . .
154(7) . . .
148(7) . . .
163(7) . . .
151(6) . . .
163(7) . . .
162(7) . . .
161(7) . . .
167(7) . . .
168(7) . . .
168(7) . . .
152(7) . . .
149(7) . . .
160(7) . . .
141(6) . . .
143(6) . . .
159(7) . . .
139(6) . . .
141(6) . . .
139(6) . . .
148(7) . . .
160(7) . . .
150(7) . . .
150(7) . . .
159(7) . . .
151(6) . . .
168(7) . . .
169(7) . . .
153(7) . . .
148(6) . . .
156(7) . . .
145(6) . . .
152(7) . . .
158(7) . . .
161(7) . . .
148(6) . . .
161(7) . . .
168(7) . . .
153(6) . . .
148(6) . . .
153(7) . . .
143(7) . . .
147(7) . . .
153(7) . . .
139(6) . . .
158(7) . . .
154(7) . . .
145(6) . . .
146(6) . . .
170(7) . . .
155(7) . . .
147(7) . . .
148(6) . . .
145(6) . . .
140(6) . . .
146(7) . . .
159(7) . . .
142(6) . . .
158(7) . . .
132(6) . . .
144(6) . . .
155(7) . . .
132(6) . . .
137(6) . . .
157(7) . . .
144(6) . . .
155(7) . . .
143(6) . . .
145(6) . . .
155(7) . . .
141(6) . . .
140(7) . . .
145(7) . . .
147(6) . . .
146(6) . . .
152(7) . . .
148(7) . . .
163(7) . . .
159(7) . . .
149(6) . . .
141(6) . . .
153(7) . . .
157(7) . . .
143(6) . . .
136(6) . . .
137(6) . . .
146(7) . . .
146(6) . . .
134(6) . . .
155(7) . . .
143(7) . . .
151(7) . . .
153(6) . . .
138(6) . . .
152(7) . . .
161(7) . . .
137(6) . . .
150(6) . . .
130(6) . . .
137(6) . . .
140(6) . . .
159(7) . . .
153(7) . . .
140(6) . . .
140(6) . . .
141(6) . . .
146(6) . . .
144(6) . . .
167(7) . . .
168(7) . . .
151(7) . . .
146(6) . . .
158(7) . . .
140(6) . . .
150(7) . . .
141(7) . . .
160(7) . . .
141(6) . . .
161(7) . . .
165(7) . . .
160(7) . . .
154(7) . . .
150(6) . . .
165(7) . . .
155(7) . . .
145(7) . . .
148(7) . . .
141(6) . . .
137(6) . . .
154(7) . . .
142(6) . . .
142(6) . . .
141(6) . . .
147(6) . . .
145(6) . . .
132(6) . . .
150(6) . . .
156(7) . . .
162(7) . . .
155(7) . . .
152(7) . . .
153(6) . . .
142(6) . . .
155(7) . . .
141(7) . . .
137(6) . . .
131(6) . . .
146(6) . . .
150(6) . . .
147(7) . . .
144(6) . . .
148(6) . . .
149(6) . . .
151(7) . . .
152(7) . . .
146(6) . . .
145(6) . . .
144(6) . . .
158(7) . . .
156(7) . . .
146(6) . . .
178(7) . . .
173(7) . . .
150(7) . . .
149(7) . . .
174(7) . . .
144(6) . . .
147(6) . . .
146(7) . . .
145(7) . . .
152(7) . . .
154(6) . . .
161(7) . . .
146(7) . . .
144(7) . . .
157(7) . . .
147(6) . . .
132(6) . . .
151(7) . . .
159(7) . . .
154(7) . . .
147(6) . . .
130(6) . . .
137(6) . . .
149(7) . . .
137(6) . . .
154(6) . . .
148(6) . . .
145(7) . . .
152(7) . . .
139(6) . . .
148(6) . . .
160(7) . . .
159(7) . . .
159(7) . . .
144(6) . . .
143(6) . . .
164(7) . . .
170(7) . . .
156(7) . . .
153(6) . . .
139(6) . . .
159(7) . . .
156(7) . . .
153(6) . . .
142(6) . . .
148(6) . . .
151(7) . . .
159(7) . . .
153(7) . . .
153(6) . . .
150(6) . . .
166(7) . . .
161(7) . . .
160(7) . . .
159(7) . . .
163(7) . . .
156(7) . . .
159(7) . . .
167(7) . . .
167(7) . . .
161(7) . . .
169(7) . . .
154(7) . . .
149(6) . . .
155(6) . . .
173(7) . . .
157(7) . . .
158(7) . . .
156(7) . . .
141(6) . . .
167(7) . . .
165(7) . . .
157(7) . . .
163(7) . . .
154(6) . . .
156(7) . . .
158(7) . . .
171(7) . . .
145(6) . . .
164(7) . . .
155(7) . . .
174(7) . . .
146(6) . . .
158(7) . . .
169(7) . . .
141(6) . . .
149(7) . . .
149(6) . . .
160(7) . . .
146(6) . . .
164(7) . . .
159(7) . . .
154(7) . . .
156(7) . . .
144(6) . . .
167(7) . . .
153(7) . . .
174(7) . . .
150(6) . . .
134(6) . . .
147(7) . . .
150(7) . . .
153(7) . . .
139(6) . . .
155(6) . . .
143(6) . . .
147(7) . . .
160(7) . . .
152(6) . . .
142(6) . . .
160(7) . . .
159(7) . . .
157(7) . . .
143(6) . . .
152(6) . . .
162(7) . . .
158(7) . . .
148(6) . . .
141(6) . . .
152(7) . . .
156(7) . . .
169(7) . . .
145(6) . . .
152(6) . . .
147(6) . . .
138(6) . . .
164(7) . . .
157(7) . . .
139(6) . . .
148(6) . . .
136(6) . . .
144(7) . . .
142(6) . . .
164(7) . . .
145(7) . . .
151(7) . . .
134(6) . . .
139(6) . . .
150(6) . . .
148(7) . . .
141(7) . . .
135(6) . . .
124(6) . . .
148(6) . . .
160(7) . . .
163(7) . . .
161(7) . . .
144(6) . . .
150(6) . . .
146(6) . . .
150(7) . . .
144(6) . . .
162(7) . . .
143(6) . . .
134(6) . . .
146(7) . . .
150(6) . . .
158(7) . . .
149(7) . . .
145(6) . . .
134(6) . . .
141(6) . . .
158(7) . . .
149(6) . . .
153(7) . . .
155(7) . . .
135(6) . . .
156(6) . . .
145(6) . . .
152(7) . . .
133(6) . . .
152(7) . . .
155(6) . . .
140(6) . . .
147(6) . . .
152(7) . . .
143(6) . . .
143(6) . . .
136(6) . . .
150(7) . . .
153(7) . . .
135(6) . . .
166(7) . . .
158(7) . . .
149(7) . . .
148(6) . . .
155(7) . . .
162(7) . . .
155(7) . . .
157(7) . . .
149(6) . . .
151(6) . . .
148(6) . . .
143(6) . . .
136(6) . . .
150(7) . . .
170(7) . . .
162(7) . . .
134(6) . . .
140(7) . . .
148(6) . . .
152(6) . . .
156(6) . . .
160(7) . . .
157(7) . . .
155(7) . . .
147(6) . . .
171(7) . . .
172(7) . . .
158(7) . . .
148(7) . . .
161(7) . . .
147(6) . . .
152(7) . . .
155(7) . . .
154(7) . . .
140(6) . . .
139(6) . . .
152(7) . . .
152(7) . . .
140(6) . . .
142(6) . . .
162(7) . . .
155(7) . . .
154(7) . . .
140(6) . . .
157(6) . . .
156(7) . . .
143(7) . . .
131(6) . . .
166(7) . . .
154(6) . . .
144(7) . . .
158(7) . . .
159(7) . . .
153(6) . . .
145(6) . . .
137(6) . . .
161(7) . . .
142(6) . . .
160(7) . . .
147(6) . . .
170(7) . . .
158(7) . . .
154(7) . . .
159(7) . . .
151(6) . . .
149(7) . . .
156(7) . . .
149(7) . . .
147(6) . . .
151(6) . . .
151(7) . . .
147(7) . . .
154(7) . . .
139(6) . . .
146(6) . . .
131(6) . . .
160(7) . . .
170(7) . . .
157(6) . . .
146(6) . . .
139(6) . . .
147(7) . . .
139(6) . . .
153(6) . . .
170(7) . . .
145(6) . . .
150(7) . . .
140(6) . . .
155(6) . . .
153(7) . . .
123(6) . . .
150(7) . . .
131(6) . . .
147(6) . . .
135(6) . . .
140(7) . . .
155(7) . . .
155(6) . . .
151(6) . . .
155(7) . . .
141(6) . . .
151(7) . . .
157(7) . . .
159(7) . . .
145(6) . . .
137(6) . . .
146(7) . . .
151(6) . . .
147(6) . . .
161(7) . . .
152(7) . . .
132(6) . . .
161(7) . . .
146(6) . . .
131(6) . . .
148(7) . . .
168(7) . . .
158(7) . . .
155(6) . . .
147(6) . . .
158(7) . . .
144(6) . . .
133(6) . . .
161(7) . . .
146(6) . . .
140(6) . . .
141(6) . . .
148(6) . . .
139(6) . . .
141(6) . . .
154(7) . . .
145(6) . . .
171(7) . . .
135(6) . . .
147(6) . . .
157(7) . . .
150(7) . . .
129(6) . . .
142(6) . . .
152(7) . . .
156(7) . . .
135(6) . . .
149(6) . . .
152(7) . . .
138(6) . . .
144(6) . . .
168(7) . . .
141(6) . . .
130(6) . . .
138(6) . . .
138(6) . . .
170(7) . . .
148(6) . . .
137(6) . . .
139(6) . . .
162(7) . . .
140(6) . . .
134(6) . . .
149(7) . . .
132(6) . . .
137(6) . . .
145(6) . . .
146(6) . . .
137(6) . . .
155(7) . . .
136(6) . . .
155(7) . . .
129(6) . . .
155(7) . . .
134(6) . . .
134(6) . . .
148(6) . . .
137(6) . . .
138(6) . . .
160(7) . . .
140(6) . . .
156(6) . . .
162(7) . . .
141(6) . . .
138(7) . . .
128(6) . . .
134(6) . . .
137(6) . . .
142(7) . . .
129(6) . . .
134(6) . . .
153(6) . . .
155(7) . . .
142(6) . . .
151(7) . . .
149(6) . . .
150(6) . . .
155(7) . . .
136(6) . . .
147(7) . . .
151(7) . . .
149(6) . . .
154(7) . . .
141(7) . . .
160(7) . . .
138(6) . . .
118(6) . . .
134(6) . . .
134(7) . . .
128(6) . . .
143(6) . . .
156(6) . . .
144(6) . . .
140(7) . . .
136(6) . . .
154(6) . . .
138(6) . . .
138(6) . . .
149(7) . . .
136(6) . . .
137(6) . . .
130(6) . . .
131(6) . . .
142(7) . . .
134(6) . . .
137(6) . . .
153(6) . . .
131(6) . . .
126(6) . . .
144(6) . . .
141(6) . . .
156(7) . . .
138(6) . . .
156(7) . . .
145(7) . . .
143(6) . . .
155(7) . . .
150(7) . . .
136(6) . . .
148(7) . . .
170(7) . . .
147(6) . . .
139(6) . . .
131(6) . . .
147(7) . . .
146(6) . . .
137(6) . . .
153(7) . . .
151(7) . . .
155(7) . . .
143(6) . . .
155(7) . . .
145(7) . . .
127(6) . . .
142(6) . . .
130(6) . . .
135(6) . . .
136(6) . . .
140(6) . . .
133(6) . . .
135(6) . . .
137(6) . . .
139(7) . . .
141(6) . . .
155(6) . . .
142(6) . . .
136(6) . . .
128(6) . . .
145(7) . . .
154(6) . . .
158(7) . . .
131(6) . . .
145(7) . . .
148(7) . . .
136(6) . . .
136(6) . . .
145(6) . . .
135(6) . . .
139(6) . . .
148(6) . . .
150(7) . . .
137(6) . . .
160(7) . . .
154(7) . . .
147(6) . . .
131(6) . . .
138(6) . . .
148(7) . . .
142(7) . . .
143(6) . . .
134(6) . . .
147(7) . . .
142(6) . . .
142(6) . . .
125(6) . . .
139(6) . . .
130(6) . . .
135(6) . . .
145(6) . . .
137(6) . . .
147(7) . . .
123(6) . . .
128(6) . . .
135(6) . . .
138(6) . . .
132(6) . . .
144(7) . . .
135(6) . . .
146(6) . . .
137(6) . . .
149(7) . . .
144(6) . . .
141(6) . . .
145(6) . . .
130(6) . . .
148(7) . . .
122(6) . . .
136(6) . . .
124(6) . . .
132(6) . . .
129(6) . . .
138(7) . . .
139(6) . . .
138(6) . . .
154(6) . . .
162(7) . . .
135(7) . . .
130(6) . . .
132(6) . . .
131(6) . . .
153(7) . . .
126(6) . . .
126(6) . . .
156(7) . . .
135(6) . . .
143(6) . . .
127(6) . . .
150(7) . . .
139(6) . . .
138(6) . . .
126(6) . . .
136(7) . . .
132(6) . . .
147(6) . . .
132(6) . . .
140(6) . . .
137(7) . . .
145(7) . . .
125(6) . . .
133(6) . . .
152(7) . . .
133(6) . . .
145(6) . . .
136(6) . . .
127(6) . . .
122(6) . . .
142(7) . . .
145(6) . . .
152(6) . . .
132(6) . . .
144(7) . . .
147(6) . . .
142(6) . . .
152(6) . . .
145(6) . . .
142(7) . . .
146(6) . . .
151(6) . . .
127(6) . . .
138(6) . . .
125(6) . . .
132(6) . . .
164(7) . . .
148(6) . . .
137(6) . . .
147(7) . . .
141(6) . . .
136(6) . . .
131(6) . . .
142(6) . . .
151(7) . . .
150(6) . . .
141(6) . . .
145(6) . . .
146(6) . . .
136(6) . . .
148(7) . . .
155(6) . . .
149(6) . . .
152(7) . . .
136(6) . . .
123(6) . . .
158(6) . . .
144(6) . . .
148(7) . . .
141(7) . . .
131(6) . . .
135(6) . . .
149(7) . . .
150(7) . . .
149(7) . . .
160(7) . . .
137(6) . . .
122(6) . . .
137(6) . . .
140(6) . . .
134(6) . . .
150(6) . . .
148(6) . . .
130(6) . . .
149(7) . . .
153(7) . . .
141(6) . . .
163(7) . . .
149(7) . . .
128(6) . . .
139(6) . . .
133(6) . . .
129(6) . . .
154(7) . . .
153(7) . . .
138(6) . . .
162(7) . . .
140(6) . . .
135(6) . . .
138(6) . . .
129(6) . . .
137(6) . . .
154(7) . . .
143(7) . . .
124(6) . . .
116(6) . . .
125(6) . . .
141(6) . . .
138(6) . . .
148(7) . . .
150(6) . . .
129(6) . . .
154(7) . . .
144(6) . . .
133(6) . . .
137(6) . . .
154(7) . . .
137(6) . . .
132(6) . . .
133(6) . . .
132(6) . . .
126(6) . . .
140(7) . . .
148(7) . . .
119(6) . . .
144(6) . . .
140(6) . . .
159(7) . . .
137(6) . . .
136(6) . . .
142(6) . . .
129(6) . . .
131(6) . . .
137(6) . . .
155(7) . . .
139(6) . . .
126(6) . . .
135(6) . . .
146(7) . . .
135(6) . . .
128(6) . . .
133(6) . . .
142(7) . . .
122(6) . . .
147(6) . . .
129(6) . . .
139(6) . . .
124(6) . . .
125(6) . . .
140(6) . . .
154(6) . . .
133(6) . . .
145(7) . . .
134(6) . . .
144(6) . . .
146(6) . . .
140(6) . . .
146(7) . . .
134(6) . . .
142(6) . . .
131(6) . . .
141(6) . . .
133(6) . . .
135(6) . . .
133(6) . . .
132(6) . . .
123(6) . . .
140(7) . . .
139(6) . . .
143(6) . . .
146(6) . . .
135(6) . . .
138(6) . . .
130(6) . . .
149(6) . . .
141(6) . . .
120(6) . . .
169(7) . . .
144(6) . . .
129(6) . . .
169(7) . . .
161(7) . . .
151(7) . . .
138(6) . . .
145(6) . . .
142(7) . . .
131(6) . . .
139(6) . . .
138(6) . . .
122(6) . . .
143(6) . . .
164(7) . . .
133(6) . . .
122(6) . . .
131(6) . . .
129(6) . . .
126(6) . . .
144(7) . . .
127(6) . . .
162(7) . . .
137(6) . . .
119(6) . . .
134(6) . . .
142(6) . . .
133(6) . . .
138(6) . . .
137(7) . . .
141(6) . . .
140(6) . . .
124(6) . . .
134(6) . . .
123(6) . . .
126(6) . . .
127(6) . . .
126(6) . . .
129(6) . . .
141(6) . . .
137(6) . . .
142(6) . . .
135(6) . . .
141(6) . . .
122(6) . . .
134(6) . . .
157(7) . . .
130(6) . . .
125(6) . . .
137(6) . . .
144(6) . . .
142(6) . . .
125(6) . . .
137(6) . . .
147(7) . . .
134(6) . . .
138(6) . . .
120(6) . . .
115(6) . . .
121(6) . . .
152(6) . . .
145(6) . . .
131(6) . . .
144(7) . . .
134(6) . . .
140(6) . . .
127(6) . . .
145(7) . . .
129(6) . . .
147(7) . . .
148(6) . . .
134(6) . . .
139(6) . . .
146(7) . . .
133(6) . . .
138(6) . . .
129(6) . . .
138(6) . . .
144(7) . . .
129(6) . . .
138(6) . . .
136(6) . . .
132(6) . . .
148(7) . . .
127(6) . . .
143(6) . . .
141(6) . . .
149(7) . . .
142(6) . . .
145(6) . . .
143(6) . . .
147(7) . . .
151(7) . . .
138(6) . . .
146(7) . . .
147(6) . . .
126(6) . . .
135(6) . . .
120(6) . . .
152(7) . . .
153(6) . . .
150(6) . . .
141(6) . . .
129(6) . . .
129(6) . . .
137(6) . . .
140(6) . . .
135(6) . . .
136(6) . . .
135(6) . . .
141(6) . . .
136(6) . . .
136(6) . . .
135(6) . . .
139(6) . . .
152(6) . . .
132(6) . . .
125(6) . . .
132(6) . . .
150(6) . . .
154(7) . . .
148(6) . . .
148(7) . . .
133(6) . . .
135(6) . . .
148(6) . . .
149(7) . . .
142(7) . . .
129(6) . . .
134(6) . . .
159(7) . . .
150(7) . . .
131(6) . . .
126(6) . . .
135(6) . . .
137(6) . . .
143(6) . . .
136(6) . . .
132(6) . . .
128(6) . . .
150(7) . . .
138(7) . . .
146(7) . . .
134(6) . . .
128(6) . . .
133(6) . . .
125(6) . . .
137(6) . . .
129(6) . . .
124(6) . . .
149(7) . . .
142(7) . . .
149(7) . . .
147(7) . . .
139(6) . . .
131(6) . . .
141(7) . . .
132(6) . . .
129(6) . . .
142(6) . . .
127(6) . . .
123(6) . . .
134(6) . . .
136(6) . . .
132(6) . . .
131(6) . . .
138(7) . . .
136(6) . . .
121(6) . . .
122(6) . . .
151(7) . . .
137(7) . . .
136(6) . . .
123(6) . . .
139(6) . . .
120(6) . . .
145(7) . . .
131(6) . . .
156(6) . . .
125(6) . . .
137(6) . . .
125(6) . . .
138(6) . . .
126(6) . . .
143(6) . . .
135(6) . . .
128(6) . . .
133(6) . . .
130(6) . . .
129(6) . . .
118(6) . . .
116(6) . . .
132(6) . . .
129(6) . . .
126(6) . . .
145(7) . . .
120(6) . . .
121(6) . . .
129(6) . . .
145(6) . . .
130(6) . . .
132(6) . . .
133(6) . . .
140(6) . . .
137(6) . . .
141(7) . . .
149(7) . . .
148(6) . . .
141(6) . . .
115(6) . . .
128(6) . . .
142(6) . . .
137(6) . . .
134(6) . . .
146(6) . . .
140(7) . . .
127(6) . . .
143(6) . . .
134(6) . . .
128(6) . . .
129(6) . . .
152(7) . . .
139(6) . . .
134(6) . . .
116(6) . . .
124(6) . . .
129(6) . . .
133(6) . . .
146(6) . . .
141(6) . . .
135(6) . . .
139(6) . . .
135(6) . . .
137(6) . . .
132(6) . . .
137(6) . . .
137(6) . . .
133(6) . . .
130(6) . . .
129(6) . . .
143(6) . . .
136(6) . . .
130(6) . . .
143(6) . . .
128(6) . . .
143(7) . . .
132(6) . . .
142(6) . . .
147(6) . . .
137(6) . . .
131(6) . . .
137(6) . . .
138(6) . . .
125(6) . . .
140(6) . . .
135(6) . . .
127(6) . . .
136(6) . . .
139(6) . . .
128(6) . . .
146(6) . . .
138(6) . . .
134(6) . . .
131(6) . . .
127(6) . . .
120(6) . . .
146(6) . . .
137(6) . . .
133(6) . . .
132(6) . . .
127(6) . . .
144(6) . . .
133(6) . . .
147(6) . . .
138(7) . . .
124(6) . . .
124(6) . . .
126(6) . . .
108(5) . . .
129(6) . . .
145(7) . . .
141(6) . . .
136(6) . . .
127(6) . . .
121(6) . . .
133(6) . . .
135(6) . . .
144(6) . . .
148(7) . . .
138(6) . . .
144(6) . . .
138(6) . . .
145(7) . . .
136(6) . . .
142(7) . . .
128(6) . . .
144(6) . . .
121(6) . . .
137(6) . . .
130(6) . . .
143(6) . . .
116(6) . . .
129(6) . . .
133(6) . . .
129(6) . . .
162(7) . . .
133(6) . . .
126(6) . . .
135(6) . . .
135(6) . . .
127(6) . . .
134(6) . . .
120(6) . . .
123(6) . . .
128(6) . . .
117(6) . . .
134(6) . . .
136(6) . . .
150(7) . . .
139(6) . . .
134(6) . . .
133(6) . . .
134(6) . . .
130(6) . . .
135(6) . . .
136(6) . . .
144(6) . . .
132(6) . . .
122(6) . . .
131(6) . . .
127(6) . . .
131(6) . . .
136(6) . . .
135(7) . . .
129(6) . . .
127(6) . . .
144(6) . . .
120(6) . . .
129(6) . . .
135(6) . . .
134(6) . . .
121(6) . . .
136(6) . . .
123(6) . . .
141(6) . . .
139(6) . . .
135(6) . . .
139(7) . . .
113(6) . . .
136(6) . . .
126(6) . . .
138(6) . . .
132(6) . . .
148(7) . . .
125(6) . . .
122(6) . . .
153(7) . . .
156(7) . . .
132(6) . . .
127(6) . . .
125(6) . . .
120(6) . . .
144(7) . . .
131(6) . . .
121(6) . . .
150(6) . . .
124(6) . . .
124(6) . . .
124(6) . . .
126(6) . . .
129(6) . . .
127(6) . . .
122(6) . . .
121(6) . . .
135(6) . . .
133(6) . . .
130(6) . . .
130(6) . . .
135(6) . . .
136(6) . . .
123(6) . . .
154(7) . . .
144(7) . . .
140(6) . . .
124(6) . . .
142(6) . . .
139(6) . . .
132(6) . . .
136(6) . . .
136(6) . . .
130(6) . . .
129(6) . . .
143(7) . . .
135(6) . . .
122(6) . . .
117(6) . . .
128(6) . . .
154(7) . . .
150(7) . . .
141(6) . . .
135(6) . . .
135(6) . . .
132(6) . . .
133(6) . . .
119(6) . . .
126(6) . . .
136(6) . . .
149(7) . . .
132(6) . . .
130(6) . . .
147(6) . . .
122(6) . . .
118(6) . . .
139(6) . . .
143(6) . . .
136(6) . . .
137(6) . . .
119(6) . . .
132(6) . . .
119(6) . . .
127(6) . . .
143(7) . . .
142(6) . . .
132(6) . . .
138(6) . . .
138(6) . . .
139(7) . . .
138(6) . . .
121(6) . . .
142(6) . . .
131(6) . . .
137(6) . . .
139(6) . . .
127(6) . . .
121(6) . . .
129(6) . . .
127(6) . . .
120(6) . . .
146(6) . . .
136(6) . . .
139(6) . . .
134(6) . . .
125(6) . . .
136(6) . . .
147(7) . . .
144(6) . . .
132(6) . . .
117(6) . . .
125(6) . . .
139(6) . . .
131(6) . . .
121(6) . . .
122(6) . . .
149(6) . . .
137(6) . . .
124(6) . . .
139(6) . . .
138(6) . . .
124(6) . . .
126(6) . . .
128(6) . . .
134(6) . . .
128(6) . . .
131(6) . . .
135(6) . . .
138(7) . . .
118(6) . . .
131(6) . . .
121(6) . . .
115(6) . . .
121(6) . . .
131(6) . . .
137(6) . . .
132(6) . . .
129(6) . . .
135(7) . . .
126(6) . . .
135(6) . . .
149(6) . . .
119(6) . . .
129(6) . . .
131(6) . . .
139(6) . . .
149(6) . . .
144(6) . . .
132(6) . . .
121(6) . . .
126(6) . . .
126(6) . . .
135(6) . . .
130(6) . . .
133(6) . . .
123(6) . . .
131(6) . . .
139(7) . . .
123(6) . . .
121(6) . . .
125(6) . . .
146(7) . . .
126(6) . . .
135(6) . . .
141(6) . . .
137(6) . . .
147(7) . . .
123(6) . . .
126(6) . . .
119(6) . . .
116(6) . . .
125(6) . . .
126(6) . . .
137(6) . . .
121(6) . . .
134(6) . . .
129(6) . . .
131(6) . . .
133(6) . . .
136(6) . . .
117(6) . . .
128(6) . . .
125(6) . . .
129(6) . . .
136(6) . . .
124(6) . . .
128(6) . . .
145(7) . . .
155(7) . . .
151(6) . . .
136(6) . . .
134(6) . . .
129(6) . . .
131(6) . . .
111(5) . . .
145(6) . . .
136(6) . . .
143(7) . . .
124(6) . . .
131(6) . . .
135(6) . . .
127(6) . . .
128(6) . . .
135(6) . . .
129(6) . . .
120(6) . . .
123(6) . . .
131(6) . . .
133(6) . . .
139(6) . . .
137(6) . . .
140(7) . . .
136(6) . . .
132(6) . . .
129(6) . . .
130(6) . . .
129(6) . . .
135(6) . . .
120(6) . . .
131(6) . . .
134(6) . . .
118(6) . . .
131(6) . . .
131(6) . . .
130(6) . . .
130(6) . . .
141(7) . . .
132(6) . . .
134(6) . . .
121(6) . . .
115(6) . . .
144(7) . . .
134(6) . . .
131(6) . . .
126(6) . . .
136(6) . . .
126(6) . . .
126(6) . . .
123(6) . . .
132(6) . . .
137(7) . . .
118(6) . . .
144(7) . . .
128(6) . . .
117(6) . . .
146(7) . . .
130(6) . . .
139(6) . . .
132(6) . . .
132(6) . . .
123(6) . . .
135(7) . . .
127(6) . . .
145(6) . . .
131(6) . . .
136(6) . . .
136(6) . . .
132(6) . . .
135(6) . . .
130(6) . . .
132(6) . . .
116(6) . . .
135(6) . . .
139(6) . . .
132(6) . . .
124(6) . . .
139(6) . . .
128(6) . . .
124(6) . . .
127(6) . . .
131(6) . . .
139(6) . . .
141(6) . . .
112(5) . . .
114(6) . . .
130(6) . . .
107(5) . . .
118(6) . . .
131(6) . . .
132(6) . . .
124(6) . . .
128(6) . . .
134(6) . . .
134(6) . . .
130(6) . . .
132(7) . . .
128(6) . . .
141(6) . . .
122(6) . . .
119(6) . . .
125(6) . . .
112(6) . . .
118(6) . . .
128(6) . . .
149(6) . . .
134(6) . . .
129(6) . . .
125(6) . . .
130(6) . . .
137(6) . . .
123(6) . . .
129(6) . . .
127(6) . . .
133(6) . . .
150(7) . . .
125(6) . . .
131(6) . . .
142(6) . . .
129(6) . . .
122(6) . . .
137(7) . . .
126(6) . . .
141(6) . . .
129(6) . . .
127(6) . . .
123(6) . . .
123(6) . . .
139(6) . . .
132(6) . . .
132(7) . . .
126(6) . . .
137(6) . . .
136(6) . . .
116(6) . . .
143(7) . . .
123(6) . . .
115(6) . . .
133(6) . . .
147(6) . . .
137(6) . . .
141(6) . . .
129(6) . . .
120(6) . . .
142(6) . . .
119(6) . . .
129(6) . . .
130(6) . . .
127(6) . . .
134(6) . . .
134(7) . . .
128(6) . . .
132(6) . . .
126(6) . . .
134(6) . . .
131(6) . . .
147(7) . . .
137(6) . . .
145(6) . . .
138(6) . . .
122(6) . . .
117(6) . . .
114(6) . . .
136(6) . . .
127(6) . . .
120(6) . . .
125(6) . . .
128(6) . . .
121(6) . . .
139(6) . . .
118(6) . . .
127(6) . . .
133(6) . . .
134(6) . . .
135(6) . . .
142(6) . . .
145(6) . . .
139(6) . . .
134(6) . . .
136(6) . . .
134(6) . . .
126(6) . . .
128(6) . . .
118(6) . . .
133(6) . . .
133(6) . . .
128(6) . . .
120(6) . . .
126(6) . . .
126(6) . . .
136(6) . . .
140(6) . . .
149(6) . . .
146(7) . . .
116(6) . . .
124(6) . . .
128(6) . . .
128(6) . . .
148(7) . . .
116(6) . . .
131(6) . . .
131(6) . . .
137(6) . . .
130(6) . . .
131(6) . . .
119(6) . . .
123(6) . . .
129(6) . . .
134(6) . . .
140(7) . . .
103(5) . . .
131(6) . . .
132(6) . . .
133(6) . . .
121(6) . . .
137(6) . . .
131(6) . . .
140(6) . . .
129(6) . . .
121(6) . . .
124(6) . . .
119(6) . . .
139(6) . . .
125(6) . . .
142(7) . . .
111(6) . . .
125(6) . . .
131(6) . . .
127(6) . . .
138(6) . . .
121(6) . . .
130(6) . . .
127(6) . . .
123(6) . . .
133(6) . . .
130(6) . . .
127(6) . . .
133(6) . . .
145(7) . . .
141(6) . . .
121(6) . . .
121(6) . . .
124(6) . . .
125(6) . . .
123(6) . . .
124(6) . . .
118(6) . . .
128(6) . . .
123(6) . . .
127(6) . . .
127(6) . . .
136(6) . . .
127(6) . . .
136(7) . . .
130(6) . . .
124(6) . . .
147(6) . . .
142(6) . . .
124(6) . . .
132(6) . . .
126(6) . . .
129(6) . . .
145(7) . . .
110(6) . . .
128(6) . . .
112(5) . . .
128(6) . . .
125(6) . . .
138(6) . . .
130(6) . . .
120(6) . . .
133(6) . . .
127(6) . . .
107(6) . . .
132(6) . . .
129(6) . . .
132(6) . . .
139(6) . . .
108(5) . . .
134(6) . . .
119(6) . . .
135(6) . . .
125(6) . . .
142(6) . . .
145(7) . . .
114(6) . . .
134(6) . . .
112(6) . . .
128(6) . . .
131(6) . . .
138(6) . . .
135(6) . . .
120(6) . . .
142(6) . . .
122(6) . . .
143(6) . . .
140(7) . . .
123(6) . . .
137(7) . . .
126(6) . . .
120(6) . . .
112(6) . . .
133(7) . . .
120(6) . . .
106(5) . . .
130(6) . . .
126(6) . . .
137(7) . . .
127(6) . . .
148(6) . . .
134(6) . . .
113(6) . . .
114(6) . . .
124(6) . . .
124(6) . . .
146(6) . . .
126(6) . . .
118(6) . . .
143(6) . . .
110(6) . . .
124(6) . . .
139(6) . . .
135(6) . . .
138(6) . . .
127(6) . . .
129(6) . . .
127(6) . . .
144(7) . . .
133(6) . . .
124(6) . . .
135(6) . . .
117(6) . . .
119(6) . . .
116(6) . . .
131(6) . . .
123(6) . . .
153(7) . . .
133(6) . . .
126(6) . . .
133(6) . . .
129(6) . . .
124(6) . . .
138(6) . . .
131(6) . . .
124(6) . . .
147(7) . . .
131(6) . . .
139(6) . . .
130(6) . . .
139(6) . . .
128(6) . . .
130(6) . . .
129(6) . . .
134(6) . . .
119(6) . . .
119(6) . . .
126(6) . . .
133(6) . . .
124(6) . . .
153(6) . . .
136(6) . . .
127(6) . . .
125(6) . . .
133(6) . . .
125(6) . . .
130(6) . . .
131(6) . . .
140(6) . . .
126(6) . . .
130(6) . . .
120(6) . . .
130(6) . . .
122(6) . . .
143(6) . . .
137(6) . . .
130(6) . . .
127(6) . . .
123(6) . . .
112(5) . . .
120(6) . . .
131(6) . . .
141(6) . . .
121(6) . . .
122(6) . . .
125(6) . . .
130(7) . . .
129(6) . . .
130(6) . . .
136(6) . . .
137(6) . . .
115(6) . . .
124(6) . . .
127(6) . . .
124(6) . . .
118(6) . . .
140(7) . . .
131(6) . . .
127(6) . . .
115(6) . . .
130(6) . . .
126(6) . . .
142(7) . . .
114(6) . . .
125(6) . . .
128(6) . . .
125(6) . . .
113(6) . . .
129(6) . . .
119(6) . . .
128(6) . . .
139(7) . . .
135(6) . . .
127(6) . . .
126(6) . . .
123(6) . . .
123(6) . . .
117(6) . . .
124(6) . . .
148(6) . . .
124(6) . . .
126(6) . . .
130(6) . . .
131(6) . . .
124(6) . . .
141(7) . . .
122(6) . . .
122(6) . . .
112(6) . . .
134(6) . . .
126(6) . . .
123(6) . . .
131(6) . . .
142(6) . . .
125(6) . . .
129(6) . . .
120(6) . . .
127(6) . . .
138(6) . . .
148(7) . . .
126(6) . . .
118(6) . . .
122(6) . . .
128(6) . . .
134(6) . . .
144(7) . . .
139(6) . . .
148(6) . . .
142(6) . . .
121(6) . . .
131(6) . . .
123(6) . . .
139(6) . . .
138(6) . . .
132(6) . . .
137(7) . . .
121(6) . . .
116(6) . . .
115(6) . . .
117(6) . . .
125(6) . . .
128(6) . . .
124(6) . . .
141(6) . . .
126(6) . . .
122(6) . . .
122(6) . . .
134(6) . . .
133(6) . . .
140(6) . . .
126(6) . . .
128(6) . . .
120(6) . . .
136(6) . . .
136(6) . . .
124(6) . . .
125(6) . . .
133(6) . . .
124(6) . . .
132(6) . . .
131(6) . . .
146(6) . . .
144(6) . . .
131(6) . . .
154(7) . . .
124(6) . . .
122(6) . . .
126(6) . . .
128(6) . . .
155(7) . . .
133(6) . . .
142(6) . . .
136(6) . . .
132(6) . . .
154(7) . . .
140(6) . . .
138(6) . . .
146(6) . . .
146(6) . . .
135(7) . . .
129(6) . . .
128(6) . . .
139(6) . . .
136(6) . . .
147(7) . . .
147(6) . . .
138(6) . . .
122(6) . . .
134(6) . . .
130(6) . . .
112(6) . . .
142(6) . . .
132(6) . . .
141(6) . . .
132(6) . . .
138(6) . . .
136(6) . . .
136(6) . . .
127(6) . . .
113(6) . . .
130(6) . . .
128(6) . . .
135(6) . . .
128(6) . . .
138(6) . . .
128(6) . . .
128(6) . . .
117(6) . . .
129(6) . . .
135(6) . . .
134(6) . . .
137(6) . . .
136(7) . . .
126(6) . . .
129(6) . . .
128(6) . . .
128(6) . . .
125(6) . . .
135(7) . . .
125(6) . . .
133(6) . . .
131(6) . . .
134(6) . . .
116(6) . . .
130(6) . . .
134(6) . . .
142(6) . . .
135(6) . . .
128(6) . . .
126(6) . . .
109(5) . . .
127(6) . . .
145(7) . . .
132(7) . . .
108(6) . . .
131(6) . . .
119(6) . . .
137(6) . . .
140(7) . . .
125(6) . . .
134(6) . . .
137(6) . . .
118(6) . . .
129(6) . . .
129(6) . . .
125(6) . . .
132(6) . . .
115(6) . . .
135(6) . . .
131(6) . . .
128(6) . . .
126(6) . . .
147(7) . . .
136(6) . . .
125(6) . . .
129(6) . . .
129(6) . . .
120(6) . . .
120(6) . . .
116(6) . . .
127(6) . . .
136(6) . . .
128(6) . . .
123(6) . . .
132(6) . . .
125(6) . . .
134(6) . . .
125(6) . . .
123(6) . . .
145(6) . . .
133(6) . . .
134(6) . . .
141(6) . . .
142(6) . . .
123(6) . . .
131(6) . . .
127(6) . . .
143(7) . . .
140(6) . . .
133(6) . . .
118(6) . . .
134(6) . . .
141(6) . . .
144(6) . . .
132(6) . . .
133(6) . . .
133(6) . . .
133(6) . . .
128(6) . . .
139(6) . . .
142(6) . . .
140(6) . . .
140(7) . . .
142(6) . . .
125(6) . . .
134(6) . . .
132(6) . . .
135(6) . . .
137(6) . . .
131(6) . . .
142(6) . . .
141(7) . . .
109(6) . . .
114(6) . . .
136(6) . . .
133(6) . . .
139(6) . . .
145(6) . . .
145(7) . . .
135(6) . . .
117(6) . . .
112(6) . . .
129(6) . . .
133(6) . . .
144(6) . . .
144(6) . . .
125(6) . . .
125(6) . . .
135(6) . . .
136(6) . . .
129(6) . . .
126(6) . . .
134(6) . . .
120(6) . . .
126(6) . . .
146(7) . . .
137(6) . . .
139(7) . . .
126(6) . . .
124(6) . . .
125(6) . . .
138(7) . . .
147(6) . . .
144(6) . . .
144(6) . . .
117(6) . . .
133(6) . . .
147(7) . . .
134(6) . . .
133(6) . . .
137(6) . . .
126(6) . . .
124(6) . . .
129(6) . . .
129(6) . . .
133(6) . . .
136(6) . . .
125(6) . . .
120(6) . . .
135(6) . . .
119(6) . . .
136(7) . . .
121(6) . . .
125(6) . . .
134(6) . . .
124(6) . . .
132(6) . . .
136(6) . . .
130(6) . . .
148(7) . . .
138(6) . . .
133(6) . . .
151(7) . . .
142(6) . . .
136(6) . . .
131(6) . . .
132(6) . . .
139(6) . . .
139(6) . . .
140(6) . . .
133(6) . . .
155(7) . . .
127(6) . . .
134(6) . . .
124(6) . . .
143(7) . . .
129(6) . . .
108(5) . . .
124(6) . . .
125(6) . . .
118(6) . . .
141(6) . . .
126(6) . . .
131(6) . . .
136(6) . . .
125(6) . . .
123(6) . . .
147(6) . . .
145(6) . . .
123(6) . . .
131(6) . . .
134(6) . . .
123(6) . . .
111(6) . . .
136(6) . . .
127(6) . . .
141(7) . . .
129(6) . . .
134(6) . . .
143(6) . . .
135(6) . . .
128(6) . . .
134(6) . . .
141(6) . . .
116(6) . . .
133(6) . . .
134(6) . . .
125(6) . . .
132(6) . . .
127(6) . . .
132(6) . . .
135(6) . . .
129(6) . . .
128(6) . . .
142(7) . . .
125(6) . . .
134(6) . . .
144(6) . . .
135(6) . . .
143(7) . . .
140(6) . . .
142(6) . . .
129(6) . . .
149(7) . . .
144(7) . . .
132(6) . . .
133(6) . . .
128(6) . . .
141(6) . . .
118(6) . . .
128(6) . . .
143(6) . . .
132(6) . . .
125(6) . . .
134(7) . . .
115(6) . . .
128(6) . . .
123(6) . . .
127(6) . . .
139(7) . . .
134(6) . . .
131(6) . . .
135(6) . . .
126(6) . . .
133(6) . . .
138(6) . . .
117(6) . . .
119(6) . . .
131(6) . . .
127(6) . . .
128(6) . . .
125(6) . . .
119(6) . . .
120(6) . . .
139(6) . . .
145(6) . . .
126(6) . . .
107(5) . . .
108(6) . . .
122(6) . . .
140(7) . . .
140(6) . . .
133(6) . . .
134(6) . . .
137(6) . . .
128(6) . . .
141(6) . . .
136(6) . . .
138(7) . . .
125(6) . . .
117(6) . . .
122(6) . . .
137(6) . . .
126(6) . . .
128(6) . . .
138(6) . . .
131(6) . . .
108(5) . . .
128(6) . . .
120(6) . . .
132(6) . . .
127(6) . . .
128(6) . . .
127(6) . . .
116(6) . . .
142(6) . . .
114(6) . . .
137(6) . . .
130(6) . . .
134(6) . . .
128(6) . . .
131(6) . . .
121(6) . . .
114(6) . . .
133(6) . . .
130(6) . . .
117(6) . . .
127(6) . . .
130(6) . . .
133(6) . . .
123(6) . . .
109(5) . . .
117(6) . . .
139(6) . . .
134(6) . . .
124(6) . . .
124(6) . . .
116(6) . . .
119(6) . . .
121(6) . . .
125(6) . . .
126(6) . . .
133(6) . . .
142(7) . . .
130(6) . . .
121(6) . . .
120(6) . . .
122(6) . . .
118(6) . . .
117(6) . . .
117(6) . . .
149(7) . . .
141(6) . . .
141(6) . . .
128(6) . . .
117(6) . . .
114(6) . . .
130(6) . . .
143(6) . . .
132(6) . . .
116(6) . . .
129(6) . . .
139(7) . . .
129(6) . . .
136(6) . . .
119(6) . . .
116(6) . . .
128(6) . . .
134(6) . . .
126(6) . . .
124(6) . . .
120(6) . . .
126(6) . . .
110(6) . . .
135(6) . . .
125(6) . . .
125(6) . . .
111(6) . . .
133(6) . . .
130(6) . . .
135(6) . . .
120(6) . . .
125(6) . . .
126(6) . . .
118(6) . . .
134(6) . . .
132(6) . . .
123(6) . . .
128(6) . . .
130(6) . . .
118(6) . . .
131(6) . . .
119(6) . . .
124(6) . . .
125(6) . . .
134(6) . . .
138(6) . . .
137(6) . . .
139(6) . . .
137(6) . . .
127(6) . . .
133(6) . . .
123(6) . . .
124(6) . . .
135(6) . . .
138(6) . . .
133(6) . . .
147(6) . . .
141(6) . . .
133(6) . . .
133(6) . . .
127(6) . . .
134(6) . . .
130(6) . . .
133(6) . . .
129(6) . . .
131(6) . . .
137(6) . . .
117(6) . . .
129(6) . . .
128(6) . . .
128(6) . . .
137(6) . . .
132(6) . . .
130(6) . . .
134(6) . . .
123(6) . . .
135(6) . . .
128(6) . . .
121(6) . . .
131(6) . . .
132(6) . . .
124(6) . . .
144(6) . . .
132(6) . . .
124(6) . . .
138(6) . . .
115(6) . . .
126(6) . . .
144(6) . . .
117(6) . . .
134(6) . . .
129(6) . . .
134(6) . . .
140(6) . . .
119(6) . . .
141(7) . . .
128(6) . . .
132(6) . . .
123(6) . . .
133(6) . . .
130(6) . . .
139(6) . . .
130(6) . . .
121(6) . . .
127(6) . . .
122(6) . . .
124(6) . . .
138(6) . . .
135(6) . . .
129(6) . . .
142(6) . . .
120(6) . . .
135(6) . . .
141(6) . . .
130(6) . . .
135(6) . . .
130(6) . . .
127(6) . . .
141(6) . . .
130(6) . . .
132(6) . . .
119(6) . . .
128(6) . . .
120(6) . . .
128(6) . . .
128(6) . . .
124(6) . . .
118(6) . . .
130(6) . . .
120(6) . . .
140(6) . . .
129(6) . . .
125(6) . . .
116(6) . . .
126(6) . . .
121(6) . . .
146(6) . . .
129(6) . . .
130(6) . . .
126(6) . . .
129(6) . . .
125(6) . . .
144(7) . . .
126(6) . . .
120(6) . . .
122(6) . . .
126(6) . . .
130(6) . . .
139(7) . . .
134(6) . . .
145(7) . . .
130(6) . . .
136(6) . . .
139(6) . . .
159(7) . . .
129(6) . . .
134(6) . . .
125(6) . . .
116(6) . . .
122(6) . . .
124(6) . . .
119(6) . . .
123(6) . . .
124(6) . . .
125(6) . . .
120(6) . . .
117(6) . . .
126(6) . . .
121(6) . . .
130(6) . . .
144(6) . . .
116(6) . . .
115(6) . . .
134(6) . . .
125(6) . . .
122(6) . . .
128(6) . . .
107(6) . . .
126(6) . . .
118(6) . . .
115(6) . . .
106(6) . . .
105(5) . . .
111(6) . . .
111(6) . . .
126(6) . . .
117(6) . . .
128(6) . . .
113(6) . . .
115(6) . . .
121(6) . . .
121(6) . . .
131(6) . . .
117(6) . . .
138(6) . . .
117(6) . . .
107(5) . . .
124(6) . . .
126(6) . . .
118(6) . . .
123(6) . . .
125(6) . . .
132(6) . . .
115(6) . . .
123(6) . . .
120(6) . . .
115(6) . . .
110(5) . . .
126(6) . . .
126(6) . . .
119(6) . . .
123(6) . . .
128(6) . . .
113(6) . . .
114(6) . . .
124(6) . . .
121(6) . . .
112(6) . . .
135(6) . . .
139(7) . . .
121(6) . . .
126(6) . . .
120(6) . . .
115(6) . . .
124(6) . . .
127(6) . . .
127(6) . . .
124(6) . . .
123(6) . . .
112(6) . . .
117(6) . . .
121(6) . . .
127(6) . . .
119(6) . . .
130(7) . . .
134(6) . . .
118(6) . . .
130(6) . . .
103(5) . . .
114(6) . . .
133(6) . . .
120(6) . . .
127(6) . . .
117(6) . . .
122(6) . . .
120(6) . . .
114(6) . . .
131(6) . . .
114(6) . . .
113(6) . . .
115(6) . . .
126(6) . . .
116(6) . . .
104(6) . . .
114(6) . . .
121(6) . . .
115(6) . . .
142(6) . . .
111(6) . . .
116(6) . . .
110(5) . . .
114(6) . . .
114(6) . . .
123(6) . . .
110(6) . . .
116(6) . . .
123(6) . . .
128(6) . . .
121(6) . . .
122(6) . . .
111(5) . . .
135(6) . . .
122(6) . . .
115(6) . . .
127(6) . . .
133(6) . . .
121(6) . . .
117(6) . . .
123(6) . . .
130(6) . . .
131(6) . . .
130(6) . . .
139(6) . . .
142(7) . . .
112(6) . . .
124(6) . . .
114(6) . . .
123(6) . . .
127(6) . . .
125(6) . . .
139(6) . . .
109(6) . . .
111(6) . . .
118(6) . . .
140(6) . . .
135(6) . . .
112(6) . . .
115(6) . . .
128(6) . . .
127(6) . . .
109(5) . . .
127(6) . . .
109(6) . . .
107(6) . . .
116(6) . . .
108(5) . . .
111(5) . . .
127(6) . . .
128(6) . . .
130(6) . . .
124(6) . . .
99(5) . . .
119(6) . . .
118(6) . . .
123(6) . . .
133(6) . . .
116(6) . . .
123(6) . . .
136(6) . . .
123(6) . . .
118(6) . . .
131(6) . . .
129(6) . . .
128(6) . . .
127(6) . . .
118(6) . . .
119(6) . . .
96(5) . . .
125(6) . . .
126(6) . . .
115(6) . . .
122(6) . . .
130(6) . . .
134(6) . . .
139(6) . . .
134(6) . . .
113(6) . . .
115(6) . . .
110(5) . . .
137(6) . . .
118(6) . . .
127(6) . . .
115(6) . . .
114(6) . . .
122(6) . . .
120(6) . . .
109(6) . . .
111(6) . . .
117(6) . . .
116(6) . . .
115(6) . . .
102(6) . . .
114(6) . . .
126(6) . . .
120(6) . . .
120(6) . . .
125(6) . . .
127(6) . . .
129(6) . . .
118(6) . . .
128(6) . . .
127(6) . . .
137(6) . . .
119(6) . . .
134(6) . . .
123(6) . . .
116(6) . . .
136(6) . . .
134(6) . . .
126(6) . . .
121(6) . . .
111(6) . . .
115(6) . . .
113(6) . . .
108(5) . . .
127(6) . . .
108(6) . . .
132(6) . . .
106(5) . . .
131(6) . . .
116(6) . . .
121(6) . . .
123(6) . . .
134(6) . . .
107(5) . . .
114(6) . . .
123(6) . . .
118(6) . . .
122(6) . . .
120(6) . . .
135(6) . . .
126(6) . . .
113(6) . . .
109(5) . . .
129(6) . . .
125(6) . . .
113(6) . . .
119(6) . . .
107(5) . . .
112(6) . . .
114(6) . . .
111(6) . . .
123(6) . . .
118(6) . . .
126(6) . . .
111(6) . . .
124(6) . . .
120(6) . . .
111(5) . . .
110(6) . . .
117(6) . . .
138(6) . . .
131(6) . . .
116(6) . . .
115(6) . . .
103(6) . . .
125(6) . . .
116(6) . . .
130(6) . . .
129(6) . . .
117(6) . . .
118(6) . . .
122(6) . . .
128(6) . . .
124(6) . . .
117(6) . . .
117(6) . . .
119(6) . . .
129(6) . . .
127(6) . . .
130(6) . . .
141(6) . . .
110(5) . . .
113(6) . . .
136(6) . . .
118(6) . . .
121(6) . . .
117(6) . . .
124(6) . . .
115(6) . . .
108(6) . . .
117(6) . . .
119(6) . . .
113(6) . . .
115(6) . . .
127(6) . . .
128(6) . . .
121(6) . . .
113(6) . . .
121(6) . . .
128(6) . . .
122(6) . . .
111(5) . . .
106(5) . . .
122(6) . . .
123(6) . . .
126(6) . . .
118(6) . . .
117(6) . . .
138(7) . . .
128(6) . . .
107(5) . . .
118(6) . . .
119(6) . . .
128(6) . . .
132(6) . . .
117(6) . . .
134(6) . . .
119(6) . . .
116(6) . . .
125(6) . . .
106(5) . . .
121(6) . . .
128(6) . . .
130(6) . . .
107(6) . . .
111(5) . . .
113(6) . . .
124(6) . . .
126(6) . . .
125(6) . . .
125(6) . . .
125(6) . . .
119(6) . . .
123(6) . . .
103(5) . . .
115(6) . . .
116(6) . . .
122(6) . . .
118(6) . . .
120(6) . . .
116(6) . . .
132(6) . . .
126(6) . . .
114(6) . . .
109(6) . . .
130(6) . . .
130(6) . . .
133(6) . . .
118(6) . . .
128(6) . . .
132(6) . . .
126(6) . . .
111(6) . . .
117(6) . . .
118(6) . . .
112(5) . . .
123(6) . . .
124(6) . . .
130(6) . . .
128(6) . . .
104(5) . . .
117(6) . . .
118(6) . . .
121(6) . . .
114(6) . . .
116(6) . . .
128(6) . . .
123(6) . . .
117(6) . . .
113(5) . . .
125(6) . . .
129(6) . . .
119(6) . . .
121(6) . . .
104(5) . . .
133(6) . . .
133(6) . . .
128(6) . . .
122(6) . . .
115(6) . . .
110(5) . . .
121(6) . . .
129(6) . . .
114(6) . . .
109(5) . . .
124(6) . . .
118(6) . . .
135(6) . . .
124(6) . . .
117(6) . . .
117(6) . . .
118(6) . . .
121(6) . . .
122(6) . . .
112(6) . . .
129(6) . . .
133(6) . . .
131(6) . . .
125(6) . . .
118(6) . . .
126(6) . . .
130(6) . . .
116(6) . . .
126(6) . . .
125(6) . . .
113(6) . . .
116(6) . . .
118(6) . . .
118(6) . . .
114(5) . . .
114(6) . . .
113(6) . . .
114(6) . . .
118(6) . . .
112(6) . . .
111(6) . . .
115(6) . . .
132(6) . . .
116(6) . . .
122(6) . . .
110(6) . . .
120(6) . . .
109(6) . . .
121(6) . . .
133(6) . . .
117(6) . . .
108(6) . . .
128(6) . . .
139(6) . . .
128(6) . . .
127(6) . . .
127(6) . . .
129(6) . . .
109(6) . . .
117(6) . . .
121(6) . . .
121(6) . . .
130(6) . . .
118(6) . . .
119(6) . . .
112(6) . . .
121(6) . . .
118(6) . . .
137(6) . . .
122(6) . . .
125(6) . . .
122(6) . . .
133(6) . . .
119(6) . . .
125(6) . . .
120(6) . . .
132(6) . . .
114(6) . . .
132(6) . . .
130(6) . . .
119(6) . . .
129(6) . . .
110(5) . . .
128(6) . . .
119(6) . . .
119(6) . . .
123(6) . . .
121(6) . . .
123(6) . . .
103(5) . . .
108(6) . . .
127(6) . . .
128(6) . . .
119(6) . . .
138(6) . . .
121(6) . . .
116(6) . . .
119(6) . . .
129(6) . . .
118(6) . . .
121(6) . . .
123(6) . . .
116(6) . . .
127(6) . . .
106(6) . . .
118(6) . . .
132(6) . . .
128(6) . . .
113(6) . . .
122(6) . . .
110(6) . . .
113(6) . . .
124(6) . . .
131(6) . . .
117(6) . . .
119(6) . . .
125(6) . . .
115(6) . . .
115(6) . . .
112(6) . . .
135(6) . . .
126(6) . . .
115(6) . . .
118(6) . . .
115(6) . . .
108(6) . . .
109(5) . . .
125(6) . . .
122(6) . . .
126(6) . . .
104(5) . . .
104(5) . . .
113(6) . . .
117(6) . . .
122(6) . . .
115(6) . . .
135(6) . . .
117(6) . . .
117(6) . . .
121(6) . . .
128(6) . . .
112(5) . . .
123(6) . . .
121(6) . . .
121(6) . . .
119(6) . . .
118(6) . . .
116(6) . . .
121(6) . . .
115(6) . . .
109(6) . . .
130(6) . . .
117(6) . . .
115(6) . . .
122(6) . . .
125(6) . . .
131(6) . . .
124(6) . . .
128(6) . . .
114(6) . . .
134(6) . . .
123(6) . . .
123(6) . . .
120(6) . . .
115(6) . . .
122(6) . . .
131(6) . . .
126(6) . . .
115(6) . . .
128(6) . . .
123(6) . . .
112(6) . . .
115(6) . . .
137(7) . . .
133(6) . . .
129(6) . . .
120(6) . . .
111(6) . . .
129(6) . . .
112(6) . . .
123(6) . . .
126(6) . . .
119(6) . . .
125(6) . . .
123(6) . . .
124(6) . . .
117(6) . . .
115(6) . . .
129(6) . . .
129(6) . . .
127(6) . . .
127(6) . . .
138(6) . . .
131(6) . . .
115(6) . . .
114(6) . . .
125(6) . . .
111(6) . . .
110(6) . . .
113(6) . . .
108(5) . . .
115(6) . . .
139(6) . . .
120(6) . . .
135(6) . . .
132(6) . . .
133(6) . . .
134(6) . . .
117(6) . . .
111(6) . . .
127(6) . . .
130(6) . . .
135(6) . . .
126(6) . . .
116(6) . . .
124(6) . . .
140(6) . . .
114(6) . . .
106(5) . . .
122(6) . . .
119(6) . . .
129(6) . . .
128(6) . . .
123(6) . . .
131(6) . . .
133(6) . . .
120(6) . . .
113(6) . . .
119(6) . . .
115(6) . . .
106(5) . . .
135(6) . . .
128(6) . . .
114(6) . . .
129(6) . . .
133(6) . . .
122(6) . . .
116(6) . . .
137(6) . . .
120(6) . . .
128(6) . . .
126(6) . . .
123(6) . . .
121(6) . . .
123(6) . . .
130(6) . . .
123(6) . . .
128(6) . . .
143(6) . . .
134(6) . . .
121(6) . . .
111(6) . . .
124(6) . . .
120(6) . . .
123(6) . . .
126(6) . . .
115(6) . . .
136(6) . . .
119(6) . . .
117(6) . . .
108(6) . . .
114(6) . . .
132(7) . . .
118(6) . . .
122(6) . . .
121(6) . . .
122(6) . . .
122(6) . . .
112(5) . . .
129(6) . . .
134(6) . . .
118(6) . . .
126(6) . . .
126(6) . . .
143(6) . . .
117(6) . . .
130(6) . . .
121(6) . . .
125(6) . . .
111(6) . . .
128(6) . . .
120(6) . . .
130(6) . . .
137(6) . . .
137(6) . . .
131(6) . . .
126(6) . . .
137(6) . . .
125(6) . . .
119(6) . . .
121(6) . . .
133(6) . . .
117(6) . . .
141(6) . . .
115(6) . . .
116(6) . . .
109(6) . . .
136(6) . . .
133(6) . . .
134(6) . . .
127(6) . . .
128(6) . . .
127(6) . . .
133(6) . . .
121(6) . . .
120(6) . . .
120(6) . . .
126(6) . . .
125(6) . . .
130(6) . . .
140(6) . . .
105(5) . . .
117(6) . . .
124(6) . . .
119(6) . . .
135(6) . . .
131(6) . . .
123(6) . . .
114(6) . . .
125(6) . . .
127(6) . . .
124(6) . . .
105(6) . . .
122(6) . . .
118(6) . . .
121(6) . . .
128(6) . . .
131(6) . . .
111(5) . . .
131(6) . . .
131(6) . . .
124(6) . . .
123(6) . . .
127(6) . . .
125(6) . . .
121(6) . . .
112(6) . . .
119(6) . . .
120(6) . . .
108(5) . . .
118(6) . . .
123(6) . . .
122(6) . . .
111(6) . . .
112(6) . . .
126(6) . . .
124(6) . . .
136(6) . . .
127(6) . . .
134(6) . . .
138(7) . . .
124(6) . . .
123(6) . . .
133(6) . . .
127(6) . . .
151(7) . . .
127(6) . . .
124(6) . . .
118(6) . . .
111(6) . . .
132(6) . . .
131(6) . . .
123(6) . . .
139(6) . . .
124(6) . . .
118(6) . . .
137(6) . . .
120(6) . . .
126(6) . . .
126(6) . . .
111(6) . . .
109(6) . . .
124(6) . . .
127(6) . . .
143(7) . . .
149(7) . . .
120(6) . . .
139(6) . . .
119(6) . . .
120(6) . . .
114(6) . . .
125(6) . . .
125(6) . . .
118(6) . . .
124(6) . . .
116(6) . . .
115(6) . . .
120(6) . . .
132(6) . . .
114(6) . . .
135(6) . . .
126(6) . . .
124(6) . . .
133(6) . . .
140(7) . . .
129(6) . . .
130(6) . . .
128(6) . . .
145(6) . . .
129(6) . . .
127(6) . . .
142(6) . . .
128(6) . . .
133(6) . . .
129(6) . . .
129(6) . . .
140(6) . . .
125(6) . . .
127(6) . . .
138(6) . . .
118(6) . . .
121(6) . . .
127(6) . . .
126(6) . . .
118(6) . . .
127(6) . . .
130(6) . . .
110(5) . . .
119(6) . . .
125(6) . . .
131(6) . . .
113(5) . . .
133(6) . . .
134(6) . . .
128(6) . . .
129(6) . . .
112(6) . . .
120(6) . . .
126(6) . . .
123(6) . . .
128(6) . . .
124(6) . . .
111(6) . . .
132(6) . . .
123(6) . . .
124(6) . . .
125(6) . . .
132(6) . . .
121(6) . . .
125(6) . . .
125(6) . . .
119(6) . . .
120(6) . . .
116(6) . . .
142(7) . . .
115(6) . . .
124(6) . . .
141(6) . . .
132(6) . . .
131(6) . . .
133(6) . . .
127(6) . . .
117(6) . . .
129(6) . . .
124(6) . . .
120(6) . . .
113(5) . . .
131(6) . . .
136(7) . . .
129(6) . . .
126(6) . . .
136(6) . . .
133(6) . . .
139(6) . . .
129(6) . . .
139(6) . . .
121(6) . . .
129(6) . . .
142(7) . . .
128(6) . . .
131(6) . . .
112(6) . . .
120(6) . . .
118(6) . . .
136(6) . . .
138(6) . . .
136(6) . . .
123(6) . . .
139(6) . . .
129(6) . . .
130(6) . . .
119(6) . . .
129(6) . . .
132(6) . . .
141(6) . . .
114(6) . . .
115(6) . . .
117(6) . . .
120(6) . . .
143(6) . . .
141(6) . . .
142(6) . . .
142(7) . . .
133(6) . . .
135(6) . . .
141(6) . . .
142(6) . . .
143(7) . . .
133(6) . . .
130(6) . . .
119(6) . . .
119(6) . . .
131(7) . . .
138(6) . . .
121(6) . . .
140(6) . . .
131(6) . . .
128(6) . . .
122(6) . . .
132(6) . . .
129(6) . . .
123(6) . . .
129(6) . . .
126(6) . . .
120(6) . . .
143(6) . . .
143(6) . . .
129(6) . . .
139(6) . . .
138(6) . . .
139(6) . . .
117(6) . . .
132(6) . . .
131(6) . . .
139(6) . . .
130(6) . . .
128(6) . . .
121(6) . . .
143(6) . . .
134(6) . . .
126(6) . . .
126(6) . . .
115(6) . . .
136(6) . . .
131(6) . . .
129(6) . . .
130(6) . . .
123(6) . . .
125(6) . . .
131(6) . . .
118(6) . . .
138(7) . . .
119(6) . . .
118(6) . . .
127(6) . . .
131(6) . . .
117(6) . . .
120(6) . . .
128(6) . . .
134(6) . . .
144(6) . . .
128(6) . . .
130(6) . . .
116(6) . . .
115(6) . . .
128(6) . . .
124(6) . . .
121(6) . . .
117(6) . . .
112(6) . . .
125(6) . . .
131(6) . . .
113(6) . . .
122(6) . . .
123(6) . . .
132(6) . . .
111(6) . . .
117(6) . . .
116(6) . . .
109(6) . . .
122(6) . . .
124(6) . . .
136(6) . . .
126(6) . . .
121(6) . . .
119(6) . . .
129(6) . . .
125(6) . . .
114(6) . . .
125(6) . . .
119(6) . . .
134(6) . . .
126(6) . . .
145(6) . . .
132(6) . . .
131(6) . . .
120(6) . . .
133(6) . . .
120(6) . . .
115(6) . . .
118(6) . . .
118(6) . . .
115(6) . . .
113(6) . . .
131(6) . . .
112(6) . . .
116(6) . . .
133(6) . . .
121(6) . . .
126(6) . . .
118(6) . . .
127(6) . . .
120(6) . . .
108(5) . . .
134(6) . . .
121(6) . . .
119(6) . . .
127(6) . . .
123(6) . . .
134(6) . . .
116(6) . . .
131(6) . . .
123(6) . . .
135(6) . . .
117(6) . . .
125(6) . . .
102(6) . . .
117(6) . . .
116(6) . . .
121(6) . . .
115(6) . . .
133(6) . . .
111(6) . . .
132(6) . . .
132(6) . . .
133(6) . . .
124(6) . . .
121(6) . . .
122(6) . . .
118(6) . . .
117(6) . . .
123(6) . . .
125(6) . . .
128(6) . . .
129(6) . . .
135(6) . . .
141(6) . . .
125(6) . . .
126(6) . . .
124(6) . . .
122(6) . . .
112(6) . . .
105(5) . . .
115(6) . . .
144(7) . . .
133(6) . . .
140(6) . . .
124(6) . . .
134(6) . . .
125(6) . . .
126(6) . . .
134(6) . . .
132(6) . . .
134(6) . . .
130(6) . . .
120(6) . . .
110(5) . . .
122(6) . . .
122(6) . . .
122(6) . . .
109(6) . . .
122(6) . . .
124(6) . . .
143(7) . . .
118(6) . . .
114(6) . . .
130(6) . . .
120(6) . . .
120(6) . . .
130(6) . . .
108(6) . . .
116(6) . . .
134(6) . . .
134(6) . . .
130(6) . . .
132(6) . . .
111(6) . . .
110(6) . . .
124(6) . . .
140(6) . . .
126(6) . . .
113(6) . . .
115(6) . . .
118(6) . . .
124(6) . . .
113(6) . . .
130(6) . . .
132(6) . . .
126(6) . . .
118(6) . . .
115(6) . . .
116(6) . . .
126(6) . . .
120(6) . . .
126(6) . . .
123(6) . . .
122(6) . . .
125(6) . . .
117(6) . . .
108(6) . . .
133(6) . . .
112(5) . . .
118(6) . . .
130(6) . . .
130(6) . . .
131(6) . . .
110(6) . . .
119(6) . . .
117(6) . . .
122(6) . . .
142(6) . . .
126(6) . . .
121(6) . . .
148(7) . . .
131(6) . . .
135(6) . . .
126(6) . . .
122(6) . . .
121(6) . . .
120(6) . . .
118(6) . . .
123(6) . . .
131(6) . . .
138(6) . . .
125(6) . . .
118(6) . . .
111(6) . . .
131(6) . . .
126(6) . . .
121(6) . . .
133(6) . . .
120(6) . . .
118(6) . . .
117(6) . . .
124(6) . . .
113(6) . . .
115(6) . . .
107(6) . . .
111(6) . . .
121(6) . . .
126(6) . . .
115(6) . . .
123(6) . . .
128(6) . . .
132(6) . . .
121(6) . . .
110(6) . . .
113(6) . . .
134(6) . . .
124(6) . . .
114(6) . . .
119(6) . . .
138(7) . . .
131(6) . . .
119(6) . . .
130(6) . . .
126(6) . . .
132(6) . . .
123(6) . . .
147(6) . . .
110(6) . . .
109(6) . . .
138(7) . . .
124(6) . . .
141(6) . . .
119(6) . . .
131(6) . . .
135(6) . . .
122(6) . . .
113(6) . . .
118(6) . . .
134(7) . . .
127(6) . . .
123(6) . . .
135(6) . . .
133(6) . . .
126(6) . . .
129(6) . . .
137(6) . . .
109(5) . . .
118(6) . . .
125(6) . . .
129(6) . . .
126(6) . . .
139(6) . . .
147(6) . . .
119(6) . . .
125(6) . . .
137(6) . . .
120(6) . . .
110(6) . . .
127(6) . . .
122(6) . . .
131(6) . . .
145(6) . . .
116(6) . . .
131(6) . . .
121(6) . . .
121(6) . . .
115(6) . . .
130(6) . . .
131(6) . . .
124(6) . . .
132(6) . . .
122(6) . . .
120(6) . . .
131(6) . . .
128(6) . . .
129(6) . . .
127(6) . . .
121(6) . . .
121(6) . . .
127(6) . . .
135(6) . . .
137(6) . . .
123(6) . . .
126(6) . . .
123(6) . . .
132(6) . . .
118(6) . . .
117(6) . . .
126(6) . . .
108(5) . . .
111(5) . . .
120(6) . . .
116(6) . . .
129(6) . . .
127(6) . . .
128(6) . . .
121(6) . . .
131(6) . . .
127(6) . . .
132(6) . . .
121(6) . . .
136(6) . . .
114(6) . . .
131(6) . . .
141(6) . . .
128(6) . . .
115(6) . . .
113(6) . . .
128(6) . . .
117(6) . . .
114(6) . . .
120(6) . . .
123(6) . . .
128(6) . . .
136(6) . . .
118(6) . . .
113(6) . . .
133(6) . . .
138(6) . . .
121(6) . . .
127(6) . . .
136(6) . . .
121(6) . . .
130(6) . . .
134(6) . . .
133(6) . . .
133(6) . . .
127(6) . . .
123(6) . . .
112(6) . . .
123(6) . . .
135(6) . . .
124(6) . . .
137(6) . . .
123(6) . . .
115(6) . . .
137(6) . . .
128(6) . . .
136(6) . . .
125(6) . . .
135(6) . . .
125(6) . . .
128(6) . . .
121(6) . . .
122(6) . . .
116(6) . . .
138(6) . . .
123(6) . . .
129(6) . . .
129(6) . . .
120(6) . . .
134(6) . . .
118(6) . . .
126(6) . . .
125(6) . . .
121(6) . . .
127(6) . . .
134(6) . . .
127(6) . . .
111(6) . . .
112(6) . . .
124(6) . . .
135(7) . . .
120(6) . . .
135(6) . . .
130(6) . . .
132(6) . . .
140(6) . . .
129(6) . . .
134(6) . . .
130(6) . . .
128(6) . . .
127(6) . . .
128(6) . . .
115(6) . . .
103(5) . . .
121(6) . . .
124(6) . . .
124(6) . . .
130(6) . . .
110(6) . . .
121(6) . . .
129(6) . . .
113(5) . . .
118(6) . . .
121(6) . . .
133(6) . . .
137(6) . . .
117(6) . . .
102(5) . . .
132(6) . . .
134(6) . . .
142(7) . . .
110(5) . . .
114(6) . . .
130(6) . . .
117(6) . . .
125(6) . . .
121(6) . . .
118(6) . . .
123(6) . . .
115(6) . . .
107(5) . . .
124(6) . . .
118(6) . . .
118(6) . . .
136(6) . . .
134(6) . . .
125(6) . . .
131(6) . . .
119(6) . . .
115(6) . . .
113(6) . . .
114(6) . . .
125(6) . . .
122(6) . . .
129(6) . . .
125(6) . . .
123(6) . . .
122(6) . . .
130(6) . . .
140(6) . . .
118(6) . . .
122(6) . . .
128(6) . . .
116(6) . . .
131(6) . . .
134(6) . . .
127(6) . . .
129(6) . . .
124(6) . . .
112(5) . . .
120(6) . . .
118(6) . . .
117(6) . . .
108(6) . . .
135(6) . . .
119(6) . . .
130(6) . . .
136(6) . . .
111(6) . . .
123(6) . . .
144(6) . . .
141(6) . . .
129(6) . . .
118(6) . . .
121(6) . . .
120(6) . . .
126(6) . . .
116(6) . . .
114(6) . . .
118(6) . . .
123(6) . . .
133(6) . . .
118(6) . . .
121(6) . . .
135(6) . . .
137(6) . . .
113(6) . . .
137(7) . . .
131(6) . . .
129(6) . . .
128(6) . . .
115(6) . . .
131(7) . . .
137(6) . . .
122(6) . . .
126(6) . . .
127(6) . . .
121(6) . . .
128(6) . . .
131(6) . . .
122(6) . . .
117(6) . . .
114(6) . . .
134(6) . . .
144(6) . . .
133(6) . . .
134(6) . . .
118(6) . . .
130(6) . . .
130(6) . . .
120(6) . . .
122(6) . . .
116(6) . . .
125(6) . . .
122(6) . . .
134(6) . . .
139(7) . . .
137(6) . . .
130(6) . . .
128(6) . . .
109(5) . . .
130(6) . . .
122(6) . . .
115(6) . . .
133(6) . . .
129(6) . . .
124(6) . . .
124(6) . . .
124(6) . . .
137(6) . . .
135(6) . . .
125(6) . . .
136(7) . . .
109(6) . . .
113(6) . . .
123(6) . . .
113(6) . . .
140(6) . . .
127(6) . . .
119(6) . . .
122(6) . . .
119(6) . . .
124(6) . . .
113(6) . . .
112(6) . . .
115(6) . . .
126(6) . . .
135(6) . . .
124(6) . . .
118(6) . . .
121(6) . . .
120(6) . . .
122(6) . . .
120(6) . . .
131(6) . . .
134(6) . . .
121(6) . . .
126(6) . . .
111(5) . . .
130(6) . . .
127(6) . . .
119(6) . . .
127(6) . . .
125(6) . . .
132(6) . . .
120(6) . . .
125(6) . . .
125(6) . . .
123(6) . . .
133(6) . . .
116(6) . . .
124(6) . . .
131(6) . . .
105(5) . . .
125(6) . . .
120(6) . . .
121(6) . . .
121(6) . . .
129(6) . . .
109(6) . . .
117(6) . . .
114(6) . . .
124(6) . . .
122(6) . . .
111(6) . . .
116(6) . . .
137(6) . . .
123(6) . . .
132(6) . . .
139(6) . . .
133(6) . . .
114(6) . . .
124(6) . . .
123(6) . . .
117(6) . . .
115(6) . . .
134(6) . . .
121(6) . . .
105(5) . . .
125(6) . . .
120(6) . . .
130(6) . . .
131(6) . . .
108(5) . . .
115(6) . . .
114(6) . . .
130(6) . . .
128(6) . . .
128(6) . . .
116(6) . . .
124(6) . . .
127(6) . . .
123(6) . . .
131(6) . . .
135(6) . . .
125(6) . . .
134(6) . . .
143(6) . . .
127(6) . . .
122(6) . . .
123(6) . . .
119(6) . . .
114(6) . . .
127(6) . . .
122(6) . . .
128(6) . . .
112(5) . . .
117(6) . . .
129(6) . . .
115(6) . . .
109(6) . . .
106(5) . . .
127(6) . . .
134(6) . . .
136(6) . . .
132(6) . . .
126(6) . . .
116(6) . . .
132(6) . . .
126(6) . . .
138(6) . . .
131(6) . . .
127(6) . . .
129(6) . . .
129(6) . . .
110(5) . . .
133(6) . . .
125(6) . . .
139(6) . . .
128(6) . . .
128(6) . . .
134(6) . . .
122(6) . . .
105(6) . . .
118(6) . . .
131(6) . . .
132(6) . . .
132(6) . . .
113(6) . . .
129(6) . . .
115(6) . . .
129(6) . . .
123(6) . . .
120(6) . . .
122(6) . . .
115(6) . . .
111(5) . . .
126(6) . . .
125(6) . . .
132(6) . . .
128(6) . . .
122(6) . . .
129(6) . . .
120(6) . . .
110(5) . . .
132(6) . . .
131(6) . . .
120(6) . . .
122(6) . . .
118(6) . . .
113(6) . . .
123(6) . . .
128(6) . . .
117(6) . . .
125(6) . . .
117(6) . . .
124(6) . . .
114(6) . . .
133(7) . . .
126(6) . . .
145(6) . . .
120(6) . . .
116(6) . . .
113(6) . . .
105(6) . . .
102(5) . . .
126(6) . . .
124(6) . . .
118(6) . . .
119(6) . . .
115(6) . . .
115(6) . . .
122(6) . . .
127(6) . . .
118(6) . . .
134(6) . . .
116(6) . . .
115(6) . . .
123(6) . . .
125(6) . . .
119(6) . . .
132(6) . . .
128(6) . . .
128(6) . . .
121(6) . . .
122(6) . . .
129(6) . . .
131(6) . . .
130(6) . . .
106(5) . . .
123(6) . . .
133(6) . . .
140(7) . . .
120(6) . . .
113(6) . . .
111(5) . . .
109(6) . . .
131(6) . . .
129(6) . . .
123(6) . . .
116(6) . . .
113(6) . . .
127(6) . . .
124(6) . . .
120(6) . . .
127(6) . . .
131(6) . . .
126(6) . . .
118(6) . . .
125(6) . . .
129(6) . . .
119(6) . . .
107(6) . . .
120(6) . . .
122(6) . . .
116(6) . . .
117(6) . . .
132(6) . . .
124(6) . . .
128(6) . . .
125(6) . . .
113(6) . . .
127(6) . . .
121(6) . . .
128(6) . . .
119(6) . . .
137(6) . . .
135(6) . . .
118(6) . . .
126(6) . . .
127(6) . . .
134(6) . . .
113(6) . . .
119(6) . . .
119(6) . . .
119(6) . . .
110(6) . . .
121(6) . . .
111(6) . . .
114(6) . . .
123(6) . . .
122(6) . . .
122(6) . . .
117(6) . . .
114(6) . . .
117(6) . . .
118(6) . . .
122(6) . . .
113(6) . . .
118(6) . . .
118(6) . . .
112(6) . . .
117(6) . . .
99(5) . . .
142(6) . . .
112(6) . . .
132(7) . . .
125(6) . . .
117(6) . . .
108(5) . . .
115(6) . . .
123(6) . . .
132(6) . . .
129(6) . . .
129(6) . . .
124(6) . . .
105(5) . . .
115(6) . . .
118(6) . . .
122(6) . . .
128(6) . . .
126(6) . . .
115(6) . . .
125(6) . . .
124(6) . . .
131(6) . . .
120(6) . . .
115(6) . . .
108(5) . . .
112(6) . . .
109(6) . . .
130(6) . . .
121(6) . . .
128(6) . . .
119(6) . . .
131(6) . . .
124(6) . . .
132(6) . . .
135(6) . . .
127(6) . . .
114(6) . . .
126(6) . . .
112(6) . . .
121(6) . . .
123(6) . . .
122(6) . . .
126(6) . . .
117(6) . . .
127(6) . . .
114(6) . . .
121(6) . . .
120(6) . . .
127(6) . . .
118(6) . . .
124(6) . . .
113(6) . . .
125(6) . . .
111(5) . . .
121(6) . . .
120(6) . . .
130(6) . . .
128(6) . . .
123(6) . . .
136(6) . . .
123(6) . . .
116(6) . . .
133(6) . . .
120(6) . . .
121(6) . . .
122(6) . . .
129(6) . . .
124(6) . . .
120(6) . . .
125(6) . . .
116(6) . . .
132(6) . . .
124(6) . . .
114(6) . . .
131(6) . . .
118(6) . . .
132(7) . . .
130(6) . . .
121(6) . . .
106(5) . . .
138(7) . . .
113(6) . . .
123(6) . . .
134(6) . . .
133(6) . . .
135(6) . . .
141(6) . . .
113(6) . . .
131(6) . . .
117(6) . . .
130(6) . . .
135(6) . . .
123(6) . . .
126(6) . . .
122(6) . . .
109(6) . . .
135(6) . . .
115(6) . . .
111(5) . . .
109(6) . . .
123(6) . . .
106(6) . . .
136(6) . . .
118(6) . . .
110(6) . . .
132(6) . . .
121(6) . . .
118(6) . . .
123(6) . . .
124(6) . . .
134(6) . . .
121(6) . . .
121(6) . . .
129(6) . . .
118(6) . . .
116(6) . . .
126(6) . . .
116(6) . . .
127(6) . . .
117(6) . . .
119(6) . . .
120(6) . . .
124(6) . . .
123(6) . . .
116(6) . . .
125(6) . . .
124(6) . . .
116(6) . . .
126(6) . . .
133(6) . . .
109(6) . . .
129(6) . . .
112(6) . . .
112(6) . . .
119(6) . . .
112(6) . . .
128(6) . . .
125(6) . . .
111(6) . . .
128(6) . . .
118(6) . . .
124(6) . . .
120(6) . . .
117(6) . . .
127(6) . . .
129(6) . . .
130(6) . . .
125(6) . . .
115(6) . . .
123(6) . . .
133(6) . . .
118(6) . . .
114(5) . . .
126(6) . . .
122(6) . . .
121(6) . . .
132(6) . . .
118(6) . . .
124(6) . . .
109(6) . . .
116(6) . . .
117(6) . . .
125(6) . . .
115(6) . . .
119(6) . . .
123(6) . . .
120(6) . . .
117(6) . . .
125(6) . . .
128(6) . . .
128(6) . . .
133(6) . . .
117(6) . . .
117(6) . . .
119(6) . . .
113(6) . . .
129(6) . . .
124(6) . . .
129(6) . . .
115(6) . . .
108(6) . . .
115(6) . . .
111(6) . . .
125(6) . . .
111(6) . . .
138(6) . . .
119(6) . . .
132(6) . . .
122(6) . . .
126(6) . . .
123(6) . . .
113(6) . . .
122(6) . . .
111(6) . . .
112(6) . . .
121(6) . . .
111(5) . . .
133(6) . . .
118(6) . . .
130(6) . . .
117(6) . . .
132(6) . . .
128(6) . . .
128(6) . . .
121(6) . . .
118(6) . . .
124(6) . . .
124(6) . . .
132(6) . . .
122(6) . . .
122(6) . . .
113(6) . . .
115(6) . . .
129(6) . . .
120(6) . . .
126(6) . . .
116(6) . . .
123(6) . . .
128(6) . . .
127(6) . . .
115(6) . . .
138(6) . . .
106(5) . . .
112(6) . . .
108(6) . . .
122(6) . . .
128(6) . . .
121(6) . . .
130(6) . . .
138(6) . . .
141(6) . . .
118(6) . . .
128(6) . . .
111(6) . . .
131(6) . . .
127(6) . . .
128(6) . . .
120(6) . . .
114(6) . . .
121(6) . . .
125(6) . . .
125(6) . . .
128(6) . . .
122(6) . . .
129(6) . . .
112(5) . . .
116(6) . . .
125(6) . . .
127(6) . . .
118(6) . . .
117(6) . . .
123(6) . . .
123(6) . . .
113(6) . . .
113(6) . . .
117(6) . . .
125(6) . . .
134(6) . . .
114(6) . . .
130(6) . . .
123(6) . . .
123(6) . . .
133(7) . . .
118(6) . . .
120(6) . . .
133(6) . . .
123(6) . . .
139(7) . . .
120(6) . . .
110(6) . . .
116(6) . . .
121(6) . . .
126(6) . . .
124(6) . . .
131(6) . . .
124(6) . . .
117(6) . . .
110(6) . . .
120(6) . . .
124(6) . . .
129(6) . . .
112(6) . . .
121(6) . . .
128(6) . . .
118(6) . . .
126(6) . . .
122(6) . . .
108(5) . . .
105(5) . . .
120(6) . . .
112(6) . . .
109(6) . . .
119(6) . . .
132(6) . . .
122(6) . . .
109(6) . . .
115(6) . . .
105(6) . . .
110(6) . . .
117(6) . . .
111(6) . . .
115(6) . . .
118(6) . . .
100(5) . . .
116(6) . . .
132(6) . . .
123(6) . . .
115(6) . . .
130(6) . . .
126(6) . . .
120(6) . . .
119(6) . . .
123(6) . . .
114(6) . . .
114(6) . . .
113(6) . . .
109(6) . . .
120(6) . . .
117(6) . . .
125(6) . . .
117(6) . . .
130(6) . . .
127(6) . . .
124(6) . . .
120(6) . . .
114(6) . . .
119(6) . . .
126(6) . . .
139(6) . . .
121(6) . . .
111(6) . . .
115(6) . . .
133(6) . . .
126(6) . . .
134(6) . . .
112(6) . . .
124(6) . . .
125(6) . . .
113(6) . . .
123(6) . . .
122(6) . . .
122(6) . . .
120(6) . . .
120(6) . . .
100(6) . . .
106(6) . . .
122(6) . . .
118(6) . . .
127(6) . . .
107(6) . . .
125(6) . . .
128(6) . . .
121(6) . . .
126(6) . . .
115(6) . . .
113(6) . . .
116(6) . . .
100(5) . . .
116(6) . . .
117(6) . . .
117(6) . . .
124(6) . . .
115(6) . . .
114(6) . . .
129(6) . . .
121(6) . . .
126(6) . . .
115(6) . . .
125(6) . . .
112(6) . . .
104(6) . . .
115(6) . . .
111(5) . . .
128(6) . . .
128(6) . . .
125(6) . . .
134(6) . . .
125(6) . . .
118(6) . . .
132(6) . . .
131(6) . . .
137(6) . . .
114(6) . . .
122(6) . . .
119(6) . . .
124(6) . . .
116(6) . . .
120(6) . . .
111(6) . . .
115(6) . . .
116(6) . . .
130(6) . . .
127(6) . . .
126(6) . . .
121(6) . . .
118(6) . . .
118(6) . . .
136(6) . . .
139(6) . . .
113(6) . . .
107(5) . . .
116(6) . . .
125(6) . . .
126(6) . . .
99(5) . . .
107(6) . . .
139(6) . . .
124(6) . . .
126(6) . . .
121(6) . . .
117(6) . . .
120(6) . . .
109(5) . . .
111(6) . . .
120(6) . . .
110(6) . . .
117(6) . . .
134(6) . . .
110(5) . . .
125(6) . . .
127(6) . . .
113(6) . . .
114(6) . . .
122(6) . . .
110(6) . . .
131(6) . . .
109(5) . . .
131(6) . . .
117(6) . . .
127(6) . . .
134(6) . . .
137(6) . . .
119(6) . . .
128(6) . . .
130(6) . . .
117(6) . . .
118(6) . . .
130(6) . . .
121(6) . . .
126(6) . . .
111(6) . . .
125(6) . . .
124(6) . . .
126(6) . . .
137(7) . . .
117(6) . . .
111(5) . . .
120(6) . . .
119(6) . . .
115(6) . . .
125(6) . . .
130(6) . . .
116(6) . . .
123(6) . . .
125(6) . . .
111(5) . . .
114(6) . . .
110(6) . . .
124(6) . . .
125(6) . . .
129(6) . . .
119(6) . . .
124(6) . . .
114(6) . . .
127(6) . . .
119(6) . . .
109(5) . . .
113(6) . . .
115(6) . . .
114(6) . . .
126(6) . . .
124(6) . . .
124(6) . . .
136(7) . . .
122(6) . . .
118(6) . . .
126(6) . . .
114(6) . . .
116(6) . . .
113(6) . . .
119(6) . . .
110(6) . . .
116(6) . . .
116(6) . . .
121(6) . . .
113(6) . . .
116(6) . . .
110(6) . . .
123(6) . . .
127(6) . . .
107(5) . . .
137(6) . . .
127(6) . . .
126(6) . . .
121(6) . . .
108(5) . . .
120(6) . . .
107(6) . . .
107(6) . . .
121(6) . . .
105(5) . . .
116(6) . . .
121(6) . . .
109(6) . . .
123(6) . . .
142(6) . . .
121(6) . . .
126(6) . . .
137(6) . . .
121(6) . . .
108(5) . . .
114(6) . . .
118(6) . . .
121(6) . . .
118(6) . . .
120(6) . . .
129(6) . . .
112(6) . . .
116(6) . . .
116(6) . . .
126(6) . . .
118(6) . . .
119(6) . . .
128(6) . . .
135(6) . . .
112(5) . . .
124(6) . . .
115(6) . . .
98(6) . . .
112(6) . . .
123(6) . . .
127(6) . . .
122(6) . . .
119(6) . . .
119(6) . . .
102(5) . . .
124(6) . . .
134(6) . . .
130(6) . . .
135(6) . . .
128(6) . . .
118(6) . . .
116(6) . . .
114(6) . . .
124(6) . . .
125(6) . . .
126(6) . . .
116(6) . . .
101(5) . . .
120(6) . . .
124(6) . . .
113(6) . . .
123(6) . . .
118(6) . . .
120(6) . . .
136(6) . . .
124(6) . . .
113(6) . . .
123(6) . . .
115(6) . . .
109(6) . . .
114(6) . . .
117(6) . . .
136(6) . . .
114(6) . . .
111(6) . . .
114(6) . . .
114(6) . . .
104(5) . . .
119(6) . . .
125(6) . . .
122(6) . . .
127(6) . . .
112(5) . . .
119(6) . . .
119(6) . . .
111(6) . . .
105(5) . . .
111(5) . . .
119(6) . . .
115(6) . . .
124(6) . . .
117(6) . . .
109(5) . . .
93(5) . . .
123(6) . . .
123(6) . . .
120(6) . . .
111(5) . . .
131(6) . . .
124(6) . . .
118(6) . . .
114(6) . . .
118(6) . . .
117(6) . . .
115(6) . . .
128(6) . . .
120(6) . . .
122(6) . . .
127(6) . . .
113(6) . . .
122(6) . . .
133(6) . . .
126(6) . . .
136(6) . . .
123(6) . . .
114(6) . . .
113(6) . . .
114(6) . . .
126(6) . . .
123(6) . . .
118(6) . . .
117(6) . . .
104(5) . . .
120(6) . . .
118(6) . . .
108(5) . . .
109(5) . . .
116(6) . . .
123(6) . . .
117(6) . . .
116(6) . . .
106(5) . . .
112(6) . . .
120(6) . . .
122(6) . . .
122(6) . . .
122(6) . . .
129(6) . . .
131(6) . . .
105(6) . . .
115(6) . . .
121(6) . . .
112(5) . . .
110(6) . . .
119(6) . . .
124(6) . . .
126(6) . . .
133(6) . . .
126(6) . . .
120(6) . . .
122(6) . . .
116(6) . . .
121(6) . . .
124(6) . . .
116(6) . . .
119(6) . . .
113(6) . . .
97(5) . . .
105(6) . . .
112(6) . . .
114(6) . . .
139(6) . . .
106(5) . . .
131(6) . . .
121(6) . . .
120(6) . . .
118(6) . . .
117(6) . . .
116(6) . . .
119(6) . . .
115(6) . . .
112(5) . . .
119(6) . . .
119(6) . . .
110(5) . . .
111(5) . . .
118(6) . . .
118(6) . . .
118(6) . . .
119(6) . . .
109(6) . . .
127(6) . . .
117(6) . . .
109(6) . . .
115(6) . . .
124(6) . . .
122(6) . . .
123(6) . . .
126(6) . . .
114(6) . . .
126(6) . . .
111(6) . . .
100(5) . . .
110(6) . . .
94(5) . . .
121(6) . . .
113(6) . . .
101(5) . . .
115(6) . . .
116(6) . . .
117(6) . . .
109(6) . . .
122(6) . . .
119(6) . . .
112(6) . . .
110(6) . . .
111(6) . . .
112(6) . . .
119(6) . . .
121(6) . . .
125(6) . . .
107(5) . . .
118(6) . . .
125(6) . . .
127(6) . . .
112(6) . . .
133(6) . . .
109(6) . . .
114(6) . . .
108(5) . . .
117(6) . . .
116(6) . . .
132(7) . . .
121(6) . . .
119(6) . . .
113(6) . . .
107(5) . . .
104(6) . . .
121(6) . . .
119(6) . . .
120(6) . . .
109(5) . . .
116(6) . . .
117(6) . . .
125(6) . . .
106(5) . . .
117(6) . . .
121(6) . . .
123(6) . . .
126(6) . . .
119(6) . . .
108(6) . . .
116(6) . . .
115(6) . . .
108(5) . . .
129(6) . . .
128(6) . . .
121(6) . . .
122(6) . . .
118(6) . . .
116(6) . . .
107(6) . . .
125(6) . . .
118(6) . . .
123(6) . . .
123(6) . . .
104(6) . . .
119(6) . . .
105(6) . . .
113(6) . . .
104(6) . . .
117(6) . . .
116(6) . . .
107(5) . . .
119(6) . . .
110(6) . . .
124(6) . . .
109(6) . . .
99(5) . . .
111(6) . . .
126(6) . . .
123(6) . . .
114(6) . . .
113(6) . . .
130(6) . . .
115(6) . . .
107(6) . . .
112(6) . . .
126(6) . . .
106(5) . . .
119(6) . . .
109(6) . . .
120(6) . . .
116(6) . . .
126(6) . . .
126(6) . . .
105(5) . . .
111(6) . . .
108(5) . . .
113(6) . . .
112(6) . . .
98(5) . . .
107(5) . . .
138(6) . . .
127(6) . . .
98(5) . . .
116(6) . . .
118(6) . . .
113(6) . . .
112(6) . . .
122(6) . . .
115(6) . . .
116(6) . . .
122(6) . . .
123(6) . . .
130(6) . . .
113(6) . . .
118(6) . . .
116(6) . . .
119(6) . . .
121(6) . . .
114(6) . . .
109(5) . . .
111(5) . . .
116(6) . . .
114(6) . . .
114(6) . . .
123(6) . . .
124(6) . . .
109(6) . . .
118(6) . . .
114(6) . . .
110(5) . . .
124(6) . . .
119(6) . . .
94(5) . . .
113(6) . . .
119(6) . . .
102(5) . . .
119(6) . . .
111(6) . . .
106(6) . . .
110(5) . . .
113(6) . . .
117(6) . . .
96(5) . . .
102(5) . . .
107(5) . . .
117(6) . . .
107(6) . . .
117(6) . . .
112(6) . . .
124(6) . . .
113(6) . . .
101(5) . . .
127(6) . . .
134(7) . . .
111(5) . . .
107(5) . . .
128(6) . . .
115(6) . . .
112(6) . . .
114(6) . . .
108(5) . . .
101(5) . . .
111(6) . . .
122(6) . . .
121(6) . . .
122(6) . . .
121(6) . . .
120(6) . . .
127(6) . . .
108(5) . . .
119(6) . . .
116(6) . . .
108(6) . . .
119(6) . . .
115(6) . . .
122(6) . . .
114(6) . . .
112(6) . . .
105(5) . . .
111(6) . . .
109(5) . . .
120(6) . . .
113(6) . . .
121(6) . . .
112(5) . . .
112(6) . . .
122(6) . . .
100(5) . . .
113(6) . . .
122(6) . . .
107(5) . . .
106(6) . . .
115(6) . . .
111(6) . . .
108(5) . . .
123(6) . . .
120(6) . . .
115(6) . . .
120(6) . . .
113(6) . . .
122(6) . . .
119(6) . . .
103(5) . . .
104(5) . . .
117(6) . . .
115(6) . . .
106(6) . . .
115(6) . . .
106(5) . . .
115(6) . . .
119(6) . . .
113(6) . . .
122(6) . . .
121(6) . . .
112(6) . . .
117(6) . . .
111(6) . . .
119(6) . . .
117(6) . . .
117(6) . . .
114(6) . . .
126(6) . . .
115(6) . . .
96(5) . . .
116(6) . . .
119(6) . . .
116(6) . . .
125(6) . . .
106(5) . . .
107(5) . . .
115(6) . . .
106(5) . . .
128(6) . . .
118(6) . . .
110(6) . . .
114(6) . . .
120(6) . . .
106(5) . . .
115(6) . . .
116(6) . . .
129(6) . . .
120(6) . . .
121(6) . . .
96(5) . . .
116(6) . . .
115(6) . . .
128(6) . . .
117(6) . . .
125(6) . . .
123(6) . . .
111(6) . . .
107(5) . . .
108(5) . . .
107(5) . . .
122(6) . . .
110(5) . . .
122(6) . . .
116(6) . . .
127(6) . . .
117(6) . . .
119(6) . . .
106(5) . . .
109(5) . . .
104(5) . . .
116(6) . . .
114(6) . . .
110(6) . . .
122(6) . . .
119(6) . . .
112(6) . . .
103(6) . . .
108(5) . . .
118(6) . . .
114(6) . . .
105(5) . . .
114(6) . . .
119(6) . . .
113(6) . . .
96(5) . . .
109(6) . . .
109(6) . . .
121(6) . . .
117(6) . . .
124(6) . . .
105(6) . . .
114(6) . . .
117(6) . . .
117(6) . . .
102(5) . . .
126(6) . . .
123(6) . . .
106(5) . . .
107(5) . . .
122(6) . . .
104(5) . . .
122(6) . . .
116(6) . . .
110(6) . . .
108(6) . . .
115(6) . . .
120(6) . . .
115(6) . . .
113(6) . . .
111(6) . . .
102(5) . . .
114(6) . . .
121(6) . . .
118(6) . . .
108(6) . . .
112(6) . . .
116(6) . . .
119(6) . . .
107(5) . . .
103(5) . . .
103(5) . . .
106(5) . . .
107(5) . . .
124(6) . . .
106(6) . . .
104(6) . . .
113(6) . . .
103(5) . . .
113(6) . . .
120(6) . . .
123(6) . . .
112(6) . . .
108(5) . . .
109(5) . . .
113(6) . . .
107(5) . . .
108(5) . . .
107(5) . . .
110(6) . . .
108(6) . . .
118(6) . . .
118(6) . . .
110(5) . . .
106(5) . . .
120(6) . . .
100(5) . . .
108(5) . . .
113(6) . . .
118(6) . . .
109(6) . . .
117(6) . . .
130(6) . . .
102(5) . . .
110(6) . . .
109(6) . . .
117(6) . . .
123(6) . . .
119(6) . . .
98(5) . . .
98(5) . . .
109(6) . . .
125(6) . . .
129(6) . . .
116(6) . . .
124(6) . . .
134(6) . . .
120(6) . . .
105(6) . . .
110(6) . . .
122(6) . . .
111(6) . . .
107(5) . . .
117(6) . . .
119(6) . . .
114(6) . . .
130(6) . . .
113(5) . . .
112(6) . . .
110(6) . . .
112(6) . . .
113(6) . . .
106(5) . . .
107(6) . . .
108(6) . . .
101(5) . . .
104(5) . . .
101(5) . . .
115(6) . . .
118(6) . . .
106(6) . . .
117(6) . . .
110(5) . . .
103(5) . . .
113(6) . . .
123(6) . . .
109(5) . . .
107(5) . . .
119(6) . . .
128(6) . . .
127(6) . . .
106(5) . . .
126(6) . . .
126(6) . . .
122(6) . . .
121(6) . . .
106(5) . . .
114(6) . . .
112(6) . . .
115(6) . . .
114(6) . . .
111(5) . . .
110(6) . . .
108(6) . . .
110(6) . . .
108(6) . . .
119(6) . . .
114(6) . . .
131(7) . . .
105(6) . . .
108(6) . . .
97(5) . . .
120(6) . . .
116(6) . . .
122(6) . . .
118(6) . . .
123(6) . . .
139(7) . . .
122(6) . . .
108(6) . . .
100(5) . . .
128(6) . . .
106(6) . . .
97(6) . . .
109(6) . . .
116(6) . . .
118(6) . . .
111(6) . . .
120(6) . . .
125(6) . . .
114(6) . . .
97(5) . . .
116(6) . . .
102(6) . . .
118(6) . . .
110(5) . . .
115(6) . . .
103(5) . . .
111(6) . . .
106(6) . . .
101(5) . . .
98(5) . . .
119(6) . . .
110(6) . . .
102(6) . . .
108(5) . . .
103(5) . . .
105(6) . . .
112(6) . . .
104(5) . . .
98(5) . . .
116(6) . . .
118(6) . . .
114(6) . . .
112(6) . . .
125(6) . . .
125(6) . . .
111(6) . . .
125(6) . . .
108(5) . . .
120(6) . . .
104(5) . . .
109(6) . . .
105(6) . . .
106(6) . . .
113(5) . . .
98(5) . . .
88(5) . . .
108(6) . . .
107(6) . . .
122(6) . . .
109(5) . . .
113(6) . . .
116(6) . . .
124(6) . . .
103(5) . . .
103(5) . . .
121(6) . . .
124(6) . . .
113(6) . . .
110(5) . . .
115(6) . . .
117(6) . . .
118(6) . . .
115(6) . . .
111(5) . . .
112(6) . . .
119(6) . . .
107(6) . . .
121(6) . . .
108(5) . . .
115(6) . . .
115(6) . . .
116(6) . . .
122(6) . . .
114(6) . . .
106(5) . . .
102(5) . . .
115(6) . . .
117(6) . . .
116(6) . . .
104(5) . . .
108(6) . . .
101(5) . . .
110(5) . . .
110(6) . . .
111(6) . . .
119(6) . . .
105(5) . . .
128(6) . . .
105(5) . . .
112(6) . . .
114(6) . . .
110(5) . . .
110(6) . . .
120(6) . . .
120(6) . . .
127(6) . . .
121(6) . . .
98(5) . . .
107(5) . . .
118(6) . . .
107(5) . . .
116(6) . . .
120(6) . . .
120(6) . . .
111(6) . . .
98(5) . . .
104(5) . . .
126(6) . . .
102(5) . . .
116(6) . . .
118(6) . . .
113(6) . . .
103(5) . . .
107(6) . . .
106(6) . . .
114(6) . . .
104(5) . . .
99(5) . . .
115(6) . . .
129(6) . . .
119(6) . . .
104(5) . . .
111(6) . . .
105(5) . . .
122(6) . . .
112(6) . . .
114(6) . . .
112(6) . . .
111(6) . . .
115(6) . . .
115(6) . . .
96(5) . . .
98(5) . . .
120(6) . . .
111(5) . . .
100(5) . . .
106(5) . . .
108(5) . . .
110(6) . . .
106(6) . . .
110(6) . . .
113(6) . . .
108(6) . . .
113(6) . . .
108(6) . . .
115(6) . . .
110(5) . . .
103(5) . . .
119(6) . . .
107(6) . . .
97(5) . . .
109(5) . . .
107(6) . . .
113(6) . . .
109(6) . . .
107(5) . . .
125(6) . . .
115(6) . . .
121(6) . . .
118(6) . . .
96(5) . . .
110(5) . . .
106(5) . . .
114(6) . . .
108(6) . . .
99(5) . . .
109(5) . . .
111(6) . . .
116(6) . . .
108(6) . . .
104(5) . . .
116(6) . . .
126(6) . . .
111(6) . . .
117(6) . . .
101(5) . . .
109(6) . . .
112(6) . . .
104(6) . . .
92(5) . . .
106(5) . . .
100(5) . . .
106(6) . . .
104(6) . . .
107(6) . . .
96(5) . . .
106(5) . . .
114(6) . . .
117(6) . . .
116(6) . . .
117(6) . . .
93(5) . . .
111(6) . . .
103(5) . . .
102(5) . . .
117(6) . . .
126(6) . . .
105(5) . . .
113(6) . . .
119(6) . . .
116(6) . . .
99(5) . . .
111(6) . . .
102(5) . . .
98(5) . . .
123(6) . . .
117(6) . . .
105(6) . . .
111(6) . . .
120(6) . . .
101(5) . . .
104(6) . . .
114(6) . . .
116(6) . . .
101(5) . . .
94(5) . . .
102(6) . . .
105(6) . . .
110(6) . . .
113(6) . . .
105(5) . . .
99(5) . . .
105(6) . . .
114(6) . . .
104(5) . . .
119(6) . . .
98(5) . . .
116(6) . . .
119(6) . . .
107(5) . . .
110(5) . . .
118(6) . . .
105(6) . . .
95(5) . . .
99(5) . . .
98(5) . . .
97(6) . . .
107(6) . . .
105(5) . . .
106(5) . . .
100(5) . . .
126(6) . . .
104(6) . . .
96(5) . . .
112(5) . . .
108(6) . . .
127(6) . . .
109(5) . . .
126(6) . . .
104(5) . . .
102(6) . . .
112(6) . . .
116(6) . . .
100(5) . . .
100(5) . . .
114(6) . . .
109(6) . . .
101(5) . . .
106(5) . . .
118(6) . . .
116(6) . . .
108(6) . . .
97(5) . . .
105(5) . . .
116(6) . . .
103(5) . . .
106(6) . . .
107(5) . . .
105(5) . . .
120(6) . . .
109(6) . . .
99(6) . . .
98(5) . . .
107(5) . . .
100(5) . . .
107(6) . . .
105(5) . . .
103(5) . . .
105(5) . . .
105(5) . . .
108(6) . . .
114(6) . . .
102(5) . . .
103(5) . . .
118(6) . . .
122(6) . . .
93(5) . . .
112(5) . . .
121(6) . . .
128(6) . . .
106(5) . . .
106(5) . . .
107(5) . . .
114(6) . . .
116(6) . . .
112(6) . . .
96(5) . . .
92(5) . . .
96(5) . . .
96(5) . . .
116(6) . . .
104(5) . . .
108(5) . . .
123(6) . . .
96(5) . . .
98(5) . . .
123(6) . . .
119(6) . . .
113(5) . . .
113(6) . . .
123(6) . . .
113(6) . . .
112(6) . . .
101(5) . . .
96(5) . . .
117(6) . . .
103(5) . . .
107(5) . . .
108(5) . . .
111(6) . . .
111(6) . . .
102(6) . . .
94(5) . . .
122(6) . . .
113(6) . . .
110(6) . . .
110(6) . . .
98(5) . . .
104(5) . . .
110(6) . . .
101(6) . . .
96(5) . . .
105(5) . . .
103(5) . . .
108(6) . . .
115(6) . . .
106(5) . . .
105(5) . . .
116(6) . . .
114(6) . . .
111(6) . . .
108(6) . . .
111(6) . . .
121(6) . . .
120(6) . . .
113(6) . . .
107(5) . . .
99(5) . . .
97(5) . . .
100(5) . . .
106(6) . . .
107(5) . . .
105(5) . . .
123(6) . . .
102(6) . . .
114(6) . . .
108(5) . . .
112(6) . . .
117(6) . . .
117(6) . . .
104(6) . . .
101(5) . . .
112(6) . . .
101(5) . . .
107(6) . . .
112(6) . . .
104(5) . . .
106(5) . . .
98(5) . . .
107(6) . . .
94(5) . . .
112(6) . . .
109(5) . . .
107(6) . . .
101(6) . . .
108(6) . . .
118(6) . . .
112(6) . . .
105(5) . . .
99(5) . . .
116(6) . . .
108(5) . . .
121(6) . . .
113(6) . . .
115(6) . . .
109(6) . . .
100(5) . . .
98(5) . . .
99(6) . . .
97(5) . . .
98(5) . . .
107(5) . . .
107(6) . . .
104(6) . . .
103(6) . . .
123(6) . . .
107(5) . . .
107(6) . . .
116(6) . . .
99(5) . . .
93(5) . . .
108(5) . . .
108(6) . . .
120(6) . . .
108(6) . . .
104(5) . . .
103(5) . . .
100(5) . . .
111(6) . . .
110(5) . . .
113(6) . . .
115(6) . . .
107(5) . . .
103(6) . . .
102(5) . . .
111(6) . . .
109(5) . . .
109(5) . . .
102(5) . . .
116(6) . . .
111(5) . . .
110(5) . . .
109(5) . . .
109(6) . . .
110(6) . . .
104(5) . . .
100(5) . . .
95(5) . . .
90(5) . . .
104(6) . . .
99(5) . . .
92(5) . . .
89(5) . . .
108(6) . . .
115(6) . . .
112(5) . . .
105(5) . . .
111(6) . . .
96(5) . . .
106(6) . . .
110(6) . . .
111(6) . . .
123(6) . . .
103(5) . . .
116(6) . . .
104(5) . . .
101(5) . . .
113(6) . . .
92(5) . . .
115(6) . . .
106(5) . . .
116(6) . . .
105(6) . . .
105(5) . . .
109(5) . . .
95(5) . . .
118(6) . . .
117(6) . . .
104(5) . . .
119(6) . . .
103(5) . . .
109(6) . . .
112(6) . . .
105(5) . . .
106(5) . . .
103(5) . . .
110(6) . . .
112(6) . . .
106(5) . . .
124(6) . . .
126(6) . . .
111(6) . . .
101(5) . . .
111(6) . . .
116(6) . . .
97(5) . . .
118(6) . . .
99(5) . . .
111(6) . . .
107(5) . . .
86(5) . . .
95(5) . . .
107(6) . . .
116(6) . . .
97(5) . . .
112(6) . . .
123(6) . . .
88(5) . . .
99(5) . . .
99(5) . . .
98(5) . . .
96(5) . . .
106(6) . . .
109(6) . . .
114(6) . . .
108(5) . . .
115(6) . . .
101(6) . . .
100(5) . . .
113(6) . . .
100(5) . . .
110(6) . . .
109(6) . . .
110(5) . . .
107(5) . . .
100(6) . . .
102(6) . . .
101(5) . . .
104(5) . . .
108(5) . . .
94(5) . . .
115(6) . . .
107(5) . . .
107(5) . . .
95(5) . . .
110(6) . . .
116(6) . . .
99(5) . . .
100(5) . . .
100(5) . . .
110(6) . . .
113(6) . . .
100(5) . . .
102(5) . . .
94(5) . . .
115(6) . . .
108(6) . . .
109(6) . . .
106(5) . . .
114(6) . . .
109(5) . . .
112(6) . . .
110(6) . . .
100(5) . . .
115(6) . . .
129(6) . . .
97(5) . . .
91(5) . . .
104(5) . . .
109(6) . . .
99(5) . . .
113(6) . . .
100(5) . . .
99(5) . . .
98(5) . . .
108(6) . . .
114(6) . . .
106(5) . . .
111(6) . . .
108(6) . . .
116(6) . . .
97(5) . . .
133(6) . . .
99(5) . . .
115(6) . . .
95(5) . . .
119(6) . . .
122(6) . . .
116(6) . . .
99(5) . . .
112(6) . . .
111(5) . . .
108(5) . . .
95(5) . . .
107(6) . . .
99(6) . . .
102(5) . . .
103(5) . . .
102(5) . . .
96(5) . . .
108(6) . . .
115(6) . . .
112(5) . . .
110(5) . . .
123(6) . . .
113(6) . . .
105(5) . . .
99(5) . . .
106(5) . . .
105(6) . . .
106(6) . . .
98(5) . . .
93(5) . . .
93(5) . . .
114(6) . . .
107(6) . . .
115(6) . . .
121(6) . . .
127(6) . . .
125(6) . . .
112(6) . . .
112(6) . . .
105(5) . . .
109(5) . . .
102(6) . . .
102(5) . . .
100(5) . . .
94(5) . . .
108(6) . . .
103(5) . . .
117(6) . . .
93(5) . . .
107(5) . . .
101(5) . . .
87(5) . . .
98(5) . . .
110(5) . . .
107(5) . . .
104(5) . . .
103(6) . . .
119(6) . . .
101(5) . . .
116(6) . . .
112(6) . . .
97(5) . . .
118(6) . . .
109(5) . . .
95(5) . . .
106(6) . . .
109(6) . . .
107(5) . . .
115(6) . . .
100(5) . . .
106(6) . . .
108(6) . . .
117(6) . . .
98(5) . . .
98(5) . . .
105(6) . . .
98(6) . . .
101(5) . . .
122(6) . . .
109(5) . . .
98(5) . . .
118(6) . . .
95(5) . . .
102(5) . . .
102(5) . . .
89(5) . . .
119(6) . . .
108(5) . . .
110(5) . . .
116(6) . . .
110(6) . . .
106(6) . . .
98(5) . . .
101(5) . . .
100(6) . . .
105(6) . . .
106(6) . . .
93(5) . . .
108(5) . . .
115(6) . . .
106(6) . . .
114(6) . . .
105(5) . . .
106(5) . . .
113(6) . . .
100(5) . . .
113(6) . . .
113(6) . . .
118(6) . . .
115(6) . . .
100(6) . . .
108(6) . . .
118(6) . . .
125(6) . . .
118(6) . . .
126(6) . . .
114(6) . . .
93(5) . . .
102(6) . . .
92(5) . . .
107(6) . . .
127(6) . . .
121(6) . . .
115(6) . . .
114(6) . . .
91(5) . . .
105(6) . . .
101(5) . . .
112(6) . . .
107(6) . . .
104(5) . . .
100(5) . . .
93(5) . . .
110(6) . . .
116(6) . . .
92(5) . . .
100(5) . . .
105(5) . . .
98(5) . . .
93(5) . . .
114(6) . . .
111(6) . . .
120(6) . . .
111(6) . . .
99(5) . . .
127(6) . . .
108(5) . . .
108(5) . . .
108(6) . . .
98(5) . . .
118(6) . . .
96(5) . . .
114(6) . . .
108(6) . . .
109(6) . . .
119(6) . . .
88(5) . . .
110(5) . . .
104(5) . . .
114(6) . . .
99(5) . . .
102(5) . . .
115(6) . . .
98(5) . . .
104(6) . . .
98(5) . . .
100(5) . . .
93(5) . . .
104(6) . . .
105(6) . . .
116(6) . . .
115(6) . . .
108(5) . . .
104(5) . . .
102(6) . . .
107(6) . . .
113(5) . . .
109(6) . . .
101(5) . . .
100(5) . . .
117(6) . . .
101(5) . . .
94(5) . . .
100(5) . . .
97(5) . . .
108(6) . . .
96(5) . . .
92(5) . . .
106(6) . . .
94(5) . . .
114(6) . . .
114(6) . . .
103(5) . . .
101(5) . . .
123(6) . . .
95(5) . . .
104(5) . . .
105(6) . . .
105(6) . . .
104(5) . . .
112(6) . . .
103(5) . . .
106(6) . . .
113(6) . . .
104(5) . . .
106(5) . . .
103(5) . . .
95(5) . . .
110(6) . . .
91(5) . . .
97(5) . . .
101(5) . . .
101(5) . . .
99(5) . . .
96(5) . . .
111(5) . . .
113(5) . . .
115(6) . . .
107(6) . . .
87(5) . . .
101(5) . . .
96(5) . . .
99(6) . . .
107(6) . . .
108(6) . . .
102(5) . . .
106(5) . . .
107(6) . . .
95(5) . . .
93(5) . . .
104(5) . . .
106(5) . . .
104(6) . . .
99(5) . . .
103(5) . . .
102(5) . . .
104(5) . . .
108(6) . . .
99(5) . . .
98(5) . . .
104(5) . . .
98(5) . . .
103(6) . . .
103(5) . . .
92(5) . . .
106(5) . . .
98(5) . . .
100(6) . . .
105(6) . . .
109(6) . . .
91(5) . . .
103(5) . . .
108(6) . . .
91(5) . . .
108(5) . . .
106(5) . . .
107(6) . . .
90(5) . . .
95(5) . . .
105(5) . . .
104(5) . . .
99(5) . . .
116(6) . . .
99(5) . . .
113(6) . . .
113(5) . . .
117(6) . . .
112(6) . . .
101(5) . . .
100(5) . . .
113(6) . . .
94(5) . . .
101(6) . . .
104(6) . . .
112(5) . . .
117(6) . . .
97(5) . . .
112(6) . . .
97(5) . . .
93(5) . . .
97(5) . . .
101(6) . . .
99(5) . . .
112(6) . . .
103(5) . . .
101(5) . . .
119(6) . . .
106(6) . . .
106(5) . . .
106(5) . . .
108(5) . . .
101(5) . . .
99(5) . . .
104(5) . . .
107(5) . . .
101(6) . . .
108(6) . . .
107(6) . . .
106(6) . . .
97(5) . . .
112(6) . . .
108(6) . . .
104(6) . . .
102(5) . . .
112(5) . . .
94(5) . . .
91(5) . . .
103(5) . . .
106(5) . . .
105(5) . . .
101(5) . . .
109(6) . . .
89(5) . . .
98(5) . . .
99(5) . . .
106(5) . . .
104(6) . . .
103(5) . . .
119(6) . . .
107(5) . . .
101(5) . . .
104(6) . . .
106(5) . . .
104(5) . . .
91(5) . . .
103(6) . . .
117(6) . . .
113(6) . . .
94(5) . . .
105(5) . . .
83(5) . . .
108(6) . . .
111(6) . . .
111(5) . . .
102(5) . . .
111(6) . . .
119(6) . . .
103(6) . . .
101(5) . . .
105(5) . . .
101(5) . . .
110(6) . . .
106(5) . . .
99(5) . . .
100(5) . . .
104(6) . . .
104(6) . . .
103(5) . . .
102(5) . . .
94(5) . . .
101(5) . . .
103(5) . . .
105(5) . . .
94(5) . . .
96(5) . . .
109(6) . . .
117(6) . . .
98(5) . . .
104(5) . . .
99(5) . . .
111(6) . . .
98(5) . . .
103(5) . . .
108(5) . . .
109(6) . . .
108(6) . . .
106(6) . . .
105(5) . . .
103(5) . . .
89(5) . . .
101(6) . . .
98(5) . . .
106(5) . . .
101(5) . . .
92(5) . . .
101(6) . . .
104(6) . . .
93(5) . . .
106(5) . . .
101(5) . . .
106(6) . . .
100(5) . . .
115(6) . . .
93(5) . . .
99(5) . . .
113(6) . . .
110(6) . . .
108(5) . . .
91(5) . . .
105(6) . . .
99(5) . . .
103(5) . . .
109(5) . . .
114(6) . . .
101(5) . . .
108(5) . . .
110(6) . . .
98(5) . . .
104(5) . . .
102(5) . . .
118(6) . . .
113(6) . . .
103(5) . . .
101(5) . . .
104(6) . . .
99(5) . . .
103(5) . . .
91(5) . . .
81(5) . . .
102(5) . . .
114(6) . . .
97(5) . . .
111(5) . . .
98(5) . . .
110(6) . . .
97(5) . . .
91(5) . . .
103(5) . . .
98(5) . . .
100(6) . . .
103(5) . . .
106(5) . . .
92(5) . . .
96(5) . . .
98(5) . . .
108(6) . . .
109(5) . . .
104(5) . . .
122(6) . . .
89(5) . . .
101(5) . . .
104(5) . . .
110(6) . . .
116(6) . . .
107(6) . . .
111(6) . . .
95(5) . . .
102(6) . . .
100(5) . . .
99(5) . . .
95(5) . . .
92(5) . . .
100(5) . . .
105(5) . . .
102(5) . . .
100(5) . . .
102(5) . . .
97(5) . . .
107(6) . . .
103(5) . . .
93(5) . . .
96(5) . . .
89(5) . . .
95(5) . . .
95(5) . . .
107(5) . . .
98(5) . . .
94(5) . . .
99(6) . . .
97(5) . . .
97(5) . . .
100(5) . . .
96(5) . . .
111(6) . . .
98(5) . . .
101(5) . . .
108(5) . . .
106(6) . . .
104(6) . . .
102(5) . . .
111(5) . . .
94(5) . . .
96(5) . . .
104(6) . . .
79(5) . . .
107(5) . . .
96(5) . . .
99(5) . . .
90(5) . . .
116(6) . . .
103(5) . . .
111(6) . . .
105(5) . . .
103(6) . . .
90(5) . . .
100(5) . . .
111(6) . . .
101(5) . . .
102(6) . . .
88(5) . . .
96(5) . . .
92(5) . . .
104(6) . . .
91(5) . . .
92(5) . . .
100(5) . . .
97(6) . . .
86(5) . . .
103(6) . . .
108(5) . . .
95(5) . . .
108(6) . . .
105(6) . . .
91(5) . . .
91(5) . . .
96(5) . . .
100(5) . . .
107(6) . . .
101(5) . . .
100(5) . . .
118(6) . . .
111(6) . . .
112(6) . . .
97(5) . . .
113(6) . . .
108(5) . . .
101(5) . . .
93(5) . . .
110(6) . . .
99(5) . . .
86(5) . . .
94(5) . . .
94(6) . . .
82(5) . . .
97(5) . . .
99(5) . . .
97(5) . . .
113(6) . . .
98(5) . . .
104(5) . . .
88(5) . . .
99(5) . . .
94(5) . . .
101(5) . . .
108(5) . . .
97(5) . . .
92(5) . . .
114(6) . . .
110(6) . . .
103(5) . . .
102(5) . . .
98(5) . . .
95(5) . . .
108(6) . . .
82(5) . . .
102(5) . . .
97(5) . . .
92(5) . . .
98(5) . . .
94(5) . . .
99(5) . . .
111(6) . . .
99(5) . . .
105(5) . . .
116(6) . . .
110(6) . . .
106(5) . . .
93(5) . . .
91(5) . . .
93(5) . . .
108(6) . . .
97(5) . . .
96(5) . . .
113(6) . . .
88(5) . . .
89(5) . . .
100(6) . . .
105(6) . . .
103(5) . . .
102(5) . . .
108(6) . . .
109(6) . . .
99(5) . . .
90(5) . . .
104(5) . . .
100(5) . . .
103(6) . . .
96(5) . . .
99(5) . . .
99(5) . . .
97(5) . . .
102(5) . . .
106(6) . . .
103(5) . . .
100(5) . . .
98(5) . . .
108(6) . . .
116(6) . . .
105(5) . . .
107(6) . . .
101(5) . . .
94(5) . . .
88(5) . . .
103(5) . . .
97(5) . . .
104(6) . . .
97(5) . . .
104(5) . . .
92(5) . . .
96(6) . . .
98(6) . . .
90(5) . . .
111(6) . . .
106(5) . . .
89(5) . . .
90(5) . . .
87(5) . . .
112(6) . . .
93(5) . . .
96(5) . . .
93(5) . . .
92(5) . . .
98(5) . . .
98(5) . . .
103(5) . . .
92(5) . . .
102(6) . . .
90(5) . . .
101(5) . . .
88(5) . . .
96(5) . . .
104(5) . . .
111(6) . . .
101(5) . . .
105(6) . . .
102(6) . . .
90(5) . . .
104(5) . . .
111(6) . . .
96(5) . . .
101(6) . . .
91(5) . . .
92(5) . . .
111(6) . . .
101(5) . . .
95(5) . . .
110(6) . . .
99(5) . . .
88(5) . . .
98(5) . . .
104(6) . . .
97(5) . . .
99(5) . . .
89(5) . . .
105(5) . . .
112(6) . . .
100(5) . . .
86(5) . . .
112(6) . . .
105(5) . . .
114(6) . . .
100(5) . . .
89(5) . . .
95(5) . . .
89(5) . . .
96(5) . . .
94(5) . . .
95(5) . . .
106(5) . . .
100(6) . . .
99(6) . . .
84(5) . . .
88(5) . . .
98(5) . . .
105(6) . . .
97(5) . . .
94(5) . . .
108(5) . . .
104(6) . . .
100(6) . . .
100(6) . . .
87(5) . . .
103(5) . . .
86(5) . . .
95(5) . . .
110(6) . . .
99(5) . . .
90(5) . . .
82(5) . . .
91(5) . . .
96(5) . . .
94(5) . . .
82(5) . . .
101(5) . . .
102(5) . . .
101(5) . . .
104(5) . . .
108(6) . . .
88(5) . . .
116(6) . . .
99(5) . . .
104(5) . . .
103(6) . . .
102(5) . . .
96(5) . . .
101(5) . . .
104(5) . . .
98(5) . . .
90(5) . . .
86(5) . . .
98(5) . . .
105(5) . . .
119(6) . . .
106(6) . . .
98(5) . . .
98(5) . . .
91(5) . . .
95(5) . . .
104(6) . . .
104(6) . . .
93(5) . . .
89(5) . . .
97(5) . . .
95(5) . . .
106(6) . . .
97(5) . . .
97(5) . . .
97(5) . . .
92(5) . . .
98(5) . . .
99(5) . . .
97(5) . . .
95(5) . . .
103(6) . . .
88(5) . . .
101(5) . . .
101(5) . . .
89(5) . . .
91(5) . . .
101(5) . . .
105(5) . . .
100(5) . . .
108(6) . . .
103(6) . . .
92(5) . . .
100(5) . . .
93(5) . . .
112(6) . . .
106(6) . . .
106(6) . . .
106(5) . . .
94(5) . . .
106(6) . . .
115(6) . . .
113(6) . . .
96(5) . . .
105(5) . . .
94(5) . . .
105(6) . . .
100(5) . . .
98(5) . . .
76(5) . . .
87(5) . . .
92(5) . . .
95(5) . . .
101(5) . . .
104(6) . . .
96(5) . . .
99(5) . . .
111(6) . . .
95(5) . . .
98(5) . . .
88(5) . . .
96(5) . . .
94(5) . . .
99(5) . . .
96(5) . . .
102(6) . . .
101(5) . . .
103(5) . . .
112(6) . . .
114(6) . . .
102(6) . . .
102(6) . . .
104(5) . . .
99(5) . . .
101(5) . . .
111(6) . . .
101(5) . . .
106(5) . . .
91(5) . . .
86(5) . . .
95(6) . . .
90(5) . . .
103(5) . . .
89(5) . . .
115(6) . . .
95(5) . . .
81(5) . . .
91(5) . . .
95(5) . . .
89(5) . . .
90(5) . . .
100(5) . . .
102(5) . . .
101(5) . . .
106(6) . . .
94(5) . . .
105(5) . . .
95(5) . . .
98(5) . . .
96(6) . . .
83(5) . . .
85(5) . . .
102(5) . . .
101(5) . . .
97(5) . . .
103(5) . . .
93(5) . . .
94(5) . . .
104(6) . . .
96(5) . . .
108(6) . . .
103(5) . . .
87(5) . . .
96(5) . . .
102(6) . . .
100(5) . . .
82(5) . . .
101(5) . . .
87(5) . . .
105(6) . . .
107(5) . . .
96(5) . . .
125(6) . . .
111(5) . . .
104(5) . . .
87(5) . . .
87(5) . . .
101(5) . . .
111(6) . . .
93(5) . . .
98(5) . . .
106(5) . . .
83(5) . . .
89(5) . . .
92(5) . . .
91(5) . . .
85(5) . . .
97(5) . . .
80(5) . . .
102(6) . . .
106(5) . . .
104(5) . . .
103(5) . . .
97(5) . . .
102(5) . . .
96(5) . . .
101(5) . . .
126(6) . . .
105(6) . . .
84(5) . . .
95(5) . . .
90(5) . . .
97(5) . . .
101(5) . . .
80(5) . . .
93(5) . . .
95(5) . . .
86(5) . . .
92(5) . . .
98(5) . . .
95(5) . . .
110(6) . . .
88(5) . . .
97(6) . . .
101(5) . . .
92(5) . . .
94(5) . . .
92(5) . . .
93(5) . . .
102(5) . . .
91(5) . . .
89(5) . . .
94(5) . . .
108(6) . . .
94(5) . . .
101(5) . . .
105(5) . . .
97(5) . . .
100(5) . . .
88(5) . . .
102(5) . . .
90(5) . . .
102(6) . . .
85(5) . . .
103(5) . . .
99(5) . . .
89(5) . . .
93(5) . . .
94(5) . . .
99(5) . . .
94(5) . . .
99(5) . . .
100(5) . . .
94(5) . . .
106(6) . . .
95(5) . . .
95(5) . . .
95(5) . . .
93(5) . . .
94(5) . . .
100(5) . . .
111(6) . . .
94(5) . . .
87(5) . . .
94(5) . . .
94(5) . . .
98(5) . . .
93(5) . . .
94(5) . . .
95(5) . . .
97(5) . . .
103(5) . . .
91(5) . . .
80(5) . . .
96(5) . . .
106(5) . . .
103(5) . . .
110(6) . . .
106(5) . . .
88(5) . . .
98(5) . . .
103(5) . . .
107(6) . . .
96(5) . . .
93(5) . . .
117(6) . . .
115(6) . . .
86(5) . . .
101(6) . . .
92(5) . . .
117(6) . . .
91(5) . . .
102(6) . . .
83(5) . . .
93(5) . . .
92(5) . . .
96(5) . . .
99(6) . . .
98(5) . . .
93(5) . . .
112(6) . . .
98(5) . . .
109(6) . . .
91(5) . . .
96(5) . . .
92(5) . . .
93(5) . . .
109(6) . . .
112(6) . . .
101(5) . . .
105(6) . . .
99(5) . . .
110(6) . . .
94(5) . . .
93(5) . . .
101(5) . . .
99(5) . . .
103(5) . . .
84(5) . . .
93(5) . . .
91(5) . . .
97(6) . . .
101(5) . . .
102(5) . . .
97(5) . . .
90(5) . . .
92(5) . . .
100(5) . . .
97(5) . . .
100(5) . . .
99(5) . . .
97(5) . . .
95(5) . . .
104(5) . . .
92(5) . . .
101(5) . . .
102(6) . . .
93(5) . . .
90(5) . . .
102(5) . . .
85(5) . . .
98(5) . . .
106(6) . . .
100(5) . . .
91(5) . . .
88(5) . . .
95(5) . . .
91(5) . . .
99(5) . . .
99(5) . . .
107(6) . . .
113(6) . . .
96(5) . . .
101(5) . . .
89(5) . . .
95(5) . . .
107(5) . . .
106(5) . . .
99(5) . . .
95(5) . . .
102(5) . . .
109(6) . . .
79(5) . . .
98(5) . . .
95(5) . . .
93(5) . . .
89(5) . . .
92(5) . . .
92(5) . . .
109(6) . . .
92(5) . . .
107(6) . . .
94(5) . . .
89(5) . . .
110(6) . . .
87(5) . . .
86(5) . . .
90(5) . . .
87(5) . . .
86(5) . . .
99(6) . . .
93(5) . . .
96(5) . . .
99(5) . . .
101(5) . . .
95(5) . . .
90(5) . . .
88(5) . . .
98(5) . . .
88(5) . . .
102(6) . . .
93(5) . . .
99(5) . . .
104(5) . . .
91(5) . . .
101(5) . . .
94(5) . . .
104(5) . . .
93(5) . . .
92(5) . . .
95(5) . . .
98(5) . . .
96(5) . . .
95(5) . . .
85(5) . . .
88(5) . . .
107(6) . . .
94(5) . . .
88(5) . . .
96(5) . . .
95(5) . . .
97(5) . . .
97(5) . . .
88(5) . . .
100(5) . . .
108(6) . . .
81(5) . . .
89(5) . . .
96(5) . . .
83(5) . . .
97(5) . . .
93(5) . . .
87(5) . . .
95(5) . . .
106(6) . . .
105(5) . . .
90(5) . . .
88(5) . . .
97(5) . . .
89(5) . . .
81(5) . . .
80(5) . . .
93(5) . . .
103(5) . . .
108(6) . . .
104(6) . . .
103(5) . . .
98(5) . . .
98(5) . . .
91(5) . . .
86(5) . . .
108(5) . . .
86(5) . . .
94(5) . . .
93(5) . . .
85(5) . . .
101(5) . . .
101(5) . . .
101(5) . . .
85(5) . . .
82(5) . . .
95(5) . . .
89(5) . . .
100(5) . . .
98(5) . . .
94(5) . . .
100(5) . . .
88(5) . . .
100(6) . . .
98(6) . . .
92(5) . . .
97(5) . . .
99(5) . . .
88(5) . . .
96(5) . . .
106(5) . . .
103(5) . . .
81(5) . . .
92(6) . . .
81(5) . . .
101(5) . . .
105(5) . . .
87(5) . . .
100(6) . . .
94(5) . . .
96(5) . . .
102(5) . . .
99(5) . . .
83(5) . . .
77(5) . . .
84(5) . . .
106(5) . . .
94(5) . . .
102(6) . . .
100(5) . . .
93(5) . . .
86(5) . . .
112(6) . . .
85(5) . . .
84(5) . . .
93(5) . . .
87(5) . . .
97(5) . . .
90(5) . . .
85(5) . . .
104(5) . . .
100(5) . . .
100(5) . . .
95(5) . . .
92(5) . . .
91(5) . . .
85(5) . . .
95(5) . . .
102(6) . . .
93(5) . . .
97(5) . . .
85(5) . . .
91(5) . . .
80(5) . . .
94(5) . . .
103(5) . . .
94(5) . . .
94(5) . . .
93(5) . . .
90(5) . . .
81(5) . . .
107(6) . . .
94(5) . . .
106(6) . . .
93(5) . . .
104(5) . . .
88(5) . . .
94(6) . . .
96(5) . . .
95(5) . . .
106(5) . . .
92(5) . . .
91(5) . . .
100(5) . . .
97(5) . . .
109(5) . . .
104(6) . . .
94(5) . . .
96(5) . . .
97(5) . . .
98(5) . . .
92(5) . . .
97(5) . . .
88(5) . . .
86(5) . . .
99(5) . . .
100(5) . . .
95(5) . . .
89(5) . . .
94(5) . . .
90(5) . . .
92(5) . . .
99(5) . . .
85(5) . . .
107(5) . . .
78(5) . . .
86(5) . . .
85(5) . . .
79(5) . . .
94(5) . . .
99(5) . . .
106(6) . . .
90(5) . . .
93(5) . . .
104(5) . . .
106(6) . . .
77(5) . . .
95(5) . . .
101(5) . . .
98(5) . . .
89(5) . . .
87(5) . . .
92(5) . . .
91(5) . . .
104(5) . . .
99(5) . . .
95(5) . . .
98(5) . . .
86(5) . . .
98(5) . . .
89(5) . . .
91(5) . . .
101(5) . . .
92(5) . . .
104(5) . . .
103(5) . . .
107(6) . . .
89(5) . . .
96(5) . . .
95(5) . . .
110(6) . . .
105(6) . . .
92(5) . . .
86(5) . . .
97(5) . . .
104(6) . . .
83(5) . . .
106(6) . . .
96(5) . . .
85(5) . . .
100(5) . . .
102(6) . . .
104(5) . . .
108(5) . . .
97(5) . . .
115(6) . . .
102(5) . . .
91(5) . . .
87(5) . . .
101(5) . . .
81(5) . . .
83(5) . . .
99(5) . . .
100(5) . . .
85(5) . . .
89(5) . . .
96(5) . . .
85(5) . . .
96(5) . . .
113(6) . . .
103(6) . . .
93(5) . . .
98(5) . . .
100(5) . . .
86(5) . . .
98(6) . . .
74(4) . . .
91(5) . . .
90(5) . . .
98(5) . . .
91(5) . . .
93(6) . . .
94(5) . . .
89(5) . . .
95(5) . . .
97(6) . . .
92(5) . . .
93(5) . . .
93(5) . . .
77(5) . . .
97(6) . . .
90(5) . . .
91(5) . . .
96(5) . . .
90(5) . . .
100(6) . . .
93(5) . . .
88(5) . . .
87(5) . . .
91(5) . . .
101(6) . . .
90(5) . . .
105(5) . . .
92(5) . . .
87(5) . . .
87(5) . . .
95(5) . . .
81(5) . . .
102(5) . . .
105(5) . . .
99(5) . . .
96(5) . . .
90(5) . . .
96(5) . . .
89(5) . . .
95(5) . . .
75(5) . . .
106(5) . . .
90(5) . . .
94(6) . . .
90(5) . . .
103(5) . . .
82(5) . . .
86(5) . . .
86(5) . . .
84(5) . . .
96(5) . . .
100(5) . . .
83(5) . . .
86(5) . . .
85(5) . . .
94(5) . . .
93(5) . . .
103(5) . . .
89(5) . . .
83(5) . . .
89(5) . . .
82(5) . . .
92(5) . . .
80(5) . . .
94(5) . . .
87(5) . . .
88(5) . . .
104(5) . . .
92(5) . . .
88(5) . . .
93(5) . . .
81(5) . . .
75(4) . . .
89(5) . . .
104(5) . . .
97(5) . . .
91(5) . . .
87(5) . . .
74(5) . . .
86(5) . . .
94(5) . . .
96(5) . . .
88(5) . . .
99(5) . . .
76(5) . . .
94(5) . . .
92(5) . . .
103(5) . . .
93(5) . . .
88(5) . . .
77(5) . . .
90(5) . . .
107(6) . . .
94(5) . . .
87(5) . . .
87(5) . . .
84(5) . . .
106(6) . . .
92(5) . . .
96(5) . . .
87(5) . . .
97(5) . . .
84(5) . . .
90(5) . . .
86(5) . . .
76(4) . . .
94(5) . . .
93(5) . . .
94(5) . . .
101(5) . . .
81(5) . . .
92(5) . . .
104(6) . . .
106(6) . . .
89(5) . . .
96(5) . . .
98(5) . . .
85(5) . . .
96(5) . . .
92(5) . . .
92(5) . . .
95(5) . . .
98(5) . . .
95(6) . . .
91(5) . . .
90(5) . . .
91(5) . . .
91(5) . . .
85(5) . . .
92(5) . . .
80(5) . . .
87(5) . . .
88(5) . . .
98(5) . . .
84(5) . . .
93(5) . . .
94(6) . . .
91(5) . . .
91(5) . . .
100(5) . . .
82(5) . . .
100(6) . . .
89(5) . . .
93(5) . . .
102(5) . . .
102(5) . . .
91(5) . . .
95(5) . . .
89(5) . . .
79(5) . . .
89(5) . . .
79(5) . . .
88(5) . . .
80(5) . . .
82(5) . . .
104(6) . . .
97(5) . . .
91(5) . . .
97(5) . . .
108(5) . . .
90(5) . . .
99(6) . . .
97(5) . . .
104(5) . . .
90(5) . . .
79(5) . . .
88(5) . . .
90(5) . . .
89(5) . . .
86(5) . . .
83(5) . . .
86(5) . . .
102(5) . . .
94(5) . . .
95(5) . . .
89(5) . . .
82(5) . . .
95(5) . . .
98(5) . . .
95(5) . . .
83(5) . . .
94(6) . . .
94(5) . . .
84(5) . . .
93(5) . . .
101(5) . . .
93(5) . . .
82(5) . . .
84(5) . . .
94(5) . . .
86(5) . . .
92(5) . . .
97(5) . . .
93(5) . . .
92(5) . . .
94(5) . . .
96(5) . . .
84(5) . . .
80(5) . . .
97(5) . . .
94(5) . . .
93(5) . . .
84(5) . . .
103(5) . . .
95(5) . . .
93(5) . . .
85(5) . . .
90(5) . . .
96(5) . . .
95(5) . . .
91(6) . . .
87(5) . . .
101(5) . . .
92(5) . . .
93(5) . . .
94(5) . . .
92(5) . . .
90(5) . . .
83(5) . . .
84(5) . . .
88(5) . . .
99(6) . . .
92(5) . . .
83(5) . . .
106(6) . . .
91(5) . . .
88(5) . . .
97(5) . . .
91(5) . . .
101(6) . . .
96(5) . . .
87(5) . . .
93(5) . . .
109(6) . . .
82(5) . . .
89(5) . . .
88(5) . . .
90(5) . . .
94(5) . . .
84(5) . . .
81(5) . . .
81(5) . . .
86(5) . . .
84(5) . . .
87(5) . . .
101(6) . . .
93(5) . . .
91(5) . . .
89(5) . . .
108(6) . . .
93(5) . . .
88(5) . . .
82(5) . . .
84(5) . . .
82(5) . . .
97(5) . . .
92(5) . . .
92(5) . . .
90(5) . . .
102(6) . . .
101(6) . . .
98(5) . . .
107(5) . . .
88(5) . . .
73(5) . . .
100(5) . . .
103(5) . . .
92(5) . . .
84(5) . . .
86(5) . . .
92(5) . . .
84(5) . . .
103(5) . . .
92(5) . . .
91(5) . . .
89(5) . . .
81(5) . . .
98(5) . . .
84(5) . . .
91(5) . . .
83(5) . . .
99(5) . . .
83(5) . . .
75(5) . . .
79(5) . . .
94(5) . . .
83(5) . . .
101(5) . . .
83(5) . . .
94(5) . . .
92(5) . . .
95(5) . . .
103(5) . . .
76(5) . . .
85(5) . . .
82(5) . . .
83(5) . . .
87(5) . . .
94(5) . . .
100(5) . . .
83(5) . . .
98(5) . . .
93(5) . . .
94(5) . . .
103(6) . . .
92(5) . . .
95(5) . . .
89(5) . . .
88(5) . . .
85(5) . . .
89(5) . . .
91(5) . . .
83(5) . . .
98(5) . . .
84(5) . . .
88(5) . . .
83(5) . . .
95(5) . . .
88(5) . . .
85(5) . . .
89(5) . . .
84(5) . . .
76(5) . . .
100(6) . . .
95(5) . . .
89(5) . . .
92(5) . . .
94(5) . . .
110(6) . . .
100(5) . . .
81(5) . . .
95(5) . . .
90(5) . . .
98(5) . . .
84(5) . . .
84(5) . . .
88(5) . . .
89(5) . . .
86(5) . . .
97(5) . . .
92(5) . . .
103(5) . . .
88(5) . . .
96(5) . . .
95(5) . . .
94(5) . . .
84(5) . . .
91(5) . . .
86(5) . . .
87(5) . . .
85(5) . . .
85(5) . . .
105(6) . . .
99(5) . . .
79(5) . . .
70(4) . . .
79(5) . . .
92(5) . . .
94(5) . . .
89(5) . . .
86(5) . . .
90(5) . . .
92(5) . . .
80(5) . . .
77(5) . . .
82(5) . . .
88(5) . . .
79(5) . . .
87(5) . . .
102(5) . . .
93(5) . . .
88(5) . . .
104(5) . . .
88(5) . . .
86(5) . . .
90(5) . . .
99(5) . . .
86(5) . . .
93(5) . . .
94(5) . . .
89(5) . . .
94(5) . . .
93(5) . . .
100(5) . . .
90(5) . . .
98(5) . . .
97(5) . . .
77(5) . . .
82(5) . . .
95(5) . . .
93(5) . . .
84(5) . . .
85(5) . . .
87(5) . . .
95(5) . . .
99(5) . . .
85(5) . . .
97(5) . . .
88(5) . . .
86(5) . . .
84(5) . . .
84(5) . . .
92(5) . . .
102(5) . . .
105(5) . . .
87(5) . . .
92(5) . . .
96(5) . . .
92(5) . . .
94(5) . . .
83(5) . . .
92(6) . . .
88(5) . . .
79(5) . . .
87(5) . . .
103(5) . . .
86(5) . . .
75(5) . . .
82(5) . . .
72(4) . . .
97(5) . . .
86(5) . . .
92(5) . . .
84(5) . . .
77(5) . . .
82(5) . . .
83(5) . . .
97(5) . . .
91(5) . . .
76(5) . . .
82(5) . . .
98(5) . . .
94(5) . . .
82(5) . . .
96(5) . . .
100(5) . . .
92(5) . . .
78(5) . . .
98(5) . . .
96(5) . . .
95(5) . . .
82(5) . . .
78(5) . . .
82(5) . . .
86(5) . . .
96(5) . . .
88(5) . . .
83(5) . . .
96(5) . . .
88(5) . . .
92(5) . . .
80(5) . . .
96(5) . . .
86(5) . . .
97(5) . . .
78(5) . . .
97(5) . . .
87(5) . . .
79(5) . . .
84(5) . . .
93(5) . . .
86(5) . . .
86(5) . . .
85(5) . . .
94(5) . . .
82(5) . . .
86(5) . . .
85(5) . . .
94(5) . . .
89(5) . . .
81(5) . . .
92(5) . . .
87(5) . . .
95(5) . . .
87(5) . . .
88(5) . . .
88(5) . . .
90(5) . . .
76(5) . . .
100(6) . . .
93(5) . . .
81(5) . . .
94(5) . . .
97(5) . . .
92(5) . . .
89(5) . . .
82(5) . . .
87(5) . . .
98(5) . . .
87(5) . . .
88(5) . . .
89(5) . . .
96(5) . . .
74(5) . . .
77(5) . . .
88(5) . . .
90(5) . . .
90(5) . . .
78(5) . . .
79(5) . . .
82(5) . . .
89(5) . . .
101(5) . . .
90(5) . . .
71(5) . . .
93(5) . . .
95(5) . . .
85(5) . . .
81(5) . . .
88(5) . . .
84(5) . . .
83(5) . . .
81(5) . . .
89(5) . . .
95(5) . . .
84(5) . . .
92(5) . . .
91(5) . . .
90(5) . . .
94(5) . . .
76(5) . . .
77(5) . . .
91(5) . . .
88(5) . . .
88(5) . . .
85(5) . . .
88(5) . . .
89(5) . . .
83(5) . . .
88(5) . . .
83(5) . . .
69(4) . . .
96(5) . . .
81(5) . . .
91(5) . . .
100(5) . . .
87(5) . . .
90(5) . . .
86(5) . . .
92(5) . . .
87(5) . . .
81(5) . . .
81(5) . . .
80(5) . . .
77(5) . . .
81(5) . . .
81(5) . . .
85(5) . . .
87(5) . . .
80(5) . . .
80(5) . . .
85(5) . . .
84(5) . . .
76(5) . . .
90(5) . . .
87(5) . . .
88(5) . . .
79(5) . . .
91(5) . . .
86(5) . . .
82(5) . . .
82(5) . . .
84(5) . . .
90(5) . . .
84(5) . . .
98(5) . . .
79(5) . . .
91(5) . . .
85(5) . . .
84(5) . . .
96(5) . . .
96(5) . . .
90(5) . . .
95(5) . . .
84(5) . . .
94(5) . . .
85(5) . . .
85(5) . . .
77(5) . . .
84(5) . . .
90(5) . . .
99(5) . . .
95(5) . . .
81(5) . . .
95(5) . . .
79(5) . . .
77(5) . . .
88(5) . . .
72(5) . . .
92(5) . . .
89(5) . . .
92(5) . . .
95(5) . . .
96(5) . . .
97(5) . . .
80(5) . . .
68(4) . . .
82(5) . . .
90(5) . . .
81(5) . . .
95(5) . . .
103(5) . . .
86(5) . . .
94(5) . . .
92(5) . . .
92(5) . . .
87(5) . . .
90(5) . . .
73(4) . . .
90(5) . . .
89(5) . . .
90(5) . . .
86(5) . . .
81(5) . . .
88(5) . . .
69(4) . . .
95(5) . . .
100(6) . . .
83(5) . . .
62(4) . . .
82(5) . . .
102(5) . . .
92(5) . . .
98(5) . . .
93(5) . . .
91(5) . . .
98(5) . . .
87(5) . . .
83(5) . . .
101(5) . . .
87(5) . . .
76(5) . . .
77(5) . . .
87(5) . . .
92(5) . . .
82(5) . . .
84(5) . . .
83(5) . . .
85(5) . . .
88(5) . . .
71(5) . . .
95(5) . . .
90(5) . . .
90(5) . . .
85(5) . . .
90(5) . . .
92(5) . . .
90(5) . . .
100(5) . . .
89(5) . . .
82(5) . . .
94(5) . . .
85(5) . . .
88(5) . . .
91(5) . . .
95(5) . . .
86(5) . . .
84(5) . . .
88(5) . . .
95(5) . . .
86(5) . . .
82(5) . . .
87(5) . . .
71(4) . . .
83(5) . . .
86(5) . . .
95(5) . . .
92(5) . . .
89(5) . . .
79(5) . . .
77(5) . . .
93(5) . . .
103(5) . . .
92(5) . . .
79(5) . . .
84(5) . . .
94(5) . . .
78(5) . . .
74(4) . . .
77(5) . . .
87(5) . . .
94(5) . . .
80(5) . . .
78(5) . . .
79(5) . . .
82(5) . . .
84(5) . . .
74(5) . . .
79(5) . . .
91(5) . . .
84(5) . . .
91(5) . . .
95(5) . . .
90(5) . . .
85(5) . . .
77(5) . . .
90(5) . . .
94(5) . . .
75(4) . . .
78(5) . . .
79(5) . . .
83(5) . . .
81(5) . . .
92(5) . . .
74(5) . . .
76(5) . . .
96(5) . . .
91(5) . . .
85(5) . . .
93(5) . . .
80(5) . . .
88(5) . . .
94(5) . . .
79(5) . . .
69(4) . . .
86(5) . . .
82(5) . . .
79(5) . . .
74(4) . . .
79(5) . . .
90(5) . . .
74(5) . . .
86(5) . . .
83(5) . . .
92(5) . . .
76(5) . . .
76(5) . . .
85(5) . . .
82(5) . . .
79(5) . . .
80(5) . . .
87(5) . . .
99(5) . . .
80(5) . . .
86(5) . . .
82(5) . . .
87(5) . . .
85(5) . . .
81(5) . . .
81(5) . . .
77(5) . . .
86(5) . . .
90(5) . . .
79(5) . . .
74(5) . . .
88(5) . . .
78(5) . . .
89(5) . . .
89(5) . . .
83(5) . . .
95(5) . . .
91(5) . . .
73(4) . . .
87(5) . . .
82(5) . . .
90(5) . . .
94(5) . . .
81(5) . . .
100(5) . . .
92(5) . . .
100(5) . . .
75(4) . . .
86(5) . . .
95(5) . . .
89(5) . . .
85(5) . . .
85(5) . . .
91(5) . . .
94(5) . . .
74(5) . . .
81(5) . . .
80(5) . . .
87(5) . . .
87(5) . . .
87(5) . . .
71(4) . . .
81(5) . . .
81(5) . . .
85(5) . . .
88(5) . . .
107(6) . . .
74(4) . . .
86(5) . . .
94(5) . . .
80(5) . . .
71(5) . . .
87(5) . . .
78(5) . . .
92(5) . . .
87(5) . . .
79(5) . . .
91(5) . . .
92(5) . . .
86(5) . . .
87(5) . . .
88(5) . . .
88(5) . . .
90(5) . . .
76(5) . . .
83(5) . . .
87(5) . . .
97(5) . . .
88(5) . . .
79(5) . . .
93(5) . . .
88(5) . . .
97(5) . . .
85(5) . . .
79(5) . . .
89(5) . . .
87(5) . . .
90(5) . . .
85(5) . . .
91(5) . . .
92(5) . . .
88(5) . . .
82(5) . . .
83(5) . . .
80(5) . . .
84(5) . . .
86(5) . . .
72(4) . . .
82(5) . . .
100(6) . . .
76(5) . . .
78(5) . . .
86(5) . . .
92(5) . . .
82(5) . . .
87(5) . . .
83(5) . . .
81(5) . . .
85(5) . . .
78(5) . . .
83(5) . . .
92(5) . . .
82(5) . . .
88(5) . . .
86(5) . . .
88(5) . . .
74(4) . . .
76(5) . . .
78(5) . . .
68(4) . . .
89(5) . . .
76(5) . . .
73(4) . . .
85(5) . . .
97(5) . . .
82(5) . . .
90(5) . . .
76(5) . . .
83(5) . . .
92(5) . . .
81(5) . . .
90(5) . . .
90(5) . . .
89(5) . . .
87(5) . . .
82(5) . . .
80(5) . . .
78(5) . . .
76(5) . . .
92(5) . . .
81(5) . . .
95(5) . . .
88(5) . . .
86(5) . . .
86(5) . . .
89(5) . . .
83(5) . . .
79(5) . . .
84(5) . . .
89(5) . . .
99(5) . . .
88(5) . . .
85(5) . . .
83(5) . . .
80(5) . . .
81(5) . . .
77(5) . . .
76(5) . . .
83(5) . . .
94(5) . . .
96(5) . . .
82(5) . . .
93(5) . . .
76(5) . . .
84(5) . . .
81(5) . . .
77(5) . . .
81(5) . . .
84(5) . . .
89(5) . . .
75(4) . . .
69(4) . . .
84(5) . . .
89(5) . . .
88(5) . . .
84(5) . . .
85(5) . . .
86(5) . . .
76(5) . . .
69(4) . . .
88(5) . . .
76(5) . . .
80(5) . . .
75(5) . . .
69(4) . . .
81(5) . . .
83(5) . . .
90(5) . . .
75(5) . . .
89(5) . . .
79(5) . . .
83(5) . . .
76(5) . . .
88(5) . . .
92(5) . . .
82(5) . . .
84(5) . . .
70(4) . . .
89(5) . . .
83(5) . . .
85(5) . . .
86(5) . . .
73(5) . . .
84(5) . . .
84(5) . . .
76(5) . . .
88(5) . . .
92(5) . . .
76(5) . . .
74(5) . . .
79(5) . . .
77(5) . . .
88(5) . . .
83(5) . . .
85(5) . . .
96(5) . . .
91(5) . . .
90(5) . . .
85(5) . . .
89(5) . . .
83(5) . . .
85(5) . . .
77(5) . . .
87(5) . . .
87(5) . . .
89(5) . . .
75(4) . . .
79(5) . . .
90(5) . . .
80(5) . . .
94(5) . . .
83(5) . . .
63(4) . . .
81(5) . . .
87(5) . . .
81(5) . . .
79(5) . . .
86(5) . . .
88(5) . . .
88(5) . . .
84(5) . . .
75(5) . . .
84(5) . . .
86(5) . . .
70(4) . . .
83(5) . . .
83(5) . . .
84(5) . . .
76(5) . . .
84(5) . . .
84(5) . . .
81(5) . . .
85(5) . . .
79(5) . . .
89(5) . . .
86(5) . . .
83(5) . . .
90(5) . . .
79(5) . . .
76(5) . . .
75(5) . . .
92(5) . . .
87(5) . . .
82(5) . . .
81(5) . . .
83(5) . . .
78(5) . . .
84(5) . . .
76(5) . . .
76(5) . . .
86(5) . . .
92(5) . . .
100(5) . . .
77(5) . . .
88(5) . . .
87(5) . . .
66(4) . . .
77(5) . . .
76(5) . . .
86(5) . . .
82(5) . . .
79(5) . . .
77(5) . . .
77(5) . . .
80(5) . . .
85(5) . . .
72(4) . . .
81(5) . . .
80(5) . . .
77(5) . . .
85(5) . . .
78(5) . . .
75(4) . . .
77(5) . . .
79(5) . . .
92(5) . . .
78(5) . . .
80(5) . . .
82(5) . . .
87(5) . . .
78(5) . . .
95(5) . . .
84(5) . . .
73(4) . . .
82(5) . . .
87(5) . . .
85(5) . . .
87(5) . . .
71(4) . . .
88(5) . . .
78(5) . . .
77(5) . . .
75(5) . . .
78(5) . . .
87(5) . . .
94(5) . . .
92(5) . . .
79(5) . . .
78(5) . . .
75(5) . . .
85(5) . . .
89(5) . . .
79(5) . . .
79(5) . . .
66(4) . . .
74(5) . . .
86(5) . . .
85(5) . . .
83(5) . . .
98(5) . . .
94(5) . . .
89(5) . . .
85(5) . . .
71(4) . . .
73(5) . . .
81(5) . . .
80(5) . . .
81(5) . . .
81(5) . . .
79(5) . . .
79(5) . . .
88(5) . . .
72(4) . . .
90(5) . . .
80(5) . . .
74(5) . . .
74(4) . . .
85(5) . . .
83(5) . . .
90(5) . . .
79(5) . . .
84(5) . . .
86(5) . . .
79(5) . . .
88(5) . . .
74(5) . . .
83(5) . . .
71(4) . . .
75(5) . . .
70(5) . . .
68(4) . . .
65(4) . . .
75(5) . . .
84(5) . . .
78(5) . . .
82(5) . . .
86(5) . . .
94(5) . . .
81(5) . . .
82(5) . . .
80(5) . . .
83(5) . . .
82(5) . . .
79(5) . . .
95(5) . . .
80(5) . . .
79(5) . . .
79(5) . . .
74(5) . . .
83(5) . . .
81(5) . . .
88(5) . . .
79(5) . . .
77(5) . . .
74(5) . . .
83(5) . . .
82(5) . . .
78(5) . . .
79(5) . . .
70(4) . . .
80(5) . . .
81(5) . . .
72(4) . . .
79(5) . . .
78(5) . . .
87(5) . . .
84(5) . . .
84(5) . . .
82(5) . . .
83(5) . . .
83(5) . . .
72(4) . . .
71(4) . . .
86(5) . . .
85(5) . . .
84(5) . . .
90(5) . . .
76(5) . . .
71(4) . . .
75(5) . . .
72(4) . . .
83(5) . . .
76(5) . . .
79(5) . . .
81(5) . . .
77(5) . . .
81(5) . . .
79(5) . . .
80(5) . . .
77(5) . . .
80(5) . . .
82(5) . . .
65(4) . . .
79(5) . . .
72(5) . . .
87(5) . . .
90(5) . . .
84(5) . . .
78(5) . . .
73(4) . . .
86(5) . . .
80(5) . . .
84(5) . . .
85(5) . . .
91(5) . . .
76(5) . . .
71(4) . . .
90(5) . . .
80(5) . . .
75(5) . . .
82(5) . . .
80(5) . . .
81(5) . . .
83(5) . . .
85(5) . . .
78(5) . . .
81(5) . . .
79(5) . . .
76(5) . . .
84(5) . . .
79(5) . . .
78(5) . . .
68(5) . . .
70(4) . . .
75(4) . . .
78(5) . . .
76(5) . . .
80(5) . . .
85(5) . . .
83(5) . . .
66(4) . . .
73(5) . . .
70(4) . . .
76(5) . . .
89(5) . . .
79(5) . . .
75(5) . . .
75(5) . . .
80(5) . . .
92(5) . . .
79(5) . . .
71(4) . . .
78(5) . . .
84(5) . . .
83(5) . . .
81(5) . . .
83(5) . . .
82(5) . . .
74(5) . . .
81(5) . . .
70(4) . . .
72(5) . . .
73(5) . . .
81(5) . . .
91(5) . . .
83(5) . . .
87(5) . . .
84(5) . . .
79(5) . . .
85(5) . . .
89(5) . . .
77(5) . . .
85(5) . . .
82(5) . . .
74(4) . . .
74(5) . . .
72(5) . . .
82(5) . . .
85(5) . . .
74(5) . . .
79(5) . . .
88(5) . . .
92(5) . . .
78(5) . . .
85(5) . . .
78(5) . . .
75(5) . . .
90(5) . . .
78(5) . . .
69(4) . . .
81(5) . . .
86(5) . . .
71(4) . . .
79(5) . . .
77(5) . . .
70(4) . . .
88(5) . . .
71(4) . . .
76(5) . . .
72(4) . . .
79(5) . . .
76(5) . . .
85(5) . . .
85(5) . . .
85(5) . . .
69(5) . . .
72(5) . . .
77(5) . . .
85(5) . . .
78(5) . . .
81(5) . . .
90(5) . . .
73(5) . . .
76(5) . . .
81(5) . . .
90(5) . . .
68(4) . . .
95(5) . . .
82(5) . . .
81(5) . . .
73(5) . . .
81(5) . . .
77(5) . . .
87(5) . . .
83(5) . . .
77(5) . . .
82(5) . . .
86(5) . . .
86(5) . . .
75(5) . . .
83(5) . . .
71(5) . . .
61(4) . . .
76(5) . . .
79(5) . . .
85(5) . . .
83(5) . . .
85(5) . . .
73(5) . . .
80(5) . . .
82(5) . . .
86(5) . . .
84(5) . . .
79(5) . . .
77(5) . . .
75(5) . . .
74(5) . . .
74(5) . . .
76(5) . . .
86(5) . . .
77(5) . . .
82(5) . . .
69(4) . . .
70(4) . . .
77(5) . . .
73(5) . . .
74(5) . . .
88(5) . . .
83(5) . . .
87(5) . . .
78(5) . . .
90(5) . . .
87(5) . . .
85(5) . . .
78(5) . . .
83(5) . . .
81(5) . . .
75(4) . . .
81(5) . . .
78(5) . . .
76(5) . . .
83(5) . . .
75(5) . . .
79(5) . . .
82(5) . . .
80(5) . . .
91(5) . . .
77(5) . . .
83(5) . . .
70(5) . . .
76(5) . . .
80(5) . . .
85(5) . . .
90(5) . . .
76(5) . . .
84(5) . . .
85(5) . . .
76(5) . . .
83(5) . . .
82(5) . . .
75(5) . . .
68(4) . . .
71(4) . . .
74(5) . . .
79(5) . . .
79(5) . . .
87(5) . . .
75(4) . . .
77(5) . . .
83(5) . . .
72(4) . . .
80(5) . . .
80(5) . . .
79(5) . . .
73(5) . . .
72(4) . . .
84(5) . . .
83(5) . . .
92(5) . . .
79(5) . . .
68(4) . . .
81(5) . . .
78(5) . . .
80(5) . . .
66(4) . . .
71(4) . . .
76(4) . . .
89(5) . . .
79(5) . . .
78(5) . . .
88(5) . . .
84(5) . . .
70(5) . . .
73(5) . . .
89(5) . . .
61(4) . . .
77(5) . . .
68(4) . . .
72(5) . . .
87(5) . . .
79(5) . . .
71(4) . . .
81(5) . . .
76(5) . . .
75(5) . . .
77(5) . . .
80(5) . . .
70(4) . . .
84(5) . . .
90(5) . . .
86(5) . . .
88(5) . . .
79(5) . . .
77(5) . . .
72(5) . . .
80(5) . . .
74(5) . . .
90(5) . . .
79(5) . . .
73(5) . . .
78(5) . . .
71(5) . . .
87(5) . . .
78(5) . . .
81(5) . . .
91(5) . . .
82(5) . . .
75(5) . . .
75(5) . . .
86(5) . . .
81(5) . . .
86(5) . . .
92(5) . . .
92(5) . . .
85(5) . . .
86(5) . . .
79(5) . . .
77(5) . . .
79(5) . . .
67(4) . . .
86(5) . . .
78(5) . . .
90(5) . . .
83(5) . . .
74(4) . . .
79(5) . . .
81(5) . . .
75(5) . . .
84(5) . . .
93(5) . . .
78(5) . . .
78(5) . . .
76(5) . . .
89(5) . . .
67(4) . . .
68(4) . . .
67(4) . . .
69(5) . . .
77(5) . . .
78(5) . . .
79(5) . . .
93(5) . . .
85(5) . . .
86(5) . . .
86(5) . . .
89(5) . . .
84(5) . . .
78(5) . . .
77(5) . . .
78(5) . . .
78(5) . . .
74(5) . . .
79(5) . . .
80(5) . . .
88(5) . . .
78(5) . . .
87(5) . . .
72(5) . . .
83(5) . . .
80(5) . . .
84(5) . . .
82(5) . . .
77(5) . . .
78(5) . . .
66(4) . . .
71(4) . . .
82(5) . . .
74(5) . . .
82(5) . . .
84(5) . . .
84(5) . . .
88(5) . . .
87(5) . . .
75(5) . . .
75(4) . . .
74(5) . . .
74(5) . . .
76(5) . . .
80(5) . . .
79(5) . . .
84(5) . . .
84(5) . . .
81(5) . . .
73(4) . . .
77(5) . . .
73(5) . . .
78(5) . . .
78(5) . . .
89(5) . . .
74(4) . . .
83(5) . . .
69(4) . . .
67(4) . . .
77(5) . . .
87(5) . . .
82(5) . . .
84(5) . . .
77(5) . . .
87(5) . . .
62(4) . . .
74(5) . . .
71(5) . . .
92(5) . . .
75(4) . . .
75(5) . . .
85(5) . . .
72(5) . . .
55(4) . . .
68(4) . . .
86(5) . . .
76(5) . . .
79(5) . . .
68(4) . . .
85(5) . . .
77(5) . . .
80(5) . . .
88(5) . . .
77(5) . . .
93(5) . . .
77(5) . . .
65(5) . . .
63(4) . . .
61(4) . . .
90(5) . . .
73(5) . . .
57(4) . . .
71(5) . . .
80(5) . . .
75(5) . . .
72(5) . . .
88(5) . . .
75(5) . . .
92(5) . . .
80(5) . . .
73(5) . . .
79(5) . . .
82(5) . . .
82(5) . . .
78(5) . . .
90(5) . . .
64(4) . . .
78(5) . . .
73(4) . . .
78(5) . . .
74(5) . . .
74(5) . . .
80(5) . . .
72(4) . . .
78(5) . . .
77(5) . . .
69(5) . . .
84(5) . . .
77(5) . . .
77(5) . . .
84(5) . . .
82(5) . . .
81(5) . . .
81(5) . . .
76(5) . . .
80(5) . . .
73(5) . . .
66(4) . . .
70(4) . . .
72(5) . . .
83(5) . . .
72(5) . . .
74(4) . . .
74(5) . . .
76(5) . . .
73(5) . . .
72(5) . . .
58(4) . . .
75(4) . . .
70(4) . . .
64(4) . . .
75(5) . . .
72(4) . . .
83(5) . . .
86(5) . . .
82(5) . . .
81(5) . . .
75(4) . . .
74(4) . . .
73(5) . . .
73(5) . . .
74(5) . . .
68(4) . . .
77(5) . . .
80(5) . . .
66(4) . . .
82(5) . . .
79(5) . . .
76(5) . . .
81(5) . . .
73(5) . . .
78(5) . . .
82(5) . . .
72(4) . . .
70(4) . . .
73(5) . . .
81(5) . . .
66(4) . . .
65(4) . . .
81(5) . . .
89(5) . . .
79(5) . . .
72(4) . . .
80(5) . . .
81(5) . . .
75(4) . . .
87(5) . . .
75(5) . . .
89(5) . . .
77(5) . . .
67(4) . . .
70(4) . . .
86(5) . . .
79(5) . . .
74(5) . . .
74(5) . . .
66(4) . . .
71(4) . . .
73(5) . . .
76(5) . . .
77(5) . . .
55(4) . . .
79(5) . . .
82(5) . . .
71(5) . . .
90(5) . . .
87(5) . . .
71(4) . . .
80(5) . . .
79(5) . . .
71(5) . . .
71(4) . . .
78(5) . . .
77(5) . . .
61(4) . . .
85(5) . . .
88(5) . . .
74(5) . . .
76(5) . . .
88(5) . . .
82(5) . . .
83(5) . . .
70(4) . . .
82(5) . . .
71(5) . . .
77(5) . . .
81(5) . . .
76(5) . . .
79(5) . . .
77(5) . . .
73(5) . . .
87(5) . . .
75(5) . . .
71(5) . . .
75(5) . . .
87(5) . . .
80(5) . . .
81(5) . . .
80(5) . . .
78(5) . . .
75(5) . . .
82(5) . . .
84(5) . . .
69(5) . . .
72(5) . . .
78(5) . . .
86(5) . . .
90(5) . . .
72(5) . . .
65(4) . . .
79(5) . . .
72(4) . . .
78(5) . . .
70(5) . . .
65(4) . . .
77(5) . . .
72(4) . . .
74(5) . . .
85(5) . . .
79(5) . . .
72(4) . . .
73(4) . . .
71(5) . . .
82(5) . . .
77(5) . . .
86(5) . . .
77(5) . . .
70(4) . . .
75(5) . . .
72(4) . . .
66(4) . . .
70(4) . . .
87(5) . . .
73(4) . . .
81(5) . . .
81(5) . . .
67(4) . . .
70(5) . . .
74(5) . . .
74(5) . . .
78(5) . . .
74(5) . . .
70(5) . . .
80(5) . . .
82(5) . . .
86(5) . . .
75(5) . . .
72(5) . . .
78(5) . . .
80(5) . . .
91(5) . . .
86(5) . . .
90(5) . . .
75(5) . . .
76(5) . . .
80(5) . . .
78(5) . . .
82(5) . . .
74(5) . . .
79(5) . . .
67(4) . . .
83(5) . . .
69(5) . . .
73(5) . . .
81(5) . . .
78(5) . . .
75(5) . . .
80(5) . . .
69(4) . . .
77(5) . . .
72(4) . . .
72(5) . . .
75(5) . . .
71(4) . . .
75(5) . . .
81(5) . . .
82(5) . . .
82(5) . . .
74(5) . . .
90(5) . . .
80(5) . . .
68(5) . . .
66(4) . . .
75(5) . . .
80(5) . . .
72(5) . . .
77(5) . . .
73(4) . . .
73(5) . . .
70(4) . . .
73(5) . . .
64(4) . . .
79(5) . . .
74(4) . . .
77(5) . . .
79(5) . . .
79(5) . . .
71(4) . . .
87(5) . . .
79(5) . . .
75(5) . . .
77(5) . . .
72(5) . . .
77(5) . . .
80(5) . . .
87(5) . . .
77(5) . . .
64(4) . . .
78(5) . . .
69(4) . . .
81(5) . . .
72(5) . . .
83(5) . . .
69(4) . . .
71(4) . . .
68(4) . . .
85(5) . . .
72(5) . . .
68(4) . . .
71(4) . . .
75(5) . . .
80(5) . . .
86(5) . . .
79(5) . . .
76(5) . . .
81(5) . . .
62(4) . . .
67(5) . . .
72(4) . . .
71(4) . . .
81(5) . . .
62(4) . . .
83(5) . . .
72(4) . . .
77(5) . . .
80(5) . . .
78(5) . . .
74(5) . . .
67(4) . . .
70(5) . . .
74(4) . . .
81(5) . . .
79(5) . . .
80(5) . . .
82(5) . . .
70(5) . . .
83(5) . . .
72(4) . . .
75(5) . . .
67(4) . . .
76(5) . . .
82(5) . . .
75(5) . . .
79(5) . . .
77(4) . . .
90(5) . . .
80(5) . . .
86(5) . . .
81(5) . . .
70(4) . . .
65(5) . . .
78(5) . . .
72(4) . . .
74(5) . . .
74(4) . . .
78(5) . . .
86(5) . . .
87(5) . . .
78(5) . . .
68(5) . . .
63(4) . . .
69(5) . . .
60(4) . . .
78(5) . . .
75(5) . . .
72(5) . . .
76(5) . . .
84(5) . . .
74(5) . . .
86(5) . . .
79(5) . . .
79(5) . . .
66(4) . . .
75(5) . . .
73(5) . . .
71(5) . . .
65(4) . . .
78(5) . . .
64(4) . . .
70(4) . . .
73(5) . . .
76(5) . . .
84(5) . . .
83(5) . . .
76(5) . . .
78(5) . . .
86(5) . . .
67(4) . . .
68(5) . . .
87(5) . . .
80(5) . . .
76(4) . . .
72(4) . . .
76(5) . . .
78(5) . . .
69(5) . . .
79(5) . . .
72(4) . . .
75(5) . . .
71(5) . . .
69(5) . . .
76(5) . . .
74(4) . . .
68(5) . . .
87(5) . . .
83(5) . . .
73(4) . . .
74(4) . . .
69(5) . . .
83(5) . . .
85(5) . . .
80(5) . . .
73(5) . . .
84(5) . . .
75(5) . . .
80(5) . . .
67(4) . . .
81(5) . . .
67(4) . . .
65(4) . . .
83(5) . . .
69(4) . . .
74(5) . . .
82(5) . . .
75(5) . . .
75(5) . . .
77(5) . . .
79(5) . . .
69(5) . . .
70(5) . . .
72(5) . . .
80(5) . . .
68(4) . . .
83(5) . . .
69(4) . . .
68(4) . . .
82(5) . . .
83(5) . . .
73(5) . . .
84(5) . . .
74(5) . . .
82(5) . . .
75(5) . . .
68(5) . . .
67(4) . . .
67(4) . . .
84(5) . . .
76(5) . . .
82(5) . . .
74(5) . . .
61(4) . . .
76(5) . . .
83(5) . . .
73(5) . . .
74(5) . . .
64(4) . . .
72(4) . . .
90(5) . . .
75(5) . . .
76(5) . . .
63(4) . . .
74(5) . . .
74(5) . . .
77(5) . . .
84(5) . . .
72(4) . . .
72(4) . . .
75(5) . . .
70(4) . . .
72(5) . . .
71(4) . . .
64(4) . . .
63(4) . . .
74(5) . . .
72(5) . . .
74(4) . . .
64(4) . . .
73(5) . . .
80(5) . . .
83(5) . . .
62(4) . . .
68(4) . . .
75(5) . . .
80(5) . . .
83(5) . . .
82(5) . . .
66(5) . . .
73(5) . . .
73(4) . . .
78(5) . . .
67(4) . . .
61(4) . . .
69(5) . . .
69(4) . . .
69(4) . . .
75(4) . . .
85(5) . . .
77(5) . . .
68(4) . . .
79(5) . . .
76(5) . . .
77(5) . . .
77(5) . . .
70(4) . . .
69(4) . . .
76(5) . . .
65(4) . . .
71(5) . . .
76(5) . . .
77(5) . . .
69(4) . . .
72(5) . . .
81(5) . . .
67(4) . . .
89(5) . . .
77(5) . . .
67(4) . . .
71(5) . . .
74(5) . . .
70(4) . . .
77(5) . . .
77(5) . . .
65(4) . . .
71(5) . . .
73(4) . . .
85(5) . . .
74(5) . . .
71(5) . . .
83(5) . . .
69(4) . . .
71(4) . . .
89(5) . . .
80(5) . . .
76(5) . . .
80(5) . . .
79(5) . . .
84(5) . . .
72(5) . . .
76(5) . . .
75(4) . . .
73(5) . . .
73(5) . . .
77(5) . . .
81(5) . . .
61(4) . . .
72(5) . . .
83(5) . . .
80(5) . . .
78(5) . . .
79(5) . . .
84(5) . . .
74(5) . . .
88(5) . . .
69(4) . . .
73(4) . . .
67(4) . . .
93(6) . . .
81(5) . . .
74(4) . . .
81(5) . . .
78(5) . . .
77(5) . . .
66(4) . . .
75(4) . . .
67(4) . . .
59(4) . . .
73(5) . . .
79(5) . . .
64(4) . . .
69(4) . . .
69(4) . . .
81(5) . . .
77(5) . . .
77(5) . . .
68(4) . . .
76(5) . . .
78(5) . . .
70(4) . . .
71(4) . . .
69(4) . . .
68(4) . . .
93(5) . . .
87(5) . . .
71(4) . . .
81(5) . . .
82(5) . . .
74(5) . . .
82(5) . . .
72(4) . . .
67(4) . . .
81(5) . . .
84(5) . . .
84(5) . . .
71(4) . . .
78(5) . . .
75(5) . . .
74(5) . . .
63(4) . . .
76(5) . . .
85(5) . . .
77(5) . . .
80(5) . . .
81(5) . . .
71(4) . . .
77(5) . . .
68(5) . . .
78(5) . . .
78(5) . . .
66(4) . . .
64(4) . . .
79(5) . . .
76(5) . . .
79(5) . . .
73(5) . . .
72(5) . . .
62(4) . . .
75(5) . . .
82(5) . . .
73(5) . . .
84(5) . . .
70(5) . . .
64(4) . . .
68(4) . . .
87(5) . . .
84(5) . . .
73(5) . . .
80(5) . . .
70(4) . . .
78(5) . . .
76(5) . . .
72(5) . . .
75(5) . . .
70(4) . . .
78(5) . . .
75(5) . . .
68(4) . . .
72(5) . . .
73(4) . . .
71(4) . . .
68(5) . . .
67(4) . . .
79(5) . . .
79(5) . . .
80(5) . . .
74(5) . . .
67(4) . . .
67(4) . . .
80(5) . . .
81(5) . . .
72(5) . . .
84(5) . . .
69(4) . . .
60(4) . . .
74(5) . . .
79(5) . . .
72(5) . . .
71(4) . . .
72(4) . . .
71(4) . . .
84(5) . . .
76(5) . . .
79(5) . . .
81(5) . . .
76(5) . . .
67(4) . . .
62(4) . . .
71(4) . . .
68(4) . . .
67(4) . . .
70(5) . . .
82(5) . . .
88(5) . . .
69(4) . . .
76(5) . . .
63(4) . . .
73(4) . . .
65(4) . . .
81(5) . . .
77(5) . . .
78(5) . . .
76(5) . . .
67(4) . . .
74(5) . . .
62(4) . . .
80(5) . . .
70(4) . . .
68(4) . . .
79(5) . . .
81(5) . . .
68(5) . . .
75(5) . . .
77(5) . . .
77(5) . . .
70(5) . . .
76(5) . . .
71(4) . . .
80(5) . . .
86(5) . . .
73(5) . . .
81(5) . . .
74(4) . . .
75(4) . . .
76(5) . . .
69(5) . . .
70(4) . . .
75(5) . . .
73(4) . . .
73(5) . . .
68(4) . . .
72(5) . . .
68(4) . . .
67(4) . . .
69(4) . . .
75(5) . . .
75(5) . . .
78(5) . . .
64(4) . . .
75(5) . . .
68(5) . . .
78(5) . . .
75(4) . . .
68(4) . . .
68(5) . . .
58(4) . . .
66(4) . . .
66(4) . . .
62(4) . . .
76(5) . . .
78(5) . . .
78(5) . . .
65(4) . . .
82(5) . . .
79(5) . . .
85(5) . . .
73(5) . . .
67(4) . . .
76(5) . . .
66(4) . . .
69(5) . . .
65(4) . . .
82(5) . . .
70(4) . . .
86(5) . . .
78(5) . . .
77(5) . . .
56(4) . . .
70(5) . . .
69(5) . . .
75(5) . . .
85(5) . . .
72(4) . . .
68(4) . . .
76(5) . . .
77(5) . . .
63(4) . . .
67(4) . . .
84(5) . . .
60(4) . . .
66(4) . . .
67(4) . . .
71(4) . . .
69(5) . . .
68(5) . . .
82(5) . . .
73(4) . . .
67(4) . . .
68(4) . . .
76(5) . . .
65(4) . . .
66(4) . . .
66(4) . . .
89(5) . . .
69(5) . . .
77(5) . . .
66(4) . . .
69(4) . . .
78(5) . . .
78(5) . . .
56(4) . . .
69(4) . . .
69(5) . . .
76(5) . . .
72(5) . . .
72(4) . . .
70(4) . . .
90(5) . . .
70(4) . . .
79(5) . . .
70(5) . . .
69(4) . . .
77(5) . . .
62(4) . . .
71(4) . . .
75(5) . . .
62(4) . . .
67(4) . . .
70(5) . . .
69(4) . . .
68(4) . . .
68(4) . . .
72(5) . . .
62(4) . . .
57(4) . . .
73(5) . . .
70(4) . . .
71(5) . . .
68(5) . . .
61(4) . . .
64(4) . . .
76(5) . . .
70(4) . . .
64(4) . . .
77(5) . . .
67(4) . . .
78(5) . . .
64(4) . . .
76(5) . . .
72(5) . . .
69(4) . . .
66(4) . . .
70(4) . . .
69(5) . . .
72(5) . . .
79(5) . . .
78(5) . . .
81(5) . . .
69(5) . . .
69(4) . . .
75(4) . . .
76(5) . . .
67(4) . . .
72(5) . . .
61(4) . . .
83(5) . . .
78(5) . . .
77(5) . . .
72(5) . . .
66(4) . . .
79(5) . . .
69(4) . . .
73(5) . . .
65(4) . . .
83(5) . . .
83(5) . . .
68(4) . . .
80(5) . . .
73(5) . . .
78(5) . . .
67(4) . . .
63(4) . . .
77(5) . . .
58(4) . . .
61(4) . . .
81(5) . . .
82(5) . . .
84(5) . . .
76(5) . . .
73(4) . . .
65(4) . . .
76(5) . . .
75(5) . . .
74(5) . . .
67(4) . . .
87(5) . . .
79(5) . . .
74(5) . . .
57(4) . . .
64(4) . . .
72(5) . . .
71(4) . . .
67(4) . . .
74(5) . . .
78(5) . . .
69(4) . . .
70(5) . . .
75(5) . . .
60(4) . . .
68(4) . . .
67(4) . . .
69(5) . . .
67(5) . . .
61(4) . . .
54(4) . . .
68(4) . . .
73(5) . . .
73(4) . . .
86(5) . . .
75(5) . . .
82(5) . . .
66(4) . . .
58(4) . . .
72(5) . . .
68(4) . . .
66(4) . . .
66(4) . . .
67(4) . . .
82(5) . . .
89(5) . . .
76(5) . . .
75(5) . . .
74(5) . . .
68(4) . . .
65(4) . . .
70(5) . . .
76(5) . . .
66(4) . . .
72(5) . . .
86(5) . . .
85(5) . . .
81(5) . . .
75(4) . . .
68(4) . . .
77(5) . . .
74(5) . . .
78(5) . . .
68(5) . . .
64(4) . . .
77(5) . . .
75(5) . . .
67(5) . . .
61(4) . . .
70(4) . . .
68(4) . . .
76(5) . . .
80(5) . . .
77(5) . . .
64(4) . . .
77(5) . . .
75(5) . . .
78(5) . . .
76(5) . . .
67(4) . . .
61(4) . . .
75(5) . . .
66(4) . . .
67(4) . . .
74(5) . . .
67(4) . . .
87(5) . . .
76(5) . . .
68(4) . . .
63(4) . . .
70(4) . . .
70(5) . . .
61(4) . . .
74(5) . . .
72(4) . . .
76(5) . . .
80(5) . . .
65(4) . . .
74(5) . . .
65(4) . . .
64(4) . . .
66(4) . . .
67(4) . . .
61(4) . . .
73(4) . . .
67(4) . . .
69(5) . . .
70(5) . . .
74(4) . . .
63(4) . . .
64(4) . . .
65(4) . . .
64(4) . . .
68(4) . . .
76(4) . . .
72(5) . . .
70(5) . . .
76(5) . . .
69(4) . . .
76(5) . . .
78(5) . . .
69(4) . . .
77(5) . . .
80(5) . . .
72(4) . . .
70(5) . . .
64(4) . . .
61(4) . . .
63(4) . . .
63(4) . . .
85(5) . . .
72(5) . . .
69(4) . . .
68(4) . . .
69(4) . . .
74(5) . . .
79(5) . . .
65(4) . . .
74(4) . . .
73(4) . . .
75(5) . . .
62(4) . . .
65(4) . . .
71(4) . . .
74(5) . . .
80(5) . . .
73(4) . . .
70(4) . . .
71(4) . . .
65(4) . . .
66(5) . . .
68(4) . . .
75(4) . . .
68(4) . . .
62(4) . . .
76(5) . . .
77(5) . . .
50(4) . . .
64(4) . . .
64(4) . . .
68(5) . . .
78(5) . . .
64(4) . . .
57(4) . . .
67(4) . . .
62(4) . . .
65(4) . . .
74(4) . . .
78(5) . . .
77(5) . . .
72(5) . . .
80(5) . . .
77(5) . . .
75(5) . . .
66(4) . . .
64(4) . . .
79(5) . . .
64(4) . . .
72(5) . . .
78(5) . . .
72(5) . . .
71(4) . . .
69(4) . . .
83(5) . . .
69(4) . . .
64(4) . . .
75(5) . . .
84(5) . . .
79(5) . . .
73(5) . . .
79(5) . . .
70(4) . . .
65(4) . . .
65(4) . . .
68(4) . . .
74(5) . . .
78(5) . . .
61(4) . . .
71(5) . . .
79(5) . . .
69(4) . . .
81(5) . . .
69(4) . . .
76(5) . . .
66(4) . . .
75(5) . . .
72(4) . . .
60(4) . . .
64(4) . . .
72(5) . . .
79(5) . . .
65(4) . . .
78(5) . . .
77(5) . . .
79(5) . . .
75(5) . . .
69(4) . . .
76(5) . . .
86(5) . . .
75(5) . . .
68(4) . . .
76(5) . . .
72(5) . . .
66(5) . . .
69(5) . . .
78(5) . . .
67(4) . . .
71(4) . . .
69(4) . . .
68(4) . . .
69(4) . . .
61(4) . . .
78(5) . . .
69(4) . . .
75(5) . . .
80(5) . . .
72(4) . . .
80(5) . . .
67(4) . . .
75(5) . . .
72(4) . . .
79(5) . . .
65(4) . . .
81(5) . . .
64(4) . . .
71(5) . . .
65(4) . . .
77(5) . . .
57(4) . . .
68(5) . . .
65(4) . . .
75(5) . . .
63(4) . . .
58(4) . . .
68(4) . . .
70(4) . . .
69(4) . . .
73(5) . . .
68(5) . . .
71(4) . . .
73(4) . . .
72(4) . . .
71(5) . . .
81(5) . . .
75(5) . . .
66(4) . . .
71(4) . . .
65(4) . . .
65(4) . . .
68(4) . . .
73(4) . . .
73(5) . . .
72(5) . . .
59(4) . . .
75(5) . . .
61(4) . . .
71(4) . . .
68(4) . . .
67(4) . . .
72(5) . . .
70(4) . . .
64(4) . . .
85(5) . . .
66(4) . . .
71(5) . . .
64(4) . . .
71(5) . . .
61(4) . . .
71(5) . . .
74(5) . . .
67(4) . . .
64(4) . . .
74(5) . . .
61(4) . . .
72(4) . . .
71(4) . . .
63(4) . . .
75(5) . . .
74(5) . . .
68(4) . . .
67(4) . . .
75(5) . . .
57(4) . . .
65(4) . . .
73(5) . . .
67(4) . . .
70(4) . . .
62(4) . . .
65(4) . . .
68(4) . . .
69(4) . . .
77(5) . . .
67(4) . . .
75(5) . . .
56(4) . . .
74(5) . . .
82(5) . . .
66(4) . . .
61(4) . . .
71(4) . . .
72(5) . . .
77(5) . . .
69(4) . . .
62(4) . . .
63(4) . . .
68(5) . . .
63(4) . . .
70(4) . . .
81(5) . . .
73(4) . . .
66(4) . . .
58(4) . . .
69(5) . . .
68(5) . . .
72(4) . . .
58(4) . . .
67(5) . . .
72(5) . . .
58(4) . . .
62(4) . . .
69(4) . . .
69(5) . . .
55(4) . . .
68(5) . . .
78(5) . . .
80(5) . . .
68(4) . . .
74(5) . . .
77(5) . . .
69(4) . . .
71(5) . . .
81(5) . . .
70(4) . . .
63(4) . . .
66(4) . . .
73(5) . . .
75(5) . . .
79(5) . . .
61(4) . . .
80(5) . . .
55(4) . . .
64(5) . . .
72(5) . . .
66(4) . . .
77(5) . . .
65(4) . . .
56(4) . . .
70(5) . . .
59(4) . . .
63(4) . . .
61(4) . . .
74(5) . . .
72(4) . . .
71(4) . . .
79(5) . . .
74(5) . . .
79(5) . . .
82(5) . . .
76(5) . . .
63(4) . . .
68(4) . . .
70(5) . . .
71(5) . . .
63(4) . . .
73(5) . . .
68(5) . . .
77(5) . . .
66(4) . . .
78(5) . . .
74(5) . . .
60(4) . . .
65(4) . . .
71(4) . . .
68(4) . . .
61(4) . . .
64(4) . . .
65(4) . . .
65(4) . . .
73(4) . . .
62(4) . . .
64(4) . . .
76(5) . . .
68(4) . . .
80(5) . . .
71(5) . . .
73(5) . . .
65(4) . . .
72(4) . . .
62(4) . . .
64(4) . . .
69(5) . . .
62(4) . . .
63(4) . . .
78(5) . . .
54(4) . . .
66(5) . . .
71(5) . . .
61(4) . . .
71(4) . . .
73(5) . . .
72(5) . . .
77(5) . . .
72(4) . . .
74(4) . . .
68(4) . . .
61(4) . . .
67(4) . . .
78(5) . . .
67(5) . . .
64(4) . . .
60(4) . . .
72(5) . . .
72(4) . . .
68(4) . . .
71(4) . . .
71(5) . . .
58(4) . . .
66(4) . . .
71(4) . . .
61(4) . . .
59(4) . . .
73(5) . . .
74(4) . . .
67(4) . . .
51(4) . . .
63(4) . . .
68(4) . . .
68(4) . . .
75(5) . . .
82(5) . . .
69(5) . . .
78(5) . . .
75(5) . . .
73(5) . . .
64(4) . . .
63(4) . . .
61(4) . . .
70(4) . . .
74(5) . . .
62(4) . . .
58(4) . . .
60(4) . . .
69(4) . . .
61(4) . . .
71(5) . . .
65(4) . . .
67(4) . . .
64(4) . . .
69(4) . . .
66(4) . . .
68(5) . . .
56(4) . . .
58(4) . . .
69(5) . . .
69(5) . . .
75(5) . . .
81(5) . . .
75(5) . . .
73(5) . . .
70(4) . . .
57(4) . . .
74(5) . . .
66(4) . . .
56(4) . . .
70(5) . . .
65(4) . . .
69(4) . . .
64(4) . . .
68(5) . . .
59(4) . . .
66(4) . . .
79(5) . . .
75(5) . . .
73(5) . . .
75(5) . . .
84(5) . . .
58(4) . . .
61(4) . . .
60(4) . . .
59(4) . . .
65(4) . . .
69(4) . . .
62(4) . . .
63(5) . . .
68(5) . . .
63(4) . . .
65(4) . . .
73(5) . . .
55(4) . . .
54(4) . . .
54(4) . . .
65(4) . . .
61(4) . . .
71(5) . . .
67(5) . . .
65(4) . . .
61(4) . . .
64(4) . . .
58(4) . . .
69(4) . . .
67(4) . . .
66(4) . . .
56(4) . . .
69(5) . . .
75(5) . . .
63(4) . . .
66(4) . . .
66(4) . . .
60(4) . . .
64(4) . . .
75(4) . . .
72(5) . . .
73(5) . . .
73(5) . . .
70(5) . . .
71(4) . . .
61(4) . . .
63(4) . . .
55(4) . . .
61(4) . . .
71(4) . . .
74(5) . . .
69(5) . . .
62(4) . . .
74(5) . . .
75(4) . . .
76(5) . . .
71(5) . . .
60(4) . . .
61(4) . . .
69(4) . . .
73(5) . . .
73(5) . . .
74(5) . . .
56(4) . . .
71(4) . . .
74(5) . . .
62(4) . . .
64(4) . . .
65(4) . . .
58(4) . . .
74(5) . . .
66(4) . . .
66(4) . . .
71(4) . . .
84(5) . . .
66(4) . . .
67(5) . . .
69(4) . . .
70(4) . . .
60(4) . . .
79(5) . . .
65(4) . . .
63(4) . . .
62(4) . . .
61(4) . . .
77(5) . . .
63(4) . . .
87(5) . . .
80(5) . . .
72(4) . . .
65(4) . . .
63(4) . . .
75(5) . . .
64(4) . . .
60(4) . . .
65(4) . . .
69(5) . . .
68(4) . . .
63(4) . . .
79(5) . . .
72(5) . . .
65(5) . . .
68(4) . . .
65(4) . . .
72(5) . . .
60(4) . . .
66(4) . . .
65(4) . . .
67(4) . . .
55(4) . . .
69(5) . . .
61(4) . . .
79(5) . . .
73(4) . . .
73(5) . . .
69(5) . . .
72(5) . . .
70(4) . . .
69(4) . . .
64(4) . . .
69(5) . . .
69(5) . . .
68(4) . . .
60(4) . . .
63(5) . . .
60(4) . . .
69(5) . . .
63(4) . . .
69(4) . . .
59(4) . . .
57(4) . . .
51(4) . . .
68(4) . . .
75(5) . . .
73(5) . . .
75(5) . . .
72(4) . . .
66(4) . . .
71(5) . . .
67(5) . . .
68(4) . . .
68(5) . . .
77(5) . . .
75(5) . . .
57(4) . . .
67(4) . . .
66(4) . . .
69(4) . . .
67(4) . . .
68(4) . . .
63(4) . . .
65(4) . . .
66(4) . . .
67(4) . . .
76(5) . . .
69(5) . . .
65(4) . . .
73(4) . . .
51(4) . . .
77(5) . . .
64(4) . . .
66(4) . . .
58(4) . . .
63(4) . . .
72(5) . . .
59(4) . . .
60(4) . . .
64(4) . . .
72(4) . . .
68(5) . . .
67(5) . . .
67(4) . . .
74(5) . . .
72(4) . . .
59(4) . . .
63(4) . . .
60(4) . . .
65(4) . . .
65(4) . . .
69(5) . . .
61(4) . . .
67(4) . . .
63(4) . . .
70(4) . . .
72(5) . . .
59(4) . . .
66(4) . . .
64(4) . . .
70(4) . . .
62(4) . . .
61(4) . . .
67(4) . . .
58(4) . . .
62(4) . . .
71(5) . . .
62(4) . . .
73(4) . . .
53(4) . . .
63(4) . . .
71(5) . . .
71(5) . . .
80(5) . . .
57(4) . . .
84(5) . . .
66(4) . . .
69(4) . . .
57(4) . . .
63(4) . . .
76(5) . . .
68(5) . . .
60(4) . . .
58(4) . . .
65(4) . . .
63(4) . . .
64(4) . . .
62(4) . . .
59(4) . . .
69(5) . . .
68(5) . . .
73(5) . . .
74(4) . . .
77(5) . . .
73(5) . . .
70(5) . . .
69(4) . . .
69(4) . . .
58(4) . . .
73(5) . . .
71(5) . . .
64(4) . . .
65(4) . . .
67(4) . . .
74(5) . . .
67(4) . . .
81(5) . . .
66(4) . . .
57(4) . . .
58(4) . . .
75(5) . . .
68(4) . . .
67(4) . . .
53(4) . . .
67(4) . . .
78(5) . . .
63(4) . . .
61(4) . . .
71(4) . . .
66(5) . . .
65(4) . . .
75(5) . . .
74(4) . . .
73(5) . . .
75(5) . . .
66(4) . . .
61(4) . . .
73(4) . . .
68(4) . . .
62(4) . . .
64(4) . . .
65(4) . . .
62(4) . . .
61(4) . . .
79(5) . . .
69(4) . . .
80(5) . . .
75(4) . . .
57(4) . . .
67(5) . . .
61(4) . . .
70(4) . . .
66(4) . . .
66(4) . . .
71(5) . . .
70(5) . . .
68(4) . . .
67(4) . . .
70(5) . . .
65(4) . . .
66(4) . . .
72(4) . . .
62(4) . . .
60(4) . . .
67(5) . . .
51(4) . . .
62(4) . . .
56(4) . . .
60(4) . . .
64(4) . . .
74(5) . . .
67(4) . . .
61(4) . . .
78(5) . . .
70(5) . . .
62(4) . . .
76(5) . . .
70(4) . . .
65(4) . . .
69(5) . . .
55(4) . . .
69(4) . . .
73(5) . . .
71(5) . . .
64(4) . . .
71(4) . . .
69(4) . . .
64(4) . . .
73(5) . . .
71(5) . . .
71(4) . . .
67(4) . . .
64(4) . . .
59(4) . . .
63(4) . . .
74(4) . . .
60(4) . . .
66(4) . . .
58(4) . . .
66(4) . . .
72(4) . . .
70(4) . . .
66(4) . . .
73(5) . . .
62(4) . . .
65(4) . . .
63(4) . . .
70(5) . . .
77(5) . . .
69(4) . . .
64(4) . . .
58(4) . . .
57(4) . . .
62(4) . . .
67(4) . . .
60(4) . . .
69(4) . . .
71(5) . . .
53(4) . . .
63(4) . . .
67(4) . . .
75(5) . . .
66(4) . . .
62(4) . . .
67(5) . . .
54(4) . . .
66(4) . . .
61(4) . . .
60(4) . . .
65(4) . . .
64(4) . . .
66(4) . . .
61(4) . . .
70(5) . . .
72(4) . . .
64(4) . . .
76(5) . . .
79(5) . . .
77(5) . . .
60(4) . . .
69(4) . . .
77(5) . . .
73(5) . . .
74(5) . . .
60(4) . . .
62(4) . . .
73(5) . . .
80(5) . . .
66(4) . . .
71(4) . . .
70(4) . . .
69(5) . . .
56(4) . . .
61(4) . . .
61(4) . . .
64(4) . . .
68(4) . . .
71(5) . . .
71(5) . . .
72(4) . . .
74(5) . . .
66(4) . . .
63(4) . . .
61(4) . . .
65(4) . . .
71(4) . . .
74(5) . . .
66(4) . . .
64(4) . . .
66(4) . . .
70(4) . . .
80(5) . . .
72(5) . . .
66(4) . . .
57(4) . . .
58(4) . . .
67(4) . . .
60(4) . . .
66(4) . . .
68(4) . . .
73(5) . . .
65(4) . . .
69(4) . . .
63(4) . . .
66(4) . . .
71(5) . . .
57(4) . . .
68(4) . . .
58(4) . . .
67(4) . . .
81(5) . . .
64(4) . . .
62(4) . . .
61(4) . . .
59(4) . . .
52(4) . . .
61(4) . . .
55(4) . . .
63(4) . . .
60(4) . . .
56(4) . . .
63(4) . . .
64(4) . . .
65(4) . . .
69(4) . . .
69(5) . . .
65(4) . . .
70(4) . . .
75(4) . . .
62(4) . . .
65(4) . . .
68(4) . . .
67(4) . . .
76(5) . . .
71(4) . . .
63(4) . . .
61(4) . . .
63(5) . . .
61(4) . . .
59(4) . . .
67(4) . . .
59(4) . . .
55(4) . . .
62(4) . . .
64(4) . . .
53(4) . . .
60(4) . . .
64(4) . . .
64(4) . . .
65(4) . . .
61(4) . . .
65(4) . . .
73(4) . . .
71(4) . . .
68(4) . . .
71(5) . . .
64(4) . . .
73(5) . . .
60(4) . . .
61(4) . . .
64(4) . . .
67(4) . . .
67(4) . . .
71(4) . . .
65(4) . . .
61(4) . . .
60(4) . . .
66(4) . . .
71(4) . . .
66(4) . . .
63(5) . . .
63(4) . . .
63(4) . . .
61(4) . . .
62(4) . . .
63(4) . . .
63(4) . . .
66(4) . . .
63(4) . . .
60(4) . . .
63(4) . . .
67(4) . . .
64(4) . . .
59(4) . . .
65(4) . . .
72(5) . . .
70(4) . . .
64(4) . . .
66(4) . . .
70(5) . . .
69(5) . . .
62(4) . . .
68(4) . . .
57(4) . . .
58(4) . . .
58(4) . . .
70(4) . . .
52(4) . . .
60(4) . . .
64(5) . . .
60(4) . . .
74(5) . . .
58(4) . . .
64(4) . . .
61(4) . . .
61(4) . . .
59(4) . . .
66(4) . . .
69(4) . . .
65(4) . . .
63(4) . . .
72(4) . . .
77(5) . . .
61(4) . . .
47(4) . . .
71(4) . . .
65(4) . . .
58(4) . . .
55(4) . . .
62(5) . . .
59(4) . . .
74(5) . . .
55(4) . . .
53(4) . . .
71(5) . . .
55(4) . . .
65(4) . . .
72(4) . . .
65(4) . . .
77(5) . . .
74(5) . . .
68(4) . . .
80(5) . . .
71(4) . . .
64(4) . . .
72(5) . . .
65(4) . . .
66(4) . . .
55(4) . . .
75(5) . . .
69(4) . . .
68(4) . . .
59(4) . . .
69(5) . . .
68(5) . . .
54(4) . . .
66(4) . . .
65(4) . . .
58(4) . . .
70(5) . . .
75(5) . . .
63(4) . . .
55(4) . . .
67(4) . . .
61(4) . . .
69(4) . . .
66(4) . . .
60(4) . . .
65(5) . . .
68(5) . . .
61(4) . . .
64(4) . . .
66(4) . . .
71(5) . . .
70(4) . . .
68(4) . . .
68(4) . . .
67(4) . . .
64(5) . . .
65(4) . . .
57(4) . . .
59(4) . . .
60(4) . . .
60(4) . . .
73(5) . . .
76(5) . . .
64(4) . . .
72(5) . . .
52(4) . . .
69(5) . . .
56(4) . . .
63(4) . . .
56(4) . . .
74(5) . . .
67(5) . . .
67(4) . . .
64(4) . . .
65(4) . . .
70(4) . . .
68(4) . . .
68(4) . . .
63(4) . . .
61(4) . . .
72(5) . . .
56(4) . . .
72(4) . . .
68(5) . . .
59(4) . . .
61(4) . . .
72(5) . . .
63(4) . . .
62(4) . . .
63(4) . . .
63(4) . . .
61(4) . . .
65(4) . . .
64(4) . . .
69(4) . . .
74(5) . . .
80(5) . . .
64(4) . . .
55(4) . . .
63(5) . . .
69(5) . . .
59(4) . . .
60(4) . . .
70(4) . . .
59(4) . . .
64(4) . . .
58(4) . . .
64(4) . . .
67(4) . . .
71(5) . . .
64(4) . . .
55(4) . . .
65(4) . . .
66(4) . . .
61(4) . . .
68(5) . . .
70(4) . . .
68(5) . . .
69(4) . . .
56(4) . . .
58(4) . . .
57(4) . . .
69(4) . . .
68(4) . . .
70(4) . . .
69(4) . . .
58(4) . . .
76(5) . . .
74(5) . . .
74(5) . . .
56(4) . . .
58(4) . . .
55(4) . . .
61(4) . . .
69(5) . . .
62(4) . . .
66(4) . . .
61(4) . . .
68(4) . . .
73(4) . . .
71(4) . . .
64(4) . . .
68(5) . . .
50(4) . . .
61(4) . . .
70(4) . . .
63(4) . . .
64(5) . . .
62(4) . . .
68(4) . . .
64(4) . . .
63(4) . . .
76(5) . . .
72(5) . . .
67(4) . . .
65(4) . . .
69(4) . . .
60(4) . . .
61(4) . . .
56(4) . . .
54(4) . . .
58(4) . . .
62(4) . . .
64(5) . . .
70(5) . . .
61(4) . . .
67(4) . . .
61(4) . . .
64(4) . . .
67(4) . . .
74(5) . . .
64(4) . . .
68(4) . . .
66(4) . . .
66(4) . . .
77(5) . . .
68(4) . . .
70(4) . . .
69(4) . . .
66(4) . . .
56(4) . . .
56(4) . . .
61(4) . . .
56(4) . . .
77(5) . . .
62(4) . . .
66(4) . . .
67(5) . . .
71(5) . . .
74(5) . . .
64(4) . . .
65(4) . . .
72(5) . . .
66(4) . . .
63(4) . . .
60(4) . . .
69(5) . . .
69(5) . . .
71(4) . . .
65(4) . . .
57(4) . . .
57(4) . . .
60(4) . . .
59(4) . . .
65(4) . . .
66(4) . . .
65(4) . . .
65(4) . . .
73(4) . . .
62(4) . . .
73(5) . . .
65(4) . . .
60(4) . . .
54(4) . . .
61(4) . . .
51(4) . . .
72(5) . . .
66(5) . . .
65(4) . . .
60(4) . . .
55(4) . . .
65(4) . . .
62(4) . . .
64(5) . . .
65(4) . . .
49(4) . . .
56(4) . . .
53(4) . . .
48(4) . . .
63(4) . . .
73(5) . . .
63(4) . . .
73(5) . . .
46(4) . . .
66(4) . . .
52(4) . . .
66(4) . . .
60(4) . . .
61(4) . . .
63(4) . . .
63(4) . . .
61(4) . . .
55(4) . . .
53(4) . . .
58(4) . . .
60(4) . . .
73(5) . . .
66(5) . . .
63(4) . . .
70(4) . . .
68(5) . . .
68(5) . . .
61(4) . . .
63(4) . . .
60(4) . . .
70(4) . . .
67(4) . . .
71(4) . . .
72(4) . . .
60(4) . . .
71(5) . . .
58(5) . . .
64(4) . . .
65(4) . . .
61(4) . . .
58(4) . . .
61(4) . . .
72(5) . . .
63(4) . . .
64(4) . . .
66(4) . . .
63(4) . . .
53(4) . . .
59(4) . . .
65(4) . . .
66(4) . . .
51(4) . . .
51(4) . . .
64(4) . . .
64(4) . . .
61(4) . . .
56(4) . . .
73(5) . . .
64(4) . . .
57(4) . . .
56(4) . . .
63(4) . . .
69(4) . . .
65(4) . . .
68(4) . . .
76(5) . . .
67(4) . . .
63(4) . . .
62(4) . . .
74(5) . . .
56(4) . . .
60(4) . . .
61(4) . . .
66(4) . . .
64(4) . . .
65(4) . . .
59(4) . . .
62(4) . . .
67(4) . . .
56(4) . . .
62(5) . . .
60(4) . . .
57(4) . . .
71(4) . . .
66(4) . . .
63(4) . . .
59(4) . . .
60(4) . . .
64(4) . . .
55(4) . . .
66(5) . . .
68(4) . . .
59(4) . . .
57(4) . . .
70(5) . . .
59(4) . . .
68(5) . . .
72(4) . . .
59(4) . . .
56(4) . . .
63(4) . . .
61(4) . . .
61(4) . . .
66(4) . . .
54(4) . . .
59(4) . . .
50(4) . . .
67(4) . . .
57(4) . . .
59(4) . . .
63(4) . . .
62(4) . . .
63(4) . . .
65(4) . . .
60(4) . . .
59(4) . . .
60(4) . . .
62(4) . . .
71(5) . . .
52(4) . . .
67(4) . . .
63(4) . . .
68(4) . . .
65(4) . . .
60(4) . . .
61(4) . . .
55(4) . . .
60(4) . . .
58(4) . . .
66(4) . . .
71(5) . . .
68(4) . . .
55(4) . . .
60(4) . . .
71(5) . . .
71(4) . . .
64(4) . . .
56(4) . . .
67(4) . . .
57(4) . . .
56(4) . . .
65(4) . . .
63(4) . . .
69(5) . . .
57(4) . . .
63(4) . . .
61(4) . . .
68(4) . . .
57(4) . . .
62(4) . . .
73(4) . . .
66(4) . . .
57(4) . . .
49(4) . . .
72(5) . . .
56(4) . . .
58(4) . . .
70(5) . . .
62(4) . . .
68(4) . . .
71(4) . . .
71(4) . . .
61(4) . . .
64(5) . . .
75(5) . . .
69(4) . . .
58(4) . . .
62(4) . . .
62(4) . . .
58(4) . . .
69(4) . . .
55(4) . . .
59(4) . . .
63(4) . . .
71(5) . . .
73(5) . . .
67(4) . . .
69(5) . . .
58(4) . . .
51(4) . . .
64(4) . . .
64(4) . . .
72(5) . . .
63(4) . . .
57(4) . . .
65(4) . . .
59(4) . . .
64(4) . . .
63(4) . . .
69(4) . . .
69(4) . . .
59(4) . . .
56(4) . . .
54(4) . . .
58(4) . . .
66(4) . . .
62(4) . . .
64(4) . . .
74(5) . . .
69(4) . . .
66(4) . . .
65(4) . . .
67(4) . . .
59(4) . . .
69(5) . . .
74(5) . . .
55(4) . . .
61(4) . . .
65(4) . . .
59(4) . . .
67(4) . . .
63(4) . . .
68(4) . . .
70(5) . . .
62(4) . . .
68(4) . . .
57(4) . . .
54(4) . . .
64(4) . . .
54(4) . . .
56(4) . . .
66(4) . . .
57(4) . . .
54(4) . . .
73(4) . . .
60(4) . . .
57(4) . . .
57(4) . . .
64(4) . . .
68(4) . . .
63(4) . . .
61(4) . . .
69(5) . . .
54(4) . . .
69(4) . . .
76(5) . . .
65(4) . . .
54(4) . . .
63(4) . . .
66(4) . . .
69(4) . . .
59(4) . . .
63(4) . . .
52(4) . . .
58(4) . . .
49(4) . . .
57(4) . . .
70(5) . . .
69(4) . . .
69(4) . . .
71(5) . . .
59(4) . . .
69(5) . . .
74(5) . . .
68(4) . . .
58(4) . . .
74(5) . . .
74(5) . . .
76(5) . . .
79(5) . . .
48(4) . . .
65(4) . . .
68(4) . . .
59(4) . . .
56(4) . . .
51(4) . . .
51(4) . . .
59(4) . . .
64(4) . . .
68(4) . . .
78(5) . . .
64(4) . . .
63(4) . . .
60(4) . . .
56(4) . . .
65(4) . . .
60(4) . . .
67(5) . . .
51(4) . . .
66(4) . . .
67(4) . . .
61(4) . . .
65(4) . . .
62(4) . . .
76(4) . . .
84(5) . . .
69(5) . . .
69(5) . . .
66(4) . . .
60(4) . . .
70(5) . . .
49(4) . . .
69(4) . . .
67(4) . . .
60(4) . . .
59(4) . . .
52(4) . . .
70(5) . . .
62(4) . . .
60(4) . . .
75(5) . . .
69(5) . . .
62(4) . . .
57(4) . . .
69(4) . . .
63(4) . . .
57(4) . . .
60(4) . . .
59(4) . . .
54(4) . . .
66(4) . . .
64(4) . . .
60(4) . . .
55(4) . . .
68(5) . . .
59(4) . . .
58(4) . . .
64(4) . . .
66(4) . . .
67(4) . . .
66(5) . . .
65(4) . . .
60(4) . . .
66(4) . . .
59(4) . . .
56(4) . . .
47(4) . . .
59(4) . . .
59(4) . . .
61(4) . . .
67(4) . . .
71(5) . . .
57(4) . . .
67(4) . . .
71(5) . . .
57(4) . . .
73(5) . . .
65(4) . . .
71(4) . . .
61(4) . . .
56(4) . . .
60(4) . . .
71(4) . . .
67(4) . . .
72(5) . . .
70(5) . . .
64(4) . . .
65(4) . . .
64(4) . . .
74(5) . . .
83(5) . . .
67(4) . . .
63(4) . . .
72(4) . . .
69(4) . . .
62(4) . . .
51(4) . . .
66(4) . . .
67(4) . . .
62(4) . . .
55(4) . . .
57(4) . . .
59(4) . . .
66(4) . . .
57(4) . . .
60(4) . . .
53(4) . . .
57(4) . . .
62(4) . . .
63(4) . . .
68(5) . . .
55(4) . . .
66(4) . . .
57(4) . . .
60(4) . . .
70(5) . . .
66(4) . . .
59(4) . . .
60(4) . . .
62(4) . . .
53(4) . . .
57(4) . . .
64(4) . . .
56(4) . . .
62(4) . . .
60(4) . . .
66(4) . . .
65(4) . . .
59(4) . . .
64(4) . . .
67(5) . . .
64(4) . . .
73(4) . . .
55(4) . . .
48(4) . . .
65(5) . . .
52(4) . . .
60(4) . . .
61(4) . . .
61(4) . . .
59(4) . . .
69(4) . . .
59(4) . . .
53(4) . . .
62(4) . . .
68(4) . . .
60(4) . . .
59(4) . . .
51(4) . . .
62(4) . . .
75(5) . . .
57(4) . . .
48(4) . . .
69(5) . . .
55(4) . . .
62(4) . . .
66(4) . . .
57(4) . . .
59(4) . . .
60(4) . . .
55(4) . . .
66(4) . . .
57(4) . . .
62(5) . . .
59(4) . . .
55(4) . . .
63(4) . . .
61(4) . . .
56(4) . . .
56(4) . . .
64(4) . . .
56(4) . . .
59(4) . . .
65(4) . . .
67(4) . . .
54(4) . . .
66(4) . . .
56(4) . . .
53(4) . . .
52(4) . . .
65(4) . . .
71(4) . . .
61(4) . . .
66(4) . . .
63(4) . . .
63(4) . . .
65(4) . . .
65(4) . . .
61(4) . . .
60(4) . . .
55(4) . . .
62(4) . . .
61(4) . . .
57(4) . . .
56(4) . . .
61(4) . . .
56(4) . . .
56(4) . . .
51(4) . . .
58(4) . . .
62(4) . . .
66(5) . . .
61(4) . . .
59(4) . . .
66(4) . . .
64(4) . . .
56(4) . . .
59(4) . . .
64(4) . . .
62(4) . . .
58(4) . . .
57(4) . . .
70(4) . . .
62(4) . . .
56(4) . . .
63(4) . . .
60(4) . . .
61(4) . . .
64(4) . . .
54(4) . . .
61(4) . . .
59(4) . . .
65(5) . . .
60(4) . . .
55(4) . . .
58(4) . . .
62(4) . . .
62(5) . . .
56(4) . . .
50(4) . . .
64(4) . . .
60(4) . . .
61(4) . . .
56(4) . . .
51(4) . . .
66(4) . . .
59(4) . . .
57(4) . . .
52(4) . . .
65(4) . . .
58(4) . . .
76(5) . . .
60(4) . . .
62(4) . . .
72(4) . . .
64(4) . . .
63(4) . . .
59(4) . . .
64(4) . . .
58(4) . . .
54(4) . . .
55(4) . . .
62(4) . . .
61(4) . . .
51(4) . . .
53(4) . . .
59(4) . . .
56(4) . . .
63(4) . . .
60(4) . . .
72(5) . . .
57(4) . . .
63(4) . . .
62(4) . . .
67(4) . . .
69(5) . . .
66(5) . . .
66(4) . . .
61(4) . . .
66(4) . . .
68(4) . . .
60(4) . . .
60(4) . . .
57(4) . . .
54(4) . . .
55(4) . . .
62(4) . . .
61(4) . . .
69(4) . . .
66(4) . . .
64(4) . . .
58(4) . . .
56(4) . . .
52(4) . . .
59(4) . . .
56(4) . . .
50(4) . . .
59(4) . . .
45(4) . . .
62(4) . . .
60(4) . . .
56(4) . . .
62(4) . . .
55(4) . . .
48(4) . . .
62(4) . . .
64(5) . . .
61(4) . . .
62(4) . . .
63(4) . . .
60(4) . . .
83(5) . . .
50(4) . . .
66(4) . . .
61(4) . . .
56(4) . . .
69(5) . . .
45(4) . . .
51(4) . . .
69(4) . . .
63(4) . . .
54(4) . . .
59(4) . . .
60(4) . . .
63(4) . . .
54(4) . . .
56(4) . . .
49(4) . . .
63(4) . . .
61(4) . . .
55(4) . . .
60(4) . . .
65(4) . . .
57(4) . . .
62(4) . . .
58(4) . . .
60(4) . . .
65(4) . . .
62(4) . . .
70(5) . . .
58(4) . . .
70(5) . . .
75(5) . . .
64(4) . . .
61(4) . . .
71(5) . . .
73(5) . . .
69(4) . . .
59(4) . . .
64(4) . . .
66(4) . . .
60(4) . . .
61(4) . . .
68(4) . . .
66(4) . . .
67(5) . . .
72(5) . . .
59(4) . . .
55(4) . . .
58(4) . . .
60(4) . . .
66(4) . . .
52(4) . . .
56(4) . . .
58(4) . . .
58(4) . . .
54(4) . . .
63(4) . . .
64(4) . . .
61(4) . . .
65(4) . . .
53(4) . . .
65(4) . . .
56(4) . . .
62(4) . . .
54(4) . . .
65(4) . . .
58(4) . . .
54(4) . . .
68(5) . . .
64(4) . . .
59(4) . . .
61(4) . . .
59(4) . . .
69(5) . . .
59(4) . . .
77(5) . . .
54(4) . . .
56(4) . . .
52(4) . . .
53(4) . . .
62(4) . . .
62(4) . . .
62(4) . . .
66(5) . . .
52(4) . . .
61(4) . . .
61(4) . . .
54(4) . . .
64(5) . . .
76(5) . . .
71(4) . . .
53(4) . . .
63(4) . . .
63(4) . . .
52(4) . . .
59(4) . . .
62(4) . . .
59(4) . . .
64(4) . . .
64(4) . . .
75(4) . . .
70(4) . . .
59(4) . . .
60(4) . . .
64(4) . . .
49(4) . . .
61(4) . . .
60(4) . . .
54(4) . . .
54(4) . . .
67(4) . . .
66(4) . . .
60(4) . . .
56(4) . . .
60(4) . . .
56(4) . . .
64(4) . . .
63(4) . . .
63(4) . . .
58(4) . . .
61(4) . . .
60(4) . . .
66(4) . . .
61(4) . . .
60(4) . . .
60(4) . . .
49(4) . . .
66(5) . . .
76(5) . . .
60(4) . . .
57(4) . . .
61(4) . . .
64(4) . . .
51(4) . . .
56(4) . . .
59(4) . . .
55(4) . . .
56(4) . . .
60(4) . . .
61(4) . . .
73(4) . . .
63(4) . . .
54(4) . . .
60(4) . . .
69(4) . . .
65(4) . . .
57(4) . . .
63(4) . . .
46.1(35) . . .
56(4) . . .
66(4) . . .
57(4) . . .
67(4) . . .
66(4) . . .
67(4) . . .
58(4) . . .
72(5) . . .
61(4) . . .
65(4) . . .
58(4) . . .
67(4) . . .
50(4) . . .
72(5) . . .
82(5) . . .
58(4) . . .
53(4) . . .
70(5) . . .
58(4) . . .
73(4) . . .
63(4) . . .
67(4) . . .
64(4) . . .
59(4) . . .
55(4) . . .
59(4) . . .
59(4) . . .
64(4) . . .
66(4) . . .
63(4) . . .
61(4) . . .
55(4) . . .
55(4) . . .
53(4) . . .
51(4) . . .
51(4) . . .
71(5) . . .
57(4) . . .
60(4) . . .
64(4) . . .
59(4) . . .
56(4) . . .
47(4) . . .
53(4) . . .
64(4) . . .
67(4) . . .
54(4) . . .
54(4) . . .
58(4) . . .
54(4) . . .
67(4) . . .
63(4) . . .
71(5) . . .
58(4) . . .
64(4) . . .
67(5) . . .
65(4) . . .
69(5) . . .
57(4) . . .
59(4) . . .
72(5) . . .
67(5) . . .
66(4) . . .
65(4) . . .
65(4) . . .
65(4) . . .
69(5) . . .
56(4) . . .
62(4) . . .
68(4) . . .
68(4) . . .
67(5) . . .
68(4) . . .
65(4) . . .
56(4) . . .
58(4) . . .
63(4) . . .
60(4) . . .
62(4) . . .
64(4) . . .
65(4) . . .
64(4) . . .
66(4) . . .
64(4) . . .
57(4) . . .
61(4) . . .
58(4) . . .
70(5) . . .
71(4) . . .
60(4) . . .
58(4) . . .
60(4) . . .
50(4) . . .
70(4) . . .
66(4) . . .
60(4) . . .
62(4) . . .
62(4) . . .
71(4) . . .
67(4) . . .
63(4) . . .
61(4) . . .
55(4) . . .
64(4) . . .
71(5) . . .
55(4) . . .
50(4) . . .
73(5) . . .
68(4) . . .
66(5) . . .
64(5) . . .
62(4) . . .
54(4) . . .
59(4) . . .
67(4) . . .
60(4) . . .
67(4) . . .
62(4) . . .
67(4) . . .
51(4) . . .
61(4) . . .
47(4) . . .
53(4) . . .
65(4) . . .
59(4) . . .
70(5) . . .
58(4) . . .
65(4) . . .
71(4) . . .
61(4) . . .
56(4) . . .
66(4) . . .
58(4) . . .
60(4) . . .
64(4) . . .
61(4) . . .
61(4) . . .
58(4) . . .
55(4) . . .
69(5) . . .
58(4) . . .
65(5) . . .
50(4) . . .
54(4) . . .
58(4) . . .
54(4) . . .
66(4) . . .
57(4) . . .
51(4) . . .
59(4) . . .
57(4) . . .
59(4) . . .
58(4) . . .
56(4) . . .
55(4) . . .
59(4) . . .
62(4) . . .
51(4) . . .
66(4) . . .
53(4) . . .
53(4) . . .
52(4) . . .
57(4) . . .
66(5) . . .
57(4) . . .
54(4) . . .
62(4) . . .
52(4) . . .
54(4) . . .
61(4) . . .
53(4) . . .
54(4) . . .
51(4) . . .
68(4) . . .
62(4) . . .
61(4) . . .
68(4) . . .
51(4) . . .
65(4) . . .
58(4) . . .
63(4) . . .
60(4) . . .
52(4) . . .
61(4) . . .
65(5) . . .
60(4) . . .
67(4) . . .
65(4) . . .
60(4) . . .
61(4) . . .
64(4) . . .
67(4) . . .
56(4) . . .
61(4) . . .
67(4) . . .
59(4) . . .
62(4) . . .
60(4) . . .
63(4) . . .
63(4) . . .
69(4) . . .
57(4) . . .
60(4) . . .
51(4) . . .
67(4) . . .
71(4) . . .
57(4) . . .
59(4) . . .
70(5) . . .
60(4) . . .
63(4) . . .
49(4) . . .
60(4) . . .
57(4) . . .
63(4) . . .
69(4) . . .
66(4) . . .
56(4) . . .
66(4) . . .
55(4) . . .
60(4) . . .
59(4) . . .
60(4) . . .
62(4) . . .
58(4) . . .
60(4) . . .
54(4) . . .
60(4) . . .
65(4) . . .
62(4) . . .
58(4) . . .
53(4) . . .
67(4) . . .
57(4) . . .
66(4) . . .
63(4) . . .
69(4) . . .
60(4) . . .
63(4) . . .
58(4) . . .
55(4) . . .
57(4) . . .
61(4) . . .
61(4) . . .
61(4) . . .
57(4) . . .
55(4) . . .
64(4) . . .
58(4) . . .
52(4) . . .
53(4) . . .
56(4) . . .
63(4) . . .
64(4) . . .
66(4) . . .
55(4) . . .
55(4) . . .
63(4) . . .
67(4) . . .
54(4) . . .
48(4) . . .
64(5) . . .
73(5) . . .
53(4) . . .
62(4) . . .
67(4) . . .
60(4) . . .
57(4) . . .
47(4) . . .
68(5) . . .
61(4) . . .
54(4) . . .
61(4) . . .
64(4) . . .
58(4) . . .
70(4) . . .
66(4) . . .
59(4) . . .
57(4) . . .
64(4) . . .
49(4) . . .
59(4) . . .
65(5) . . .
65(4) . . .
63(4) . . .
62(4) . . .
51(4) . . .
58(4) . . .
64(4) . . .
57(4) . . .
73(5) . . .
59(4) . . .
60(4) . . .
73(5) . . .
66(4) . . .
60(4) . . .
59(4) . . .
63(4) . . .
59(4) . . .
62(4) . . .
70(4) . . .
66(4) . . .
56(4) . . .
52(4) . . .
60(4) . . .
62(4) . . .
52(4) . . .
57(4) . . .
75(5) . . .
73(4) . . .
65(4) . . .
64(4) . . .
56(4) . . .
59(4) . . .
64(4) . . .
68(4) . . .
70(5) . . .
66(4) . . .
60(4) . . .
54(4) . . .
60(4) . . .
64(4) . . .
54(4) . . .
63(4) . . .
61(4) . . .
59(4) . . .
64(5) . . .
55(4) . . .
62(4) . . .
56(4) . . .
58(4) . . .
73(5) . . .
61(4) . . .
64(4) . . .
71(4) . . .
61(4) . . .
61(4) . . .
69(5) . . .
65(4) . . .
58(4) . . .
60(4) . . .
58(4) . . .
52(4) . . .
63(4) . . .
63(4) . . .
57(4) . . .
53(4) . . .
60(4) . . .
62(4) . . .
66(4) . . .
59(4) . . .
61(4) . . .
55(4) . . .
55(4) . . .
57(4) . . .
52(4) . . .
66(4) . . .
71(5) . . .
56(4) . . .
63(4) . . .
58(4) . . .
61(4) . . .
61(4) . . .
62(4) . . .
57(4) . . .
64(4) . . .
65(4) . . .
63(4) . . .
62(4) . . .
65(4) . . .
68(5) . . .
64(4) . . .
69(4) . . .
58(4) . . .
56(4) . . .
67(4) . . .
61(4) . . .
69(4) . . .
62(4) . . .
64(4) . . .
67(5) . . .
66(4) . . .
61(4) . . .
60(4) . . .
62(4) . . .
64(5) . . .
58(4) . . .
63(4) . . .
54(4) . . .
56(4) . . .
57(4) . . .
53(4) . . .
58(4) . . .
60(4) . . .
60(4) . . .
56(4) . . .
55(4) . . .
44.8(34) . . .
63(4) . . .
58(4) . . .
67(4) . . .
55(4) . . .
61(4) . . .
57(4) . . .
60(4) . . .
60(4) . . .
55(4) . . .
58(4) . . .
50(4) . . .
65(4) . . .
66(5) . . .
60(4) . . .
49(4) . . .
62(4) . . .
63(4) . . .
55(4) . . .
63(4) . . .
63(4) . . .
61(4) . . .
64(5) . . .
72(5) . . .
60(4) . . .
60(4) . . .
50(4) . . .
55(4) . . .
56(4) . . .
60(4) . . .
56(4) . . .
53(4) . . .
59(4) . . .
63(4) . . .
61(4) . . .
60(4) . . .
60(4) . . .
43.9(35) . . .
52(4) . . .
56(4) . . .
55(4) . . .
56(4) . . .
68(5) . . .
66(5) . . .
71(4) . . .
54(4) . . .
65(4) . . .
57(4) . . .
53(4) . . .
51(4) . . .
62(4) . . .
65(4) . . .
50(4) . . .
56(4) . . .
50(4) . . .
54(4) . . .
50(4) . . .
63(4) . . .
54(4) . . .
59(4) . . .
62(4) . . .
53(4) . . .
56(4) . . .
58(4) . . .
59(4) . . .
59(4) . . .
52(4) . . .
55(4) . . .
52(4) . . .
75(5) . . .
55(4) . . .
58(4) . . .
58(4) . . .
61(4) . . .
54(4) . . .
66(4) . . .
59(4) . . .
56(4) . . .
49(4) . . .
66(4) . . .
61(4) . . .
55(4) . . .
59(4) . . .
64(4) . . .
68(4) . . .
60(4) . . .
65(4) . . .
64(4) . . .
55(4) . . .
63(4) . . .
67(4) . . .
58(4) . . .
50(4) . . .
49(4) . . .
68(4) . . .
57(4) . . .
58(4) . . .
55(4) . . .
48(4) . . .
60(4) . . .
60(4) . . .
60(4) . . .
48(4) . . .
67(4) . . .
74(5) . . .
51(4) . . .
61(4) . . .
50(4) . . .
46(4) . . .
56(4) . . .
54(4) . . .
56(4) . . .
65(4) . . .
59(4) . . .
53(4) . . .
46(4) . . .
61(5) . . .
54(4) . . .
51(4) . . .
59(4) . . .
57(4) . . .
58(4) . . .
61(4) . . .
63(4) . . .
50(4) . . .
56(4) . . .
56(4) . . .
62(4) . . .
61(4) . . .
62(4) . . .
68(5) . . .
58(4) . . .
55(4) . . .
57(4) . . .
67(4) . . .
58(4) . . .
54(4) . . .
68(4) . . .
59(4) . . .
58(4) . . .
66(5) . . .
61(4) . . .
52(4) . . .
60(4) . . .
57(4) . . .
57(4) . . .
61(4) . . .
65(4) . . .
61(4) . . .
49(4) . . .
63(5) . . .
54(4) . . .
49(4) . . .
50(4) . . .
56(4) . . .
58(4) . . .
50(4) . . .
62(4) . . .
64(4) . . .
63(4) . . .
57(4) . . .
57(4) . . .
60(4) . . .
66(4) . . .
51(4) . . .
65(5) . . .
63(4) . . .
68(4) . . .
61(4) . . .
64(5) . . .
66(4) . . .
61(4) . . .
53(4) . . .
60(4) . . .
51(4) . . .
56(4) . . .
59(4) . . .
62(4) . . .
75(5) . . .
63(4) . . .
70(4) . . .
60(4) . . .
51(4) . . .
56(4) . . .
65(4) . . .
66(4) . . .
60(4) . . .
67(4) . . .
49(4) . . .
53(4) . . .
67(4) . . .
69(4) . . .
60(4) . . .
61(4) . . .
69(5) . . .
59(4) . . .
53(4) . . .
60(4) . . .
57(4) . . .
53(4) . . .
66(4) . . .
51(4) . . .
64(4) . . .
68(5) . . .
55(4) . . .
57(4) . . .
57(4) . . .
53(4) . . .
53(4) . . .
65(5) . . .
55(4) . . .
71(4) . . .
65(4) . . .
65(4) . . .
63(4) . . .
62(4) . . .
63(4) . . .
63(4) . . .
58(4) . . .
59(4) . . .
66(4) . . .
60(4) . . .
76(5) . . .
64(4) . . .
71(5) . . .
61(4) . . .
57(4) . . .
62(4) . . .
61(4) . . .
57(4) . . .
58(4) . . .
56(4) . . .
62(4) . . .
58(4) . . .
56(4) . . .
47(4) . . .
54(4) . . .
47(4) . . .
46(4) . . .
54(4) . . .
57(4) . . .
56(4) . . .
60(4) . . .
63(4) . . .
73(5) . . .
61(4) . . .
64(4) . . .
61(4) . . .
63(4) . . .
58(4) . . .
64(4) . . .
59(4) . . .
55(4) . . .
55(4) . . .
64(4) . . .
63(4) . . .
59(4) . . .
56(4) . . .
60(4) . . .
57(4) . . .
57(4) . . .
51(4) . . .
62(4) . . .
55(4) . . .
46(4) . . .
53(4) . . .
57(4) . . .
58(4) . . .
66(5) . . .
52(4) . . .
50(4) . . .
53(4) . . .
57(4) . . .
47(4) . . .
70(4) . . .
61(4) . . .
63(4) . . .
70(5) . . .
66(4) . . .
61(4) . . .
53(4) . . .
57(4) . . .
55(4) . . .
53(4) . . .
54(4) . . .
57(4) . . .
55(4) . . .
63(5) . . .
54(4) . . .
63(4) . . .
71(4) . . .
57(4) . . .
49(4) . . .
63(4) . . .
50(4) . . .
57(4) . . .
46(4) . . .
48(4) . . .
69(4) . . .
52(4) . . .
51(4) . . .
53(4) . . .
53(4) . . .
60(4) . . .
59(4) . . .
59(4) . . .
57(4) . . .
51(4) . . .
68(5) . . .
56(4) . . .
64(4) . . .
67(4) . . .
63(4) . . .
56(4) . . .
62(4) . . .
67(4) . . .
52(4) . . .
65(4) . . .
63(4) . . .
64(4) . . .
60(4) . . .
64(5) . . .
55(4) . . .
48(4) . . .
59(4) . . .
59(4) . . .
67(4) . . .
59(4) . . .
62(4) . . .
60(4) . . .
50(4) . . .
58(4) . . .
72(5) . . .
66(4) . . .
61(4) . . .
55(4) . . .
64(4) . . .
56(4) . . .
67(4) . . .
44.7(35) . . .
62(4) . . .
66(4) . . .
71(4) . . .
59(4) . . .
57(4) . . .
62(4) . . .
56(4) . . .
57(4) . . .
56(4) . . .
64(4) . . .
58(4) . . .
59(4) . . .
58(4) . . .
61(4) . . .
60(4) . . .
62(4) . . .
66(5) . . .
63(4) . . .
54(4) . . .
65(4) . . .
62(4) . . .
64(4) . . .
56(4) . . .
58(4) . . .
61(4) . . .
55(4) . . .
50(4) . . .
56(4) . . .
62(4) . . .
60(4) . . .
57(4) . . .
52(4) . . .
64(4) . . .
66(4) . . .
54(4) . . .
60(4) . . .
66(5) . . .
53(4) . . .
65(4) . . .
47(4) . . .
54(4) . . .
63(4) . . .
67(4) . . .
53(4) . . .
62(4) . . .
62(4) . . .
70(5) . . .
63(4) . . .
52(4) . . .
61(4) . . .
64(4) . . .
64(4) . . .
72(4) . . .
64(4) . . .
48(4) . . .
52(4) . . .
58(4) . . .
63(4) . . .
64(4) . . .
63(4) . . .
49(4) . . .
48(4) . . .
60(4) . . .
59(4) . . .
52(4) . . .
59(4) . . .
52(4) . . .
46.1(35) . . .
59(4) . . .
60(4) . . .
55(4) . . .
47(4) . . .
71(4) . . .
59(4) . . .
57(4) . . .
59(4) . . .
60(4) . . .
59(4) . . .
50(4) . . .
51(4) . . .
68(5) . . .
51(4) . . .
54(4) . . .
52(4) . . .
57(4) . . .
60(4) . . .
57(4) . . .
57(4) . . .
63(4) . . .
52(4) . . .
59(4) . . .
64(4) . . .
61(4) . . .
57(4) . . .
55(4) . . .
59(4) . . .
55(4) . . .
56(4) . . .
61(4) . . .
54(4) . . .
56(4) . . .
53(4) . . .
57(4) . . .
64(4) . . .
61(4) . . .
51(4) . . .
68(4) . . .
66(4) . . .
65(4) . . .
68(5) . . .
64(4) . . .
55(4) . . .
57(4) . . .
50(4) . . .
58(4) . . .
62(4) . . .
59(4) . . .
57(4) . . .
64(4) . . .
55(4) . . .
81(5) . . .
56(4) . . .
62(4) . . .
50(4) . . .
46(4) . . .
47(4) . . .
53(4) . . .
56(4) . . .
58(4) . . .
50(4) . . .
54(4) . . .
60(4) . . .
58(4) . . .
58(4) . . .
63(4) . . .
50(4) . . .
49(4) . . .
50(4) . . .
59(4) . . .
55(4) . . .
48(4) . . .
51(4) . . .
59(4) . . .
59(4) . . .
67(5) . . .
58(4) . . .
58(4) . . .
61(4) . . .
51(4) . . .
65(4) . . .
61(4) . . .
57(4) . . .
51(4) . . .
57(4) . . .
58(4) . . .
58(4) . . .
61(4) . . .
53(4) . . .
58(4) . . .
59(4) . . .
63(4) . . .
55(4) . . .
52(4) . . .
55(4) . . .
55(4) . . .
58(4) . . .
62(4) . . .
67(4) . . .
57(4) . . .
62(4) . . .
65(4) . . .
64(4) . . .
51(4) . . .
49(4) . . .
70(5) . . .
60(4) . . .
62(4) . . .
47(4) . . .
54(4) . . .
61(4) . . .
56(4) . . .
59(4) . . .
59(4) . . .
56(4) . . .
53(4) . . .
66(4) . . .
66(4) . . .
55(4) . . .
46(4) . . .
66(5) . . .
53(4) . . .
62(4) . . .
60(4) . . .
57(4) . . .
52(4) . . .
54(4) . . .
56(4) . . .
52(4) . . .
53(4) . . .
69(4) . . .
61(4) . . .
58(4) . . .
60(4) . . .
64(4) . . .
56(4) . . .
43.7(34) . . .
54(4) . . .
69(5) . . .
56(4) . . .
47(4) . . .
50(4) . . .
50(4) . . .
61(4) . . .
60(4) . . .
61(4) . . .
63(4) . . .
60(4) . . .
65(4) . . .
60(4) . . .
58(4) . . .
57(4) . . .
54(4) . . .
53(4) . . .
56(4) . . .
55(4) . . .
60(4) . . .
60(5) . . .
55(4) . . .
57(4) . . .
64(4) . . .
56(4) . . .
59(4) . . .
59(4) . . .
53(4) . . .
66(4) . . .
69(5) . . .
58(4) . . .
57(4) . . .
61(4) . . .
56(4) . . .
69(5) . . .
60(4) . . .
69(4) . . .
54(4) . . .
68(4) . . .
55(4) . . .
52(4) . . .
57(4) . . .
59(4) . . .
53(4) . . .
54(4) . . .
73(5) . . .
62(4) . . .
59(4) . . .
45.7(34) . . .
64(4) . . .
63(5) . . .
57(4) . . .
62(4) . . .
63(4) . . .
56(4) . . .
54(4) . . .
58(4) . . .
58(4) . . .
54(4) . . .
50(4) . . .
59(4) . . .
63(4) . . .
59(4) . . .
65(4) . . .
55(4) . . .
52(4) . . .
61(4) . . .
62(4) . . .
35.3(31) . . .
59(4) . . .
63(4) . . .
60(4) . . .
61(4) . . .
66(4) . . .
61(4) . . .
59(4) . . .
64(4) . . .
60(4) . . .
49(4) . . .
68(5) . . .
61(4) . . .
56(4) . . .
61(4) . . .
58(4) . . .
63(4) . . .
54(4) . . .
52(4) . . .
62(4) . . .
55(4) . . .
53(4) . . .
47(4) . . .
54(4) . . .
57(4) . . .
60(4) . . .
52(4) . . .
60(4) . . .
56(4) . . .
56(4) . . .
62(4) . . .
59(4) . . .
55(4) . . .
64(4) . . .
43.9(35) . . .
49(4) . . .
67(4) . . .
64(4) . . .
59(4) . . .
59(4) . . .
53(4) . . .
58(4) . . .
63(4) . . .
64(4) . . .
59(4) . . .
56(4) . . .
64(4) . . .
66(4) . . .
64(4) . . .
64(4) . . .
52(4) . . .
43.3(34) . . .
66(4) . . .
53(4) . . .
59(4) . . .
58(4) . . .
51(4) . . .
51(4) . . .
50(4) . . .
62(4) . . .
54(4) . . .
47(4) . . .
49(4) . . .
50(4) . . .
59(4) . . .
56(4) . . .
59(4) . . .
50(4) . . .
56(4) . . .
66(5) . . .
57(4) . . .
68(5) . . .
51(4) . . .
51(4) . . .
54(4) . . .
61(5) . . .
54(4) . . .
45(4) . . .
46(4) . . .
54(4) . . .
58(4) . . .
57(4) . . .
60(4) . . .
59(4) . . .
56(4) . . .
62(4) . . .
68(4) . . .
61(4) . . .
56(4) . . .
59(4) . . .
63(5) . . .
48(4) . . .
60(4) . . .
59(4) . . .
54(4) . . .
55(4) . . .
56(4) . . .
43.8(34) . . .
52(4) . . .
53(4) . . .
57(4) . . .
55(4) . . .
52(4) . . .
60(4) . . .
58(4) . . .
56(4) . . .
59(4) . . .
70(4) . . .
62(4) . . .
56(4) . . .
56(4) . . .
59(4) . . .
56(4) . . .
45(4) . . .
56(4) . . .
54(4) . . .
48(4) . . .
52(4) . . .
54(4) . . .
52(4) . . .
57(4) . . .
50(4) . . .
42.0(33) . . .
59(4) . . .
55(4) . . .
58(4) . . .
53(4) . . .
61(4) . . .
58(4) . . .
51(4) . . .
57(4) . . .
61(4) . . .
62(4) . . .
65(4) . . .
52(4) . . .
66(4) . . .
66(4) . . .
56(4) . . .
58(4) . . .
52(4) . . .
54(4) . . .
40.3(33) . . .
55(4) . . .
55(4) . . .
58(4) . . .
50(4) . . .
61(4) . . .
61(4) . . .
53(4) . . .
46(4) . . .
55(4) . . .
58(4) . . .
66(4) . . .
70(5) . . .
50(4) . . .
58(4) . . .
60(4) . . .
66(5) . . .
55(4) . . .
56(4) . . .
62(4) . . .
56(4) . . .
56(4) . . .
59(4) . . .
53(4) . . .
51(4) . . .
59(4) . . .
60(4) . . .
60(4) . . .
52(4) . . .
48(4) . . .
61(4) . . .
61(4) . . .
63(5) . . .
56(4) . . .
60(4) . . .
50(4) . . .
61(4) . . .
55(4) . . .
61(4) . . .
65(4) . . .
55(4) . . .
50(4) . . .
59(4) . . .
63(4) . . .
65(4) . . .
59(4) . . .
50(4) . . .
56(4) . . .
58(4) . . .
59(4) . . .
58(4) . . .
62(4) . . .
51(4) . . .
63(4) . . .
50(4) . . .
57(4) . . .
56(4) . . .
64(4) . . .
56(4) . . .
51(4) . . .
62(4) . . .
58(4) . . .
58(4) . . .
64(4) . . .
50(4) . . .
56(4) . . .
50(4) . . .
56(4) . . .
61(4) . . .
52(4) . . .
51(4) . . .
55(4) . . .
72(4) . . .
63(4) . . .
56(4) . . .
55(4) . . .
50(4) . . .
61(4) . . .
69(5) . . .
51(4) . . .
63(4) . . .
62(4) . . .
66(4) . . .
61(4) . . .
55(4) . . .
61(4) . . .
62(4) . . .
49(4) . . .
43.1(34) . . .
58(4) . . .
68(5) . . .
53(4) . . .
56(4) . . .
56(4) . . .
57(4) . . .
69(5) . . .
66(4) . . .
56(4) . . .
54(4) . . .
58(4) . . .
55(4) . . .
52(4) . . .
56(4) . . .
56(4) . . .
58(4) . . .
52(4) . . .
65(4) . . .
54(4) . . .
59(4) . . .
58(4) . . .
60(4) . . .
51(4) . . .
54(4) . . .
59(4) . . .
59(4) . . .
65(4) . . .
41.9(34) . . .
55(4) . . .
59(4) . . .
58(4) . . .
62(4) . . .
64(4) . . .
55(4) . . .
55(4) . . .
52(4) . . .
65(4) . . .
58(4) . . .
59(4) . . .
52(4) . . .
53(4) . . .
56(4) . . .
63(4) . . .
59(4) . . .
61(4) . . .
57(4) . . .
57(4) . . .
53(4) . . .
49(4) . . .
50(4) . . .
53(4) . . .
56(4) . . .
58(4) . . .
61(4) . . .
61(4) . . .
57(4) . . .
53(4) . . .
59(4) . . .
62(4) . . .
58(4) . . .
46(4) . . .
54(4) . . .
49(4) . . .
51(4) . . .
56(4) . . .
58(4) . . .
64(4) . . .
50(4) . . .
55(4) . . .
56(4) . . .
56(4) . . .
49(4) . . .
52(4) . . .
56(4) . . .
57(4) . . .
60(4) . . .
60(4) . . .
59(4) . . .
48(4) . . .
58(4) . . .
59(4) . . .
54(4) . . .
52(4) . . .
64(5) . . .
66(5) . . .
58(4) . . .
55(4) . . .
58(4) . . .
61(4) . . .
50(4) . . .
51(4) . . .
59(4) . . .
65(4) . . .
63(4) . . .
67(4) . . .
67(4) . . .
61(4) . . .
64(4) . . .
53(4) . . .
63(4) . . .
72(4) . . .
53(4) . . .
64(4) . . .
50(4) . . .
62(4) . . .
55(4) . . .
57(4) . . .
59(4) . . .
63(4) . . .
53(4) . . .
58(4) . . .
64(4) . . .
55(4) . . .
61(4) . . .
61(4) . . .
60(4) . . .
50(4) . . .
54(4) . . .
56(4) . . .
50(4) . . .
58(4) . . .
53(4) . . .
60(4) . . .
56(4) . . .
59(4) . . .
61(4) . . .
51(4) . . .
55(4) . . .
56(4) . . .
53(4) . . .
47(4) . . .
59(4) . . .
69(4) . . .
68(5) . . .
58(4) . . .
64(4) . . .
57(4) . . .
61(4) . . .
47(4) . . .
47(4) . . .
55(4) . . .
49(4) . . .
59(4) . . .
57(4) . . .
55(4) . . .
53(4) . . .
59(4) . . .
64(4) . . .
52(4) . . .
53(4) . . .
52(4) . . .
67(4) . . .
66(5) . . .
54(4) . . .
50(4) . . .
53(4) . . .
59(4) . . .
59(4) . . .
49(4) . . .
46.4(35) . . .
52(4) . . .
50(4) . . .
46.0(35) . . .
69(5) . . .
68(4) . . .
61(4) . . .
64(4) . . .
68(4) . . .
67(4) . . .
61(4) . . .
49(4) . . .
55(4) . . .
56(4) . . .
48(4) . . .
55(4) . . .
51(4) . . .
58(4) . . .
59(4) . . .
54(4) . . .
55(4) . . .
59(4) . . .
57(4) . . .
60(4) . . .
68(4) . . .
53(4) . . .
57(4) . . .
60(4) . . .
53(4) . . .
47(4) . . .
59(4) . . .
65(4) . . .
55(4) . . .
54(4) . . .
55(4) . . .
60(4) . . .
65(4) . . .
57(4) . . .
58(4) . . .
70(4) . . .
58(4) . . .
50(4) . . .
59(4) . . .
60(4) . . .
61(4) . . .
52(4) . . .
70(5) . . .
56(4) . . .
63(4) . . .
48(4) . . .
60(4) . . .
58(4) . . .
54(4) . . .
59(4) . . .
51(4) . . .
57(4) . . .
49(4) . . .
56(4) . . .
55(4) . . .
54(4) . . .
58(4) . . .
52(4) . . .
56(4) . . .
54(4) . . .
62(4) . . .
62(4) . . .
56(4) . . .
56(4) . . .
47(4) . . .
47(4) . . .
63(4) . . .
65(4) . . .
55(4) . . .
54(4) . . .
51(4) . . .
59(4) . . .
49(4) . . .
62(4) . . .
57(4) . . .
58(4) . . .
56(4) . . .
56(4) . . .
52(4) . . .
60(4) . . .
61(4) . . .
43.0(35) . . .
57(4) . . .
58(4) . . .
57(4) . . .
49(4) . . .
63(4) . . .
69(5) . . .
44.5(34) . . .
53(4) . . .
53(4) . . .
52(4) . . .
57(4) . . .
56(4) . . .
58(4) . . .
51(4) . . .
51(4) . . .
55(4) . . .
53(4) . . .
50(4) . . .
57(4) . . .
50(4) . . .
56(4) . . .
52(4) . . .
48(4) . . .
57(4) . . .
54(4) . . .
52(4) . . .
62(4) . . .
55(4) . . .
65(4) . . .
55(4) . . .
58(4) . . .
55(4) . . .
57(4) . . .
54(4) . . .
57(4) . . .
57(4) . . .
57(4) . . .
65(4) . . .
65(4) . . .
63(4) . . .
54(4) . . .
60(4) . . .
50(4) . . .
57(4) . . .
64(5) . . .
52(4) . . .
61(4) . . .
58(4) . . .
53(4) . . .
50(4) . . .
57(4) . . .
63(4) . . .
57(4) . . .
51(4) . . .
63(4) . . .
53(4) . . .
61(4) . . .
48(4) . . .
57(4) . . .
56(4) . . .
60(4) . . .
61(4) . . .
57(4) . . .
57(4) . . .
58(4) . . .
66(4) . . .
57(4) . . .
51(4) . . .
46(4) . . .
65(5) . . .
50(4) . . .
54(4) . . .
56(4) . . .
53(4) . . .
61(4) . . .
53(4) . . .
60(4) . . .
61(4) . . .
48(4) . . .
48(4) . . .
60(4) . . .
61(4) . . .
55(4) . . .
52(4) . . .
58(4) . . .
56(4) . . .
53(4) . . .
53(4) . . .
53(4) . . .
56(4) . . .
56(4) . . .
59(4) . . .
60(4) . . .
63(4) . . .
53(4) . . .
51(4) . . .
60(4) . . .
54(4) . . .
65(5) . . .
61(4) . . .
60(4) . . .
53(4) . . .
58(4) . . .
62(4) . . .
59(4) . . .
58(4) . . .
54(4) . . .
54(4) . . .
67(5) . . .
54(4) . . .
55(4) . . .
57(4) . . .
55(4) . . .
63(4) . . .
58(4) . . .
58(4) . . .
56(4) . . .
56(4) . . .
55(4) . . .
46(4) . . .
46(4) . . .
55(4) . . .
53(4) . . .
44(4) . . .
55(4) . . .
56(4) . . .
55(4) . . .
55(4) . . .
51(4) . . .
63(4) . . .
57(4) . . .
52(4) . . .
53(4) . . .
50(4) . . .
58(4) . . .
65(4) . . .
56(4) . . .
54(4) . . .
50(4) . . .
59(4) . . .
56(4) . . .
58(4) . . .
52(4) . . .
58(4) . . .
56(4) . . .
56(4) . . .
51(4) . . .
60(4) . . .
50(4) . . .
61(4) . . .
53(4) . . .
62(4) . . .
60(4) . . .
55(4) . . .
64(4) . . .
54(4) . . .
54(4) . . .
48(4) . . .
45(4) . . .
57(4) . . .
49(4) . . .
58(4) . . .
53(4) . . .
64(4) . . .
61(4) . . .
51(4) . . .
59(4) . . .
47(4) . . .
54(4) . . .
57(4) . . .
53(4) . . .
57(4) . . .
51(4) . . .
57(4) . . .
47(4) . . .
53(4) . . .
57(4) . . .
59(4) . . .
62(4) . . .
59(4) . . .
57(4) . . .
64(4) . . .
63(4) . . .
62(4) . . .
49(4) . . .
56(4) . . .
69(5) . . .
50(4) . . .
52(4) . . .
56(4) . . .
53(4) . . .
53(4) . . .
52(4) . . .
48(4) . . .
58(4) . . .
60(4) . . .
47(4) . . .
50(4) . . .
55(4) . . .
55(4) . . .
56(4) . . .
52(4) . . .
60(5) . . .
62(4) . . .
51(4) . . .
46(4) . . .
55(4) . . .
63(4) . . .
54(4) . . .
56(4) . . .
59(4) . . .
61(4) . . .
61(4) . . .
59(4) . . .
62(4) . . .
66(4) . . .
42.8(33) . . .
54(4) . . .
54(4) . . .
54(4) . . .
53(4) . . .
51(4) . . .
62(4) . . .
55(4) . . .
56(4) . . .
50(4) . . .
51(4) . . .
52(4) . . .
51(4) . . .
54(4) . . .
59(4) . . .
53(4) . . .
53(4) . . .
56(4) . . .
63(4) . . .
62(4) . . .
58(4) . . .
56(4) . . .
62(4) . . .
56(4) . . .
55(4) . . .
53(4) . . .
68(4) . . .
64(4) . . .
62(4) . . .
53(4) . . .
42.5(34) . . .
61(4) . . .
43.8(34) . . .
57(4) . . .
60(4) . . .
50(4) . . .
54(4) . . .
50(4) . . .
58(4) . . .
51(4) . . .
57(4) . . .
62(4) . . .
63(4) . . .
60(4) . . .
58(4) . . .
57(4) . . .
57(4) . . .
56(4) . . .
58(4) . . .
50(4) . . .
50(4) . . .
60(4) . . .
60(4) . . .
56(4) . . .
62(4) . . .
56(4) . . .
53(4) . . .
56(4) . . .
57(4) . . .
50(4) . . .
48(4) . . .
60(4) . . .
57(4) . . .
46(4) . . .
48(4) . . .
50(4) . . .
47(4) . . .
55(4) . . .
57(4) . . .
58(4) . . .
51(4) . . .
50(4) . . .
60(4) . . .
55(4) . . .
58(4) . . .
45.3(35) . . .
52(4) . . .
60(4) . . .
53(4) . . .
53(4) . . .
46(4) . . .
45(4) . . .
54(4) . . .
68(5) . . .
61(4) . . .
53(4) . . .
46(4) . . .
56(4) . . .
53(4) . . .
48(4) . . .
53(4) . . .
52(4) . . .
59(4) . . .
51(4) . . .
50(4) . . .
55(4) . . .
58(4) . . .
50(4) . . .
51(4) . . .
50(4) . . .
49(4) . . .
48(4) . . .
54(4) . . .
56(4) . . .
55(4) . . .
63(4) . . .
51(4) . . .
50(4) . . .
55(4) . . .
59(4) . . .
52(4) . . .
47(4) . . .
49(4) . . .
47(4) . . .
55(4) . . .
54(4) . . .
49(4) . . .
57(4) . . .
46(4) . . .
54(4) . . .
62(4) . . .
63(4) . . .
58(4) . . .
58(4) . . .
55(4) . . .
52(4) . . .
72(5) . . .
52(4) . . .
58(4) . . .
61(4) . . .
64(4) . . .
48(4) . . .
58(4) . . .
53(4) . . .
54(4) . . .
61(4) . . .
43.2(34) . . .
60(4) . . .
54(4) . . .
59(4) . . .
48(4) . . .
47(4) . . .
51(4) . . .
60(4) . . .
54(4) . . .
52(4) . . .
58(4) . . .
54(4) . . .
62(4) . . .
53(4) . . .
52(4) . . .
64(4) . . .
55(4) . . .
58(4) . . .
63(4) . . .
52(4) . . .
46(4) . . .
60(4) . . .
54(4) . . .
51(4) . . .
51(4) . . .
47(4) . . .
58(4) . . .
51(4) . . .
47(4) . . .
57(4) . . .
57(4) . . .
55(4) . . .
52(4) . . .
52(4) . . .
54(4) . . .
53(4) . . .
50(4) . . .
49(4) . . .
62(4) . . .
53(4) . . .
65(4) . . .
58(4) . . .
49(4) . . .
48(4) . . .
56(4) . . .
51(4) . . .
59(4) . . .
58(4) . . .
59(4) . . .
59(4) . . .
57(4) . . .
62(4) . . .
66(4) . . .
52(4) . . .
58(4) . . .
50(4) . . .
61(4) . . .
57(4) . . .
54(4) . . .
64(5) . . .
52(4) . . .
52(4) . . .
53(4) . . .
59(4) . . .
52(4) . . .
49(4) . . .
55(4) . . .
59(4) . . .
45.1(35) . . .
55(4) . . .
54(4) . . .
45.5(35) . . .
62(4) . . .
58(4) . . .
53(4) . . .
56(4) . . .
53(4) . . .
54(4) . . .
47(4) . . .
50(4) . . .
50(4) . . .
58(4) . . .
47(4) . . .
45(4) . . .
60(4) . . .
55(4) . . .
46(4) . . .
51(4) . . .
55(4) . . .
59(4) . . .
52(4) . . .
62(4) . . .
54(4) . . .
56(4) . . .
57(4) . . .
54(4) . . .
59(4) . . .
55(4) . . .
52(4) . . .
48(4) . . .
56(4) . . .
59(4) . . .
54(4) . . .
56(4) . . .
56(4) . . .
58(4) . . .
47(4) . . .
52(4) . . .
49(4) . . .
47(4) . . .
61(4) . . .
56(4) . . .
54(4) . . .
57(4) . . .
54(4) . . .
56(4) . . .
46(4) . . .
50(4) . . .
43(4) . . .
46(4) . . .
66(4) . . .
53(4) . . .
63(4) . . .
52(4) . . .
55(4) . . .
51(4) . . .
50(4) . . .
60(4) . . .
56(4) . . .
50(4) . . .
51(4) . . .
52(4) . . .
50(4) . . .
57(4) . . .
58(4) . . .
51(4) . . .
53(4) . . .
41.7(34) . . .
56(4) . . .
47(4) . . .
61(4) . . .
60(4) . . .
60(4) . . .
58(4) . . .
49(4) . . .
55(4) . . .
63(4) . . .
56(4) . . .
47(4) . . .
53(4) . . .
55(4) . . .
50(4) . . .
52(4) . . .
62(4) . . .
55(4) . . .
56(4) . . .
50(4) . . .
53(4) . . .
63(5) . . .
60(4) . . .
54(4) . . .
64(4) . . .
50(4) . . .
52(4) . . .
55(4) . . .
57(4) . . .
55(4) . . .
60(4) . . .
48(4) . . .
51(4) . . .
55(4) . . .
63(4) . . .
51(4) . . .
66(4) . . .
56(4) . . .
50(4) . . .
57(4) . . .
46(4) . . .
55(4) . . .
58(4) . . .
51(4) . . .
60(4) . . .
53(4) . . .
59(4) . . .
55(4) . . .
58(4) . . .
52(4) . . .
54(4) . . .
50(4) . . .
63(4) . . .
56(4) . . .
47(4) . . .
55(4) . . .
55(4) . . .
41.2(34) . . .
55(4) . . .
57(4) . . .
58(4) . . .
56(4) . . .
52(4) . . .
53(4) . . .
51(4) . . .
60(4) . . .
43.3(34) . . .
52(4) . . .
53(4) . . .
53(4) . . .
50(4) . . .
57(4) . . .
47(4) . . .
51(4) . . .
63(4) . . .
61(4) . . .
54(4) . . .
47(4) . . .
60(4) . . .
61(4) . . .
56(4) . . .
51(4) . . .
61(4) . . .
67(4) . . .
55(4) . . .
46(4) . . .
53(4) . . .
42.8(34) . . .
51(4) . . .
62(4) . . .
62(4) . . .
51(4) . . .
59(4) . . .
58(4) . . .
51(4) . . .
63(4) . . .
61(4) . . .
47(4) . . .
65(4) . . .
63(4) . . .
50(4) . . .
53(4) . . .
44.3(35) . . .
50(4) . . .
52(4) . . .
53(4) . . .
50(4) . . .
54(4) . . .
51(4) . . .
49(4) . . .
54(4) . . .
49(4) . . .
54(4) . . .
53(4) . . .
49(4) . . .
41.9(34) . . .
51(4) . . .
58(4) . . .
57(4) . . .
52(4) . . .
61(5) . . .
39.8(33) . . .
47(4) . . .
46(4) . . .
49(4) . . .
49(4) . . .
51(4) . . .
59(4) . . .
48(4) . . .
56(4) . . .
44(4) . . .
49(4) . . .
40.5(34) . . .
42(4) . . .
50(4) . . .
55(4) . . .
51(4) . . .
55(4) . . .
70(5) . . .
61(4) . . .
56(4) . . .
71(4) . . .
57(4) . . .
49(4) . . .
58(4) . . .
54(4) . . .
55(4) . . .
55(4) . . .
55(4) . . .
48(4) . . .
49(4) . . .
54(4) . . .
54(4) . . .
59(4) . . .
47(4) . . .
55(4) . . .
43.7(35) . . .
51(4) . . .
57(4) . . .
45(4) . . .
45(4) . . .
47(4) . . .
55(4) . . .
41(4) . . .
56(4) . . .
55(4) . . .
58(4) . . .
45.5(34) . . .
56(4) . . .
58(4) . . .
50(4) . . .
53(4) . . .
61(4) . . .
55(4) . . .
59(4) . . .
61(4) . . .
53(4) . . .
49(4) . . .
48(4) . . .
62(4) . . .
54(4) . . .
57(4) . . .
44(4) . . .
60(4) . . .
55(4) . . .
55(4) . . .
64(4) . . .
57(4) . . .
60(4) . . .
58(4) . . .
46(4) . . .
56(4) . . .
56(4) . . .
60(4) . . .
49(4) . . .
47(4) . . .
64(4) . . .
54(4) . . .
54(4) . . .
63(4) . . .
53(4) . . .
54(4) . . .
55(4) . . .
58(4) . . .
49(4) . . .
50(4) . . .
58(4) . . .
53(4) . . .
44.8(35) . . .
54(4) . . .
52(4) . . .
56(4) . . .
52(4) . . .
51(4) . . .
54(4) . . .
55(4) . . .
56(4) . . .
54(4) . . .
48(4) . . .
60(4) . . .
55(4) . . .
54(4) . . .
60(4) . . .
51(4) . . .
59(4) . . .
64(4) . . .
52(4) . . .
53(4) . . .
53(4) . . .
71(4) . . .
51(4) . . .
52(4) . . .
58(4) . . .
53(4) . . .
49(4) . . .
48(4) . . .
51(4) . . .
47(4) . . .
49(4) . . .
49(4) . . .
47(4) . . .
39.3(34) . . .
46(4) . . .
54(4) . . .
50(4) . . .
50(4) . . .
48(4) . . .
50(4) . . .
48(4) . . .
51(4) . . .
47(4) . . .
54(4) . . .
49(4) . . .
46(4) . . .
45(4) . . .
57(4) . . .
53(4) . . .
48(4) . . .
49(4) . . .
45(4) . . .
46(4) . . .
53(4) . . .
48(4) . . .
56(4) . . .
57(4) . . .
60(4) . . .
49(4) . . .
45(4) . . .
50(4) . . .
55(4) . . .
49(4) . . .
56(4) . . .
47(4) . . .
51(4) . . .
48(4) . . .
55(4) . . .
64(5) . . .
59(4) . . .
51(4) . . .
54(4) . . .
56(4) . . .
53(4) . . .
40.4(33) . . .
38.7(33) . . .
47(4) . . .
47(4) . . .
57(4) . . .
55(4) . . .
45(4) . . .
43.0(34) . . .
46(4) . . .
45(4) . . .
50(4) . . .
55(4) . . .
51(4) . . .
49(4) . . .
45(4) . . .
44(4) . . .
49(4) . . .
44.9(35) . . .
52(4) . . .
39.7(35) . . .
45.2(35) . . .
48(4) . . .
55(4) . . .
55(4) . . .
55(4) . . .
50(4) . . .
50(4) . . .
54(4) . . .
50(4) . . .
56(4) . . .
55(4) . . .
57(4) . . .
56(4) . . .
50(4) . . .
60(4) . . .
51(4) . . .
51(4) . . .
53(4) . . .
55(4) . . .
52(4) . . .
55(4) . . .
57(4) . . .
50(4) . . .
47(4) . . .
51(4) . . .
62(4) . . .
48(4) . . .
47(4) . . .
54(4) . . .
61(4) . . .
41.9(33) . . .
45.8(35) . . .
49(4) . . .
49(4) . . .
48(4) . . .
55(4) . . .
49(4) . . .
49(4) . . .
45(4) . . .
52(4) . . .
47(4) . . .
53(4) . . .
44(4) . . .
53(4) . . .
60(4) . . .
45(4) . . .
50(4) . . .
54(4) . . .
57(4) . . .
52(4) . . .
50(4) . . .
59(4) . . .
49(4) . . .
56(4) . . .
51(4) . . .
48(4) . . .
46(4) . . .
48(4) . . .
52(4) . . .
56(4) . . .
46(4) . . .
47(4) . . .
47(4) . . .
58(4) . . .
50(4) . . .
52(4) . . .
59(4) . . .
48(4) . . .
56(4) . . .
42.5(34) . . .
56(4) . . .
56(4) . . .
60(4) . . .
48(4) . . .
63(4) . . .
57(4) . . .
55(4) . . .
58(4) . . .
48(4) . . .
61(4) . . .
48(4) . . .
49(4) . . .
47(4) . . .
51(4) . . .
57(4) . . .
58(4) . . .
52(4) . . .
56(4) . . .
54(4) . . .
50(4) . . .
59(4) . . .
59(4) . . .
51(4) . . .
54(4) . . .
52(4) . . .
56(4) . . .
58(4) . . .
57(4) . . .
54(4) . . .
59(4) . . .
59(4) . . .
54(4) . . .
48(4) . . .
51(4) . . .
49(4) . . .
52(4) . . .
48(4) . . .
52(4) . . .
46(4) . . .
57(4) . . .
57(4) . . .
43(4) . . .
51(4) . . .
54(4) . . .
48(4) . . .
49(4) . . .
53(4) . . .
64(4) . . .
47(4) . . .
46(4) . . .
46(4) . . .
58(4) . . .
53(4) . . .
53(4) . . .
52(4) . . .
47(4) . . .
50(4) . . .
54(4) . . .
46(4) . . .
52(4) . . .
49(4) . . .
45(4) . . .
53(4) . . .
58(4) . . .
55(4) . . .
54(4) . . .
43.2(34) . . .
60(4) . . .
44.4(34) . . .
37.5(32) . . .
43(4) . . .
51(4) . . .
54(4) . . .
58(4) . . .
51(4) . . .
48(4) . . .
43(4) . . .
55(4) . . .
49(4) . . .
47(4) . . .
50(4) . . .
63(4) . . .
57(4) . . .
59(4) . . .
50(4) . . .
53(4) . . .
49(4) . . .
52(4) . . .
54(4) . . .
61(4) . . .
48(4) . . .
59(4) . . .
63(4) . . .
57(4) . . .
50(4) . . .
52(4) . . .
50(4) . . .
50(4) . . .
51(4) . . .
53(4) . . .
52(4) . . .
42(4) . . .
44(4) . . .
49(4) . . .
51(4) . . .
52(4) . . .
48(4) . . .
55(4) . . .
58(4) . . .
46(4) . . .
47(4) . . .
52(4) . . .
47(4) . . .
61(4) . . .
40.3(33) . . .
45(4) . . .
49(4) . . .
60(4) . . .
64(4) . . .
51(4) . . .
48(4) . . .
48(4) . . .
46(4) . . .
56(4) . . .
52(4) . . .
58(4) . . .
53(4) . . .
47(4) . . .
53(4) . . .
42.6(35) . . .
63(4) . . .
63(4) . . .
49(4) . . .
53(4) . . .
52(4) . . .
56(4) . . .
47(4) . . .
52(4) . . .
56(4) . . .
45(4) . . .
42.9(35) . . .
58(4) . . .
50(4) . . .
54(4) . . .
55(4) . . .
64(4) . . .
52(4) . . .
45(4) . . .
56(4) . . .
50(4) . . .
47(4) . . .
53(4) . . .
60(4) . . .
57(4) . . .
52(4) . . .
63(4) . . .
64(4) . . .
58(4) . . .
55(4) . . .
57(4) . . .
61(4) . . .
49(4) . . .
47(4) . . .
49(4) . . .
53(4) . . .
42.7(34) . . .
57(4) . . .
60(4) . . .
62(4) . . .
60(4) . . .
63(4) . . .
42.7(34) . . .
50(4) . . .
65(5) . . .
52(4) . . .
49(4) . . .
49(4) . . .
49(4) . . .
49(4) . . .
56(4) . . .
42.2(34) . . .
53(4) . . .
52(4) . . .
45(4) . . .
51(4) . . .
59(4) . . .
52(4) . . .
51(4) . . .
47(4) . . .
60(4) . . .
56(4) . . .
48(4) . . .
59(4) . . .
50(4) . . .
49(4) . . .
60(4) . . .
57(4) . . .
58(4) . . .
54(4) . . .
51(4) . . .
50(4) . . .
53(4) . . .
54(4) . . .
54(4) . . .
46(4) . . .
49(4) . . .
53(4) . . .
44(4) . . .
49(4) . . .
58(4) . . .
50(4) . . .
44.8(35) . . .
57(4) . . .
51(4) . . .
53(4) . . .
55(4) . . .
46(4) . . .
49(4) . . .
53(4) . . .
57(4) . . .
51(4) . . .
52(4) . . .
48(4) . . .
53(4) . . .
52(4) . . .
47(4) . . .
56(4) . . .
53(4) . . .
54(4) . . .
50(4) . . .
54(4) . . .
46(4) . . .
54(4) . . .
66(5) . . .
53(4) . . .
56(4) . . .
44(4) . . .
45(4) . . .
46(4) . . .
38.8(32) . . .
55(4) . . .
49(4) . . .
55(4) . . .
45.6(35) . . .
48(4) . . .
51(4) . . .
56(4) . . .
45(4) . . .
53(4) . . .
60(4) . . .
46.7(35) . . .
54(4) . . .
45(4) . . .
59(4) . . .
66(4) . . .
61(4) . . .
47(4) . . .
50(4) . . .
44(4) . . .
50(4) . . .
50(4) . . .
59(4) . . .
64(4) . . .
51(4) . . .
44(4) . . .
53(4) . . .
46(4) . . .
60(4) . . .
48(4) . . .
55(4) . . .
51(4) . . .
50(4) . . .
53(4) . . .
54(4) . . .
41.2(34) . . .
56(4) . . .
55(4) . . .
52(4) . . .
51(4) . . .
52(4) . . .
55(4) . . .
49(4) . . .
50(4) . . .
45(4) . . .
50(4) . . .
56(4) . . .
49(4) . . .
53(4) . . .
61(4) . . .
54(4) . . .
54(4) . . .
45(4) . . .
42.1(34) . . .
42.3(34) . . .
43.4(34) . . .
45(4) . . .
57(4) . . .
47(4) . . .
43.6(34) . . .
51(4) . . .
49(4) . . .
52(4) . . .
53(4) . . .
49(4) . . .
50(4) . . .
43.6(35) . . .
53(4) . . .
58(4) . . .
50(4) . . .
48(4) . . .
49(4) . . .
61(5) . . .
48(4) . . .
49(4) . . .
59(4) . . .
44.9(35) . . .
43.0(34) . . .
54(4) . . .
46(4) . . .
40.2(35) . . .
36.1(32) . . .
39.5(35) . . .
47(4) . . .
51(4) . . .
50(4) . . .
49(4) . . .
52(4) . . .
52(4) . . .
56(4) . . .
42(4) . . .
47(4) . . .
50(4) . . .
52(4) . . .
42.3(34) . . .
48(4) . . .
45(4) . . .
49(4) . . .
52(4) . . .
48(4) . . .
50(4) . . .
52(4) . . .
53(4) . . .
51(4) . . .
55(4) . . .
52(4) . . .
45(4) . . .
50(4) . . .
49(4) . . .
55(4) . . .
52(4) . . .
44(4) . . .
45(4) . . .
42.6(34) . . .
44(4) . . .
53(4) . . .
47(4) . . .
46(4) . . .
46(4) . . .
50(4) . . .
54(4) . . .
46(4) . . .
57(4) . . .
45(4) . . .
58(4) . . .
49(4) . . .
46(4) . . .
45(4) . . .
45.4(35) . . .
68(4) . . .
50(4) . . .
45.6(35) . . .
52(4) . . .
49(4) . . .
59(4) . . .
54(4) . . .
57(4) . . .
40.7(34) . . .
46(4) . . .
45(4) . . .
47(4) . . .
51(4) . . .
59(4) . . .
49(4) . . .
51(4) . . .
51(4) . . .
41.5(33) . . .
46(4) . . .
46(4) . . .
58(4) . . .
56(4) . . .
55(4) . . .
54(4) . . .
47(4) . . .
38.1(33) . . .
53(4) . . .
51(4) . . .
54(4) . . .
49(4) . . .
63(4) . . .
51(4) . . .
60(4) . . .
57(4) . . .
41.5(34) . . .
48(4) . . .
42.5(34) . . .
55(4) . . .
43(4) . . .
47(4) . . .
49(4) . . .
47(4) . . .
42(4) . . .
58(4) . . .
50(4) . . .
53(4) . . .
39.0(32) . . .
55(4) . . .
50(4) . . .
55(4) . . .
49(4) . . .
53(4) . . .
59(4) . . .
58(4) . . .
43.6(34) . . .
51(4) . . .
57(4) . . .
60(4) . . .
47(4) . . .
53(4) . . .
58(4) . . .
60(4) . . .
53(4) . . .
51(4) . . .
49(4) . . .
46(4) . . .
45.9(35) . . .
54(4) . . .
47(4) . . .
46(4) . . .
52(4) . . .
49(4) . . .
51(4) . . .
52(4) . . .
47(4) . . .
42(4) . . .
56(4) . . .
59(4) . . .
60(4) . . .
52(4) . . .
59(4) . . .
56(4) . . .
52(4) . . .
44.5(34) . . .
44.7(35) . . .
51(4) . . .
50(4) . . .
60(4) . . .
48(4) . . .
48(4) . . .
47(4) . . .
41.0(35) . . .
49(4) . . .
53(4) . . .
47(4) . . .
49(4) . . .
49(4) . . .
38.9(32) . . .
39.7(33) . . .
53(4) . . .
52(4) . . .
55(4) . . .
50(4) . . .
56(4) . . .
54(4) . . .
47(4) . . .
46(4) . . .
52(4) . . .
51(4) . . .
47(4) . . .
48(4) . . .
57(4) . . .
58(4) . . .
57(4) . . .
53(4) . . .
54(4) . . .
62(4) . . .
52(4) . . .
48(4) . . .
46(4) . . .
45(4) . . .
53(4) . . .
49(4) . . .
45(4) . . .
45(4) . . .
52(4) . . .
53(4) . . .
50(4) . . .
55(4) . . .
60(4) . . .
45(4) . . .
49(4) . . .
46(4) . . .
45(4) . . .
51(4) . . .
51(4) . . .
47(4) . . .
48(4) . . .
55(4) . . .
39.7(34) . . .
47(4) . . .
57(4) . . .
58(4) . . .
49(4) . . .
53(4) . . .
49(4) . . .
51(4) . . .
39.8(34) . . .
45(4) . . .
48(4) . . .
53(4) . . .
42.2(34) . . .
46(4) . . .
52(4) . . .
43.0(35) . . .
51(4) . . .
48(4) . . .
49(4) . . .
50(4) . . .
59(4) . . .
60(4) . . .
53(4) . . .
45(4) . . .
48(4) . . .
46(4) . . .
56(4) . . .
44.3(35) . . .
49(4) . . .
46(4) . . .
51(4) . . .
48(4) . . .
52(4) . . .
43.0(35) . . .
55(4) . . .
51(4) . . .
58(4) . . .
44.9(35) . . .
49(4) . . .
55(4) . . .
41.6(34) . . .
44(4) . . .
47(4) . . .
55(4) . . .
48(4) . . .
50(4) . . .
46(4) . . .
40.3(33) . . .
53(4) . . .
58(4) . . .
53(4) . . .
56(4) . . .
52(4) . . .
49(4) . . .
50(4) . . .
55(4) . . .
47(4) . . .
54(4) . . .
54(4) . . .
48(4) . . .
47(4) . . .
44.2(35) . . .
47(4) . . .
47(4) . . .
59(4) . . .
52(4) . . .
53(4) . . .
42.9(34) . . .
44.9(35) . . .
54(4) . . .
53(4) . . .
53(4) . . .
42(4) . . .
45(4) . . .
44(4) . . .
50(4) . . .
55(4) . . .
56(4) . . .
57(4) . . .
52(4) . . .
45.0(35) . . .
47(4) . . .
48(4) . . .
46(4) . . .
50(4) . . .
56(4) . . .
53(4) . . .
50(4) . . .
53(4) . . .
60(4) . . .
51(4) . . .
61(4) . . .
45(4) . . .
48(4) . . .
49(4) . . .
46(4) . . .
52(4) . . .
49(4) . . .
49(4) . . .
47(4) . . .
59(4) . . .
49(4) . . .
42.2(34) . . .
40.8(34) . . .
52(4) . . .
40.5(33) . . .
50(4) . . .
48(4) . . .
55(4) . . .
53(4) . . .
46(4) . . .
41.1(33) . . .
50(4) . . .
55(4) . . .
51(4) . . .
41.1(34) . . .
48(4) . . .
48(4) . . .
50(4) . . .
48(4) . . .
55(4) . . .
49(4) . . .
52(4) . . .
54(4) . . .
58(4) . . .
54(4) . . .
49(4) . . .
46(4) . . .
44(4) . . .
47(4) . . .
50(4) . . .
40(4) . . .
52(4) . . .
53(4) . . .
41.0(33) . . .
42.1(33) . . .
45(4) . . .
53(4) . . .
45(4) . . .
48(4) . . .
54(4) . . .
52(4) . . .
55(4) . . .
65(5) . . .
42.9(34) . . .
51(4) . . .
47(4) . . .
51(4) . . .
50(4) . . .
55(4) . . .
47(4) . . .
46(4) . . .
45(4) . . .
50(4) . . .
54(4) . . .
50(4) . . .
54(4) . . .
48(4) . . .
52(4) . . .
52(4) . . .
51(4) . . .
51(4) . . .
40.7(33) . . .
51(4) . . .
47(4) . . .
48(4) . . .
52(4) . . .
54(4) . . .
54(4) . . .
63(4) . . .
57(4) . . .
48(4) . . .
38.3(33) . . .
45.5(35) . . .
50(4) . . .
53(4) . . .
57(4) . . .
43.4(35) . . .
37.1(32) . . .
46(4) . . .
46(4) . . .
41.0(35) . . .
45(4) . . .
41.7(33) . . .
40.8(34) . . .
41.0(35) . . .
47(4) . . .
47(4) . . .
40.9(33) . . .
51(4) . . .
42.8(35) . . .
41.2(35) . . .
53(4) . . .
53(4) . . .
60(4) . . .
56(4) . . .
52(4) . . .
51(4) . . .
51(4) . . .
64(4) . . .
55(4) . . .
48(4) . . .
42(4) . . .
46(4) . . .
45(4) . . .
49(4) . . .
50(4) . . .
48(4) . . .
50(4) . . .
49(4) . . .
58(4) . . .
48(4) . . .
45(4) . . .
52(4) . . .
55(4) . . .
52(4) . . .
48(4) . . .
44(4) . . .
49(4) . . .
54(4) . . .
42.8(34) . . .
46(4) . . .
40.7(33) . . .
57(4) . . .
47(4) . . .
38.2(34) . . .
43(4) . . .
40.9(33) . . .
52(4) . . .
37.6(33) . . .
49(4) . . .
56(4) . . .
44.8(35) . . .
47(4) . . .
57(4) . . .
47(4) . . .
50(4) . . .
54(4) . . .
49(4) . . .
47(4) . . .
45(4) . . .
54(4) . . .
58(4) . . .
52(4) . . .
50(4) . . .
50(4) . . .
55(4) . . .
46(4) . . .
44.9(35) . . .
41.8(34) . . .
40.0(33) . . .
50(4) . . .
49(4) . . .
53(4) . . .
53(4) . . .
45(4) . . .
51(4) . . .
40.7(34) . . .
52(4) . . .
43.1(34) . . .
48(4) . . .
55(4) . . .
49(4) . . .
54(4) . . .
53(4) . . .
43(4) . . .
43(4) . . .
41.7(34) . . .
52(4) . . .
55(4) . . .
50(4) . . .
43.1(34) . . .
64(4) . . .
57(4) . . .
56(4) . . .
47(4) . . .
46(4) . . .
45(4) . . .
42(4) . . .
46(4) . . .
47(4) . . .
44(4) . . .
46(4) . . .
56(4) . . .
58(4) . . .
46(4) . . .
55(4) . . .
52(4) . . .
46(4) . . .
50(4) . . .
49(4) . . .
48(4) . . .
50(4) . . .
41.8(33) . . .
54(4) . . .
55(4) . . .
53(4) . . .
52(4) . . .
58(4) . . .
45(4) . . .
44.0(35) . . .
58(4) . . .
49(4) . . .
48(4) . . .
44(4) . . .
54(4) . . .
47(4) . . .
37.5(32) . . .
49(4) . . .
55(4) . . .
50(4) . . .
45.3(35) . . .
54(4) . . .
54(4) . . .
46(4) . . .
46(4) . . .
51(4) . . .
53(4) . . .
56(4) . . .
52(4) . . .
43.8(34) . . .
47(4) . . .
43(4) . . .
40(4) . . .
42(4) . . .
49(4) . . .
41.0(33) . . .
45(4) . . .
45(4) . . .
52(4) . . .
47(4) . . .
59(4) . . .
55(4) . . .
53(4) . . .
50(4) . . .
49(4) . . .
48(4) . . .
57(4) . . .
41.5(34) . . .
49(4) . . .
52(4) . . .
58(4) . . .
40.9(33) . . .
45(4) . . .
51(4) . . .
46.1(35) . . .
41.6(34) . . .
47(4) . . .
46(4) . . .
57(4) . . .
60(4) . . .
51(4) . . .
54(4) . . .
43(4) . . .
43.4(34) . . .
49(4) . . .
48(4) . . .
46(4) . . .
55(4) . . .
44(4) . . .
48(4) . . .
43.3(34) . . .
51(4) . . .
56(4) . . .
51(4) . . .
46(4) . . .
45.0(35) . . .
46(4) . . .
49(4) . . .
49(4) . . .
46(4) . . .
54(4) . . .
47(4) . . .
45(4) . . .
55(4) . . .
43.5(35) . . .
47(4) . . .
40.1(34) . . .
60(4) . . .
46(4) . . .
41.6(33) . . .
53(4) . . .
51(4) . . .
50(4) . . .
46(4) . . .
48(4) . . .
47(4) . . .
53(4) . . .
50(4) . . .
55(4) . . .
44.1(35) . . .
58(4) . . .
48(4) . . .
51(4) . . .
42.3(33) . . .
52(4) . . .
56(4) . . .
44(4) . . .
56(4) . . .
42.2(34) . . .
56(4) . . .
39.0(33) . . .
53(4) . . .
52(4) . . .
49(4) . . .
53(4) . . .
38.1(32) . . .
44(4) . . .
45(4) . . .
55(4) . . .
61(4) . . .
48(4) . . .
52(4) . . .
49(4) . . .
45.0(35) . . .
42.7(34) . . .
46(4) . . .
52(4) . . .
42.9(35) . . .
50(4) . . .
39.6(33) . . .
45(4) . . .
47(4) . . .
44(4) . . .
47(4) . . .
52(4) . . .
51(4) . . .
46(4) . . .
54(4) . . .
51(4) . . .
52(4) . . .
50(4) . . .
46(4) . . .
58(4) . . .
53(4) . . .
48(4) . . .
38.4(32) . . .
47(4) . . .
51(4) . . .
50(4) . . .
44(4) . . .
51(4) . . .
46(4) . . .
43.0(34) . . .
50(4) . . .
45(4) . . .
46(4) . . .
58(4) . . .
41.3(33) . . .
44.9(34) . . .
53(4) . . .
50(4) . . .
50(4) . . .
56(4) . . .
49(4) . . .
55(4) . . .
61(5) . . .
56(4) . . .
60(4) . . .
55(4) . . .
53(4) . . .
58(4) . . .
48(4) . . .
50(4) . . .
56(4) . . .
43.2(34) . . .
43(4) . . .
37.1(32) . . .
54(4) . . .
49(4) . . .
46(4) . . .
45(4) . . .
55(4) . . .
52(4) . . .
48(4) . . .
45(4) . . .
55(4) . . .
43.1(35) . . .
57(4) . . .
43(4) . . .
41.3(34) . . .
54(4) . . .
52(4) . . .
53(4) . . .
45(4) . . .
46(4) . . .
42.7(34) . . .
54(4) . . .
54(4) . . .
46(4) . . .
43(4) . . .
53(4) . . .
50(4) . . .
50(4) . . .
39.3(33) . . .
42(4) . . .
51(4) . . .
44.0(35) . . .
49(4) . . .
41.3(35) . . .
46(4) . . .
53(4) . . .
51(4) . . .
45.7(35) . . .
60(4) . . .
49(4) . . .
43.6(34) . . .
44(4) . . .
51(4) . . .
49(4) . . .
51(4) . . .
44(4) . . .
59(4) . . .
46(4) . . .
54(4) . . .
55(4) . . .
53(4) . . .
43.3(35) . . .
48(4) . . .
60(4) . . .
43(4) . . .
56(4) . . .
45.5(35) . . .
55(4) . . .
54(4) . . .
46(4) . . .
54(4) . . .
49(4) . . .
36.1(31) . . .
38.2(33) . . .
56(4) . . .
43.4(35) . . .
52(4) . . .
36.3(33) . . .
56(4) . . .
59(4) . . .
53(4) . . .
54(4) . . .
48(4) . . .
45(4) . . .
40.2(33) . . .
47(4) . . .
50(4) . . .
58(4) . . .
53(4) . . .
60(4) . . .
55(4) . . .
48(4) . . .
51(4) . . .
45(4) . . .
48(4) . . .
51(4) . . .
42.0(35) . . .
46(4) . . .
51(4) . . .
53(4) . . .
49(4) . . .
44.5(34) . . .
44.0(35) . . .
50(4) . . .
49(4) . . .
50(4) . . .
50(4) . . .
53(4) . . .
54(4) . . .
36.6(32) . . .
52(4) . . .
44.5(34) . . .
51(4) . . .
52(4) . . .
47(4) . . .
48(4) . . .
62(4) . . .
59(4) . . .
52(4) . . .
39.1(32) . . .
53(4) . . .
49(4) . . .
52(4) . . .
40(4) . . .
38.7(34) . . .
45(4) . . .
52(4) . . .
37.0(34) . . .
59(4) . . .
55(4) . . .
63(4) . . .
57(4) . . .
48(4) . . .
54(4) . . .
47(4) . . .
48(4) . . .
60(4) . . .
43(4) . . .
53(4) . . .
53(4) . . .
55(4) . . .
41.1(35) . . .
43(4) . . .
41.6(34) . . .
55(4) . . .
39.9(33) . . .
53(4) . . .
55(4) . . .
44.6(35) . . .
46.0(35) . . .
41.5(34) . . .
46(4) . . .
32.6(31) . . .
42.5(35) . . .
43.2(35) . . .
47(4) . . .
40.8(33) . . .
49(4) . . .
52(4) . . .
59(4) . . .
54(4) . . .
48(4) . . .
52(4) . . .
39.3(34) . . .
44.8(35) . . .
43.4(35) . . .
42.4(34) . . .
55(4) . . .
44(4) . . .
49(4) . . .
54(4) . . .
53(4) . . .
47(4) . . .
43(4) . . .
45(4) . . .
58(4) . . .
55(4) . . .
51(4) . . .
53(4) . . .
52(4) . . .
48(4) . . .
46(4) . . .
51(4) . . .
54(4) . . .
51(4) . . .
50(4) . . .
47(4) . . .
50(4) . . .
49(4) . . .
49(4) . . .
56(4) . . .
38.3(32) . . .
51(4) . . .
48(4) . . .
47(4) . . .
45(4) . . .
51(4) . . .
47.0(35) . . .
51(4) . . .
53(4) . . .
45(4) . . .
49(4) . . .
51(4) . . .
47(4) . . .
47(4) . . .
49(4) . . .
41.5(35) . . .
40(4) . . .
37.0(32) . . .
51(4) . . .
54(4) . . .
52(4) . . .
50(4) . . .
43.1(34) . . .
55(4) . . .
45(4) . . .
45(4) . . .
54(4) . . .
44.2(35) . . .
40.9(33) . . .
47(4) . . .
51(4) . . .
59(4) . . .
51(4) . . .
45.1(35) . . .
46(4) . . .
54(4) . . .
51(4) . . .
49(4) . . .
53(4) . . .
49(4) . . .
49(4) . . .
40.3(35) . . .
49(4) . . .
45(4) . . .
43(4) . . .
48(4) . . .
46.4(35) . . .
51(4) . . .
39.7(33) . . .
42(4) . . .
49(4) . . .
55(4) . . .
44.3(35) . . .
48(4) . . .
49(4) . . .
39(4) . . .
48(4) . . .
40.8(33) . . .
46(4) . . .
49(4) . . .
48(4) . . .
40.5(34) . . .
48(4) . . .
57(4) . . .
48(4) . . .
52(4) . . .
56(4) . . .
51(4) . . .
46(4) . . .
55(4) . . .
49(4) . . .
50(4) . . .
40.9(34) . . .
45(4) . . .
47(4) . . .
43(4) . . .
47(4) . . .
53(4) . . .
48(4) . . .
44(4) . . .
44(4) . . .
45.3(35) . . .
44(4) . . .
48(4) . . .
41.9(34) . . .
45.3(35) . . .
43.1(35) . . .
52(4) . . .
60(4) . . .
41.9(34) . . .
45(4) . . .
38.6(32) . . .
48(4) . . .
48(4) . . .
43.4(35) . . .
52(4) . . .
54(4) . . .
47(4) . . .
46(4) . . .
42(4) . . .
48(4) . . .
51(4) . . .
43(4) . . .
36.5(33) . . .
41.0(35) . . .
49(4) . . .
48(4) . . .
46(4) . . .
44(4) . . .
55(4) . . .
51(4) . . .
43.7(35) . . .
50(4) . . .
48(4) . . .
40.4(35) . . .
41.4(34) . . .
50(4) . . .
47(4) . . .
54(4) . . .
48(4) . . .
39.6(33) . . .
49(4) . . .
36.8(32) . . .
47(4) . . .
47(4) . . .
50(4) . . .
49(4) . . .
57(4) . . .
44.7(35) . . .
57(4) . . .
49(4) . . .
51(4) . . .
45(4) . . .
48(4) . . .
41.8(33) . . .
40.1(33) . . .
59(4) . . .
52(4) . . .
44(4) . . .
42.3(35) . . .
57(4) . . .
47(4) . . .
52(4) . . .
46(4) . . .
48(4) . . .
39.2(32) . . .
53(4) . . .
53(4) . . .
43.3(35) . . .
50(4) . . .
50(4) . . .
49(4) . . .
56(4) . . .
50(4) . . .
51(4) . . .
47(4) . . .
55(4) . . .
49(4) . . .
46(4) . . .
42.3(34) . . .
43.1(34) . . .
43.5(35) . . .
44(4) . . .
51(4) . . .
45.5(35) . . .
48(4) . . .
45.0(35) . . .
44(4) . . .
48(4) . . .
42.1(34) . . .
51(4) . . .
53(4) . . .
51(4) . . .
42(4) . . .
45(4) . . .
53(4) . . .
40.5(33) . . .
45(4) . . .
45(4) . . .
50(4) . . .
42(4) . . .
53(4) . . .
48(4) . . .
39.0(32) . . .
44.3(34) . . .
36.3(32) . . .
37.0(32) . . .
44(4) . . .
43(4) . . .
51(4) . . .
37.6(32) . . .
46(4) . . .
53(4) . . .
49(4) . . .
36.6(32) . . .
42(4) . . .
49(4) . . .
41(4) . . .
46(4) . . .
51(4) . . .
53(4) . . .
54(4) . . .
54(4) . . .
53(4) . . .
51(4) . . .
52(4) . . .
51(4) . . .
52(4) . . .
53(4) . . .
51(4) . . .
47(4) . . .
46(4) . . .
52(4) . . .
45.6(35) . . .
58(4) . . .
52(4) . . .
48(4) . . .
38.9(32) . . .
48(4) . . .
49(4) . . .
45(4) . . .
45(4) . . .
50(4) . . .
43.8(34) . . .
42.5(34) . . .
51(4) . . .
54(4) . . .
52(4) . . .
47(4) . . .
44.7(35) . . .
48(4) . . .
51(4) . . .
52(4) . . .
48(4) . . .
49(4) . . .
48(4) . . .
47(4) . . .
42.3(34) . . .
53(4) . . .
40.1(33) . . .
43(4) . . .
44(4) . . .
51(4) . . .
49(4) . . .
44(4) . . .
46(4) . . .
51(4) . . .
49(4) . . .
45(4) . . .
45(4) . . .
44(4) . . .
50(4) . . .
44.5(35) . . .
38.8(33) . . .
45(4) . . .
42(4) . . .
51(4) . . .
56(4) . . .
48(4) . . .
47(4) . . .
48(4) . . .
54(4) . . .
45.3(35) . . .
52(4) . . .
49(4) . . .
50(4) . . .
50(4) . . .
44.7(35) . . .
53(4) . . .
52(4) . . .
46(4) . . .
51(4) . . .
37.5(32) . . .
51(4) . . .
47(4) . . .
51(4) . . .
52(4) . . .
53(4) . . .
56(4) . . .
47(4) . . .
47(4) . . .
57(4) . . .
48(4) . . .
42(4) . . .
47(4) . . .
54(4) . . .
47(4) . . .
46(4) . . .
45(4) . . .
51(4) . . .
50(4) . . .
61(4) . . .
64(4) . . .
38.0(32) . . .
46(4) . . .
35.8(32) . . .
45(4) . . .
44.5(35) . . .
37.7(32) . . .
43(4) . . .
52(4) . . .
53(4) . . .
58(4) . . .
41.1(35) . . .
48(4) . . .
47(4) . . .
41.8(33) . . .
51(4) . . .
48(4) . . .
45(4) . . .
48(4) . . .
56(4) . . .
48(4) . . .
48(4) . . .
49(4) . . .
54(4) . . .
50(4) . . .
47(4) . . .
48(4) . . .
45(4) . . .
51(4) . . .
51(4) . . .
58(4) . . .
49(4) . . .
54(4) . . .
56(4) . . .
43.6(34) . . .
43(4) . . .
51(4) . . .
46(4) . . .
47(4) . . .
49(4) . . .
45(4) . . .
57(4) . . .
52(4) . . .
49(4) . . .
53(4) . . .
52(4) . . .
43(4) . . .
47(4) . . .
48(4) . . .
51(4) . . .
64(4) . . .
58(4) . . .
41(4) . . .
39.3(32) . . .
52(4) . . .
50(4) . . .
48(4) . . .
39.7(32) . . .
51(4) . . .
50(4) . . .
39.1(34) . . .
43(4) . . .
47(4) . . .
40.1(33) . . .
48(4) . . .
49(4) . . .
51(4) . . .
48(4) . . .
41.3(33) . . .
48(4) . . .
50(4) . . .
42.6(34) . . .
53(4) . . .
58(4) . . .
52(4) . . .
46.4(35) . . .
50(4) . . .
42.4(34) . . .
55(4) . . .
48(4) . . .
35.2(31) . . .
36.5(33) . . .
52(4) . . .
44.7(35) . . .
44(4) . . .
44(4) . . .
48(4) . . .
49(4) . . .
55(4) . . .
47(4) . . .
60(4) . . .
39.9(33) . . .
51(4) . . .
30.8(29) . . .
57(4) . . .
47(4) . . .
45(4) . . .
43.7(35) . . .
45(4) . . .
49(4) . . .
45(4) . . .
43(4) . . .
41.8(34) . . .
41.0(34) . . .
43(4) . . .
55(4) . . .
52(4) . . .
51(4) . . .
49(4) . . .
62(5) . . .
52(4) . . .
47(4) . . .
51(4) . . .
48(4) . . .
47(4) . . .
50(4) . . .
39.6(33) . . .
53(4) . . .
56(4) . . .
39.9(32) . . .
47(4) . . .
45(4) . . .
43.3(34) . . .
45(4) . . .
58(4) . . .
55(4) . . .
52(4) . . .
43.5(34) . . .
49(4) . . .
50(4) . . .
52(4) . . .
56(4) . . .
40.5(34) . . .
42.8(35) . . .
42(4) . . .
43(4) . . .
44(4) . . .
45.5(35) . . .
43.4(35) . . .
41.8(35) . . .
37.5(32) . . .
47(4) . . .
42.2(34) . . .
46(4) . . .
47(4) . . .
57(4) . . .
47(4) . . .
38.3(32) . . .
48(4) . . .
42(4) . . .
46(4) . . .
47(4) . . .
41.0(33) . . .
55(4) . . .
53(4) . . .
38.4(32) . . .
45(4) . . .
50(4) . . .
45(4) . . .
39.4(34) . . .
52(4) . . .
51(4) . . .
41.4(33) . . .
49(4) . . .
44(4) . . .
49(4) . . .
37.9(33) . . .
47(4) . . .
45(4) . . .
45(4) . . .
48(4) . . .
56(4) . . .
45(4) . . .
46(4) . . .
37.9(32) . . .
41.0(35) . . .
40.5(33) . . .
41.9(34) . . .
52(4) . . .
52(4) . . .
43(4) . . .
46.0(35) . . .
41.7(34) . . .
49(4) . . .
38.4(33) . . .
40.8(34) . . .
49(4) . . .
50(4) . . .
45(4) . . .
42(4) . . .
45(4) . . .
42.6(34) . . .
44(4) . . .
44(4) . . .
59(4) . . .
50(4) . . .
45.1(35) . . .
59(4) . . .
57(4) . . .
50(4) . . .
49(4) . . .
41.7(34) . . .
41.6(33) . . .
54(4) . . .
57(4) . . .
45.9(35) . . .
48(4) . . .
45(4) . . .
43(4) . . .
44(4) . . .
52(4) . . .
52(4) . . .
61(4) . . .
54(4) . . .
49(4) . . .
43.7(35) . . .
45(4) . . .
41.8(34) . . .
42(4) . . .
55(4) . . .
53(4) . . .
40.3(33) . . .
61(4) . . .
47(4) . . .
55(4) . . .
40.2(33) . . .
58(4) . . .
48(4) . . .
50(4) . . .
41(4) . . .
35.5(31) . . .
50(4) . . .
43(4) . . .
49(4) . . .
57(4) . . .
42.2(34) . . .
45(4) . . .
45(4) . . .
53(4) . . .
42.2(34) . . .
43(4) . . .
45.0(35) . . .
40.4(35) . . .
40.9(34) . . .
42.6(34) . . .
47(4) . . .
50(4) . . .
46(4) . . .
47(4) . . .
47(4) . . .
46(4) . . .
49(4) . . .
45(4) . . .
51(4) . . .
53(4) . . .
47(4) . . .
47(4) . . .
44(4) . . .
41.3(35) . . .
33.6(30) . . .
44.8(35) . . .
51(4) . . .
45(4) . . .
42(4) . . .
49(4) . . .
52(4) . . .
48(4) . . .
48(4) . . .
47(4) . . .
49(4) . . .
56(4) . . .
56(4) . . .
51(4) . . .
46(4) . . .
52(4) . . .
50(4) . . .
49(4) . . .
52(4) . . .
44(4) . . .
42.4(33) . . .
35.6(31) . . .
42.3(34) . . .
52(4) . . .
46(4) . . .
46(4) . . .
40.5(35) . . .
49(4) . . .
48(4) . . .
46(4) . . .
54(4) . . .
48(4) . . .
41.2(34) . . .
40.0(34) . . .
38.0(32) . . .
53(4) . . .
53(4) . . .
52(4) . . .
53(4) . . .
36.1(31) . . .
52(4) . . .
49(4) . . .
58(4) . . .
51(4) . . .
56(4) . . .
49(4) . . .
56(4) . . .
49(4) . . .
58(4) . . .
54(4) . . .
40.8(33) . . .
52(4) . . .
50(4) . . .
52(4) . . .
49(4) . . .
50(4) . . .
54(4) . . .
55(4) . . .
45(4) . . .
53(4) . . .
36.9(31) . . .
53(4) . . .
51(4) . . .
56(4) . . .
52(4) . . .
46.0(35) . . .
49(4) . . .
47(4) . . .
44(4) . . .
35.6(31) . . .
44(4) . . .
36.2(32) . . .
45(4) . . .
47(4) . . .
59(4) . . .
57(4) . . .
43.1(35) . . .
53(4) . . .
42.2(34) . . .
42.4(33) . . .
50(4) . . .
43.6(35) . . .
53(4) . . .
53(4) . . .
52(4) . . .
51(4) . . .
43(4) . . .
42(4) . . .
45(4) . . .
39.1(33) . . .
52(4) . . .
54(4) . . .
50(4) . . .
48(4) . . .
40.7(33) . . .
42(4) . . .
48(4) . . .
53(4) . . .
44(4) . . .
48(4) . . .
48(4) . . .
39.6(34) . . .
40.4(33) . . .
47(4) . . .
47(4) . . .
44.1(35) . . .
41(4) . . .
48(4) . . .
53(4) . . .
54(4) . . .
44(4) . . .
41.9(35) . . .
45(4) . . .
46.2(35) . . .
44.8(35) . . .
50(4) . . .
51(4) . . .
44(4) . . .
54(4) . . .
42.7(34) . . .
43(4) . . .
46(4) . . .
43.7(35) . . .
38.8(33) . . .
41.7(35) . . .
39.5(33) . . .
40.7(33) . . .
46(4) . . .
42.6(34) . . .
50(4) . . .
50(4) . . .
43(4) . . .
51(4) . . .
44.4(35) . . .
43(4) . . .
42.3(35) . . .
42.4(34) . . .
45(4) . . .
57(4) . . .
57(4) . . .
53(4) . . .
46(4) . . .
54(4) . . .
47(4) . . .
44.4(35) . . .
51(4) . . .
58(4) . . .
50(4) . . .
40.0(34) . . .
48(4) . . .
49(4) . . .
46(4) . . .
35.9(31) . . .
44(4) . . .
47(4) . . .
46(4) . . .
58(4) . . .
48(4) . . .
42.0(35) . . .
53(4) . . .
52(4) . . .
42.9(35) . . .
52(4) . . .
49(4) . . .
50(4) . . .
46(4) . . .
40.2(34) . . .
38.8(33) . . .
50(4) . . .
47(4) . . .
48(4) . . .
42(4) . . .
44.1(34) . . .
60(4) . . .
40.8(34) . . .
42.3(35) . . .
47(4) . . .
50(4) . . .
51(4) . . .
47(4) . . .
49(4) . . .
53(4) . . .
44.8(35) . . .
42(4) . . .
42(4) . . .
53(4) . . .
49(4) . . .
46.1(35) . . .
44(4) . . .
47(4) . . .
44(4) . . .
55(4) . . .
46(4) . . .
56(4) . . .
51(4) . . .
47(4) . . .
39.6(33) . . .
49(4) . . .
50(4) . . .
47(4) . . .
46(4) . . .
34.4(30) . . .
57(4) . . .
40.5(34) . . .
46(4) . . .
49(4) . . .
50(4) . . .
45.2(35) . . .
42.1(33) . . .
38.9(33) . . .
52(4) . . .
35.5(31) . . .
45.6(35) . . .
42.7(35) . . .
44(4) . . .
40.1(35) . . .
43.3(34) . . .
50(4) . . .
57(4) . . .
52(4) . . .
43.7(35) . . .
54(4) . . .
53(4) . . .
50(4) . . .
54(4) . . .
57(4) . . .
41.8(33) . . .
55(4) . . .
52(4) . . .
46.7(35) . . .
56(4) . . .
47(4) . . .
50(4) . . .
47(4) . . .
50(4) . . .
47(4) . . .
49(4) . . .
51(4) . . .
54(4) . . .
49(4) . . .
42.6(34) . . .
56(4) . . .
47(4) . . .
48(4) . . .
40.5(33) . . .
52(4) . . .
37.9(32) . . .
49(4) . . .
43(4) . . .
43(4) . . .
49(4) . . .
49(4) . . .
37.0(32) . . .
43(4) . . .
44.0(34) . . .
52(4) . . .
48(4) . . .
42(4) . . .
50(4) . . .
43.9(35) . . .
38.1(32) . . .
40.5(33) . . .
43.9(35) . . .
63(5) . . .
52(4) . . .
45(4) . . .
56(4) . . .
54(4) . . .
43(4) . . .
44(4) . . .
45.7(35) . . .
46(4) . . .
52(4) . . .
51(4) . . .
50(4) . . .
44.5(35) . . .
47(4) . . .
48(4) . . .
48(4) . . .
50(4) . . .
42.7(35) . . .
51(4) . . .
49(4) . . .
46(4) . . .
42(4) . . .
56(4) . . .
54(4) . . .
50(4) . . .
38.5(33) . . .
46(4) . . .
44.0(34) . . .
51(4) . . .
48(4) . . .
46(4) . . .
49(4) . . .
49(4) . . .
59(4) . . .
50(4) . . .
48(4) . . .
50(4) . . .
51(4) . . .
46(4) . . .
41(4) . . .
39.9(33) . . .
42.1(33) . . .
50(4) . . .
54(4) . . .
49(4) . . .
44.6(34) . . .
53(4) . . .
45(4) . . .
50(4) . . .
38.8(34) . . .
46(4) . . .
41.9(34) . . .
42.8(34) . . .
51(4) . . .
42(4) . . .
44(4) . . .
45(4) . . .
52(4) . . .
51(4) . . .
41.5(34) . . .
41(4) . . .
41.6(33) . . .
48(4) . . .
47(4) . . .
57(4) . . .
42.3(34) . . .
41.7(34) . . .
59(4) . . .
48(4) . . .
42.5(34) . . .
51(4) . . .
40.3(33) . . .
46(4) . . .
39.4(34) . . .
47(4) . . .
42.7(34) . . .
44.4(34) . . .
39.0(34) . . .
43(4) . . .
51(4) . . .
41.7(35) . . .
51(4) . . .
42(4) . . .
52(4) . . .
44(4) . . .
55(4) . . .
40.4(33) . . .
39.0(34) . . .
56(4) . . .
45.0(35) . . .
51(4) . . .
50(4) . . .
46(4) . . .
49(4) . . .
44.5(35) . . .
42.7(35) . . .
34.3(31) . . .
51(4) . . .
49(4) . . .
50(4) . . .
47(4) . . .
42.2(35) . . .
44(4) . . .
44(4) . . .
46(4) . . .
53(4) . . .
49(4) . . .
53(4) . . .
48(4) . . .
42(4) . . .
50(4) . . .
45.3(35) . . .
40.0(33) . . .
35.0(31) . . .
49(4) . . .
48(4) . . .
52(4) . . .
48(4) . . .
43.3(33) . . .
58(4) . . .
54(4) . . .
47(4) . . .
47(4) . . .
58(4) . . .
43.7(34) . . .
46(4) . . .
43.6(35) . . .
47(4) . . .
50(4) . . .
48(4) . . .
41.3(34) . . .
56(4) . . .
46(4) . . .
47(4) . . .
47(4) . . .
49(4) . . .
51(4) . . .
52(4) . . .
45(4) . . .
43(4) . . .
46(4) . . .
47(4) . . .
38.5(33) . . .
44.9(34) . . .
42.0(33) . . .
47(4) . . .
45(4) . . .
41(4) . . .
50(4) . . .
46(4) . . .
39.4(32) . . .
38.1(32) . . .
51(4) . . .
42(4) . . .
51(4) . . .
47(4) . . .
54(4) . . .
49(4) . . .
53(4) . . .
45.0(35) . . .
42.2(34) . . .
41.3(35) . . .
46(4) . . .
42.5(35) . . .
42.4(34) . . .
47(4) . . .
40.9(35) . . .
40.8(33) . . .
42.4(34) . . .
41.6(33) . . .
54(4) . . .
54(4) . . .
40.0(34) . . .
42.6(34) . . .
40.9(33) . . .
38.6(34) . . .
45(4) . . .
38.6(34) . . .
49(4) . . .
48(4) . . .
54(4) . . .
46(4) . . .
46(4) . . .
51(4) . . .
39.8(33) . . .
39.5(33) . . .
40.3(35) . . .
47(4) . . .
44.9(35) . . .
51(4) . . .
52(4) . . .
53(4) . . .
47(4) . . .
35.7(31) . . .
40.3(33) . . .
50(4) . . .
50(4) . . .
54(4) . . .
52(4) . . .
55(4) . . .
43(4) . . .
40.1(33) . . .
48(4) . . .
50(4) . . .
47(4) . . .
43.1(35) . . .
44(4) . . .
42(4) . . .
44.8(34) . . .
52(4) . . .
47(4) . . .
52(4) . . .
44.3(35) . . .
47(4) . . .
46(4) . . .
47(4) . . .
51(4) . . .
51(4) . . .
43.2(34) . . .
48(4) . . .
44(4) . . .
46(4) . . .
40.8(34) . . .
45(4) . . .
47(4) . . .
49(4) . . .
45(4) . . .
46(4) . . .
46(4) . . .
47(4) . . .
44(4) . . .
47(4) . . .
50(4) . . .
48(4) . . .
40.0(33) . . .
44(4) . . .
48(4) . . .
43.3(34) . . .
38.9(33) . . .
48(4) . . .
43(4) . . .
42.2(34) . . .
48(4) . . .
60(4) . . .
57(4) . . .
46(4) . . .
50(4) . . .
54(4) . . .
43.5(34) . . .
49(4) . . .
47(4) . . .
34.3(31) . . .
54(4) . . .
57(4) . . .
53(4) . . .
52(4) . . .
43.3(35) . . .
47(4) . . .
50(4) . . .
43.2(35) . . .
46(4) . . .
57(4) . . .
50(4) . . .
42.0(34) . . .
46(4) . . .
38.0(33) . . .
46(4) . . .
40.9(33) . . .
49(4) . . .
47(4) . . .
48(4) . . .
57(4) . . .
52(4) . . .
52(4) . . .
48(4) . . .
46(4) . . .
48(4) . . .
51(4) . . .
50(4) . . .
51(4) . . .
46.7(35) . . .
48(4) . . .
48(4) . . .
49(4) . . .
48(4) . . .
41.4(34) . . .
51(4) . . .
51(4) . . .
53(4) . . .
41.4(34) . . .
44(4) . . .
49(4) . . .
40.5(34) . . .
35.9(32) . . .
49(4) . . .
48(4) . . .
42.5(35) . . .
36.4(32) . . .
41.6(34) . . .
51(4) . . .
41.5(35) . . .
39.0(33) . . .
37.0(31) . . .
46(4) . . .
45(4) . . .
48(4) . . .
56(4) . . .
49(4) . . .
41.9(35) . . .
39.2(34) . . .
47(4) . . .
48(4) . . .
46(4) . . .
44(4) . . .
51(4) . . .
43.0(34) . . .
40.5(33) . . .
42.9(34) . . .
55(4) . . .
52(4) . . .
48(4) . . .
46.2(35) . . .
47(4) . . .
43(4) . . .
43.1(34) . . .
42.0(34) . . .
44.6(35) . . .
50(4) . . .
40.3(35) . . .
54(4) . . .
48(4) . . .
34.5(30) . . .
42.9(35) . . .
45(4) . . .
47(4) . . .
42.8(33) . . .
44.2(35) . . .
43(4) . . .
48(4) . . .
44(4) . . .
51(4) . . .
45.7(35) . . .
47(4) . . .
52(4) . . .
38.3(32) . . .
40.0(33) . . .
56(4) . . .
46(4) . . .
41.8(35) . . .
42.4(34) . . .
43.2(34) . . .
45.3(35) . . .
52(4) . . .
48(4) . . .
54(4) . . .
46(4) . . .
51(4) . . .
46(4) . . .
47(4) . . .
48(4) . . .
44.4(35) . . .
48(4) . . .
44(4) . . .
46(4) . . .
49(4) . . .
49(4) . . .
53(4) . . .
41.0(32) . . .
53(4) . . .
43.8(35) . . .
43.9(35) . . .
37.6(33) . . .
56(4) . . .
38.8(33) . . .
43(4) . . .
39.5(33) . . .
55(4) . . .
46(4) . . .
51(4) . . .
42.4(34) . . .
53(4) . . .
45(4) . . .
53(4) . . .
44(4) . . .
45(4) . . .
57(4) . . .
45(4) . . .
44.0(35) . . .
46(4) . . .
36.5(32) . . .
39.6(33) . . .
42.8(34) . . .
45(4) . . .
53(4) . . .
43.5(34) . . .
42.2(34) . . .
41.2(35) . . .
41.4(33) . . .
47(4) . . .
53(4) . . .
47(4) . . .
47(4) . . .
48(4) . . .
55(4) . . .
43.9(35) . . .
49(4) . . .
47(4) . . .
54(4) . . .
58(4) . . .
48(4) . . .
52(4) . . .
54(4) . . .
46(4) . . .
47(4) . . .
46(4) . . .
38.4(33) . . .
51(4) . . .
49(4) . . .
46(4) . . .
36.1(32) . . .
41.2(33) . . .
47(4) . . .
46(4) . . .
46(4) . . .
37.8(33) . . .
40.7(33) . . .
49(4) . . .
52(4) . . .
46.4(35) . . .
45(4) . . .
38(4) . . .
47(4) . . .
45(4) . . .
54(4) . . .
49(4) . . .
37.7(32) . . .
50(4) . . .
55(4) . . .
48(4) . . .
42.4(34) . . .
52(4) . . .
52(4) . . .
37.6(32) . . .
48(4) . . .
49(4) . . .
44(4) . . .
54(4) . . .
41.1(34) . . .
43.5(34) . . .
46(4) . . .
43.4(35) . . .
57(4) . . .
50(4) . . .
46(4) . . .
47(4) . . .
62(4) . . .
42.3(35) . . .
51(4) . . .
58(4) . . .
48(4) . . .
48(4) . . .
39.9(34) . . .
45(4) . . .
42.3(34) . . .
47(4) . . .
38.4(32) . . .
44(4) . . .
44(4) . . .
44.8(35) . . .
48(4) . . .
52(4) . . .
45(4) . . .
53(4) . . .
49(4) . . .
48(4) . . .
36.6(31) . . .
44(4) . . .
51(4) . . .
41.8(33) . . .
48(4) . . .
40.1(34) . . .
37.7(32) . . .
46(4) . . .
48(4) . . .
41(4) . . .
48(4) . . .
42.6(35) . . .
52(4) . . .
43.6(35) . . .
52(4) . . .
46(4) . . .
46(4) . . .
52(4) . . .
45.1(34) . . .
38.2(32) . . .
39.4(34) . . .
47(4) . . .
37.1(31) . . .
50(4) . . .
43(4) . . .
40.2(33) . . .
47(4) . . .
47(4) . . .
45(4) . . .
52(4) . . .
37.6(33) . . .
43.5(35) . . .
57(4) . . .
52(4) . . .
47(4) . . .
46(4) . . .
43(4) . . .
46(4) . . .
47(4) . . .
43.0(35) . . .
39.0(35) . . .
38.8(34) . . .
44.3(34) . . .
48(4) . . .
50(4) . . .
50(4) . . .
49(4) . . .
48(4) . . .
47(4) . . .
46(4) . . .
46(4) . . .
38.9(33) . . .
41.5(34) . . .
56(4) . . .
56(4) . . .
43.3(35) . . .
41.6(34) . . .
43.5(34) . . .
45(4) . . .
39.0(33) . . .
49(4) . . .
45.5(35) . . .
44(4) . . .
41.3(34) . . .
38.3(35) . . .
35.8(32) . . .
52(4) . . .
41.7(34) . . .
54(4) . . .
50(4) . . .
49(4) . . .
41.2(33) . . .
40.3(33) . . .
47(4) . . .
41.0(34) . . .
52(4) . . .
49(4) . . .
38.2(32) . . .
53(4) . . .
52(4) . . .
48(4) . . .
45.0(35) . . .
45.2(34) . . .
47(4) . . .
40.7(34) . . .
53(4) . . .
45(4) . . .
38.8(33) . . .
44(4) . . .
56(4) . . .
37.8(32) . . .
50(4) . . .
51(4) . . .
51(4) . . .
45(4) . . .
49(4) . . .
47(4) . . .
44(4) . . .
45(4) . . .
47(4) . . .
40.7(33) . . .
37.6(32) . . .
38.8(33) . . .
43(4) . . .
48(4) . . .
49(4) . . .
53(4) . . .
57(4) . . .
43.3(34) . . .
57(4) . . .
50(4) . . .
51(4) . . .
53(4) . . .
43(4) . . .
45(4) . . .
51(4) . . .
42.9(34) . . .
50(4) . . .
44(4) . . .
50(4) . . .
53(4) . . .
34.5(31) . . .
38(4) . . .
55(4) . . .
40.7(35) . . .
46(4) . . .
45.1(35) . . .
49(4) . . .
42(4) . . .
46(4) . . .
52(4) . . .
46(4) . . .
48(4) . . .
48(4) . . .
40.3(35) . . .
62(4) . . .
47(4) . . .
45(4) . . .
43(4) . . .
51(4) . . .
41.3(34) . . .
42.0(34) . . .
58(4) . . .
49(4) . . .
46(4) . . .
45(4) . . .
38.9(32) . . .
44(4) . . .
42.5(35) . . .
47(4) . . .
45.9(35) . . .
47(4) . . .
36.6(31) . . .
42.0(34) . . .
45(4) . . .
50(4) . . .
48(4) . . .
55(4) . . .
44(4) . . .
47(4) . . .
39.8(32) . . .
42(4) . . .
42(4) . . .
45(4) . . .
44.0(34) . . .
41.4(33) . . .
47(4) . . .
45(4) . . .
48(4) . . .
51(4) . . .
39.8(33) . . .
48(4) . . .
51(4) . . .
54(4) . . .
45(4) . . .
49(4) . . .
49(4) . . .
53(4) . . .
51(4) . . .
51(4) . . .
47(4) . . .
52(4) . . .
55(4) . . .
48(4) . . .
39.3(33) . . .
51(4) . . .
46(4) . . .
54(4) . . .
49(4) . . .
39.8(33) . . .
47(4) . . .
50(4) . . .
51(4) . . .
49(4) . . .
49(4) . . .
45(4) . . .
48(4) . . .
49(4) . . .
49(4) . . .
42.9(34) . . .
46(4) . . .
53(4) . . .
45(4) . . .
46(4) . . .
47(4) . . .
53(4) . . .
45(4) . . .
43.2(34) . . .
46(4) . . .
49(4) . . .
38.6(33) . . .
56(4) . . .
47(4) . . .
57(4) . . .
52(4) . . .
34.6(32) . . .
51(4) . . .
47(4) . . .
43(4) . . .
35.8(30) . . .
36.8(32) . . .
41.2(34) . . .
54(4) . . .
41.8(34) . . .
54(4) . . .
44.5(34) . . .
46(4) . . .
47(4) . . .
42.2(33) . . .
50(4) . . .
50(4) . . .
61(4) . . .
50(4) . . .
47(4) . . .
37.3(33) . . .
52(4) . . .
42.5(35) . . .
43.3(35) . . .
39.5(32) . . .
40(4) . . .
46(4) . . .
47(4) . . .
42.7(34) . . .
49(4) . . .
34.6(31) . . .
51(4) . . .
55(4) . . .
48(4) . . .
43.3(34) . . .
42.8(34) . . .
45(4) . . .
40.5(34) . . .
46(4) . . .
44(4) . . .
40.4(33) . . .
50(4) . . .
41(4) . . .
53(4) . . .
46(4) . . .
50(4) . . .
50(4) . . .
58(4) . . .
42(4) . . .
45(4) . . .
51(4) . . .
43(4) . . .
45(4) . . .
52(4) . . .
54(4) . . .
47(4) . . .
50(4) . . .
48(4) . . .
32.4(29) . . .
50(4) . . .
45(4) . . .
37.2(33) . . .
44.9(35) . . .
50(4) . . .
55(4) . . .
38.4(33) . . .
35.5(33) . . .
40(4) . . .
53(4) . . .
43.2(34) . . .
41.1(35) . . .
43(4) . . .
45(4) . . .
51(4) . . .
57(4) . . .
52(4) . . .
51(4) . . .
47(4) . . .
44.1(35) . . .
42(4) . . .
42(4) . . .
40.7(35) . . .
48(4) . . .
50(4) . . .
40.6(33) . . .
41.3(34) . . .
49(4) . . .
40.7(34) . . .
44.1(35) . . .
54(4) . . .
48(4) . . .
56(4) . . .
46(4) . . .
39.9(33) . . .
43.1(35) . . .
56(4) . . .
44.0(34) . . .
52(4) . . .
38.2(32) . . .
42(4) . . .
66(5) . . .
57(4) . . .
51(4) . . .
41.2(34) . . .
48(4) . . .
47(4) . . .
37.6(32) . . .
52(4) . . .
39.8(32) . . .
49(4) . . .
50(4) . . .
44(4) . . .
41.5(33) . . .
39.8(33) . . .
48(4) . . .
48(4) . . .
48(4) . . .
51(4) . . .
42(4) . . .
37.0(34) . . .
51(4) . . .
51(4) . . .
47(4) . . .
48(4) . . .
49(4) . . .
45(4) . . .
42.0(34) . . .
58(4) . . .
43.7(35) . . .
46(4) . . .
46(4) . . .
50(4) . . .
50(4) . . .
47(4) . . .
53(4) . . .
56(4) . . .
50(4) . . .
42.6(34) . . .
49(4) . . .
48(4) . . .
50(4) . . .
45(4) . . .
46(4) . . .
51(4) . . .
41.1(35) . . .
42(4) . . .
36.0(31) . . .
34.9(31) . . .
51(4) . . .
49(4) . . .
49(4) . . .
35.1(31) . . .
38.8(32) . . .
34.7(31) . . .
44(4) . . .
44.8(34) . . .
40.4(33) . . .
51(4) . . .
58(4) . . .
39.3(34) . . .
52(4) . . .
46(4) . . .
38.5(32) . . .
42.8(35) . . .
48(4) . . .
49(4) . . .
40.3(33) . . .
50(4) . . .
39.9(34) . . .
45(4) . . .
47(4) . . .
39.0(33) . . .
38.8(33) . . .
43(4) . . .
43.5(35) . . .
61(4) . . .
53(4) . . .
42.1(35) . . .
44(4) . . .
47(4) . . .
53(4) . . .
50(4) . . .
50(4) . . .
46(4) . . .
38.7(33) . . .
31.8(31) . . .
49(4) . . .
56(4) . . .
54(4) . . .
45(4) . . .
39.2(33) . . .
40.5(33) . . .
50(4) . . .
50(4) . . .
49(4) . . .
46(4) . . .
47(4) . . .
45(4) . . .
44(4) . . .
46(4) . . .
31.8(31) . . .
42.8(34) . . .
50(4) . . .
52(4) . . .
35.0(31) . . .
42.2(34) . . .
46(4) . . .
50(4) . . .
57(4) . . .
42.1(35) . . .
42.1(35) . . .
48(4) . . .
43.4(35) . . .
43(4) . . .
51(4) . . .
45.1(35) . . .
56(4) . . .
39.3(33) . . .
48(4) . . .
47(4) . . .
47(4) . . .
40.1(33) . . .
44(4) . . .
53(4) . . .
50(4) . . .
52(4) . . .
39.4(33) . . .
48(4) . . .
42.9(34) . . .
39.5(35) . . .
42.8(34) . . .
48(4) . . .
46(4) . . .
57(4) . . .
50(4) . . .
48(4) . . .
43(4) . . .
42(4) . . .
44(4) . . .
35.5(32) . . .
43.5(35) . . .
50(4) . . .
62(4) . . .
49(4) . . .
41.3(33) . . .
39.9(33) . . .
45(4) . . .
40.4(33) . . .
55(4) . . .
47(4) . . .
56(4) . . .
58(4) . . .
48(4) . . .
42.2(34) . . .
42.1(33) . . .
48(4) . . .
41.7(34) . . .
52(4) . . .
48(4) . . .
40.2(34) . . .
40.7(34) . . .
46(4) . . .
52(4) . . .
53(4) . . .
39.1(33) . . .
35.6(31) . . .
41.8(34) . . .
50(4) . . .
46(4) . . .
51(4) . . .
52(4) . . .
47(4) . . .
37.5(34) . . .
50(4) . . .
50(4) . . .
44.1(35) . . .
50(4) . . .
45(4) . . .
44(4) . . .
49(4) . . .
52(4) . . .
36.8(34) . . .
42(4) . . .
52(4) . . .
46(4) . . .
42.8(35) . . .
41(4) . . .
38.1(33) . . .
50(4) . . .
49(4) . . .
47(4) . . .
41.0(34) . . .
44(4) . . .
47(4) . . .
50(4) . . .
40.0(34) . . .
47(4) . . .
53(4) . . .
56(4) . . .
53(4) . . .
40.3(34) . . .
46(4) . . .
38.3(32) . . .
47(4) . . .
47(4) . . .
53(4) . . .
41.4(35) . . .
52(4) . . .
47(4) . . .
48(4) . . .
43.2(35) . . .
53(4) . . .
49(4) . . .
41.5(34) . . .
49(4) . . .
43.9(35) . . .
48(4) . . .
44(4) . . .
49(4) . . .
49(4) . . .
37.6(31) . . .
40.0(33) . . .
48(4) . . .
48(4) . . .
59(4) . . .
38.6(33) . . .
40.5(34) . . .
46(4) . . .
42.9(35) . . .
35.8(31) . . .
51(4) . . .
41.2(35) . . .
45(4) . . .
49(4) . . .
43.3(34) . . .
52(4) . . .
44.0(35) . . .
49(4) . . .
38.5(33) . . .
45.8(35) . . .
43(4) . . .
44(4) . . .
50(4) . . .
47(4) . . .
59(4) . . .
45(4) . . .
44.1(34) . . .
50(4) . . .
49(4) . . .
42.0(34) . . .
49(4) . . .
43.0(35) . . .
44(4) . . .
49(4) . . .
42.8(35) . . .
44(4) . . .
52(4) . . .
41.3(33) . . .
50(4) . . .
46(4) . . .
44(4) . . .
50(4) . . .
53(4) . . .
43.6(34) . . .
42.8(35) . . .
42(4) . . .
41.1(35) . . .
37.7(32) . . .
42.5(34) . . .
33.4(30) . . .
38.2(32) . . .
44.5(35) . . .
46(4) . . .
54(4) . . .
42.2(34) . . .
38.5(34) . . .
42(4) . . .
52(4) . . .
38.2(33) . . .
40(4) . . .
41(4) . . .
46(4) . . .
51(4) . . .
42.4(34) . . .
45(4) . . .
51(4) . . .
55(4) . . .
46(4) . . .
49(4) . . .
50(4) . . .
50(4) . . .
49(4) . . .
41.0(33) . . .
39.0(33) . . .
51(4) . . .
51(4) . . .
47(4) . . .
48(4) . . .
40.8(35) . . .
45(4) . . .
46(4) . . .
52(4) . . .
50(4) . . .
49(4) . . .
50(4) . . .
43(4) . . .
46.8(35) . . .
37.7(33) . . .
45(4) . . .
45(4) . . .
46(4) . . .
40.7(33) . . .
41.3(33) . . .
48(4) . . .
50(4) . . .
44(4) . . .
51(4) . . .
38.1(32) . . .
44(4) . . .
45(4) . . .
44.9(35) . . .
46(4) . . .
43.1(34) . . .
38.6(34) . . .
48(4) . . .
55(4) . . .
39.3(33) . . .
42.3(34) . . .
48(4) . . .
48(4) . . .
43(4) . . .
46(4) . . .
46(4) . . .
44(4) . . .
47(4) . . .
44(4) . . .
41.7(34) . . .
48(4) . . .
48(4) . . .
40.4(33) . . .
36.0(32) . . .
41.3(34) . . .
40.5(34) . . .
44(4) . . .
44.4(35) . . .
48(4) . . .
51(4) . . .
44(4) . . .
49(4) . . .
44(4) . . .
44(4) . . .
36.5(31) . . .
39.8(33) . . .
41.7(35) . . .
43(4) . . .
44(4) . . .
51(4) . . .
54(4) . . .
42(4) . . .
50(4) . . .
39.5(34) . . .
39.1(33) . . .
43(4) . . .
51(4) . . .
45(4) . . .
47(4) . . .
53(4) . . .
40.3(34) . . .
46(4) . . .
41.6(34) . . .
52(4) . . .
44.8(35) . . .
47(4) . . .
46(4) . . .
44(4) . . .
40.5(33) . . .
48(4) . . .
53(4) . . .
44(4) . . .
47(4) . . .
51(4) . . .
48(4) . . .
39.6(33) . . .
50(4) . . .
50(4) . . .
40.9(34) . . .
47(4) . . .
53(4) . . .
43(4) . . .
48(4) . . .
39.6(33) . . .
37.9(33) . . .
40.8(34) . . .
46(4) . . .
46(4) . . .
51(4) . . .
44(4) . . .
36.8(34) . . .
41(4) . . .
43.4(34) . . .
50(4) . . .
39.8(35) . . .
34.4(34) . . .
37.1(32) . . .
52(4) . . .
48(4) . . .
46(4) . . .
49(4) . . .
49(4) . . .
47(4) . . .
56(4) . . .
52(4) . . .
45(4) . . .
40.7(34) . . .
57(4) . . .
46(4) . . .
56(4) . . .
41(4) . . .
45(4) . . .
40.4(34) . . .
39.8(33) . . .
49(4) . . .
42(4) . . .
45(4) . . .
44.2(34) . . .
43.7(35) . . .
53(4) . . .
52(4) . . .
57(4) . . .
39.0(33) . . .
48(4) . . .
45(4) . . .
49(4) . . .
47(4) . . .
39.7(33) . . .
45(4) . . .
42.0(34) . . .
50(4) . . .
57(4) . . .
46(4) . . .
39.4(33) . . .
41(4) . . .
51(4) . . .
46(4) . . .
41.1(33) . . .
40.5(34) . . .
45(4) . . .
48(4) . . .
52(4) . . .
43.4(34) . . .
47(4) . . .
39.5(34) . . .
48(4) . . .
53(4) . . .
41.9(33) . . .
46(4) . . .
36.5(32) . . .
48(4) . . .
43.2(34) . . .
36.4(32) . . .
41.1(34) . . .
44(4) . . .
43.8(35) . . .
48(4) . . .
46(4) . . .
43(4) . . .
43(4) . . .
48(4) . . .
39.9(33) . . .
51(4) . . .
57(4) . . .
47(4) . . .
51(4) . . .
48(4) . . .
49(4) . . .
53(4) . . .
52(4) . . .
53(4) . . .
57(4) . . .
47(4) . . .
49(4) . . .
45(4) . . .
47(4) . . .
34.9(31) . . .
39.4(32) . . .
41.0(33) . . .
44(4) . . .
48(4) . . .
40.9(34) . . .
34.2(30) . . .
53(4) . . .
55(4) . . .
44(4) . . .
46(4) . . .
50(4) . . .
45(4) . . .
43(4) . . .
43.6(34) . . .
42.0(34) . . .
54(4) . . .
56(4) . . .
52(4) . . .
58(4) . . .
52(4) . . .
47(4) . . .
55(4) . . .
40.2(34) . . .
43.9(35) . . .
51(4) . . .
48(4) . . .
45(4) . . .
41.8(34) . . .
42.8(34) . . .
42.6(34) . . .
44(4) . . .
55(4) . . .
45(4) . . .
41.3(33) . . .
49(4) . . .
50(4) . . .
52(4) . . .
51(4) . . .
41.0(34) . . .
46(4) . . .
50(4) . . .
46(4) . . .
50(4) . . .
45.5(35) . . .
54(4) . . .
49(4) . . .
46(4) . . .
43.4(34) . . .
43.3(34) . . .
50(4) . . .
52(4) . . .
46(4) . . .
44(4) . . .
44.9(35) . . .
49(4) . . .
42.2(35) . . .
42.1(34) . . .
45.3(35) . . .
48(4) . . .
44(4) . . .
40.3(34) . . .
39(4) . . .
44(4) . . .
32.3(30) . . .
45(4) . . .
44(4) . . .
42.8(34) . . .
49(4) . . .
40.9(33) . . .
48(4) . . .
49(4) . . .
49(4) . . .
49(4) . . .
52(4) . . .
46(4) . . .
55(4) . . .
45(4) . . .
45.0(35) . . .
38.8(33) . . .
54(4) . . .
46(4) . . .
47(4) . . .
50(4) . . .
50(4) . . .
46(4) . . .
41.8(35) . . .
50(4) . . .
63(4) . . .
42.9(34) . . .
48(4) . . .
46(4) . . .
46(4) . . .
38.2(33) . . .
39.6(33) . . .
38.4(34) . . .
39.4(34) . . .
45(4) . . .
41.1(33) . . .
49(4) . . .
54(4) . . .
54(4) . . .
47(4) . . .
44.5(34) . . .
47(4) . . .
41.0(34) . . .
40.0(33) . . .
37.5(33) . . .
39.9(33) . . .
42.9(34) . . .
46(4) . . .
42(4) . . .
38.9(34) . . .
51(4) . . .
37.6(33) . . .
53(4) . . .
48(4) . . .
36.9(33) . . .
48(4) . . .
45(4) . . .
51(4) . . .
47(4) . . .
49(4) . . .
49(4) . . .
46(4) . . .
43(4) . . .
50(4) . . .
45.0(34) . . .
46(4) . . .
41.5(35) . . .
44(4) . . .
51(4) . . .
51(4) . . .
52(4) . . .
45(4) . . .
48(4) . . .
44(4) . . .
48(4) . . .
49(4) . . .
47(4) . . .
56(4) . . .
45(4) . . .
49(4) . . .
55(4) . . .
45(4) . . .
48(4) . . .
48(4) . . .
41.4(33) . . .
38.1(32) . . .
40.0(35) . . .
44(4) . . .
46(4) . . .
45.1(35) . . .
40.4(33) . . .
50(4) . . .
48(4) . . .
44(4) . . .
42.9(35) . . .
55(4) . . .
43.2(35) . . .
55(4) . . .
47(4) . . .
39.6(33) . . .
46.5(35) . . .
51(4) . . .
49(4) . . .
41.8(34) . . .
52(4) . . .
59(4) . . .
48(4) . . .
45(4) . . .
44.0(35) . . .
41.2(34) . . .
38.3(33) . . .
54(4) . . .
50(4) . . .
45(4) . . .
46.0(35) . . .
49(4) . . .
47(4) . . .
39.6(33) . . .
39.5(33) . . .
48(4) . . .
50(4) . . .
41(4) . . .
51(4) . . .
40.3(33) . . .
39.1(34) . . .
47(4) . . .
45(4) . . .
42(4) . . .
55(4) . . .
48(4) . . .
48(4) . . .
49(4) . . .
55(4) . . .
57(4) . . .
52(4) . . .
47(4) . . .
34.0(32) . . .
51(4) . . .
44.7(35) . . .
51(4) . . .
45(4) . . .
53(4) . . .
46(4) . . .
45.4(35) . . .
40.4(35) . . .
53(4) . . .
38.2(35) . . .
47(4) . . .
57(4) . . .
46(4) . . .
49(4) . . .
48(4) . . .
46(4) . . .
47(4) . . .
37.1(33) . . .
39.2(35) . . .
40.5(35) . . .
40.8(33) . . .
44.1(34) . . .
56(4) . . .
51(4) . . .
44(4) . . .
43.2(34) . . .
49(4) . . .
47(4) . . .
40.1(34) . . .
46(4) . . .
41.2(34) . . .
39.8(33) . . .
47(4) . . .
43(4) . . .
44.3(35) . . .
46.4(35) . . .
46(4) . . .
47(4) . . .
46(4) . . .
43.6(35) . . .
49(4) . . .
51(4) . . .
49(4) . . .
42.6(35) . . .
46(4) . . .
49(4) . . .
51(4) . . .
48(4) . . .
44(4) . . .
51(4) . . .
51(4) . . .
40.8(34) . . .
39.7(35) . . .
48(4) . . .
42.2(34) . . .
47(4) . . .
45(4) . . .
47(4) . . .
40.3(34) . . .
36.3(33) . . .
46(4) . . .
52(4) . . .
44(4) . . .
40.8(35) . . .
53(4) . . .
50(4) . . .
44(4) . . .
49(4) . . .
55(4) . . .
40.0(33) . . .
53(4) . . .
47(4) . . .
48(4) . . .
45(4) . . .
39.6(33) . . .
45(4) . . .
52(4) . . .
44(4) . . .
40.2(33) . . .
48(4) . . .
51(4) . . .
45.4(35) . . .
51(4) . . .
47(4) . . .
41.8(34) . . .
40.0(33) . . .
41.7(33) . . .
50(4) . . .
51(4) . . .
50(4) . . .
34.3(30) . . .
50(4) . . .
50(4) . . .
39.0(33) . . .
47(4) . . .
45(4) . . .
39.5(34) . . .
54(4) . . .
43.2(35) . . .
38.9(33) . . .
45(4) . . .
53(4) . . .
53(4) . . .
41.7(34) . . .
45(4) . . .
50(4) . . .
47(4) . . .
62(5) . . .
38.7(33) . . .
45(4) . . .
56(4) . . .
51(4) . . .
43(4) . . .
45(4) . . .
47(4) . . .
39.3(34) . . .
50(4) . . .
43(4) . . .
56(4) . . .
47(4) . . .
51(4) . . .
47(4) . . .
49(4) . . .
46(4) . . .
48(4) . . .
52(4) . . .
47(4) . . .
43.1(35) . . .
41.9(34) . . .
48(4) . . .
39.3(34) . . .
48(4) . . .
41.8(34) . . .
38.3(32) . . .
42.6(34) . . .
46(4) . . .
52(4) . . .
38.0(35) . . .
46(4) . . .
45(4) . . .
36.9(33) . . .
46(4) . . .
52(4) . . .
46(4) . . .
42.3(34) . . .
50(4) . . .
49(4) . . .
39.3(33) . . .
43.1(33) . . .
42.0(34) . . .
47(4) . . .
40.3(33) . . .
46(4) . . .
45(4) . . .
55(4) . . .
51(4) . . .
44(4) . . .
43.9(34) . . .
42.4(34) . . .
44.7(35) . . .
48(4) . . .
44(4) . . .
38.9(32) . . .
45(4) . . .
54(4) . . .
51(4) . . .
50(4) . . .
50(4) . . .
43.3(35) . . .
47(4) . . .
55(4) . . .
38.0(31) . . .
46(4) . . .
41.1(33) . . .
38(4) . . .
44(4) . . .
43(4) . . .
45(4) . . .
40.1(34) . . .
44(4) . . .
39.0(34) . . .
41.5(34) . . .
40.5(33) . . .
43.0(34) . . .
36.9(33) . . .
40(4) . . .
50(4) . . .
43.7(34) . . .
39.5(33) . . .
48(4) . . .
43(4) . . .
41.7(35) . . .
51(4) . . .
52(4) . . .
48(4) . . .
47(4) . . .
46(4) . . .
50(4) . . .
50(4) . . .
47(4) . . .
51(4) . . .
44.4(35) . . .
42.1(34) . . .
40.7(33) . . .
40.5(35) . . .
45(4) . . .
51(4) . . .
44.9(35) . . .
48(4) . . .
49(4) . . .
50(4) . . .
51(4) . . .
45.9(35) . . .
44.0(35) . . .
57(4) . . .
51(4) . . .
48(4) . . .
46(4) . . .
48(4) . . .
50(4) . . .
49(4) . . .
42.2(34) . . .
41.3(33) . . .
39.3(34) . . .
39.8(35) . . .
48(4) . . .
44(4) . . .
53(4) . . .
48(4) . . .
46(4) . . .
46(4) . . .
41.8(34) . . .
47(4) . . .
43(4) . . .
46(4) . . .
43.6(34) . . .
41.9(34) . . .
49(4) . . .
37.1(34) . . .
41(4) . . .
46(4) . . .
35.8(31) . . .
54(4) . . .
46(4) . . .
51(4) . . .
46(4) . . .
39.8(33) . . .
50(4) . . .
35.3(32) . . .
41.8(35) . . .
44(4) . . .
43.9(34) . . .
50(4) . . .
30.6(29) . . .
40(4) . . .
48(4) . . .
53(4) . . .
48(4) . . .
55(4) . . .
45(4) . . .
44(4) . . .
41.9(33) . . .
39.2(32) . . .
50(4) . . .
41(4) . . .
50(4) . . .
47(4) . . .
43(4) . . .
49(4) . . .
40.1(34) . . .
51(4) . . .
52(4) . . .
50(4) . . .
41(4) . . .
44.2(35) . . .
38.8(35) . . .
47(4) . . .
51(4) . . .
50(4) . . .
36.6(32) . . .
41.4(34) . . .
48(4) . . .
40.6(35) . . .
40.9(35) . . .
43.3(35) . . .
40.3(33) . . .
49(4) . . .
46(4) . . .
49(4) . . .
45(4) . . .
47(4) . . .
50(4) . . .
42(4) . . .
44(4) . . .
50(4) . . .
41.8(34) . . .
52(4) . . .
53(4) . . .
50(4) . . .
43(4) . . .
46(4) . . .
41(4) . . .
40.5(35) . . .
48(4) . . .
56(4) . . .
58(4) . . .
46(4) . . .
49(4) . . .
44(4) . . .
44(4) . . .
46(4) . . .
40.9(34) . . .
47(4) . . .
50(4) . . .
49(4) . . .
48(4) . . .
41.7(34) . . .
51(4) . . .
35.6(32) . . .
49(4) . . .
55(4) . . .
51(4) . . .
46(4) . . .
57(4) . . .
52(4) . . .
46(4) . . .
50(4) . . .
46(4) . . .
38.5(33) . . .
43.5(34) . . .
48(4) . . .
61(4) . . .
52(4) . . .
51(4) . . .
47(4) . . .
44(4) . . .
47(4) . . .
53(4) . . .
48(4) . . .
51(4) . . .
53(4) . . .
43.3(34) . . .
48(4) . . .
47(4) . . .
51(4) . . .
46(4) . . .
51(4) . . .
37.9(33) . . .
38.8(34) . . .
40.6(33) . . .
49(4) . . .
47(4) . . .
50(4) . . .
41.1(34) . . .
47(4) . . .
42(4) . . .
35.4(31) . . .
46(4) . . .
48(4) . . .
45(4) . . .
42.5(33) . . .
48(4) . . .
53(4) . . .
37.2(33) . . .
46(4) . . .
47(4) . . .
46(4) . . .
39.4(34) . . .
39.8(34) . . .
47(4) . . .
52(4) . . .
50(4) . . .
52(4) . . .
53(4) . . .
50(4) . . .
51(4) . . .
49(4) . . .
50(4) . . .
53(4) . . .
42.9(34) . . .
44(4) . . .
42(4) . . .
47(4) . . .
44.3(35) . . .
36.3(31) . . .
50(4) . . .
43(4) . . .
43.2(34) . . .
45(4) . . .
41.8(33) . . .
43.0(35) . . .
50(4) . . .
43(4) . . .
41.4(34) . . .
35.5(31) . . .
45(4) . . .
48(4) . . .
36.2(32) . . .
45.3(35) . . .
48(4) . . .
49(4) . . .
49(4) . . .
50(4) . . .
46(4) . . .
39.1(34) . . .
49(4) . . .
44(4) . . .
48(4) . . .
51(4) . . .
39.3(33) . . .
56(4) . . .
51(4) . . .
41.1(34) . . .
56(4) . . .
36.4(32) . . .
43(4) . . .
42.0(35) . . .
48(4) . . .
43.5(34) . . .
44(4) . . .
37.2(34) . . .
40.7(34) . . .
46(4) . . .
47(4) . . .
52(4) . . .
48(4) . . .
45(4) . . .
41.2(34) . . .
39.4(32) . . .
40.3(35) . . .
37.0(32) . . .
51(4) . . .
47(4) . . .
39.5(33) . . .
49(4) . . .
52(4) . . .
43.7(34) . . .
43.3(34) . . .
39.5(32) . . .
42.3(34) . . .
43(4) . . .
41.6(34) . . .
55(4) . . .
38.9(32) . . .
51(4) . . .
56(4) . . .
55(4) . . .
43.4(34) . . .
41.1(34) . . .
59(4) . . .
47(4) . . .
43.5(35) . . .
55(4) . . .
45.8(35) . . .
51(4) . . .
54(4) . . .
59(4) . . .
51(4) . . .
46(4) . . .
53(4) . . .
34.7(31) . . .
49(4) . . .
55(4) . . .
56(4) . . .
55(4) . . .
51(4) . . .
44(4) . . .
50(4) . . .
62(4) . . .
45(4) . . .
40.7(35) . . .
41.1(34) . . .
44.9(34) . . .
40.9(34) . . .
47(4) . . .
42.3(35) . . .
46(4) . . .
46.9(35) . . .
54(4) . . .
37.8(33) . . .
40.7(34) . . .
53(4) . . .
44.1(35) . . .
46(4) . . .
37.7(35) . . .
40.7(35) . . .
53(4) . . .
45.1(35) . . .
49(4) . . .
57(4) . . .
43(4) . . .
39.4(33) . . .
52(4) . . .
46(4) . . .
41(4) . . .
41.7(34) . . .
50(4) . . .
55(4) . . .
45(4) . . .
40.3(34) . . .
39.0(35) . . .
42.2(34) . . .
36.0(32) . . .
43(4) . . .
45(4) . . .
46(4) . . .
39.3(32) . . .
46(4) . . .
52(4) . . .
52(4) . . .
48(4) . . .
45.4(35) . . .
45(4) . . .
53(4) . . .
42.5(35) . . .
48(4) . . .
49(4) . . .
52(4) . . .
44(4) . . .
39.1(33) . . .
43.4(35) . . .
39.6(33) . . .
46(4) . . .
48(4) . . .
43(4) . . .
56(4) . . .
46(4) . . .
42.9(34) . . .
52(4) . . .
46(4) . . .
50(4) . . .
44.7(35) . . .
47(4) . . .
55(4) . . .
45(4) . . .
51(4) . . .
49(4) . . .
51(4) . . .
41(4) . . .
47(4) . . .
48(4) . . .
42.1(34) . . .
44(4) . . .
38.4(33) . . .
46(4) . . .
51(4) . . .
51(4) . . .
48(4) . . .
35.8(32) . . .
50(4) . . .
39.2(33) . . .
46(4) . . .
38.3(34) . . .
41(4) . . .
51(4) . . .
48(4) . . .
40.0(34) . . .
41(4) . . .
43(4) . . .
42.5(34) . . .
43.8(34) . . .
46(4) . . .
47(4) . . .
51(4) . . .
41.3(33) . . .
46(4) . . .
41.5(35) . . .
41.0(35) . . .
41.5(34) . . .
45.0(35) . . .
45(4) . . .
48(4) . . .
45(4) . . .
45(4) . . .
46(4) . . .
48(4) . . .
40.8(33) . . .
46(4) . . .
54(4) . . .
43.6(35) . . .
41.8(34) . . .
46(4) . . .
42.5(34) . . .
57(4) . . .
44.7(35) . . .
41.5(33) . . .
47(4) . . .
35.8(33) . . .
45(4) . . .
50(4) . . .
46(4) . . .
42.4(34) . . .
38.5(34) . . .
48(4) . . .
45(4) . . .
38.3(33) . . .
44(4) . . .
46(4) . . .
42.1(34) . . .
41.5(34) . . .
45(4) . . .
43.9(35) . . .
50(4) . . .
41.1(34) . . .
46(4) . . .
51(4) . . .
40.7(33) . . .
51(4) . . .
38.8(33) . . .
53(4) . . .
55(4) . . .
40.5(34) . . .
48(4) . . .
43(4) . . .
51(4) . . .
51(4) . . .
55(4) . . .
47(4) . . .
47(4) . . .
52(4) . . .
55(4) . . .
42(4) . . .
49(4) . . .
54(4) . . .
52(4) . . .
51(4) . . .
39.6(32) . . .
49(4) . . .
47(4) . . .
50(4) . . .
43.0(35) . . .
47(4) . . .
46(4) . . .
39.5(32) . . .
43.5(34) . . .
42.2(34) . . .
41.7(35) . . .
40.7(34) . . .
43.4(34) . . .
43.4(35) . . .
44(4) . . .
44(4) . . .
41(4) . . .
42.5(34) . . .
52(4) . . .
42.6(35) . . .
49(4) . . .
46(4) . . .
48(4) . . .
43(4) . . .
43.2(34) . . .
39.6(33) . . .
48(4) . . .
43.3(34) . . .
53(4) . . .
51(4) . . .
45(4) . . .
47(4) . . .
36.1(31) . . .
50(4) . . .
50(4) . . .
37.3(33) . . .
46(4) . . .
39.8(33) . . .
46(4) . . .
42(4) . . .
48(4) . . .
45(4) . . .
45.0(35) . . .
48(4) . . .
40.0(33) . . .
42(4) . . .
39.2(33) . . .
53(4) . . .
48(4) . . .
51(4) . . .
44(4) . . .
42.6(34) . . .
47(4) . . .
50(4) . . .
48(4) . . .
49(4) . . .
48(4) . . .
53(4) . . .
45(4) . . .
53(4) . . .
38.8(33) . . .
46(4) . . .
45(4) . . .
46(4) . . .
37.5(32) . . .
47(4) . . .
44.8(35) . . .
40.5(33) . . .
47(4) . . .
49(4) . . .
41.7(35) . . .
37.0(32) . . .
49(4) . . .
42.4(35) . . .
57(4) . . .
44.2(34) . . .
52(4) . . .
44.0(35) . . .
44(4) . . .
47(4) . . .
50(4) . . .
38.9(33) . . .
54(4) . . .
45(4) . . .
46(4) . . .
53(4) . . .
42.5(34) . . .
47(4) . . .
51(4) . . .
51(4) . . .
50(4) . . .
53(4) . . .
41(4) . . .
41.1(34) . . .
45(4) . . .
52(4) . . .
50(4) . . .
43(4) . . .
43(4) . . .
51(4) . . .
51(4) . . .
49(4) . . .
38.8(34) . . .
49(4) . . .
42.5(33) . . .
54(4) . . .
44.5(35) . . .
50(4) . . .
46(4) . . .
48(4) . . .
35.7(31) . . .
47(4) . . .
39.6(32) . . .
49(4) . . .
43.3(34) . . .
49(4) . . .
47(4) . . .
53(4) . . .
50(4) . . .
51(4) . . .
51(4) . . .
44(4) . . .
41.8(34) . . .
51(4) . . .
49(4) . . .
48(4) . . .
55(4) . . .
44(4) . . .
54(4) . . .
52(4) . . .
51(4) . . .
55(4) . . .
52(4) . . .
45(4) . . .
48(4) . . .
51(4) . . .
42.2(34) . . .
43(4) . . .
47(4) . . .
36.7(32) . . .
54(4) . . .
54(4) . . .
48(4) . . .
44(4) . . .
46(4) . . .
48(4) . . .
46(4) . . .
44(4) . . .
46(4) . . .
33.3(32) . . .
40.6(34) . . .
39.1(32) . . .
49(4) . . .
52(4) . . .
49(4) . . .
48(4) . . .
51(4) . . .
54(4) . . .
53(4) . . .
50(4) . . .
40.5(33) . . .
52(4) . . .
48(4) . . .
41.7(34) . . .
42.1(34) . . .
37.5(33) . . .
49(4) . . .
48(4) . . .
41.0(35) . . .
42.6(34) . . .
41.1(34) . . .
43(4) . . .
44(4) . . .
40.5(34) . . .
42.9(34) . . .
53(4) . . .
46(4) . . .
47(4) . . .
37.3(32) . . .
50(4) . . .
44(4) . . .
34.0(31) . . .
43(4) . . .
46(4) . . .
49(4) . . .
47(4) . . .
51(4) . . .
47(4) . . .
51(4) . . .
48(4) . . .
49(4) . . .
49(4) . . .
52(4) . . .
47(4) . . .
46(4) . . .
45(4) . . .
48(4) . . .
44(4) . . .
44.5(35) . . .
54(4) . . .
49(4) . . .
45(4) . . .
47(4) . . .
46(4) . . .
43.5(35) . . .
47(4) . . .
40(4) . . .
43.0(35) . . .
54(4) . . .
44.4(35) . . .
46(4) . . .
37.7(33) . . .
51(4) . . .
49(4) . . .
49(4) . . .
40.3(33) . . .
51(4) . . .
50(4) . . .
47(4) . . .
49(4) . . .
51(4) . . .
47(4) . . .
42.2(34) . . .
44.9(35) . . .
41.9(34) . . .
45(4) . . .
43(4) . . .
38.6(33) . . .
45.6(35) . . .
35.9(31) . . .
46(4) . . .
43(4) . . .
41.3(35) . . .
46(4) . . .
48(4) . . .
46(4) . . .
49(4) . . .
37.0(32) . . .
48(4) . . .
44.6(34) . . .
45(4) . . .
40.7(35) . . .
44.4(35) . . .
45.0(35) . . .
52(4) . . .
41(4) . . .
47(4) . . .
39.9(33) . . .
46(4) . . .
47(4) . . .
39.5(33) . . .
42.2(34) . . .
45.4(35) . . .
42.2(34) . . .
62(4) . . .
48(4) . . .
35.5(32) . . .
40.4(33) . . .
47(4) . . .
56(4) . . .
50(4) . . .
48(4) . . .
43.4(34) . . .
41.8(33) . . .
44.5(35) . . .
47(4) . . .
46(4) . . .
43.3(35) . . .
50(4) . . .
44(4) . . .
42(4) . . .
40.0(34) . . .
57(4) . . .
43.5(34) . . .
47(4) . . .
53(4) . . .
40.3(34) . . .
41.6(33) . . .
43.4(35) . . .
50(4) . . .
44(4) . . .
51(4) . . .
53(4) . . .
42.9(35) . . .
43.1(35) . . .
40.9(35) . . .
43.5(35) . . .
45(4) . . .
37.5(33) . . .
50(4) . . .
48(4) . . .
46(4) . . .
41.8(35) . . .
44.3(35) . . .
44(4) . . .
36.0(31) . . .
49(4) . . .
52(4) . . .
40.8(35) . . .
47(4) . . .
57(4) . . .
37.4(32) . . .
44.4(35) . . .
48(4) . . .
47(4) . . .
47(4) . . .
46(4) . . .
39.8(33) . . .
35.5(32) . . .
51(4) . . .
49(4) . . .
40.1(34) . . .
46(4) . . .
52(4) . . .
39.8(35) . . .
51(4) . . .
51(4) . . .
42.2(33) . . .
54(4) . . .
43(4) . . .
48(4) . . .
47(4) . . .
51(4) . . .
37.3(32) . . .
50(4) . . .
45(4) . . .
47(4) . . .
50(4) . . .
53(4) . . .
41.6(35) . . .
43.1(35) . . .
47(4) . . .
41.2(34) . . .
36.0(32) . . .
41.9(34) . . .
56(4) . . .
42.5(33) . . .
44(4) . . .
47(4) . . .
56(4) . . .
40.0(33) . . .
49(4) . . .
53(4) . . .
37.9(33) . . .
46(4) . . .
37.3(31) . . .
44(4) . . .
44(4) . . .
43(4) . . .
45(4) . . .
46(4) . . .
43.3(34) . . .
36.1(34) . . .
43(4) . . .
42.0(35) . . .
41.4(34) . . .
51(4) . . .
40.8(33) . . .
49(4) . . .
43.7(35) . . .
48(4) . . .
52(4) . . .
48(4) . . .
45(4) . . .
43(4) . . .
40.7(34) . . .
45.0(35) . . .
44(4) . . .
37.7(33) . . .
47(4) . . .
44.0(34) . . .
45(4) . . .
44(4) . . .
47(4) . . .
39.3(33) . . .
45.2(35) . . .
53(4) . . .
45.6(35) . . .
50(4) . . .
47(4) . . .
48(4) . . .
43(4) . . .
46(4) . . .
49(4) . . .
43.1(34) . . .
49(4) . . .
54(4) . . .
45.4(35) . . .
45(4) . . .
40.6(33) . . .
41.9(34) . . .
45(4) . . .
49(4) . . .
53(4) . . .
45(4) . . .
48(4) . . .
44.1(35) . . .
45(4) . . .
53(4) . . .
47(4) . . .
43.8(34) . . .
48(4) . . .
41(4) . . .
45(4) . . .
51(4) . . .
37.6(32) . . .
41.9(34) . . .
44(4) . . .
52(4) . . .
48(4) . . .
46.3(35) . . .
43(4) . . .
42(4) . . .
40(4) . . .
49(4) . . .
55(4) . . .
55(4) . . .
55(4) . . .
54(4) . . .
44.1(34) . . .
49(4) . . .
42.2(34) . . .
48(4) . . .
43.0(34) . . .
38.4(33) . . .
48(4) . . .
54(4) . . .
44(4) . . .
44(4) . . .
46(4) . . .
35.0(30) . . .
48(4) . . .
54(4) . . .
53(4) . . .
47(4) . . .
48(4) . . .
51(4) . . .
39.4(32) . . .
45(4) . . .
49(4) . . .
38.0(35) . . .
50(4) . . .
46(4) . . .
43(4) . . .
39.0(33) . . .
43(4) . . .
42(4) . . .
49(4) . . .
44.7(35) . . .
29.5(29) . . .
41.7(35) . . .
44(4) . . .
56(4) . . .
46(4) . . .
40.8(33) . . .
47(4) . . .
40.2(34) . . .
55(4) . . .
54(4) . . .
50(4) . . .
46(4) . . .
43(4) . . .
47(4) . . .
47(4) . . .
40.8(33) . . .
42(4) . . .
48(4) . . .
51(4) . . .
48(4) . . .
41.0(33) . . .
45(4) . . .
46(4) . . .
54(4) . . .
53(4) . . .
43.7(35) . . .
47(4) . . .
54(4) . . .
49(4) . . .
49(4) . . .
53(4) . . .
43(4) . . .
41(4) . . .
45(4) . . .
60(4) . . .
42.1(34) . . .
46(4) . . .
49(4) . . .
38.5(32) . . .
47(4) . . .
41.8(34) . . .
47(4) . . .
47(4) . . .
52(4) . . .
47(4) . . .
39.5(33) . . .
50(4) . . .
40.6(34) . . .
51(4) . . .
43.1(34) . . .
48(4) . . .
50(4) . . .
44.7(35) . . .
47(4) . . .
39.9(33) . . .
42(4) . . .
44(4) . . .
47(4) . . .
50(4) . . .
43.5(34) . . .
41.4(34) . . .
53(4) . . .
50(4) . . .
41.8(34) . . .
37.0(32) . . .
44(4) . . .
54(4) . . .
48(4) . . .
46.0(35) . . .
43(4) . . .
40(4) . . .
38.2(35) . . .
39.6(33) . . .
50(4) . . .
44.7(35) . . .
50(4) . . .
51(4) . . .
46(4) . . .
46(4) . . .
49(4) . . .
48(4) . . .
38.2(34) . . .
42.6(34) . . .
35.4(31) . . .
35.5(31) . . .
38.0(34) . . .
40(4) . . .
41.1(33) . . .
41.8(34) . . .
38.7(35) . . .
41(4) . . .
33.4(31) . . .
37.2(32) . . .
47(4) . . .
55(4) . . .
42.7(35) . . .
52(4) . . .
40.2(33) . . .
50(4) . . .
41(4) . . .
38.2(34) . . .
42(4) . . .
41.6(33) . . .
46(4) . . .
45(4) . . .
45(4) . . .
44.2(34) . . .
57(4) . . .
51(4) . . .
42.3(34) . . .
45(4) . . .
44(4) . . .
39.2(32) . . .
41.0(33) . . .
46(4) . . .
52(4) . . .
41.0(33) . . .
43.8(35) . . .
42.6(34) . . .
44(4) . . .
46(4) . . .
52(4) . . .
48(4) . . .
40.0(33) . . .
50(4) . . .
45(4) . . .
40.0(34) . . .
50(4) . . .
37.4(32) . . .
44(4) . . .
44(4) . . .
52(4) . . .
34.2(31) . . .
48(4) . . .
49(4) . . .
47(4) . . .
53(4) . . .
43.8(35) . . .
45(4) . . .
48(4) . . .
47(4) . . .
53(4) . . .
41.7(33) . . .
42.8(35) . . .
49(4) . . .
43(4) . . .
59(4) . . .
46(4) . . .
46(4) . . .
52(4) . . .
37.6(32) . . .
37.0(32) . . .
39.0(33) . . .
40.5(35) . . .
48(4) . . .
42(4) . . .
29.4(29) . . .
36.7(31) . . .
44(4) . . .
40.3(34) . . .
47(4) . . .
55(4) . . .
43.9(35) . . .
40.6(34) . . .
45(4) . . .
36.4(31) . . .
39.9(32) . . .
47(4) . . .
45(4) . . .
48(4) . . .
46(4) . . .
41.3(33) . . .
44(4) . . .
42.9(34) . . .
47(4) . . .
47(4) . . .
47(4) . . .
46(4) . . .
46(4) . . .
45(4) . . .
48(4) . . .
46(4) . . .
35.8(32) . . .
41.2(34) . . .
51(4) . . .
45(4) . . .
39.3(33) . . .
51(4) . . .
44(4) . . .
40.8(34) . . .
43.3(35) . . .
50(4) . . .
49(4) . . .
46(4) . . .
47(4) . . .
43.3(35) . . .
55(4) . . .
38.9(33) . . .
50(4) . . .
43(4) . . .
41.3(34) . . .
49(4) . . .
49(4) . . .
50(4) . . .
52(4) . . .
37.7(32) . . .
52(4) . . .
48(4) . . .
49(4) . . .
46(4) . . .
44(4) . . .
46(4) . . .
46(4) . . .
51(4) . . .
40.2(34) . . .
55(4) . . .
47(4) . . .
44(4) . . .
44(4) . . .
49(4) . . .
47(4) . . .
40.4(32) . . .
48(4) . . .
47(4) . . .
52(4) . . .
41.9(34) . . .
51(4) . . .
47(4) . . .
60(4) . . .
42(4) . . .
44.5(35) . . .
42.8(34) . . .
48(4) . . .
41(4) . . .
48(4) . . .
41.8(34) . . .
40.1(33) . . .
47(4) . . .
41(4) . . .
49(4) . . .
42.3(34) . . .
47(4) . . .
45(4) . . .
41.2(34) . . .
46(4) . . .
49(4) . . .
58(4) . . .
48(4) . . .
53(4) . . .
43.7(35) . . .
42.2(34) . . .
42.5(35) . . .
45(4) . . .
41.4(33) . . .
50(4) . . .
52(4) . . .
52(4) . . .
46(4) . . .
49(4) . . .
47(4) . . .
52(4) . . .
46(4) . . .
53(4) . . .
50(4) . . .
47(4) . . .
49(4) . . .
51(4) . . .
45(4) . . .
49(4) . . .
46(4) . . .
47(4) . . .
47(4) . . .
52(4) . . .
43.5(34) . . .
49(4) . . .
57(4) . . .
54(4) . . .
41.4(34) . . .
40.5(34) . . .
48(4) . . .
40.4(33) . . .
44(4) . . .
52(4) . . .
42.4(34) . . .
41.3(33) . . .
51(4) . . .
54(4) . . .
46(4) . . .
50(4) . . .
42.0(34) . . .
40(4) . . .
45(4) . . .
48(4) . . .
53(4) . . .
49(4) . . .
55(4) . . .
50(4) . . .
52(4) . . .
50(4) . . .
52(4) . . .
38.6(33) . . .
49(4) . . .
48(4) . . .
42(4) . . .
42.0(34) . . .
37.7(31) . . .
45(4) . . .
39.4(33) . . .
41.1(35) . . .
39.5(33) . . .
46(4) . . .
45(4) . . .
44(4) . . .
53(4) . . .
40.3(33) . . .
50(4) . . .
49(4) . . .
43.0(34) . . .
45.2(35) . . .
45.0(35) . . .
46(4) . . .
42(4) . . .
45.4(34) . . .
48(4) . . .
50(4) . . .
47(4) . . .
46(4) . . .
38.7(33) . . .
39.6(33) . . .
51(4) . . .
44(4) . . .
43.7(34) . . .
37.9(32) . . .
47(4) . . .
52(4) . . .
47(4) . . .
43(4) . . .
37.4(33) . . .
45(4) . . .
48(4) . . .
50(4) . . .
46(4) . . .
50(4) . . .
53(4) . . .
53(4) . . .
42.5(35) . . .
51(4) . . .
54(4) . . .
50(4) . . .
45(4) . . .
39.1(34) . . .
49(4) . . .
60(4) . . .
50(4) . . .
41.5(34) . . .
51(4) . . .
47(4) . . .
39.3(33) . . .
37.2(31) . . .
38.9(32) . . .
36.0(33) . . .
48(4) . . .
37.3(32) . . .
47(4) . . .
51(4) . . .
40.7(34) . . .
54(4) . . .
40.6(33) . . .
49(4) . . .
52(4) . . .
44(4) . . .
44.4(35) . . .
41.6(34) . . .
43.2(35) . . .
46(4) . . .
44(4) . . .
33.5(30) . . .
55(4) . . .
41.9(35) . . .
37.3(33) . . .
44(4) . . .
45(4) . . .
39.7(33) . . .
51(4) . . .
47(4) . . .
40(4) . . .
42.5(34) . . .
50(4) . . .
50(4) . . .
43.9(35) . . .
52(4) . . .
44.9(35) . . .
45.2(35) . . .
35.5(31) . . .
43(4) . . .
46.2(35) . . .
52(4) . . .
42.7(34) . . .
44.2(35) . . .
45(4) . . .
41(4) . . .
40.7(34) . . .
43.9(34) . . .
55(4) . . .
42(4) . . .
40.1(34) . . .
40.7(34) . . .
45.5(35) . . .
41(4) . . .
38(4) . . .
49(4) . . .
40.9(33) . . .
40.1(34) . . .
46(4) . . .
50(4) . . .
53(4) . . .
55(4) . . .
45(4) . . .
45(4) . . .
40.3(35) . . .
41.8(35) . . .
41.3(34) . . .
42.8(34) . . .
37.2(32) . . .
44(4) . . .
47(4) . . .
49(4) . . .
45(4) . . .
43(4) . . .
42(4) . . .
41(4) . . .
37.3(32) . . .
53(4) . . .
49(4) . . .
54(4) . . .
46(4) . . .
49(4) . . .
47(4) . . .
44(4) . . .
50(4) . . .
52(4) . . .
43.4(34) . . .
41.9(34) . . .
48(4) . . .
45(4) . . .
41.8(35) . . .
38.6(32) . . .
50(4) . . .
44(4) . . .
29.8(29) . . .
43.7(34) . . .
50(4) . . .
48(4) . . .
47(4) . . .
58(4) . . .
41.1(33) . . .
49(4) . . .
38.0(33) . . .
45(4) . . .
48(4) . . .
50(4) . . .
45.2(35) . . .
51(4) . . .
48(4) . . .
37.6(33) . . .
44.0(35) . . .
51(4) . . .
49(4) . . .
59(4) . . .
43.2(35) . . .
50(4) . . .
47(4) . . .
45(4) . . .
52(4) . . .
40.2(33) . . .
48(4) . . .
39.0(33) . . .
40.7(35) . . .
46(4) . . .
42.8(35) . . .
44.7(35) . . .
42.5(34) . . .
45(4) . . .
47(4) . . .
38.5(35) . . .
48(4) . . .
55(4) . . .
55(4) . . .
53(4) . . .
34.5(30) . . .
38.2(32) . . .
40.6(34) . . .
46(4) . . .
57(4) . . .
50(4) . . .
50(4) . . .
46(4) . . .
39.4(32) . . .
44.2(35) . . .
45(4) . . .
47(4) . . .
50(4) . . .
51(4) . . .
48(4) . . .
48(4) . . .
40.0(33) . . .
41.4(35) . . .
47(4) . . .
55(4) . . .
48(4) . . .
42.3(34) . . .
49(4) . . .
45(4) . . .
42.0(34) . . .
44.0(34) . . .
51(4) . . .
36.6(31) . . .
46(4) . . .
44.0(34) . . .
52(4) . . .
47(4) . . .
49(4) . . .
41(4) . . .
43(4) . . .
45.0(35) . . .
43(4) . . .
38.1(33) . . .
46(4) . . .
52(4) . . .
51(4) . . .
58(4) . . .
45(4) . . .
44(4) . . .
52(4) . . .
46(4) . . .
42(4) . . .
46(4) . . .
49(4) . . .
49(4) . . .
42.2(34) . . .
50(4) . . .
55(4) . . .
43(4) . . .
45(4) . . .
41.3(34) . . .
41.0(34) . . .
51(4) . . .
39.3(33) . . .
44.4(35) . . .
41.1(34) . . .
48(4) . . .
49(4) . . .
43(4) . . .
41.1(34) . . .
41.0(34) . . .
52(4) . . .
39.0(33) . . .
41.3(34) . . .
55(4) . . .
49(4) . . .
49(4) . . .
49(4) . . .
54(4) . . .
44.6(34) . . .
44(4) . . .
45(4) . . .
42(4) . . .
45(4) . . .
48(4) . . .
38.8(34) . . .
42.0(35) . . .
45(4) . . .
35.3(31) . . .
50(4) . . .
48(4) . . .
49(4) . . .
47(4) . . .
38.7(33) . . .
35.9(31) . . .
45(4) . . .
50(4) . . .
54(4) . . .
47(4) . . .
48(4) . . .
35.5(32) . . .
48(4) . . .
46(4) . . .
50(4) . . .
45.2(35) . . .
50(4) . . .
60(4) . . .
41.2(34) . . .
35.8(31) . . .
47(4) . . .
54(4) . . .
50(4) . . .
42(4) . . .
47(4) . . .
51(4) . . .
50(4) . . .
49(4) . . .
58(4) . . .
45(4) . . .
46.0(35) . . .
42.1(35) . . .
39.3(33) . . .
49(4) . . .
47(4) . . .
53(4) . . .
40.9(33) . . .
43.2(33) . . .
45(4) . . .
36.4(31) . . .
42.1(33) . . .
52(4) . . .
47(4) . . .
41.6(35) . . .
46(4) . . .
45.3(35) . . .
47(4) . . .
46(4) . . .
37.4(32) . . .
50(4) . . .
41.5(33) . . .
45(4) . . .
41.7(33) . . .
51(4) . . .
49(4) . . .
41.2(34) . . .
42(4) . . .
50(4) . . .
40.3(34) . . .
35.5(31) . . .
36.9(32) . . .
37.5(33) . . .
58(4) . . .
50(4) . . .
53(4) . . .
50(4) . . .
43(4) . . .
48(4) . . .
52(4) . . .
49(4) . . .
45(4) . . .
41(4) . . .
46(4) . . .
44.7(35) . . .
48(4) . . .
47(4) . . .
39.6(32) . . .
41(4) . . .
38.8(34) . . .
51(4) . . .
50(4) . . .
41(4) . . .
45(4) . . .
40.0(33) . . .
29.9(29) . . .
42(4) . . .
40.3(33) . . .
51(4) . . .
51(4) . . .
54(4) . . .
39.0(32) . . .
52(4) . . .
43.3(34) . . .
42.5(34) . . .
46(4) . . .
46(4) . . .
39.5(34) . . .
46(4) . . .
42.7(34) . . .
47(4) . . .
37.7(33) . . .
40.1(35) . . .
49(4) . . .
39.8(33) . . .
41.9(34) . . .
43.4(35) . . .
51(4) . . .
47(4) . . .
42.6(35) . . .
53(4) . . .
36.3(33) . . .
47(4) . . .
51(4) . . .
50(4) . . .
35.3(31) . . .
34.6(31) . . .
45(4) . . .
41(4) . . .
47(4) . . .
40.5(33) . . .
44(4) . . .
50(4) . . .
46(4) . . .
49(4) . . .
39.8(33) . . .
48(4) . . .
46.8(35) . . .
48(4) . . .
47(4) . . .
46(4) . . .
47(4) . . .
39.2(33) . . .
53(4) . . .
46(4) . . .
46(4) . . .
36.8(34) . . .
45(4) . . .
44.9(34) . . .
43.2(34) . . .
39.9(33) . . .
60(4) . . .
47(4) . . .
50(4) . . .
58(4) . . .
36.7(32) . . .
47(4) . . .
38.2(32) . . .
45(4) . . .
41.2(33) . . .
36.7(32) . . .
40.1(33) . . .
41.1(34) . . .
42.9(34) . . .
50(4) . . .
57(4) . . .
43.2(34) . . .
42.0(35) . . .
41.3(33) . . .
32.8(30) . . .
50(4) . . .
48(4) . . .
51(4) . . .
43.3(35) . . .
47(4) . . .
44(4) . . .
46(4) . . .
36.6(32) . . .
46.2(35) . . .
45(4) . . .
51(4) . . .
45(4) . . .
51(4) . . .
49(4) . . .
45(4) . . .
44(4) . . .
40.8(33) . . .
48(4) . . .
44.5(35) . . .
44.2(35) . . .
51(4) . . .
55(4) . . .
43.0(34) . . .
38.1(33) . . .
49(4) . . .
44(4) . . .
48(4) . . .
55(4) . . .
50(4) . . .
46(4) . . .
49(4) . . .
53(4) . . .
50(4) . . .
47(4) . . .
48(4) . . .
48(4) . . .
49(4) . . .
43.6(35) . . .
51(4) . . .
45(4) . . .
51(4) . . .
48(4) . . .
52(4) . . .
40.3(34) . . .
46(4) . . .
47(4) . . .
39.0(33) . . .
42.8(34) . . .
37.5(32) . . .
44(4) . . .
46(4) . . .
43(4) . . .
46(4) . . .
48(4) . . .
46(4) . . .
38.6(33) . . .
40.0(34) . . .
42.1(34) . . .
45(4) . . .
43.6(35) . . .
46(4) . . .
50(4) . . .
48(4) . . .
43.6(35) . . .
40.4(34) . . .
47(4) . . .
48(4) . . .
43.5(35) . . .
47(4) . . .
45(4) . . .
50(4) . . .
48(4) . . .
40.8(34) . . .
40.6(34) . . .
48(4) . . .
49(4) . . .
42.4(35) . . .
42.7(34) . . .
50(4) . . .
58(4) . . .
52(4) . . .
44.3(35) . . .
38.5(33) . . .
44(4) . . .
41.9(35) . . .
38.7(32) . . .
42.1(34) . . .
37.0(32) . . .
41.3(35) . . .
43(4) . . .
45(4) . . .
43(4) . . .
43.3(34) . . .
38.0(33) . . .
33.5(32) . . .
49(4) . . .
47(4) . . .
44.4(34) . . .
39.2(34) . . .
45(4) . . .
43(4) . . .
40.8(34) . . .
41.2(35) . . .
38.0(33) . . .
49(4) . . .
47(4) . . .
36.4(31) . . .
48(4) . . .
44(4) . . .
37.1(32) . . .
42(4) . . .
50(4) . . .
49(4) . . .
34.6(32) . . .
38.2(35) . . .
43.1(35) . . .
44.2(35) . . .
43(4) . . .
46(4) . . .
50(4) . . .
50(4) . . .
52(4) . . .
36.8(32) . . .
51(4) . . .
48(4) . . .
41.9(34) . . .
37.1(32) . . .
50(4) . . .
51(4) . . .
49(4) . . .
48(4) . . .
51(4) . . .
40.5(34) . . .
44(4) . . .
36.4(32) . . .
43.1(35) . . .
36.6(31) . . .
49(4) . . .
42(4) . . .
41.9(34) . . .
42.0(33) . . .
48(4) . . .
48(4) . . .
40(4) . . .
43(4) . . .
55(4) . . .
50(4) . . .
33.9(32) . . .
44(4) . . .
46(4) . . .
52(4) . . .
42.4(34) . . .
41.6(34) . . .
44(4) . . .
47(4) . . .
49(4) . . .
48(4) . . .
50(4) . . .
46(4) . . .
41(4) . . .
49(4) . . .
45(4) . . .
39.8(34) . . .
48(4) . . .
44.6(35) . . .
49(4) . . .
45(4) . . .
45(4) . . .
43(4) . . .
49(4) . . .
54(4) . . .
42.7(34) . . .
43(4) . . .
41.3(34) . . .
39.5(33) . . .
49(4) . . .
50(4) . . .
45(4) . . .
58(4) . . .
39.6(33) . . .
40.7(33) . . .
49(4) . . .
53(4) . . .
46(4) . . .
40.5(33) . . .
41.3(34) . . .
41(4) . . .
44(4) . . .
36.2(32) . . .
51(4) . . .
47(4) . . .
46(4) . . .
40(4) . . .
35.6(33) . . .
47(4) . . .
55(4) . . .
58(4) . . .
44(4) . . .
39.5(34) . . .
53(4) . . .
43.1(34) . . .
46(4) . . .
52(4) . . .
37.3(33) . . .
43.6(34) . . .
48(4) . . .
37.8(35) . . .
45(4) . . .
44(4) . . .
41.6(33) . . .
45(4) . . .
43.0(34) . . .
49(4) . . .
52(4) . . .
43.5(35) . . .
42.2(33) . . .
42.3(34) . . .
47(4) . . .
39.8(35) . . .
33.8(31) . . .
55(4) . . .
48(4) . . .
47(4) . . .
61(4) . . .
48(4) . . .
39.9(33) . . .
46(4) . . .
49(4) . . .
48(4) . . .
37.9(33) . . .
34.6(33) . . .
52(4) . . .
45.1(34) . . .
44.3(35) . . .
41.7(34) . . .
50(4) . . .
49(4) . . .
47(4) . . .
42.4(34) . . .
50(4) . . .
51(4) . . .
36.9(32) . . .
51(4) . . .
52(4) . . .
41.2(34) . . .
54(4) . . .
56(4) . . .
48(4) . . .
49(4) . . .
42.5(34) . . .
46(4) . . .
46(4) . . .
46(4) . . .
46(4) . . .
50(4) . . .
55(4) . . .
49(4) . . .
48(4) . . .
50(4) . . .
51(4) . . .
42.3(35) . . .
44(4) . . .
46(4) . . .
46(4) . . .
47(4) . . .
39.7(34) . . .
46(4) . . .
47(4) . . .
30.0(29) . . .
41.1(35) . . .
54(4) . . .
45(4) . . .
39.2(34) . . .
40.8(34) . . .
42.2(35) . . .
41(4) . . .
39(4) . . .
45.1(35) . . .
44(4) . . .
36.2(31) . . .
54(4) . . .
47(4) . . .
41.8(34) . . .
45(4) . . .
53(4) . . .
48(4) . . .
49(4) . . .
47(4) . . .
52(4) . . .
45(4) . . .
43(4) . . .
42.0(35) . . .
40.3(33) . . .
40.7(35) . . .
54(4) . . .
41(4) . . .
51(4) . . .
56(4) . . .
46(4) . . .
44(4) . . .
42(4) . . .
38.1(35) . . .
48(4) . . .
48(4) . . .
47(4) . . .
40.0(34) . . .
47(4) . . .
41.8(34) . . .
52(4) . . .
43.0(33) . . .
46(4) . . .
46(4) . . .
35.5(31) . . .
44(4) . . .
47(4) . . .
45(4) . . .
46(4) . . .
44.3(34) . . .
43.9(35) . . .
49(4) . . .
48(4) . . .
45(4) . . .
51(4) . . .
47(4) . . .
53(4) . . .
47(4) . . .
48(4) . . .
44.1(34) . . .
39.7(33) . . .
42(4) . . .
44(4) . . .
38.1(32) . . .
40.4(33) . . .
35.9(31) . . .
46(4) . . .
51(4) . . .
37.4(32) . . .
44(4) . . .
45(4) . . .
52(4) . . .
52(4) . . .
47(4) . . .
47(4) . . .
51(4) . . .
37.2(34) . . .
37.4(35) . . .
42.0(33) . . .
43(4) . . .
45(4) . . .
49(4) . . .
48(4) . . .
35.7(31) . . .
40.8(33) . . .
41.3(34) . . .
40.6(34) . . .
35.5(32) . . .
40.2(33) . . .
50(4) . . .
53(4) . . .
45(4) . . .
47(4) . . .
37.9(32) . . .
44(4) . . .
44(4) . . .
41(4) . . .
37.9(32) . . .
41.7(33) . . .
39.0(33) . . .
36.0(31) . . .
55(4) . . .
53(4) . . .
50(4) . . .
40.3(34) . . .
38.7(34) . . .
46(4) . . .
47(4) . . .
51(4) . . .
50(4) . . .
48(4) . . .
43(4) . . .
45(4) . . .
50(4) . . .
39.2(33) . . .
39(4) . . .
51(4) . . .
57(4) . . .
40.8(33) . . .
44.2(35) . . .
51(4) . . .
38.4(33) . . .
42.9(35) . . .
40.8(33) . . .
53(4) . . .
52(4) . . .
37.8(33) . . .
49(4) . . .
49(4) . . .
44(4) . . .
56(4) . . .
44(4) . . .
44.2(35) . . .
50(4) . . .
52(4) . . .
43(4) . . .
40.8(34) . . .
48(4) . . .
31.3(29) . . .
45(4) . . .
54(4) . . .
46(4) . . .
43.0(34) . . .
38.5(33) . . .
39.2(35) . . .
52(4) . . .
40.9(34) . . .
45.4(35) . . .
43(4) . . .
40.3(34) . . .
50(4) . . .
46(4) . . .
44.5(35) . . .
43.1(35) . . .
41.7(34) . . .
50(4) . . .
36.4(31) . . .
49(4) . . .
54(4) . . .
51(4) . . .
53(4) . . .
45(4) . . .
38.4(33) . . .
42(4) . . .
46(4) . . .
40.5(33) . . .
50(4) . . .
38.3(32) . . .
55(4) . . .
35.8(32) . . .
46(4) . . .
44.0(34) . . .
43.8(34) . . .
43(4) . . .
45(4) . . .
34.8(32) . . .
38.2(33) . . .
44.9(35) . . .
50(4) . . .
50(4) . . .
42.4(34) . . .
43.3(34) . . .
44.5(35) . . .
41.8(35) . . .
34.8(33) . . .
48(4) . . .
45.8(35) . . .
43.0(35) . . .
47(4) . . .
50(4) . . .
42.1(35) . . .
34.4(31) . . .
54(4) . . .
47(4) . . .
44(4) . . .
46(4) . . .
43.8(35) . . .
47(4) . . .
48(4) . . .
44(4) . . .
40.5(34) . . .
50(4) . . .
42.2(35) . . .
44.7(35) . . .
49(4) . . .
37.0(32) . . .
42.5(34) . . .
52(4) . . .
38.3(31) . . .
40.2(34) . . .
42.4(35) . . .
41.3(33) . . .
50(4) . . .
44(4) . . .
48(4) . . .
45.1(34) . . .
56(4) . . .
43.8(35) . . .
42(4) . . .
39.2(34) . . .
53(4) . . .
48(4) . . .
39.4(33) . . .
30.6(30) . . .
43(4) . . .
51(4) . . .
50(4) . . .
48(4) . . .
49(4) . . .
45(4) . . .
41.3(34) . . .
50(4) . . .
54(4) . . .
39.5(34) . . .
40(4) . . .
39.8(34) . . .
46(4) . . .
45(4) . . .
44(4) . . .
45(4) . . .
44.2(34) . . .
36.8(32) . . .
46(4) . . .
34.7(32) . . .
38.2(32) . . .
44.4(34) . . .
47(4) . . .
53(4) . . .
54(4) . . .
43(4) . . .
44.4(35) . . .
50(4) . . .
47(4) . . .
45(4) . . .
48(4) . . .
47(4) . . .
38.5(34) . . .
45(4) . . .
51(4) . . .
52(4) . . .
45(4) . . .
45(4) . . .
53(4) . . .
47(4) . . .
49(4) . . .
46(4) . . .
43.6(35) . . .
37.9(32) . . .
52(4) . . .
49(4) . . .
37.3(32) . . .
41(4) . . .
45(4) . . .
43.0(35) . . .
52(4) . . .
43.9(34) . . .
48(4) . . .
41(4) . . .
46(4) . . .
48(4) . . .
52(4) . . .
46(4) . . .
48(4) . . .
35.6(31) . . .
51(4) . . .
40.5(33) . . .
45(4) . . .
48(4) . . .
50(4) . . .
43.0(34) . . .
44(4) . . .
46(4) . . .
35.0(31) . . .
46(4) . . .
41.2(33) . . .
53(4) . . .
47(4) . . .
44(4) . . .
43.9(34) . . .
41.9(34) . . .
39(4) . . .
43(4) . . .
44(4) . . .
46(4) . . .
52(4) . . .
49(4) . . .
37.1(32) . . .
54(4) . . .
43.8(35) . . .
38.9(32) . . .
39.5(34) . . .
31.6(30) . . .
35.7(31) . . .
49(4) . . .
53(4) . . .
55(4) . . .
40.9(34) . . .
43.3(35) . . .
45.5(35) . . .
44.0(35) . . .
42.1(34) . . .
43(4) . . .
39.9(33) . . .
54(4) . . .
51(4) . . .
42.5(34) . . .
53(4) . . .
48(4) . . .
33.8(31) . . .
40.4(33) . . .
43(4) . . .
47(4) . . .
42(4) . . .
43.9(34) . . .
41.8(35) . . .
36.1(33) . . .
41(4) . . .
49(4) . . .
50(4) . . .
46(4) . . .
38.8(32) . . .
44(4) . . .
50(4) . . .
44.9(35) . . .
42.1(34) . . .
41.8(33) . . .
48(4) . . .
39.7(33) . . .
48(4) . . .
41.0(34) . . .
38.4(34) . . .
41(4) . . .
36.6(31) . . .
42.6(34) . . .
48(4) . . .
44(4) . . .
50(4) . . .
49(4) . . .
42.0(34) . . .
51(4) . . .
49(4) . . .
41.2(34) . . .
45(4) . . .
39.4(33) . . .
44(4) . . .
43(4) . . .
41.4(33) . . .
39.3(33) . . .
52(4) . . .
48(4) . . .
57(4) . . .
37.3(31) . . .
48(4) . . .
48(4) . . .
44.2(35) . . .
53(4) . . .
37.5(33) . . .
53(4) . . .
47(4) . . .
51(4) . . .
47(4) . . .
53(4) . . .
43.2(35) . . .
50(4) . . .
37.8(32) . . .
46(4) . . .
41.8(34) . . .
41.5(34) . . .
48(4) . . .
51(4) . . .
44(4) . . .
51(4) . . .
33.2(29) . . .
40.4(35) . . .
39.9(33) . . .
56(4) . . .
44(4) . . .
38.1(32) . . .
41.8(34) . . .
49(4) . . .
51(4) . . .
50(4) . . .
43.3(34) . . .
40.4(33) . . .
56(4) . . .
36.3(31) . . .
42.0(35) . . .
48(4) . . .
46(4) . . .
36.9(33) . . .
40.1(33) . . .
51(4) . . .
49(4) . . .
50(4) . . .
39.9(34) . . .
39(4) . . .
47(4) . . .
51(4) . . .
51(4) . . .
56(4) . . .
41.4(34) . . .
49(4) . . .
43.1(34) . . .
38.8(33) . . .
50(4) . . .
36.0(31) . . .
47(4) . . .
35.4(32) . . .
37.0(32) . . .
40.0(34) . . .
42.2(34) . . .
44.6(34) . . .
37.7(32) . . .
44(4) . . .
43(4) . . .
46(4) . . .
37.3(32) . . .
44(4) . . .
29.8(29) . . .
47(4) . . .
53(4) . . .
39.9(33) . . .
39.2(33) . . .
36.9(33) . . .
39.4(33) . . .
46(4) . . .
42.8(34) . . .
50(4) . . .
46(4) . . .
49(4) . . .
42.2(34) . . .
41.5(34) . . .
52(4) . . .
44(4) . . .
48(4) . . .
52(4) . . .
44(4) . . .
47(4) . . .
35.0(30) . . .
45(4) . . .
42.8(35) . . .
53(4) . . .
52(4) . . .
47(4) . . .
42.0(35) . . .
37.3(33) . . .
53(4) . . .
56(4) . . .
51(4) . . .
45(4) . . .
43.6(34) . . .
40.5(33) . . .
47(4) . . .
52(4) . . .
44(4) . . .
40.6(34) . . .
33.9(31) . . .
48(4) . . .
40.9(34) . . .
46(4) . . .
43.5(34) . . .
41.9(33) . . .
47(4) . . .
45(4) . . .
36.7(33) . . .
39.4(34) . . .
51(4) . . .
44(4) . . .
34.0(31) . . .
36.6(32) . . .
41.7(33) . . .
46(4) . . .
43.6(33) . . .
44(4) . . .
45(4) . . .
47(4) . . .
43(4) . . .
47(4) . . .
45(4) . . .
57(4) . . .
38.4(33) . . .
40.7(33) . . .
48(4) . . .
56(4) . . .
45(4) . . .
44.9(34) . . .
50(4) . . .
48(4) . . .
47(4) . . .
45(4) . . .
35.2(31) . . .
37.3(34) . . .
44(4) . . .
43.7(35) . . .
45.1(35) . . .
47(4) . . .
44.7(35) . . .
50(4) . . .
47(4) . . .
46(4) . . .
47(4) . . .
46(4) . . .
48(4) . . .
44(4) . . .
44.7(35) . . .
49(4) . . .
46(4) . . .
47(4) . . .
34.5(32) . . .
44.9(34) . . .
49(4) . . .
45(4) . . .
42.4(35) . . .
48(4) . . .
49(4) . . .
51(4) . . .
40.4(33) . . .
44(4) . . .
45(4) . . .
40.0(33) . . .
48(4) . . .
45.3(35) . . .
50(4) . . .
45(4) . . .
52(4) . . .
46(4) . . .
38.4(33) . . .
34.5(33) . . .
44(4) . . .
38.8(33) . . .
46(4) . . .
41.0(34) . . .
49(4) . . .
57(4) . . .
38.1(33) . . .
50(4) . . .
44.6(34) . . .
59(4) . . .
46.0(35) . . .
52(4) . . .
50(4) . . .
45(4) . . .
45(4) . . .
55(4) . . .
47(4) . . .
43(4) . . .
42(4) . . .
40.2(33) . . .
43.2(35) . . .
43.1(34) . . .
37.2(32) . . .
46(4) . . .
39(4) . . .
37.8(32) . . .
33.5(30) . . .
44(4) . . .
49(4) . . .
50(4) . . .
42.2(34) . . .
38.4(32) . . .
42.7(34) . . .
42(4) . . .
42.3(34) . . .
43.1(35) . . .
45.0(35) . . .
33.0(30) . . .
46(4) . . .
42.9(35) . . .
48(4) . . .
47(4) . . .
48(4) . . .
45(4) . . .
48(4) . . .
45.8(35) . . .
51(4) . . .
51(4) . . .
40.7(34) . . .
43.5(34) . . .
42.0(34) . . .
45.2(35) . . .
49(4) . . .
55(4) . . .
42.4(33) . . .
55(4) . . .
49(4) . . .
40.5(35) . . .
40.2(34) . . .
39.1(32) . . .
42.1(33) . . .
42.3(35) . . .
45(4) . . .
35.9(31) . . .
43(4) . . .
37.4(32) . . .
51(4) . . .
47(4) . . .
39.2(33) . . .
51(4) . . .
49(4) . . .
51(4) . . .
41.1(35) . . .
44.4(35) . . .
56(4) . . .
49(4) . . .
32.7(30) . . .
46(4) . . .
40.1(34) . . .
44.4(34) . . .
46(4) . . .
42.6(35) . . .
35.4(34) . . .
42(4) . . .
39.9(33) . . .
38.8(33) . . .
45(4) . . .
44(4) . . .
39.1(33) . . .
46(4) . . .
48(4) . . .
45.1(35) . . .
41.2(34) . . .
37.8(33) . . .
37.1(32) . . .
47(4) . . .
46(4) . . .
39.0(33) . . .
41.2(34) . . .
40.1(33) . . .
41(4) . . .
49(4) . . .
43(4) . . .
42.0(33) . . .
45.3(35) . . .
50(4) . . .
48(4) . . .
44(4) . . .
47(4) . . .
39.5(33) . . .
44(4) . . .
44(4) . . .
37.7(34) . . .
45(4) . . .
45.4(35) . . .
44.5(35) . . .
47(4) . . .
44(4) . . .
31.4(30) . . .
38.8(32) . . .
54(4) . . .
48(4) . . .
44(4) . . .
36.2(33) . . .
46(4) . . .
48(4) . . .
51(4) . . .
37.8(32) . . .
50(4) . . .
44(4) . . .
45(4) . . .
49(4) . . .
40.4(33) . . .
48(4) . . .
44.0(34) . . .
43(4) . . .
42(4) . . .
47(4) . . .
42.2(34) . . .
50(4) . . .
52(4) . . .
46(4) . . .
45(4) . . .
39.3(33) . . .
46(4) . . .
47(4) . . .
51(4) . . .
44(4) . . .
41.9(35) . . .
39.2(34) . . .
43(4) . . .
39.0(33) . . .
49(4) . . .
45(4) . . .
50(4) . . .
46.2(35) . . .
55(4) . . .
49(4) . . .
43.3(34) . . .
47(4) . . .
55(4) . . .
58(4) . . .
47(4) . . .
40.6(33) . . .
43(4) . . .
43(4) . . .
34.7(32) . . .
48(4) . . .
45(4) . . .
35.6(30) . . .
44(4) . . .
36.9(33) . . .
44.0(34) . . .
42.0(34) . . .
46(4) . . .
46(4) . . .
60(5) . . .
40.8(33) . . .
48(4) . . .
40.6(34) . . .
37.8(34) . . .
44(4) . . .
44.2(35) . . .
41.4(34) . . .
37.3(33) . . .
45(4) . . .
47(4) . . .
47(4) . . .
42.8(34) . . .
44(4) . . .
40(4) . . .
43(4) . . .
46(4) . . .
44(4) . . .
35.2(32) . . .
35.6(33) . . .
41.2(34) . . .
42.9(34) . . .
44.4(35) . . .
46(4) . . .
48(4) . . .
42.1(35) . . .
50(4) . . .
38.4(33) . . .
46(4) . . .
39.3(33) . . .
34.1(31) . . .
41.6(33) . . .
49(4) . . .
48(4) . . .
41.8(34) . . .
46(4) . . .
43.0(34) . . .
46(4) . . .
48(4) . . .
40.9(34) . . .
31.2(29) . . .
34.3(30) . . .
41.7(34) . . .
41(4) . . .
40.4(34) . . .
43.7(35) . . .
43.1(34) . . .
35.4(31) . . .
34.1(33) . . .
40.5(34) . . .
52(4) . . .
52(4) . . .
40.8(33) . . .
48(4) . . .
45(4) . . .
38.3(32) . . .
47(4) . . .
45(4) . . .
39.1(34) . . .
45(4) . . .
43.2(35) . . .
38.9(33) . . .
46(4) . . .
40.5(33) . . .
41(4) . . .
44.3(35) . . .
43.0(34) . . .
44.4(35) . . .
46(4) . . .
36.4(32) . . .
44.2(35) . . .
40.8(34) . . .
41(4) . . .
35.1(31) . . .
42.9(34) . . .
39.9(33) . . .
41.7(34) . . .
45(4) . . .
34.5(31) . . .
46(4) . . .
37.5(32) . . .
37.9(32) . . .
33.2(32) . . .
48(4) . . .
42.4(34) . . .
49(4) . . .
50(4) . . .
46(4) . . .
41(4) . . .
36.7(33) . . .
43.9(34) . . .
42.3(34) . . .
45(4) . . .
42.4(35) . . .
39.9(33) . . .
42.7(34) . . .
42.7(35) . . .
49(4) . . .
52(4) . . .
48(4) . . .
42.2(34) . . .
47(4) . . .
51(4) . . .
46(4) . . .
39.8(33) . . .
40.2(33) . . .
42(4) . . .
47(4) . . .
40.7(35) . . .
40.1(33) . . .
45(4) . . .
32.6(30) . . .
44(4) . . .
39.1(33) . . .
42.0(34) . . .
42.9(35) . . .
42.3(35) . . .
45(4) . . .
51(4) . . .
43.0(34) . . .
47(4) . . .
45(4) . . .
45(4) . . .
50(4) . . .
40.7(33) . . .
50(4) . . .
42.4(35) . . .
36.5(32) . . .
49(4) . . .
51(4) . . .
40.6(33) . . .
41.3(33) . . .
43(4) . . .
38.6(33) . . .
42.8(34) . . .
46(4) . . .
37.5(34) . . .
46(4) . . .
42.5(35) . . .
38.5(33) . . .
38.6(33) . . .
45(4) . . .
45(4) . . .
41.8(33) . . .
44.9(35) . . .
40.0(34) . . .
35.8(33) . . .
46(4) . . .
34.7(31) . . .
42.8(35) . . .
39.1(34) . . .
38.1(34) . . .
37.8(32) . . .
44.2(34) . . .
44(4) . . .
41.9(34) . . .
40.5(35) . . .
50(4) . . .
41.5(33) . . .
43(4) . . .
42.2(35) . . .
41(4) . . .
44(4) . . .
34.9(31) . . .
43.9(35) . . .
47(4) . . .
52(4) . . .
42.2(35) . . .
40.8(33) . . .
49(4) . . .
36.5(32) . . .
43(4) . . .
44(4) . . .
47(4) . . .
44(4) . . .
47(4) . . .
46(4) . . .
47(4) . . .
43.3(35) . . .
42.2(34) . . .
38.6(33) . . .
34.7(32) . . .
44(4) . . .
44.9(35) . . .
44(4) . . .
45.6(35) . . .
37.9(32) . . .
36.1(32) . . .
40.3(33) . . .
48(4) . . .
43(4) . . .
41(4) . . .
37.6(33) . . .
36.5(32) . . .
39.8(34) . . .
38.3(34) . . .
50(4) . . .
36.3(31) . . .
40.9(33) . . .
44.3(35) . . .
46(4) . . .
54(4) . . .
39.1(32) . . .
41.6(34) . . .
43(4) . . .
44(4) . . .
51(4) . . .
41.1(34) . . .
43.0(34) . . .
44.7(34) . . .
48(4) . . .
46(4) . . .
38.0(32) . . .
48(4) . . .
38.0(32) . . .
48(4) . . .
39.8(35) . . .
41.7(34) . . .
49(4) . . .
36.8(31) . . .
47(4) . . .
52(4) . . .
47(4) . . .
44.0(35) . . .
50(4) . . .
48(4) . . .
49(4) . . .
38.9(33) . . .
37.7(34) . . .
47(4) . . .
44(4) . . .
44(4) . . .
33.9(30) . . .
44(4) . . .
45(4) . . .
33.3(30) . . .
34.3(31) . . .
45(4) . . .
41.0(33) . . .
44(4) . . .
38.5(33) . . .
44.2(35) . . .
47(4) . . .
47(4) . . .
38.8(33) . . .
35.8(32) . . .
42.0(34) . . .
43.5(34) . . .
39.0(33) . . .
54(4) . . .
48(4) . . .
32.8(29) . . .
43.3(35) . . .
43(4) . . .
38.6(34) . . .
51(4) . . .
39.1(32) . . .
35.1(31) . . .
47(4) . . .
46(4) . . .
47(4) . . .
46(4) . . .
39.1(32) . . .
37.8(32) . . .
40.4(34) . . .
52(4) . . .
41.3(33) . . .
43(4) . . .
49(4) . . .
46(4) . . .
37.2(33) . . .
43.6(35) . . .
54(4) . . .
44(4) . . .
40.4(34) . . .
47(4) . . .
44.8(35) . . .
51(4) . . .
48(4) . . .
40.5(34) . . .
32.5(29) . . .
41.2(33) . . .
39.7(33) . . .
48(4) . . .
43.3(34) . . .
44.3(35) . . .
40.1(33) . . .
40(4) . . .
52(4) . . .
48(4) . . .
51(4) . . .
41.5(35) . . .
39.2(34) . . .
47(4) . . .
50(4) . . .
47(4) . . .
36.5(31) . . .
36.1(31) . . .
42(4) . . .
48(4) . . .
39.7(33) . . .
39.6(32) . . .
43(4) . . .
38.6(34) . . .
41.8(34) . . .
37.2(32) . . .
33.1(30) . . .
43(4) . . .
38.5(35) . . .
42(4) . . .
36.6(31) . . .
37.5(33) . . .
41(4) . . .
48(4) . . .
53(4) . . .
40.3(33) . . .
43.9(35) . . .
40.1(35) . . .
44(4) . . .
44(4) . . .
42.7(34) . . .
50(4) . . .
47(4) . . .
45(4) . . .
48(4) . . .
44.4(35) . . .
32.0(30) . . .
40(4) . . .
42.2(34) . . .
41.2(34) . . .
34.8(30) . . .
44(4) . . .
49(4) . . .
48(4) . . .
44.0(34) . . .
51(4) . . .
41(4) . . .
42(4) . . .
54(4) . . .
50(4) . . .
40.7(33) . . .
41.3(34) . . .
34.5(32) . . .
37.6(34) . . .
46(4) . . .
50(4) . . .
38.9(33) . . .
44(4) . . .
39.9(34) . . .
39.0(33) . . .
52(4) . . .
47(4) . . .
48(4) . . .
51(4) . . .
44.2(34) . . .
41.5(33) . . .
41.7(34) . . .
38.1(34) . . .
45(4) . . .
49(4) . . .
46(4) . . .
43.3(35) . . .
37.5(33) . . .
38.8(32) . . .
42.8(34) . . .
39.6(33) . . .
39.6(32) . . .
41.3(34) . . .
42.1(35) . . .
35.7(31) . . .
46(4) . . .
46(4) . . .
43(4) . . .
43(4) . . .
38.2(32) . . .
37.2(32) . . .
37.3(32) . . .
52(4) . . .
37.3(32) . . .
45(4) . . .
47(4) . . .
56(4) . . .
46(4) . . .
38.5(32) . . .
42.0(34) . . .
40.4(35) . . .
35.6(33) . . .
35.8(33) . . .
40.0(35) . . .
46(4) . . .
52(4) . . .
40.4(35) . . .
43(4) . . .
32.7(30) . . .
44(4) . . .
53(4) . . .
56(4) . . .
40.3(34) . . .
45(4) . . .
39.1(32) . . .
44(4) . . .
44(4) . . .
46(4) . . .
41.8(34) . . .
52(4) . . .
42.0(33) . . .
42(4) . . .
43(4) . . .
35.2(31) . . .
43.8(34) . . .
38.2(34) . . .
42(4) . . .
43(4) . . .
37.0(32) . . .
50(4) . . .
47(4) . . .
56(4) . . .
42.6(35) . . .
42.1(34) . . .
48(4) . . .
48(4) . . .
50(4) . . .
51(4) . . .
43.5(35) . . .
48(4) . . .
40.8(34) . . .
37.7(33) . . .
38.5(32) . . .
53(4) . . .
38.3(32) . . .
48(4) . . .
45(4) . . .
46(4) . . .
39.5(33) . . .
39.5(34) . . .
40.6(34) . . .
38.1(32) . . .
49(4) . . .
42.3(34) . . .
54(4) . . .
45(4) . . .
44(4) . . .
37.0(31) . . .
42.7(34) . . .
50(4) . . .
39.9(34) . . .
41.1(33) . . .
48(4) . . .
43.7(34) . . .
37.4(32) . . .
41(4) . . .
52(4) . . .
48(4) . . .
36.3(31) . . .
37.0(34) . . .
44(4) . . .
41.2(34) . . .
43.8(35) . . .
38.9(32) . . .
42(4) . . .
51(4) . . .
51(4) . . .
39.4(33) . . .
36.5(31) . . .
44(4) . . .
47(4) . . .
39.9(33) . . .
44.4(34) . . .
46(4) . . .
36.8(32) . . .
55(4) . . .
37.5(32) . . .
40.2(33) . . .
45(4) . . .
45(4) . . .
46(4) . . .
33.6(30) . . .
36.3(32) . . .
42.2(35) . . .
40.5(34) . . .
44(4) . . .
40.2(34) . . .
40.9(33) . . .
35.8(33) . . .
36.8(35) . . .
51(4) . . .
47(4) . . .
52(4) . . .
42(4) . . .
37.8(34) . . .
35.2(33) . . .
48(4) . . .
32.6(30) . . .
49(4) . . .
44(4) . . .
35.0(32) . . .
40.7(34) . . .
42.4(34) . . .
47(4) . . .
62(5) . . .
41.0(34) . . .
38.5(32) . . .
31.9(29) . . .
34.1(31) . . .
37(4) . . .
41(4) . . .
45(4) . . .
35.0(31) . . .
39.0(34) . . .
37.9(33) . . .
41(4) . . .
48(4) . . .
45(4) . . .
40.7(33) . . .
41.3(35) . . .
41(4) . . .
42.5(35) . . .
42.5(35) . . .
48(4) . . .
42.7(34) . . .
44.4(35) . . .
39.7(33) . . .
34.6(31) . . .
45(4) . . .
42(4) . . .
38.3(33) . . .
37.2(32) . . .
41.9(34) . . .
47(4) . . .
50(4) . . .
47(4) . . .
44.5(34) . . .
38.1(34) . . .
46(4) . . .
49(4) . . .
39.1(32) . . .
36.0(31) . . .
45(4) . . .
48(4) . . .
39.5(34) . . .
44(4) . . .
39.8(33) . . .
31.5(29) . . .
43(4) . . .
40.7(33) . . .
50(4) . . .
46(4) . . .
36.0(32) . . .
38(4) . . .
45(4) . . .
40.5(33) . . .
44.1(34) . . .
40.8(34) . . .
42(4) . . .
47(4) . . .
47(4) . . .
53(4) . . .
48(4) . . .
51(4) . . .
44(4) . . .
35.7(32) . . .
44.8(34) . . .
47(4) . . .
44(4) . . .
46(4) . . .
41.1(33) . . .
44(4) . . .
34.7(32) . . .
38.8(33) . . .
46(4) . . .
41.5(34) . . .
43.9(35) . . .
37.8(33) . . .
37.4(33) . . .
49(4) . . .
43.0(34) . . .
48(4) . . .
44(4) . . .
42(4) . . .
44(4) . . .
39.5(33) . . .
39.6(33) . . .
38.5(34) . . .
47(4) . . .
34.7(32) . . .
41.7(33) . . .
37.9(33) . . .
38.7(34) . . .
40.0(33) . . .
48(4) . . .
40.8(33) . . .
46(4) . . .
44(4) . . .
38.8(34) . . .
30.6(29) . . .
33.0(30) . . .
44(4) . . .
46(4) . . .
40.2(34) . . .
37.1(32) . . .
43.7(34) . . .
44(4) . . .
40(4) . . .
35.5(31) . . .
46(4) . . .
42.7(34) . . .
41.3(34) . . .
44(4) . . .
30.6(30) . . .
36.7(32) . . .
52(4) . . .
46(4) . . .
44(4) . . .
49(4) . . .
34.0(30) . . .
49(4) . . .
49(4) . . .
45(4) . . .
50(4) . . .
44.4(35) . . .
38.8(33) . . .
33.0(31) . . .
39.5(33) . . .
45(4) . . .
37.5(32) . . .
39.9(33) . . .
47(4) . . .
41.3(34) . . .
41.3(33) . . .
39.0(33) . . .
52(4) . . .
38.8(33) . . .
48(4) . . .
48(4) . . .
41.0(33) . . .
46(4) . . .
48(4) . . .
40.1(35) . . .
49(4) . . .
44.3(34) . . .
35.3(31) . . .
49(4) . . .
40.5(34) . . .
38.2(32) . . .
47(4) . . .
47(4) . . .
51(4) . . .
48(4) . . .
47(4) . . .
48(4) . . .
48(4) . . .
44(4) . . .
44.2(34) . . .
41.7(33) . . .
45(4) . . .
36.5(33) . . .
41(4) . . .
44.5(35) . . .
48(4) . . .
42.3(34) . . .
45(4) . . .
41(4) . . .
38.5(35) . . .
50(4) . . .
41.5(34) . . .
48(4) . . .
46(4) . . .
49(4) . . .
47(4) . . .
42.9(35) . . .
41(4) . . .
52(4) . . .
41.5(34) . . .
41.2(33) . . .
45(4) . . .
42(4) . . .
47(4) . . .
40(4) . . .
36.4(31) . . .
38.4(35) . . .
46(4) . . .
37.6(32) . . .
50(4) . . .
50(4) . . .
45(4) . . .
46(4) . . .
38.3(31) . . .
41.6(35) . . .
44.0(35) . . .
38.0(33) . . .
38.2(33) . . .
38(4) . . .
41.0(34) . . .
38.0(32) . . .
37.8(35) . . .
44(4) . . .
34.9(32) . . .
39.9(34) . . .
36.1(31) . . .
48(4) . . .
42(4) . . .
39.3(33) . . .
47(4) . . .
39.0(33) . . .
34.9(32) . . .
38.9(35) . . .
41(4) . . .
41.7(33) . . .
39.5(32) . . .
45(4) . . .
41(4) . . .
55(4) . . .
49(4) . . .
38.8(33) . . .
36.8(32) . . .
46(4) . . .
43(4) . . .
41.2(34) . . .
44.0(34) . . .
51(4) . . .
48(4) . . .
43(4) . . .
29.3(28) . . .
36.4(32) . . .
42(4) . . .
45(4) . . .
45(4) . . .
43.1(34) . . .
42.2(34) . . .
39.2(34) . . .
49(4) . . .
48(4) . . .
44.1(34) . . .
41.9(34) . . .
40(4) . . .
41.2(35) . . .
41.2(35) . . .
44.6(34) . . .
44(4) . . .
48(4) . . .
46(4) . . .
42.3(34) . . .
38.5(33) . . .
44.8(35) . . .
38.1(34) . . .
46(4) . . .
38.4(33) . . .
38.2(33) . . .
40.9(35) . . .
40(4) . . .
40.2(34) . . .
36.9(31) . . .
35.6(31) . . .
48(4) . . .
38.3(33) . . .
40.0(33) . . .
40.1(33) . . .
44.5(34) . . .
34.2(32) . . .
38.7(35) . . .
44(4) . . .
44.3(35) . . .
40.1(33) . . .
51(4) . . .
53(4) . . .
47(4) . . .
43.6(34) . . .
50(4) . . .
45(4) . . .
38.0(33) . . .
46(4) . . .
46(4) . . .
47(4) . . .
44(4) . . .
45(4) . . .
46(4) . . .
48(4) . . .
44(4) . . .
50(4) . . .
46(4) . . .
44(4) . . .
43.2(34) . . .
45(4) . . .
46(4) . . .
44.8(35) . . .
43(4) . . .
37.3(31) . . .
39.5(34) . . .
41(4) . . .
41(4) . . .
39.4(34) . . .
36.1(31) . . .
37.4(34) . . .
37.0(35) . . .
36.9(33) . . .
37.5(33) . . .
48(4) . . .
43.2(35) . . .
47(4) . . .
42(4) . . .
47(4) . . .
41.9(34) . . .
44(4) . . .
42(4) . . .
47(4) . . .
46(4) . . .
34.7(31) . . .
52(4) . . .
40(4) . . .
43(4) . . .
45.1(34) . . .
41.2(34) . . .
35.7(33) . . .
39(4) . . .
44(4) . . .
38.0(32) . . .
46(4) . . .
48(4) . . .
45(4) . . .
40.8(34) . . .
49(4) . . .
42.8(34) . . .
45(4) . . .
44(4) . . .
40.1(33) . . .
46(4) . . .
35.5(31) . . .
39.2(33) . . .
41(4) . . .
43(4) . . .
38.4(32) . . .
46(4) . . .
42.6(34) . . .
46(4) . . .
43.4(34) . . .
45(4) . . .
38.4(33) . . .
37.0(34) . . .
45(4) . . .
40.2(34) . . .
44.0(35) . . .
41.0(35) . . .
48(4) . . .
41.0(34) . . .
42.5(33) . . .
47(4) . . .
38.3(32) . . .
52(4) . . .
35.7(30) . . .
38.4(32) . . .
42.1(34) . . .
55(4) . . .
36.8(34) . . .
37.7(34) . . .
47(4) . . .
37.4(32) . . .
32.8(30) . . .
36.1(32) . . .
42.1(33) . . .
46(4) . . .
39.4(32) . . .
46(4) . . .
43(4) . . .
39.9(33) . . .
33.5(30) . . .
48(4) . . .
51(4) . . .
44(4) . . .
44(4) . . .
58(4) . . .
47(4) . . .
32.8(30) . . .
42.8(35) . . .
42.5(35) . . .
40.1(33) . . .
44(4) . . .
50(4) . . .
40.9(35) . . .
35.8(32) . . .
32.9(30) . . .
28.9(28) . . .
42(4) . . .
38.0(33) . . .
44(4) . . .
42.2(34) . . .
38.3(34) . . .
38(4) . . .
46(4) . . .
44(4) . . .
46(4) . . .
45(4) . . .
50(4) . . .
46(4) . . .
50(4) . . .
44.9(35) . . .
44(4) . . .
50(4) . . .
40.2(34) . . .
40.2(33) . . .
45.2(35) . . .
37.6(33) . . .
35.6(34) . . .
38.9(34) . . .
47(4) . . .
45.5(35) . . .
48(4) . . .
40.3(34) . . .
44(4) . . .
43.9(35) . . .
48(4) . . .
42.7(35) . . .
35.9(33) . . .
41(4) . . .
45(4) . . .
42.5(34) . . .
38.6(34) . . .
43(4) . . .
46(4) . . .
40.8(34) . . .
42.4(34) . . .
46(4) . . .
35.6(32) . . .
36.1(32) . . .
45.3(35) . . .
45(4) . . .
44(4) . . .
48(4) . . .
39.1(33) . . .
43.4(34) . . .
45(4) . . .
47(4) . . .
51(4) . . .
47(4) . . .
46.2(35) . . .
38.6(32) . . .
41.0(34) . . .
46(4) . . .
37.0(31) . . .
41.5(33) . . .
38.8(33) . . .
37.0(33) . . .
41(4) . . .
39.3(33) . . .
48(4) . . .
44(4) . . .
42(4) . . .
42(4) . . .
34.9(30) . . .
54(4) . . .
45(4) . . .
37.0(34) . . .
47(4) . . .
40.4(34) . . .
38.3(32) . . .
49(4) . . .
55(4) . . .
45(4) . . .
45.4(35) . . .
45(4) . . .
45(4) . . .
39.8(34) . . .
43(4) . . .
35.0(31) . . .
40.9(33) . . .
50(4) . . .
48(4) . . .
39.2(33) . . .
44.5(35) . . .
38.0(32) . . .
51(4) . . .
51(4) . . .
37.5(34) . . .
47(4) . . .
47(4) . . .
49(4) . . .
44(4) . . .
48(4) . . .
43.7(34) . . .
42.7(35) . . .
47(4) . . .
37.9(34) . . .
44(4) . . .
36.5(31) . . .
34.9(32) . . .
37.5(34) . . .
35(4) . . .
42.7(35) . . .
44.1(34) . . .
37.6(33) . . .
45(4) . . .
46(4) . . .
42.4(35) . . .
44.3(34) . . .
50(4) . . .
42(4) . . .
35.4(33) . . .
47(4) . . .
41.9(34) . . .
41.5(35) . . .
38.0(34) . . .
40.0(35) . . .
36.1(31) . . .
47(4) . . .
45(4) . . .
41(4) . . .
38.8(34) . . .
47(4) . . .
55(4) . . .
44.9(35) . . .
49(4) . . .
45(4) . . .
35.5(31) . . .
44.4(35) . . .
38.3(34) . . .
45(4) . . .
45(4) . . .
40.6(33) . . .
42.3(34) . . .
50(4) . . .
50(4) . . .
45(4) . . .
48(4) . . .
52(4) . . .
48(4) . . .
43.4(35) . . .
37.2(32) . . .
40.2(33) . . .
42.0(34) . . .
30.6(29) . . .
35.3(32) . . .
45(4) . . .
42.6(34) . . .
36.4(32) . . .
44(4) . . .
36.5(33) . . .
41.8(35) . . .
41.6(34) . . .
40.0(33) . . .
47(4) . . .
45(4) . . .
47(4) . . .
44.4(35) . . .
35.6(31) . . .
41.5(34) . . .
44(4) . . .
44.7(34) . . .
40.7(33) . . .
36.0(32) . . .
47(4) . . .
37.2(33) . . .
40.8(33) . . .
43.5(34) . . .
40.0(33) . . .
36.9(32) . . .
41.5(35) . . .
30.7(29) . . .
41.2(33) . . .
39.1(34) . . .
35.7(33) . . .
49(4) . . .
36.0(31) . . .
43.3(34) . . .
45.1(34) . . .
43(4) . . .
43(4) . . .
39.3(33) . . .
41.0(33) . . .
39.3(33) . . .
39.2(34) . . .
45(4) . . .
46(4) . . .
49(4) . . .
41.5(35) . . .
32.9(30) . . .
47(4) . . .
31.4(30) . . .
40.7(33) . . .
45(4) . . .
34.3(31) . . .
34.1(33) . . .
46(4) . . .
44(4) . . .
43.5(34) . . .
33.6(30) . . .
39.4(34) . . .
44.0(35) . . .
37.3(32) . . .
48(4) . . .
45(4) . . .
42.8(34) . . .
46(4) . . .
50(4) . . .
39.8(34) . . .
39.0(33) . . .
40.1(33) . . .
36.4(31) . . .
47(4) . . .
46(4) . . .
38.6(32) . . .
38.9(32) . . .
34.6(30) . . .
34.4(31) . . .
36.8(32) . . .
43.7(34) . . .
48(4) . . .
47(4) . . .
37.3(32) . . .
39.5(34) . . .
40.8(33) . . .
41.5(33) . . .
41.7(34) . . .
40.1(34) . . .
34.4(32) . . .
49(4) . . .
50(4) . . .
39.8(33) . . .
42.1(35) . . .
44(4) . . .
36.9(32) . . .
38.5(33) . . .
40.3(34) . . .
39.1(32) . . .
46(4) . . .
39.2(35) . . .
41.4(33) . . .
42.4(34) . . .
47(4) . . .
34.2(31) . . .
42.2(35) . . .
37.8(32) . . .
36.3(32) . . .
40(4) . . .
43.0(35) . . .
43.6(34) . . .
40.0(33) . . .
49(4) . . .
44(4) . . .
34.2(30) . . .
43.7(35) . . .
36.4(31) . . .
40.7(35) . . .
40.1(35) . . .
38.8(34) . . .
41.4(34) . . .
41.9(34) . . .
42(4) . . .
35.9(33) . . .
38.0(33) . . .
41.2(33) . . .
41.5(34) . . .
47(4) . . .
38.5(34) . . .
45(4) . . .
50(4) . . .
38.2(32) . . .
38.5(34) . . .
36.2(33) . . .
43(4) . . .
40.9(33) . . .
35.5(31) . . .
48(4) . . .
43(4) . . .
39.4(33) . . .
35.2(31) . . .
41.6(34) . . .
40.5(34) . . .
42(4) . . .
40.6(35) . . .
37.9(32) . . .
53(4) . . .
45.1(35) . . .
40.4(34) . . .
40.0(35) . . .
34.5(31) . . .
33.0(30) . . .
41.7(34) . . .
43(4) . . .
37.5(35) . . .
42.7(34) . . .
38.0(32) . . .
50(4) . . .
37.5(31) . . .
41.9(34) . . .
32.3(29) . . .
43(4) . . .
46(4) . . .
48(4) . . .
53(4) . . .
49(4) . . .
38.0(33) . . .
37.0(34) . . .
32.7(31) . . .
36.0(31) . . .
41.2(34) . . .
37.0(32) . . .
37.2(33) . . .
40.9(34) . . .
41.4(34) . . .
42.3(35) . . .
39.5(33) . . .
42(4) . . .
40.4(34) . . .
37.2(32) . . .
46(4) . . .
43(4) . . .
37.6(33) . . .
40.6(34) . . .
41.6(34) . . .
38.0(32) . . .
33.1(31) . . .
32.2(32) . . .
39(4) . . .
37.0(31) . . .
37.3(32) . . .
48(4) . . .
32.5(30) . . .
41(4) . . .
37.9(32) . . .
48(4) . . .
52(4) . . .
46(4) . . .
39.9(33) . . .
48(4) . . .
44(4) . . .
33.6(31) . . .
47(4) . . .
46(4) . . .
51(4) . . .
28.5(28) . . .
40.6(35) . . .
39.5(34) . . .
45(4) . . .
39.7(33) . . .
43(4) . . .
40.8(33) . . .
35.5(31) . . .
42(4) . . .
35.9(31) . . .
39(4) . . .
37.5(32) . . .
48(4) . . .
42.7(34) . . .
46(4) . . .
40.6(34) . . .
45(4) . . .
47(4) . . .
43.3(34) . . .
38.4(32) . . .
45(4) . . .
41(4) . . .
42(4) . . .
44.0(34) . . .
48(4) . . .
39.1(33) . . .
43(4) . . .
47(4) . . .
48(4) . . .
36.6(32) . . .
34.8(32) . . .
33.0(33) . . .
35.7(35) . . .
38.0(32) . . .
33.0(30) . . .
47(4) . . .
45(4) . . .
47(4) . . .
41.0(33) . . .
40.3(33) . . .
43(4) . . .
39.1(34) . . .
35.5(31) . . .
54(4) . . .
48(4) . . .
42.2(34) . . .
46(4) . . .
33.5(30) . . .
33.5(31) . . .
39.3(32) . . .
45(4) . . .
41.2(34) . . .
47(4) . . .
40.3(34) . . .
50(4) . . .
41(4) . . .
40.7(35) . . .
43.6(35) . . .
38.4(32) . . .
40.0(32) . . .
39.2(33) . . .
35.9(32) . . .
42(4) . . .
42.9(34) . . .
36.3(31) . . .
44(4) . . .
40(4) . . .
39.3(34) . . .
43.0(34) . . .
38.4(34) . . .
37.6(35) . . .
42(4) . . .
36.5(32) . . .
40.9(33) . . .
43(4) . . .
44(4) . . .
45(4) . . .
43.4(34) . . .
49(4) . . .
43.7(35) . . .
48(4) . . .
37.0(32) . . .
38.0(32) . . .
49(4) . . .
41.2(34) . . .
48(4) . . .
46(4) . . .
43.5(34) . . .
46(4) . . .
37.4(33) . . .
39(4) . . .
44(4) . . .
49(4) . . .
43.5(35) . . .
38.1(32) . . .
46(4) . . .
42.2(34) . . .
48(4) . . .
37.8(33) . . .
37.9(33) . . .
51(4) . . .
52(4) . . .
35.5(31) . . .
40.7(33) . . .
31.9(29) . . .
51(4) . . .
38.2(32) . . .
40.9(33) . . .
41.5(34) . . .
45(4) . . .
48(4) . . .
40.9(33) . . .
46(4) . . .
43.7(34) . . .
45(4) . . .
41.5(33) . . .
38.8(32) . . .
47(4) . . .
44(4) . . .
44(4) . . .
46(4) . . .
39.6(34) . . .
35.1(31) . . .
39.8(32) . . .
37.3(34) . . .
39(4) . . .
40.1(33) . . .
42.7(34) . . .
36.2(33) . . .
34.8(32) . . .
35.3(31) . . .
36.6(31) . . .
38.6(32) . . .
39.6(34) . . .
37.4(35) . . .
35.4(31) . . .
42.5(34) . . .
43.3(34) . . .
46(4) . . .
39.3(35) . . .
45(4) . . .
45.2(34) . . .
35.6(32) . . .
37.3(32) . . .
41(4) . . .
40.5(35) . . .
39.9(33) . . .
39.0(33) . . .
41.3(34) . . .
45(4) . . .
38.2(32) . . .
37.9(32) . . .
39.9(33) . . .
41.4(34) . . .
39.9(33) . . .
42.3(34) . . .
48(4) . . .
40.5(34) . . .
45(4) . . .
36.3(33) . . .
46(4) . . .
36.8(32) . . .
35.7(34) . . .
38.3(34) . . .
30.3(28) . . .
39.3(33) . . .
40.0(33) . . .
34.2(31) . . .
37.8(35) . . .
40(4) . . .
46(4) . . .
36.2(32) . . .
41.2(35) . . .
47(4) . . .
39.9(34) . . .
38.5(33) . . .
51(4) . . .
46(4) . . .
41(4) . . .
37.6(33) . . .
35.3(31) . . .
36.4(32) . . .
43(4) . . .
39(4) . . .
33.0(31) . . .
41.2(34) . . .
42.2(34) . . .
38.1(33) . . .
42(4) . . .
39.3(33) . . .
47(4) . . .
44.3(35) . . .
43.1(35) . . .
44(4) . . .
48(4) . . .
39.1(32) . . .
39.8(34) . . .
39(4) . . .
34.9(33) . . .
36.2(34) . . .
36.5(32) . . .
39.0(34) . . .
44(4) . . .
35.1(32) . . .
37.7(35) . . .
41.2(33) . . .
46(4) . . .
40.2(34) . . .
44(4) . . .
39.3(34) . . .
45.1(35) . . .
41.0(35) . . .
44.4(35) . . .
43.4(35) . . .
33.1(29) . . .
38.8(33) . . .
41.9(34) . . .
42(4) . . .
35.8(33) . . .
41.4(35) . . .
40.9(33) . . .
44(4) . . .
44(4) . . .
39.0(32) . . .
38.9(32) . . .
43.8(35) . . .
38.5(33) . . .
49(4) . . .
40.8(34) . . .
42.8(34) . . .
50(4) . . .
45(4) . . .
37(4) . . .
37.2(32) . . .
47(4) . . .
38.7(33) . . .
39.2(34) . . .
39(4) . . .
48(4) . . .
44.0(35) . . .
35.8(31) . . .
43(4) . . .
39.0(34) . . .
41.6(34) . . .
29.7(28) . . .
37.9(33) . . .
43(4) . . .
43(4) . . .
41(4) . . .
42.1(34) . . .
37.7(32) . . .
36.4(32) . . .
44(4) . . .
41.8(34) . . .
41.4(33) . . .
48(4) . . .
42.3(34) . . .
36.6(32) . . .
34.7(31) . . .
35.3(32) . . .
38.5(34) . . .
40.4(33) . . .
46(4) . . .
41(4) . . .
41.2(33) . . .
38.9(34) . . .
46(4) . . .
41.7(34) . . .
43.3(35) . . .
44.6(35) . . .
43(4) . . .
35.0(32) . . .
33.9(30) . . .
45(4) . . .
26.1(28) . . .
39(4) . . .
38(4) . . .
43(4) . . .
45(4) . . .
43.1(34) . . .
43.0(34) . . .
44(4) . . .
41.9(34) . . .
44.5(35) . . .
52(4) . . .
38.7(33) . . .
42(4) . . .
33.0(30) . . .
38.8(32) . . .
37.6(33) . . .
44(4) . . .
44(4) . . .
42.8(34) . . .
46(4) . . .
35.1(32) . . .
41.1(35) . . .
41(4) . . .
34.6(31) . . .
34.0(30) . . .
49(4) . . .
31.0(31) . . .
36.8(35) . . .
38.7(34) . . .
42.3(34) . . .
37.7(32) . . .
43.5(35) . . .
46(4) . . .
40.2(33) . . .
36.2(32) . . .
36.0(34) . . .
42(4) . . .
40.1(35) . . .
37.5(32) . . .
44.0(34) . . .
46(4) . . .
43(4) . . .
41.7(35) . . .
38.5(33) . . .
46(4) . . .
41.8(34) . . .
45(4) . . .
36.6(33) . . .
39.0(33) . . .
41.2(35) . . .
34.2(32) . . .
36(4) . . .
44(4) . . .
30.5(28) . . .
34.5(31) . . .
36.0(35) . . .
37.6(33) . . .
47(4) . . .
46(4) . . .
41.4(34) . . .
43.1(35) . . .
44(4) . . .
38.3(35) . . .
44.9(35) . . .
39.4(34) . . .
36.5(33) . . .
38.5(35) . . .
38.9(33) . . .
39.1(33) . . .
41.2(34) . . .
47(4) . . .
35.8(32) . . .
39(4) . . .
35.9(31) . . .
36.1(32) . . .
36.9(34) . . .
30.7(29) . . .
51(4) . . .
43.3(34) . . .
39.9(33) . . .
39.5(34) . . .
40(4) . . .
40.5(34) . . .
37.5(32) . . .
41.6(34) . . .
38.7(34) . . .
43(4) . . .
38.8(34) . . .
40.5(33) . . .
41.7(34) . . .
48(4) . . .
46(4) . . .
40.2(34) . . .
34.0(30) . . .
27.9(28) . . .
46(4) . . .
38.9(34) . . .
33.4(30) . . .
52(4) . . .
36.9(32) . . .
35.6(35) . . .
42(4) . . .
43.6(34) . . .
48(4) . . .
44(4) . . .
35.4(31) . . .
41(4) . . .
41.5(33) . . .
35.7(32) . . .
39.6(33) . . .
33.1(32) . . .
42(4) . . .
36.2(31) . . .
37.4(31) . . .
38.2(33) . . .
49(4) . . .
31.7(31) . . .
42.5(34) . . .
41.0(35) . . .
46(4) . . .
38.9(35) . . .
32.4(30) . . .
41.3(33) . . .
46(4) . . .
44.3(35) . . .
39.5(34) . . .
40(4) . . .
39.7(33) . . .
37.2(33) . . .
39.3(33) . . .
45(4) . . .
33.6(32) . . .
33.0(30) . . .
38.5(33) . . .
45(4) . . .
41.6(35) . . .
32.8(29) . . .
38.0(32) . . .
35.6(33) . . .
45(4) . . .
37.4(33) . . .
38.0(33) . . .
38.1(33) . . .
38.9(33) . . .
39.8(35) . . .
32.5(31) . . .
37.9(32) . . .
39.5(33) . . .
40.1(34) . . .
34.2(30) . . .
40.9(33) . . .
41.1(33) . . .
47(4) . . .
39.5(34) . . .
33.6(32) . . .
34.5(33) . . .
43.6(35) . . .
42.8(34) . . .
44(4) . . .
48(4) . . .
42.3(34) . . .
33.6(30) . . .
35.1(31) . . .
38.4(34) . . .
31.8(29) . . .
36.3(35) . . .
44.5(35) . . .
38.6(32) . . .
51(4) . . .
46(4) . . .
42(4) . . .
42.0(33) . . .
40.1(35) . . .
35.7(31) . . .
37.1(33) . . .
33.0(30) . . .
48(4) . . .
38.5(33) . . .
33.5(31) . . .
44(4) . . .
45(4) . . .
37.5(32) . . .
41.8(34) . . .
37.2(33) . . .
48(4) . . .
50(4) . . .
44.0(35) . . .
54(4) . . .
40.9(33) . . .
46(4) . . .
41.3(34) . . .
35.9(32) . . .
36.5(34) . . .
37.6(33) . . .
42.5(35) . . .
41.6(35) . . .
39.1(32) . . .
32.9(30) . . .
41(4) . . .
43(4) . . .
37.0(32) . . .
43.7(34) . . .
36.4(33) . . .
38.9(35) . . .
38.9(33) . . .
40.0(33) . . .
34.7(30) . . .
49(4) . . .
44(4) . . .
35.6(31) . . .
35.8(32) . . .
40.1(33) . . .
41.7(35) . . .
44(4) . . .
40.9(33) . . .
46(4) . . .
44.2(35) . . .
33.2(31) . . .
41(4) . . .
33.4(32) . . .
29.7(28) . . .
42.0(34) . . .
39.2(32) . . .
42(4) . . .
38.0(33) . . .
40.1(33) . . .
31.8(31) . . .
40.9(35) . . .
44(4) . . .
38.4(33) . . .
40.5(33) . . .
43(4) . . .
39.5(34) . . .
33.4(29) . . .
33.9(31) . . .
34.6(31) . . .
41.3(34) . . .
39.8(34) . . .
39(4) . . .
44(4) . . .
37.5(32) . . .
37.7(32) . . .
42.1(35) . . .
37.1(33) . . .
38.8(32) . . .
41.8(34) . . .
40.7(33) . . .
35.1(32) . . .
39.7(33) . . .
43.8(34) . . .
36.1(32) . . .
33.2(31) . . .
32.2(33) . . .
38(4) . . .
40.7(33) . . .
38.0(32) . . .
37.3(32) . . .
39(4) . . .
40(4) . . .
31.1(29) . . .
38.1(33) . . .
39.8(34) . . .
30.5(32) . . .
35.0(34) . . .
33.0(30) . . .
36.3(32) . . .
42.0(35) . . .
41(4) . . .
39.5(33) . . .
40.6(33) . . .
38.1(32) . . .
42.7(34) . . .
48(4) . . .
35.3(31) . . .
44.4(34) . . .
37.0(32) . . .
36.1(34) . . .
34.7(32) . . .
43(4) . . .
50(4) . . .
47(4) . . .
36.6(32) . . .
37.9(33) . . .
28.7(29) . . .
37.2(32) . . .
28.6(28) . . .
39.1(34) . . .
37.7(33) . . .
38.8(35) . . .
27.0(27) . . .
38.4(33) . . .
37.6(32) . . .
34.4(30) . . .
40.5(33) . . .
35.7(32) . . .
47(4) . . .
37.0(32) . . .
42(4) . . .
42.3(35) . . .
37.3(32) . . .
37.7(34) . . .
34.4(30) . . .
50(4) . . .
50(4) . . .
41.1(33) . . .
26.4(27) . . .
33.5(32) . . .
33.5(32) . . .
35.3(31) . . .
40.8(33) . . .
47(4) . . .
44(4) . . .
40(4) . . .
32.8(30) . . .
32.7(30) . . .
37.0(33) . . .
44(4) . . .
44(4) . . .
35.0(32) . . .
32.7(31) . . .
39.2(34) . . .
36.5(31) . . .
38.3(33) . . .
44.8(35) . . .
50(4) . . .
33.8(31) . . .
31.8(29) . . .
40.6(34) . . .
42.7(34) . . .
27.5(28) . . .
35.9(34) . . .
34.4(31) . . .
40.3(34) . . .
41.2(33) . . .
33.9(30) . . .
36.8(32) . . .
41(4) . . .
40.9(35) . . .
43(4) . . .
44.1(35) . . .
39.4(31) . . .
48(4) . . .
42(4) . . .
51(4) . . .
46(4) . . .
36.1(33) . . .
39.7(34) . . .
46(4) . . .
30.1(29) . . .
40.3(35) . . .
41.8(35) . . .
42.6(34) . . .
34.6(31) . . .
34.5(31) . . .
35.8(33) . . .
41(4) . . .
32.9(30) . . .
37.7(32) . . .
36.7(32) . . .
44(4) . . .
40(4) . . .
41(4) . . .
33.7(30) . . .
36.0(31) . . .
41.8(34) . . .
34.5(33) . . .
31.4(31) . . .
30.8(28) . . .
43(4) . . .
46(4) . . .
40(4) . . .
34.9(32) . . .
38.7(32) . . .
39.1(35) . . .
37.0(34) . . .
36.1(33) . . .
32.4(30) . . .
38.8(33) . . .
36.7(31) . . .
44(4) . . .
41(4) . . .
37.9(34) . . .
34.3(31) . . .
47(4) . . .
47(4) . . .
34.2(31) . . .
39.0(32) . . .
53(4) . . .
34.8(31) . . .
40(4) . . .
46(4) . . .
34.8(32) . . .
44.1(34) . . .
42(4) . . .
39.3(35) . . .
37.5(33) . . .
34.9(31) . . .
34.1(30) . . .
36.5(32) . . .
34.0(32) . . .
40.7(34) . . .
42.9(35) . . .
43.2(34) . . .
39.0(33) . . .
41.7(35) . . .
40.2(34) . . .
42.6(34) . . .
45(4) . . .
47(4) . . .
36.7(33) . . .
34.2(31) . . .
43.8(34) . . .
46(4) . . .
33.9(31) . . .
39(4) . . .
29.9(29) . . .
37.3(32) . . .
37.0(32) . . .
37.1(33) . . .
46(4) . . .
41(4) . . .
42.1(34) . . .
48(4) . . .
38.5(33) . . .
38.1(34) . . .
32.5(32) . . .
45.1(35) . . .
39.6(33) . . .
41(4) . . .
34.1(31) . . .
33.8(32) . . .
47(4) . . .
39.3(33) . . .
31.4(31) . . .
39.9(35) . . .
33.3(30) . . .
37.1(33) . . .
47(4) . . .
33.0(30) . . .
36.4(32) . . .
40.7(34) . . .
45.0(35) . . .
33.1(30) . . .
37.7(34) . . .
44(4) . . .
54(4) . . .
32.8(30) . . .
33.9(31) . . .
38.3(34) . . .
36.3(34) . . .
37.1(32) . . .
34.1(30) . . .
48(4) . . .
35.2(31) . . .
40.9(34) . . .
37.8(32) . . .
38.1(32) . . .
35.4(30) . . .
42(4) . . .
39.9(35) . . .
45.6(35) . . .
38.0(32) . . .
36.3(32) . . .
29.0(30) . . .
34.8(33) . . .
38.9(33) . . .
35.0(33) . . .
40.3(34) . . .
44(4) . . .
32.3(31) . . .
27.8(28) . . .
43(4) . . .
41(4) . . .
35.9(34) . . .
38(4) . . .
34.5(31) . . .
38.7(32) . . .
52(4) . . .
33.5(29) . . .
43(4) . . .
49(4) . . .
47(4) . . .
39.3(35) . . .
30.3(27) . . .
46(4) . . .
39.4(33) . . .
37.3(32) . . .
47(4) . . .
43(4) . . .
40.7(33) . . .
35.0(31) . . .
42(4) . . .
33.3(32) . . .
44(4) . . .
49(4) . . .
43.3(34) . . .
42(4) . . .
24.8(27) . . .
43(4) . . .
45.5(35) . . .
39.3(32) . . .
33.2(31) . . .
42(4) . . .
42(4) . . .
38.9(35) . . .
36.2(31) . . .
42.1(34) . . .
43.5(34) . . .
42.6(35) . . .
39.0(33) . . .
34.1(31) . . .
39.6(34) . . .
41(4) . . .
38.0(34) . . .
36.9(32) . . .
36.1(31) . . .
42.3(34) . . .
42(4) . . .
40(4) . . .
45.0(35) . . .
39.9(34) . . .
34.4(32) . . .
36.5(34) . . .
34.9(32) . . .
46(4) . . .
46(4) . . .
45(4) . . .
32.9(29) . . .
40.0(34) . . .
43.0(35) . . .
33.3(30) . . .
37.5(32) . . .
41.6(34) . . .
39.8(35) . . .
38.8(33) . . .
38.1(33) . . .
44(4) . . .
38.7(34) . . .
43(4) . . .
33.8(30) . . .
37.8(34) . . .
39(4) . . .
41.6(34) . . .
33.8(30) . . .
42.7(34) . . .
43(4) . . .
39.7(34) . . .
36.6(32) . . .
31.2(29) . . .
38.3(33) . . .
38.3(34) . . .
36.3(35) . . .
46(4) . . .
39.9(32) . . .
40.6(33) . . .
49(4) . . .
39(4) . . .
36.8(33) . . .
38.9(33) . . .
39.4(32) . . .
38.0(33) . . .
36.8(34) . . .
33.9(32) . . .
32.9(30) . . .
43.7(34) . . .
44(4) . . .
41(4) . . .
39.3(33) . . .
44.4(35) . . .
46.1(35) . . .
34.8(31) . . .
34.0(33) . . .
45(4) . . .
37.5(33) . . .
45(4) . . .
31.9(34) . . .
33.8(34) . . .
35.6(32) . . .
42.5(34) . . .
37.6(34) . . .
37.2(33) . . .
28.1(27) . . .
41.1(35) . . .
42.5(34) . . .
39.2(32) . . .
38.1(32) . . .
39.7(34) . . .
27.8(27) . . .
34.4(31) . . .
39.6(35) . . .
39(4) . . .
45(4) . . .
34.7(31) . . .
42.1(34) . . .
45(4) . . .
36.9(34) . . .
46(4) . . .
42.4(34) . . .
40.2(33) . . .
39.2(34) . . .
34.8(31) . . .
40.1(35) . . .
37.0(31) . . .
42.5(34) . . .
43(4) . . .
34.5(32) . . .
32.2(30) . . .
45(4) . . .
45.6(35) . . .
44(4) . . .
38.5(35) . . .
36.4(33) . . .
36.8(34) . . .
44.2(34) . . .
30.6(29) . . .
37.5(35) . . .
37.5(32) . . .
28.7(28) . . .
38.1(33) . . .
39.1(32) . . .
31.9(31) . . .
33.9(31) . . .
42.3(34) . . .
40.9(34) . . .
44(4) . . .
33.8(30) . . .
31.9(31) . . .
34.7(30) . . .
37.3(32) . . .
39.1(33) . . .
42(4) . . .
36.2(32) . . .
42.1(34) . . .
41.2(33) . . .
34.2(30) . . .
38.2(33) . . .
42(4) . . .
42.9(34) . . .
45(4) . . .
34.6(32) . . .
47(4) . . .
44(4) . . .
40.5(33) . . .
30.3(31) . . .
40(4) . . .
34.8(32) . . .
39.7(34) . . .
36.0(31) . . .
35.5(32) . . .
29.8(29) . . .
39.3(34) . . .
38.3(34) . . .
35.5(31) . . .
31.7(32) . . .
37.2(34) . . .
42(4) . . .
39.9(33) . . .
28.6(28) . . .
35.2(32) . . .
38(4) . . .
38.0(33) . . .
42.5(34) . . .
34.6(32) . . .
38.4(34) . . .
40(4) . . .
38.3(34) . . .
33.1(30) . . .
42.6(34) . . .
45(4) . . .
41(4) . . .
30.2(30) . . .
44.1(34) . . .
38.2(33) . . .
25.9(28) . . .
31.5(33) . . .
37.6(33) . . .
34.9(31) . . .
43(4) . . .
36.8(33) . . .
43(4) . . .
39.6(33) . . .
47(4) . . .
30.9(30) . . .
35.0(32) . . .
45(4) . . .
33.6(30) . . .
37.3(32) . . .
37.7(32) . . .
31.4(30) . . .
34.8(35) . . .
34.1(30) . . .
34.6(30) . . .
38.4(35) . . .
38.0(32) . . .
48(4) . . .
42(4) . . .
37.3(32) . . .
33.9(32) . . .
39(4) . . .
47(4) . . .
39.6(33) . . .
40.1(32) . . .
33.3(31) . . .
38.8(35) . . .
34.4(31) . . .
42.0(34) . . .
33.8(31) . . .
38.1(33) . . .
34.1(31) . . .
47(4) . . .
42.3(34) . . .
37.6(32) . . .
47(4) . . .
32.0(31) . . .
49(4) . . .
37.6(32) . . .
29.6(28) . . .
40.4(35) . . .
46(4) . . .
38.5(33) . . .
42.1(33) . . .
31.0(29) . . .
34.1(32) . . .
30.4(31) . . .
38.9(33) . . .
32.8(30) . . .
30.7(30) . . .
42(4) . . .
34.7(32) . . .
30.8(30) . . .
34.1(30) . . .
37.7(33) . . .
36.8(32) . . .
43(4) . . .
35.2(32) . . .
38.3(32) . . .
36.2(31) . . .
35.5(32) . . .
44(4) . . .
39.8(33) . . .
34.5(31) . . .
34.3(32) . . .
39.4(33) . . .
38.6(32) . . .
45(4) . . .
42.4(34) . . .
35.4(32) . . .
40.9(35) . . .
38.6(32) . . .
44(4) . . .
42.6(34) . . .
39.6(34) . . .
30.8(31) . . .
33.4(33) . . .
41.7(34) . . .
46(4) . . .
42(4) . . .
40(4) . . .
40.6(33) . . .
39.8(32) . . .
42.0(34) . . .
43(4) . . .
45(4) . . .
43(4) . . .
38.8(33) . . .
42.8(34) . . .
37.6(33) . . .
35.7(31) . . .
43.7(35) . . .
38.4(32) . . .
44.3(35) . . .
38.8(33) . . .
35.3(32) . . .
39.1(33) . . .
35.8(31) . . .
46(4) . . .
44(4) . . .
35.4(33) . . .
34.1(31) . . .
33.3(30) . . .
47(4) . . .
33.8(30) . . .
47(4) . . .
39.4(33) . . .
37.5(32) . . .
35.1(32) . . .
33.4(32) . . .
38.7(33) . . .
40.6(34) . . .
39.4(33) . . .
28.4(28) . . .
34.2(32) . . .
38.4(33) . . .
33.8(32) . . .
44.3(34) . . .
35.9(32) . . .
33.9(31) . . .
32.9(32) . . .
45(4) . . .
49(4) . . .
36.7(33) . . .
34.7(31) . . .
40.8(34) . . .
35.9(31) . . .
41.6(34) . . .
41.9(34) . . .
42(4) . . .
38.5(34) . . .
35.9(31) . . .
45.6(35) . . .
28.1(27) . . .
38.4(35) . . .
40.4(33) . . .
41.8(33) . . .
35.9(33) . . .
35.2(32) . . .
32.6(31) . . .
46(4) . . .
41.5(33) . . .
34.9(31) . . .
39.1(33) . . .
43(4) . . .
45(4) . . .
38.1(33) . . .
43.3(34) . . .
40.3(33) . . .
32.9(32) . . .
35.7(31) . . .
35.7(32) . . .
38.9(33) . . .
46(4) . . .
47(4) . . .
35.8(33) . . .
38.4(33) . . .
37.1(31) . . .
50(4) . . .
42(4) . . .
39.7(34) . . .
37.4(32) . . .
35.1(32) . . .
44(4) . . .
42(4) . . .
41.6(35) . . .
38.0(32) . . .
43.3(34) . . .
50(4) . . .
46(4) . . .
41.2(35) . . .
40.4(32) . . .
33.9(31) . . .
31.6(30) . . .
33.5(32) . . .
27.4(28) . . .
40.6(33) . . .
48(4) . . .
42(4) . . .
34.5(33) . . .
42(4) . . .
38.5(32) . . .
33.1(31) . . .
33.0(32) . . .
32.7(30) . . .
33.7(30) . . .
39.7(33) . . .
36.8(32) . . .
39.2(35) . . .
38.0(33) . . .
32.5(30) . . .
39.6(32) . . .
36.7(32) . . .
41(4) . . .
37.0(32) . . .
47(4) . . .
42.3(34) . . .
33.5(32) . . .
34.8(31) . . .
37.4(32) . . .
41.1(33) . . .
37.3(32) . . .
40.0(34) . . .
41.7(34) . . .
37.4(35) . . .
32.6(30) . . .
38.2(34) . . .
38(4) . . .
36.1(33) . . .
39.4(35) . . .
39.1(33) . . .
41.1(34) . . .
35.8(32) . . .
34.3(33) . . .
31.1(30) . . .
43.3(34) . . .
39.2(33) . . .
41.9(35) . . .
46(4) . . .
36.2(32) . . .
39.7(33) . . .
36.8(33) . . .
33.6(31) . . .
37.5(32) . . .
43.0(35) . . .
43.4(35) . . .
36.2(35) . . .
39(4) . . .
42(4) . . .
46(4) . . .
36.9(31) . . .
39.3(34) . . .
36.6(35) . . .
34.7(31) . . .
43.3(34) . . .
42.9(35) . . .
34.4(32) . . .
36(4) . . .
33.1(31) . . .
34.1(30) . . .
34.2(31) . . .
38.3(32) . . .
37.2(34) . . .
38.9(35) . . .
44.7(35) . . .
37.2(32) . . .
44(4) . . .
37(4) . . .
45(4) . . .
38.9(32) . . .
42.3(34) . . .
48(4) . . .
36.7(35) . . .
33.8(32) . . .
33.9(30) . . .
37.8(32) . . .
35.9(34) . . .
47(4) . . .
34.6(30) . . .
28.1(28) . . .
33.5(31) . . .
40.5(35) . . .
43(4) . . .
42.1(34) . . .
32.2(29) . . .
40.2(33) . . .
40.3(34) . . .
38.8(34) . . .
37.8(34) . . .
34.0(31) . . .
33.3(31) . . .
38(4) . . .
36.3(33) . . .
36.8(32) . . .
34.3(31) . . .
36.3(32) . . .
34.9(33) . . .
36.8(32) . . .
34.5(31) . . .
32.8(30) . . .
32.9(31) . . .
33.6(32) . . .
38.5(34) . . .
30.9(29) . . .
36.9(32) . . .
27.9(27) . . .
32.0(31) . . .
43(4) . . .
41.9(34) . . .
44.9(35) . . .
37.0(31) . . .
42(4) . . .
43(4) . . .
40.0(33) . . .
49(4) . . .
39.1(33) . . .
43(4) . . .
36.6(32) . . .
39.4(33) . . .
34.2(30) . . .
39.2(34) . . .
30.8(28) . . .
43(4) . . .
48(4) . . .
41.5(35) . . .
29.6(28) . . .
35.6(34) . . .
28.4(28) . . .
41.8(33) . . .
39.5(34) . . .
43(4) . . .
34.4(32) . . .
37.9(33) . . .
47(4) . . .
41.5(34) . . .
33.9(31) . . .
40(4) . . .
35.5(32) . . .
34.5(30) . . .
30.5(30) . . .
31.2(31) . . .
37.0(33) . . .
40.7(33) . . .
34.4(30) . . .
41(4) . . .
42(4) . . .
30.1(30) . . .
45(4) . . .
36.6(32) . . .
36.3(32) . . .
41(4) . . .
37.8(34) . . .
39.5(33) . . .
41.0(35) . . .
39.3(33) . . .
44(4) . . .
33.4(30) . . .
33.8(30) . . .
37.3(31) . . .
41.7(34) . . .
32.4(31) . . .
31.6(29) . . .
26.7(27) . . .
28.3(27) . . .
32.3(30) . . .
39.4(35) . . .
36.0(31) . . .
33.6(30) . . .
45.9(35) . . .
48(4) . . .
50(4) . . .
40.3(34) . . .
42.1(34) . . .
37.0(32) . . .
38.7(33) . . .
31.9(32) . . .
39(4) . . .
39.8(33) . . .
39.8(34) . . .
29.6(28) . . .
39.7(34) . . .
35.4(32) . . .
38.1(33) . . .
46(4) . . .
30.0(29) . . .
43(4) . . .
41.5(34) . . .
39.7(33) . . .
43.5(35) . . .
44(4) . . .
48(4) . . .
37.9(32) . . .
41.3(34) . . .
33.6(32) . . .
37.0(33) . . .
41(4) . . .
36.7(34) . . .
43.7(35) . . .
29.0(28) . . .
37.1(34) . . .
39.3(35) . . .
35.9(32) . . .
36.1(31) . . .
43(4) . . .
44(4) . . .
39.2(35) . . .
40.0(33) . . .
41.5(33) . . .
31.2(31) . . .
29.7(31) . . .
31.4(32) . . .
44(4) . . .
43.3(34) . . .
46(4) . . .
36.4(32) . . .
38(4) . . .
34.2(31) . . .
40.4(33) . . .
32.9(30) . . .
35.0(32) . . .
46(4) . . .
48(4) . . .
41.1(33) . . .
39.9(34) . . .
32.3(33) . . .
40(4) . . .
34.5(31) . . .
34.4(31) . . .
34.0(31) . . .
37.0(33) . . .
37.0(32) . . .
37.4(31) . . .
38.3(33) . . .
39.6(33) . . .
33.2(32) . . .
43.6(35) . . .
43.2(34) . . .
35.3(31) . . .
37.5(33) . . .
32.4(31) . . .
32.0(32) . . .
28.3(28) . . .
35.0(35) . . .
37.0(34) . . .
43(4) . . .
35.5(32) . . .
38.5(34) . . .
29.8(29) . . .
40.7(34) . . .
42.2(35) . . .
30.7(29) . . .
36.7(31) . . .
38.3(33) . . .
35.7(33) . . .
41(4) . . .
45.4(35) . . .
37.3(32) . . .
33.2(30) . . .
29.3(30) . . .
36.0(33) . . .
39.0(33) . . .
46(4) . . .
35.8(32) . . .
39(4) . . .
31.8(31) . . .
35.2(31) . . .
32.3(29) . . .
35.8(32) . . .
37.2(34) . . .
44(4) . . .
31.0(29) . . .
43(4) . . .
40(4) . . .
25.7(26) . . .
32.3(30) . . .
41.2(34) . . .
35.8(32) . . .
34.0(31) . . .
37.6(34) . . .
31.7(30) . . .
40.6(34) . . .
35.4(34) . . .
39.4(34) . . .
31.1(29) . . .
38.2(35) . . .
44.0(35) . . .
35.7(31) . . .
36.4(33) . . .
34.6(32) . . .
34.8(31) . . .
32.9(30) . . .
32.4(30) . . .
34.7(33) . . .
38(4) . . .
36.9(33) . . .
32.6(30) . . .
39.5(35) . . .
37.1(34) . . .
29.7(28) . . .
34.7(31) . . .
38.6(33) . . .
32.8(31) . . .
33.6(33) . . .
28.3(28) . . .
38.0(32) . . .
31.5(29) . . .
30.9(30) . . .
44(4) . . .
36.3(31) . . .
28.7(28) . . .
29.5(29) . . .
28.4(28) . . .
44(4) . . .
40.1(34) . . .
36.5(31) . . .
30.7(28) . . .
38.7(33) . . .
37.1(35) . . .
36.4(33) . . .
40.3(33) . . .
45(4) . . .
45(4) . . .
44(4) . . .
36.3(33) . . .
37.3(32) . . .
39.8(32) . . .
37.4(32) . . .
38.9(34) . . .
44(4) . . .
33.9(30) . . .
34.0(30) . . .
34.1(31) . . .
37.4(33) . . .
46(4) . . .
41.8(34) . . .
33.3(31) . . .
36.1(32) . . .
37.5(32) . . .
45(4) . . .
36.3(31) . . .
35.6(33) . . .
37.0(32) . . .
46(4) . . .
43.7(35) . . .
36.2(32) . . .
41.8(35) . . .
42(4) . . .
32.7(30) . . .
39.1(33) . . .
31.8(29) . . .
42(4) . . .
29.6(30) . . .
33.2(31) . . .
48(4) . . .
47(4) . . .
37.2(33) . . .
43(4) . . .
42.9(34) . . .
40.0(33) . . .
35.5(31) . . .
39.0(33) . . .
40(4) . . .
30.0(28) . . .
30.5(28) . . .
24.2(26) . . .
30.5(28) . . .
37(4) . . .
48(4) . . .
36.5(32) . . .
40.2(33) . . .
38.6(33) . . .
43(4) . . .
35.9(31) . . .
46(4) . . .
41.7(35) . . .
41.2(35) . . .
33.1(31) . . .
28.7(28) . . .
47(4) . . .
34.6(32) . . .
31.6(30) . . .
30.4(29) . . .
36.7(33) . . .
30.1(28) . . .
37(4) . . .
33.6(32) . . .
39.0(33) . . .
37.0(35) . . .
40.2(33) . . .
36.2(32) . . .
38.4(35) . . .
37.8(34) . . .
38.6(34) . . .
42.6(34) . . .
43(4) . . .
39.5(35) . . .
35.6(33) . . .
30.6(30) . . .
38.4(32) . . .
38.3(33) . . .
36.5(35) . . .
40(4) . . .
40.1(33) . . .
34.5(31) . . .
35.6(33) . . .
31.8(33) . . .
34.2(32) . . .
33.5(30) . . .
30.5(29) . . .
36.8(33) . . .
38(4) . . .
39.5(35) . . .
35.2(30) . . .
37.3(33) . . .
36.5(33) . . .
39(4) . . .
31.8(31) . . .
35.2(31) . . .
27.8(28) . . .
44(4) . . .
36.1(34) . . .
31.3(29) . . .
32.8(29) . . .
41.0(33) . . .
32.0(29) . . .
33.7(32) . . .
29.1(29) . . .
36.0(32) . . .
36.3(31) . . .
43(4) . . .
33.2(33) . . .
39.2(34) . . .
39.3(33) . . .
41(4) . . .
26.8(26) . . .
36.3(33) . . .
34.3(32) . . .
39.3(32) . . .
40.8(35) . . .
27.5(27) . . .
31.1(31) . . .
29.3(28) . . .
35.4(31) . . .
32.3(30) . . .
33.9(32) . . .
36.7(34) . . .
47(4) . . .
38.7(33) . . .
33.7(31) . . .
40.7(35) . . .
37.3(32) . . .
37.4(32) . . .
40.5(33) . . .
34.0(33) . . .
38.5(34) . . .
36.2(33) . . .
33.1(30) . . .
38.3(33) . . .
39.2(34) . . .
38.4(34) . . .
37.2(32) . . .
34.2(30) . . .
33.1(30) . . .
36.1(33) . . .
35.5(33) . . .
34.9(31) . . .
35.7(32) . . .
36.2(31) . . .
30.6(31) . . .
28.9(28) . . .
38.1(33) . . .
47(4) . . .
37.9(32) . . .
34.8(32) . . .
39.0(34) . . .
38.0(32) . . .
40.6(33) . . .
35.3(31) . . .
30.1(30) . . .
38.0(33) . . .
34.7(31) . . .
37.0(31) . . .
37.4(32) . . .
36.8(33) . . .
26.8(28) . . .
30.5(30) . . .
32.9(30) . . .
37.1(34) . . .
37(4) . . .
30.2(29) . . .
33.8(30) . . .
29.1(28) . . .
41.5(35) . . .
32.0(30) . . .
36.9(32) . . .
30.8(30) . . .
38.4(32) . . .
42(4) . . .
35.6(32) . . .
35.7(31) . . .
38.8(33) . . .
32.1(30) . . .
36.0(32) . . .
25.9(28) . . .
30.5(29) . . .
31.0(29) . . .
37.4(32) . . .
34.0(32) . . .
46(4) . . .
36.4(31) . . .
34.9(31) . . .
33.8(31) . . .
41(4) . . .
34.5(35) . . .
46(4) . . .
29.8(30) . . .
35.7(31) . . .
35.4(31) . . .
31.6(29) . . .
42(4) . . .
52(4) . . .
33.7(30) . . .
41.6(35) . . .
46(4) . . .
38.2(32) . . .
31.6(29) . . .
34.6(31) . . .
34.8(32) . . .
37.9(33) . . .
40.2(34) . . .
39.8(33) . . .
34.5(31) . . .
35.3(32) . . .
39.4(33) . . .
39.6(34) . . .
32.9(31) . . .
26.2(27) . . .
41(4) . . .
37.8(34) . . .
33.9(33) . . .
36.5(31) . . .
44.4(34) . . .
43(4) . . .
33.4(31) . . .
35.6(32) . . .
38.6(32) . . .
31.6(32) . . .
40.5(35) . . .
35.0(30) . . .
32.7(30) . . .
36.9(32) . . .
32.2(32) . . .
34.6(33) . . .
42.4(34) . . .
29.7(30) . . .
41.6(33) . . .
34.2(33) . . .
32.5(32) . . .
27.4(27) . . .
33.5(30) . . .
45(4) . . .
41(4) . . .
36.0(35) . . .
39.7(34) . . .
38.0(32) . . .
39.7(34) . . .
31.6(31) . . .
44(4) . . .
35.5(34) . . .
36.5(32) . . .
30.1(28) . . .
39(4) . . .
35.1(33) . . .
36.6(32) . . .
30.6(29) . . .
35.9(32) . . .
34.0(31) . . .
40.8(35) . . .
45(4) . . .
39.4(33) . . .
32.4(31) . . .
37.3(33) . . .
38.1(33) . . .
40.8(34) . . .
40.8(34) . . .
43.8(35) . . .
32.3(31) . . .
27.9(28) . . .
36.3(32) . . .
49(4) . . .
40.7(35) . . .
30.1(30) . . .
38.4(35) . . .
35.5(32) . . .
30.7(29) . . .
37.6(33) . . .
41(4) . . .
34.5(32) . . .
34.6(32) . . .
36.7(32) . . .
37.3(34) . . .
46(4) . . .
36.4(33) . . .
28.7(28) . . .
30.5(30) . . .
34.5(33) . . .
38.1(34) . . .
35.7(33) . . .
42.3(35) . . .
38.5(32) . . .
43(4) . . .
44(4) . . .
31.8(30) . . .
31.9(30) . . .
34.5(30) . . .
37.9(34) . . .
49(4) . . .
38.8(34) . . .
26.1(27) . . .
30.6(29) . . .
36.5(32) . . .
42(4) . . .
31.5(29) . . .
37.9(32) . . .
38.5(32) . . .
31.5(31) . . .
31.8(32) . . .
36.9(33) . . .
43.1(35) . . .
29.3(29) . . .
33.4(31) . . .
34.7(32) . . .
36.7(32) . . .
43.7(34) . . .
33.9(31) . . .
34.2(33) . . .
37.2(32) . . .
34.5(31) . . .
40.8(33) . . .
41.7(34) . . .
38.4(34) . . .
34.8(30) . . .
39.1(33) . . .
43.7(35) . . .
31.4(31) . . .
38.7(34) . . .
32.6(33) . . .
27.1(28) . . .
39.5(33) . . .
36.2(34) . . .
43(4) . . .
40.5(34) . . .
39.3(32) . . .
37.3(32) . . .
37.2(33) . . .
40(4) . . .
35.2(30) . . .
40.6(33) . . .
37.3(32) . . .
29.6(28) . . .
38(4) . . .
36.2(32) . . .
34.0(30) . . .
35.8(32) . . .
35.7(33) . . .
33.1(32) . . .
32.9(31) . . .
33.5(31) . . .
35.1(30) . . .
40.3(34) . . .
32.8(31) . . .
33.6(34) . . .
33.8(32) . . .
46(4) . . .
34.2(31) . . .
34.7(33) . . .
27.2(28) . . .
34.8(30) . . .
37.3(32) . . .
29.8(29) . . .
35.4(32) . . .
33.8(31) . . .
40.2(33) . . .
37.9(32) . . .
28.7(28) . . .
38.7(35) . . .
33.0(32) . . .
33.1(30) . . .
36.8(33) . . .
30.9(31) . . .
36.8(33) . . .
34.6(34) . . .
39.7(33) . . .
37.3(32) . . .
32.3(31) . . .
38.6(34) . . .
38.6(32) . . .
36.1(32) . . .
39.4(33) . . .
34.6(32) . . .
32.1(31) . . .
30.6(30) . . .
30.2(29) . . .
38.5(34) . . .
34.4(33) . . .
40(4) . . .
32.1(29) . . .
38.4(33) . . .
35.5(35) . . .
39(4) . . .
29.1(28) . . .
33.8(32) . . .
38.4(32) . . .
38.8(33) . . .
43(4) . . .
39.4(33) . . .
37.5(33) . . .
35.5(31) . . .
35.8(31) . . .
34.4(32) . . .
41.1(34) . . .
46(4) . . .
29.5(28) . . .
35.7(32) . . .
36.2(34) . . .
42(4) . . .
39.2(33) . . .
36.4(31) . . .
39.1(32) . . .
42(4) . . .
36.1(33) . . .
34.3(31) . . .
38.9(34) . . .
39.1(34) . . .
36.1(33) . . .
30.9(32) . . .
30.9(29) . . .
44(4) . . .
48(4) . . .
39.1(34) . . .
34.5(32) . . .
31.1(29) . . .
29.8(29) . . .
33.5(32) . . .
42(4) . . .
42.4(34) . . .
41.4(33) . . .
30.4(30) . . .
30.3(31) . . .
35.3(32) . . .
31.5(29) . . .
33.2(30) . . .
41.1(35) . . .
34.8(32) . . .
35.8(33) . . .
35.8(32) . . .
34.5(30) . . .
42.0(34) . . .
42.8(35) . . .
36.8(33) . . .
44(4) . . .
36.6(31) . . .
31.3(30) . . .
27.4(27) . . .
41.5(34) . . .
47(4) . . .
41.8(34) . . .
38.6(32) . . .
32.9(33) . . .
42(4) . . .
40.7(33) . . .
40.2(33) . . .
35.8(30) . . .
39.1(35) . . .
21.5(26) . . .
35.1(32) . . .
40.6(33) . . .
41.9(34) . . .
34.1(32) . . .
44(4) . . .
40.4(32) . . .
35.0(32) . . .
30.6(30) . . .
33.6(32) . . .
40.7(34) . . .
31.0(29) . . .
36.1(33) . . .
35.1(32) . . .
36.2(34) . . .
26.9(27) . . .
36.1(31) . . .
36.6(33) . . .
28.4(30) . . .
30.4(29) . . .
33.2(32) . . .
32.3(30) . . .
34.9(33) . . .
38.1(33) . . .
41.4(35) . . .
40.3(33) . . .
37.9(32) . . .
35.4(32) . . .
32.7(32) . . .
32.2(31) . . .
30.0(28) . . .
37.0(32) . . .
36.9(31) . . .
35.3(32) . . .
41.2(34) . . .
43(4) . . .
32.3(29) . . .
35.9(34) . . .
32.4(32) . . .
31.7(30) . . .
40.1(34) . . .
30.0(28) . . .
32.4(32) . . .
34.8(34) . . .
35.4(34) . . .
35.6(31) . . .
42.9(35) . . .
36.0(31) . . .
31.9(30) . . .
35.0(31) . . .
31.7(30) . . .
42.3(34) . . .
29.7(28) . . .
38.8(35) . . .
42.3(35) . . .
38.9(32) . . .
39.4(33) . . .
42(4) . . .
33.5(29) . . .
30.1(28) . . .
30.2(29) . . .
33.6(30) . . .
34.1(30) . . .
33.3(30) . . .
30.2(29) . . .
30.4(30) . . .
43(4) . . .
34.7(32) . . .
30.2(29) . . .
36.3(32) . . .
38.0(32) . . .
38.3(33) . . .
37.3(33) . . .
31.7(31) . . .
34.9(30) . . .
33.3(30) . . .
31.3(30) . . .
40(4) . . .
29.9(29) . . .
44(4) . . .
33.5(30) . . .
28.9(28) . . .
43(4) . . .
45(4) . . .
42.4(35) . . .
36.4(32) . . .
27.0(28) . . .
34.2(34) . . .
33.0(31) . . .
41.4(33) . . .
40.4(34) . . .
42(4) . . .
26.1(27) . . .
39(4) . . .
40.1(33) . . .
33.7(30) . . .
39.0(34) . . .
36(4) . . .
36.1(35) . . .
30.8(31) . . .
32.0(29) . . .
43(4) . . .
34.4(32) . . .
42.1(34) . . .
32.2(30) . . .
34.1(30) . . .
36.4(31) . . .
37.1(33) . . .
38.1(33) . . .
42.4(34) . . .
34.2(31) . . .
33.0(33) . . .
35.1(32) . . .
36.7(32) . . .
32.4(30) . . .
34.9(33) . . .
29.5(30) . . .
31.3(31) . . .
32.5(31) . . .
35.6(31) . . .
30.4(28) . . .
39.4(34) . . .
35.8(32) . . .
35.8(31) . . .
40.8(33) . . .
42(4) . . .
33.1(33) . . .
34.8(33) . . .
27.3(28) . . .
27.9(27) . . .
25.0(27) . . .
32.4(32) . . .
34.3(32) . . .
30.2(30) . . .
36.6(33) . . .
33.1(31) . . .
42(4) . . .
36.8(34) . . .
26.6(27) . . .
35.4(31) . . .
37.9(33) . . .
33.3(31) . . .
33.9(31) . . .
42.5(35) . . .
39.1(33) . . .
34.7(31) . . .
30.1(30) . . .
33.0(30) . . .
32.0(29) . . .
34.7(31) . . .
36.2(33) . . .
39.3(34) . . .
40(4) . . .
39.3(33) . . .
29.2(29) . . .
26.9(28) . . .
30.0(31) . . .
38.2(33) . . .
41.1(33) . . .
31.2(30) . . .
32.2(30) . . .
39.2(33) . . .
40.4(33) . . .
37.8(32) . . .
39.2(33) . . .
29.0(29) . . .
39.3(34) . . .
37.2(31) . . .
41.4(34) . . .
39.6(33) . . .
33.7(32) . . .
31.2(30) . . .
39.3(32) . . .
43.4(35) . . .
40.4(35) . . .
36.5(32) . . .
44(4) . . .
35.9(31) . . .
41.9(34) . . .
31.4(30) . . .
29.5(30) . . .
39.5(33) . . .
34.4(30) . . .
36.1(31) . . .
36.9(32) . . .
34.3(32) . . .
37.6(33) . . .
40.6(33) . . .
32.2(29) . . .
33.4(30) . . .
36.7(34) . . .
29.8(28) . . .
40.8(33) . . .
29.5(28) . . .
34.6(33) . . .
31.8(29) . . .
38.9(33) . . .
34.0(31) . . .
32.8(29) . . .
33.3(31) . . .
31.8(31) . . .
32.5(30) . . .
41.1(34) . . .
35.7(32) . . .
30.8(29) . . .
37(4) . . .
40(4) . . .
39.8(32) . . .
48(4) . . .
38.1(32) . . .
47(4) . . .
47(4) . . .
30.7(29) . . .
27.3(27) . . .
27.6(27) . . .
35.5(34) . . .
28.8(28) . . .
39.4(33) . . .
37.3(32) . . .
30.5(29) . . .
36.3(33) . . .
31.3(29) . . .
37.5(32) . . .
28.0(28) . . .
34.0(32) . . .
35.1(31) . . .
44(4) . . .
39.3(33) . . .
39.0(33) . . .
40(4) . . .
37.8(32) . . .
32.3(29) . . .
39.0(33) . . .
33.5(30) . . .
44(4) . . .
39.4(34) . . .
36.2(32) . . .
33.6(30) . . .
33.8(32) . . .
32.7(31) . . .
29.8(31) . . .
28.6(28) . . .
23.9(25) . . .
35.7(33) . . .
42(4) . . .
37.0(33) . . .
38.2(32) . . .
35.8(32) . . .
29.6(30) . . .
31.8(29) . . .
35.6(31) . . .
39.0(33) . . .
39.0(33) . . .
39.8(33) . . .
42(4) . . .
45(4) . . .
37.8(32) . . .
47(4) . . .
32.3(30) . . .
40(4) . . .
39.1(34) . . .
35.1(31) . . .
34.8(30) . . .
37.2(31) . . .
40.8(34) . . .
31.1(31) . . .
30.2(29) . . .
33.2(31) . . .
35.4(34) . . .
34.1(32) . . .
31.8(33) . . .
31.2(29) . . .
33.1(31) . . .
30.4(31) . . .
29.4(31) . . .
35.7(33) . . .
37.2(32) . . .
40.3(34) . . .
35.3(32) . . .
28.7(28) . . .
38.8(33) . . .
38.6(32) . . .
42(4) . . .
39(4) . . .
37.2(35) . . .
40.4(33) . . .
37.5(32) . . .
31.4(30) . . .
37.9(34) . . .
32.0(30) . . .
27.3(28) . . .
35.4(31) . . .
35.4(34) . . .
30.7(32) . . .
35.4(34) . . .
37.4(32) . . .
36.0(32) . . .
30.8(29) . . .
43(4) . . .
40(4) . . .
32.4(30) . . .
38.1(32) . . .
34.6(31) . . .
40(4) . . .
35.4(32) . . .
26.4(27) . . .
34.0(30) . . .
25.2(26) . . .
32.7(32) . . .
38.2(32) . . .
38.3(33) . . .
36.3(33) . . .
38.7(34) . . .
49(4) . . .
39.6(33) . . .
33.2(30) . . .
41.3(35) . . .
30.0(30) . . .
26.4(28) . . .
36.9(33) . . .
31.6(29) . . .
34.8(31) . . .
36.7(32) . . .
34.8(31) . . .
33.4(31) . . .
36.8(31) . . .
31.6(29) . . .
44(4) . . .
31.2(32) . . .
31.0(29) . . .
34.3(31) . . .
30.3(29) . . .
30.2(31) . . .
41(4) . . .
35.0(30) . . .
27.6(27) . . .
39.5(34) . . .
34.1(30) . . .
34.8(33) . . .
36.2(33) . . .
34.8(32) . . .
38.8(34) . . .
35.4(33) . . .
39(4) . . .
30.1(29) . . .
37.3(32) . . .
28.7(28) . . .
36.6(35) . . .
37.2(34) . . .
38.1(33) . . .
42.9(34) . . .
33.7(30) . . .
40(4) . . .
28.6(28) . . .
35.8(31) . . .
32.5(31) . . .
32.3(32) . . .
28.9(30) . . .
37.8(34) . . .
31.1(30) . . .
35.8(32) . . .
34.1(32) . . .
35.0(33) . . .
38.8(34) . . .
38.3(32) . . .
44(4) . . .
40.5(34) . . .
36.6(35) . . .
31.6(29) . . .
36.9(32) . . .
38.3(32) . . .
36.8(33) . . .
29.6(29) . . .
37.0(33) . . .
45.5(35) . . .
28.6(30) . . .
39(4) . . .
42(4) . . .
29.6(28) . . .
26.9(27) . . .
32.5(31) . . .
33.7(31) . . .
34.1(32) . . .
34.6(30) . . .
34.5(31) . . .
34.7(32) . . .
38(4) . . .
26.9(27) . . .
36.3(31) . . .
36.9(32) . . .
27.2(27) . . .
27.4(28) . . .
34.4(32) . . .
38.7(32) . . .
35.1(31) . . .
38.6(32) . . .
34.5(31) . . .
33.7(31) . . .
36.8(32) . . .
34.0(31) . . .
36.2(32) . . .
37.4(33) . . .
34.7(32) . . .
36.5(31) . . .
41.5(34) . . .
37.8(33) . . .
31.8(31) . . .
31.0(30) . . .
37.3(32) . . .
44(4) . . .
44(4) . . .
41(4) . . .
33.2(30) . . .
39.7(33) . . .
36.6(32) . . .
38.7(35) . . .
39.6(35) . . .
46(4) . . .
33.6(30) . . .
27.0(27) . . .
37.6(35) . . .
35.2(34) . . .
24.3(26) . . .
41.9(34) . . .
33(4) . . .
30.7(31) . . .
33.7(31) . . .
37.8(33) . . .
35.4(32) . . .
40(4) . . .
32.7(30) . . .
39.3(35) . . .
31.8(29) . . .
40.0(33) . . .
36.6(34) . . .
37.0(34) . . .
39(4) . . .
35.2(32) . . .
34.0(31) . . .
35.6(33) . . .
30.5(30) . . .
40(4) . . .
44.6(35) . . .
41.2(33) . . .
51(4) . . .
40.5(34) . . .
41.3(35) . . .
36.2(32) . . .
40.8(34) . . .
35.0(31) . . .
37(4) . . .
40(4) . . .
37.0(31) . . .
28.9(28) . . .
33.4(32) . . .
35.1(34) . . .
27.7(29) . . .
29.9(29) . . .
29.4(30) . . .
29.2(27) . . .
34.5(31) . . .
30.5(29) . . .
38.1(32) . . .
35.1(31) . . .
34.8(32) . . .
32.6(33) . . .
25.4(26) . . .
31.2(29) . . .
30.1(30) . . .
33.4(32) . . .
30.8(30) . . .
42.5(35) . . .
30.6(30) . . .
30.1(29) . . .
39(4) . . .
35.4(31) . . .
37.9(32) . . .
34.4(30) . . .
33.0(33) . . .
37(4) . . .
33.3(34) . . .
28.7(28) . . .
36.8(32) . . .
29.4(29) . . .
33.6(34) . . .
33.9(33) . . .
27.0(27) . . .
35.0(31) . . .
38.8(34) . . .
34.3(34) . . .
35.0(34) . . .
33.4(30) . . .
35.7(32) . . .
29.5(29) . . .
32.2(32) . . .
39.4(34) . . .
35.6(31) . . .
43.8(34) . . .
33.3(30) . . .
33.3(33) . . .
41(4) . . .
40.0(34) . . .
42.0(35) . . .
39.0(34) . . .
33.3(33) . . .
27.6(30) . . .
42.5(34) . . .
42(4) . . .
37.4(35) . . .
45(4) . . .
33.7(31) . . .
29.5(28) . . .
30.2(28) . . .
33.9(32) . . .
38.4(33) . . .
40.5(34) . . .
37.1(32) . . .
31.9(29) . . .
37.1(32) . . .
42(4) . . .
31.4(31) . . .
32.8(30) . . .
28.3(28) . . .
33.1(32) . . .
31.0(31) . . .
36.4(33) . . .
33.9(31) . . .
35.8(32) . . .
34.8(32) . . .
32.8(31) . . .
33.3(31) . . .
38.2(32) . . .
37.4(33) . . .
38.1(33) . . .
45(4) . . .
34.5(31) . . .
38.4(32) . . .
41.1(34) . . .
35.3(31) . . .
34.9(32) . . .
28.8(28) . . .
42.0(34) . . .
42(4) . . .
41(4) . . .
29.3(30) . . .
38.0(33) . . .
35.1(31) . . .
33.8(32) . . .
40(4) . . .
30.9(30) . . .
27.9(27) . . .
32.0(30) . . .
36.2(33) . . .
35.9(34) . . .
38.1(34) . . .
34.8(30) . . .
36.1(33) . . .
42(4) . . .
36.2(33) . . .
30.1(30) . . .
34.8(31) . . .
33.4(30) . . .
40(4) . . .
30.8(30) . . .
33.1(32) . . .
34.0(31) . . .
36.6(35) . . .
33.6(31) . . .
34.6(33) . . .
28.6(29) . . .
32.3(30) . . .
34.7(35) . . .
33.1(32) . . .
40(4) . . .
34.3(34) . . .
38.4(32) . . .
44(4) . . .
28.8(29) . . .
33.2(32) . . .
33.1(32) . . .
33.7(31) . . .
40.3(34) . . .
36.0(34) . . .
26.4(26) . . .
36.1(31) . . .
34.2(30) . . .
35.8(32) . . .
28.5(28) . . .
39.9(33) . . .
49(4) . . .
30.5(29) . . .
30.1(30) . . .
31.0(32) . . .
30.8(30) . . .
28.6(28) . . .
25.8(27) . . .
33.1(31) . . .
31.9(32) . . .
38(4) . . .
38.4(33) . . .
36.3(32) . . .
30.3(30) . . .
30.2(33) . . .
38(4) . . .
37.0(32) . . .
27.7(28) . . .
29.3(28) . . .
33.9(33) . . .
26.0(27) . . .
39.8(33) . . .
45(4) . . .
34.6(32) . . .
33.4(32) . . .
37.0(32) . . .
43.4(35) . . .
38.3(32) . . .
39.1(34) . . .
43(4) . . .
36.9(33) . . .
35.3(31) . . .
37.9(34) . . .
33.7(34) . . .
33.3(33) . . .
32.3(31) . . .
34.8(31) . . .
38.7(35) . . .
35.2(32) . . .
27.0(27) . . .
38.0(33) . . .
36.8(31) . . .
38.0(33) . . .
38.9(34) . . .
32.1(29) . . .
34.2(31) . . .
31.5(29) . . .
33.0(30) . . .
36.8(35) . . .
36.3(33) . . .
31.8(29) . . .
33.8(31) . . .
36.1(33) . . .
34.2(31) . . .
32.0(31) . . .
33.5(30) . . .
38.2(33) . . .
37.1(32) . . .
29.1(29) . . .
41(4) . . .
32.2(30) . . .
34.8(31) . . .
31.8(30) . . .
34.6(34) . . .
31.6(31) . . .
29.1(28) . . .
40.2(33) . . .
38.4(33) . . .
35.6(32) . . .
36.8(32) . . .
35.2(31) . . .
28.5(28) . . .
28.2(30) . . .
29.3(30) . . .
41(4) . . .
40.7(33) . . .
38.7(34) . . .
34.7(34) . . .
32.2(30) . . .
30.8(29) . . .
37.9(31) . . .
30.5(28) . . .
35.2(32) . . .
34.1(31) . . .
33.7(30) . . .
36.5(32) . . .
29.3(28) . . .
38.8(35) . . .
32.8(31) . . .
30.6(30) . . .
41.0(34) . . .
38.6(33) . . .
33.8(30) . . .
34.1(31) . . .
34.2(31) . . .
28.6(29) . . .
35.6(31) . . .
32.3(33) . . .
32.5(32) . . .
27.5(27) . . .
36.9(32) . . .
32.2(30) . . .
33.8(33) . . .
28.4(29) . . .
36.7(32) . . .
39.5(33) . . .
33.6(30) . . .
32.4(31) . . .
25.2(27) . . .
34.0(30) . . .
37.9(32) . . .
37.7(33) . . .
32.3(31) . . .
39.8(34) . . .
32.5(30) . . .
38.3(33) . . .
35.2(33) . . .
34.4(34) . . .
35.7(33) . . .
41.1(34) . . .
28.6(29) . . .
38.5(33) . . .
28.7(28) . . .
39(4) . . .
28.7(28) . . .
30.1(29) . . .
31.1(30) . . .
34.6(32) . . .
39.8(34) . . .
30.8(29) . . .
28.2(29) . . .
41(4) . . .
35.2(31) . . .
32.3(30) . . .
31.1(29) . . .
32.0(31) . . .
29.7(29) . . .
37.3(34) . . .
32.9(31) . . .
37.8(32) . . .
36.3(35) . . .
31.1(31) . . .
35.0(33) . . .
38.7(33) . . .
29.9(29) . . .
37.7(33) . . .
42(4) . . .
41(4) . . .
41.8(34) . . .
33.6(30) . . .
35.7(33) . . .
34.9(33) . . .
23.3(25) . . .
31.3(29) . . .
34.3(31) . . .
33.0(30) . . .
37.7(35) . . .
44(4) . . .
31.5(30) . . .
36.4(31) . . .
37.0(33) . . .
31.0(32) . . .
30.2(30) . . .
28.2(29) . . .
39.2(33) . . .
38.2(33) . . .
32.6(30) . . .
30.0(29) . . .
29.6(28) . . .
29.1(29) . . .
31.4(30) . . .
26.9(28) . . .
31.3(29) . . .
30.9(29) . . .
32.0(29) . . .
32.6(31) . . .
33.0(32) . . .
30.1(30) . . .
32.4(29) . . .
35.5(32) . . .
33.8(31) . . .
34.4(33) . . .
28.0(27) . . .
42.4(35) . . .
24.8(25) . . .
36.4(32) . . .
32.5(30) . . .
43(4) . . .
30.8(30) . . .
40.8(35) . . .
36.8(33) . . .
33.7(32) . . .
33.7(30) . . .
37.3(32) . . .
38.1(34) . . .
31.3(31) . . .
31.4(33) . . .
32.0(29) . . .
28.7(29) . . .
27.9(28) . . .
37(4) . . .
31.9(31) . . .
35.5(32) . . .
28.4(27) . . .
32.0(30) . . .
35.5(34) . . .
36.5(32) . . .
40.5(33) . . .
31.4(29) . . .
29.4(29) . . .
35.3(34) . . .
34.6(32) . . .
37.5(32) . . .
35.0(32) . . .
42.8(35) . . .
36.8(33) . . .
36.3(32) . . .
36.7(31) . . .
25.3(26) . . .
40.0(34) . . .
42(4) . . .
32.9(31) . . .
19.9(24) . . .
43(4) . . .
31.8(30) . . .
29.8(29) . . .
31.4(29) . . .
39.0(32) . . .
42.2(34) . . .
29.2(28) . . .
36.0(32) . . .
37.6(33) . . .
36.2(31) . . .
40.3(34) . . .
29.9(29) . . .
34.0(32) . . .
33.0(30) . . .
24.9(27) . . .
34.0(32) . . .
31.9(31) . . .
35.9(32) . . .
33.2(31) . . .
43.3(35) . . .
40.3(34) . . .
27.8(29) . . .
28.4(29) . . .
27.1(27) . . .
36.0(31) . . .
41.2(35) . . .
41(4) . . .
43(4) . . .
33.2(30) . . .
38.3(34) . . .
39(4) . . .
35.4(34) . . .
34.3(32) . . .
31.1(30) . . .
37.6(32) . . .
38.8(34) . . .
28.9(30) . . .
34.7(31) . . .
33.3(31) . . .
33.7(30) . . .
25.8(27) . . .
38(4) . . .
42.8(35) . . .
45.4(35) . . .
42.9(34) . . .
43(4) . . .
37.7(33) . . .
35.8(32) . . .
34.4(30) . . .
34.9(31) . . .
35.1(30) . . .
39.3(35) . . .
37.3(33) . . .
34.0(30) . . .
32.8(31) . . .
31.4(31) . . .
29.9(30) . . .
39.1(34) . . .
38.5(32) . . .
49(4) . . .
44(4) . . .
32.5(31) . . .
25.8(27) . . .
35.5(31) . . .
36.3(32) . . .
38.5(34) . . .
31.5(29) . . .
30.2(30) . . .
35.6(31) . . .
37.2(34) . . .
35.1(33) . . .
36.6(32) . . .
36.0(31) . . .
34.4(31) . . .
47(4) . . .
34.8(34) . . .
34.4(32) . . .
32.8(30) . . .
33.1(30) . . .
33.0(31) . . .
31.2(32) . . .
42(4) . . .
36.8(32) . . .
37.8(33) . . .
34.8(32) . . .
29.4(30) . . .
34.6(32) . . .
34.5(31) . . .
40.3(34) . . .
34.8(31) . . .
27.9(29) . . .
41(4) . . .
28.8(28) . . .
35.1(31) . . .
37.8(33) . . .
37.3(33) . . .
41.3(35) . . .
39.9(33) . . .
38.0(32) . . .
35.7(33) . . .
37.0(34) . . .
38.2(33) . . .
34.0(30) . . .
35.2(31) . . .
29.9(29) . . .
34.8(34) . . .
31.2(31) . . .
35.7(31) . . .
33.6(35) . . .
40(4) . . .
34.4(32) . . .
39.6(34) . . .
40.3(32) . . .
37.3(34) . . .
29.2(28) . . .
29.3(32) . . .
34.3(32) . . .
36.6(31) . . .
34.2(31) . . .
31.8(30) . . .
26.9(28) . . .
26.1(28) . . .
33.6(30) . . .
29.9(30) . . .
37.3(34) . . .
30.0(28) . . .
19.6(23) . . .
30.6(29) . . .
30.9(31) . . .
34(4) . . .
26.7(28) . . .
31.6(29) . . .
34.2(30) . . .
28.0(27) . . .
45(4) . . .
42.4(35) . . .
32.6(29) . . .
33.6(30) . . .
39.3(35) . . .
31.0(32) . . .
35.2(31) . . .
46(4) . . .
33.8(31) . . .
37.1(32) . . .
37.0(34) . . .
28.2(28) . . .
35.5(31) . . .
31.6(29) . . .
39.2(33) . . .
37.2(34) . . .
31.9(30) . . .
30.8(29) . . .
18.4(22) . . .
28.6(30) . . .
35.1(34) . . .
32.4(30) . . .
36.8(31) . . .
35.8(31) . . .
33.0(30) . . .
36.1(32) . . .
37.6(33) . . .
28.4(28) . . .
30.4(29) . . .
37.2(34) . . .
29.9(28) . . .
31.1(29) . . .
30.9(29) . . .
34.7(31) . . .
37.0(34) . . .
34.6(31) . . .
28.0(27) . . .
33.1(30) . . .
34.4(30) . . .
35.5(31) . . .
31.5(28) . . .
31.8(29) . . .
34.0(30) . . .
33.4(32) . . .
36.6(35) . . .
29.6(28) . . .
33.6(30) . . .
33.2(30) . . .
38.7(34) . . .
41.7(35) . . .
34.9(31) . . .
26.5(27) . . .
38.8(34) . . .
34.7(31) . . .
32.8(31) . . .
29.8(30) . . .
27.7(28) . . .
34.8(31) . . .
38.5(33) . . .
34.8(33) . . .
33.9(32) . . .
31.5(29) . . .
38.7(35) . . .
34.8(32) . . .
35.5(34) . . .
26.9(28) . . .
27.1(28) . . .
36.4(31) . . .
29.3(31) . . .
26.3(29) . . .
37.6(33) . . .
31.1(30) . . .
30.1(28) . . .
41(4) . . .
36.9(32) . . .
34.7(31) . . .
34.7(30) . . .
35.7(33) . . .
28.9(28) . . .
38.4(34) . . .
27.7(28) . . .
31.8(30) . . .
29.0(28) . . .
35.1(33) . . .
30.4(30) . . .
33.7(30) . . .
35.4(31) . . .
43(4) . . .
36.9(32) . . .
35.3(33) . . .
44(4) . . .
39.2(32) . . .
27.6(27) . . .
34.6(35) . . .
29.2(32) . . .
29.2(28) . . .
32.1(30) . . .
31.8(31) . . .
37.7(34) . . .
34.8(31) . . .
26.5(26) . . .
45(4) . . .
31.9(29) . . .
33.2(32) . . .
26.1(27) . . .
36.0(31) . . .
36.7(31) . . .
30.5(29) . . .
35.5(33) . . .
35.2(31) . . .
37.5(32) . . .
33.6(32) . . .
30.5(30) . . .
37(4) . . .
32.3(35) . . .
39.7(33) . . .
26.7(26) . . .
37.5(32) . . .
33.9(30) . . .
37.2(32) . . .
33.8(30) . . .
45(4) . . .
30.1(28) . . .
29.5(28) . . .
33.4(30) . . .
31.7(29) . . .
30.1(29) . . .
36.7(33) . . .
43(4) . . .
35.6(31) . . .
40.4(33) . . .
33.8(31) . . .
34.1(33) . . .
32.5(31) . . .
40.7(33) . . .
34.8(31) . . .
24.9(26) . . .
36.3(33) . . .
35.3(32) . . .
34.8(30) . . .
38.4(32) . . .
28.9(28) . . .
38.6(34) . . .
34.8(33) . . .
28.2(28) . . .
34.9(30) . . .
29.7(29) . . .
42(4) . . .
33.0(34) . . .
36.1(32) . . .
34.9(30) . . .
33.6(31) . . .
38.9(35) . . .
37.7(32) . . .
31.9(29) . . .
33.2(31) . . .
36.3(31) . . .
37.2(32) . . .
30.2(28) . . .
36.2(32) . . .
34.8(31) . . .
33.5(30) . . .
32.8(32) . . .
26.8(31) . . .
35.9(33) . . .
27.0(27) . . .
35.8(34) . . .
31.8(31) . . .
38.8(35) . . .
33.7(30) . . .
24.7(27) . . .
29.0(29) . . .
35.1(32) . . .
37.1(32) . . .
34.6(31) . . .
38.5(34) . . .
24.3(27) . . .
32.0(32) . . .
29.4(28) . . .
34.4(30) . . .
35.7(31) . . .
28.3(27) . . .
28.5(29) . . .
29.5(29) . . .
32.7(30) . . .
37.6(33) . . .
35.8(32) . . .
34.2(32) . . .
33.8(31) . . .
24.6(26) . . .
26.2(28) . . .
35.5(33) . . .
29.2(29) . . .
23.4(26) . . .
36.7(32) . . .
34.2(31) . . .
29.0(31) . . .
33.1(33) . . .
27.9(28) . . .
29.2(28) . . .
37.6(32) . . .
31.8(30) . . .
35.6(32) . . .
35.3(31) . . .
34.9(31) . . .
31.1(29) . . .
27.7(29) . . .
39.2(33) . . .
33.0(30) . . .
37.1(33) . . .
44(4) . . .
31.7(32) . . .
35.8(32) . . .
36.3(31) . . .
30.5(29) . . .
35.5(32) . . .
29.8(31) . . .
33.8(31) . . .
37.8(32) . . .
34.2(31) . . .
35.1(32) . . .
24.6(26) . . .
27.6(27) . . .
32.2(30) . . .
38.5(32) . . .
39.7(35) . . .
34.9(32) . . .
37.3(32) . . .
27.3(27) . . .
28.5(29) . . .
39.5(34) . . .
39.0(33) . . .
38.6(32) . . .
28.7(28) . . .
31.0(31) . . .
28.3(29) . . .
42(4) . . .
38.8(35) . . .
30.3(29) . . .
34.0(33) . . .
37.5(34) . . .
40.0(32) . . .
33.2(30) . . .
38.6(32) . . .
29.4(31) . . .
32.2(33) . . .
27.6(29) . . .
32.5(31) . . .
33.8(31) . . .
32.1(31) . . .
44(4) . . .
25.8(29) . . .
35.7(32) . . .
34.9(31) . . .
35.5(32) . . .
39(4) . . .
34.1(30) . . .
31.5(29) . . .
32.3(30) . . .
27.6(29) . . .
34.9(34) . . .
37.4(32) . . .
30.8(29) . . .
35.8(32) . . .
36.1(33) . . .
40(4) . . .
28.8(28) . . .
33.6(30) . . .
29.0(28) . . .
31.1(30) . . .
31.5(30) . . .
35.9(32) . . .
32.7(30) . . .
34.2(31) . . .
39.5(34) . . .
30.1(28) . . .
33.3(30) . . .
22.3(25) . . .
32.6(30) . . .
29.6(28) . . .
36.1(32) . . .
29.5(28) . . .
34.7(31) . . .
27.2(29) . . .
39(4) . . .
38.7(35) . . .
31.5(29) . . .
29.4(29) . . .
41.0(34) . . .
37.8(33) . . .
40(4) . . .
28.4(28) . . .
33.3(30) . . .
39.3(35) . . .
24.0(27) . . .
32.0(31) . . .
38.7(32) . . .
27.6(28) . . .
29.0(28) . . .
34.0(32) . . .
41.1(34) . . .
33.8(30) . . .
31.5(30) . . .
26.6(28) . . .
36(4) . . .
32.8(31) . . .
36.5(32) . . .
35.2(30) . . .
33.1(31) . . .
25.6(26) . . .
23.3(25) . . .
30.0(29) . . .
30.4(29) . . .
22.0(24) . . .
41(4) . . .
29.7(31) . . .
30.1(29) . . .
27.8(28) . . .
35.1(32) . . .
45(4) . . .
39.4(34) . . .
37.7(32) . . .
34.8(35) . . .
36.8(34) . . .
31.9(31) . . .
34.2(31) . . .
39.1(33) . . .
25.7(27) . . .
32.6(30) . . .
37.4(34) . . .
33.8(31) . . .
41.0(33) . . .
21.5(24) . . .
33.3(32) . . .
25.8(27) . . .
35.8(33) . . .
33.3(30) . . .
35.1(34) . . .
25.1(27) . . .
30.9(30) . . .
39.6(33) . . .
24.8(26) . . .
33.4(32) . . .
27.7(27) . . .
29.2(29) . . .
37.3(32) . . .
34.1(31) . . .
22.8(27) . . .
26.9(29) . . .
36.3(34) . . .
32.8(32) . . .
27.7(29) . . .
29.1(28) . . .
29.0(28) . . .
30.6(32) . . .
33.0(30) . . .
27.6(27) . . .
32.0(32) . . .
26.0(30) . . .
29.8(30) . . .
29.0(28) . . .
37.6(32) . . .
29.9(28) . . .
31.5(31) . . .
41.3(34) . . .
32.2(29) . . .
26.9(27) . . .
39.2(32) . . .
40.0(34) . . .
30.8(30) . . .
31.9(29) . . .
33.8(31) . . .
31.6(30) . . .
32.7(33) . . .
33.1(31) . . .
41.2(34) . . .
30.6(30) . . .
33.0(33) . . .
34.7(34) . . .
34.9(32) . . .
34.0(31) . . .
33.1(32) . . .
26.3(27) . . .
29.4(30) . . .
32.1(31) . . .
33.7(30) . . .
29.9(31) . . .
31.0(30) . . .
39.3(34) . . .
35.2(31) . . .
35.3(31) . . .
35.7(31) . . .
34.2(31) . . .
38.5(33) . . .
39.5(33) . . .
31.7(29) . . .
34.3(32) . . .
38(4) . . .
30.8(28) . . .
34.5(30) . . .
36.3(32) . . .
34.3(31) . . .
30.7(31) . . .
35.1(32) . . .
33.8(31) . . .
29.3(28) . . .
30.5(29) . . .
37(4) . . .
27.2(28) . . .
35.1(31) . . .
27.4(28) . . .
26.9(27) . . .
36.7(34) . . .
31.7(30) . . .
22.5(25) . . .
27.3(30) . . .
32.4(31) . . .
30.1(30) . . .
37.0(34) . . .
29.3(29) . . .
29.8(29) . . .
35.0(33) . . .
34.5(33) . . .
33.1(32) . . .
30.3(29) . . .
33.7(31) . . .
40.0(33) . . .
37.8(31) . . .
37.3(32) . . .
34.6(31) . . .
32.5(32) . . .
24.0(27) . . .
27.5(30) . . .
26.6(27) . . .
29.9(29) . . .
42(4) . . .
29.3(28) . . .
32.1(31) . . .
23.7(26) . . .
34.2(31) . . .
29.3(29) . . .
26.3(29) . . .
39(4) . . .
35.9(33) . . .
34.9(31) . . .
31.6(30) . . .
29.9(31) . . .
29.1(28) . . .
33.8(30) . . .
34.5(31) . . .
37.4(33) . . .
28.9(29) . . .
33.3(30) . . .
37.5(32) . . .
45(4) . . .
30.6(29) . . .
25.2(29) . . .
32.4(33) . . .
35.0(31) . . .
31.2(29) . . .
43.2(35) . . .
37.6(33) . . .
34.3(35) . . .
24.3(26) . . .
32.5(30) . . .
28.6(30) . . .
32.0(33) . . .
31.1(30) . . .
35.9(31) . . .
37.5(32) . . .
35.2(34) . . .
38.6(34) . . .
36.4(34) . . .
29.8(28) . . .
38.2(32) . . .
38.5(34) . . .
33.5(32) . . .
29.5(30) . . .
30.6(29) . . .
36.1(34) . . .
35.9(34) . . .
26.9(29) . . .
23.0(25) . . .
29.7(28) . . .
31.7(30) . . .
22.1(25) . . .
30.3(29) . . .
30.3(29) . . .
30.2(28) . . .
25.3(27) . . .
33.0(32) . . .
35.8(34) . . .
36.6(33) . . .
36.9(31) . . .
39.8(34) . . .
29.8(32) . . .
39.6(35) . . .
30.0(29) . . .
36.2(32) . . .
29.1(32) . . .
40(4) . . .
34.2(31) . . .
35.3(31) . . .
28.1(29) . . .
36.2(35) . . .
35.8(34) . . .
29.3(28) . . .
33.7(30) . . .
29.1(28) . . .
32.7(32) . . .
35.0(35) . . .
31.7(31) . . .
40.2(33) . . .
36.5(32) . . .
25.9(26) . . .
30.1(31) . . .
29.6(29) . . .
36.2(31) . . .
35.3(32) . . .
29.0(30) . . .
35.9(32) . . .
44(4) . . .
30.9(30) . . .
29.9(30) . . .
31.3(30) . . .
32.1(30) . . .
34.5(31) . . .
37.4(32) . . .
34.7(31) . . .
36.9(34) . . .
27.6(28) . . .
29.6(29) . . .
27.3(27) . . .
30.0(31) . . .
35.3(32) . . .
40.6(33) . . .
33.8(35) . . .
29.4(29) . . .
35.8(32) . . .
34.0(32) . . .
32.4(31) . . .
40.5(34) . . .
29.5(28) . . .
38.2(33) . . .
38.1(34) . . .
35.0(32) . . .
33.4(30) . . .
30.9(30) . . .
28.6(29) . . .
36.8(33) . . .
36.0(31) . . .
34.7(31) . . .
40.8(33) . . .
37.9(34) . . .
25.7(28) . . .
34.3(32) . . .
27.6(27) . . .
33.5(31) . . .
32.6(32) . . .
34.3(32) . . .
37.9(32) . . .
30.0(29) . . .
32.2(31) . . .
38.3(33) . . .
35.7(31) . . .
38.3(32) . . .
39.3(32) . . .
37.5(32) . . .
39.2(35) . . .
32.9(30) . . .
27.6(28) . . .
32.0(29) . . .
30.3(29) . . .
35.3(32) . . .
32.4(29) . . .
39.5(33) . . .
34.3(31) . . .
38.4(33) . . .
35.9(32) . . .
32.1(34) . . .
36.3(33) . . .
39.1(32) . . .
38.2(33) . . .
32.0(33) . . .
26.2(29) . . .
28.3(28) . . .
32.9(31) . . .
29.1(30) . . .
29.3(29) . . .
34.2(30) . . .
25.4(26) . . .
29.1(28) . . .
33.7(31) . . .
33.2(31) . . .
32.0(29) . . .
46(4) . . .
40.7(33) . . .
27.4(27) . . .
27.9(29) . . .
43(4) . . .
32.3(29) . . .
32.1(30) . . .
35.8(32) . . .
36(4) . . .
27.3(27) . . .
35.1(31) . . .
31.3(30) . . .
32.8(34) . . .
31.0(32) . . .
37.1(33) . . .
30.2(28) . . .
35.2(31) . . .
29.8(29) . . .
33.4(33) . . .
35.6(34) . . .
39.6(33) . . .
36.3(32) . . .
26.6(26) . . .
30.4(31) . . .
35.3(32) . . .
26.6(27) . . .
31.3(30) . . .
34.6(32) . . .
31.0(30) . . .
30.4(30) . . .
35.3(31) . . .
40(4) . . .
35.6(33) . . .
36.4(34) . . .
34.3(31) . . .
24.8(26) . . .
25.1(26) . . .
40(4) . . .
32.0(31) . . .
29.7(28) . . .
29.6(28) . . .
32.5(32) . . .
35.0(32) . . .
38.3(33) . . .
38.0(32) . . .
31.4(29) . . .
24.0(29) . . .
21.1(25) . . .
26.6(28) . . .
31.4(29) . . .
27.4(28) . . .
21.0(24) . . .
30.9(30) . . .
33.3(31) . . .
35.9(33) . . .
31.4(29) . . .
39(4) . . .
42(4) . . .
32.6(30) . . .
33.7(30) . . .
29.0(29) . . .
29.7(29) . . .
29.7(29) . . .
43.0(35) . . .
35.1(31) . . .
30.1(29) . . .
30.5(29) . . .
32.6(32) . . .
33.7(34) . . .
27.6(27) . . .
22.0(25) . . .
27.1(29) . . .
36.0(35) . . .
40.1(34) . . .
27.0(28) . . .
36.4(34) . . .
36.7(31) . . .
38.3(33) . . .
36.7(32) . . .
39.3(32) . . .
32.3(30) . . .
36.2(32) . . .
31.3(28) . . .
41.6(34) . . .
37.7(32) . . .
39.7(34) . . .
32.9(32) . . .
24.7(28) . . .
32.8(31) . . .
30.8(29) . . .
38(4) . . .
29.5(29) . . .
36.1(32) . . .
27.7(27) . . .
28.9(28) . . .
33.7(32) . . .
37(4) . . .
29.7(28) . . .
33.3(30) . . .
29.9(29) . . .
28.4(29) . . .
36.4(33) . . .
38.2(33) . . .
45(4) . . .
30.8(30) . . .
29.9(32) . . .
30.0(32) . . .
32.7(30) . . .
30.4(30) . . .
37.2(31) . . .
32.9(32) . . .
42(4) . . .
39.7(34) . . .
29.2(28) . . .
28.9(28) . . .
33.5(31) . . .
40(4) . . .
28.7(28) . . .
43.4(35) . . .
31.3(29) . . .
33.8(32) . . .
24.3(28) . . .
27.1(28) . . .
34.0(31) . . .
29.6(28) . . .
36.4(34) . . .
34.9(33) . . .
31.3(30) . . .
42.0(34) . . .
29.2(28) . . .
19.9(23) . . .
39.0(34) . . .
36.6(32) . . .
32.9(30) . . .
28.6(29) . . .
33.4(30) . . .
39.5(35) . . .
30.8(31) . . .
31.5(29) . . .
33.3(32) . . .
35.7(33) . . .
42(4) . . .
31.3(30) . . .
35.2(31) . . .
30.0(30) . . .
29.2(29) . . .
34.1(33) . . .
32.7(30) . . .
27.8(27) . . .
35.8(31) . . .
32.5(30) . . .
28.9(29) . . .
25.8(26) . . .
34.1(31) . . .
30.9(29) . . .
24.8(27) . . .
40.0(34) . . .
33.5(30) . . .
29.7(29) . . .
25.2(26) . . .
30.6(31) . . .
41(4) . . .
36.8(32) . . .
30.7(28) . . .
35.8(34) . . .
30.3(32) . . .
28.2(28) . . .
31.2(29) . . .
34.2(31) . . .
43(4) . . .
34.0(31) . . .
30.3(28) . . .
40.7(33) . . .
38.7(34) . . .
36.2(34) . . .
29.9(29) . . .
32.6(30) . . .
47.2(35) . . .
31.6(30) . . .
27.3(28) . . .
32.1(30) . . .
34.0(31) . . .
32.3(30) . . .
32.1(30) . . .
31.3(30) . . .
37.6(31) . . .
34.4(31) . . .
29.3(28) . . .
40(4) . . .
35.4(32) . . .
35.3(33) . . .
34.6(33) . . .
31.5(29) . . .
33.7(30) . . .
38(4) . . .
33.0(31) . . .
33.7(31) . . .
27.8(28) . . .
28.3(28) . . .
35.0(34) . . .
33.0(30) . . .
29.1(28) . . .
32.2(30) . . .
31.8(30) . . .
28.0(28) . . .
42(4) . . .
42.2(34) . . .
34.5(31) . . .
27.4(28) . . .
36.2(34) . . .
32.8(30) . . .
23.9(26) . . .
32.9(30) . . .
29.0(28) . . .
33.0(33) . . .
27.8(28) . . .
36.6(32) . . .
37.9(32) . . .
25.1(25) . . .
35.9(33) . . .
34.8(33) . . .
35.1(31) . . .
32.4(30) . . .
29.3(30) . . .
33.7(34) . . .
41.3(34) . . .
33.6(30) . . .
33.0(30) . . .
38.4(32) . . .
38.8(35) . . .
31.9(30) . . .
30.5(28) . . .
34.1(32) . . .
29.3(29) . . .
24.2(26) . . .
39.1(34) . . .
33.4(30) . . .
37.4(33) . . .
32.6(31) . . .
35.3(32) . . .
35.5(31) . . .
37.4(32) . . .
37.0(32) . . .
42(4) . . .
35.2(32) . . .
29.1(28) . . .
30.5(29) . . .
35.4(31) . . .
42.5(34) . . .
36.0(32) . . .
33.9(33) . . .
30.5(29) . . .
37.4(32) . . .
29.6(29) . . .
33.0(33) . . .
34.7(30) . . .
40.0(34) . . .
29.7(29) . . .
33.7(33) . . .
32.6(30) . . .
35.0(31) . . .
27.9(28) . . .
27.5(30) . . .
32.4(32) . . .
31.4(31) . . .
32.8(30) . . .
31.7(30) . . .
32.0(30) . . .
30.3(30) . . .
32.5(31) . . .
27.5(27) . . .
32.9(31) . . .
38.2(34) . . .
31.3(32) . . .
32.8(35) . . .
33.0(30) . . .
30.0(29) . . .
35.7(34) . . .
25.9(27) . . .
25.2(27) . . .
37.3(32) . . .
39(4) . . .
31.9(30) . . .
41.4(34) . . .
24.8(26) . . .
28.7(28) . . .
33.3(31) . . .
36.5(34) . . .
29.7(29) . . .
30.7(29) . . .
36.5(32) . . .
34.8(32) . . .
31.8(31) . . .
38.5(33) . . .
40.2(33) . . .
36.2(31) . . .
41(4) . . .
29.9(29) . . .
28.5(30) . . .
25.7(27) . . .
41.8(34) . . .
32.3(30) . . .
34.5(32) . . .
29.3(29) . . .
28.0(29) . . .
35.4(31) . . .
24.4(27) . . .
25.8(29) . . .
26.9(28) . . .
30.4(29) . . .
28.5(28) . . .
34.3(31) . . .
42(4) . . .
31.1(29) . . .
28.9(28) . . .
34.3(30) . . .
37.8(34) . . .
37(4) . . .
38.4(35) . . .
32.0(30) . . .
38.9(34) . . .
36.6(33) . . .
34.2(33) . . .
28.3(28) . . .
29.7(29) . . .
31.9(29) . . .
31.8(30) . . .
26.4(27) . . .
32.7(30) . . .
32.8(30) . . .
31.8(30) . . .
27.5(29) . . .
30.4(30) . . .
28.5(28) . . .
31.6(29) . . .
28.4(29) . . .
32.4(31) . . .
26.9(28) . . .
27.0(29) . . .
29.8(29) . . .
41(4) . . .
29.6(29) . . .
34.2(31) . . .
33.9(31) . . .
35.0(31) . . .
26.5(27) . . .
26.4(27) . . .
36.5(33) . . .
33.4(32) . . .
28.8(28) . . .
31.9(29) . . .
27.6(28) . . .
27.7(27) . . .
27.8(28) . . .
28.8(28) . . .
28.2(29) . . .
35.9(34) . . .
31.4(30) . . .
28.3(28) . . .
30.9(29) . . .
29.4(29) . . .
29.6(32) . . .
28.9(31) . . .
30.2(29) . . .
36.5(31) . . .
32.1(30) . . .
32.4(32) . . .
25.4(28) . . .
39.4(34) . . .
35.6(31) . . .
36.5(33) . . .
27.0(27) . . .
34.1(34) . . .
31.9(30) . . .
32.8(30) . . .
26.6(26) . . .
36.6(34) . . .
34.4(33) . . .
36.0(31) . . .
23.8(26) . . .
30.4(29) . . .
31.2(30) . . .
32.9(32) . . .
26.1(27) . . .
33.0(29) . . .
35.3(32) . . .
30.8(31) . . .
26.9(27) . . .
37.3(32) . . .
33.6(30) . . .
28.9(28) . . .
29.6(29) . . .
23.5(25) . . .
30.8(29) . . .
31.1(31) . . .
26.9(29) . . .
26.2(28) . . .
29.2(28) . . .
29.4(29) . . .
30.3(30) . . .
30.8(31) . . .
27.2(31) . . .
25.6(27) . . .
38.2(33) . . .
42.1(35) . . .
32.1(31) . . .
29.8(29) . . .
34.3(31) . . .
26.0(26) . . .
29.4(30) . . .
33.8(34) . . .
33.4(32) . . .
30.8(29) . . .
25.7(27) . . .
32.3(29) . . .
32.3(31) . . .
37(4) . . .
25.3(26) . . .
27.8(29) . . .
29.4(29) . . .
28.5(30) . . .
35.7(33) . . .
27.9(27) . . .
34.4(30) . . .
30.7(30) . . .
29.0(30) . . .
32.0(30) . . .
25.0(27) . . .
28.3(27) . . .
37.5(32) . . .
35.0(32) . . .
35.9(34) . . .
32.0(28) . . .
30.0(29) . . .
26.8(26) . . .
31.9(31) . . .
28.2(28) . . .
27.7(27) . . .
34.7(33) . . .
35.3(32) . . .
29.6(30) . . .
26.3(28) . . .
30.2(29) . . .
25.0(27) . . .
21.8(25) . . .
30.5(31) . . .
35.1(31) . . .
35.7(32) . . .
31.3(29) . . .
48(4) . . .
35.2(31) . . .
26.7(28) . . .
33.8(30) . . .
26.8(28) . . .
35.6(35) . . .
36.2(32) . . .
35.4(30) . . .
32.3(30) . . .
30.4(30) . . .
31.2(32) . . .
43(4) . . .
36.3(33) . . .
31.9(29) . . .
27.5(27) . . .
30.1(30) . . .
34.8(32) . . .
26.1(27) . . .
29.8(29) . . .
33.2(31) . . .
27.5(28) . . .
32.1(31) . . .
26.4(27) . . .
39.5(33) . . .
32.8(33) . . .
30.3(32) . . .
27.1(31) . . .
22.7(25) . . .
28.8(28) . . .
29.3(28) . . .
31.9(30) . . .
35.8(34) . . .
32.2(29) . . .
33.3(30) . . .
31.8(30) . . .
31.9(31) . . .
28.7(28) . . .
37.3(32) . . .
35.0(31) . . .
28.8(29) . . .
30.7(32) . . .
34.8(32) . . .
27.7(28) . . .
34.7(33) . . .
36.2(34) . . .
25.7(27) . . .
32.5(30) . . .
44.3(35) . . .
35.6(32) . . .
32.0(31) . . .
32.7(33) . . .
27.2(27) . . .
34.5(30) . . .
34.3(32) . . .
32.5(31) . . .
32.8(30) . . .
33.0(30) . . .
28.5(27) . . .
24.6(27) . . .
39(4) . . .
31.3(29) . . .
24.5(26) . . .
35.1(32) . . .
34.8(32) . . .
46(4) . . .
34.0(32) . . .
33.8(30) . . .
33.5(30) . . .
36.0(32) . . .
26.2(28) . . .
36.7(33) . . .
34.0(30) . . .
38.0(32) . . .
33.6(31) . . .
29.9(34) . . .
34.4(33) . . .
34.3(30) . . .
33.2(30) . . .
27.1(28) . . .
31.4(33) . . .
31.5(31) . . .
34.7(31) . . .
35.6(31) . . .
32.4(33) . . .
33.0(32) . . .
31.1(29) . . .
39.0(33) . . .
35.1(31) . . .
32.6(31) . . .
31.6(30) . . .
32.1(29) . . .
39.5(33) . . .
36.7(33) . . .
41(4) . . .
34.1(31) . . .
32.0(30) . . .
26.7(27) . . .
35.1(32) . . .
34.1(33) . . .
28.6(29) . . .
34.5(32) . . .
31.2(30) . . .
29.0(29) . . .
28.2(29) . . .
34.1(32) . . .
33.1(30) . . .
29.1(29) . . .
27.9(28) . . .
35.8(33) . . .
27.1(27) . . .
36.8(33) . . .
33.0(30) . . .
28.7(28) . . .
33.0(31) . . .
33.4(29) . . .
29.7(28) . . .
27.6(27) . . .
28.1(28) . . .
44(4) . . .
33.8(33) . . .
34.4(30) . . .
33.8(30) . . .
30.0(30) . . .
30.2(29) . . .
30.6(29) . . .
30.1(29) . . .
24.1(26) . . .
29.9(29) . . .
33.4(32) . . .
36.5(33) . . .
37.5(32) . . .
30.8(32) . . .
36.8(35) . . .
30.5(29) . . .
30.8(29) . . .
29.1(28) . . .
30.5(30) . . .
26.6(28) . . .
31.4(31) . . .
33.7(31) . . .
29.1(28) . . .
21.8(25) . . .
34.2(33) . . .
29.6(27) . . .
32.6(30) . . .
25.9(26) . . .
33.0(32) . . .
30.5(29) . . .
24.5(25) . . .
29.4(29) . . .
36.0(32) . . .
22.7(25) . . .
34.8(33) . . .
39.3(34) . . .
31.4(30) . . .
33.9(31) . . .
22.3(26) . . .
25.3(30) . . .
32.3(31) . . .
38.6(33) . . .
28.4(27) . . .
41.9(35) . . .
29.4(29) . . .
29.5(31) . . .
19.7(23) . . .
33.5(31) . . .
34.7(31) . . .
36.5(33) . . .
38.9(35) . . .
37.0(33) . . .
29.3(28) . . .
30.4(30) . . .
23.8(26) . . .
33.2(31) . . .
32.2(29) . . .
27.4(28) . . .
30.6(29) . . .
35.5(34) . . .
31.4(31) . . .
29.3(28) . . .
32.4(31) . . .
32.9(32) . . .
31.5(30) . . .
35.9(31) . . .
38.5(32) . . .
34.3(30) . . .
30.1(29) . . .
33.3(30) . . .
31.8(30) . . .
27.3(28) . . .
31.5(30) . . .
26.7(27) . . .
28.4(28) . . .
35.4(31) . . .
27.9(28) . . .
22.8(26) . . .
32.0(32) . . .
34.3(30) . . .
32.0(30) . . .
30.8(29) . . .
30.5(29) . . .
28.4(28) . . .
33.4(32) . . .
37.5(33) . . .
33.4(31) . . .
29.1(31) . . .
35.8(34) . . .
36.6(34) . . .
29.6(28) . . .
33.5(32) . . .
30.3(29) . . .
31.1(31) . . .
25.0(26) . . .
25.0(26) . . .
34.8(31) . . .
27.7(29) . . .
35.3(33) . . .
31.6(30) . . .
42.3(34) . . .
32.1(30) . . .
27.5(27) . . .
32.9(31) . . .
32.0(31) . . .
28.0(28) . . .
32.8(30) . . .
33.7(30) . . .
28.4(29) . . .
27.6(29) . . .
28.2(28) . . .
31.4(32) . . .
30.1(29) . . .
34.9(32) . . .
35.5(32) . . .
35.5(31) . . .
28.0(28) . . .
27.7(29) . . .
37.0(33) . . .
31.6(30) . . .
38.4(32) . . .
25.7(26) . . .
25.0(26) . . .
36.1(33) . . .
24.9(26) . . .
35.7(31) . . .
33.4(34) . . .
24.4(27) . . .
30.5(29) . . .
29.0(28) . . .
31.4(29) . . .
30.7(30) . . .
33.3(33) . . .
33.3(32) . . .
36.0(34) . . .
28.9(29) . . .
37.6(34) . . .
30.2(32) . . .
28.9(28) . . .
29.6(28) . . .
32.6(30) . . .
29.4(30) . . .
38.1(34) . . .
35.0(30) . . .
27.9(27) . . .
21.4(24) . . .
29.4(28) . . .
31.6(33) . . .
34.3(32) . . .
29.7(28) . . .
33.0(31) . . .
36.3(32) . . .
30.0(29) . . .
34.8(32) . . .
35.4(31) . . .
32.3(30) . . .
26.3(28) . . .
34.3(34) . . .
29.4(29) . . .
39.3(33) . . .
30.3(28) . . .
36.4(33) . . .
34.0(32) . . .
37.3(33) . . .
43.1(34) . . .
34.3(31) . . .
25.4(26) . . .
35.1(35) . . .
35.7(33) . . .
35.0(31) . . .
36.2(33) . . .
36.3(34) . . .
31.5(31) . . .
33.3(31) . . .
37.3(31) . . .
30.5(30) . . .
32.1(32) . . .
26.0(28) . . .
31.0(31) . . .
36.7(32) . . .
36.4(33) . . .
25.8(28) . . .
27.6(30) . . .
32.8(31) . . .
30.1(29) . . .
36.8(32) . . .
30.9(30) . . .
41(4) . . .
39.7(33) . . .
33.2(31) . . .
33.0(31) . . .
30.1(31) . . .
33.4(30) . . .
39.2(33) . . .
29.6(29) . . .
32.5(31) . . .
35.1(33) . . .
27.1(28) . . .
30.9(29) . . .
33.4(30) . . .
41(4) . . .
35.0(34) . . .
25.2(27) . . .
28.8(28) . . .
30.5(28) . . .
35.5(31) . . .
43(4) . . .
27.4(32) . . .
31.5(29) . . .
32.1(30) . . .
31.5(34) . . .
25.5(29) . . .
33.4(33) . . .
33.6(31) . . .
35.2(31) . . .
25.5(27) . . .
26.4(29) . . .
25.6(27) . . .
31.7(30) . . .
36.7(32) . . .
34.5(33) . . .
28.2(29) . . .
37.1(32) . . .
31.6(29) . . .
40(4) . . .
34.0(31) . . .
29.5(28) . . .
37.2(32) . . .
29.2(28) . . .
33.2(33) . . .
29.3(29) . . .
27.5(28) . . .
30.4(29) . . .
21.8(24) . . .
35.7(32) . . .
34.9(33) . . .
31.5(32) . . .
26.8(27) . . .
26.4(27) . . .
35.7(33) . . .
29.0(29) . . .
39.4(33) . . .
35.8(31) . . .
29.0(28) . . .
28.4(31) . . .
26.9(29) . . .
30.3(30) . . .
37.7(33) . . .
32.6(30) . . .
22.7(26) . . .
26.5(28) . . .
31.5(32) . . .
29.6(29) . . .
34.9(31) . . .
31.5(32) . . .
21.8(26) . . .
30.3(30) . . .
24.9(26) . . .
38.0(33) . . .
31.8(29) . . .
33.7(30) . . .
33.0(31) . . .
35.3(31) . . .
31.9(30) . . .
36.9(34) . . .
31.8(30) . . .
30.8(30) . . .
33.7(30) . . .
33.4(31) . . .
38.2(33) . . .
38.1(33) . . .
32.9(30) . . .
29.0(28) . . .
42(4) . . .
24.2(26) . . .
28.9(30) . . .
38.1(34) . . .
31.9(29) . . .
34.1(34) . . .
26.8(29) . . .
34.8(33) . . .
38.0(32) . . .
29.4(28) . . .
30.8(30) . . .
38.0(35) . . .
33.1(31) . . .
30.6(29) . . .
34.7(31) . . .
32.9(31) . . .
34.8(32) . . .
39.9(34) . . .
36.5(32) . . .
31.3(29) . . .
25.2(26) . . .
30.8(31) . . .
31.7(32) . . .
26.8(28) . . .
32.2(29) . . .
23.2(25) . . .
26.3(30) . . .
32.5(30) . . .
37.3(32) . . .
30.9(30) . . .
31.8(30) . . .
30.6(29) . . .
36.7(33) . . .
26.2(27) . . .
32.1(31) . . .
32.3(31) . . .
38.0(34) . . .
38.8(33) . . .
35.3(31) . . .
27.7(29) . . .
33.3(34) . . .
34.3(34) . . .
28.8(29) . . .
34.5(31) . . .
32.4(30) . . .
32.8(30) . . .
37.2(35) . . .
33.9(31) . . .
39.8(33) . . .
31.9(30) . . .
30.3(30) . . .
36.0(32) . . .
34.5(31) . . .
24.3(25) . . .
27.3(29) . . .
32.8(31) . . .
30.9(31) . . .
26.8(28) . . .
29.0(28) . . .
28.8(29) . . .
29.9(30) . . .
33.6(33) . . .
22.6(25) . . .
38.1(32) . . .
33.0(30) . . .
27.3(29) . . .
25.5(28) . . .
27.7(29) . . .
31.4(30) . . .
29.3(29) . . .
29.8(32) . . .
31.3(31) . . .
29.0(28) . . .
34.5(31) . . .
27.0(27) . . .
23.3(28) . . .
25.4(27) . . .
34.8(31) . . .
32.5(30) . . .
39.5(33) . . .
33.2(33) . . .
30.2(30) . . .
24.6(26) . . .
33.0(30) . . .
30.4(29) . . .
27.4(30) . . .
27.3(28) . . .
31.7(30) . . .
36.6(33) . . .
33.5(33) . . .
26.8(27) . . .
30.8(31) . . .
32.2(30) . . .
30.4(29) . . .
42(4) . . .
30.8(30) . . .
33.8(31) . . .
30.3(29) . . .
33.2(30) . . .
26.9(26) . . .
35.0(32) . . .
25.9(28) . . .
26.8(27) . . .
25.6(26) . . .
27.4(28) . . .
30.3(30) . . .
30.1(30) . . .
28.5(27) . . .
32.2(29) . . .
33.9(32) . . .
30.3(31) . . .
28.2(28) . . .
36.6(32) . . .
28.7(28) . . .
35.9(32) . . .
37.3(33) . . .
37.9(33) . . .
40.7(35) . . .
33.1(33) . . .
29.2(31) . . .
37.1(33) . . .
38.5(33) . . .
32.4(29) . . .
40.0(33) . . .
35.2(32) . . .
31.4(31) . . .
40.9(33) . . .
42.4(34) . . .
34.3(31) . . .
37.6(34) . . .
30.1(30) . . .
33.0(30) . . .
26.7(26) . . .
32.7(32) . . .
27.2(31) . . .
31.0(30) . . .
28.2(28) . . .
34.5(30) . . .
29.0(28) . . .
30.6(29) . . .
30.3(29) . . .
28.5(28) . . .
30.0(30) . . .
27.1(28) . . .
33.6(33) . . .
36.2(32) . . .
32.2(29) . . .
21.4(24) . . .
32.6(30) . . .
34.3(31) . . .
34.6(32) . . .
31.4(29) . . .
30.0(30) . . .
32.3(30) . . .
39(4) . . .
38.7(34) . . .
31.9(29) . . .
27.5(28) . . .
38.4(34) . . .
36.0(30) . . .
41.0(33) . . .
38.0(32) . . .
33.4(30) . . .
31.9(33) . . .
30.3(31) . . .
33.2(32) . . .
33.6(30) . . .
34.3(34) . . .
29.7(29) . . .
40.4(35) . . .
24.4(26) . . .
27.0(27) . . .
28.9(29) . . .
31.6(33) . . .
36(4) . . .
34.9(31) . . .
32.0(30) . . .
23.3(27) . . .
23.5(27) . . .
27.2(28) . . .
23.6(26) . . .
38.8(32) . . .
38.3(32) . . .
30.8(30) . . .
27.9(28) . . .
27.9(27) . . .
28.6(30) . . .
21.8(24) . . .
40(4) . . .
28.0(29) . . .
31.9(29) . . .
32.0(32) . . .
35.2(34) . . .
38.8(34) . . .
33.5(31) . . .
26.8(27) . . .
28.5(30) . . .
34.8(32) . . .
29.5(29) . . .
41(4) . . .
31.5(30) . . .
28.5(29) . . .
24.6(28) . . .
30.2(32) . . .
30.0(29) . . .
36.4(32) . . .
34.8(31) . . .
32.0(29) . . .
35.0(31) . . .
39.9(34) . . .
37.0(32) . . .
37.3(32) . . .
26.6(25) . . .
30.3(30) . . .
25.0(26) . . .
33.2(31) . . .
30.5(29) . . .
35.6(33) . . .
36.9(33) . . .
37.4(33) . . .
32.5(30) . . .
27.3(29) . . .
28.5(29) . . .
36.5(33) . . .
36.0(32) . . .
27.8(27) . . .
32.7(31) . . .
28.0(28) . . .
26.9(27) . . .
29.7(28) . . .
33.4(30) . . .
24.4(26) . . .
34.8(35) . . .
28.0(27) . . .
27.4(28) . . .
24.7(26) . . .
27.9(29) . . .
37.5(34) . . .
27.2(28) . . .
34.5(31) . . .
34.4(32) . . .
34.9(31) . . .
29.2(31) . . .
31.1(30) . . .
26.9(27) . . .
31.9(29) . . .
36.1(32) . . .
35.0(31) . . .
36.2(32) . . .
33.7(30) . . .
31.8(30) . . .
31.6(29) . . .
29.9(31) . . .
32.9(31) . . .
34.2(31) . . .
39.8(34) . . .
33.2(32) . . .
34.3(32) . . .
36.8(33) . . .
34.0(31) . . .
33.1(30) . . .
33.8(33) . . .
26.0(28) . . .
29.7(28) . . .
36.0(31) . . .
29.1(28) . . .
35.8(34) . . .
40.3(35) . . .
36.2(31) . . .
33.3(30) . . .
29.2(28) . . .
33.6(34) . . .
37.3(34) . . .
35.2(31) . . .
30.7(29) . . .
32.7(29) . . .
27.8(29) . . .
28.4(30) . . .
35.1(31) . . .
39.7(33) . . .
28.0(27) . . .
29.6(30) . . .
31.1(32) . . .
40.3(33) . . .
28.0(28) . . .
36.3(33) . . .
34.0(34) . . .
27.9(33) . . .
31.1(29) . . .
35.3(32) . . .
36.3(33) . . .
33.3(34) . . .
31.0(30) . . .
30.3(28) . . .
30.9(30) . . .
35.5(34) . . .
32.1(32) . . .
37.8(34) . . .
28.3(28) . . .
40.0(34) . . .
30.7(31) . . .
31.9(29) . . .
40.3(34) . . .
31.4(29) . . .
25.1(26) . . .
31.5(28) . . .
39.9(34) . . .
38.6(32) . . .
36.4(32) . . .
28.3(29) . . .
32.8(33) . . .
25.0(27) . . .
32.3(32) . . .
30.6(29) . . .
37.0(34) . . .
25.1(26) . . .
30.8(29) . . .
28.4(28) . . .
35.2(31) . . .
32.6(31) . . .
38(4) . . .
28.8(27) . . .
31.5(29) . . .
30.0(29) . . .
28.1(29) . . .
28.1(31) . . .
33.6(32) . . .
33.5(31) . . .
34.3(30) . . .
31.5(29) . . .
30.8(30) . . .
35.7(31) . . .
34.7(32) . . .
32.5(29) . . .
27.4(27) . . .
35.7(33) . . .
28.5(28) . . .
36.8(31) . . .
36.0(32) . . .
28.7(28) . . .
34.7(32) . . .
38.3(34) . . .
26.1(27) . . .
29.7(28) . . .
39.0(34) . . .
28.6(29) . . .
35.0(31) . . .
35.4(31) . . .
27.9(27) . . .
29.8(30) . . .
34.3(32) . . .
39.2(34) . . .
32.3(30) . . .
33.3(32) . . .
28.0(29) . . .
33.7(31) . . .
25.8(28) . . .
24.2(26) . . .
33.4(31) . . .
24.6(26) . . .
40.4(34) . . .
33.0(31) . . .
39.0(33) . . .
34.3(31) . . .
27.0(28) . . .
32.4(30) . . .
29.3(28) . . .
30.1(29) . . .
34.9(31) . . .
34.0(33) . . .
29.3(31) . . .
28.4(28) . . .
23.0(25) . . .
35.8(34) . . .
34.9(32) . . .
29.1(29) . . .
28.8(28) . . .
23.7(25) . . .
34.4(32) . . .
26.2(28) . . .
38.0(33) . . .
37.9(32) . . .
36.3(31) . . .
26.5(27) . . .
30.3(31) . . .
37.3(34) . . .
37.7(32) . . .
26.8(27) . . .
30.7(29) . . .
33.7(31) . . .
33.1(31) . . .
31.9(30) . . .
34.2(30) . . .
32.4(30) . . .
34.0(32) . . .
36.4(31) . . .
25.8(27) . . .
28.7(29) . . .
28.0(27) . . .
32.4(31) . . .
30.4(28) . . .
30.9(29) . . .
29.6(30) . . .
31.4(29) . . .
36.3(34) . . .
25.8(26) . . .
32.8(30) . . .
27.6(27) . . .
36.3(35) . . .
35.0(35) . . .
34.9(32) . . .
23.5(26) . . .
31.3(31) . . .
37.2(34) . . .
32.8(30) . . .
36.6(32) . . .
33.7(30) . . .
27.4(28) . . .
32.9(34) . . .
22.0(25) . . .
30.3(29) . . .
37.4(32) . . .
37.1(34) . . .
27.9(28) . . .
27.1(27) . . .
27.5(28) . . .
34.6(31) . . .
34.5(32) . . .
27.4(30) . . .
28.0(29) . . .
34.9(32) . . .
31.3(29) . . .
31.5(30) . . .
35.5(34) . . .
32.2(30) . . .
25.5(26) . . .
33.5(31) . . .
27.1(27) . . .
33.2(33) . . .
33.6(32) . . .
26.7(27) . . .
29.3(28) . . .
26.6(27) . . .
22.5(26) . . .
26.8(27) . . .
27.5(27) . . .
29.1(30) . . .
32.4(31) . . .
34.8(32) . . .
35.4(33) . . .
31.6(30) . . .
24.9(26) . . .
33.0(33) . . .
27.1(26) . . .
45(4) . . .
39.4(33) . . .
37.9(33) . . .
36.3(33) . . .
36.6(34) . . .
35.5(32) . . .
28.2(28) . . .
31.9(30) . . .
38(4) . . .
35.6(33) . . .
32.0(32) . . .
28.3(28) . . .
35.7(33) . . .
30.0(30) . . .
28.1(26) . . .
38.8(32) . . .
32.1(30) . . .
25.5(28) . . .
31.2(32) . . .
22.2(25) . . .
22.8(26) . . .
33.8(30) . . .
32.0(30) . . .
27.8(30) . . .
32.2(32) . . .
32.1(29) . . .
36.8(32) . . .
30.6(29) . . .
36(4) . . .
31.5(31) . . .
32.9(30) . . .
27.4(28) . . .
33.0(31) . . .
28.8(28) . . .
41.2(33) . . .
38.3(32) . . .
26.6(27) . . .
33.0(33) . . .
26.5(28) . . .
32.3(31) . . .
22.6(25) . . .
32.4(31) . . .
37.0(34) . . .
29.1(30) . . .
31.7(32) . . .
22.7(25) . . .
29.9(31) . . .
34.1(34) . . .
32.1(31) . . .
33.3(30) . . .
38.1(32) . . .
24.5(26) . . .
28.8(29) . . .
25.0(26) . . .
37.2(31) . . .
35.4(31) . . .
42.4(35) . . .
33.8(31) . . .
28.0(28) . . .
32.5(29) . . .
23.1(25) . . .
32.8(31) . . .
29.7(29) . . .
34.6(32) . . .
32.8(30) . . .
21.9(25) . . .
34.2(33) . . .
28.6(30) . . .
34.1(31) . . .
32.3(29) . . .
34.9(31) . . .
30.0(30) . . .
39(4) . . .
30.3(29) . . .
38.7(33) . . .
37.9(32) . . .
28.6(31) . . .
33.5(35) . . .
35.9(31) . . .
41.5(33) . . .
29.5(29) . . .
28.1(28) . . .
34.9(33) . . .
26.1(29) . . .
33.7(30) . . .
34.9(32) . . .
28.7(30) . . .
32.6(35) . . .
29.0(28) . . .
35.6(31) . . .
26.2(26) . . .
30.6(30) . . .
32.6(33) . . .
28.7(29) . . .
36.5(32) . . .
28.9(28) . . .
30.4(30) . . .
31.6(32) . . .
33.0(30) . . .
33.8(30) . . .
32.3(30) . . .
30.9(30) . . .
35.8(33) . . .
30.2(30) . . .
31.0(29) . . .
41.7(34) . . .
40.3(34) . . .
41.0(34) . . .
37.0(32) . . .
27.8(29) . . .
27.0(28) . . .
30.3(31) . . .
34.1(30) . . .
28.7(27) . . .
32.9(30) . . .
28.0(29) . . .
28.7(30) . . .
20.4(23) . . .
26.1(27) . . .
32.8(32) . . .
28.0(28) . . .
32.4(32) . . .
26.3(27) . . .
32.0(29) . . .
28.5(28) . . .
30.5(30) . . .
30.5(32) . . .
27.8(30) . . .
34.3(31) . . .
39.0(32) . . .
25.9(28) . . .
31.5(33) . . .
32.6(32) . . .
27.1(28) . . .
32.0(30) . . .
29.3(29) . . .
33.3(31) . . .
36.8(32) . . .
42.3(33) . . .
37.2(34) . . .
26.1(27) . . .
34.7(33) . . .
33.0(31) . . .
29.8(28) . . .
35.0(32) . . .
31.3(30) . . .
28.6(30) . . .
27.0(28) . . .
33.4(30) . . .
34.8(31) . . .
32.6(31) . . .
29.4(29) . . .
34.4(31) . . .
34.5(30) . . .
29.1(28) . . .
33.0(31) . . .
31.1(30) . . .
24.6(27) . . .
32.7(31) . . .
43(4) . . .
26.9(27) . . .
30.7(30) . . .
35.0(31) . . .
27.5(27) . . .
33.5(31) . . .
33.8(32) . . .
34.5(33) . . .
32.6(32) . . .
30.8(29) . . .
37.6(32) . . .
33.2(31) . . .
29.5(30) . . .
26.4(27) . . .
32.0(29) . . .
24.3(25) . . .
34.7(33) . . .
35.7(31) . . .
36.3(31) . . .
28.6(28) . . .
34.6(32) . . .
30.6(30) . . .
27.3(28) . . .
26.9(27) . . .
31.6(30) . . .
32.1(31) . . .
29.2(28) . . .
38(4) . . .
40.9(34) . . .
37.0(33) . . .
33.4(31) . . .
33.3(32) . . .
36.1(32) . . .
40.9(34) . . .
30.0(29) . . .
34.9(32) . . .
33.3(32) . . .
31.3(29) . . .
29.3(28) . . .
33.3(32) . . .
33.7(33) . . .
27.5(28) . . .
26.7(28) . . .
26.7(27) . . .
39.2(35) . . .
39.4(34) . . .
33.3(32) . . .
26.8(29) . . .
28.2(27) . . .
26.2(27) . . .
29.6(31) . . .
37.0(35) . . .
35.9(31) . . .
36.5(32) . . .
31.5(29) . . .
39.2(35) . . .
27.7(28) . . .
32.8(30) . . .
27.6(28) . . .
39.0(34) . . .
32.4(33) . . .
32.1(32) . . .
26.3(26) . . .
23.9(25) . . .
30.1(29) . . .
30.0(31) . . .
26.6(27) . . .
33.7(30) . . .
32.5(29) . . .
29.0(28) . . .
31.7(34) . . .
30.6(31) . . .
27.7(27) . . .
35.2(31) . . .
22.0(24) . . .
32.4(31) . . .
29.7(30) . . .
34.7(31) . . .
29.5(28) . . .
33.5(31) . . .
33.2(31) . . .
29.0(28) . . .
33.3(30) . . .
29.3(28) . . .
30.2(28) . . .
43(4) . . .
30.2(31) . . .
29.7(29) . . .
28.6(28) . . .
35.2(34) . . .
33.8(32) . . .
37.4(33) . . .
24.3(26) . . .
33.6(31) . . .
35.3(31) . . .
22.7(24) . . .
35.6(31) . . .
26.3(27) . . .
31.4(30) . . .
29.0(30) . . .
39.6(35) . . .
38.7(33) . . .
36.3(31) . . .
36.2(31) . . .
40(4) . . .
36.7(33) . . .
28.7(29) . . .
23.5(26) . . .
30.5(30) . . .
35.9(34) . . .
38.3(34) . . .
34.1(30) . . .
31.6(29) . . .
37.2(32) . . .
30.6(31) . . .
34.2(32) . . .
21.7(25) . . .
21.8(24) . . .
32.0(32) . . .
36(4) . . .
29.0(28) . . .
26.3(26) . . .
35.0(31) . . .
28.3(28) . . .
27.4(28) . . .
31.9(31) . . .
30.2(29) . . .
29.0(28) . . .
33.2(32) . . .
24.5(27) . . .
33.5(32) . . .
24.5(26) . . .
34.4(31) . . .
33.3(30) . . .
31.6(31) . . .
24.5(28) . . .
32.9(30) . . .
31.4(29) . . .
33.9(32) . . .
27.3(29) . . .
37.8(34) . . .
30.0(29) . . .
38.6(33) . . .
20.4(22) . . .
37.8(35) . . .
25.3(27) . . .
28.0(28) . . .
38.3(33) . . .
25.3(27) . . .
27.7(28) . . .
28.5(28) . . .
40.0(33) . . .
36.4(33) . . .
30.9(29) . . .
33.1(30) . . .
29.2(28) . . .
30.8(29) . . .
33.7(33) . . .
27.9(28) . . .
29.4(31) . . .
21.9(25) . . .
26.7(27) . . .
33.1(33) . . .
34.7(33) . . .
23.9(25) . . .
34.5(31) . . .
32.9(30) . . .
35.9(34) . . .
27.1(30) . . .
24.8(26) . . .
30.3(29) . . .
29.3(28) . . .
28.9(29) . . .
29.6(31) . . .
27.0(28) . . .
31.2(28) . . .
26.5(27) . . .
30.2(29) . . .
30.4(31) . . .
24.6(26) . . .
29.2(29) . . .
29.5(29) . . .
27.7(28) . . .
30.0(31) . . .
30.3(29) . . .
31.7(30) . . .
37.5(32) . . .
30.0(28) . . .
35.9(33) . . .
32.8(31) . . .
28.8(28) . . .
31.3(30) . . .
34.5(32) . . .
27.8(27) . . .
38.1(34) . . .
38.6(32) . . .
28.6(28) . . .
28.8(28) . . .
27.2(27) . . .
35.5(32) . . .
29.3(29) . . .
35.0(32) . . .
33.1(34) . . .
37.1(34) . . .
32.6(29) . . .
35.0(31) . . .
33.3(33) . . .
30.7(30) . . .
25.2(26) . . .
29.1(29) . . .
34.4(30) . . .
28.5(28) . . .
31.3(32) . . .
29.0(27) . . .
34.9(31) . . .
34.5(31) . . .
40.8(34) . . .
29.9(31) . . .
26.1(29) . . .
29.9(29) . . .
37.3(32) . . .
32.3(32) . . .
33.3(32) . . .
31.1(30) . . .
37.5(32) . . .
25.1(27) . . .
34.8(34) . . .
34.8(33) . . .
32.0(29) . . .
34.9(31) . . .
25.6(28) . . .
24.1(28) . . .
31.8(30) . . .
26.6(26) . . .
31.5(30) . . .
30.8(29) . . .
32.4(32) . . .
35.1(33) . . .
31.7(30) . . .
32.8(30) . . .
33.7(30) . . .
34.7(31) . . .
35.5(32) . . .
27.1(28) . . .
22.7(25) . . .
30.5(31) . . .
24.9(27) . . .
34.0(33) . . .
30.7(29) . . .
26.1(27) . . .
26.3(28) . . .
25.2(29) . . .
27.7(29) . . .
28.9(28) . . .
30.5(29) . . .
29.5(29) . . .
33.7(32) . . .
24.9(26) . . .
36.0(31) . . .
31.2(30) . . .
28.0(29) . . .
38(4) . . .
29.6(29) . . .
32.9(30) . . .
36.1(32) . . .
30.1(30) . . .
29.3(32) . . .
32.7(30) . . .
32.3(30) . . .
33.4(31) . . .
32.7(31) . . .
33.6(32) . . .
30.6(29) . . .
35.7(31) . . .
32.4(30) . . .
25.8(27) . . .
42(4) . . .
36.3(32) . . .
36.2(32) . . .
33.2(30) . . .
36.9(32) . . .
28.5(28) . . .
27.7(29) . . .
37.8(32) . . .
37.9(33) . . .
27.0(27) . . .
37.8(35) . . .
31.9(30) . . .
35.3(31) . . .
29.7(28) . . .
34.6(33) . . .
32.6(31) . . .
32.5(31) . . .
34.5(31) . . .
32.8(30) . . .
32.7(32) . . .
43(4) . . .
37.4(32) . . .
30.8(29) . . .
27.2(27) . . .
24.4(26) . . .
33.1(31) . . .
34.4(30) . . .
41.0(34) . . .
31.5(30) . . .
25.6(27) . . .
34.2(32) . . .
33.3(30) . . .
31.9(29) . . .
41(4) . . .
24.5(25) . . .
38.3(33) . . .
38.6(32) . . .
34.9(32) . . .
40(4) . . .
23.9(27) . . .
29.9(29) . . .
26.3(26) . . .
30.1(29) . . .
33.3(33) . . .
29.5(30) . . .
25.7(28) . . .
28.5(29) . . .
35.3(34) . . .
38.4(33) . . .
35.0(33) . . .
28.8(28) . . .
33.3(30) . . .
27.9(28) . . .
29.5(29) . . .
31.8(29) . . .
25.7(27) . . .
34.4(30) . . .
32.8(31) . . .
26.3(28) . . .
30.5(32) . . .
38(4) . . .
26.6(27) . . .
37.7(32) . . .
30.4(31) . . .
22.3(25) . . .
31.3(32) . . .
29.8(29) . . .
30.8(31) . . .
24.6(26) . . .
31.5(31) . . .
37.3(33) . . .
26.1(27) . . .
27.0(29) . . .
28.5(30) . . .
31.5(31) . . .
32.8(30) . . .
31.5(31) . . .
30.2(30) . . .
41(4) . . .
28.5(28) . . .
24.3(25) . . .
29.5(28) . . .
35.2(33) . . .
33.6(35) . . .
24.7(27) . . .
29.8(28) . . .
27.0(28) . . .
27.6(28) . . .
30.0(31) . . .
31.7(30) . . .
33.0(31) . . .
27.1(28) . . .
26.8(29) . . .
29.6(30) . . .
37.9(35) . . .
29.3(29) . . .
29.1(28) . . .
33.0(35) . . .
25.4(27) . . .
27.8(28) . . .
31.9(29) . . .
30.8(29) . . .
30.9(30) . . .
28.1(28) . . .
35.6(32) . . .
33.9(30) . . .
29.5(30) . . .
31.0(30) . . .
30.8(32) . . .
27.4(28) . . .
36.6(31) . . .
24.1(27) . . .
30.2(31) . . .
27.9(28) . . .
35.3(31) . . .
28.9(28) . . .
32.0(31) . . .
28.7(30) . . .
27.6(28) . . .
33.7(31) . . .
29.0(29) . . .
37.0(33) . . .
30.8(32) . . .
29.0(30) . . .
25.9(27) . . .
30.9(29) . . .
30.0(31) . . .
33.9(31) . . .
25.8(27) . . .
28.9(29) . . .
29.5(28) . . .
30.5(29) . . .
23.9(27) . . .
28.9(29) . . .
34.0(31) . . .
30.6(28) . . .
23.1(28) . . .
34.8(34) . . .
30.2(30) . . .
28.5(28) . . .
23.0(27) . . .
25.9(27) . . .
35.0(33) . . .
34.6(31) . . .
25.1(26) . . .
30.1(28) . . .
30.1(29) . . .
34(4) . . .
26.4(27) . . .
33.3(30) . . .
26.3(28) . . .
32.4(33) . . .
22.5(26) . . .
28.0(28) . . .
26.3(28) . . .
39.8(34) . . .
30.4(29) . . .
32.6(32) . . .
27.6(28) . . .
34.1(30) . . .
32.9(31) . . .
32.3(30) . . .
34.8(32) . . .
29.2(29) . . .
35.5(31) . . .
35.0(33) . . .
26.9(28) . . .
27.2(27) . . .
40.3(34) . . .
38.0(32) . . .
31.7(30) . . .
32.9(34) . . .
26.9(28) . . .
27.4(28) . . .
22.0(25) . . .
29.0(28) . . .
35.4(33) . . .
30.4(30) . . .
33.4(30) . . .
28.2(27) . . .
32.9(31) . . .
33.1(33) . . .
34.8(31) . . .
30.9(30) . . .
28.3(28) . . .
35.8(32) . . .
25.4(27) . . .
31.7(32) . . .
35.5(31) . . .
30.9(29) . . .
35.7(33) . . .
34.2(34) . . .
32.1(31) . . .
23.3(26) . . .
28.0(28) . . .
22.7(25) . . .
34.8(34) . . .
26.4(27) . . .
29.3(28) . . .
34.3(30) . . .
37.2(33) . . .
25.6(27) . . .
27.6(29) . . .
24.2(26) . . .
35.1(31) . . .
26.6(28) . . .
31.0(30) . . .
42.1(35) . . .
34.1(30) . . .
36.2(32) . . .
35.0(31) . . .
34.8(32) . . .
34.3(31) . . .
35.0(30) . . .
39.8(34) . . .
41(4) . . .
32.4(31) . . .
31.0(31) . . .
32.4(30) . . .
30.8(30) . . .
28.5(29) . . .
24.8(25) . . .
28.0(27) . . .
26.3(27) . . .
28.1(29) . . .
28.7(32) . . .
38.3(35) . . .
36.3(33) . . .
30.9(29) . . .
40(4) . . .
28.0(30) . . .
28.7(29) . . .
29.8(28) . . .
28.0(27) . . .
32.0(31) . . .
28.2(31) . . .
31.3(30) . . .
26.0(26) . . .
28.0(27) . . .
29.2(29) . . .
29.1(29) . . .
37.8(34) . . .
30.8(30) . . .
26.9(28) . . .
31.1(31) . . .
28.2(29) . . .
32.3(30) . . .
33.5(30) . . .
25.5(27) . . .
35.0(32) . . .
29.0(29) . . .
27.8(30) . . .
27.7(28) . . .
22.4(24) . . .
33.3(31) . . .
36.0(34) . . .
28.5(27) . . .
39.1(32) . . .
34.4(30) . . .
27.4(27) . . .
25.5(28) . . .
22.9(25) . . .
26.1(26) . . .
35.6(32) . . .
27.2(26) . . .
33.6(32) . . .
29.6(29) . . .
27.0(27) . . .
37.4(34) . . .
23.7(25) . . .
37.1(35) . . .
33.0(33) . . .
25.0(26) . . .
24.5(27) . . .
28.7(30) . . .
25.8(27) . . .
21.8(26) . . .
31.5(29) . . .
31.2(29) . . .
26.0(26) . . .
24.5(25) . . .
34.2(31) . . .
23.9(26) . . .
34.7(31) . . .
32.6(33) . . .
38.5(34) . . .
31.9(29) . . .
40.0(33) . . .
27.8(30) . . .
28.1(31) . . .
28.1(29) . . .
28.8(29) . . .
25.9(26) . . .
31.1(32) . . .
28.6(30) . . .
34.4(31) . . .
25.5(27) . . .
38.3(32) . . .
31.6(32) . . .
28.0(30) . . .
28.5(28) . . .
41.5(33) . . .
38.6(33) . . .
34.4(33) . . .
30.6(31) . . .
23.8(27) . . .
22.1(25) . . .
30.9(30) . . .
23.8(25) . . .
34.7(33) . . .
28.7(29) . . .
32.8(30) . . .
28.9(30) . . .
38(4) . . .
27.5(28) . . .
28.4(28) . . .
28.7(28) . . .
24.7(30) . . .
28.7(30) . . .
32.6(31) . . .
37.7(33) . . .
26.9(26) . . .
37.8(35) . . .
41(4) . . .
27.2(28) . . .
28.2(28) . . .
35.3(30) . . .
33.4(31) . . .
31.1(31) . . .
22.5(24) . . .
29.7(29) . . .
26.3(27) . . .
27.1(27) . . .
41(4) . . .
21.8(24) . . .
32.9(31) . . .
35.7(31) . . .
31.7(30) . . .
23.9(27) . . .
39.1(35) . . .
28.4(28) . . .
26.1(28) . . .
26.3(27) . . .
29.5(31) . . .
35.4(31) . . .
34.3(31) . . .
23.1(25) . . .
25.2(27) . . .
32.0(33) . . .
33.4(32) . . .
36.0(31) . . .
33.1(31) . . .
36.9(34) . . .
29.0(29) . . .
31.6(30) . . .
29.6(28) . . .
28.2(27) . . .
24.8(25) . . .
40(4) . . .
25.2(27) . . .
32.2(30) . . .
34.2(31) . . .
30.4(30) . . .
30.0(29) . . .
36.1(32) . . .
32.2(29) . . .
38.0(34) . . .
36.3(34) . . .
28.7(28) . . .
30.3(29) . . .
30.7(29) . . .
29.4(29) . . .
36.3(32) . . .
30.3(30) . . .
35.1(32) . . .
30.9(29) . . .
28.9(28) . . .
32.9(31) . . .
26.8(29) . . .
24.3(26) . . .
35.7(31) . . .
30.9(29) . . .
33.5(32) . . .
27.9(27) . . .
33.4(30) . . .
28.5(28) . . .
28.6(29) . . .
28.4(28) . . .
34.0(30) . . .
26.1(26) . . .
34.5(30) . . .
36.7(33) . . .
32.0(30) . . .
31.1(31) . . .
34.7(31) . . .
38.6(32) . . .
37.5(33) . . .
26.9(29) . . .
23.0(27) . . .
23.9(25) . . .
32.1(30) . . .
34.5(32) . . .
34.1(33) . . .
31.9(31) . . .
35.6(31) . . .
30.5(30) . . .
33.8(32) . . .
37.5(35) . . .
30.6(31) . . .
25.9(27) . . .
33.1(30) . . .
28.0(28) . . .
27.5(27) . . .
37.2(33) . . .
30.8(29) . . .
29.9(28) . . .
29.6(29) . . .
33.9(31) . . .
25.4(27) . . .
22.2(25) . . .
33.4(32) . . .
38.8(34) . . .
26.2(26) . . .
35.1(31) . . .
31.8(29) . . .
31.4(30) . . .
33.9(31) . . .
30.0(29) . . .
29.9(28) . . .
34.2(31) . . .
29.7(32) . . .
32.6(32) . . .
33.8(32) . . .
26.2(27) . . .
29.3(28) . . .
31.5(31) . . .
26.4(30) . . .
37.8(35) . . .
26.4(26) . . .
26.0(26) . . .
34.7(32) . . .
35.0(32) . . .
34.7(32) . . .
31.2(30) . . .
27.7(28) . . .
28.7(29) . . .
28.1(29) . . .
27.9(29) . . .
24.8(27) . . .
29.1(28) . . .
28.8(29) . . .
28.9(31) . . .
30.1(29) . . .
29.0(28) . . .
41.1(33) . . .
36.7(32) . . .
29.8(29) . . .
34.0(30) . . .
27.2(27) . . .
34.4(32) . . .
31.1(29) . . .
29.6(29) . . .
26.9(27) . . .
30.0(28) . . .
32.2(30) . . .
24.0(25) . . .
32.6(32) . . .
30.9(32) . . .
26.6(27) . . .
39.6(33) . . .
35(4) . . .
32.7(30) . . .
37.9(32) . . .
30.8(29) . . .
23.0(25) . . .
32.9(32) . . .
24.8(26) . . .
27.1(28) . . .
27.3(27) . . .
29.1(29) . . .
38.5(35) . . .
30.2(30) . . .
27.7(28) . . .
32.2(29) . . .
29.9(29) . . .
32.5(33) . . .
30.9(31) . . .
35.0(32) . . .
33.3(30) . . .
34.6(33) . . .
23.6(26) . . .
33.3(33) . . .
34.6(32) . . .
30.2(29) . . .
24.6(27) . . .
35(4) . . .
29.8(30) . . .
25.8(27) . . .
21.7(24) . . .
27.4(29) . . .
26.5(29) . . .
31.3(30) . . .
29.0(28) . . .
27.7(29) . . .
27.4(30) . . .
29.6(30) . . .
23.6(27) . . .
32.7(29) . . .
33.8(30) . . .
30.3(32) . . .
26.3(30) . . .
29.5(29) . . .
26.7(28) . . .
26.6(27) . . .
36.5(34) . . .
30.4(28) . . .
37.5(33) . . .
30.1(29) . . .
27.5(28) . . .
38.5(34) . . .
38.8(35) . . .
27.4(29) . . .
30.1(29) . . .
36.0(33) . . .
31.7(31) . . .
33.9(34) . . .
30.8(29) . . .
27.6(28) . . .
30.1(32) . . .
26.9(29) . . .
33.6(32) . . .
33.5(31) . . .
33.2(30) . . .
30.3(29) . . .
25.2(30) . . .
31.1(32) . . .
29.6(28) . . .
24.7(26) . . .
39.9(34) . . .
33.0(29) . . .
32.3(31) . . .
31.4(30) . . .
26.4(28) . . .
27.5(27) . . .
33.9(31) . . .
35.1(30) . . .
26.3(27) . . .
26.0(27) . . .
33.6(33) . . .
30.7(31) . . .
34.5(33) . . .
28.0(29) . . .
34.8(30) . . .
35.0(32) . . .
35.1(33) . . .
41.4(35) . . .
37.1(32) . . .
29.7(30) . . .
21.1(25) . . .
31.9(32) . . .
34.4(33) . . .
34.2(31) . . .
32.4(30) . . .
35.5(34) . . .
23.7(26) . . .
33.3(34) . . .
28.5(27) . . .
27.5(27) . . .
32.6(33) . . .
26.5(27) . . .
36.4(31) . . .
37.8(33) . . .
32.2(30) . . .
31.6(31) . . .
25.4(27) . . .
24.7(28) . . .
25.3(26) . . .
28.9(30) . . .
33.0(31) . . .
34.1(32) . . .
34.9(31) . . .
32.7(30) . . .
25.6(27) . . .
24.9(27) . . .
32.4(32) . . .
21.4(26) . . .
35.0(31) . . .
31.2(30) . . .
32.0(33) . . .
30.3(29) . . .
34.0(31) . . .
36.5(31) . . .
28.9(28) . . .
27.0(28) . . .
29.0(29) . . .
34.1(30) . . .
32.4(29) . . .
29.6(29) . . .
28.2(29) . . .
28.9(28) . . .
30.2(29) . . .
35.0(31) . . .
34.8(32) . . .
32.8(31) . . .
32.7(30) . . .
32.9(30) . . .
28.1(28) . . .
32.3(30) . . .
37.6(32) . . .
29.8(28) . . .
31.4(30) . . .
34.3(30) . . .
33.2(31) . . .
29.0(30) . . .
37.7(33) . . .
31.7(29) . . .
22.0(27) . . .
27.2(30) . . .
36.1(33) . . .
31.6(30) . . .
30.9(29) . . .
28.4(28) . . .
28.1(31) . . .
30.0(30) . . .
24.8(27) . . .
23.8(26) . . .
32.9(31) . . .
26.7(27) . . .
32.1(30) . . .
34.5(30) . . .
27.7(27) . . .
31.7(31) . . .
31.9(31) . . .
31.6(31) . . .
29.9(29) . . .
32.5(30) . . .
28.2(29) . . .
42(4) . . .
24.8(27) . . .
30.9(28) . . .
33.9(30) . . .
37.7(33) . . .
43(4) . . .
36.4(32) . . .
35.1(31) . . .
33.4(30) . . .
29.0(30) . . .
29.5(28) . . .
33.0(30) . . .
33.2(30) . . .
26.6(27) . . .
30.4(30) . . .
26.8(28) . . .
28.5(29) . . .
38.6(33) . . .
30.2(29) . . .
36.4(32) . . .
37.3(34) . . .
37.0(32) . . .
38.6(32) . . .
28.6(28) . . .
30.7(30) . . .
19.2(22) . . .
26.5(30) . . .
28.1(28) . . .
32.5(31) . . .
36.8(32) . . .
26.9(27) . . .
34.3(34) . . .
32.8(29) . . .
23.2(26) . . .
26.9(28) . . .
24.5(25) . . .
30.1(32) . . .
32.1(30) . . .
30.9(30) . . .
27.6(29) . . .
27.5(29) . . .
28.8(28) . . .
36.2(31) . . .
26.9(28) . . .
24.8(26) . . .
26.8(29) . . .
31.9(30) . . .
35.9(32) . . .
34.8(34) . . .
29.5(29) . . .
26.6(27) . . .
34.8(32) . . .
35.3(31) . . .
37.3(35) . . .
25.1(25) . . .
26.9(28) . . .
26.0(26) . . .
27.7(28) . . .
32.7(32) . . .
28.9(30) . . .
26.4(27) . . .
28.5(29) . . .
34.4(31) . . .
32.4(31) . . .
29.3(29) . . .
27.4(28) . . .
39.4(33) . . .
33.2(30) . . .
40.1(34) . . .
24.1(24) . . .
33.4(31) . . .
34.4(31) . . .
33.2(31) . . .
28.8(30) . . .
31.5(33) . . .
32.4(31) . . .
33.3(30) . . .
29.6(29) . . .
28.0(28) . . .
26.0(28) . . .
29.7(31) . . .
33.3(30) . . .
31.0(29) . . .
26.5(27) . . .
25.6(29) . . .
30.0(29) . . .
35.4(31) . . .
36.0(32) . . .
34.7(34) . . .
30.2(30) . . .
26.2(27) . . .
34.5(31) . . .
34.6(33) . . .
34.4(32) . . .
40(4) . . .
30.6(29) . . .
34.1(30) . . .
26.9(27) . . .
36.6(33) . . .
32.6(30) . . .
32.9(30) . . .
29.5(29) . . .
32.0(30) . . .
30.4(29) . . .
28.1(28) . . .
24.4(26) . . .
30.4(29) . . .
32.7(34) . . .
22.4(26) . . .
32.9(31) . . .
29.0(28) . . .
39.3(33) . . .
38.8(33) . . .
38.3(35) . . .
33.5(31) . . .
37.7(32) . . .
28.4(27) . . .
32.2(31) . . .
34.6(34) . . .
27.0(29) . . .
30.3(30) . . .
33.8(30) . . .
33.6(30) . . .
37.1(34) . . .
32.4(31) . . .
35.3(31) . . .
28.8(28) . . .
32.0(31) . . .
32.1(31) . . .
29.4(28) . . .
24.6(26) . . .
27.5(29) . . .
33.6(32) . . .
33.3(31) . . .
27.0(28) . . .
32.5(30) . . .
35.7(33) . . .
37.2(33) . . .
35.7(33) . . .
24.1(25) . . .
25.9(27) . . .
27.5(30) . . .
42(4) . . .
27.0(27) . . .
30.7(29) . . .
33.5(30) . . .
29.2(28) . . .
31.2(30) . . .
32.6(32) . . .
29.3(28) . . .
39.3(33) . . .
27.6(27) . . .
28.8(28) . . .
35.2(32) . . .
31.7(29) . . .
21.1(24) . . .
27.9(30) . . .
25.5(30) . . .
32.2(32) . . .
26.5(26) . . .
24.3(26) . . .
28.9(28) . . .
26.5(28) . . .
27.1(27) . . .
22.6(26) . . .
35.6(31) . . .
31.4(30) . . .
35(4) . . .
29.2(30) . . .
37.8(32) . . .
33.3(30) . . .
34.4(31) . . .
30.0(28) . . .
36.0(33) . . .
30.6(29) . . .
23.1(25) . . .
29.8(33) . . .
31.8(31) . . .
29.0(28) . . .
26.2(27) . . .
25.1(28) . . .
26.4(29) . . .
22.5(27) . . .
37.5(33) . . .
40.2(33) . . .
40.6(34) . . .
28.0(27) . . .
30.9(28) . . .
33.2(30) . . .
31.7(29) . . .
36.5(32) . . .
28.7(28) . . .
28.7(28) . . .
38.3(33) . . .
27.4(27) . . .
33.9(33) . . .
22.6(25) . . .
24.7(27) . . .
28.1(27) . . .
39.2(33) . . .
31.9(29) . . .
37.0(34) . . .
30.8(29) . . .
35.8(33) . . .
33.9(29) . . .
33.2(30) . . .
23.0(26) . . .
24.2(28) . . .
31.7(29) . . .
32.7(30) . . .
31.8(31) . . .
28.4(30) . . .
28.0(30) . . .
25.0(27) . . .
35.5(32) . . .
30.8(32) . . .
28.4(29) . . .
28.8(27) . . .
36.2(31) . . .
38.1(32) . . .
27.4(27) . . .
29.3(30) . . .
30.0(30) . . .
26.5(28) . . .
37.7(32) . . .
31.5(30) . . .
31.9(30) . . .
31.2(29) . . .
27.6(27) . . .
28.3(29) . . .
28.2(30) . . .
29.7(31) . . .
26.0(28) . . .
30.7(29) . . .
39.1(33) . . .
27.1(27) . . .
31.4(31) . . .
28.0(30) . . .
29.9(28) . . .
31.4(30) . . .
35.6(32) . . .
21.7(23) . . .
26.7(28) . . .
33.3(30) . . .
31.0(30) . . .
35.5(34) . . .
28.1(27) . . .
37.6(32) . . .
31.3(29) . . .
28.2(28) . . .
35.8(34) . . .
35.5(33) . . .
36.3(33) . . .
29.5(28) . . .
25.6(27) . . .
26.6(28) . . .
30.2(29) . . .
32.8(30) . . .
28.5(28) . . .
26.3(30) . . .
32.7(33) . . .
35.0(33) . . .
29.1(28) . . .
23.1(25) . . .
26.1(29) . . .
32.6(32) . . .
35.5(32) . . .
27.0(28) . . .
25.8(26) . . .
29.1(30) . . .
30.0(29) . . .
32.9(30) . . .
34.9(31) . . .
32.5(29) . . .
29.6(29) . . .
30.7(30) . . .
36.6(34) . . .
31.9(29) . . .
25.5(26) . . .
27.7(28) . . .
29.5(29) . . .
33.4(31) . . .
29.9(28) . . .
28.1(28) . . .
37.3(33) . . .
37.2(33) . . .
32.0(30) . . .
32.1(29) . . .
27.6(27) . . .
33.1(31) . . .
33.3(31) . . .
35.7(32) . . .
28.5(28) . . .
32.2(31) . . .
28.3(28) . . .
27.4(28) . . .
33.1(31) . . .
32.6(29) . . .
28.7(28) . . .
36.9(33) . . .
36.3(33) . . .
30.0(28) . . .
28.7(28) . . .
34.3(33) . . .
30.9(29) . . .
38.3(33) . . .
34.0(31) . . .
34.1(30) . . .
35.2(32) . . .
26.3(29) . . .
32.7(32) . . .
30.6(28) . . .
31.4(30) . . .
32.8(30) . . .
29.8(30) . . .
34.5(31) . . .
28.2(28) . . .
32.1(29) . . .
30.6(30) . . .
27.1(28) . . .
34.1(30) . . .
32.5(30) . . .
25.7(27) . . .
19.7(23) . . .
24.5(28) . . .
37.4(35) . . .
23.7(25) . . .
26.7(28) . . .
32.2(32) . . .
27.8(28) . . .
32.7(30) . . .
29.4(28) . . .
29.2(30) . . .
25.7(27) . . .
32.2(32) . . .
32.0(31) . . .
25.4(26) . . .
30.3(29) . . .
33.2(32) . . .
28.1(29) . . .
35.1(32) . . .
34.1(31) . . .
40.5(34) . . .
26.1(27) . . .
32.1(32) . . .
30.5(30) . . .
35.6(31) . . .
30.6(31) . . .
26.7(28) . . .
33.3(32) . . .
28.4(30) . . .
34.3(30) . . .
28.6(28) . . .
27.5(29) . . .
26.3(28) . . .
29.9(30) . . .
31.7(29) . . .
27.5(28) . . .
32.7(32) . . .
24.2(27) . . .
27.0(27) . . .
34.7(32) . . .
36.1(34) . . .
32.4(32) . . .
26.5(26) . . .
34.3(31) . . .
35.2(32) . . .
31.4(31) . . .
33.5(31) . . .
29.9(29) . . .
32.6(30) . . .
41.3(34) . . .
33.0(31) . . .
29.5(30) . . .
32.2(31) . . .
27.9(28) . . .
36.7(33) . . .
30.0(29) . . .
31.5(30) . . .
29.5(29) . . .
31.8(29) . . .
29.1(29) . . .
33.0(32) . . .
37.2(33) . . .
33.5(31) . . .
34.7(31) . . .
35.9(31) . . .
32.8(33) . . .
34.5(34) . . .
26.7(27) . . .
29.2(28) . . .
35.6(34) . . .
29.8(30) . . .
35.2(33) . . .
22.3(24) . . .
24.0(26) . . .
26.0(29) . . .
23.1(26) . . .
29.9(28) . . .
32.7(31) . . .
31.2(29) . . .
34.1(32) . . .
28.5(28) . . .
28.9(29) . . .
29.2(28) . . .
26.3(26) . . .
31.5(31) . . .
32.9(32) . . .
40.8(35) . . .
30.8(30) . . .
36.0(31) . . .
31.5(30) . . .
33.7(32) . . .
28.0(28) . . .
29.2(28) . . .
34.0(30) . . .
34.2(31) . . .
29.7(32) . . .
27.4(28) . . .
32.0(29) . . .
29.5(29) . . .
32.5(30) . . .
32.2(32) . . .
27.0(27) . . .
23.4(25) . . .
31.4(30) . . .
29.2(31) . . .
31.7(30) . . .
33.7(32) . . .
26.8(28) . . .
29.0(28) . . .
26.5(27) . . .
25.3(27) . . .
30.8(29) . . .
23.3(26) . . .
26.9(28) . . .
16.8(21) . . .
27.5(29) . . .
23.5(25) . . .
27.2(27) . . .
31.1(30) . . .
29.4(28) . . .
35.6(32) . . .
25.8(26) . . .
24.8(26) . . .
26.2(28) . . .
37.1(34) . . .
37.4(32) . . .
27.2(28) . . .
33.2(30) . . .
27.7(28) . . .
30.4(30) . . .
32.5(32) . . .
34.4(31) . . .
30.2(29) . . .
22.4(25) . . .
29.7(33) . . .
25.1(27) . . .
29.2(29) . . .
25.7(27) . . .
27.1(29) . . .
32.5(33) . . .
34.7(33) . . .
25.6(26) . . .
30.3(30) . . .
26.7(27) . . .
38.4(34) . . .
34.0(30) . . .
33.4(31) . . .
33.1(31) . . .
33.9(31) . . .
26.5(28) . . .
25.5(28) . . .
24.7(26) . . .
29.0(29) . . .
25.3(27) . . .
21.1(24) . . .
18.1(24) . . .
31.0(29) . . .
28.2(28) . . .
29.6(30) . . .
29.4(30) . . .
40.0(34) . . .
34.3(31) . . .
23.0(26) . . .
33.6(32) . . .
30.0(31) . . .
29.2(28) . . .
36.1(31) . . .
35.8(33) . . .
31.6(32) . . .
30.0(30) . . .
28.4(29) . . .
34.1(30) . . .
31.2(30) . . .
27.3(30) . . .
29.9(30) . . .
37(4) . . .
24.4(25) . . .
25.7(27) . . .
31.9(30) . . .
27.3(27) . . .
34.3(31) . . .
34.1(30) . . .
29.9(29) . . .
37.3(35) . . .
26.5(26) . . .
36.0(31) . . .
24.3(26) . . .
33.4(32) . . .
27.3(26) . . .
31.4(34) . . .
32.8(30) . . .
23.3(25) . . .
27.7(30) . . .
30.0(30) . . .
21.9(24) . . .
24.5(26) . . .
37.0(31) . . .
38.6(34) . . .
24.0(26) . . .
27.5(29) . . .
32.2(30) . . .
28.0(27) . . .
25.9(29) . . .
22.6(26) . . .
30.3(32) . . .
33.5(30) . . .
32.6(30) . . .
30.0(29) . . .
31.6(32) . . .
24.4(27) . . .
30.9(29) . . .
33.3(31) . . .
37.5(33) . . .
34.6(34) . . .
25.1(27) . . .
21.7(25) . . .
28.7(29) . . .
30.6(30) . . .
31.5(31) . . .
33.8(31) . . .
29.9(28) . . .
27.3(29) . . .
22.4(27) . . .
32.3(31) . . .
23.5(26) . . .
26.0(26) . . .
32.5(33) . . .
30.5(31) . . .
22.6(24) . . .
30.2(30) . . .
23.5(25) . . .
27.0(29) . . .
30.5(29) . . .
28.8(28) . . .
32.0(31) . . .
31.5(29) . . .
28.7(29) . . .
29.2(30) . . .
30.3(30) . . .
30.3(29) . . .
24.0(26) . . .
24.6(26) . . .
32.0(32) . . .
34.1(32) . . .
32.5(29) . . .
31.6(29) . . .
27.4(27) . . .
34.3(33) . . .
38.6(35) . . .
26.2(27) . . .
26.8(28) . . .
28.5(29) . . .
31.4(32) . . .
29.6(29) . . .
31.2(29) . . .
27.2(28) . . .
27.9(27) . . .
29.0(28) . . .
31.1(30) . . .
27.8(28) . . .
35.1(31) . . .
29.9(29) . . .
36.3(33) . . .
35.1(31) . . .
23.0(25) . . .
27.7(28) . . .
34.7(31) . . .
34.5(33) . . .
35.1(32) . . .
32.9(30) . . .
31.6(30) . . .
36(4) . . .
25.5(26) . . .
34.4(31) . . .
26.9(27) . . .
26.6(31) . . .
31.8(34) . . .
43(4) . . .
43.0(34) . . .
28.9(28) . . .
31.9(32) . . .
23.6(27) . . .
34.1(33) . . .
35.3(31) . . .
30.6(29) . . .
31.3(31) . . .
25.1(26) . . .
37.2(34) . . .
28.4(28) . . .
21.4(24) . . .
21.1(23) . . .
27.9(29) . . .
33.4(30) . . .
35.3(31) . . .
38.9(33) . . .
29.6(30) . . .
34.4(34) . . .
27.1(27) . . .
32.9(30) . . .
33.0(30) . . .
34.0(31) . . .
34.2(31) . . .
33.3(30) . . .
30.9(29) . . .
25.1(26) . . .
24.6(26) . . .
29.6(30) . . .
29.4(29) . . .
31.8(29) . . .
32.7(30) . . .
31.6(30) . . .
29.5(30) . . .
26.4(27) . . .
31.1(30) . . .
29.5(29) . . .
31.3(31) . . .
20.6(23) . . .
33.5(32) . . .
31.9(29) . . .
32.6(30) . . .
41.1(33) . . .
38(4) . . .
32.6(32) . . .
34.1(30) . . .
36.3(34) . . .
30.3(29) . . .
36.9(32) . . .
33.2(30) . . .
33.2(30) . . .
38.8(33) . . .
33.8(32) . . .
26.2(26) . . .
34.0(31) . . .
33.4(31) . . .
22.8(24) . . .
23.1(26) . . .
25.8(28) . . .
31.7(29) . . .
34.5(31) . . .
27.9(28) . . .
27.2(29) . . .
30.9(30) . . .
37.8(32) . . .
26.7(29) . . .
24.4(27) . . .
27.8(27) . . .
26.2(27) . . .
33.5(30) . . .
34.1(32) . . .
23.9(26) . . .
35(4) . . .
31.5(31) . . .
42.6(34) . . .
27.8(27) . . .
38.2(34) . . .
25.9(27) . . .
30.3(30) . . .
31.3(30) . . .
38.2(33) . . .
32.6(30) . . .
30.0(29) . . .
29.9(28) . . .
38.9(32) . . .
25.7(27) . . .
29.6(30) . . .
31.5(31) . . .
32.9(30) . . .
33.6(30) . . .
30.3(29) . . .
27.2(28) . . .
23.8(27) . . .
28.9(29) . . .
35.5(31) . . .
30.9(31) . . .
24.4(26) . . .
26.3(29) . . .
25.1(26) . . .
27.6(28) . . .
35.0(32) . . .
34.9(32) . . .
30.5(30) . . .
22.3(24) . . .
22.7(25) . . .
28.9(28) . . .
31.5(31) . . .
26.0(28) . . .
27.4(27) . . .
31.8(30) . . .
26.5(27) . . .
38.4(35) . . .
29.7(31) . . .
31.5(30) . . .
27.8(27) . . .
33.0(32) . . .
27.9(29) . . .
36.3(34) . . .
42.2(34) . . .
37.4(32) . . .
38(4) . . .
35.6(34) . . .
33.8(31) . . .
30.0(28) . . .
28.8(28) . . .
35.0(33) . . .
37.0(33) . . .
28.7(30) . . .
27.5(28) . . .
28.1(28) . . .
27.9(28) . . .
36.8(35) . . .
26.9(29) . . .
24.6(26) . . .
29.6(29) . . .
31.2(31) . . .
23.1(25) . . .
30.0(31) . . .
26.0(27) . . .
35.8(31) . . .
34.0(30) . . .
34.5(30) . . .
35.2(31) . . .
37.5(32) . . .
33.9(31) . . .
32.2(30) . . .
33.8(31) . . .
28.5(29) . . .
35.3(32) . . .
23.7(26) . . .
30.3(30) . . .
30.2(30) . . .
27.4(27) . . .
32.7(30) . . .
31.6(30) . . .
24.7(28) . . .
27.7(30) . . .
27.0(27) . . .
29.9(28) . . .
24.9(25) . . .
27.6(28) . . .
34.6(34) . . .
25.6(26) . . .
30.0(29) . . .
21.1(23) . . .
32.5(33) . . .
35.1(33) . . .
26.1(27) . . .
32.7(31) . . .
26.4(29) . . .
31.6(32) . . .
35.0(31) . . .
31.9(29) . . .
29.5(28) . . .
31.0(29) . . .
28.5(29) . . .
33.4(32) . . .
25.6(26) . . .
33.3(30) . . .
28.9(30) . . .
33.3(32) . . .
26.5(27) . . .
31.6(29) . . .
24.0(26) . . .
34.7(32) . . .
23.5(27) . . .
24.2(28) . . .
30.4(29) . . .
23.8(27) . . .
27.3(28) . . .
27.2(27) . . .
27.4(29) . . .
37.9(32) . . .
33.1(32) . . .
22.6(25) . . .
24.3(27) . . .
34.7(33) . . .
34.0(30) . . .
31.3(31) . . .
26.1(28) . . .
30.0(30) . . .
32.2(30) . . .
22.8(25) . . .
35.1(33) . . .
28.4(30) . . .
27.5(30) . . .
19.3(23) . . .
26.9(28) . . .
30.8(30) . . .
26.6(31) . . .
28.4(30) . . .
27.0(27) . . .
27.4(29) . . .
29.7(28) . . .
31.6(31) . . .
30.0(31) . . .
37.0(32) . . .
31.0(30) . . .
31.8(30) . . .
37(4) . . .
29.9(30) . . .
30.9(30) . . .
31.5(29) . . .
23.1(29) . . .
24.8(29) . . .
32.1(31) . . .
37.9(32) . . .
26.6(28) . . .
28.8(28) . . .
32.8(32) . . .
31.9(30) . . .
32.5(30) . . .
30.6(28) . . .
37(4) . . .
21.2(25) . . .
29.3(30) . . .
32.2(30) . . .
28.9(28) . . .
26.9(28) . . .
28.2(29) . . .
33.2(30) . . .
37.0(32) . . .
26.3(28) . . .
35.5(32) . . .
31.0(31) . . .
24.6(28) . . .
32.8(30) . . .
28.9(28) . . .
30.1(31) . . .
31.5(30) . . .
28.7(27) . . .
40.0(33) . . .
29.3(29) . . .
23.3(29) . . .
23.2(26) . . .
26.5(27) . . .
28.4(28) . . .
34.2(31) . . .
31.7(30) . . .
33.0(31) . . .
31.7(29) . . .
31.3(30) . . .
27.6(30) . . .
28.2(31) . . .
30.5(30) . . .
31.3(29) . . .
30.1(29) . . .
25.1(29) . . .
31.3(31) . . .
24.0(25) . . .
27.7(27) . . .
31.4(30) . . .
24.5(26) . . .
44(4) . . .
30.3(30) . . .
28.8(28) . . .
26.7(27) . . .
27.6(27) . . .
30.8(30) . . .
32.0(32) . . .
27.5(27) . . .
29.2(29) . . .
35.4(34) . . .
24.5(25) . . .
28.5(28) . . .
25.7(27) . . .
33.7(30) . . .
40.2(35) . . .
30.0(28) . . .
25.2(26) . . .
34.4(31) . . .
27.3(27) . . .
30.0(32) . . .
25.8(27) . . .
38.5(34) . . .
30.6(29) . . .
29.8(30) . . .
31.9(31) . . .
27.1(27) . . .
32.3(30) . . .
30.9(29) . . .
26.4(27) . . .
31.7(30) . . .
40.0(34) . . .
33.8(31) . . .
27.3(27) . . .
30.7(29) . . .
32.4(31) . . .
26.5(29) . . .
28.4(27) . . .
33.8(30) . . .
28.6(28) . . .
24.6(26) . . .
30.0(30) . . .
27.3(28) . . .
31.7(29) . . .
33.6(32) . . .
33.3(31) . . .
28.4(28) . . .
30.9(29) . . .
30.7(29) . . .
28.2(27) . . .
28.5(30) . . .
27.3(27) . . .
29.1(28) . . .
24.6(26) . . .
33.0(31) . . .
23.9(25) . . .
24.7(27) . . .
32.8(30) . . .
32.4(31) . . .
27.0(30) . . .
36.1(34) . . .
32.0(31) . . .
24.5(27) . . .
33.1(30) . . .
35.0(33) . . .
28.5(29) . . .
27.9(27) . . .
32.4(29) . . .
32.9(31) . . .
27.6(27) . . .
33.1(31) . . .
31.3(29) . . .
32.2(29) . . .
22.5(25) . . .
34.3(31) . . .
28.5(28) . . .
26.7(27) . . .
34.7(31) . . .
26.9(28) . . .
30.8(31) . . .
24.6(28) . . .
29.8(29) . . .
26.6(27) . . .
27.2(29) . . .
37.2(35) . . .
30.7(30) . . .
23.0(25) . . .
37.5(33) . . .
33.4(31) . . .
27.9(27) . . .
35.1(33) . . .
32.4(31) . . .
32.9(30) . . .
28.4(29) . . .
30.7(32) . . .
35.2(33) . . .
34.3(31) . . .
39.4(32) . . .
31.0(33) . . .
25.3(28) . . .
28.1(28) . . .
31.5(29) . . .
31.4(29) . . .
26.5(30) . . .
25.4(29) . . .
29.4(31) . . .
24.3(26) . . .
31.1(30) . . .
22.1(26) . . .
23.0(28) . . .
30.6(30) . . .
28.9(28) . . .
25.4(27) . . .
31.6(31) . . .
36.2(32) . . .
34.6(32) . . .
39.8(33) . . .
33.4(31) . . .
29.7(29) . . .
27.2(28) . . .
22.6(27) . . .
22.9(26) . . .
33.1(31) . . .
35.6(33) . . .
32.4(31) . . .
33.1(32) . . .
26.0(27) . . .
35.0(32) . . .
26.6(28) . . .
28.6(30) . . .
28.8(29) . . .
31.3(30) . . .
22.4(25) . . .
26.2(28) . . .
34.3(33) . . .
27.4(28) . . .
27.1(27) . . .
28.1(29) . . .
31.6(32) . . .
33.6(33) . . .
32.8(30) . . .
32.0(29) . . .
35.1(33) . . .
23.4(26) . . .
35.0(32) . . .
32.0(30) . . .
32.9(31) . . .
21.4(24) . . .
30.3(33) . . .
27.3(29) . . .
22.3(25) . . .
34.9(31) . . .
32.9(30) . . .
29.5(28) . . .
34.2(31) . . .
35.3(31) . . .
35.0(32) . . .
29.6(30) . . .
28.6(29) . . .
28.8(30) . . .
31.4(29) . . .
31.8(31) . . .
24.0(26) . . .
32.4(34) . . .
29.1(30) . . .
32.7(29) . . .
27.5(28) . . .
23.9(25) . . .
28.8(28) . . .
31.4(30) . . .
28.9(28) . . .
36.1(34) . . .
26.8(28) . . .
29.2(31) . . .
27.6(30) . . .
35.5(31) . . .
21.9(26) . . .
23.0(28) . . .
30.2(32) . . .
30.4(29) . . .
25.7(27) . . .
25.5(27) . . .
29.0(31) . . .
42(4) . . .
22.5(26) . . .
29.0(27) . . .
30.1(33) . . .
21.6(25) . . .
24.7(27) . . .
36.3(33) . . .
28.7(28) . . .
33.8(32) . . .
31.9(30) . . .
32.1(30) . . .
32.5(29) . . .
36.0(31) . . .
31.5(29) . . .
28.3(29) . . .
32.9(32) . . .
27.3(27) . . .
31.3(29) . . .
35.5(33) . . .
25.4(27) . . .
27.4(28) . . .
28.7(27) . . .
34.2(30) . . .
25.3(29) . . .
19.8(24) . . .
19.3(23) . . .
31.3(28) . . .
23.7(26) . . .
33.0(31) . . .
29.1(28) . . .
33.5(31) . . .
23.0(25) . . .
29.0(30) . . .
24.4(26) . . .
27.2(28) . . .
34.0(33) . . .
28.3(28) . . .
38.8(35) . . .
31.6(31) . . .
23.9(25) . . .
27.4(28) . . .
29.1(29) . . .
20.9(24) . . .
30.2(30) . . .
29.6(30) . . .
25.2(28) . . .
30.7(30) . . .
31.9(32) . . .
28.6(30) . . .
33.5(33) . . .
33.8(30) . . .
33.3(30) . . .
22.4(26) . . .
28.8(31) . . .
27.3(28) . . .
30.2(29) . . .
27.8(27) . . .
29.8(29) . . .
32.5(31) . . .
33.8(33) . . .
27.2(27) . . .
30.9(29) . . .
18.3(22) . . .
26.4(29) . . .
27.6(29) . . .
23.6(26) . . .
33.3(30) . . .
30.6(31) . . .
23.6(27) . . .
26.8(27) . . .
26.8(28) . . .
25.4(27) . . .
32.8(32) . . .
30.7(30) . . .
30.7(30) . . .
36.9(32) . . .
35.2(31) . . .
34.8(32) . . .
28.6(29) . . .
28.2(29) . . .
32.0(29) . . .
29.3(30) . . .
28.0(30) . . .
34.1(34) . . .
27.9(30) . . .
35.9(32) . . .
28.6(27) . . .
36.3(32) . . .
29.4(31) . . .
21.3(24) . . .
30.1(29) . . .
31.8(30) . . .
37.3(33) . . .
31.1(30) . . .
29.2(28) . . .
29.2(28) . . .
30.7(30) . . .
48(4) . . .
28.4(29) . . .
33.8(31) . . .
38.6(32) . . .
31.5(31) . . .
24.9(28) . . .
27.5(32) . . .
18.6(23) . . .
27.0(27) . . .
29.1(30) . . .
30.0(31) . . .
34.2(31) . . .
35.9(33) . . .
29.0(29) . . .
31.4(30) . . .
29.4(29) . . .
38.1(33) . . .
31.4(29) . . .
37.6(32) . . .
34.4(33) . . .
27.6(30) . . .
20.1(24) . . .
24.4(26) . . .
24.7(26) . . .
35.0(31) . . .
33.3(31) . . .
33.4(31) . . .
32.0(29) . . .
32.0(32) . . .
29.8(30) . . .
31.1(32) . . .
23.4(27) . . .
25.4(27) . . .
26.1(26) . . .
27.0(29) . . .
33.1(32) . . .
29.3(29) . . .
25.0(27) . . .
24.3(25) . . .
28.8(29) . . .
33.4(34) . . .
29.1(30) . . .
27.1(27) . . .
22.9(27) . . .
28.1(31) . . .
31.6(32) . . .
31.5(30) . . .
35.3(31) . . .
24.2(26) . . .
26.7(29) . . .
27.3(27) . . .
28.9(29) . . .
32.9(30) . . .
35.7(33) . . .
31.5(30) . . .
30.3(30) . . .
27.8(27) . . .
32.0(30) . . .
30.2(30) . . .
31.3(29) . . .
28.9(27) . . .
29.4(29) . . .
30.7(29) . . .
28.8(29) . . .
35.3(34) . . .
23.4(24) . . .
26.1(27) . . .
31.7(30) . . .
33.1(31) . . .
33.0(33) . . .
24.8(27) . . .
27.1(27) . . .
26.0(28) . . .
25.2(27) . . .
21.3(25) . . .
24.9(28) . . .
33.0(30) . . .
30.8(28) . . .
39(4) . . .
31.6(30) . . .
29.6(29) . . .
36.3(32) . . .
36.5(32) . . .
30.6(29) . . .
26.7(27) . . .
28.9(29) . . .
37.7(32) . . .
30.6(30) . . .
36.1(35) . . .
33.7(34) . . .
31.0(30) . . .
31.2(29) . . .
30.2(31) . . .
27.2(28) . . .
34.4(32) . . .
22.5(25) . . .
26.5(28) . . .
26.7(28) . . .
29.3(29) . . .
30.6(31) . . .
22.4(26) . . .
24.7(26) . . .
18.6(23) . . .
29.6(30) . . .
31.8(30) . . .
28.4(29) . . .
25.6(26) . . .
30.8(31) . . .
27.3(29) . . .
29.4(30) . . .
27.4(30) . . .
31.6(30) . . .
24.7(26) . . .
26.4(27) . . .
31.7(30) . . .
31.7(29) . . .
33.3(30) . . .
31.4(30) . . .
28.3(29) . . .
28.5(29) . . .
24.6(26) . . .
27.1(27) . . .
25.7(27) . . .
26.5(28) . . .
21.1(26) . . .
29.5(29) . . .
24.8(26) . . .
23.2(25) . . .
33.5(32) . . .
30.0(28) . . .
27.0(28) . . .
32.8(31) . . .
32.3(30) . . .
27.9(26) . . .
39(4) . . .
31.1(29) . . .
30.1(29) . . .
23.3(27) . . .
29.4(30) . . .
31.5(30) . . .
23.7(26) . . .
34.9(32) . . .
29.1(29) . . .
28.3(30) . . .
23.0(25) . . .
27.5(28) . . .
32.8(30) . . .
25.7(27) . . .
35.6(33) . . .
33.8(30) . . .
34.0(30) . . .
33.5(31) . . .
27.5(29) . . .
26.4(30) . . .
31.0(29) . . .
38.3(32) . . .
29.3(29) . . .
26.7(29) . . .
30.8(30) . . .
32.6(30) . . .
33.0(29) . . .
29.9(29) . . .
31.6(31) . . .
32.3(32) . . .
28.6(28) . . .
32.8(31) . . .
23.7(26) . . .
29.9(30) . . .
30.2(30) . . .
38.0(33) . . .
29.1(29) . . .
31.4(30) . . .
27.6(28) . . .
32.5(30) . . .
32.8(30) . . .
20.0(24) . . .
34.7(33) . . .
30.5(32) . . .
35.5(32) . . .
38.3(33) . . .
25.0(27) . . .
22.8(25) . . .
32.5(32) . . .
27.8(28) . . .
28.8(27) . . .
30.0(30) . . .
32.6(31) . . .
24.9(26) . . .
21.9(25) . . .
31.5(29) . . .
29.3(30) . . .
31.9(31) . . .
33.6(31) . . .
37.9(34) . . .
31.0(29) . . .
28.9(29) . . .
28.4(27) . . .
37.0(32) . . .
42(4) . . .
34.0(31) . . .
31.4(30) . . .
29.9(31) . . .
21.9(24) . . .
30.2(29) . . .
25.4(26) . . .
32.0(33) . . .
26.6(28) . . .
31.3(30) . . .
27.5(29) . . .
36.2(31) . . .
21.8(27) . . .
27.3(27) . . .
31.2(29) . . .
22.3(24) . . .
30.9(30) . . .
27.8(28) . . .
23.1(27) . . .
29.4(30) . . .
33.8(30) . . .
27.9(29) . . .
26.2(27) . . .
27.3(27) . . .
31.1(29) . . .
31.5(29) . . .
26.0(27) . . .
24.6(26) . . .
30.0(31) . . .
35.6(34) . . .
27.0(27) . . .
29.7(29) . . .
22.8(26) . . .
29.4(31) . . .
30.4(29) . . .
33.5(30) . . .
33.8(32) . . .
32.0(30) . . .
38.2(34) . . .
31.4(30) . . .
29.9(29) . . .
24.8(26) . . .
31.4(32) . . .
24.3(27) . . .
27.3(30) . . .
27.2(28) . . .
33.7(30) . . .
29.6(30) . . .
32.2(33) . . .
22.7(26) . . .
26.3(27) . . .
25.8(27) . . .
34.7(34) . . .
33.0(31) . . .
33.6(32) . . .
25.2(26) . . .
24.2(25) . . .
30.5(31) . . .
25.7(27) . . .
28.8(29) . . .
32.4(29) . . .
27.1(27) . . .
34(4) . . .
35.0(33) . . .
26.9(27) . . .
22.8(25) . . .
25.9(29) . . .
34.0(35) . . .
29.7(29) . . .
36.3(33) . . .
31.7(30) . . .
23.1(27) . . .
30.4(31) . . .
25.8(26) . . .
23.9(25) . . .
25.9(27) . . .
27.9(30) . . .
25.4(28) . . .
31.1(30) . . .
25.1(26) . . .
23.9(26) . . .
29.9(31) . . .
29.8(30) . . .
22.6(26) . . .
30.0(29) . . .
37.7(33) . . .
36.0(33) . . .
27.8(31) . . .
31.7(33) . . .
31.0(29) . . .
35.4(32) . . .
26.2(28) . . .
23.1(26) . . .
37.9(34) . . .
30.3(29) . . .
30.8(29) . . .
27.5(30) . . .
26.1(30) . . .
28.6(28) . . .
32.2(29) . . .
26.0(29) . . .
20.7(25) . . .
27.0(30) . . .
33.0(32) . . .
23.8(25) . . .
30.3(29) . . .
36.8(33) . . .
31.5(29) . . .
32.0(30) . . .
30.9(29) . . .
26.3(30) . . .
30.7(30) . . .
22.7(24) . . .
25.3(26) . . .
25.9(27) . . .
31.4(29) . . .
34.5(33) . . .
28.9(30) . . .
26.4(26) . . .
27.5(28) . . .
35.8(31) . . .
23.9(26) . . .
22.5(25) . . .
25.2(26) . . .
25.8(27) . . .
30.4(31) . . .
27.5(32) . . .
25.0(28) . . .
34.2(31) . . .
25.8(26) . . .
31.4(30) . . .
23.1(25) . . .
30.2(28) . . .
34.5(30) . . .
30.4(29) . . .
33.7(33) . . .
27.1(28) . . .
31.5(30) . . .
28.0(28) . . .
22.0(25) . . .
24.8(27) . . .
31.7(32) . . .
23.4(27) . . .
23.2(25) . . .
30.8(31) . . .
26.4(28) . . .
35.7(33) . . .
28.0(27) . . .
23.2(25) . . .
34.6(32) . . .
27.9(29) . . .
29.6(30) . . .
32.5(32) . . .
32.0(30) . . .
29.4(31) . . .
34.2(34) . . .
30.2(31) . . .
29.1(28) . . .
33.4(30) . . .
43(4) . . .
33.4(31) . . .
29.5(29) . . .
31.1(30) . . .
28.8(28) . . .
33.7(31) . . .
32.8(33) . . .
26.1(29) . . .
34.0(31) . . .
28.8(28) . . .
32.3(33) . . .
30.3(31) . . .
28.1(28) . . .
26.2(27) . . .
26.3(27) . . .
31.9(30) . . .
28.3(28) . . .
35.1(32) . . .
23.0(26) . . .
30.6(28) . . .
24.9(25) . . .
29.5(32) . . .
28.6(29) . . .
33.6(31) . . .
31.5(29) . . .
36.9(33) . . .
33.7(32) . . .
35.1(35) . . .
25.2(26) . . .
26.7(28) . . .
24.7(27) . . .
24.4(27) . . .
29.1(32) . . .
26.4(27) . . .
34.5(32) . . .
34.5(31) . . .
40.1(35) . . .
23.7(26) . . .
25.8(27) . . .
25.6(27) . . .
25.3(28) . . .
23.3(26) . . .
28.5(28) . . .
32.8(30) . . .
28.4(30) . . .
36.5(35) . . .
32.7(31) . . .
27.8(28) . . .
36.5(32) . . .
35.9(31) . . .
33.6(33) . . .
29.3(31) . . .
30.0(31) . . .
29.3(28) . . .
31.9(33) . . .
35.4(33) . . .
34.9(31) . . .
25.0(26) . . .
28.9(28) . . .
33.6(32) . . .
35.7(34) . . .
29.0(28) . . .
24.8(26) . . .
33.5(30) . . .
31.1(29) . . .
31.0(31) . . .
33.9(32) . . .
30.5(30) . . .
26.6(27) . . .
36.4(34) . . .
34.1(32) . . .
28.4(27) . . .
30.1(28) . . .
31.0(29) . . .
22.7(25) . . .
24.9(30) . . .
28.8(28) . . .
29.6(29) . . .
27.7(29) . . .
30.1(29) . . .
26.9(27) . . .
26.6(28) . . .
30.7(29) . . .
31.4(30) . . .
30.4(30) . . .
31.5(31) . . .
24.6(27) . . .
25.1(26) . . .
29.4(31) . . .
26.5(28) . . .
30.8(30) . . .
34.3(33) . . .
31.7(29) . . .
25.0(26) . . .
27.1(30) . . .
28.0(29) . . .
25.9(26) . . .
32.2(30) . . .
33.2(32) . . .
27.4(29) . . .
28.7(29) . . .
19.1(23) . . .
28.3(28) . . .
28.4(29) . . .
37.3(34) . . .
35.4(31) . . .
31.6(29) . . .
25.6(26) . . .
28.6(29) . . .
31.2(33) . . .
25.1(27) . . .
25.3(27) . . .
35.6(31) . . .
26.3(26) . . .
33.1(33) . . .
37.1(34) . . .
27.9(29) . . .
33.0(30) . . .
28.0(27) . . .
36.4(35) . . .
32.3(31) . . .
22.1(26) . . .
21.8(24) . . .
31.8(30) . . .
26.3(29) . . .
27.7(28) . . .
23.5(26) . . .
22.7(25) . . .
24.3(27) . . .
28.8(29) . . .
29.2(29) . . .
33.1(30) . . .
39.4(33) . . .
26.7(27) . . .
25.8(27) . . .
30.7(29) . . .
34.0(31) . . .
35.7(32) . . .
26.2(26) . . .
24.5(26) . . .
31.6(32) . . .
30.7(29) . . .
25.7(27) . . .
29.8(32) . . .
28.2(30) . . .
26.8(27) . . .
32.7(30) . . .
24.4(26) . . .
30.0(31) . . .
30.2(32) . . .
32.6(30) . . .
33.7(30) . . .
35.8(32) . . .
31.6(30) . . .
28.3(29) . . .
26.8(27) . . .
33.0(30) . . .
32.2(31) . . .
31.4(33) . . .
28.1(29) . . .
28.2(28) . . .
23.5(26) . . .
23.5(27) . . .
20.9(25) . . .
27.6(28) . . .
25.1(26) . . .
34.3(31) . . .
29.3(29) . . .
28.2(31) . . .
33.5(33) . . .
28.0(28) . . .
29.5(29) . . .
21.3(24) . . .
28.3(30) . . .
28.9(28) . . .
31.3(29) . . .
28.3(28) . . .
24.7(26) . . .
23.0(26) . . .
27.8(32) . . .
32.8(30) . . .
26.3(27) . . .
26.9(27) . . .
23.2(25) . . .
22.0(25) . . .
22.3(24) . . .
31.2(30) . . .
27.7(31) . . .
24.9(27) . . .
26.7(27) . . .
24.8(26) . . .
41(4) . . .
33.2(33) . . .
22.7(26) . . .
30.5(30) . . .
30.5(28) . . .
23.5(27) . . .
28.7(31) . . .
33.9(33) . . .
22.1(24) . . .
29.4(28) . . .
24.5(27) . . .
31.0(32) . . .
32.6(32) . . .
30.7(29) . . .
27.5(27) . . .
27.8(31) . . .
27.4(29) . . .
21.4(24) . . .
21.9(29) . . .
25.4(26) . . .
34.2(31) . . .
30.8(30) . . .
31.0(32) . . .
27.2(28) . . .
31.8(30) . . .
32.4(30) . . .
30.7(32) . . .
28.7(28) . . .
29.1(28) . . .
27.1(27) . . .
33.6(31) . . .
29.8(31) . . .
34.0(32) . . .
31.3(29) . . .
28.4(27) . . .
29.7(28) . . .
31.0(28) . . .
31.2(29) . . .
25.3(26) . . .
27.1(27) . . .
27.8(27) . . .
25.3(27) . . .
24.7(26) . . .
25.5(26) . . .
29.1(28) . . .
34.7(32) . . .
28.9(31) . . .
37(4) . . .
27.3(27) . . .
22.0(26) . . .
27.8(30) . . .
29.4(30) . . .
34.1(30) . . .
33.3(30) . . .
27.8(31) . . .
30.1(31) . . .
29.9(28) . . .
32.3(29) . . .
33.6(30) . . .
25.1(27) . . .
26.8(28) . . .
25.2(26) . . .
31.1(29) . . .
29.7(28) . . .
31.3(29) . . .
35.4(33) . . .
46(4) . . .
31.5(29) . . .
29.6(29) . . .
34.7(31) . . .
32.3(31) . . .
27.3(28) . . .
30.7(29) . . .
23.2(25) . . .
27.2(30) . . .
28.1(29) . . .
26.9(28) . . .
23.4(25) . . .
24.0(28) . . .
26.7(28) . . .
22.8(25) . . .
25.3(26) . . .
30.0(29) . . .
29.1(28) . . .
30.8(29) . . .
27.8(27) . . .
31.9(32) . . .
25.4(26) . . .
28.8(29) . . .
29.4(28) . . .
27.9(28) . . .
30.1(30) . . .
18.6(22) . . .
30.0(31) . . .
27.0(28) . . .
26.4(27) . . .
28.1(28) . . .
31.9(30) . . .
24.3(25) . . .
28.0(29) . . .
36.7(34) . . .
31.3(30) . . .
28.1(27) . . .
34.2(32) . . .
26.0(28) . . .
29.3(30) . . .
37.5(33) . . .
26.7(28) . . .
27.2(27) . . .
23.1(25) . . .
31.0(32) . . .
30.0(32) . . .
35.4(31) . . .
29.7(29) . . .
36.2(33) . . .
40.5(33) . . .
32.6(30) . . .
28.5(28) . . .
29.4(28) . . .
34.7(33) . . .
26.1(29) . . .
30.7(29) . . .
35.1(31) . . .
27.5(29) . . .
27.1(30) . . .
28.7(28) . . .
27.7(27) . . .
32.0(29) . . .
46(4) . . .
28.1(29) . . .
25.6(26) . . .
32.7(30) . . .
21.9(25) . . .
38(4) . . .
26.9(28) . . .
32.0(34) . . .
26.9(27) . . .
33.5(32) . . .
32.0(32) . . .
25.0(27) . . .
28.2(28) . . .
25.8(27) . . .
36.3(34) . . .
30.4(28) . . .
29.9(29) . . .
28.7(28) . . .
32.9(30) . . .
28.6(29) . . .
25.6(28) . . .
28.2(30) . . .
30.9(30) . . .
29.0(28) . . .
33.8(31) . . .
28.1(30) . . .
22.3(25) . . .
27.2(28) . . .
25.7(27) . . .
25.1(27) . . .
26.0(29) . . .
23.7(26) . . .
26.7(28) . . .
34.5(31) . . .
32.1(31) . . .
28.8(30) . . .
25.4(27) . . .
25.8(27) . . .
30.4(28) . . .
39(4) . . .
24.5(28) . . .
22.2(25) . . .
31.4(30) . . .
33.9(30) . . .
27.9(28) . . .
37(4) . . .
27.4(30) . . .
27.8(27) . . .
25.6(27) . . .
37.2(35) . . .
30.8(32) . . .
25.8(27) . . .
28.0(28) . . .
31.1(29) . . .
25.5(29) . . .
26.6(29) . . .
26.8(28) . . .
28.9(28) . . .
26.2(27) . . .
36.3(32) . . .
28.9(29) . . .
32.6(32) . . .
27.3(27) . . .
25.0(26) . . .
24.4(27) . . .
32.3(32) . . .
26.9(29) . . .
25.4(26) . . .
26.5(29) . . .
31.0(31) . . .
28.2(31) . . .
35.0(32) . . .
35.9(32) . . .
27.2(28) . . .
31.6(30) . . .
37.5(33) . . .
24.0(25) . . .
33.6(31) . . .
29.0(30) . . .
29.6(29) . . .
32.7(30) . . .
26.6(28) . . .
30.6(29) . . .
27.5(28) . . .
29.1(31) . . .
31.5(31) . . .
25.5(27) . . .
32.7(29) . . .
30.7(30) . . .
23.3(25) . . .
33.9(30) . . .
25.5(26) . . .
35.5(31) . . .
35.5(33) . . .
34.6(34) . . .
31.9(30) . . .
36.5(31) . . .
27.9(30) . . .
37.0(34) . . .
30.6(31) . . .
39.6(35) . . .
24.7(27) . . .
28.5(28) . . .
27.0(28) . . .
29.3(31) . . .
23.8(26) . . .
34.6(30) . . .
28.8(31) . . .
28.9(28) . . .
28.3(28) . . .
33.9(33) . . .
29.2(28) . . .
25.5(28) . . .
23.1(26) . . .
36.2(35) . . .
33.5(32) . . .
30.4(29) . . .
30.4(29) . . .
28.6(29) . . .
32.7(31) . . .
26.7(27) . . .
36.7(32) . . .
26.6(27) . . .
33.6(34) . . .
25.6(27) . . .
31.9(29) . . .
31.6(30) . . .
28.3(30) . . .
31.1(33) . . .
34.7(35) . . .
29.6(28) . . .
30.2(29) . . .
21.8(24) . . .
32.2(32) . . .
25.6(29) . . .
26.6(28) . . .
31.8(29) . . .
32.0(32) . . .
27.4(29) . . .
36.2(34) . . .
30.4(28) . . .
25.6(26) . . .
33.4(32) . . .
36.4(34) . . .
35.8(31) . . .
35.3(31) . . .
36.2(31) . . .
32.0(30) . . .
34.7(32) . . .
32.3(30) . . .
31.5(29) . . .
32.0(29) . . .
30.8(28) . . .
27.9(30) . . .
25.3(31) . . .
32.2(29) . . .
24.1(28) . . .
29.1(29) . . .
28.2(29) . . .
27.8(30) . . .
23.9(26) . . .
22.6(25) . . .
33.8(32) . . .
42(4) . . .
30.5(29) . . .
31.9(29) . . .
31.3(29) . . .
31.1(32) . . .
29.8(31) . . .
37.3(35) . . .
32.2(30) . . .
29.6(29) . . .
29.5(30) . . .
31.3(32) . . .
29.0(28) . . .
25.5(27) . . .
28.8(29) . . .
28.6(28) . . .
31.4(31) . . .
25.1(26) . . .
28.0(27) . . .
26.6(27) . . .
27.6(29) . . .
26.8(28) . . .
30.7(29) . . .
28.0(27) . . .
21.5(25) . . .
29.5(28) . . .
31.7(29) . . .
39.4(34) . . .
32.5(30) . . .
32.3(32) . . .
27.9(29) . . .
26.5(26) . . .
36.2(32) . . .
33.7(30) . . .
31.4(29) . . .
32.0(30) . . .
28.5(29) . . .
32.2(29) . . .
22.8(25) . . .
26.5(27) . . .
26.7(27) . . .
25.7(27) . . .
36.3(31) . . .
28.6(29) . . .
22.4(26) . . .
21.6(26) . . .
29.4(29) . . .
32.5(30) . . .
25.1(26) . . .
30.6(29) . . .
31.0(29) . . .
41(4) . . .
27.2(27) . . .
25.3(27) . . .
27.6(29) . . .
27.7(29) . . .
25.9(26) . . .
28.6(28) . . .
38.6(33) . . .
33.6(32) . . .
30.2(32) . . .
24.5(26) . . .
25.6(26) . . .
31.4(29) . . .
28.4(29) . . .
33.1(34) . . .
24.8(26) . . .
30.8(29) . . .
24.5(25) . . .
33.3(32) . . .
37.3(32) . . .
27.6(28) . . .
24.7(26) . . .
29.8(29) . . .
35.4(34) . . .
34.8(32) . . .
29.7(28) . . .
27.5(27) . . .
29.8(30) . . .
26.9(30) . . .
34.5(32) . . .
28.2(28) . . .
22.7(25) . . .
30.1(30) . . .
28.0(30) . . .
24.2(26) . . .
31.3(29) . . .
27.6(27) . . .
32.1(31) . . .
30.5(31) . . .
30.6(30) . . .
26.3(26) . . .
31.4(31) . . .
28.9(28) . . .
31.0(31) . . .
27.4(27) . . .
24.2(26) . . .
26.5(27) . . .
25.9(27) . . .
34(4) . . .
31.5(30) . . .
33.3(31) . . .
29.2(29) . . .
25.7(28) . . .
27.3(29) . . .
26.5(27) . . .
32.7(30) . . .
27.1(30) . . .
24.9(27) . . .
32.6(33) . . .
26.1(27) . . .
29.7(29) . . .
34.0(32) . . .
30.4(30) . . .
33.2(31) . . .
28.0(28) . . .
30.1(29) . . .
28.9(28) . . .
35.3(33) . . .
24.7(27) . . .
25.4(28) . . .
31.8(29) . . .
22.4(24) . . .
25.4(26) . . .
38(4) . . .
24.1(26) . . .
28.4(28) . . .
36.3(34) . . .
36.4(34) . . .
35.7(32) . . .
33.0(31) . . .
25.3(26) . . .
28.1(30) . . .
23.7(25) . . .
28.1(28) . . .
30.1(30) . . .
34.3(30) . . .
37.7(33) . . .
27.2(28) . . .
25.6(27) . . .
31.0(30) . . .
31.5(31) . . .
31.9(31) . . .
30.7(30) . . .
30.6(30) . . .
28.2(28) . . .
27.7(27) . . .
26.7(26) . . .
28.7(28) . . .
33.6(31) . . .
28.5(29) . . .
24.8(26) . . .
28.2(27) . . .
30.2(29) . . .
27.4(28) . . .
26.5(27) . . .
35.2(32) . . .
29.0(30) . . .
31.2(33) . . .
23.8(26) . . .
31.4(29) . . .
29.1(29) . . .
31.1(30) . . .
24.9(27) . . .
27.2(28) . . .
33.4(30) . . .
26.3(27) . . .
28.8(28) . . .
32.9(30) . . .
23.8(26) . . .
27.0(27) . . .
26.1(28) . . .
26.5(27) . . .
25.4(25) . . .
33.3(30) . . .
28.8(28) . . .
23.9(26) . . .
32.3(34) . . .
25.4(27) . . .
28.2(27) . . .
37.6(32) . . .
30.7(29) . . .
25.4(28) . . .
23.6(26) . . .
29.1(28) . . .
31.1(29) . . .
29.5(29) . . .
29.4(30) . . .
29.7(29) . . .
33.0(31) . . .
39.1(33) . . .
26.1(27) . . .
34.5(32) . . .
25.3(26) . . .
23.7(25) . . .
34.0(30) . . .
30.5(31) . . .
27.1(30) . . .
33.8(33) . . .
26.7(27) . . .
30.2(29) . . .
34.5(32) . . .
31.9(31) . . .
26.9(28) . . .
25.9(27) . . .
29.6(28) . . .
37.6(35) . . .
35.2(34) . . .
27.7(28) . . .
34.4(31) . . .
33.9(30) . . .
24.5(25) . . .
30.3(29) . . .
26.6(26) . . .
36.5(31) . . .
33.1(31) . . .
35.2(32) . . .
40(4) . . .
38.5(32) . . .
26.1(28) . . .
32.8(30) . . .
26.1(26) . . .
34.1(32) . . .
34.9(31) . . .
43.3(34) . . .
28.5(29) . . .
30.8(31) . . .
32.7(30) . . .
27.8(28) . . .
31.4(29) . . .
33.0(30) . . .
28.7(30) . . .
27.5(29) . . .
30.0(28) . . .
23.4(27) . . .
30.1(29) . . .
23.8(27) . . .
21.9(26) . . .
29.1(28) . . .
22.4(25) . . .
34.4(32) . . .
27.2(27) . . .
34.1(31) . . .
37.6(32) . . .
31.0(29) . . .
35.0(32) . . .
21.8(25) . . .
22.4(27) . . .
28.8(28) . . .
32.0(30) . . .
38(4) . . .
29.7(29) . . .
31.9(30) . . .
27.3(28) . . .
26.8(28) . . .
27.2(30) . . .
34.3(33) . . .
30.9(29) . . .
35.4(31) . . .
34.8(32) . . .
33.0(32) . . .
27.6(28) . . .
33.1(31) . . .
36.2(31) . . .
29.4(28) . . .
29.7(29) . . .
21.5(24) . . .
28.4(30) . . .
31.8(29) . . .
33.0(31) . . .
26.9(27) . . .
29.5(29) . . .
25.7(27) . . .
24.6(26) . . .
28.2(29) . . .
33.3(33) . . .
29.7(28) . . .
29.1(28) . . .
21.4(25) . . .
25.5(26) . . .
36(4) . . .
26.0(27) . . .
22.4(25) . . .
25.4(27) . . .
30.6(29) . . .
28.7(29) . . .
30.7(29) . . .
34.3(30) . . .
26.9(27) . . .
26.0(30) . . .
25.9(29) . . .
26.2(27) . . .
26.1(26) . . .
33.5(32) . . .
31.4(30) . . .
25.4(27) . . .
25.8(27) . . .
28.7(29) . . .
24.8(26) . . .
32.8(32) . . .
30.1(30) . . .
34.2(32) . . .
34.6(31) . . .
25.3(27) . . .
34.3(32) . . .
29.2(30) . . .
20.2(24) . . .
31.9(30) . . .
26.9(27) . . .
33.6(32) . . .
27.7(30) . . .
29.1(28) . . .
24.5(27) . . .
30.3(29) . . .
24.9(27) . . .
32.8(31) . . .
36.5(32) . . .
30.8(29) . . .
34.5(31) . . .
28.9(29) . . .
23.5(24) . . .
30.5(29) . . .
31.5(29) . . .
22.3(25) . . .
31.4(30) . . .
25.1(26) . . .
26.9(27) . . .
31.9(29) . . .
25.5(29) . . .
23.4(26) . . .
30.2(29) . . .
35.2(31) . . .
21.9(24) . . .
28.0(29) . . .
26.5(27) . . .
31.4(31) . . .
31.1(29) . . .
33.2(30) . . .
30.1(30) . . .
34.0(31) . . .
26.9(28) . . .
27.8(27) . . .
28.4(28) . . .
32.5(31) . . .
25.0(27) . . .
30.5(30) . . .
30.4(29) . . .
25.2(26) . . .
27.5(29) . . .
25.5(28) . . .
20.3(24) . . .
32.5(30) . . .
29.2(29) . . .
25.9(28) . . .
27.6(29) . . .
27.4(29) . . .
27.3(27) . . .
30.8(30) . . .
32.5(30) . . .
30.5(31) . . .
31.6(31) . . .
26.5(28) . . .
32.2(30) . . .
25.3(28) . . .
27.8(30) . . .
29.1(30) . . .
33.5(30) . . .
31.8(31) . . .
22.1(26) . . .
30.5(31) . . .
29.1(32) . . .
36.5(32) . . .
33.4(30) . . .
34.4(32) . . .
30.8(32) . . .
28.7(29) . . .
29.7(29) . . .
23.3(26) . . .
30.5(30) . . .
34.8(31) . . .
28.0(28) . . .
24.2(26) . . .
26.7(29) . . .
27.3(29) . . .
27.6(27) . . .
32.3(30) . . .
29.8(28) . . .
23.0(26) . . .
28.0(29) . . .
32.3(32) . . .
30.4(29) . . .
31.2(30) . . .
32.7(31) . . .
27.5(29) . . .
32.9(31) . . .
32.6(31) . . .
27.5(28) . . .
29.2(29) . . .
24.1(26) . . .
25.4(26) . . .
28.9(29) . . .
31.9(30) . . .
34.8(34) . . .
32.1(32) . . .
23.5(25) . . .
28.3(28) . . .
26.6(27) . . .
29.9(31) . . .
26.3(29) . . .
27.9(29) . . .
35.3(31) . . .
34.7(32) . . .
29.4(31) . . .
23.6(26) . . .
31.5(30) . . .
24.0(26) . . .
25.2(26) . . .
34.0(32) . . .
32.4(34) . . .
20.5(24) . . .
24.9(26) . . .
34.7(33) . . .
29.0(30) . . .
35.8(32) . . .
36.2(31) . . .
31.0(30) . . .
29.3(30) . . .
30.5(30) . . .
33.4(33) . . .
31.3(31) . . .
33.1(30) . . .
26.9(27) . . .
30.3(31) . . .
40.8(33) . . .
30.6(30) . . .
24.6(26) . . .
28.5(29) . . .
27.7(31) . . .
29.5(29) . . .
26.5(29) . . .
37.0(32) . . .
23.6(25) . . .
25.4(28) . . .
26.3(29) . . .
29.5(28) . . .
24.6(26) . . .
26.7(29) . . .
23.5(27) . . .
29.2(30) . . .
29.6(28) . . .
24.9(27) . . .
23.6(27) . . .
20.4(25) . . .
31.8(31) . . .
34.7(31) . . .
30.0(29) . . .
22.6(25) . . .
24.9(28) . . .
30.2(32) . . .
32.3(30) . . .
27.0(27) . . .
30.5(31) . . .
23.2(24) . . .
36.1(33) . . .
33.0(30) . . .
30.5(29) . . .
35.2(32) . . .
30.1(29) . . .
29.9(29) . . .
29.4(28) . . .
33.5(31) . . .
26.0(27) . . .
40(4) . . .
34.3(30) . . .
31.4(29) . . .
32.5(33) . . .
30.9(32) . . .
29.6(29) . . .
37.1(32) . . .
30.3(28) . . .
33.3(31) . . .
32.7(32) . . .
28.9(28) . . .
22.4(25) . . .
23.5(25) . . .
27.5(29) . . .
19.8(27) . . .
21.3(27) . . .
22.6(25) . . .
27.1(27) . . .
31.0(29) . . .
32.2(32) . . .
27.2(28) . . .
28.9(29) . . .
28.8(28) . . .
31.8(30) . . .
33.8(33) . . .
20.5(24) . . .
23.9(25) . . .
29.4(28) . . .
33.3(31) . . .
30.5(32) . . .
25.5(29) . . .
29.3(29) . . .
24.1(27) . . .
36.1(32) . . .
32.7(32) . . .
22.3(26) . . .
26.8(27) . . .
34.5(32) . . .
29.2(31) . . .
27.3(29) . . .
25.3(26) . . .
29.2(29) . . .
29.4(28) . . .
31.0(30) . . .
29.6(30) . . .
30.9(31) . . .
33.8(31) . . .
27.3(29) . . .
28.6(28) . . .
27.3(28) . . .
28.8(28) . . .
34.7(31) . . .
31.4(30) . . .
35.7(33) . . .
33.2(30) . . .
27.2(28) . . .
29.1(28) . . .
30.4(31) . . .
26.5(30) . . .
27.5(28) . . .
29.6(28) . . .
29.9(29) . . .
30.6(30) . . .
40(4) . . .
35.8(31) . . .
35.7(31) . . .
32.0(29) . . .
30.0(30) . . .
24.9(28) . . .
27.5(28) . . .
29.5(28) . . .
31.8(29) . . .
30.3(31) . . .
27.6(31) . . .
26.5(26) . . .
32.7(30) . . .
28.2(27) . . .
29.3(30) . . .
29.0(30) . . .
26.6(30) . . .
30.0(29) . . .
27.1(28) . . .
35.2(32) . . .
26.6(27) . . .
32.0(31) . . .
23.0(25) . . .
28.8(29) . . .
26.2(26) . . .
32.0(32) . . .
29.4(28) . . .
34.9(31) . . .
27.8(29) . . .
30.2(30) . . .
28.5(29) . . .
24.1(25) . . .
35.0(31) . . .
29.7(28) . . .
28.8(29) . . .
29.4(29) . . .
29.3(29) . . .
30.6(29) . . .
25.4(27) . . .
25.9(28) . . .
28.2(28) . . .
22.8(25) . . .
29.4(28) . . .
23.0(26) . . .
21.2(25) . . .
28.3(27) . . .
31.7(29) . . .
30.2(28) . . .
23.5(25) . . .
25.4(29) . . .
28.0(28) . . .
23.0(25) . . .
26.4(27) . . .
30.2(31) . . .
22.6(26) . . .
31.3(30) . . .
35.9(31) . . .
22.0(24) . . .
27.5(29) . . .
31.9(30) . . .
33.9(31) . . .
31.7(29) . . .
27.4(28) . . .
24.1(25) . . .
26.4(27) . . .
32.3(31) . . .
29.8(28) . . .
24.3(26) . . .
21.1(27) . . .
23.5(27) . . .
29.0(30) . . .
28.1(28) . . .
29.4(30) . . .
15.8(20) . . .
26.8(28) . . .
30.1(30) . . .
30.7(29) . . .
28.9(28) . . .
27.8(29) . . .
38.0(33) . . .
23.9(25) . . .
29.9(29) . . .
21.8(25) . . .
30.3(31) . . .
29.9(30) . . .
27.2(28) . . .
24.3(25) . . .
31.2(29) . . .
36.6(35) . . .
25.0(27) . . .
26.7(28) . . .
27.7(28) . . .
31.0(30) . . .
28.6(29) . . .
25.8(27) . . .
29.3(29) . . .
27.2(28) . . .
37.5(33) . . .
30.1(30) . . .
31.2(32) . . .
38.9(32) . . .
29.8(28) . . .
34.7(31) . . .
26.2(27) . . .
28.3(28) . . .
25.5(26) . . .
30.4(29) . . .
28.4(28) . . .
34.3(32) . . .
32.5(32) . . .
27.9(28) . . .
30.7(29) . . .
32.4(30) . . .
34.7(33) . . .
28.9(29) . . .
31.7(29) . . .
28.2(27) . . .
29.6(29) . . .
29.5(28) . . .
34.4(33) . . .
25.6(27) . . .
31.8(29) . . .
30.3(29) . . .
29.3(29) . . .
42(4) . . .
29.9(28) . . .
25.8(27) . . .
25.3(28) . . .
22.5(24) . . .
34.5(31) . . .
40.9(33) . . .
32.5(30) . . .
26.1(28) . . .
31.1(31) . . .
27.1(27) . . .
33.1(30) . . .
31.4(30) . . .
19.9(23) . . .
27.8(28) . . .
21.5(25) . . .
33.4(29) . . .
26.9(28) . . .
24.6(27) . . .
22.0(28) . . .
25.7(27) . . .
34.4(30) . . .
28.0(29) . . .
27.3(29) . . .
25.7(26) . . .
34.7(31) . . .
26.9(27) . . .
31.4(32) . . .
27.7(29) . . .
26.9(28) . . .
24.0(26) . . .
26.4(26) . . .
25.3(27) . . .
29.8(32) . . .
23.2(27) . . .
21.7(24) . . .
26.5(26) . . .
25.3(26) . . .
24.7(29) . . .
20.1(24) . . .
28.4(28) . . .
27.8(28) . . .
32.4(31) . . .
33.2(30) . . .
28.4(28) . . .
28.9(28) . . .
28.8(29) . . .
24.8(28) . . .
32.2(31) . . .
17.8(21) . . .
26.6(27) . . .
30.8(31) . . .
33.0(32) . . .
23.9(27) . . .
27.7(28) . . .
32.0(29) . . .
27.2(30) . . .
25.5(27) . . .
34.3(33) . . .
34.0(30) . . .
36.7(31) . . .
28.0(29) . . .
25.6(27) . . .
28.8(30) . . .
24.4(27) . . .
29.7(28) . . .
31.5(30) . . .
29.2(30) . . .
26.4(27) . . .
31.7(30) . . .
27.7(27) . . .
33.7(31) . . .
31.7(32) . . .
27.5(29) . . .
33.1(30) . . .
27.4(28) . . .
30.0(29) . . .
23.6(25) . . .
26.2(27) . . .
24.1(27) . . .
25.8(27) . . .
24.7(27) . . .
31.9(32) . . .
39.9(35) . . .
29.1(28) . . .
29.1(28) . . .
22.4(25) . . .
28.9(31) . . .
24.1(26) . . .
24.5(26) . . .
24.6(26) . . .
24.3(25) . . .
28.9(30) . . .
30.9(29) . . .
28.5(28) . . .
28.5(30) . . .
30.8(30) . . .
28.5(29) . . .
22.1(24) . . .
24.0(25) . . .
22.1(26) . . .
23.8(27) . . .
28.8(33) . . .
32.7(30) . . .
22.8(25) . . .
28.0(29) . . .
24.5(26) . . .
30.9(30) . . .
31.2(31) . . .
23.2(25) . . .
29.6(33) . . .
26.8(28) . . .
27.7(27) . . .
28.5(28) . . .
22.6(25) . . .
31.5(30) . . .
35.0(33) . . .
33.1(31) . . .
38.2(32) . . .
26.2(27) . . .
31.3(30) . . .
28.0(31) . . .
29.6(32) . . .
24.8(26) . . .
32.2(29) . . .
26.6(28) . . .
24.7(29) . . .
22.4(24) . . .
30.5(29) . . .
30.5(29) . . .
27.1(28) . . .
33.8(33) . . .
31.5(29) . . .
30.0(29) . . .
33.8(30) . . .
28.8(29) . . .
33.4(33) . . .
22.0(24) . . .
34.6(31) . . .
28.5(30) . . .
30.1(30) . . .
28.0(28) . . .
23.7(26) . . .
21.5(25) . . .
26.8(29) . . .
19.6(24) . . .
23.3(26) . . .
29.1(28) . . .
29.8(28) . . .
28.3(28) . . .
27.4(28) . . .
23.8(27) . . .
20.4(24) . . .
29.2(28) . . .
22.8(25) . . .
31.0(31) . . .
35.0(34) . . .
31.4(32) . . .
24.2(26) . . .
32.8(32) . . .
23.5(27) . . .
28.4(28) . . .
40.3(34) . . .
28.4(28) . . .
26.8(27) . . .
28.8(28) . . .
32.0(31) . . .
27.1(28) . . .
27.2(27) . . .
24.9(27) . . .
28.0(29) . . .
21.7(25) . . .
31.5(30) . . .
28.3(28) . . .
29.5(29) . . .
30.1(32) . . .
33.6(33) . . .
31.2(29) . . .
23.5(26) . . .
31.5(32) . . .
24.5(27) . . .
29.6(29) . . .
28.0(27) . . .
23.4(27) . . .
29.0(30) . . .
25.3(26) . . .
38(4) . . .
31.7(29) . . .
28.9(29) . . .
24.3(29) . . .
22.9(26) . . .
28.8(28) . . .
28.7(28) . . .
26.6(28) . . .
34.8(32) . . .
30.3(30) . . .
30.0(29) . . .
29.2(28) . . .
31.4(30) . . .
26.3(27) . . .
31.0(30) . . .
33.3(31) . . .
30.8(29) . . .
28.3(29) . . .
27.8(29) . . .
22.2(24) . . .
29.9(29) . . .
28.0(28) . . .
26.0(27) . . .
24.0(28) . . .
23.9(29) . . .
24.9(28) . . .
25.8(27) . . .
26.1(27) . . .
22.6(25) . . .
29.0(29) . . .
23.8(25) . . .
26.1(26) . . .
21.5(25) . . .
23.6(28) . . .
27.8(29) . . .
31.5(30) . . .
33.8(30) . . .
30.7(30) . . .
26.8(29) . . .
27.2(29) . . .
25.6(26) . . .
21.7(24) . . .
27.4(29) . . .
31.8(33) . . .
29.3(29) . . .
28.7(28) . . .
36.3(32) . . .
25.3(28) . . .
35(4) . . .
27.5(30) . . .
25.8(27) . . .
25.0(26) . . .
33.8(31) . . .
27.0(28) . . .
30.9(31) . . .
31.5(30) . . .
29.1(28) . . .
26.2(28) . . .
27.4(27) . . .
41.0(35) . . .
29.8(29) . . .
36.4(34) . . .
24.2(25) . . .
26.3(28) . . .
28.2(29) . . .
31.1(29) . . .
24.2(25) . . .
21.7(24) . . .
31.6(32) . . .
24.0(26) . . .
35.6(31) . . .
26.4(28) . . .
28.7(29) . . .
28.5(28) . . .
28.4(29) . . .
29.3(28) . . .
32.1(29) . . .
31.0(30) . . .
32.3(31) . . .
28.3(29) . . .
28.5(28) . . .
33.8(33) . . .
33.0(32) . . .
32.3(31) . . .
24.6(28) . . .
24.8(25) . . .
27.8(28) . . .
22.5(25) . . .
26.6(28) . . .
26.4(29) . . .
27.5(27) . . .
26.6(27) . . .
41(4) . . .
27.0(27) . . .
22.9(25) . . .
30.2(29) . . .
38.2(34) . . .
32.3(31) . . .
33.3(32) . . .
33.2(30) . . .
31.9(30) . . .
26.1(27) . . .
28.8(30) . . .
22.6(28) . . .
30.5(29) . . .
24.0(26) . . .
26.3(29) . . .
23.0(28) . . .
26.5(28) . . .
32.0(29) . . .
22.1(25) . . .
33.3(32) . . .
32.4(32) . . .
27.3(29) . . .
27.4(28) . . .
31.1(30) . . .
27.4(29) . . .
29.6(30) . . .
39.7(34) . . .
26.8(27) . . .
32.5(30) . . .
28.4(28) . . .
36.6(34) . . .
28.1(29) . . .
21.6(25) . . .
31.7(31) . . .
31.9(32) . . .
24.9(27) . . .
33.1(32) . . .
26.9(27) . . .
31.6(30) . . .
24.9(28) . . .
30.3(30) . . .
39(4) . . .
35.6(32) . . .
28.3(30) . . .
29.7(30) . . .
31.4(32) . . .
23.6(26) . . .
20.8(23) . . .
30.0(31) . . .
25.6(28) . . .
24.5(26) . . .
30.0(28) . . .
36.2(31) . . .
32.0(32) . . .
20.5(25) . . .
20.1(26) . . .
24.3(27) . . .
23.9(26) . . .
29.4(30) . . .
32.3(32) . . .
33.2(32) . . .
33.8(30) . . .
27.5(27) . . .
25.1(29) . . .
26.0(28) . . .
25.6(27) . . .
24.8(26) . . .
32.3(30) . . .
27.8(28) . . .
32.2(31) . . .
36.9(33) . . .
28.8(27) . . .
25.3(26) . . .
30.3(31) . . .
25.8(27) . . .
27.1(28) . . .
17.5(22) . . .
23.8(26) . . .
29.1(30) . . .
28.1(28) . . .
32.7(30) . . .
34.0(30) . . .
31.1(31) . . .
35.1(33) . . .
29.4(29) . . .
25.7(27) . . .
28.3(28) . . .
23.3(25) . . .
26.3(28) . . .
25.7(29) . . .
33.9(31) . . .
26.4(27) . . .
28.5(29) . . .
29.9(31) . . .
35.5(31) . . .
25.5(26) . . .
24.8(27) . . .
27.0(28) . . .
26.6(28) . . .
21.1(25) . . .
24.4(26) . . .
23.7(26) . . .
29.2(29) . . .
31.4(33) . . .
31.1(30) . . .
27.2(27) . . .
29.4(29) . . .
30.6(30) . . .
27.9(31) . . .
26.1(29) . . .
29.1(28) . . .
32.1(29) . . .
31.7(31) . . .
29.5(31) . . .
32.0(32) . . .
25.2(26) . . .
27.0(27) . . .
28.6(29) . . .
28.9(30) . . .
34.3(31) . . .
26.4(27) . . .
32.5(29) . . .
39(4) . . .
25.1(30) . . .
28.6(28) . . .
34.4(30) . . .
27.1(27) . . .
39.2(33) . . .
31.5(28) . . .
30.9(29) . . .
27.7(27) . . .
28.4(30) . . .
25.3(25) . . .
37.3(32) . . .
33.8(30) . . .
28.5(27) . . .
33.4(32) . . .
31.4(31) . . .
30.7(32) . . .
31.9(30) . . .
28.3(28) . . .
30.7(29) . . .
26.7(29) . . .
29.4(28) . . .
30.7(30) . . .
23.5(25) . . .
25.7(27) . . .
29.9(30) . . .
31.9(29) . . .
28.8(29) . . .
27.5(28) . . .
34.1(34) . . .
28.6(32) . . .
25.1(27) . . .
25.4(26) . . .
32.2(30) . . .
27.5(27) . . .
28.0(30) . . .
29.4(29) . . .
33.2(29) . . .
35.4(31) . . .
25.2(27) . . .
22.4(28) . . .
22.3(27) . . .
26.5(26) . . .
35.8(32) . . .
32.8(31) . . .
38.4(35) . . .
34.3(32) . . .
31.3(30) . . .
28.3(29) . . .
32.7(32) . . .
36.3(35) . . .
29.2(28) . . .
38.5(33) . . .
31.5(29) . . .
26.7(28) . . .
24.6(26) . . .
31.8(30) . . .
22.2(25) . . .
30.2(29) . . .
29.7(31) . . .
22.9(26) . . .
23.8(27) . . .
21.8(25) . . .
25.9(28) . . .
25.2(25) . . .
23.7(25) . . .
32.7(30) . . .
22.1(25) . . .
30.6(29) . . .
30.1(30) . . .
35.1(34) . . .
24.2(25) . . .
26.0(27) . . .
29.2(30) . . .
36(4) . . .
25.7(28) . . .
32.0(29) . . .
29.2(28) . . .
36.7(34) . . .
26.6(27) . . .
26.4(30) . . .
29.2(28) . . .
33.2(31) . . .
36.2(33) . . .
28.6(30) . . .
24.7(26) . . .
34.9(30) . . .
22.2(26) . . .
32.3(31) . . .
34.1(31) . . .
30.6(30) . . .
24.4(26) . . .
40.5(33) . . .
30.8(29) . . .
30.8(30) . . .
26.5(27) . . .
32.4(30) . . .
26.2(27) . . .
18.7(24) . . .
27.2(30) . . .
26.4(28) . . .
28.7(28) . . .
29.9(29) . . .
33.9(32) . . .
27.4(27) . . .
33.7(31) . . .
31.5(29) . . .
32.4(33) . . .
30.0(28) . . .
28.7(29) . . .
22.2(25) . . .
35.7(31) . . .
22.4(25) . . .
30.5(33) . . .
25.3(27) . . .
31.4(31) . . .
26.9(27) . . .
33.0(30) . . .
27.0(29) . . .
26.7(27) . . .
31.5(30) . . .
32.4(31) . . .
27.6(29) . . .
25.9(27) . . .
24.5(27) . . .
33.8(31) . . .
28.0(27) . . .
31.3(29) . . .
27.5(30) . . .
28.5(29) . . .
29.6(28) . . .
26.1(27) . . .
25.3(26) . . .
33.9(34) . . .
22.8(26) . . .
26.1(28) . . .
29.4(29) . . .
23.5(26) . . .
23.4(27) . . .
32.7(32) . . .
32.2(30) . . .
26.0(27) . . .
26.1(32) . . .
20.1(26) . . .
31.5(33) . . .
29.7(28) . . .
35.3(32) . . .
27.5(29) . . .
27.4(29) . . .
29.5(28) . . .
27.8(28) . . .
37.0(34) . . .
33.4(32) . . .
28.4(29) . . .
25.0(27) . . .
29.9(28) . . .
33.5(32) . . .
25.4(30) . . .
21.7(26) . . .
24.2(28) . . .
27.9(27) . . .
33.6(32) . . .
23.1(27) . . .
20.6(24) . . .
28.1(28) . . .
35.0(31) . . .
35.8(33) . . .
29.6(31) . . .
27.2(29) . . .
30.1(29) . . .
31.0(29) . . .
30.8(29) . . .
34.3(31) . . .
29.5(29) . . .
30.7(29) . . .
24.8(26) . . .
27.2(29) . . .
26.5(27) . . .
25.5(26) . . .
32.7(29) . . .
32.3(30) . . .
22.2(26) . . .
25.8(29) . . .
23.7(26) . . .
21.6(24) . . .
34.5(31) . . .
26.0(27) . . .
24.6(29) . . .
25.1(26) . . .
24.6(26) . . .
26.8(27) . . .
30.1(32) . . .
23.9(27) . . .
28.4(29) . . .
28.3(28) . . .
27.3(28) . . .
30.8(30) . . .
36.2(33) . . .
39.0(33) . . .
22.4(24) . . .
27.9(28) . . .
25.2(29) . . .
27.7(30) . . .
34.8(32) . . .
29.0(28) . . .
28.8(28) . . .
29.3(28) . . .
36.9(33) . . .
26.5(27) . . .
23.1(25) . . .
31.9(32) . . .
26.3(27) . . .
34.7(32) . . .
28.8(28) . . .
28.0(28) . . .
32.9(31) . . .
30.0(29) . . .
34.9(32) . . .
31.1(30) . . .
27.0(27) . . .
26.7(28) . . .
29.9(32) . . .
25.1(26) . . .
27.5(27) . . .
34.6(31) . . .
29.3(31) . . .
37.7(35) . . .
30.4(30) . . .
24.8(27) . . .
38.7(32) . . .
40.8(34) . . .
25.1(25) . . .
30.7(30) . . .
31.9(29) . . .
22.6(26) . . .
28.1(31) . . .
27.5(29) . . .
17.5(21) . . .
31.6(29) . . .
23.7(25) . . .
33.5(31) . . .
33.2(30) . . .
31.3(29) . . .
38.0(32) . . .
29.8(30) . . .
26.4(30) . . .
26.9(29) . . .
28.7(31) . . .
32.8(31) . . .
28.8(27) . . .
36.3(32) . . .
30.6(32) . . .
30.4(31) . . .
33.1(30) . . .
28.7(28) . . .
35.0(33) . . .
26.5(27) . . .
27.1(27) . . .
27.0(27) . . .
29.5(28) . . .
32.5(31) . . .
31.3(30) . . .
31.0(28) . . .
42.6(35) . . .
28.2(28) . . .
20.8(26) . . .
19.9(25) . . .
24.9(27) . . .
26.9(27) . . .
31.9(30) . . .
36(4) . . .
31.3(30) . . .
19.9(24) . . .
28.2(28) . . .
28.3(30) . . .
26.8(30) . . .
29.3(32) . . .
30.0(29) . . .
35.4(31) . . .
27.8(30) . . .
30.5(31) . . .
32.5(29) . . .
38.5(33) . . .
28.7(27) . . .
24.2(27) . . .
29.0(30) . . .
30.4(33) . . .
23.5(25) . . .
26.0(28) . . .
25.9(28) . . .
30.8(30) . . .
31.0(30) . . .
33.3(30) . . .
27.1(27) . . .
25.3(28) . . .
31.2(33) . . .
33.7(32) . . .
24.3(25) . . .
25.6(27) . . .
32.3(31) . . .
30.0(28) . . .
32.1(31) . . .
30.0(29) . . .
32.9(29) . . .
29.5(31) . . .
33.2(31) . . .
30.5(28) . . .
33.5(30) . . .
29.7(29) . . .
36.7(33) . . .
32.4(32) . . .
25.7(26) . . .
35.9(31) . . .
27.4(28) . . .
30.5(30) . . .
29.0(28) . . .
22.1(24) . . .
27.5(27) . . .
24.3(26) . . .
26.3(28) . . .
33.6(31) . . .
33.0(31) . . .
35.1(32) . . .
25.4(27) . . .
34.0(33) . . .
27.7(29) . . .
27.8(27) . . .
39.0(32) . . .
19.6(24) . . .
26.1(32) . . .
32.5(32) . . .
27.9(28) . . .
29.7(29) . . .
34.2(32) . . .
26.5(28) . . .
37.0(34) . . .
29.3(29) . . .
31.6(30) . . .
27.0(29) . . .
28.0(30) . . .
31.1(28) . . .
29.0(28) . . .
26.7(27) . . .
31.7(32) . . .
26.0(28) . . .
34.3(31) . . .
24.6(26) . . .
32.8(30) . . .
30.6(30) . . .
29.4(30) . . .
34.8(31) . . .
30.6(29) . . .
29.9(31) . . .
24.4(27) . . .
22.6(25) . . .
21.8(25) . . .
27.8(28) . . .
35.3(32) . . .
34.5(31) . . .
31.7(30) . . .
28.7(28) . . .
31.8(30) . . .
33.0(30) . . .
32.4(32) . . .
32.1(31) . . .
30.2(28) . . .
33.5(31) . . .
26.9(27) . . .
28.2(29) . . .
24.0(26) . . .
25.7(27) . . .
25.1(26) . . .
24.5(26) . . .
32.5(31) . . .
29.3(30) . . .
30.8(29) . . .
32.6(30) . . .
33.8(31) . . .
27.0(29) . . .
22.4(27) . . .
31.7(30) . . .
38.2(32) . . .
33.8(31) . . .
34.6(34) . . .
31.7(30) . . .
27.3(28) . . .
28.3(27) . . .
31.8(30) . . .
27.7(28) . . .
32.8(31) . . .
29.0(28) . . .
22.1(25) . . .
24.1(26) . . .
29.1(32) . . .
34.5(32) . . .
26.6(28) . . .
30.4(29) . . .
30.1(28) . . .
37.2(34) . . .
32.6(31) . . .
25.0(26) . . .
30.1(28) . . .
23.3(26) . . .
32.5(32) . . .
30.6(29) . . .
31.5(29) . . .
26.5(26) . . .
28.6(29) . . .
31.1(30) . . .
30.5(29) . . .
29.1(28) . . .
34.6(31) . . .
27.8(28) . . .
29.4(30) . . .
26.6(27) . . .
22.9(25) . . .
29.8(31) . . .
28.4(30) . . .
29.7(29) . . .
29.9(29) . . .
41.6(33) . . .
29.2(28) . . .
26.4(27) . . .
31.5(32) . . .
29.1(29) . . .
34.4(31) . . .
30.5(33) . . .
32.3(31) . . .
29.9(28) . . .
32.0(30) . . .
28.2(27) . . .
30.5(29) . . .
34.2(35) . . .
27.2(27) . . .
30.0(28) . . .
34.0(30) . . .
30.1(29) . . .
31.2(31) . . .
29.2(28) . . .
28.5(30) . . .
24.5(26) . . .
25.1(26) . . .
29.1(30) . . .
32.8(33) . . .
27.4(27) . . .
30.8(31) . . .
22.1(25) . . .
29.9(31) . . .
30.7(31) . . .
27.0(27) . . .
33.7(32) . . .
29.1(29) . . .
33.7(31) . . .
27.6(27) . . .
27.6(27) . . .
28.4(29) . . .
29.7(29) . . .
31.2(30) . . .
25.9(26) . . .
24.7(26) . . .
32.5(30) . . .
31.4(32) . . .
23.7(25) . . .
33.1(30) . . .
29.5(29) . . .
28.7(29) . . .
31.9(30) . . .
32.8(31) . . .
29.8(29) . . .
31.5(29) . . .
31.0(30) . . .
29.9(30) . . .
28.6(28) . . .
26.7(27) . . .
29.5(28) . . .
28.2(30) . . .
30.9(32) . . .
26.0(27) . . .
35.8(33) . . .
24.4(26) . . .
28.8(29) . . .
31.6(30) . . .
31.8(30) . . .
29.6(29) . . .
35.6(31) . . .
30.5(31) . . .
26.6(29) . . .
21.5(24) . . .
27.6(28) . . .
27.4(27) . . .
27.2(29) . . .
25.5(28) . . .
24.5(27) . . .
25.5(26) . . .
36.4(33) . . .
26.4(27) . . .
26.2(28) . . .
30.0(29) . . .
32.6(30) . . .
35.6(32) . . .
27.6(27) . . .
33.4(32) . . .
30.3(32) . . .
32.6(30) . . .
25.4(27) . . .
29.9(31) . . .
24.1(28) . . .
35.0(32) . . .
29.7(28) . . .
28.4(28) . . .
26.2(26) . . .
32.9(31) . . .
28.7(28) . . .
23.8(27) . . .
29.4(29) . . .
25.0(26) . . .
32.2(31) . . .
29.2(28) . . .
35.1(31) . . .
33.9(33) . . .
27.4(30) . . .
32.6(33) . . .
26.2(28) . . .
28.2(28) . . .
27.5(29) . . .
25.1(25) . . .
28.0(28) . . .
24.0(25) . . .
28.9(28) . . .
24.3(26) . . .
31.7(33) . . .
24.7(26) . . .
27.8(27) . . .
32.9(30) . . .
29.0(27) . . .
30.1(32) . . .
26.4(29) . . .
32.1(32) . . .
32.9(31) . . .
24.9(26) . . .
31.8(31) . . .
25.4(26) . . .
31.8(30) . . .
34.3(31) . . .
30.1(28) . . .
33.2(33) . . .
32.3(30) . . .
28.9(28) . . .
36.4(31) . . .
34.0(31) . . .
38.7(34) . . .
21.5(24) . . .
25.3(26) . . .
24.8(26) . . .
22.5(25) . . .
30.1(32) . . .
27.8(29) . . .
32.5(29) . . .
32.6(31) . . .
32.8(30) . . .
30.7(28) . . .
26.8(29) . . .
22.9(25) . . .
20.5(24) . . .
34.1(32) . . .
30.3(30) . . .
26.1(27) . . .
27.9(28) . . .
33.3(31) . . .
33.7(31) . . .
28.6(28) . . .
27.4(27) . . .
24.4(26) . . .
27.3(28) . . .
30.2(30) . . .
30.0(32) . . .
32.2(29) . . .
27.7(28) . . .
28.9(29) . . .
18.5(25) . . .
26.8(28) . . .
35.6(31) . . .
32.7(30) . . .
30.8(30) . . .
25.5(27) . . .
32.1(30) . . .
27.0(27) . . .
31.6(31) . . .
30.1(28) . . .
38.8(35) . . .
24.1(26) . . .
24.7(27) . . .
26.3(26) . . .
35.2(32) . . .
38.0(33) . . .
37.9(33) . . .
22.7(25) . . .
21.3(25) . . .
21.7(23) . . .
28.5(31) . . .
29.7(29) . . .
36.7(32) . . .
22.9(25) . . .
26.2(31) . . .
26.7(30) . . .
34.1(33) . . .
24.2(25) . . .
26.9(27) . . .
32.5(31) . . .
30.6(30) . . .
28.7(28) . . .
28.6(28) . . .
22.8(25) . . .
28.3(30) . . .
18.7(22) . . .
28.6(28) . . .
22.3(26) . . .
32.4(30) . . .
31.6(31) . . .
28.2(28) . . .
34.6(31) . . .
28.4(27) . . .
37.8(34) . . .
29.5(29) . . .
23.2(25) . . .
23.6(26) . . .
33.9(31) . . .
30.1(30) . . .
29.5(31) . . .
26.7(27) . . .
30.4(29) . . .
24.5(27) . . .
25.8(28) . . .
22.6(28) . . .
24.9(27) . . .
28.4(28) . . .
27.5(27) . . .
23.4(25) . . .
30.3(31) . . .
30.0(30) . . .
26.2(26) . . .
33.3(31) . . .
29.3(28) . . .
29.7(31) . . .
32.5(32) . . .
33.7(31) . . .
24.2(26) . . .
26.1(27) . . .
32.3(32) . . .
33.0(32) . . .
25.4(27) . . .
25.0(27) . . .
25.2(28) . . .
31.6(31) . . .
30.9(30) . . .
31.5(29) . . .
33.2(30) . . .
33.1(30) . . .
24.5(24) . . .
32.7(30) . . .
32.2(30) . . .
31.1(29) . . .
27.7(29) . . .
22.9(26) . . .
41(4) . . .
30.7(29) . . .
28.2(27) . . .
29.6(29) . . .
31.6(30) . . .
33.7(31) . . .
28.4(28) . . .
29.7(30) . . .
27.6(30) . . .
29.8(31) . . .
33.8(30) . . .
38.5(32) . . .
31.4(32) . . .
27.6(28) . . .
26.2(26) . . .
27.6(27) . . .
31.2(30) . . .
40(4) . . .
28.4(28) . . .
27.0(29) . . .
20.6(24) . . .
27.3(27) . . .
26.7(27) . . .
32.8(32) . . .
21.7(24) . . .
32.5(32) . . .
28.5(27) . . .
28.3(29) . . .
22.5(26) . . .
29.3(31) . . .
30.6(29) . . .
33.0(30) . . .
31.4(31) . . .
25.0(31) . . .
25.2(28) . . .
33.6(30) . . .
34.5(30) . . .
35.4(32) . . .
33.4(31) . . .
26.4(28) . . .
22.3(25) . . .
26.0(26) . . .
33.4(32) . . .
25.4(27) . . .
23.0(25) . . .
25.1(26) . . .
31.5(29) . . .
33.3(33) . . .
24.9(26) . . .
22.9(25) . . .
25.5(26) . . .
33.6(31) . . .
36.5(33) . . .
30.5(30) . . .
24.8(28) . . .
27.5(27) . . .
23.4(25) . . .
36.2(34) . . .
34.1(31) . . .
28.2(29) . . .
30.5(29) . . .
30.9(31) . . .
20.5(24) . . .
28.8(30) . . .
30.8(30) . . .
24.8(27) . . .
23.0(25) . . .
30.4(31) . . .
29.6(32) . . .
25.0(27) . . .
27.5(27) . . .
29.0(30) . . .
27.1(30) . . .
29.5(29) . . .
27.3(27) . . .
25.4(28) . . .
33.6(31) . . .
24.7(26) . . .
25.6(27) . . .
26.1(26) . . .
30.9(29) . . .
29.1(28) . . .
27.0(27) . . .
33.8(32) . . .
35.0(30) . . .
22.9(27) . . .
25.2(26) . . .
22.3(24) . . .
31.1(30) . . .
34.0(30) . . .
27.3(27) . . .
28.3(29) . . .
24.5(27) . . .
31.8(29) . . .
26.9(28) . . .
31.2(29) . . .
31.6(30) . . .
26.6(26) . . .
31.1(30) . . .
27.9(28) . . .
27.5(28) . . .
25.7(28) . . .
24.9(28) . . .
27.2(30) . . .
23.4(26) . . .
20.2(24) . . .
28.3(31) . . .
27.6(30) . . .
30.5(29) . . .
28.2(28) . . .
34.1(32) . . .
29.1(30) . . .
25.3(26) . . .
24.2(26) . . .
16.1(21) . . .
19.4(24) . . .
27.2(29) . . .
28.3(30) . . .
26.2(28) . . .
26.2(28) . . .
28.3(29) . . .
28.2(30) . . .
28.9(30) . . .
22.8(25) . . .
28.1(28) . . .
33.9(31) . . .
29.5(31) . . .
23.6(24) . . .
29.0(28) . . .
22.4(26) . . .
23.6(27) . . .
29.2(32) . . .
28.2(30) . . .
27.0(27) . . .
37.6(33) . . .
27.6(30) . . .
31.4(32) . . .
26.9(28) . . .
27.3(27) . . .
26.4(27) . . .
36.0(33) . . .
26.8(30) . . .
28.6(29) . . .
28.7(29) . . .
24.7(27) . . .
25.4(27) . . .
31.1(29) . . .
27.6(28) . . .
31.5(30) . . .
24.5(26) . . .
29.9(30) . . .
33.2(33) . . .
32.5(30) . . .
38.2(33) . . .
23.7(25) . . .
30.7(28) . . .
30.0(28) . . .
34.2(30) . . .
24.9(27) . . .
23.5(27) . . .
32.6(31) . . .
28.6(27) . . .
29.5(28) . . .
29.5(28) . . .
32.6(30) . . .
27.2(29) . . .
20.9(24) . . .
27.8(28) . . .
32.6(31) . . .
25.8(28) . . .
20.4(25) . . .
24.0(27) . . .
24.7(26) . . .
29.4(28) . . .
28.3(29) . . .
35.5(33) . . .
26.7(28) . . .
27.5(27) . . .
34.3(30) . . .
26.6(27) . . .
25.3(29) . . .
29.2(30) . . .
20.5(25) . . .
18.2(22) . . .
37(4) . . .
29.6(28) . . .
28.1(28) . . .
27.6(27) . . .
32.5(30) . . .
34.2(33) . . .
26.4(27) . . .
26.1(27) . . .
27.7(28) . . .
27.0(27) . . .
31.1(30) . . .
25.6(27) . . .
33.4(31) . . .
24.1(26) . . .
24.9(26) . . .
26.6(27) . . .
31.4(29) . . .
28.5(28) . . .
23.5(26) . . .
33.2(31) . . .
31.1(30) . . .
27.4(27) . . .
30.5(29) . . .
32.6(29) . . .
23.9(26) . . .
32.0(32) . . .
30.2(29) . . .
37.3(33) . . .
28.2(28) . . .
25.3(27) . . .
26.1(29) . . .
22.7(27) . . .
29.1(30) . . .
36.6(32) . . .
28.8(28) . . .
31.5(32) . . .
30.3(30) . . .
28.7(29) . . .
31.3(29) . . .
31.7(30) . . .
31.3(31) . . .
34.4(31) . . .
30.8(29) . . .
32.3(30) . . .
30.4(29) . . .
26.2(28) . . .
29.3(28) . . .
31.7(29) . . .
28.3(27) . . .
31.3(30) . . .
28.3(28) . . .
26.3(27) . . .
33.4(30) . . .
31.4(29) . . .
26.8(27) . . .
24.8(28) . . .
19.8(23) . . .
23.4(25) . . .
30.8(29) . . .
26.6(27) . . .
35.5(34) . . .
26.5(28) . . .
24.2(27) . . .
31.0(30) . . .
23.6(26) . . .
30.0(30) . . .
26.6(27) . . .
27.7(27) . . .
31.1(30) . . .
31.8(32) . . .
22.8(26) . . .
27.1(28) . . .
31.1(29) . . .
27.7(28) . . .
25.8(30) . . .
28.5(29) . . .
35.6(32) . . .
32.6(30) . . .
31.9(30) . . .
32.4(32) . . .
32.2(31) . . .
34.3(30) . . .
22.8(25) . . .
24.9(26) . . .
30.0(30) . . .
27.4(28) . . .
22.5(26) . . .
31.5(30) . . .
30.2(31) . . .
23.5(27) . . .
27.5(29) . . .
33.9(30) . . .
31.6(31) . . .
34.8(32) . . .
27.4(28) . . .
33.6(31) . . .
28.3(28) . . .
25.2(28) . . .
22.2(29) . . .
23.2(28) . . .
32.2(32) . . .
29.7(29) . . .
30.9(29) . . .
23.4(27) . . .
26.0(29) . . .
29.2(31) . . .
22.8(25) . . .
28.7(29) . . .
26.8(28) . . .
27.9(30) . . .
29.6(29) . . .
32.3(30) . . .
26.4(28) . . .
25.6(26) . . .
26.9(27) . . .
31.3(30) . . .
31.3(29) . . .
28.8(29) . . .
26.0(26) . . .
30.8(30) . . .
37.4(34) . . .
32.9(30) . . .
26.1(28) . . .
21.5(26) . . .
25.1(28) . . .
28.3(29) . . .
23.3(25) . . .
26.4(27) . . .
28.0(28) . . .
31.9(30) . . .
29.8(28) . . .
34.3(30) . . .
32.3(35) . . .
27.2(30) . . .
27.7(29) . . .
27.8(27) . . .
25.1(26) . . .
34.5(32) . . .
31.4(31) . . .
28.7(28) . . .
29.7(28) . . .
30.0(28) . . .
27.7(29) . . .
27.8(30) . . .
29.2(29) . . .
31.5(30) . . .
27.5(27) . . .
26.7(28) . . .
28.9(30) . . .
35.0(32) . . .
32.0(30) . . .
23.8(25) . . .
32.5(33) . . .
27.8(28) . . .
32.4(30) . . .
24.7(26) . . .
28.8(29) . . .
26.6(27) . . .
27.1(28) . . .
30.6(30) . . .
24.4(26) . . .
20.7(24) . . .
28.6(29) . . .
22.3(25) . . .
23.6(28) . . .
30.0(28) . . .
28.1(29) . . .
35.3(33) . . .
31.2(29) . . .
34.8(31) . . .
31.7(29) . . .
28.9(28) . . .
32.7(30) . . .
35.5(32) . . .
25.0(26) . . .
35.3(31) . . .
24.9(28) . . .
27.3(28) . . .
25.5(27) . . .
31.9(31) . . .
25.6(26) . . .
28.5(30) . . .
21.8(25) . . .
28.4(29) . . .
39.5(33) . . .
35.1(31) . . .
27.8(29) . . .
35.0(35) . . .
29.6(30) . . .
24.8(25) . . .
30.8(30) . . .
27.3(27) . . .
25.0(27) . . .
34.5(34) . . .
25.9(27) . . .
21.7(24) . . .
28.4(29) . . .
27.7(31) . . .
20.5(24) . . .
28.0(29) . . .
27.5(29) . . .
26.3(27) . . .
30.7(32) . . .
25.7(28) . . .
29.9(29) . . .
26.1(27) . . .
29.6(29) . . .
27.8(27) . . .
30.5(29) . . .
30.8(29) . . .
29.7(29) . . .
29.1(29) . . .
33.1(30) . . .
38.1(32) . . .
27.7(28) . . .
27.0(29) . . .
28.1(29) . . .
26.3(28) . . .
23.5(27) . . .
29.1(28) . . .
29.2(28) . . .
28.7(29) . . .
31.8(30) . . .
29.6(29) . . .
35.6(31) . . .
30.0(29) . . .
24.2(26) . . .
31.9(30) . . .
25.1(27) . . .
26.8(27) . . .
24.6(25) . . .
27.2(28) . . .
33.4(31) . . .
32.7(30) . . .
35.8(31) . . .
34.6(32) . . .
27.5(30) . . .
30.1(30) . . .
27.0(27) . . .
27.9(28) . . .
27.5(27) . . .
31.8(32) . . .
26.3(27) . . .
35.6(31) . . .
28.3(28) . . .
24.3(26) . . .
27.0(29) . . .
30.4(31) . . .
23.7(26) . . .
24.3(25) . . .
27.0(28) . . .
31.5(31) . . .
40(4) . . .
30.3(29) . . .
33.0(30) . . .
24.3(27) . . .
27.7(28) . . .
21.4(25) . . .
24.8(26) . . .
30.8(29) . . .
28.7(28) . . .
23.2(25) . . .
23.7(25) . . .
31.6(30) . . .
25.4(27) . . .
32.2(31) . . .
30.0(30) . . .
32.2(31) . . .
23.7(26) . . .
27.3(28) . . .
27.4(30) . . .
29.7(31) . . .
28.5(28) . . .
25.8(27) . . .
23.0(26) . . .
25.8(28) . . .
32.0(30) . . .
23.9(27) . . .
26.8(27) . . .
32.1(31) . . .
24.9(28) . . .
32.4(32) . . .
25.7(27) . . .
31.6(30) . . .
31.2(31) . . .
27.9(30) . . .
22.3(25) . . .
25.4(26) . . .
26.9(27) . . .
33.1(31) . . .
30.1(30) . . .
28.3(29) . . .
28.6(28) . . .
32.9(30) . . .
21.3(25) . . .
30.5(32) . . .
38.1(33) . . .
34.4(31) . . .
25.5(27) . . .
34.7(33) . . .
28.1(29) . . .
25.1(27) . . .
30.5(28) . . .
24.4(25) . . .
29.5(30) . . .
28.1(28) . . .
29.8(32) . . .
30.5(28) . . .
28.4(30) . . .
28.9(30) . . .
27.0(31) . . .
26.9(27) . . .
33.2(30) . . .
34.7(31) . . .
26.8(27) . . .
29.1(27) . . .
34.6(32) . . .
28.1(27) . . .
27.2(29) . . .
32.1(32) . . .
33.1(31) . . .
30.1(29) . . .
30.6(28) . . .
24.5(26) . . .
31.3(30) . . .
33.0(30) . . .
31.1(29) . . .
30.8(29) . . .
30.4(29) . . .
23.4(26) . . .
29.2(30) . . .
24.0(26) . . .
20.4(24) . . .
26.5(28) . . .
27.2(32) . . .
27.3(28) . . .
32.0(30) . . .
31.0(30) . . .
24.7(26) . . .
33.5(33) . . .
31.7(30) . . .
28.1(27) . . .
24.0(25) . . .
26.5(29) . . .
21.7(25) . . .
29.3(31) . . .
32.8(30) . . .
27.4(28) . . .
35.3(33) . . .
27.5(29) . . .
26.3(28) . . .
26.2(27) . . .
28.9(29) . . .
30.0(30) . . .
37(4) . . .
27.2(28) . . .
28.2(28) . . .
27.6(27) . . .
26.4(27) . . .
26.8(28) . . .
25.6(28) . . .
23.6(25) . . .
27.5(27) . . .
28.2(29) . . .
34.3(33) . . .
24.8(26) . . .
24.7(27) . . .
30.9(30) . . .
27.0(27) . . .
24.7(27) . . .
19.0(24) . . .
23.4(26) . . .
30.0(29) . . .
27.3(28) . . .
21.2(25) . . .
24.6(28) . . .
27.1(27) . . .
33.6(31) . . .
19.6(23) . . .
29.0(29) . . .
26.9(27) . . .
22.5(25) . . .
29.0(30) . . .
28.6(31) . . .
29.2(29) . . .
27.7(29) . . .
33.3(30) . . .
25.1(26) . . .
33.7(33) . . .
31.5(30) . . .
28.3(28) . . .
38.9(33) . . .
31.9(28) . . .
38(4) . . .
33.0(32) . . .
29.2(29) . . .
25.7(26) . . .
28.6(28) . . .
30.0(30) . . .
28.7(31) . . .
34.7(31) . . .
27.1(28) . . .
22.5(25) . . .
27.1(29) . . .
20.0(25) . . .
21.0(24) . . .
20.6(24) . . .
32.1(31) . . .
32.8(32) . . .
23.0(25) . . .
21.9(24) . . .
25.2(27) . . .
32.4(33) . . .
26.7(27) . . .
30.0(28) . . .
31.0(29) . . .
30.0(29) . . .
24.6(26) . . .
31.8(32) . . .
30.4(30) . . .
35.8(31) . . .
29.2(32) . . .
24.6(28) . . .
28.7(28) . . .
33.3(31) . . .
30.0(29) . . .
24.0(25) . . .
30.4(32) . . .
27.5(27) . . .
29.4(28) . . .
29.6(28) . . .
23.8(26) . . .
23.3(27) . . .
32.2(32) . . .
32.5(31) . . .
31.1(28) . . .
25.0(26) . . .
27.3(29) . . .
22.9(26) . . .
20.9(24) . . .
26.1(27) . . .
24.1(26) . . .
29.3(32) . . .
23.4(27) . . .
31.8(29) . . .
32.5(30) . . .
26.9(27) . . .
27.9(28) . . .
26.6(27) . . .
29.6(29) . . .
26.9(28) . . .
32.3(32) . . .
31.5(30) . . .
39.7(34) . . .
26.0(28) . . .
28.7(28) . . .
28.5(29) . . .
35.5(33) . . .
35.3(33) . . .
23.0(26) . . .
30.0(28) . . .
29.5(30) . . .
28.7(29) . . .
23.9(26) . . .
20.1(25) . . .
30.3(30) . . .
21.9(25) . . .
26.5(32) . . .
24.4(25) . . .
34.2(31) . . .
32.4(33) . . .
35.1(32) . . .
35.8(32) . . .
23.9(25) . . .
28.5(28) . . .
30.4(30) . . .
31.7(30) . . .
34.9(31) . . .
32.9(31) . . .
21.4(24) . . .
23.5(27) . . .
22.0(26) . . .
23.2(26) . . .
33.3(32) . . .
31.2(29) . . .
34.9(32) . . .
28.1(29) . . .
24.5(26) . . .
27.7(29) . . .
26.6(27) . . .
25.0(27) . . .
32.6(30) . . .
30.6(29) . . .
25.6(26) . . .
27.7(27) . . .
24.6(27) . . .
31.9(33) . . .
30.1(29) . . .
29.1(29) . . .
19.3(22) . . .
31.7(32) . . .
30.2(31) . . .
24.5(28) . . .
29.4(29) . . .
33.5(31) . . .
23.4(25) . . .
23.4(26) . . .
26.2(28) . . .
26.5(27) . . .
22.5(25) . . .
36.8(35) . . .
29.6(31) . . .
27.7(28) . . .
40.0(34) . . .
28.9(30) . . .
31.0(30) . . .
24.9(26) . . .
22.5(25) . . .
36.1(32) . . .
35.1(32) . . .
23.9(26) . . .
18.9(23) . . .
27.1(27) . . .
33.0(30) . . .
21.7(24) . . .
29.6(29) . . .
30.5(31) . . .
27.0(28) . . .
24.0(26) . . .
28.3(28) . . .
26.6(26) . . .
36.0(33) . . .
31.9(30) . . .
24.1(26) . . .
31.3(33) . . .
29.0(31) . . .
23.3(25) . . .
27.9(28) . . .
29.0(28) . . .
32.5(34) . . .
28.7(31) . . .
30.3(30) . . .
28.9(29) . . .
32.1(30) . . .
26.6(28) . . .
29.2(30) . . .
30.1(29) . . .
25.7(27) . . .
24.5(26) . . .
27.8(28) . . .
31.6(32) . . .
26.3(27) . . .
32.1(30) . . .
30.2(29) . . .
23.7(25) . . .
36(4) . . .
26.6(27) . . .
35.8(32) . . .
31.0(28) . . .
28.3(29) . . .
22.8(25) . . .
31.2(31) . . .
26.1(27) . . .
25.4(27) . . .
25.4(27) . . .
25.1(26) . . .
23.0(26) . . .
26.5(27) . . .
22.3(26) . . .
35.7(34) . . .
26.2(27) . . .
28.4(28) . . .
33.6(31) . . .
30.8(30) . . .
27.5(27) . . .
29.3(30) . . .
28.5(28) . . .
26.7(27) . . .
31.6(30) . . .
18.8(22) . . .
25.6(27) . . .
37.0(31) . . .
32.9(30) . . .
22.3(25) . . .
26.1(28) . . .
32.0(31) . . .
23.8(26) . . .
24.9(26) . . .
24.0(26) . . .
26.5(29) . . .
27.6(27) . . .
29.4(28) . . .
23.2(25) . . .
27.5(31) . . .
30.3(31) . . .
22.2(25) . . .
38.7(32) . . .
35.3(31) . . .
39.3(34) . . .
28.9(28) . . .
31.5(29) . . .
25.9(27) . . .
24.5(26) . . .
31.0(30) . . .
28.8(29) . . .
28.1(27) . . .
23.8(25) . . .
24.5(25) . . .
27.6(29) . . .
33.8(32) . . .
35.0(32) . . .
29.5(28) . . .
24.1(26) . . .
24.5(26) . . .
26.1(28) . . .
35.7(34) . . .
37.0(32) . . .
27.6(28) . . .
27.3(28) . . .
29.9(30) . . .
29.4(28) . . .
26.1(26) . . .
33.8(32) . . .
28.0(31) . . .
26.7(28) . . .
34.7(31) . . .
29.4(28) . . .
30.3(29) . . .
23.9(26) . . .
32.7(32) . . .
21.4(24) . . .
28.7(28) . . .
34.4(31) . . .
30.7(31) . . .
34.2(32) . . .
24.5(25) . . .
28.5(28) . . .
26.9(27) . . .
21.4(24) . . .
22.8(25) . . .
34.5(30) . . .
30.9(31) . . .
30.8(31) . . .
35.3(34) . . .
30.9(31) . . .
27.3(27) . . .
28.1(27) . . .
25.9(27) . . .
27.7(30) . . .
24.4(27) . . .
26.9(27) . . .
34.6(31) . . .
32.6(30) . . .
28.1(29) . . .
24.6(27) . . .
25.7(27) . . .
32.4(31) . . .
23.9(25) . . .
26.6(30) . . .
30.6(31) . . .
28.8(28) . . .
23.0(26) . . .
26.0(28) . . .
23.2(27) . . .
25.4(27) . . .
31.2(29) . . .
29.7(31) . . .
25.7(29) . . .
24.7(28) . . .
27.0(28) . . .
30.1(28) . . .
33.0(31) . . .
25.1(28) . . .
24.8(28) . . .
27.7(29) . . .
28.3(27) . . .
26.2(27) . . .
24.8(27) . . .
33.9(32) . . .
31.6(30) . . .
25.1(26) . . .
22.5(26) . . .
21.2(24) . . .
29.3(30) . . .
35.7(33) . . .
32.0(29) . . .
30.2(29) . . .
27.4(29) . . .
32.6(30) . . .
29.8(29) . . .
31.4(29) . . .
28.7(28) . . .
32.2(32) . . .
32.2(29) . . .
31.5(29) . . .
27.0(28) . . .
33.6(34) . . .
30.6(33) . . .
26.2(27) . . .
31.9(29) . . .
36.5(32) . . .
29.4(27) . . .
35.2(33) . . .
22.1(26) . . .
26.8(27) . . .
30.6(28) . . .
24.7(26) . . .
33.6(31) . . .
27.7(28) . . .
31.2(29) . . .
27.7(28) . . .
36.7(31) . . .
31.9(29) . . .
28.9(28) . . .
22.1(25) . . .
22.1(25) . . .
26.8(29) . . .
26.8(29) . . .
31.4(29) . . .
32.2(31) . . .
31.1(29) . . .
24.8(26) . . .
27.6(28) . . .
30.4(28) . . .
34.7(31) . . .
32.3(32) . . .
25.3(28) . . .
34.4(32) . . .
28.4(29) . . .
30.7(29) . . .
31.3(30) . . .
31.9(30) . . .
29.4(29) . . .
29.2(30) . . .
22.5(25) . . .
20.7(23) . . .
24.8(29) . . .
25.4(28) . . .
24.4(26) . . .
38.2(32) . . .
29.8(30) . . .
17.7(24) . . .
31.9(31) . . .
31.7(30) . . .
24.3(26) . . .
24.5(27) . . .
31.0(29) . . .
26.6(26) . . .
29.5(28) . . .
27.2(27) . . .
27.9(27) . . .
27.3(28) . . .
27.2(28) . . .
27.6(27) . . .
29.1(28) . . .
31.8(31) . . .
23.5(26) . . .
21.4(26) . . .
27.5(27) . . .
25.7(29) . . .
23.7(26) . . .
38.5(35) . . .
30.2(29) . . .
30.8(29) . . .
24.8(26) . . .
27.6(30) . . .
22.3(26) . . .
34.3(31) . . .
23.8(26) . . .
32.5(30) . . .
36.3(33) . . .
27.4(29) . . .
23.1(25) . . .
16.2(20) . . .
30.1(35) . . .
22.1(25) . . .
26.2(28) . . .
23.5(25) . . .
27.2(27) . . .
30.5(29) . . .
29.7(32) . . .
33.2(33) . . .
28.8(28) . . .
29.0(28) . . .
38.5(33) . . .
27.7(27) . . .
30.3(28) . . .
37.8(32) . . .
29.2(29) . . .
34.1(31) . . .
31.4(31) . . .
28.4(27) . . .
31.7(29) . . .
31.7(29) . . .
23.2(25) . . .
31.7(30) . . .
31.2(30) . . .
25.8(27) . . .
28.4(28) . . .
30.7(29) . . .
22.8(25) . . .
28.5(30) . . .
23.3(26) . . .
31.4(29) . . .
35.1(35) . . .
21.4(25) . . .
26.8(28) . . .
27.7(28) . . .
31.6(30) . . .
25.5(27) . . .
24.0(27) . . .
20.3(24) . . .
21.3(24) . . .
29.6(29) . . .
31.0(31) . . .
30.8(31) . . .
25.2(27) . . .
28.5(28) . . .
28.6(31) . . .
29.7(31) . . .
32.8(32) . . .
32.6(29) . . .
21.2(24) . . .
30.0(29) . . .
33.1(30) . . .
29.0(28) . . .
28.5(29) . . .
35.1(31) . . .
30.0(31) . . .
26.0(28) . . .
31.9(29) . . .
33.6(30) . . .
27.9(28) . . .
39.8(34) . . .
25.6(27) . . .
25.5(26) . . .
31.5(31) . . .
21.5(24) . . .
29.3(29) . . .
29.0(30) . . .
23.4(29) . . .
26.3(27) . . .
30.5(29) . . .
25.8(26) . . .
28.9(30) . . .
26.6(27) . . .
27.7(29) . . .
23.6(26) . . .
29.7(31) . . .
26.1(30) . . .
21.0(25) . . .
22.0(25) . . .
26.7(28) . . .
34.5(32) . . .
26.5(27) . . .
35.7(33) . . .
32.6(31) . . .
31.9(29) . . .
27.6(27) . . .
28.2(28) . . .
27.5(28) . . .
26.4(27) . . .
35.8(32) . . .
41(4) . . .
30.4(30) . . .
30.8(30) . . .
25.8(25) . . .
32.7(32) . . .
27.5(28) . . .
27.3(27) . . .
38.4(33) . . .
30.3(29) . . .
28.6(29) . . .
25.1(29) . . .
25.5(29) . . .
36.7(34) . . .
33.2(30) . . .
27.8(29) . . .
27.9(32) . . .
33.2(33) . . .
31.9(31) . . .
26.6(27) . . .
29.4(29) . . .
34.5(33) . . .
22.6(24) . . .
21.9(24) . . .
30.4(29) . . .
31.2(29) . . .
31.4(30) . . .
25.2(26) . . .
29.8(29) . . .
26.3(26) . . .
33.2(32) . . .
26.3(28) . . .
27.2(28) . . .
29.7(28) . . .
28.5(29) . . .
25.4(28) . . .
24.6(27) . . .
24.9(26) . . .
28.4(29) . . .
23.9(25) . . .
26.5(30) . . .
25.3(28) . . .
31.2(30) . . .
25.8(26) . . .
28.0(27) . . .
28.1(29) . . .
30.9(32) . . .
31.3(31) . . .
29.9(29) . . .
29.5(30) . . .
24.0(28) . . .
28.1(30) . . .
28.1(27) . . .
29.5(29) . . .
34.1(30) . . .
29.1(28) . . .
30.1(31) . . .
30.1(29) . . .
42.9(34) . . .
31.7(30) . . .
32.8(33) . . .
30.9(33) . . .
26.8(27) . . .
27.1(27) . . .
28.9(30) . . .
29.6(29) . . .
21.7(26) . . .
32.1(30) . . .
35.5(31) . . .
27.9(30) . . .
28.9(32) . . .
27.2(29) . . .
29.8(30) . . .
24.3(26) . . .
27.7(28) . . .
27.0(30) . . .
29.3(29) . . .
28.1(28) . . .
33.7(30) . . .
18.3(23) . . .
27.1(32) . . .
25.0(28) . . .
22.4(25) . . .
29.3(29) . . .
29.1(29) . . .
33.2(34) . . .
22.8(25) . . .
26.7(27) . . .
34.8(31) . . .
26.2(28) . . .
25.0(26) . . .
32.1(31) . . .
31.4(29) . . .
32.1(30) . . .
28.1(27) . . .
25.3(27) . . .
33.2(30) . . .
31.2(29) . . .
33.2(30) . . .
35.0(34) . . .
44(4) . . .
22.9(26) . . .
29.7(28) . . .
26.1(27) . . .
25.3(27) . . .
30.0(29) . . .
29.7(29) . . .
33.7(30) . . .
30.7(29) . . .
24.8(26) . . .
20.5(23) . . .
31.5(30) . . .
28.8(28) . . .
26.3(29) . . .
16.5(23) . . .
28.3(29) . . .
26.9(27) . . .
30.1(29) . . .
28.3(27) . . .
31.8(30) . . .
27.7(28) . . .
34.6(31) . . .
23.5(25) . . .
23.0(27) . . .
21.3(25) . . .
20.7(24) . . .
23.8(26) . . .
31.5(29) . . .
29.5(30) . . .
26.5(32) . . .
25.2(30) . . .
28.1(28) . . .
27.5(27) . . .
19.5(24) . . .
21.4(25) . . .
29.5(29) . . .
35.4(31) . . .
20.4(24) . . .
28.5(31) . . .
25.1(28) . . .
36.0(33) . . .
33.6(30) . . .
28.7(28) . . .
25.0(26) . . .
30.5(30) . . .
33.7(30) . . .
28.5(28) . . .
33.8(31) . . .
28.0(28) . . .
34.6(31) . . .
29.7(30) . . .
25.4(26) . . .
24.3(27) . . .
28.4(29) . . .
29.4(31) . . .
28.5(29) . . .
29.8(28) . . .
31.4(30) . . .
30.4(28) . . .
31.9(30) . . .
28.1(27) . . .
21.5(24) . . .
28.8(28) . . .
30.2(28) . . .
35.3(32) . . .
26.6(27) . . .
26.5(27) . . .
22.8(25) . . .
29.1(29) . . .
31.2(30) . . .
27.3(29) . . .
25.1(27) . . .
29.3(31) . . .
29.1(29) . . .
30.0(29) . . .
23.5(26) . . .
29.1(28) . . .
37.4(33) . . .
36.2(33) . . .
22.2(24) . . .
28.4(29) . . .
33.2(30) . . .
30.5(31) . . .
32.5(33) . . .
32.4(32) . . .
24.1(26) . . .
21.8(24) . . .
26.8(27) . . .
30.7(31) . . .
33.5(31) . . .
29.6(28) . . .
27.1(27) . . .
28.6(29) . . .
33.3(31) . . .
30.4(32) . . .
31.0(29) . . .
34.0(30) . . .
32.6(31) . . .
30.0(29) . . .
30.0(30) . . .
30.9(29) . . .
36.1(32) . . .
23.5(25) . . .
26.2(27) . . .
31.2(30) . . .
28.1(28) . . .
28.3(28) . . .
26.4(28) . . .
23.9(27) . . .
28.2(28) . . .
32.1(30) . . .
26.3(29) . . .
40(4) . . .
28.3(27) . . .
29.3(28) . . .
35.7(31) . . .
31.3(30) . . .
20.2(23) . . .
27.0(28) . . .
36.3(32) . . .
20.9(24) . . .
24.5(28) . . .
24.7(27) . . .
28.6(29) . . .
27.8(27) . . .
29.1(28) . . .
24.5(27) . . .
20.5(24) . . .
26.8(27) . . .
31.0(29) . . .
30.5(29) . . .
30.9(29) . . .
27.0(28) . . .
28.3(30) . . .
26.6(27) . . .
26.2(27) . . .
36.7(34) . . .
31.5(32) . . .
34.9(34) . . .
31.3(29) . . .
28.1(28) . . .
23.5(26) . . .
29.8(31) . . .
28.9(30) . . .
31.1(30) . . .
27.3(28) . . .
29.4(29) . . .
28.7(27) . . .
32.6(31) . . .
30.8(29) . . .
33.6(32) . . .
27.0(28) . . .
33.7(31) . . .
28.2(28) . . .
24.4(26) . . .
26.2(27) . . .
33.5(32) . . .
26.3(28) . . .
26.2(27) . . .
33.6(30) . . .
31.3(31) . . .
28.9(31) . . .
30.3(32) . . .
19.9(23) . . .
26.5(28) . . .
30.7(31) . . .
32.4(31) . . .
29.9(31) . . .
29.2(29) . . .
23.3(25) . . .
26.5(28) . . .
28.5(28) . . .
33.5(31) . . .
31.0(30) . . .
24.7(27) . . .
26.5(27) . . .
31.4(31) . . .
26.9(28) . . .
33.7(32) . . .
23.7(25) . . .
23.5(28) . . .
26.9(31) . . .
25.6(28) . . .
30.7(29) . . .
33.5(30) . . .
28.6(31) . . .
24.5(28) . . .
36.4(34) . . .
26.4(27) . . .
34.6(31) . . .
25.1(26) . . .
29.3(30) . . .
32.9(32) . . .
32.5(30) . . .
37.6(32) . . .
35.7(33) . . .
22.6(26) . . .
23.8(26) . . .
28.3(28) . . .
30.6(28) . . .
34.2(32) . . .
24.2(26) . . .
36(4) . . .
36.6(32) . . .
30.7(29) . . .
26.5(28) . . .
33.7(34) . . .
29.1(30) . . .
31.1(29) . . .
28.7(29) . . .
28.8(27) . . .
29.5(28) . . .
34.5(31) . . .
27.1(27) . . .
28.4(28) . . .
37.1(35) . . .
32.3(31) . . .
27.9(28) . . .
30.5(29) . . .
29.8(30) . . .
28.9(31) . . .
24.3(27) . . .
29.0(28) . . .
25.6(26) . . .
34.8(33) . . .
28.0(29) . . .
33.5(32) . . .
30.1(29) . . .
32.2(30) . . .
26.8(28) . . .
32.4(31) . . .
25.4(26) . . .
32.4(29) . . .
30.4(29) . . .
32.3(30) . . .
25.1(28) . . .
38.6(35) . . .
29.1(28) . . .
23.3(25) . . .
25.3(26) . . .
27.2(28) . . .
29.7(28) . . .
25.9(26) . . .
28.0(28) . . .
24.7(28) . . .
23.7(26) . . .
28.3(28) . . .
29.5(28) . . .
28.2(28) . . .
36.8(34) . . .
31.1(31) . . .
30.7(29) . . .
27.3(27) . . .
26.6(27) . . .
30.0(31) . . .
25.5(27) . . .
30.7(32) . . .
30.5(29) . . .
28.9(30) . . .
29.9(29) . . .
30.0(29) . . .
28.8(29) . . .
31.8(29) . . .
23.5(25) . . .
34.3(33) . . .
25.9(26) . . .
30.6(29) . . .
26.5(27) . . .
24.9(28) . . .
25.9(29) . . .
30.1(30) . . .
28.0(29) . . .
36.5(31) . . .
26.0(28) . . .
25.2(29) . . .
30.1(29) . . .
30.3(29) . . .
26.0(27) . . .
27.4(28) . . .
26.8(28) . . .
25.5(29) . . .
27.6(29) . . .
32.5(30) . . .
27.4(28) . . .
30.5(31) . . .
31.3(31) . . .
29.7(28) . . .
35.1(31) . . .
33.2(30) . . .
27.9(29) . . .
31.9(29) . . .
32.0(30) . . .
24.1(25) . . .
24.8(27) . . .
20.2(25) . . .
20.0(23) . . .
33.9(31) . . .
34.3(32) . . .
32.8(30) . . .
31.9(31) . . .
25.7(27) . . .
27.6(27) . . .
28.3(29) . . .
24.9(26) . . .
30.9(29) . . .
26.8(27) . . .
28.5(28) . . .
19.5(23) . . .
26.6(27) . . .
24.0(28) . . .
25.7(27) . . .
27.6(27) . . .
23.9(26) . . .
28.9(29) . . .
29.6(30) . . .
33.8(31) . . .
29.0(28) . . .
18.5(22) . . .
27.7(29) . . .
25.9(28) . . .
30.9(30) . . .
34.6(31) . . .
21.0(25) . . .
32.9(33) . . .
33.0(30) . . .
29.3(28) . . .
27.2(27) . . .
37.6(34) . . .
24.9(27) . . .
29.9(30) . . .
29.4(29) . . .
24.6(26) . . .
22.0(24) . . .
23.7(28) . . .
22.6(26) . . .
28.7(28) . . .
29.9(30) . . .
26.8(26) . . .
33.7(31) . . .
34.0(32) . . .
28.0(28) . . .
29.2(28) . . .
35.4(33) . . .
34(4) . . .
26.0(27) . . .
29.4(29) . . .
29.9(29) . . .
37.7(33) . . .
27.0(29) . . .
28.2(29) . . .
27.0(27) . . .
25.3(26) . . .
28.3(29) . . .
30.3(31) . . .
29.8(28) . . .
32.0(30) . . .
25.8(26) . . .
32.6(30) . . .
25.9(27) . . .
27.9(29) . . .
24.2(27) . . .
29.4(29) . . .
25.8(29) . . .
18.5(26) . . .
22.1(28) . . .
32.1(29) . . .
32.8(30) . . .
30.6(30) . . .
35.1(33) . . .
27.5(27) . . .
32.1(30) . . .
26.1(28) . . .
26.3(29) . . .
27.6(29) . . .
21.9(24) . . .
19.6(23) . . .
28.8(30) . . .
32.1(31) . . .
34.5(32) . . .
29.1(28) . . .
25.6(26) . . .
26.7(29) . . .
24.4(28) . . .
25.6(27) . . .
27.9(27) . . .
25.1(26) . . .
23.8(26) . . .
26.7(28) . . .
39.9(35) . . .
33.2(31) . . .
27.8(27) . . .
29.4(30) . . .
32.9(32) . . .
26.6(28) . . .
33.7(31) . . .
27.9(27) . . .
28.0(30) . . .
34.1(32) . . .
33.1(32) . . .
26.3(28) . . .
24.7(26) . . .
33.7(33) . . .
30.5(29) . . .
32.8(30) . . .
29.6(29) . . .
27.3(28) . . .
26.0(27) . . .
25.6(26) . . .
32.6(31) . . .
33.1(30) . . .
24.1(25) . . .
26.4(29) . . .
32.1(30) . . .
34.9(32) . . .
24.8(26) . . .
22.9(26) . . .
26.5(30) . . .
28.4(29) . . .
28.4(28) . . .
26.8(26) . . .
34.2(31) . . .
31.6(30) . . .
27.7(28) . . .
36.3(32) . . .
29.4(28) . . .
30.0(30) . . .
31.5(33) . . .
22.1(26) . . .
28.9(28) . . .
31.4(29) . . .
32.5(31) . . .
29.1(29) . . .
33.3(32) . . .
33.5(30) . . .
23.1(25) . . .
28.5(28) . . .
28.4(31) . . .
34.3(32) . . .
30.5(28) . . .
27.1(27) . . .
29.5(30) . . .
36(4) . . .
28.6(29) . . .
24.5(27) . . .
29.4(30) . . .
31.6(32) . . .
34.5(34) . . .
27.0(27) . . .
34.9(30) . . .
27.6(29) . . .
23.8(27) . . .
27.9(29) . . .
35.1(31) . . .
32.9(30) . . .
37.3(33) . . .
25.0(27) . . .
22.6(24) . . .
29.3(29) . . .
27.9(28) . . .
23.5(25) . . .
30.1(33) . . .
25.1(29) . . .
21.9(25) . . .
37.8(32) . . .
28.2(28) . . .
34.0(33) . . .
29.3(30) . . .
31.0(30) . . .
26.9(27) . . .
32.2(32) . . .
26.4(27) . . .
29.1(30) . . .
28.2(29) . . .
23.0(25) . . .
22.5(26) . . .
22.5(24) . . .
31.6(30) . . .
27.7(28) . . .
27.3(27) . . .
27.6(28) . . .
31.8(33) . . .
24.9(27) . . .
26.9(27) . . .
31.4(30) . . .
26.3(30) . . .
28.7(33) . . .
35(4) . . .
31.2(30) . . .
30.5(28) . . .
29.4(29) . . .
27.3(28) . . .
28.5(28) . . .
27.1(27) . . .
31.5(29) . . .
28.1(30) . . .
26.4(28) . . .
28.7(28) . . .
27.5(27) . . .
25.8(26) . . .
32.5(31) . . .
27.9(30) . . .
30.5(30) . . .
34.3(31) . . .
28.4(29) . . .
42(4) . . .
30.9(29) . . .
16.6(21) . . .
24.6(26) . . .
24.9(26) . . .
23.7(27) . . .
24.4(28) . . .
30.6(29) . . .
27.2(27) . . .
29.3(30) . . .
39(4) . . .
35.5(32) . . .
25.9(29) . . .
23.8(26) . . .
28.9(30) . . .
22.6(25) . . .
28.4(28) . . .
32.9(31) . . .
26.6(27) . . .
31.8(31) . . .
30.5(31) . . .
23.6(26) . . .
29.0(28) . . .
28.7(28) . . .
36.0(31) . . .
29.5(28) . . .
22.6(25) . . .
26.8(26) . . .
27.6(28) . . .
26.4(27) . . .
37.5(34) . . .
29.2(28) . . .
28.4(28) . . .
32.1(30) . . .
31.0(30) . . .
34.0(35) . . .
31.0(29) . . .
26.9(27) . . .
21.3(23) . . .
25.6(27) . . .
31.7(33) . . .
26.3(30) . . .
26.5(27) . . .
22.4(26) . . .
20.7(24) . . .
28.3(29) . . .
27.8(30) . . .
26.8(27) . . .
31.8(31) . . .
32.7(34) . . .
24.1(27) . . .
21.3(25) . . .
31.4(30) . . .
23.8(28) . . .
26.1(29) . . .
21.7(26) . . .
25.4(27) . . .
19.8(23) . . .
26.4(28) . . .
25.4(29) . . .
24.0(26) . . .
29.0(28) . . .
27.0(27) . . .
22.1(25) . . .
25.8(29) . . .
27.4(28) . . .
29.1(28) . . .
38.6(33) . . .
31.5(29) . . .
23.0(26) . . .
32.9(31) . . .
29.6(28) . . .
25.9(27) . . .
30.6(31) . . .
22.9(26) . . .
26.3(26) . . .
24.2(26) . . .
26.7(27) . . .
30.9(30) . . .
32.2(32) . . .
30.3(29) . . .
37.3(32) . . .
25.9(26) . . .
27.8(28) . . .
23.5(26) . . .
33.0(31) . . .
30.9(29) . . .
36.0(32) . . .
31.0(29) . . .
31.6(33) . . .
27.2(29) . . .
21.9(25) . . .
26.5(27) . . .
20.0(24) . . .
28.8(32) . . .
27.8(29) . . .
25.7(26) . . .
33.1(31) . . .
29.0(28) . . .
30.4(30) . . .
35.0(31) . . .
33.1(30) . . .
30.9(29) . . .
30.4(29) . . .
31.4(31) . . .
28.2(30) . . .
25.5(27) . . .
27.0(27) . . .
23.9(25) . . .
23.4(24) . . .
24.5(29) . . .
21.9(25) . . .
23.1(26) . . .
27.9(30) . . .
27.6(30) . . .
27.4(28) . . .
21.9(25) . . .
32.2(30) . . .
24.3(27) . . .
22.7(26) . . .
25.0(26) . . .
33.2(30) . . .
32.6(30) . . .
29.0(31) . . .
27.6(29) . . .
25.7(27) . . .
29.5(28) . . .
30.7(31) . . .
33.5(33) . . .
29.6(31) . . .
29.8(28) . . .
26.8(28) . . .
22.5(25) . . .
20.5(24) . . .
31.4(33) . . .
30.7(29) . . .
25.4(26) . . .
25.9(28) . . .
24.0(27) . . .
31.7(31) . . .
27.2(27) . . .
28.8(28) . . .
22.9(25) . . .
24.5(29) . . .
32.8(31) . . .
28.6(28) . . .
30.3(28) . . .
32.6(31) . . .
28.5(30) . . .
26.2(27) . . .
26.2(28) . . .
32.9(31) . . .
28.3(28) . . .
28.4(29) . . .
32.5(30) . . .
28.5(28) . . .
25.5(28) . . .
27.9(29) . . .
27.0(29) . . .
32.1(30) . . .
30.9(29) . . .
30.5(30) . . .
22.5(25) . . .
23.9(27) . . .
27.6(29) . . .
36.8(32) . . .
26.2(28) . . .
25.4(26) . . .
30.0(30) . . .
29.5(29) . . .
20.9(23) . . .
32.6(32) . . .
27.0(27) . . .
36(4) . . .
25.4(26) . . .
26.1(27) . . .
30.0(28) . . .
36.5(33) . . .
31.0(29) . . .
29.2(28) . . .
32.8(30) . . .
26.7(27) . . .
29.9(29) . . .
31.0(30) . . .
28.4(28) . . .
28.5(28) . . .
27.5(27) . . .
24.1(27) . . .
21.8(25) . . .
20.3(24) . . .
22.1(25) . . .
30.1(29) . . .
29.5(30) . . .
26.6(28) . . .
28.2(27) . . .
28.6(29) . . .
loop_
_refln_index_h
_refln_index_k
_refln_index_l
_refln_observed_status
_refln_F_squared_meas
_refln_F_squared_calc
_refln_phase_calc
_refln_d_spacing
_gsas_i100_meas
0 0 2 o 86.218 360.396 180.00 6.58285 0.13
0 2 0 o 1160.488 1454.200 180.00 8.20209 2.75
0 1 3 o 71.339 37.709 180.00 4.23948 0.09
0 0 4 o 71.368 179.268 180.00 3.29143 0.03
1 0 1 o 12861.856 13321.931 0.00 5.87700 31.31
0 2 2 o 32495.729 33208.891 0.00 5.13387 60.38
0 3 1 o 1262.538 1513.442 180.00 5.04984 2.27
0 4 0 o 3771.437 1701.467 0.00 4.10105 2.24
1 1 2 o 4344.763 3809.254 0.00 4.47320 12.27
1 0 3 o 372.507 183.079 180.00 3.64891 0.35
0 1 5 o 1213.352 1454.214 180.00 2.59986 0.58
1 2 1 o 1723.615 1855.340 0.00 4.77725 5.55
0 2 4 o 786.839 679.119 0.00 3.05465 0.52
0 0 6 o 1815.411 2088.656 0.00 2.19428 0.31
1 1 4 o 49.994 76.573 0.00 2.89635 0.06
1 2 3 o 678.843 935.544 0.00 3.33388 1.07
1 0 5 o 77.854 596.388 180.00 2.44403 0.03
0 5 1 o 13.440 14.558 180.00 3.18348 0.01
1 4 1 o 711.434 790.487 180.00 3.36316 1.14
0 2 6 o 586.070 700.414 180.00 2.11974 0.19
0 3 3 o 12939.721 13384.129 0.00 3.42258 10.71
0 6 0 o 2014.255 2170.584 0.00 2.73403 0.53
1 1 6 o 976.776 968.653 180.00 2.06465 0.59
0 1 7 o 211.210 886.833 0.00 1.86857 0.05
1 2 5 o 178.132 485.608 0.00 2.34226 0.14
0 3 5 o 0.000 117.667 0.00 2.37240 0.00
0 4 2 o 7.701 11.790 0.00 3.48082 0.01
1 3 2 o 3770.238 3832.735 0.00 3.54206 6.68
1 0 7 o 856.491 1047.572 0.00 1.80813 0.20
0 0 8 o 309.071 337.412 180.00 1.64571 0.03
1 3 4 o 37.130 41.349 0.00 2.59120 0.04
2 0 0 o 2117.579 2236.985 180.00 3.28383 0.81
1 6 1 o 437.590 847.485 0.00 2.47892 0.38
2 0 2 o 261.467 476.934 0.00 2.93850 0.16
0 7 1 o 135.639 236.258 0.00 2.30719 0.05
2 1 1 o 985.545 950.656 180.00 3.12776 1.36
1 2 7 o 1323.266 1338.097 180.00 1.76574 0.59
0 2 8 o 1680.908 1236.478 180.00 1.61355 0.31
2 2 0 o 90.722 75.373 0.00 3.04857 0.06
2 0 4 o 1314.160 1406.146 180.00 2.32470 0.50
1 3 6 o 1179.794 1037.201 0.00 1.94508 0.64
1 1 8 o 1535.218 1171.599 0.00 1.58885 0.56
0 1 9 o 1346.499 1474.730 0.00 1.45707 0.21
0 3 7 o 1530.239 1494.971 0.00 1.77854 0.35
0 8 0 o 254.678 248.532 0.00 2.05052 0.04
2 1 3 o 1157.480 1229.200 0.00 2.59611 1.11
0 6 2 o 33.725 506.716 0.00 2.52492 0.02
0 4 4 o 9832.086 11716.951 0.00 2.56694 4.60
1 5 2 o 2875.489 2785.486 180.00 2.68063 2.93
1 0 9 o 797.242 1144.250 180.00 1.42787 0.12
2 4 0 o 1576.087 1941.352 180.00 2.56333 0.73
2 2 2 o 2211.888 2038.817 180.00 2.76633 2.40
2 1 5 o 259.484 232.321 180.00 2.03836 0.15
2 0 6 o 20.698 38.764 0.00 1.82445 0.00
2 3 1 o 675.544 626.650 0.00 2.75295 0.73
1 4 3 o 5298.480 5513.019 0.00 2.72606 5.58
0 4 6 o 3468.532 3240.525 180.00 1.93475 0.93
2 2 4 o 55.965 101.687 0.00 2.23660 0.04
0 0 10 o 4972.710 6807.694 180.00 1.31657 0.31
1 4 5 o 165.462 156.403 180.00 2.09948 0.10
1 3 8 o 75.010 73.661 0.00 1.53239 0.03
0 3 9 o 33.199 41.609 0.00 1.41316 0.00
1 8 1 o 577.564 531.889 180.00 1.93606 0.31
0 2 10 o 0.573 0.564 180.00 1.29993 0.00
1 2 9 o 50.470 57.677 180.00 1.40671 0.01
2 2 6 o 696.216 668.751 180.00 1.78093 0.32
1 1 10 o 17.140 14.782 0.00 1.28691 0.00
0 5 3 o 425.622 431.689 180.00 2.62771 0.21
1 7 2 o 2614.540 2546.075 0.00 2.09266 1.63
2 5 1 o 1.071 4.763 0.00 2.28571 0.00
0 9 1 o 3754.706 4338.142 0.00 1.80547 0.88
2 1 7 o 338.528 297.845 0.00 1.62406 0.13
0 4 8 o 107.785 109.164 180.00 1.52733 0.02
2 6 0 o 2770.517 2587.737 180.00 2.10113 0.87
2 3 3 o 0.000 86.417 180.00 2.36955 0.00
0 8 2 o 1968.635 1892.687 180.00 1.95774 0.54
2 4 2 o 20.001 284.909 180.00 2.38862 0.02
2 0 8 o 423.849 400.020 180.00 1.47129 0.07
2 3 5 o 996.946 878.031 0.00 1.92305 0.53
1 4 7 o 172.229 216.538 180.00 1.65446 0.07
2 2 8 o 1264.507 1473.004 0.00 1.44817 0.38
0 10 0 o 9848.921 10178.340 180.00 1.64042 0.95
0 5 5 o 23853.766 23650.926 0.00 2.05355 7.17
2 1 9 o 952.093 1313.482 180.00 1.33185 0.25
1 3 10 o 2.742 2.617 0.00 1.25635 0.00
2 7 1 o 348.252 560.548 180.00 1.88782 0.18
2 3 7 o 2142.791 1965.339 180.00 1.56390 0.75
1 5 4 o 6423.565 6572.363 0.00 2.19058 4.39
1 6 3 o 4825.072 4825.676 180.00 2.18799 3.29
0 5 7 o 12.149 12.143 180.00 1.63171 0.00
0 7 3 o 7201.996 6990.950 0.00 2.06719 2.19
2 6 2 o 410.128 592.495 180.00 2.00164 0.23
1 5 6 o 944.791 982.402 0.00 1.75743 0.42
2 4 4 o 1105.138 957.671 180.00 2.02238 0.64
1 4 9 o 0.742 0.762 180.00 1.34847 0.00
0 4 10 o 102.769 97.586 180.00 1.25356 0.01
2 8 0 o 0.009 0.011 0.00 1.73929 0.00
2 0 10 o 1773.185 2431.489 0.00 1.22201 0.19
1 9 2 o 29.476 32.462 0.00 1.69695 0.01
1 10 1 o 578.858 419.205 180.00 1.58002 0.21
2 2 10 o 599.729 1047.604 180.00 1.20867 0.13
2 4 6 o 2418.595 2646.161 0.00 1.66694 0.96
0 10 2 o 1730.346 1331.512 0.00 1.59174 0.32
3 0 1 o 2494.621 2426.276 180.00 2.15957 0.83
0 11 1 o 6720.482 5350.315 180.00 1.48181 1.07
3 0 3 o 3565.514 3437.600 0.00 1.95900 0.98
2 5 3 o 90.168 91.402 0.00 2.05170 0.05
1 5 8 o 14.852 21.780 180.00 1.43545 0.00
3 1 4 o 3470.069 3864.993 0.00 1.81168 1.63
0 5 9 o 8.623 9.931 0.00 1.33606 0.00
3 2 1 o 27.868 26.935 0.00 2.08839 0.02
3 1 2 o 2775.583 2816.977 180.00 2.06090 1.68
2 3 9 o 1543.185 1467.353 0.00 1.29807 0.38
1 8 3 o 153.234 160.183 0.00 1.78760 0.07
2 9 1 o 77.649 56.163 180.00 1.58211 0.03
2 4 8 o 2027.440 1882.197 180.00 1.38486 0.56
3 0 5 o 2918.459 2782.184 180.00 1.68340 0.59
0 9 3 o 57.288 54.403 180.00 1.68328 0.01
0 6 4 o 8349.442 7588.413 180.00 2.10311 2.63
3 1 6 o 201.339 192.685 180.00 1.54293 0.07
0 12 0 o 3684.366 3707.348 0.00 1.36702 0.25
3 0 7 o 117.666 173.330 180.00 1.42662 0.02
3 2 3 o 5112.592 4006.619 180.00 1.90541 2.65
3 2 5 o 432.440 514.973 0.00 1.64902 0.17
2 8 2 o 94.559 89.529 180.00 1.68158 0.04
0 6 6 o 5321.384 6519.636 0.00 1.71129 1.12
3 4 1 o 1055.339 806.673 180.00 1.91082 0.55
2 10 0 o 52.529 53.961 0.00 1.46750 0.01
3 3 2 o 986.555 717.866 0.00 1.94194 0.53
3 1 8 o 744.206 884.809 180.00 1.31126 0.19
2 5 5 o 2250.761 2548.253 180.00 1.74113 0.98
1 6 5 o 431.478 643.844 0.00 1.82212 0.20
1 11 2 o 94.418 140.191 180.00 1.42003 0.03
0 6 8 o 183.037 202.849 180.00 1.40998 0.03
3 2 7 o 61.101 67.860 0.00 1.40552 0.02
3 3 4 o 291.014 348.706 180.00 1.72928 0.12
2 5 7 o 2881.781 3019.299 0.00 1.46126 0.89
2 7 3 o 1560.079 1577.161 180.00 1.74942 0.68
1 6 7 o 472.916 345.379 0.00 1.50815 0.16
1 12 1 o 4.426 6.480 180.00 1.33147 0.00
1 7 4 o 307.510 522.523 180.00 1.83315 0.15
1 10 3 o 5.834 4.314 180.00 1.49618 0.00
3 6 1 o 1838.150 1989.004 180.00 1.69467 0.76
3 0 9 o 1338.522 2059.033 0.00 1.21630 0.15
3 3 6 o 36.184 25.366 0.00 1.49107 0.01
0 8 4 o 1091.568 1248.547 0.00 1.74041 0.24
3 5 2 o 215.313 217.289 0.00 1.75511 0.10
0 12 2 o 3760.412 3972.859 180.00 1.33846 0.49
0 13 1 o 3277.750 3167.705 0.00 1.25610 0.38
3 4 3 o 256.300 248.602 180.00 1.76768 0.11
0 11 3 o 994.909 1172.501 0.00 1.41199 0.14
2 6 4 o 1097.564 870.789 0.00 1.77103 0.49
2 11 1 o 309.094 325.842 0.00 1.35067 0.08
2 10 2 o 295.647 477.325 180.00 1.43234 0.09
1 6 9 o 123.301 111.996 180.00 1.26566 0.03
2 5 9 o 1959.688 1799.591 180.00 1.23755 0.44
3 3 8 o 22.676 16.019 180.00 1.27898 0.01
0 7 5 o 1192.741 1132.890 180.00 1.75057 0.26
3 8 1 o 0.001 0.001 180.00 1.48699 0.00
3 4 5 o 7.966 7.654 180.00 1.55730 0.00
2 9 3 o 64.393 49.963 0.00 1.49795 0.02
2 12 0 o 788.249 736.774 180.00 1.26203 0.09
0 7 7 o 5149.839 5556.299 0.00 1.46682 0.80
2 6 6 o 3121.719 3105.320 180.00 1.51759 1.04
3 7 2 o 1887.142 1994.103 180.00 1.55452 0.66
1 9 4 o 308.817 354.761 0.00 1.54951 0.11
3 4 7 o 356.264 352.836 0.00 1.34742 0.09
2 6 8 o 3608.114 3333.847 0.00 1.29560 0.88
0 10 4 o 88.976 94.195 180.00 1.46818 0.01
1 13 2 o 29.182 44.789 180.00 1.21781 0.01
0 7 9 o 188.137 165.611 0.00 1.24093 0.02
1 7 6 o 727.172 725.607 0.00 1.55612 0.25
1 12 3 o 45.670 32.808 180.00 1.28013 0.01
1 7 8 o 254.538 482.608 0.00 1.31934 0.06
3 5 4 o 668.086 536.931 180.00 1.59341 0.24
3 6 3 o 399.933 323.868 0.00 1.59242 0.15
2 12 2 o 1099.427 951.245 0.00 1.23946 0.25
0 13 3 o 414.731 705.279 180.00 1.21272 0.04
2 8 4 o 2538.554 2632.521 180.00 1.53778 0.87
4 0 0 o 3399.032 3479.002 0.00 1.64191 0.33
4 0 2 o 254.210 209.486 180.00 1.59311 0.05
4 1 1 o 1529.646 1413.878 0.00 1.62132 0.58
4 0 4 o 1030.397 1066.578 0.00 1.46925 0.16
3 5 6 o 194.686 235.407 180.00 1.40132 0.06
4 2 0 o 777.062 390.066 180.00 1.60997 0.14
3 10 1 o 22.968 25.701 0.00 1.30629 0.01
3 9 2 o 81.694 82.045 180.00 1.37008 0.02
4 1 5 o 1429.832 1229.562 0.00 1.38824 0.40
4 1 3 o 626.731 564.341 180.00 1.53110 0.21
4 2 2 o 2100.801 2191.044 0.00 1.56388 0.74
2 11 3 o 1530.385 1398.367 180.00 1.29716 0.38
2 7 5 o 1833.298 1609.147 0.00 1.54478 0.63
4 3 1 o 968.534 970.534 180.00 1.56145 0.34
4 0 6 o 1079.962 1303.939 180.00 1.31462 0.14
1 8 5 o 759.932 745.084 180.00 1.57087 0.27
3 5 8 o 440.004 612.868 0.00 1.22098 0.10
1 11 4 o 8.099 15.088 180.00 1.33021 0.00
4 4 0 o 1271.682 1740.900 0.00 1.52429 0.21
4 2 4 o 710.741 749.195 180.00 1.44623 0.22
4 1 7 o 493.948 537.344 180.00 1.23340 0.11
4 2 6 o 502.148 454.573 0.00 1.29806 0.12
2 7 7 o 3647.072 3669.288 180.00 1.33928 0.95
3 8 3 o 468.679 904.209 180.00 1.41647 0.14
0 9 5 o 1481.529 1320.618 0.00 1.49867 0.24
0 8 6 o 1616.756 1408.822 180.00 1.49819 0.26
4 3 3 o 3163.034 2558.274 0.00 1.48038 1.00
0 12 4 o 0.775 0.716 0.00 1.26246 0.00
0 8 8 o 1263.657 1076.843 0.00 1.28347 0.15
4 5 1 o 2370.891 2490.561 0.00 1.45926 0.73
2 10 4 o 602.216 588.388 0.00 1.34032 0.16
3 6 5 o 31.390 43.345 180.00 1.43346 0.01
4 4 2 o 2115.172 1503.246 180.00 1.48500 0.67
4 6 0 o 3575.731 3627.038 180.00 1.40759 0.51
4 3 5 o 162.086 170.451 180.00 1.35011 0.04
1 8 7 o 216.792 254.199 0.00 1.35618 0.06
3 7 4 o 2.739 5.679 0.00 1.43881 0.00
3 11 2 o 172.448 321.728 0.00 1.21145 0.04
3 6 7 o 490.325 469.963 180.00 1.26479 0.11
4 7 1 o 2331.154 2436.204 180.00 1.33775 0.61
3 10 3 o 490.478 505.802 180.00 1.25770 0.11
4 4 4 o 1313.266 1178.015 0.00 1.38316 0.36
1 10 5 o 272.566 249.836 0.00 1.36206 0.07
4 6 2 o 1204.120 1341.605 0.00 1.37647 0.33
4 8 0 o 2291.083 1802.123 0.00 1.28166 0.27
0 11 5 o 580.397 512.788 0.00 1.29763 0.07
4 5 3 o 749.161 642.764 180.00 1.39244 0.21
4 4 6 o 111.909 103.864 180.00 1.25188 0.03
2 9 5 o 4279.650 3966.846 180.00 1.36339 1.16
2 8 6 o 2744.557 2529.325 0.00 1.36303 0.74
4 9 1 o 1056.304 1628.614 0.00 1.21472 0.23
3 7 6 o 30.915 28.238 0.00 1.29269 0.01
4 8 2 o 1866.203 1997.062 180.00 1.25804 0.43
3 9 4 o 226.510 195.873 180.00 1.28889 0.05
1 9 6 o 382.069 405.867 180.00 1.37118 0.10
4 5 5 o 964.578 827.682 0.00 1.28240 0.23
0 9 7 o 6.471 8.099 180.00 1.30890 0.00
3 8 5 o 138.497 123.283 180.00 1.30110 0.03
4 7 3 o 1110.963 984.647 0.00 1.28570 0.27
4 6 4 o 466.457 459.412 180.00 1.29421 0.11
0 10 6 o 0.223 0.217 0.00 1.31385 0.00
5 0 1 o 2465.913 2587.676 0.00 1.30704 0.31
5 0 3 o 0.833 0.990 0.00 1.25837 0.00
5 2 1 o 660.064 647.340 0.00 1.29076 0.16
5 1 2 o 589.848 580.235 0.00 1.28418 0.14
5 1 4 o 7.003 11.132 0.00 1.21661 0.00
2 9 7 o 28.393 41.076 0.00 1.21588 0.01
5 4 1 o 2.360 2.010 180.00 1.24532 0.00
5 2 3 o 475.865 430.806 0.00 1.24382 0.11
5 3 2 o 732.913 661.924 0.00 1.25382 0.17
1 11 6 o 68.249 128.928 0.00 1.21221 0.01
2 10 6 o 192.582 342.088 180.00 1.21984 0.04
1 10 7 o 136.682 188.315 180.00 1.21493 0.03
