#------------------------------------------------------------------------------
#$Date: 2016-03-21 01:21:50 +0200 (Mon, 21 Mar 2016) $
#$Revision: 178377 $
#$URL: svn://www.crystallography.net/cod/cif/4/00/21/4002121.cif $
#------------------------------------------------------------------------------
#
# This file is available in the Crystallography Open Database (COD),
# http://www.crystallography.net/
#
# All data on this site have been placed in the public domain by the
# contributors.
#
data_4002121
loop_
_publ_author_name
'Nanthamathee, Chompoonoot'
'Ling, Sanliang'
'Slater, Ben'
'Attfield, Martin P.'
_publ_section_title
;
 Contradistinct Thermoresponsive Behavior of Isostructural MIL-53 Type
 Metal--Organic Frameworks by Modifying the Framework Inorganic Anion
;
_journal_name_full               'Chemistry of Materials'
_journal_page_first              141223143002002
_journal_paper_doi               10.1021/cm503311x
_journal_year                    2014
_chemical_formula_sum            'C8 Al F O4'
_chemical_formula_weight         206.06
_chemical_name_systematic        ' ?'
_space_group_IT_number           15
_symmetry_cell_setting           monoclinic
_symmetry_space_group_name_Hall  '-I 2b'
_symmetry_space_group_name_H-M   'I 1 1 2/b'
_audit_creation_date             2014-08-28T12:43
_audit_creation_method           'from EXP file using GSAS2CIF'
_audit_update_record
' 2014-08-28T12:43  Initial CIF as created by GSAS2CIF'
_cell_angle_alpha                90.0
_cell_angle_beta                 90.0
_cell_angle_gamma                90.4875(15)
_cell_formula_units_Z            4
_cell_length_a                   6.55591(13)
_cell_length_b                   16.4362(4)
_cell_length_c                   13.1423(4)
_cell_volume                     1416.09(6)
_computing_structure_refinement  GSAS
_diffrn_radiation_polarisn_ratio 0.95
_diffrn_radiation_probe          x-ray
_diffrn_radiation_wavelength     0.827154
_exptl_absorpt_correction_T_max  1.00000
_exptl_absorpt_correction_T_min  1.00000
_exptl_absorpt_process_details
;   GSAS Absorption/surface roughness correction: function number 0
 No correction is applied.
;
_pd_block_id                     2014-08-28T12:43|100K||i_11
_pd_calc_method                  'Rietveld Refinement'
_pd_instr_location               ' ?'
_pd_meas_2theta_range_inc        0.004
_pd_meas_2theta_range_max        150.01401
_pd_meas_2theta_range_min        0.002
_pd_meas_number_of_points        37504
_pd_phase_name                   11K
_pd_proc_2theta_range_inc        0.004
_pd_proc_2theta_range_max        150.06953
_pd_proc_2theta_range_min        0.05753
_pd_proc_info_datetime           2014-08-28T12:43:19
_pd_proc_info_excluded_regions   ' ?'
_pd_proc_ls_background_function
;   GSAS Background function number 1 with  2 terms.
 Shifted Chebyshev function of 1st kind
      1:    0.00000     2:    0.00000    
;
_pd_proc_ls_peak_cutoff          0.00050
_pd_proc_ls_profile_function
;
 CW Profile function number 4 with  21 terms
 Pseudovoigt profile coefficients as parameterized in
 P. Thompson, D.E. Cox & J.B. Hastings (1987). J. Appl. Cryst.,20,79-83.
 Asymmetry correction of L.W. Finger, D.E. Cox & A. P. Jephcoat (1994).
 J. Appl. Cryst.,27,892-900.
 Microstrain broadening by P.W. Stephens,  (1999). J. Appl. Cryst.,32,281-289.
 Peak tails are ignored  where the intensity is below 0.0005 times the peak
   Aniso. broadening axis   0.0   2.0   2.0
;
_pd_proc_ls_prof_R_factor        0.0747
_pd_proc_ls_prof_wR_expected     0.0386
_pd_proc_ls_prof_wR_factor       0.1008
_pd_proc_number_of_points        37504
_pd_spec_mounting                ' ?'
_refine_ls_goodness_of_fit_all   2.62
_refine_ls_matrix_type           full
_refine_ls_number_parameters     40
_refine_ls_number_restraints     0
_refine_ls_R_Fsqd_factor         0.26754
_refine_ls_shift/su_max          0.05
_refine_ls_shift/su_mean         0.01
_reflns_d_resolution_high        1.081
_reflns_d_resolution_low         8.218
_reflns_limit_h_max              6
_reflns_limit_h_min              -6
_reflns_limit_k_max              15
_reflns_limit_k_min              0
_reflns_limit_l_max              12
_reflns_limit_l_min              0
_reflns_number_total             528
_cod_data_source_file            alf100K.cif
_cod_data_source_block           100K_publ
_cod_depositor_comments
;
The following automatic conversions were performed:

'_geom_bond_publ_flag' value 'N' changed to 'n' according to
/home/saulius/struct/COD-crude-data--automatic-downloads/rss-feeds/ACS/lib/dictionaries/cif_core.dic
dictionary named 'cif_core.dic' version 2.4.2 from 2011-04-26 (22
times).

'_geom_angle_publ_flag' value 'N' changed to 'n' according
to
/home/saulius/struct/COD-crude-data--automatic-downloads/rss-feeds/ACS/lib/dictionaries/cif_core.dic
dictionary named 'cif_core.dic' version 2.4.2 from 2011-04-26 (26
times).

Automatic conversion script
Id: cif_fix_values 2935 2014-11-11 08:27:57Z andrius 
;
_cod_database_code               4002121
#BEGIN Tags that were not found in dictionaries:
_gsas_exptl_extinct_corr_t_min   1.00000
_gsas_exptl_extinct_corr_t_max   1.00000
#END Tags that were not found in dictionaries
loop_
_symmetry_equiv_pos_site_id
_symmetry_equiv_pos_as_xyz
1 +x,+y,+z
2 -x,-y+1/2,+z
-1 -x,-y,-z
-2 +x,+y+1/2,-z
101 +x+1/2,+y+1/2,+z+1/2
102 -x+1/2,-y,+z+1/2
-101 -x+1/2,-y+1/2,-z+1/2
-102 +x+1/2,+y,-z+1/2
loop_
_atom_site_type_symbol
_atom_site_label
_atom_site_fract_x
_atom_site_fract_y
_atom_site_fract_z
_atom_site_occupancy
_atom_site_thermal_displace_type
_atom_site_U_iso_or_equiv
_atom_site_symmetry_multiplicity
Al Al1 0.25 0.25 0.75 1.0 Uiso 0.0352(13) 4
F F 0.0 0.25 0.6917(4) 1.0 Uiso 0.0144(8) 4
O O1 0.1631(6) 0.17316(26) 0.8535(4) 1.0 Uiso 0.0144(8) 8
O O2 -0.1801(7) 0.66061(26) -0.8330(5) 1.0 Uiso 0.0144(8) 8
C C3 -0.2003(13) 0.0232(6) -0.0469(7) 1.0 Uiso 0.0231(14) 8
C C2 -0.0020(18) 0.0641(4) 0.9444(6) 1.0 Uiso 0.0231(14) 8
C C1 -0.0028(13) 0.1371(5) 0.8660(6) 1.0 Uiso 0.0231(14) 8
C C4 0.1925(14) 0.5384(6) -0.9720(8) 1.0 Uiso 0.0231(14) 8
loop_
_atom_type_symbol
_atom_type_number_in_cell
_atom_type_scat_dispersion_real
_atom_type_scat_dispersion_imag
_atom_type_scat_Cromer_Mann_a1
_atom_type_scat_Cromer_Mann_a2
_atom_type_scat_Cromer_Mann_a3
_atom_type_scat_Cromer_Mann_a4
_atom_type_scat_Cromer_Mann_b1
_atom_type_scat_Cromer_Mann_b2
_atom_type_scat_Cromer_Mann_b3
_atom_type_scat_Cromer_Mann_b4
_atom_type_scat_Cromer_Mann_c
_atom_type_scat_source
Al 4.0 0.000 0.000 6.42020 3.03870 1.90020 0.74260 1.59360 31.5472 1.96460
85.0886 1.11510 International_Tables_Vol_C
F 4.0 0.000 0.000 3.53920 10.2825 2.64120 4.29440 1.51700 0.26150 1.02430
26.1476 0.27760 International_Tables_Vol_C
O 16.0 0.000 0.000 3.04850 13.2771 2.28680 5.70110 1.54630 0.32390 0.86700
32.9089 0.25080 International_Tables_Vol_C
C 32.0 0.000 0.000 2.31000 20.8439 1.02000 10.2075 1.58860 0.56870 0.86500
51.6512 0.21560 International_Tables_Vol_C
loop_
_geom_angle_atom_site_label_1
_geom_angle_atom_site_label_2
_geom_angle_atom_site_label_3
_geom_angle
_geom_angle_site_symmetry_1
_geom_angle_site_symmetry_3
_geom_angle_publ_flag
F Al1 F 180.0 1_555 -101_566 n
F Al1 O1 92.04(15) 1_555 1_555 n
F Al1 O1 87.96(15) 1_555 -101_445 n
F Al1 O2 91.07(16) 1_555 -1_565 n
F Al1 O2 88.93(16) 1_555 101_546 n
F Al1 O1 87.96(15) -101_445 1_555 n
F Al1 O1 92.04(15) -101_445 -101_445 n
F Al1 O2 88.93(16) -101_445 -1_565 n
F Al1 O2 91.07(16) -101_445 101_546 n
O1 Al1 O1 180.0 1_555 -101_445 n
O1 Al1 O2 91.71(20) 1_555 -1_565 n
O1 Al1 O2 88.29(20) 1_555 101_546 n
O1 Al1 O2 88.29(20) -101_445 -1_565 n
O1 Al1 O2 91.71(20) -101_445 101_546 n
O2 Al1 O2 180.0 -1_565 101_546 n
Al1 F Al1 129.92(28) 1_555 2_555 n
Al1 O1 C1 130.8(6) 1_555 1_555 n
Al1 O2 C1 130.2(5) -1_565 -2_565 n
C2 C3 C4 110.2(8) 1_554 2_556 n
C3 C2 C1 113.0(10) 1_556 1_555 n
C3 C2 C4 130.7(7) 1_556 -2_555 n
C1 C2 C4 114.1(9) 1_555 -2_555 n
O1 C1 O2 126.4(7) 1_555 -2_444 n
O1 C1 C2 116.0(8) 1_555 1_555 n
O2 C1 C2 116.8(8) -2_555 1_555 n
C3 C4 C2 115.9(8) 2_554 -2_565 n
loop_
_geom_bond_atom_site_label_1
_geom_bond_atom_site_label_2
_geom_bond_distance
_geom_bond_site_symmetry_2
_geom_bond_publ_flag
Al1 F 1.8090(21) 1_555 n
Al1 F 1.8090(21) -101_445 n
Al1 O1 1.938(5) 1_555 n
Al1 O1 1.938(5) -101_445 n
Al1 O2 1.890(4) -1_565 n
Al1 O2 1.890(4) 101_546 n
F Al1 1.8090(21) 1_555 n
F Al1 1.8090(21) 2_555 n
O1 Al1 1.938(5) 1_555 n
O1 C1 1.245(8) 1_555 n
O2 Al1 1.890(4) -1_565 n
O2 C1 1.302(8) -2_555 n
C3 C2 1.462(10) 1_554 n
C3 C4 1.413(8) 2_556 n
C2 C3 1.462(10) 1_556 n
C2 C1 1.582(7) 1_555 n
C2 C4 1.395(10) -2_545 n
C1 O1 1.245(8) 1_555 n
C1 O2 1.302(8) -2_545 n
C1 C2 1.582(7) 1_555 n
C4 C3 1.413(8) 2_554 n
C4 C2 1.395(10) -2_555 n
loop_
_pd_meas_intensity_total
_pd_proc_ls_weight
_pd_proc_intensity_bkg_calc
_pd_calc_intensity_total
14(4) 0.0 0.0 .
22(5) 0.0 0.0 .
23(5) 0.0 0.0 .
18(4) 0.0 0.0 .
16(4) 0.0 0.0 .
13(4) 0.0 0.0 .
21(5) 0.0 0.0 .
26(5) 0.0 0.0 .
24(5) 0.0 0.0 .
29(5) 0.0 0.0 .
20(4) 0.0 0.0 .
21(5) 0.0 0.0 .
17(4) 0.0 0.0 .
19(4) 0.0 0.0 .
27(5) 0.0 0.0 .
23(5) 0.0 0.0 .
21(5) 0.0 0.0 .
25(5) 0.0 0.0 .
27(5) 0.0 0.0 .
16(4) 0.0 0.0 .
20(4) 0.0 0.0 .
21(5) 0.0 0.0 .
19(4) 0.0 0.0 .
24(5) 0.0 0.0 .
17(4) 0.0 0.0 .
18(4) 0.0 0.0 .
17(4) 0.0 0.0 .
22(5) 0.0 0.0 .
22(5) 0.0 0.0 .
21(5) 0.0 0.0 .
26(5) 0.0 0.0 .
19(4) 0.0 0.0 .
29(5) 0.0 0.0 .
19(4) 0.0 0.0 .
24(5) 0.0 0.0 .
21(5) 0.0 0.0 .
19(4) 0.0 0.0 .
18(4) 0.0 0.0 .
30(5) 0.0 0.0 .
22(5) 0.0 0.0 .
24(5) 0.0 0.0 .
19(4) 0.0 0.0 .
23(5) 0.0 0.0 .
22(5) 0.0 0.0 .
27(5) 0.0 0.0 .
21(5) 0.0 0.0 .
22(5) 0.0 0.0 .
14(4) 0.0 0.0 .
22(5) 0.0 0.0 .
22(5) 0.0 0.0 .
14(4) 0.0 0.0 .
19(4) 0.0 0.0 .
25(5) 0.0 0.0 .
17(4) 0.0 0.0 .
25(5) 0.0 0.0 .
17(4) 0.0 0.0 .
25(5) 0.0 0.0 .
13(4) 0.0 0.0 .
22(5) 0.0 0.0 .
24(5) 0.0 0.0 .
16(4) 0.0 0.0 .
16(4) 0.0 0.0 .
27(5) 0.0 0.0 .
24(5) 0.0 0.0 .
22(5) 0.0 0.0 .
27(5) 0.0 0.0 .
24(5) 0.0 0.0 .
28(5) 0.0 0.0 .
18(4) 0.0 0.0 .
20(4) 0.0 0.0 .
17(4) 0.0 0.0 .
26(5) 0.0 0.0 .
24(5) 0.0 0.0 .
20(4) 0.0 0.0 .
21(5) 0.0 0.0 .
19(4) 0.0 0.0 .
17(4) 0.0 0.0 .
23(5) 0.0 0.0 .
15(4) 0.0 0.0 .
13(4) 0.0 0.0 .
27(5) 0.0 0.0 .
21(5) 0.0 0.0 .
15(4) 0.0 0.0 .
23(5) 0.0 0.0 .
19(4) 0.0 0.0 .
24(5) 0.0 0.0 .
25(5) 0.0 0.0 .
24(5) 0.0 0.0 .
19(4) 0.0 0.0 .
24(5) 0.0 0.0 .
21(5) 0.0 0.0 .
29(5) 0.0 0.0 .
23(5) 0.0 0.0 .
26(5) 0.0 0.0 .
33(6) 0.0 0.0 .
33(6) 0.0 0.0 .
23(5) 0.0 0.0 .
25(5) 0.0 0.0 .
29(5) 0.0 0.0 .
32(6) 0.0 0.0 .
23(5) 0.0 0.0 .
24(5) 0.0 0.0 .
27(5) 0.0 0.0 .
28(5) 0.0 0.0 .
24(5) 0.0 0.0 .
32(6) 0.0 0.0 .
43(7) 0.0 0.0 .
43(7) 0.0 0.0 .
62(8) 0.0 0.0 .
85(9) 0.0 0.0 .
134(12) 0.0 0.0 .
159(13) 0.0 0.0 .
213(15) 0.0 0.0 .
299(17) 0.0 0.0 .
391(20) 0.0 0.0 .
422(21) 0.0 0.0 .
536(23) 0.0 0.0 .
728(27) 0.0 0.0 .
857(29) 0.0 0.0 .
1068(33) 0.0 0.0 .
1344(37) 0.0 0. .
1424(38) 0.0 0. .
1516(39) 0.0 0. .
1543(39) 0.0 0. .
1556(39) 0.0 0. .
1445(38) 0.0 0. .
1438(38) 0.0 0. .
1448(38) 0.0 0. .
1430(38) 0.0 0. .
1425(38) 0.0 0. .
1426(38) 0.0 0. .
1392(37) 0.0 0. .
1384(37) 0.0 0. .
1381(37) 0.0 0. .
1300(36) 0.0 0. .
1225(35) 0.0 0.0 .
1291(36) 0.0 0. .
1211(35) 0.0 0.0 .
1126(34) 0.0 0.0 .
1087(33) 0.0 0.0 .
1079(33) 0.0 0.0 .
1026(32) 0.0 0.0 .
931(31) 0.0 0.0 .
909(30) 0.0 0.0 .
872(30) 0.0 0.0 .
799(28) 0.0 0.0 .
753(27) 0.0 0.0 .
703(27) 0.0 0.0 .
702(26) 0.0 0.0 .
654(26) 0.0 0.0 .
621(25) 0.0 0.0 .
626(25) 0.0 0.0 .
532(23) 0.0 0.0 .
523(23) 0.0 0.0 .
574(24) 0.0 0.0 .
543(23) 0.0 0.0 .
544(23) 0.0 0.0 .
551(23) 0.0 0.0 .
511(23) 0.0 0.0 .
518(23) 0.0 0.0 .
543(23) 0.0 0.0 .
522(23) 0.0 0.0 .
535(23) 0.0 0.0 .
507(23) 0.0 0.0 .
540(23) 0.0 0.0 .
499(22) 0.0 0.0 .
517(23) 0.0 0.0 .
537(23) 0.0 0.0 .
552(23) 0.0 0.0 .
538(23) 0.0 0.0 .
518(23) 0.0 0.0 .
528(23) 0.0 0.0 .
506(22) 0.0 0.0 .
502(22) 0.0 0.0 .
492(22) 0.0 0.0 .
519(23) 0.0 0.0 .
515(23) 0.0 0.0 .
496(22) 0.0 0.0 .
552(23) 0.0 0.0 .
536(23) 0.0 0.0 .
573(24) 0.0 0.0 .
518(23) 0.0 0.0 .
546(23) 0.0 0.0 .
569(24) 0.0 0.0 .
573(24) 0.0 0.0 .
525(23) 0.0 0.0 .
579(24) 0.0 0.0 .
582(24) 0.0 0.0 .
606(25) 0.0 0.0 .
566(24) 0.0 0.0 .
593(24) 0.0 0.0 .
563(24) 0.0 0.0 .
590(24) 0.0 0.0 .
604(25) 0.0 0.0 .
557(24) 0.0 0.0 .
610(25) 0.0 0.0 .
607(25) 0.0 0.0 .
591(24) 0.0 0.0 .
631(25) 0.0 0.0 .
622(25) 0.0 0.0 .
619(25) 0.0 0.0 .
656(26) 0.0 0.0 .
642(25) 0.0 0.0 .
643(25) 0.0 0.0 .
634(25) 0.0 0.0 .
653(26) 0.0 0.0 .
657(26) 0.0 0.0 .
683(26) 0.0 0.0 .
670(26) 0.0 0.0 .
653(26) 0.0 0.0 .
693(26) 0.0 0.0 .
665(26) 0.0 0.0 .
717(27) 0.0 0.0 .
687(26) 0.0 0.0 .
691(26) 0.0 0.0 .
731(27) 0.0 0.0 .
714(27) 0.0 0.0 .
747(27) 0.0 0.0 .
741(27) 0.0 0.0 .
730(27) 0.0 0.0 .
730(27) 0.0 0.0 .
795(28) 0.0 0.0 .
767(28) 0.0 0.0 .
776(28) 0.0 0.0 .
840(29) 0.0 0.0 .
801(28) 0.0 0.0 .
840(29) 0.0 0.0 .
808(28) 0.0 0.0 .
846(29) 0.0 0.0 .
878(30) 0.0 0.0 .
898(30) 0.0 0.0 .
1000(32) 0.0 0.0 .
1009(32) 0.0 0.0 .
1130(34) 0.0 0.0 .
1285(36) 0.0 0. .
1414(38) 0.0 0. .
1591(40) 0.0 0. .
1897(44) 0.0 0. .
2076(46) 0.0 0. .
2292(48) 0.0 0. .
2503(50) 0.0 0. .
2750(52) 0.0 0. .
2994(55) 0.0 0. .
3432(59) 0.0 0. .
3631(60) 0.0 0. .
4077(64) 0.0 0. .
4571(68) 0.0 0. .
4798(69) 0.0 0. .
5417(74) 0.0 0. .
5854(77) 0.0 0. .
6599(81) 0.0 0. .
6994(84) 0.0 0. .
7803(88) 0.0 0. .
9096(95) 0.0 0. .
10150(100) 0.0 0. .
10950(110) 0.0 0. .
12150(110) 0.0 0. .
13670(120) 0.0 0. .
14840(120) 0.0 0. .
16700(130) 0.0 0. .
17940(130) 0.0 0. .
19200(140) 0.0 0. .
20460(140) 0.0 0. .
21470(150) 0.0 0. .
22030(150) 0.0 0. .
22890(150) 0.0 0. .
22910(150) 0.0 0. .
23390(150) 0.0 0. .
24030(160) 0.0 0. .
24350(160) 0.0 0. .
25040(160) 0.0 0. .
25340(160) 0.0 0. .
25760(160) 0.0 0. .
26280(160) 0.0 0. .
26590(160) 0.0 0. .
26850(160) 0.0 0. .
26760(160) 0.0 0. .
26300(160) 0.0 0. .
25850(160) 0.0 0. .
25620(160) 0.0 0. .
26010(160) 0.0 0. .
25750(160) 0.0 0. .
25790(160) 0.0 0. .
25880(160) 0.0 0. .
25850(160) 0.0 0. .
25530(160) 0.0 0. .
25790(160) 0.0 0. .
25140(160) 0.0 0. .
24900(160) 0.0 0. .
24980(160) 0.0 0. .
25460(160) 0.0 0. .
25480(160) 0.0 0. .
25350(160) 0.0 0. .
25200(160) 0.0 0. .
25600(160) 0.0 0. .
25340(160) 0.0 0. .
25130(160) 0.0 0. .
24700(160) 0.0 0. .
25110(160) 0.0 0. .
24970(160) 0.0 0. .
24490(160) 0.0 0. .
24420(160) 0.0 0. .
23850(150) 0.0 0. .
22490(150) 0.0 0. .
22170(150) 0.0 0. .
22740(150) 0.0 0. .
22260(150) 0.0 0. .
22310(150) 0.0 0. .
21960(150) 0.0 0. .
22310(150) 0.0 0. .
22330(150) 0.0 0. .
22390(150) 0.0 0. .
21920(150) 0.0 0. .
21300(150) 0.0 0. .
20850(140) 0.0 0. .
20400(140) 0.0 0. .
20620(140) 0.0 0. .
19890(140) 0.0 0. .
20140(140) 0.0 0. .
19480(140) 0.0 0. .
19280(140) 0.0 0. .
19520(140) 0.0 0. .
19780(140) 0.0 0. .
18940(140) 0.0 0. .
19240(140) 0.0 0. .
19460(140) 0.0 0. .
19530(140) 0.0 0. .
19160(140) 0.0 0. .
18870(140) 0.0 0. .
18530(140) 0.0 0. .
17820(130) 0.0 0. .
17930(130) 0.0 0. .
17490(130) 0.0 0. .
17670(130) 0.0 0. .
16960(130) 0.0 0. .
17050(130) 0.0 0. .
16710(130) 0.0 0. .
16950(130) 0.0 0. .
17180(130) 0.0 0. .
16420(130) 0.0 0. .
16320(130) 0.0 0. .
16160(130) 0.0 0. .
16640(130) 0.0 0. .
16460(130) 0.0 0. .
16190(130) 0.0 0. .
15830(130) 0.0 0. .
15810(130) 0.0 0. .
15750(130) 0.0 0. .
15820(130) 0.0 0. .
15280(120) 0.0 0. .
15510(130) 0.0 0. .
15140(120) 0.0 0. .
15000(120) 0.0 0. .
15040(120) 0.0 0. .
14880(120) 0.0 0. .
14470(120) 0.0 0. .
14290(120) 0.0 0. .
14350(120) 0.0 0. .
13720(120) 0.0 0. .
13900(120) 0.0 0. .
13940(120) 0.0 0. .
13510(120) 0.0 0. .
13680(120) 0.0 0. .
13390(120) 0.0 0. .
13420(120) 0.0 0. .
13000(110) 0.0 0. .
13010(110) 0.0 0. .
12850(110) 0.0 0. .
12760(110) 0.0 0. .
12920(110) 0.0 0. .
12520(110) 0.0 0. .
12120(110) 0.0 0. .
12210(110) 0.0 0. .
12390(110) 0.0 0. .
12140(110) 0.0 0. .
11870(110) 0.0 0. .
12150(110) 0.0 0. .
12000(110) 0.0 0. .
12150(110) 0.0 0. .
11780(110) 0.0 0. .
12230(110) 0.0 0. .
12080(110) 0.0 0. .
11870(110) 0.0 0. .
11610(110) 0.0 0. .
11730(110) 0.0 0. .
11290(110) 0.0 0. .
11100(110) 0.0 0. .
11150(110) 0.0 0. .
10550(100) 0.0 0. .
11080(110) 0.0 0. .
10800(100) 0.0 0. .
10860(100) 0.0 0. .
10830(100) 0.0 0. .
10930(110) 0.0 0. .
10970(110) 0.0 0. .
10850(100) 0.0 0. .
10630(100) 0.0 0. .
10570(100) 0.0 0. .
10890(100) 0.0 0. .
10380(100) 0.0 0. .
10820(100) 0.0 0. .
10530(100) 0.0 0. .
10600(100) 0.0 0. .
10520(100) 0.0 0. .
10310(100) 0.0 0. .
10430(100) 0.0 0. .
10330(100) 0.0 0. .
9970(100) 0.0 0. .
9990(100) 0.0 0. .
10080(100) 0.0 0. .
9790(99) 0.0 0. .
9755(99) 0.0 0. .
9678(98) 0.0 0. .
9694(98) 0.0 0. .
9910(100) 0.0 0. .
9473(97) 0.0 0. .
9145(96) 0.0 0. .
9445(97) 0.0 0. .
9399(97) 0.0 0. .
9497(97) 0.0 0. .
9272(96) 0.0 0. .
9101(95) 0.0 0. .
9080(95) 0.0 0. .
9032(95) 0.0 0. .
9051(95) 0.0 0. .
9031(95) 0.0 0. .
8787(94) 0.0 0. .
8943(95) 0.0 0. .
9027(95) 0.0 0. .
8996(95) 0.0 0. .
9102(95) 0.0 0. .
8818(94) 0.0 0. .
8967(95) 0.0 0. .
8689(93) 0.0 0. .
8713(93) 0.0 0. .
8541(92) 0.0 0. .
8612(93) 0.0 0. .
8640(93) 0.0 0. .
8570(93) 0.0 0. .
8539(92) 0.0 0. .
8420(92) 0.0 0. .
8663(93) 0.0 0. .
8173(90) 0.0 0. .
8275(91) 0.0 0. .
8354(91) 0.0 0. .
8269(91) 0.0 0. .
8301(91) 0.0 0. .
8243(91) 0.0 0. .
8158(90) 0.0 0. .
8177(90) 0.0 0. .
7946(89) 0.0 0. .
7758(88) 0.0 0. .
8020(90) 0.0 0. .
7940(89) 0.0 0. .
8096(90) 0.0 0. .
8159(90) 0.0 0. .
7996(89) 0.0 0. .
7940(89) 0.0 0. .
7732(88) 0.0 0. .
7570(87) 0.0 0. .
7668(88) 0.0 0. .
7711(88) 0.0 0. .
7143(85) 0.0 0. .
7352(86) 0.0 0. .
7417(86) 0.0 0. .
7477(86) 0.0 0. .
7438(86) 0.0 0. .
7253(85) 0.0 0. .
7436(86) 0.0 0. .
7376(86) 0.0 0. .
7200(85) 0.0 0. .
7037(84) 0.0 0. .
7089(84) 0.0 0. .
7364(86) 0.0 0. .
7060(84) 0.0 0. .
7014(84) 0.0 0. .
6996(84) 0.0 0. .
6834(83) 0.0 0. .
6619(81) 0.0 0. .
6808(83) 0.0 0. .
7040(84) 0.0 0. .
7051(84) 0.0 0. .
7085(84) 0.0 0. .
6918(83) 0.0 0. .
6898(83) 0.0 0. .
6629(81) 0.0 0. .
6691(82) 0.0 0. .
6453(80) 0.0 0. .
6511(81) 0.0 0. .
6448(80) 0.0 0. .
6490(81) 0.0 0. .
6376(80) 0.0 0. .
6402(80) 0.0 0. .
6432(80) 0.0 0. .
6122(78) 0.0 0. .
6194(79) 0.0 0. .
6202(79) 0.0 0. .
5836(76) 0.0 0. .
5969(77) 0.0 0. .
5929(77) 0.0 0. .
5822(76) 0.0 0. .
5744(76) 0.0 0. .
5813(76) 0.0 0. .
5693(75) 0.0 0. .
5775(76) 0.0 0. .
5886(77) 0.0 0. .
5903(77) 0.0 0. .
5898(77) 0.0 0. .
5774(76) 0.0 0. .
5764(76) 0.0 0. .
5601(75) 0.0 0. .
5452(74) 0.0 0. .
5462(74) 0.0 0. .
5282(73) 0.0 0. .
5308(73) 0.0 0. .
5299(73) 0.0 0. .
5246(72) 0.0 0. .
5221(72) 0.0 0. .
5252(72) 0.0 0. .
5214(72) 0.0 0. .
5214(72) 0.0 0. .
5439(74) 0.0 0. .
5215(72) 0.0 0. .
5335(73) 0.0 0. .
5410(74) 0.0 0. .
5138(72) 0.0 0. .
5116(72) 0.0 0. .
4933(70) 0.0 0. .
4977(71) 0.0 0. .
4844(70) 0.0 0. .
4653(68) 0.0 0. .
4937(70) 0.0 0. .
4738(69) 0.0 0. .
4738(69) 0.0 0. .
4628(68) 0.0 0. .
4734(69) 0.0 0. .
4698(69) 0.0 0. .
4531(67) 0.0 0. .
4463(67) 0.0 0. .
4071(64) 0.0 0. .
4076(64) 0.0 0. .
4103(64) 0.0 0. .
3885(62) 0.0 0. .
3631(60) 0.0 0. .
3601(60) 0.0 0. .
3527(59) 0.0 0. .
3356(58) 0.0 0. .
3329(58) 0.0 0. .
3222(57) 0.0 0. .
3204(57) 0.0 0. .
3116(56) 0.0 0. .
3137(56) 0.0 0. .
2935(54) 0.0 0. .
2911(54) 0.0 0. .
2912(54) 0.0 0. .
2748(52) 0.0 0. .
2746(52) 0.0 0. .
2792(53) 0.0 0. .
2916(54) 0.0 0. .
2948(54) 0.0 0. .
2911(54) 0.0 0. .
2953(54) 0.0 0. .
2896(54) 0.0 0. .
2883(54) 0.0 0. .
2810(53) 0.0 0. .
2691(52) 0.0 0. .
2571(51) 0.0 0. .
2549(50) 0.0 0. .
2653(52) 0.0 0. .
2550(50) 0.0 0. .
2573(51) 0.0 0. .
2521(50) 0.0 0. .
2624(51) 0.0 0. .
2696(52) 0.0 0. .
2585(51) 0.0 0. .
2588(51) 0.0 0. .
2599(51) 0.0 0. .
2534(50) 0.0 0. .
2549(50) 0.0 0. .
2439(49) 0.0 0. .
2367(49) 0.0 0. .
2284(48) 0.0 0. .
2243(47) 0.0 0. .
2264(48) 0.0 0. .
2299(48) 0.0 0. .
2231(47) 0.0 0. .
2224(47) 0.0 0. .
2281(48) 0.0 0. .
2271(48) 0.0 0. .
2239(47) 0.0 0. .
2175(47) 0.0 0. .
2123(46) 0.0 0. .
1999(45) 0.0 0. .
2017(45) 0.0 0. .
1978(44) 0.0 0. .
1843(43) 0.0 0. .
1834(43) 0.0 0. .
1805(42) 0.0 0. .
1762(42) 0.0 0. .
1818(43) 0.0 0. .
1757(42) 0.0 0. .
1676(41) 0.0 0. .
1624(40) 0.0 0. .
1683(41) 0.0 0. .
1672(41) 0.0 0. .
1597(40) 0.0 0. .
1555(39) 0.0 0. .
1510(39) 0.0 0. .
1612(40) 0.0 0. .
1565(40) 0.0 0. .
1523(39) 0.0 0. .
1517(39) 0.0 0. .
1710(41) 0.0 0. .
1668(41) 0.0 0. .
1695(41) 0.0 0. .
1677(41) 0.0 0. .
1650(41) 0.0 0. .
1673(41) 0.0 0. .
1595(40) 0.0 0. .
1492(39) 0.0 0. .
1482(38) 0.0 0. .
1506(39) 0.0 0. .
1419(38) 0.0 0. .
1480(38) 0.0 0. .
1466(38) 0.0 0. .
1455(38) 0.0 0. .
1452(38) 0.0 0. .
1431(38) 0.0 0. .
1447(38) 0.0 0. .
1431(38) 0.0 0. .
1405(37) 0.0 0. .
1390(37) 0.0 0. .
1462(38) 0.0 0. .
1400(37) 0.0 0. .
1339(37) 0.0 0. .
1350(37) 0.0 0. .
1304(36) 0.0 0. .
1369(37) 0.0 0. .
1293(36) 0.0 0. .
1197(35) 0.0 0.0 .
1249(35) 0.0 0. .
1285(36) 0.0 0. .
1330(36) 0.0 0. .
1209(35) 0.0 0.0 .
1175(34) 0.0 0.0 .
1150(34) 0.0 0.0 .
1138(34) 0.0 0.0 .
1173(34) 0.0 0.0 .
1127(34) 0.0 0.0 .
1141(34) 0.0 0.0 .
1129(34) 0.0 0.0 .
1128(34) 0.0 0.0 .
1096(33) 0.0 0.0 .
1072(33) 0.0 0.0 .
1091(33) 0.0 0.0 .
1082(33) 0.0 0.0 .
1020(32) 0.0 0.0 .
1068(33) 0.0 0.0 .
1075(33) 0.0 0.0 .
1006(32) 0.0 0.0 .
987(31) 0.0 0.0 .
1012(32) 0.0 0.0 .
1031(32) 0.0 0.0 .
1041(32) 0.0 0.0 .
1008(32) 0.0 0.0 .
939(31) 0.0 0.0 .
1061(33) 0.0 0.0 .
1043(32) 0.0 0.0 .
1081(33) 0.0 0.0 .
1016(32) 0.0 0.0 .
987(31) 0.0 0.0 .
921(30) 0.0 0.0 .
956(31) 0.0 0.0 .
935(31) 0.0 0.0 .
915(30) 0.0 0.0 .
893(30) 0.0 0.0 .
871(30) 0.0 0.0 .
832(29) 0.0 0.0 .
910(30) 0.0 0.0 .
861(29) 0.0 0.0 .
864(29) 0.0 0.0 .
756(27) 0.0 0.0 .
803(28) 0.0 0.0 .
777(28) 0.0 0.0 .
742(27) 0.0 0.0 .
672(26) 0.0 0.0 .
609(25) 0.0 0.0 .
630(25) 0.0 0.0 .
554(24) 0.0 0.0 .
539(23) 0.0 0.0 .
506(22) 0.0 0.0 .
526(23) 0.0 0.0 .
514(23) 0.0 0.0 .
536(23) 0.0 0.0 .
503(22) 0.0 0.0 .
503(22) 0.0 0.0 .
496(22) 0.0 0.0 .
479(22) 0.0 0.0 .
501(22) 0.0 0.0 .
478(22) 0.0 0.0 .
506(22) 0.0 0.0 .
496(22) 0.0 0.0 .
486(22) 0.0 0.0 .
501(22) 0.0 0.0 .
495(22) 0.0 0.0 .
538(23) 0.0 0.0 .
504(22) 0.0 0.0 .
563(24) 0.0 0.0 .
537(23) 0.0 0.0 .
539(23) 0.0 0.0 .
518(23) 0.0 0.0 .
501(22) 0.0 0.0 .
501(22) 0.0 0.0 .
478(22) 0.0 0.0 .
508(23) 0.0 0.0 .
549(23) 0.0 0.0 .
503(22) 0.0 0.0 .
482(22) 0.0 0.0 .
502(22) 0.0 0.0 .
497(22) 0.0 0.0 .
483(22) 0.0 0.0 .
543(23) 0.0 0.0 .
517(23) 0.0 0.0 .
547(23) 0.0 0.0 .
484(22) 0.0 0.0 .
497(22) 0.0 0.0 .
537(23) 0.0 0.0 .
529(23) 0.0 0.0 .
503(22) 0.0 0.0 .
531(23) 0.0 0.0 .
470(22) 0.0 0.0 .
491(22) 0.0 0.0 .
506(22) 0.0 0.0 .
525(23) 0.0 0.0 .
501(22) 0.0 0.0 .
501(22) 0.0 0.0 .
452(21) 0.0 0.0 .
397(20) 0.0 0.0 .
358(19) 0.0 0.0 .
396(20) 0.0 0.0 .
361(19) 0.0 0.0 .
341(18) 0.0 0.0 .
363(19) 0.0 0.0 .
329(18) 0.0 0.0 .
309(18) 0.0 0.0 .
325(18) 0.0 0.0 .
301(17) 0.0 0.0 .
292(17) 0.0 0.0 .
344(19) 0.0 0.0 .
294(17) 0.0 0.0 .
301(17) 0.0 0.0 .
284(17) 0.0 0.0 .
286(17) 0.0 0.0 .
272(16) 0.0 0.0 .
285(17) 0.0 0.0 .
274(17) 0.0 0.0 .
296(17) 0.0 0.0 .
281(17) 0.0 0.0 .
280(17) 0.0 0.0 .
301(17) 0.0 0.0 .
292(17) 0.0 0.0 .
321(18) 0.0 0.0 .
313(18) 0.0 0.0 .
307(18) 0.0 0.0 .
299(17) 0.0 0.0 .
289(17) 0.0 0.0 .
303(17) 0.0 0.0 .
305(17) 0.0 0.0 .
302(17) 0.0 0.0 .
307(18) 0.0 0.0 .
272(16) 0.0 0.0 .
278(17) 0.0 0.0 .
271(16) 0.0 0.0 .
283(17) 0.0 0.0 .
251(16) 0.0 0.0 .
293(17) 0.0 0.0 .
290(17) 0.0 0.0 .
301(17) 0.0 0.0 .
276(17) 0.0 0.0 .
283(17) 0.0 0.0 .
303(17) 0.0 0.0 .
269(16) 0.0 0.0 .
249(16) 0.0 0.0 .
252(16) 0.0 0.0 .
273(17) 0.0 0.0 .
255(16) 0.0 0.0 .
302(17) 0.0 0.0 .
242(16) 0.0 0.0 .
264(16) 0.0 0.0 .
259(16) 0.0 0.0 .
270(16) 0.0 0.0 .
260(16) 0.0 0.0 .
248(16) 0.0 0.0 .
279(17) 0.0 0.0 .
255(16) 0.0 0.0 .
233(15) 0.0 0.0 .
251(16) 0.0 0.0 .
249(16) 0.0 0.0 .
213(15) 0.0 0.0 .
233(15) 0.0 0.0 .
266(16) 0.0 0.0 .
219(15) 0.0 0.0 .
227(15) 0.0 0.0 .
238(15) 0.0 0.0 .
256(16) 0.0 0.0 .
223(15) 0.0 0.0 .
232(15) 0.0 0.0 .
258(16) 0.0 0.0 .
236(15) 0.0 0.0 .
251(16) 0.0 0.0 .
267(16) 0.0 0.0 .
236(15) 0.0 0.0 .
231(15) 0.0 0.0 .
242(16) 0.0 0.0 .
250(16) 0.0 0.0 .
226(15) 0.0 0.0 .
247(16) 0.0 0.0 .
210(14) 0.0 0.0 .
252(16) 0.0 0.0 .
227(15) 0.0 0.0 .
229(15) 0.0 0.0 .
218(15) 0.0 0.0 .
222(15) 0.0 0.0 .
233(15) 0.0 0.0 .
236(15) 0.0 0.0 .
227(15) 0.0 0.0 .
237(15) 0.0 0.0 .
222(15) 0.0 0.0 .
200(14) 0.0 0.0 .
216(15) 0.0 0.0 .
245(16) 0.0 0.0 .
229(15) 0.0 0.0 .
236(15) 0.0 0.0 .
227(15) 0.0 0.0 .
259(16) 0.0 0.0 .
209(14) 0.0 0.0 .
231(15) 0.0 0.0 .
227(15) 0.0 0.0 .
230(15) 0.0 0.0 .
237(15) 0.0 0.0 .
229(15) 0.0 0.0 .
219(15) 0.0 0.0 .
245(16) 0.0 0.0 .
250(16) 0.0 0.0 .
240(15) 0.0 0.0 .
232(15) 0.0 0.0 .
204(14) 0.0 0.0 .
219(15) 0.0 0.0 .
233(15) 0.0 0.0 .
195(14) 0.0 0.0 .
212(15) 0.0 0.0 .
239(15) 0.0 0.0 .
255(16) 0.0 0.0 .
217(15) 0.0 0.0 .
197(14) 0.0 0.0 .
215(15) 0.0 0.0 .
222(15) 0.0 0.0 .
211(15) 0.0 0.0 .
253(16) 0.0 0.0 .
226(15) 0.0 0.0 .
251(16) 0.0 0.0 .
227(15) 0.0 0.0 .
229(15) 0.0 0.0 .
220(15) 0.0 0.0 .
221(15) 0.0 0.0 .
223(15) 0.0 0.0 .
231(15) 0.0 0.0 .
242(16) 0.0 0.0 .
236(15) 0.0 0.0 .
217(15) 0.0 0.0 .
244(16) 0.0 0.0 .
223(15) 0.0 0.0 .
263(16) 0.0 0.0 .
227(15) 0.0 0.0 .
224(15) 0.0 0.0 .
229(15) 0.0 0.0 .
234(15) 0.0 0.0 .
187(14) 0.0 0.0 .
244(16) 0.0 0.0 .
241(16) 0.0 0.0 .
220(15) 0.0 0.0 .
212(15) 0.0 0.0 .
213(15) 0.0 0.0 .
217(15) 0.0 0.0 .
225(15) 0.0 0.0 .
237(15) 0.0 0.0 .
233(15) 0.0 0.0 .
196(14) 0.0 0.0 .
214(15) 0.0 0.0 .
204(14) 0.0 0.0 .
252(16) 0.0 0.0 .
254(16) 0.0 0.0 .
231(15) 0.0 0.0 .
222(15) 0.0 0.0 .
211(15) 0.0 0.0 .
245(16) 0.0 0.0 .
218(15) 0.0 0.0 .
243(16) 0.0 0.0 .
225(15) 0.0 0.0 .
235(15) 0.0 0.0 .
222(15) 0.0 0.0 .
193(14) 0.0 0.0 .
217(15) 0.0 0.0 .
213(15) 0.0 0.0 .
180(13) 0.0 0.0 .
205(14) 0.0 0.0 .
211(15) 0.0 0.0 .
228(15) 0.0 0.0 .
243(16) 0.0 0.0 .
215(15) 0.0 0.0 .
203(14) 0.0 0.0 .
225(15) 0.0 0.0 .
243(16) 0.0 0.0 .
214(15) 0.0 0.0 .
215(15) 0.0 0.0 .
208(14) 0.0 0.0 .
237(15) 0.0 0.0 .
215(15) 0.0 0.0 .
221(15) 0.0 0.0 .
227(15) 0.0 0.0 .
209(14) 0.0 0.0 .
220(15) 0.0 0.0 .
211(15) 0.0 0.0 .
204(14) 0.0 0.0 .
217(15) 0.0 0.0 .
204(14) 0.0 0.0 .
225(15) 0.0 0.0 .
206(14) 0.0 0.0 .
221(15) 0.0 0.0 .
215(15) 0.0 0.0 .
214(15) 0.0 0.0 .
209(14) 0.0 0.0 .
204(14) 0.0 0.0 .
216(15) 0.0 0.0 .
220(15) 0.0 0.0 .
197(14) 0.0 0.0 .
218(15) 0.0 0.0 .
214(15) 0.0 0.0 .
230(15) 0.0 0.0 .
196(14) 0.0 0.0 .
229(15) 0.0 0.0 .
237(15) 0.0 0.0 .
205(14) 0.0 0.0 .
213(15) 0.0 0.0 .
220(15) 0.0 0.0 .
212(15) 0.0 0.0 .
225(15) 0.0 0.0 .
236(15) 0.0 0.0 .
182(13) 0.0 0.0 .
228(15) 0.0 0.0 .
221(15) 0.0 0.0 .
233(15) 0.0 0.0 .
197(14) 0.0 0.0 .
195(14) 0.0 0.0 .
221(15) 0.0 0.0 .
253(16) 0.0 0.0 .
233(15) 0.0 0.0 .
239(15) 0.0 0.0 .
222(15) 0.0 0.0 .
215(15) 0.0 0.0 .
213(15) 0.0 0.0 .
243(16) 0.0 0.0 .
232(15) 0.0 0.0 .
227(15) 0.0 0.0 .
202(14) 0.0 0.0 .
209(14) 0.0 0.0 .
226(15) 0.0 0.0 .
213(15) 0.0 0.0 .
222(15) 0.0 0.0 .
194(14) 0.0 0.0 .
231(15) 0.0 0.0 .
220(15) 0.0 0.0 .
244(16) 0.0 0.0 .
231(15) 0.0 0.0 .
245(16) 0.0 0.0 .
234(15) 0.0 0.0 .
240(15) 0.0 0.0 .
232(15) 0.0 0.0 .
236(15) 0.0 0.0 .
240(15) 0.0 0.0 .
227(15) 0.0 0.0 .
225(15) 0.0 0.0 .
241(16) 0.0 0.0 .
207(14) 0.0 0.0 .
222(15) 0.0 0.0 .
245(16) 0.0 0.0 .
255(16) 0.0 0.0 .
229(15) 0.0 0.0 .
220(15) 0.0 0.0 .
257(16) 0.0 0.0 .
235(15) 0.0 0.0 .
235(15) 0.0 0.0 .
223(15) 0.0 0.0 .
216(15) 0.0 0.0 .
249(16) 0.0 0.0 .
246(16) 0.0 0.0 .
231(15) 0.0 0.0 .
218(15) 0.0 0.0 .
260(16) 0.0 0.0 .
236(15) 0.0 0.0 .
245(16) 0.0 0.0 .
273(17) 0.0 0.0 .
249(16) 0.0 0.0 .
244(16) 0.0 0.0 .
265(16) 0.0 0.0 .
256(16) 0.0 0.0 .
260(16) 0.0 0.0 .
256(16) 0.0 0.0 .
252(16) 0.0 0.0 .
284(17) 0.0 0.0 .
274(17) 0.0 0.0 .
298(17) 0.0 0.0 .
263(16) 0.0 0.0 .
278(17) 0.0 0.0 .
291(17) 0.0 0.0 .
295(17) 0.0 0.0 .
270(16) 0.0 0.0 .
289(17) 0.0 0.0 .
280(17) 0.0 0.0 .
285(17) 0.0 0.0 .
278(17) 0.0 0.0 .
280(17) 0.0 0.0 .
266(16) 0.0 0.0 .
293(17) 0.0 0.0 .
335(18) 0.0 0.0 .
274(17) 0.0 0.0 .
336(18) 0.0 0.0 .
313(18) 0.0 0.0 .
295(17) 0.0 0.0 .
341(18) 0.0 0.0 .
291(17) 0.0 0.0 .
329(18) 0.0 0.0 .
314(18) 0.0 0.0 .
338(18) 0.0 0.0 .
340(18) 0.0 0.0 .
363(19) 0.0 0.0 .
345(19) 0.0 0.0 .
375(19) 0.0 0.0 .
356(19) 0.0 0.0 .
370(19) 0.0 0.0 .
387(20) 0.0 0.0 .
348(19) 0.0 0.0 .
385(20) 0.0 0.0 .
380(19) 0.0 0.0 .
395(20) 0.0 0.0 .
393(20) 0.0 0.0 .
395(20) 0.0 0.0 .
405(20) 0.0 0.0 .
389(20) 0.0 0.0 .
411(20) 0.0 0.0 .
399(20) 0.0 0.0 .
423(21) 0.0 0.0 .
428(21) 0.0 0.0 .
457(21) 0.0 0.0 .
454(21) 0.0 0.0 .
448(21) 0.0 0.0 .
468(22) 0.0 0.0 .
457(21) 0.0 0.0 .
484(22) 0.0 0.0 .
495(22) 0.0 0.0 .
493(22) 0.0 0.0 .
510(23) 0.0 0.0 .
529(23) 0.0 0.0 .
559(24) 0.0 0.0 .
542(23) 0.0 0.0 .
552(23) 0.0 0.0 .
529(23) 0.0 0.0 .
523(23) 0.0 0.0 .
593(24) 0.0 0.0 .
565(24) 0.0 0.0 .
608(25) 0.0 0.0 .
609(25) 0.0 0.0 .
637(25) 0.0 0.0 .
654(26) 0.0 0.0 .
635(25) 0.0 0.0 .
656(26) 0.0 0.0 .
650(25) 0.0 0.0 .
635(25) 0.0 0.0 .
681(26) 0.0 0.0 .
687(26) 0.0 0.0 .
774(28) 0.0 0.0 .
762(28) 0.0 0.0 .
852(29) 0.0 0.0 .
839(29) 0.0 0.0 .
831(29) 0.0 0.0 .
869(29) 0.0 0.0 .
890(30) 0.0 0.0 .
922(30) 0.0 0.0 .
947(31) 0.0 0.0 .
988(31) 0.0 0.0 .
1007(32) 0.0 0.0 .
1034(32) 0.0 0.0 .
1097(33) 0.0 0.0 .
1163(34) 0.0 0.0 .
1183(34) 0.0 0.0 .
1230(35) 0.0 0.0 .
1308(36) 0.0 0. .
1311(36) 0.0 0. .
1411(38) 0.0 0. .
1493(39) 0.0 0. .
1523(39) 0.0 0. .
1662(41) 0.0 0. .
1780(42) 0.0 0. .
1844(43) 0.0 0. .
2033(45) 0.0 0. .
2250(47) 0.0 0. .
2451(50) 0.0 0. .
2599(51) 0.0 0. .
2934(54) 0.0 0. .
3240(57) 0.0 0. .
3664(61) 0.0 0. .
4230(65) 0.0 0. .
4619(68) 0.0 0. .
4956(70) 0.0 0. .
5316(73) 0.0 0. .
5698(75) 0.0 0. .
5874(77) 0.0 0. .
6230(79) 0.0 0. .
6694(82) 0.0 0. .
7381(86) 0.0 0. .
7859(89) 0.0 0. .
8736(93) 0.0 0. .
9747(99) 0.0 0. .
10900(100) 0.0 0. .
12330(110) 0.0 0. .
14080(120) 0.0 0. .
16370(130) 0.0 0. .
19360(140) 0.0 0. .
23250(150) 0.0 0. .
28460(170) 0.0 0. .
36030(190) 0.0 0. .
46500(220) 0.0 0. .
60690(250) 0.0 0. .
79640(280) 0.0 0. .
103930(320) 0.0 0. .
135820(370) 0.0 0. .
172540(420) 0.0 0. .
214000(460) 0.0 0. .
257610(510) 0.0 0. .
299890(550) 0.0 0. .
326900(570) 0.0 0. .
312960(560) 0.0 0. .
255090(510) 0.0 0. .
191100(440) 0.0 0. .
140090(370) 0.0 0. .
104420(320) 0.0 0. .
79800(280) 0.0 0. .
61710(250) 0.0 0. .
48760(220) 0.0 0. .
39010(200) 0.0 0. .
31800(180) 0.0 0. .
26240(160) 0.0 0. .
22020(150) 0.0 0. .
18390(140) 0.0 0. .
15930(130) 0.0 0. .
13700(120) 0.0 0. .
11930(110) 0.0 0. .
10480(100) 0.0 0. .
9255(96) 0.0 0. .
8229(91) 0.0 0. .
7401(86) 0.0 0. .
6694(82) 0.0 0. .
5978(77) 0.0 0. .
5531(74) 0.0 0. .
5127(72) 0.0 0. .
4632(68) 0.0 0. .
4301(66) 0.0 0. .
3953(63) 0.0 0. .
3639(60) 0.0 0. .
3446(59) 0.0 0. .
3314(58) 0.0 0. .
3040(55) 0.0 0. .
2886(54) 0.0 0. .
2683(52) 0.0 0. .
2691(52) 0.0 0. .
2479(50) 0.0 0. .
2305(48) 0.0 0. .
2243(47) 0.0 0. .
2041(45) 0.0 0. .
1988(45) 0.0 0. .
1914(44) 0.0 0. .
1765(42) 0.0 0. .
1740(42) 0.0 0. .
1672(41) 0.0 0. .
1592(40) 0.0 0. .
1549(39) 0.0 0. .
1563(40) 0.0 0. .
1487(39) 0.0 0. .
1410(38) 0.0 0. .
1332(36) 0.0 0. .
1288(36) 0.0 0. .
1300(36) 0.0 0. .
1207(35) 0.0 0.0 .
1196(35) 0.0 0.0 .
1192(35) 0.0 0.0 .
1101(33) 0.0 0.0 .
1112(33) 0.0 0.0 .
1081(33) 0.0 0.0 .
1080(33) 0.0 0.0 .
1055(32) 0.0 0.0 .
1034(32) 0.0 0.0 .
1010(32) 0.0 0.0 .
935(31) 0.0 0.0 .
970(31) 0.0 0.0 .
924(30) 0.0 0.0 .
943(31) 0.0 0.0 .
901(30) 0.0 0.0 .
883(30) 0.0 0.0 .
918(30) 0.0 0.0 .
904(30) 0.0 0.0 .
872(30) 0.0 0.0 .
872(30) 0.0 0.0 .
787(28) 0.0 0.0 .
806(28) 0.0 0.0 .
859(29) 0.0 0.0 .
811(28) 0.0 0.0 .
809(28) 0.0 0.0 .
758(28) 0.0 0.0 .
765(28) 0.0 0.0 .
794(28) 0.0 0.0 .
783(28) 0.0 0.0 .
716(27) 0.0 0.0 .
769(28) 0.0 0.0 .
774(28) 0.0 0.0 .
785(28) 0.0 0.0 .
800(28) 0.0 0.0 .
740(27) 0.0 0.0 .
769(28) 0.0 0.0 .
760(28) 0.0 0.0 .
765(28) 0.0 0.0 .
782(28) 0.0 0.0 .
721(27) 0.0 0.0 .
776(28) 0.0 0.0 .
810(28) 0.0 0.0 .
745(27) 0.0 0.0 .
756(27) 0.0 0.0 .
776(28) 0.0 0.0 .
795(28) 0.0 0.0 .
780(28) 0.0 0.0 .
763(28) 0.0 0.0 .
786(28) 0.0 0.0 .
829(29) 0.0 0.0 .
837(29) 0.0 0.0 .
855(29) 0.0 0.0 .
861(29) 0.0 0.0 .
860(29) 0.0 0.0 .
920(30) 0.0 0.0 .
924(30) 0.0 0.0 .
935(31) 0.0 0.0 .
962(31) 0.0 0.0 .
931(31) 0.0 0.0 .
1010(32) 0.0 0.0 .
1078(33) 0.0 0.0 .
1033(32) 0.0 0.0 .
1033(32) 0.0 0.0 .
1040(32) 0.0 0.0 .
1104(33) 0.0 0.0 .
1057(33) 0.0 0.0 .
1109(33) 0.0 0.0 .
1076(33) 0.0 0.0 .
1053(32) 0.0 0.0 .
993(32) 0.0 0.0 .
938(31) 0.0 0.0 .
956(31) 0.0 0.0 .
941(31) 0.0 0.0 .
904(30) 0.0 0.0 .
863(29) 0.0 0.0 .
908(30) 0.0 0.0 .
816(29) 0.0 0.0 .
821(29) 0.0 0.0 .
743(27) 0.0 0.0 .
736(27) 0.0 0.0 .
670(26) 0.0 0.0 .
716(27) 0.0 0.0 .
652(26) 0.0 0.0 .
646(25) 0.0 0.0 .
660(26) 0.0 0.0 .
597(24) 0.0 0.0 .
603(25) 0.0 0.0 .
560(24) 0.0 0.0 .
579(24) 0.0 0.0 .
553(24) 0.0 0.0 .
558(24) 0.0 0.0 .
493(22) 0.0 0.0 .
497(22) 0.0 0.0 .
469(22) 0.0 0.0 .
483(22) 0.0 0.0 .
457(21) 0.0 0.0 .
468(22) 0.0 0.0 .
446(21) 0.0 0.0 .
422(21) 0.0 0.0 .
381(20) 0.0 0.0 .
426(21) 0.0 0.0 .
407(20) 0.0 0.0 .
411(20) 0.0 0.0 .
394(20) 0.0 0.0 .
372(19) 0.0 0.0 .
382(20) 0.0 0.0 .
393(20) 0.0 0.0 .
314(18) 0.0 0.0 .
343(19) 0.0 0.0 .
363(19) 0.0 0.0 .
336(18) 0.0 0.0 .
375(19) 0.0 0.0 .
352(19) 0.0 0.0 .
350(19) 0.0 0.0 .
378(19) 0.0 0.0 .
342(18) 0.0 0.0 .
373(19) 0.0 0.0 .
370(19) 0.0 0.0 .
396(20) 0.0 0.0 .
378(19) 0.0 0.0 .
386(20) 0.0 0.0 .
380(19) 0.0 0.0 .
384(20) 0.0 0.0 .
399(20) 0.002506 371.9 4.7
379(19) 0.002639 371.9 4.8
413(20) 0.002421 371.9 4.8
412(20) 0.002427 371.9 4.9
430(21) 0.002326 371.9 5.0
394(20) 0.002538 371.9 5.1
394(20) 0.002538 371.9 5.2
410(20) 0.002439 371.9 5.3
400(20) 0.002500 371.9 5.4
376(19) 0.002660 371.9 5.5
373(19) 0.002681 371.0 5.6
366(19) 0.002732 369.1 5.7
376(19) 0.002660 367.3 5.8
364(19) 0.002747 365.4 6.0
353(19) 0.002833 363.5 6.1
357(19) 0.002801 361.7 6.2
336(18) 0.002976 359.8 6.3
362(19) 0.002762 358.0 6.5
330(18) 0.003030 356.1 6.6
313(18) 0.003195 354.3 6.7
315(18) 0.003175 352.4 6.9
304(17) 0.003289 350.5 7.0
305(17) 0.003279 348.7 7.2
323(18) 0.003096 346.8 7.4
321(18) 0.003115 345.0 7.5
329(18) 0.003039 343.1 7.7
309(18) 0.003236 341.3 7.9
308(18) 0.003247 339.4 8.1
303(17) 0.003300 337.5 8.2
264(16) 0.00379 335.7 8.4
271(16) 0.00369 333.8 8.6
280(17) 0.00357 332.0 8.9
302(17) 0.003311 330.1 9.1
286(17) 0.003497 328.3 9.3
301(17) 0.003322 326.4 9.5
295(17) 0.003390 324.6 9.8
279(17) 0.00358 322.7 10.0
279(17) 0.00358 320.8 10.3
289(17) 0.003460 319.0 10.6
274(17) 0.00365 317.1 10.9
284(17) 0.00352 315.3 11.2
281(17) 0.00356 313.4 11.5
292(17) 0.003425 311.6 11.8
251(16) 0.00398 309.7 12.1
275(17) 0.00364 307.8 12.5
296(17) 0.003378 306.0 12.8
261(16) 0.00383 304.1 13.2
303(17) 0.003300 302.3 13.6
259(16) 0.00386 300.4 14.1
284(17) 0.00352 298.6 14.5
271(16) 0.00369 296.7 15.0
247(16) 0.00405 294.8 15.4
299(17) 0.003344 293.0 15.9
289(17) 0.003460 291.1 16.5
324(18) 0.003086 289.3 17.0
284(17) 0.00352 287.4 17.6
298(17) 0.003356 285.6 18.2
293(17) 0.003413 283.7 18.9
264(16) 0.00379 281.8 19.6
285(17) 0.00351 280.0 20.3
275(17) 0.00364 278.1 21.1
285(17) 0.00351 276.5 21.9
308(18) 0.003247 275.8 22.8
299(17) 0.003344 275.0 23.7
285(17) 0.00351 274.3 24.6
312(18) 0.003205 273.5 25.7
264(16) 0.00379 272.7 26.7
301(17) 0.003322 272.0 27.9
266(16) 0.00376 271.2 29.1
269(16) 0.00372 270.5 30.4
294(17) 0.003401 269.7 31.8
295(17) 0.003390 268.9 33.3
302(17) 0.003311 268.2 35.0
298(17) 0.003356 267.4 36.7
300(17) 0.003333 266.6 38.5
312(18) 0.003205 265.9 40.6
300(17) 0.003333 265.1 42.7
315(18) 0.003175 264.4 45.1
299(17) 0.003344 263.6 47.6
317(18) 0.003155 262.8 50.4
322(18) 0.003106 262.1 53.4
318(18) 0.003145 261.3 56.6
365(19) 0.002740 260.5 60.2
341(18) 0.002933 259.8 64.1
351(19) 0.002849 259.0 68.5
338(18) 0.002959 258.3 73.2
331(18) 0.003021 257.5 78.5
370(19) 0.002703 256.7 84.3
396(20) 0.002525 256.0 90.9
371(19) 0.002695 255.2 98.1
387(20) 0.002584 254.4 106.3
398(20) 0.002513 253.7 115.6
454(21) 0.002203 252.9 126.1
443(21) 0.002257 252.2 138.1
484(22) 0.002066 251.4 152.0
478(22) 0.002092 250.6 168.2
473(22) 0.002114 249.9 187.4
555(24) 0.001802 249.1 210.4
589(24) 0.001698 248.4 238.6
634(25) 0.001577 247.6 273.6
626(25) 0.001597 246.8 317.6
677(26) 0.001477 246.1 373.3
793(28) 0.001261 245.3 444.1
866(29) 0.001155 244.5 533.8
916(30) 0.001092 243.8 646.1
1007(32) 0.000993 243.0 784.7
1094(33) 0.000914 242.3 952.3
1230(35) 0.000813 241.5 1149.9
1410(38) 0.000709 241. 1375.
1488(39) 0.000672 240. 1619.
1687(41) 0.000593 239. 1865.
1803(42) 0.000555 238. 2084.
1965(44) 0.000509 238. 2237.
1927(44) 0.000519 237. 2289.
2044(45) 0.000489 236. 2227.
1882(43) 0.000531 235. 2067.
1680(41) 0.000595 235. 1844.
1412(38) 0.000708 234. 1597.
1187(34) 0.000842 233.1 1354.2
1025(32) 0.000976 232.3 1131.5
890(30) 0.001124 231.6 936.5
738(27) 0.001355 230.8 771.5
721(27) 0.001387 230.1 635.3
630(25) 0.001587 229.3 525.1
590(24) 0.001695 228.5 437.3
549(23) 0.001822 227.8 367.9
463(22) 0.002160 227.0 313.3
483(22) 0.002070 226.3 270.2
430(21) 0.002326 225.5 235.9
444(21) 0.002252 224.7 208.3
433(21) 0.002309 224.0 185.6
422(21) 0.002370 223.2 166.7
420(20) 0.002381 222.4 150.7
409(20) 0.002445 221.7 137.0
390(20) 0.002564 220.9 125.1
379(19) 0.002639 220.2 114.7
382(20) 0.002618 219.4 105.6
367(19) 0.002725 218.6 97.5
386(20) 0.002591 217.9 90.3
347(19) 0.002882 217.1 83.8
366(19) 0.002732 216.3 78.0
376(19) 0.002660 215.6 72.8
375(19) 0.002667 214.8 68.1
336(18) 0.002976 214.1 63.8
396(20) 0.002525 213.3 59.9
384(20) 0.002604 212.5 56.4
374(19) 0.002674 211.8 53.1
360(19) 0.002778 211.0 50.1
370(19) 0.002703 210.2 47.4
356(19) 0.002809 209.5 44.9
343(19) 0.002915 208.7 42.5
367(19) 0.002725 208.0 40.4
355(19) 0.002817 207.2 38.4
381(20) 0.002625 206.4 36.6
361(19) 0.002770 205.7 34.8
352(19) 0.002841 204.9 33.2
359(19) 0.002786 204.1 31.7
337(18) 0.002967 203.4 30.4
345(19) 0.002899 202.6 29.0
327(18) 0.003058 201.9 27.8
292(17) 0.003425 201.1 26.7
326(18) 0.003067 200.3 25.6
319(18) 0.003135 199.6 24.6
309(18) 0.003236 198.8 23.6
278(17) 0.00360 198.1 22.7
281(17) 0.00356 197.3 21.9
279(17) 0.00358 196.5 21.1
278(17) 0.00360 195.8 20.3
275(17) 0.00364 195.0 19.6
302(17) 0.003311 194.2 18.9
270(16) 0.00370 193.5 18.3
235(15) 0.00426 192.7 17.7
225(15) 0.00444 192.0 17.1
250(16) 0.00400 191.2 16.5
237(15) 0.00422 190.4 16.0
248(16) 0.00403 189.7 15.5
237(15) 0.00422 188.9 15.0
215(15) 0.00465 188.1 14.5
250(16) 0.00400 187.4 14.1
223(15) 0.00448 186.6 13.7
195(14) 0.00513 185.9 13.3
224(15) 0.00446 185.1 12.9
217(15) 0.00461 184.3 12.5
213(15) 0.00469 183.6 12.2
208(14) 0.00481 182.8 11.9
227(15) 0.00441 182.0 11.5
219(15) 0.00457 181.3 11.2
197(14) 0.00508 180.5 10.9
237(15) 0.00422 179.8 10.7
171(13) 0.00585 179.0 10.4
198(14) 0.00505 178.2 10.1
183(14) 0.00546 177.5 9.9
202(14) 0.00495 176.7 9.6
194(14) 0.00515 176.0 9.4
191(14) 0.00524 175.2 9.2
190(14) 0.00526 174.4 8.9
165(13) 0.00606 173.7 8.7
197(14) 0.00508 172.9 8.5
195(14) 0.00513 172.1 8.3
193(14) 0.00518 171.4 8.1
167(13) 0.00599 170.6 8.0
155(12) 0.00645 169.9 7.8
171(13) 0.00585 169.1 7.6
170(13) 0.00588 168.3 7.5
165(13) 0.00606 167.6 7.3
166(13) 0.00602 166.8 7.1
157(13) 0.00637 166.0 7.0
150(12) 0.00667 165.3 6.8
158(13) 0.00633 164.5 6.7
179(13) 0.00559 163.8 6.6
180(13) 0.00556 163.0 6.4
168(13) 0.00595 162.2 6.3
146(12) 0.00685 161.5 6.2
155(12) 0.00645 160.7 6.1
140(12) 0.00714 159.9 6.0
177(13) 0.00565 159.2 5.8
147(12) 0.00680 158.4 5.7
157(13) 0.00637 157.7 5.6
144(12) 0.00694 156.9 5.5
137(12) 0.00730 156.1 5.4
167(13) 0.00599 155.4 5.3
146(12) 0.00685 154.6 5.2
174(13) 0.00575 153.9 5.1
151(12) 0.00662 153.1 5.1
144(12) 0.00694 152.3 5.0
160(13) 0.00625 151.6 4.9
156(12) 0.00641 150.8 4.8
151(12) 0.00662 150.0 4.7
137(12) 0.00730 149.3 4.6
140(12) 0.00714 148.5 4.6
158(13) 0.00633 147.8 4.5
142(12) 0.00704 147.0 4.4
156(12) 0.00641 146.2 4.3
164(13) 0.00610 146.0 4.3
145(12) 0.00690 145.8 4.2
157(13) 0.00637 145.6 4.1
167(13) 0.00599 145.4 4.1
149(12) 0.00671 145.1 4.0
162(13) 0.00617 144.9 4.0
123(11) 0.00813 144.7 3.9
144(12) 0.00694 144.5 3.8
148(12) 0.00676 144.3 3.8
164(13) 0.00610 144.0 3.7
162(13) 0.00617 143.8 3.7
149(12) 0.00671 143.6 3.6
130(11) 0.00769 143.4 3.6
153(12) 0.00654 143.2 3.5
168(13) 0.00595 143.0 3.5
149(12) 0.00671 142.7 3.4
136(12) 0.00735 142.5 3.4
137(12) 0.00730 142.3 3.3
149(12) 0.00671 142.1 3.3
129(11) 0.00775 141.9 3.3
144(12) 0.00694 141.6 3.2
169(13) 0.00592 141.4 3.2
147(12) 0.00680 141.2 3.1
163(13) 0.00614 141.0 3.1
139(12) 0.00719 140.8 3.1
149(12) 0.00671 140.6 3.0
151(12) 0.00662 140.3 3.0
156(12) 0.00641 140.1 2.9
159(13) 0.00629 139.9 2.9
154(12) 0.00649 139.7 2.9
149(12) 0.00671 139.5 2.8
148(12) 0.00676 139.2 2.8
138(12) 0.00725 139.0 2.8
139(12) 0.00719 138.8 2.7
161(13) 0.00621 138.6 2.7
146(12) 0.00685 138.4 2.7
143(12) 0.00699 138.1 2.6
148(12) 0.00676 137.9 2.6
141(12) 0.00709 137.7 2.6
144(12) 0.00694 137.5 2.6
159(13) 0.00629 137.3 2.5
158(13) 0.00633 137.1 2.5
153(12) 0.00654 136.8 2.5
145(12) 0.00690 136.6 2.5
157(13) 0.00637 136.4 2.4
144(12) 0.00694 136.2 2.4
132(11) 0.00758 136.0 2.4
129(11) 0.00775 135.7 2.4
145(12) 0.00690 135.5 2.3
130(11) 0.00769 135.3 2.3
143(12) 0.00699 135.1 2.3
129(11) 0.00775 134.9 2.3
147(12) 0.00680 134.7 2.2
144(12) 0.00694 134.4 2.2
163(13) 0.00614 134.2 2.2
140(12) 0.00714 134.0 2.2
151(12) 0.00662 133.8 2.2
140(12) 0.00714 133.6 2.1
136(12) 0.00735 133.3 2.1
126(11) 0.00794 133.1 2.1
153(12) 0.00654 132.9 2.1
150(12) 0.00667 132.7 2.1
130(11) 0.00769 132.5 2.1
155(12) 0.00645 132.2 2.0
153(12) 0.00654 132.0 2.0
140(12) 0.00714 131.8 2.0
154(12) 0.00649 131.6 2.0
123(11) 0.00813 131.4 2.0
142(12) 0.00704 131.2 2.0
147(12) 0.00680 130.9 1.9
144(12) 0.00694 130.7 1.9
144(12) 0.00694 130.5 1.9
149(12) 0.00671 130.3 1.9
133(12) 0.00752 130.1 1.9
132(11) 0.00758 129.8 1.9
133(12) 0.00752 129.6 1.9
140(12) 0.00714 129.4 1.9
117(11) 0.00855 129.2 1.8
156(12) 0.00641 129.0 1.8
136(12) 0.00735 128.8 1.8
161(13) 0.00621 128.5 1.8
122(11) 0.00820 128.3 1.8
148(12) 0.00676 128.1 1.8
142(12) 0.00704 127.9 1.8
140(12) 0.00714 127.7 1.8
138(12) 0.00725 127.4 1.8
118(11) 0.00847 127.2 1.7
127(11) 0.00787 127.0 1.7
135(12) 0.00741 126.8 1.7
136(12) 0.00735 126.6 1.7
140(12) 0.00714 126.4 1.7
132(11) 0.00758 126.1 1.7
136(12) 0.00735 125.9 1.7
118(11) 0.00847 125.7 1.7
136(12) 0.00735 125.5 1.7
155(12) 0.00645 125.3 1.7
144(12) 0.00694 125.0 1.7
142(12) 0.00704 124.8 1.7
115(11) 0.00870 124.6 1.7
148(12) 0.00676 124.4 1.6
139(12) 0.00719 124.2 1.6
160(13) 0.00625 123.9 1.6
156(12) 0.00641 123.7 1.6
143(12) 0.00699 123.5 1.6
130(11) 0.00769 123.3 1.6
145(12) 0.00690 123.1 1.6
150(12) 0.00667 122.9 1.6
149(12) 0.00671 122.6 1.6
131(11) 0.00763 122.4 1.6
126(11) 0.00794 122.2 1.6
133(12) 0.00752 122.0 1.6
128(11) 0.00781 121.8 1.6
143(12) 0.00699 121.5 1.6
144(12) 0.00694 121.3 1.6
152(12) 0.00658 121.1 1.6
130(11) 0.00769 120.9 1.6
142(12) 0.00704 120.7 1.6
159(13) 0.00629 120.5 1.6
121(11) 0.00826 120.2 1.6
128(11) 0.00781 120.0 1.6
141(12) 0.00709 119.8 1.6
137(12) 0.00730 119.6 1.6
123(11) 0.00813 119.4 1.6
132(11) 0.00758 119.1 1.6
128(11) 0.00781 118.9 1.6
128(11) 0.00781 118.7 1.6
143(12) 0.00699 118.5 1.6
156(12) 0.00641 118.3 1.6
132(11) 0.00758 118.0 1.6
157(13) 0.00637 117.8 1.6
150(12) 0.00667 117.6 1.6
135(12) 0.00741 117.4 1.6
137(12) 0.00730 117.2 1.6
137(12) 0.00730 117.0 1.6
141(12) 0.00709 116.7 1.6
134(12) 0.00746 116.5 1.6
135(12) 0.00741 116.3 1.6
135(12) 0.00741 116.1 1.6
143(12) 0.00699 115.9 1.7
161(13) 0.00621 115.6 1.7
146(12) 0.00685 115.4 1.7
128(11) 0.00781 115.2 1.7
147(12) 0.00680 115.0 1.7
134(12) 0.00746 114.8 1.7
127(11) 0.00787 114.6 1.7
133(12) 0.00752 114.3 1.7
124(11) 0.00806 114.1 1.7
149(12) 0.00671 113.9 1.7
146(12) 0.00685 113.7 1.8
127(11) 0.00787 113.5 1.8
140(12) 0.00714 113.2 1.8
140(12) 0.00714 113.0 1.8
146(12) 0.00685 112.8 1.8
158(13) 0.00633 112.6 1.8
132(11) 0.00758 112.4 1.8
132(11) 0.00758 112.2 1.9
134(12) 0.00746 111.9 1.9
140(12) 0.00714 111.7 1.9
132(11) 0.00758 111.5 1.9
134(12) 0.00746 111.3 1.9
143(12) 0.00699 111.1 2.0
137(12) 0.00730 110.8 2.0
136(12) 0.00735 110.6 1.3
127(11) 0.00787 110.4 1.3
136(12) 0.00735 110.2 1.3
123(11) 0.00813 110.0 1.4
132(11) 0.00758 109.7 1.4
129(11) 0.00775 109.5 1.4
160(13) 0.00625 109.3 1.5
133(12) 0.00752 109.1 1.5
129(11) 0.00775 108.9 1.6
159(13) 0.00629 108.7 1.6
140(12) 0.00714 108.4 1.7
142(12) 0.00704 108.2 1.7
125(11) 0.00800 108.0 1.7
148(12) 0.00676 107.8 1.8
144(12) 0.00694 107.6 1.9
126(11) 0.00794 107.3 1.9
143(12) 0.00699 107.1 2.0
149(12) 0.00671 106.9 2.0
139(12) 0.00719 106.7 2.1
150(12) 0.00667 106.5 2.2
160(13) 0.00625 106.3 2.2
137(12) 0.00730 106.0 2.3
131(11) 0.00763 105.8 2.4
142(12) 0.00704 105.6 2.5
144(12) 0.00694 105.4 2.6
143(12) 0.00699 105.2 2.6
130(11) 0.00769 104.9 2.7
137(12) 0.00730 104.7 2.8
152(12) 0.00658 104.5 2.9
130(11) 0.00769 104.3 3.1
138(12) 0.00725 104.1 3.2
141(12) 0.00709 103.9 3.3
143(12) 0.00699 103.6 3.4
139(12) 0.00719 103.4 3.6
132(11) 0.00758 103.2 3.7
150(12) 0.00667 103.0 3.9
146(12) 0.00685 102.8 4.1
137(12) 0.00730 102.5 4.2
130(11) 0.00769 103.0 4.4
163(13) 0.00614 103.5 4.6
155(12) 0.00645 104.0 4.9
165(13) 0.00606 104.5 5.1
146(12) 0.00685 105.0 5.4
146(12) 0.00685 105.5 5.6
136(12) 0.00735 106.0 5.9
147(12) 0.00680 106.5 6.3
155(12) 0.00645 107.0 6.6
155(12) 0.00645 107.5 7.0
154(12) 0.00649 108.0 7.4
153(12) 0.00654 108.5 7.9
138(12) 0.00725 109.0 8.4
157(13) 0.00637 109.5 8.9
136(12) 0.00735 110.0 9.6
151(12) 0.00662 110.5 10.3
155(12) 0.00645 111.1 11.1
141(12) 0.00709 111.6 12.0
149(12) 0.00671 112.1 13.0
161(13) 0.00621 112.6 14.3
169(13) 0.00592 113.1 15.7
158(13) 0.00633 113.6 17.3
162(13) 0.00617 114.1 19.1
164(13) 0.00610 114.6 21.3
163(13) 0.00614 115.1 23.8
140(12) 0.00714 115.6 26.7
176(13) 0.00568 116.1 29.9
168(13) 0.00595 116.6 33.7
162(13) 0.00617 117.1 37.9
136(12) 0.00735 117.6 42.6
165(13) 0.00606 118.1 47.9
186(14) 0.00538 118.6 53.6
178(13) 0.00562 119.1 59.9
179(13) 0.00559 119.6 66.7
173(13) 0.00578 120.1 73.8
181(13) 0.00552 120.6 81.1
175(13) 0.00571 121.1 88.5
169(13) 0.00592 121.6 95.6
174(13) 0.00575 122.1 102.3
164(13) 0.00610 122.6 107.9
177(13) 0.00565 123.1 112.2
161(13) 0.00621 123.6 114.9
153(12) 0.00654 124.1 115.6
175(13) 0.00571 124.6 114.2
172(13) 0.00581 125.1 111.1
163(13) 0.00614 125.6 106.3
155(12) 0.00645 126.1 100.3
167(13) 0.00599 126.6 93.5
169(13) 0.00592 127.1 86.2
179(13) 0.00559 127.6 78.8
170(13) 0.00588 128.1 71.5
153(12) 0.00654 128.6 64.5
148(12) 0.00676 129.1 57.9
154(12) 0.00649 129.6 51.8
156(12) 0.00641 130.1 46.2
163(13) 0.00614 130.6 41.1
164(13) 0.00610 131.1 36.5
180(13) 0.00556 131.6 32.4
167(13) 0.00599 132.1 28.9
171(13) 0.00585 132.6 25.7
168(13) 0.00595 133.1 23.0
149(12) 0.00671 133.6 20.6
160(13) 0.00625 134.1 18.5
166(13) 0.00602 134.6 16.7
162(13) 0.00617 135.1 15.2
170(13) 0.00588 135.6 13.9
168(13) 0.00595 136.1 12.7
138(12) 0.00725 136.6 11.7
172(13) 0.00581 137.1 10.8
144(12) 0.00694 137.6 10.0
156(12) 0.00641 138.1 9.4
180(13) 0.00556 138.6 8.8
146(12) 0.00685 139.1 8.2
142(12) 0.00704 139.6 7.7
146(12) 0.00685 140.1 7.3
165(13) 0.00606 140.6 6.9
142(12) 0.00704 141.1 6.5
136(12) 0.00735 141.6 6.2
149(12) 0.00671 142.1 5.8
164(13) 0.00610 142.6 5.5
168(13) 0.00595 143.1 5.3
170(13) 0.00588 143.6 5.0
160(13) 0.00625 144.1 4.8
164(13) 0.00610 144.6 16.4
166(13) 0.00602 145.1 16.3
144(12) 0.00694 145.6 16.3
157(13) 0.00637 146.1 16.2
163(13) 0.00614 146.6 16.2
156(12) 0.00641 147.1 16.2
146(12) 0.00685 147.6 16.2
156(12) 0.00641 148.1 16.2
150(12) 0.00667 148.6 16.2
169(13) 0.00592 149.1 16.2
151(12) 0.00662 149.6 16.3
165(13) 0.00606 150.1 16.3
171(13) 0.00585 150.6 16.4
154(12) 0.00649 151.1 16.5
163(13) 0.00614 151.6 16.5
159(13) 0.00629 152.1 16.6
154(12) 0.00649 152.6 16.7
171(13) 0.00585 153.1 16.8
162(13) 0.00617 153.6 16.9
144(12) 0.00694 154.1 17.0
160(13) 0.00625 154.6 17.2
167(13) 0.00599 155.1 17.3
154(12) 0.00649 155.6 17.4
177(13) 0.00565 156.1 17.6
151(12) 0.00662 156.6 17.7
148(12) 0.00676 157.1 17.9
172(13) 0.00581 157.6 18.0
169(13) 0.00592 158.1 18.2
143(12) 0.00699 158.6 18.4
150(12) 0.00667 159.1 18.6
162(13) 0.00617 159.6 18.7
169(13) 0.00592 160.1 18.9
156(12) 0.00641 160.6 19.1
182(13) 0.00549 161.1 19.3
169(13) 0.00592 161.6 19.6
156(12) 0.00641 162.1 19.8
156(12) 0.00641 162.6 20.0
181(13) 0.00552 163.1 20.2
170(13) 0.00588 163.6 20.5
154(12) 0.00649 164.1 20.7
167(13) 0.00599 164.6 21.0
178(13) 0.00562 165.1 21.3
187(14) 0.00535 165.6 21.5
195(14) 0.00513 166.1 21.8
185(14) 0.00541 166.6 22.1
216(15) 0.00463 167.1 22.4
182(13) 0.00549 167.6 22.7
198(14) 0.00505 168.1 23.0
177(13) 0.00565 168.6 23.3
200(14) 0.00500 169.1 23.7
191(14) 0.00524 169.6 24.0
210(14) 0.00476 170.1 24.3
218(15) 0.00459 170.6 24.7
189(14) 0.00529 171.1 25.1
215(15) 0.00465 171.6 25.4
203(14) 0.00493 172.1 25.8
185(14) 0.00541 172.6 26.2
217(15) 0.00461 173.1 26.6
211(15) 0.00474 173.6 27.1
195(14) 0.00513 174.1 27.5
216(15) 0.00463 174.6 28.0
190(14) 0.00526 175.1 28.4
224(15) 0.00446 175.6 28.9
214(15) 0.00467 176.1 29.4
211(15) 0.00474 176.6 29.9
220(15) 0.00455 177.1 30.4
223(15) 0.00448 177.6 30.9
206(14) 0.00485 178.1 31.4
197(14) 0.00508 178.6 32.0
190(14) 0.00526 179.1 32.6
183(14) 0.00546 179.6 33.2
186(14) 0.00538 180.1 33.8
184(14) 0.00543 180.6 34.4
193(14) 0.00518 181.1 35.1
192(14) 0.00521 181.6 35.7
191(14) 0.00524 182.1 36.4
176(13) 0.00568 182.6 37.1
208(14) 0.00481 183.1 37.9
184(14) 0.00543 183.6 38.6
178(13) 0.00562 184.1 39.4
192(14) 0.00521 184.6 40.2
176(13) 0.00568 185.1 41.0
227(15) 0.00441 185.6 41.9
194(14) 0.00515 186.1 42.8
195(14) 0.00513 186.6 43.7
177(13) 0.00565 187.1 44.6
196(14) 0.00510 187.3 45.6
196(14) 0.00510 187.4 46.6
183(14) 0.00546 187.6 47.7
198(14) 0.00505 187.7 48.7
188(14) 0.00532 187.9 49.9
189(14) 0.00529 188.0 51.0
184(14) 0.00543 188.1 52.2
193(14) 0.00518 188.3 53.5
196(14) 0.00510 188.4 54.8
193(14) 0.00518 188.6 56.1
189(14) 0.00529 188.7 57.5
206(14) 0.00485 188.9 58.9
202(14) 0.00495 189.0 60.4
201(14) 0.00498 189.1 62.0
187(14) 0.00535 189.3 63.6
208(14) 0.00481 189.4 65.3
181(13) 0.00552 189.6 67.1
190(14) 0.00526 189.7 68.9
199(14) 0.00503 189.9 70.8
214(15) 0.00467 190.0 72.8
198(14) 0.00505 190.1 74.9
211(15) 0.00474 190.3 77.0
221(15) 0.00452 190.4 79.3
194(14) 0.00515 190.6 81.6
213(15) 0.00469 190.7 84.1
228(15) 0.00439 190.8 86.7
199(14) 0.00503 191.0 89.4
233(15) 0.00429 191.1 92.2
232(15) 0.00431 191.3 95.2
215(15) 0.00465 191.4 98.3
227(15) 0.00441 191.6 101.6
215(15) 0.00465 191.7 105.1
242(16) 0.00413 191.8 108.7
247(16) 0.00405 192.0 112.5
232(15) 0.00431 192.1 116.5
243(16) 0.00412 192.3 120.8
231(15) 0.00433 192.4 125.3
240(15) 0.00417 192.6 130.0
245(16) 0.00408 192.7 135.0
253(16) 0.00395 192.8 140.3
248(16) 0.00403 193.0 145.9
267(16) 0.00375 193.1 151.9
260(16) 0.00385 193.3 158.3
284(17) 0.00352 193.4 165.0
253(16) 0.00395 193.6 172.2
319(18) 0.003135 193.7 179.9
286(17) 0.003497 193.8 188.1
307(18) 0.003257 194.0 196.9
317(18) 0.003155 194.1 206.3
284(17) 0.00352 194.3 216.4
329(18) 0.003039 194.4 227.2
348(19) 0.002874 194.6 238.9
342(18) 0.002924 194.7 251.5
322(18) 0.003106 194.8 265.2
351(19) 0.002849 195.0 279.9
369(19) 0.002710 195.1 296.0
408(20) 0.002451 195.3 313.5
400(20) 0.002500 195.4 332.5
433(21) 0.002309 195.6 353.3
427(21) 0.002342 195.7 376.2
424(21) 0.002358 195.8 401.3
444(21) 0.002252 196.0 429.0
463(22) 0.002160 196.1 459.7
542(23) 0.001845 196.3 493.8
577(24) 0.001733 196.4 531.7
624(25) 0.001603 196.6 574.2
656(26) 0.001524 196.7 622.0
715(27) 0.001399 196.8 675.9
820(29) 0.001220 197.0 737.0
799(28) 0.001252 197.1 806.8
910(30) 0.001099 197.3 886.9
945(31) 0.001058 197.4 979.3
1065(33) 0.000939 197.6 1086.7
1155(34) 0.000866 197.7 1212.4
1341(37) 0.000746 198. 1361.
1525(39) 0.000656 198. 1538.
1701(41) 0.000588 198. 1751.
2145(46) 0.000466 198. 2012.
2323(48) 0.000430 198. 2335.
2875(54) 0.0003478 199. 2746.
3392(58) 0.0002948 199. 3284.
4161(65) 0.0002403 199. 4015.
5408(74) 0.0001849 199. 5041.
6932(83) 0.0001443 199. 6509.
8821(94) 0.0001134 199. 8614.
11880(110) 0.0000842 199. 11572.
15880(130) 0.0000630 200. 15562.
20990(150) 0.0000477 200. 20598.
25930(160) 0.0000386 200. 26225.
31190(180) 0.0000321 200. 31059.
32870(180) 0.0000304 200. 32922.
30170(170) 0.0000331 200. 30688.
24860(160) 0.0000402 200. 25688.
19510(140) 0.0000512 201. 20075.
15140(120) 0.0000661 201. 15131.
11730(110) 0.0000852 201. 11244.
9233(96) 0.0001083 201. 8378.
7428(86) 0.0001346 201. 6344.
5952(77) 0.0001680 201. 4926.
4956(70) 0.0002018 201. 3934.
4001(63) 0.0002499 202. 3225.
3380(58) 0.0002959 202. 2701.
2831(53) 0.000353 202. 2300.
2441(49) 0.000410 202. 1984.
2171(47) 0.000461 202. 1729.
1924(44) 0.000520 202. 1519.
1636(40) 0.000611 202. 1345.
1465(38) 0.000683 203. 1199.
1293(36) 0.000773 203. 1076.
1171(34) 0.000854 202.8 969.7
1084(33) 0.000923 203.0 878.6
996(32) 0.001004 203.1 799.6
957(31) 0.001045 203.3 730.7
896(30) 0.001116 203.4 670.3
825(29) 0.001212 203.5 617.0
737(27) 0.001357 203.7 569.8
721(27) 0.001387 203.8 527.8
661(26) 0.001513 204.0 490.2
638(25) 0.001567 204.1 456.5
639(25) 0.001565 204.3 426.1
597(24) 0.001675 204.4 398.7
555(24) 0.001802 204.5 373.8
557(24) 0.001795 204.7 351.1
536(23) 0.001866 204.8 330.5
503(22) 0.001988 205.0 311.6
458(21) 0.002183 205.1 294.3
442(21) 0.002262 205.3 278.4
450(21) 0.002222 205.4 263.7
436(21) 0.002294 205.5 250.1
425(21) 0.002353 205.7 237.6
419(20) 0.002387 205.8 226.0
382(20) 0.002618 206.0 215.2
395(20) 0.002532 206.1 205.7
375(19) 0.002667 206.3 196.4
415(20) 0.002410 206.4 187.7
359(19) 0.002786 206.5 179.5
380(19) 0.002632 206.7 171.9
351(19) 0.002849 206.8 164.7
373(19) 0.002681 207.0 158.0
355(19) 0.002817 207.1 151.7
336(18) 0.002976 207.3 145.8
329(18) 0.003039 207.4 140.2
330(18) 0.003030 207.5 134.9
367(19) 0.002725 207.7 129.9
337(18) 0.002967 207.8 125.2
312(18) 0.003205 208.0 120.8
311(18) 0.003215 208.1 116.5
337(18) 0.002967 208.3 112.5
338(18) 0.002959 208.4 108.7
316(18) 0.003165 208.5 105.1
311(18) 0.003215 208.7 101.7
344(19) 0.002907 208.8 98.4
329(18) 0.003039 209.0 95.3
313(18) 0.003195 209.1 92.4
330(18) 0.003030 209.3 107.5
299(17) 0.003344 209.4 104.9
320(18) 0.003125 209.5 102.5
302(17) 0.003311 209.7 100.2
339(18) 0.002950 209.8 98.0
293(17) 0.003413 210.0 96.0
328(18) 0.003049 210.1 94.0
293(17) 0.003413 210.3 92.1
309(18) 0.003236 210.4 90.3
289(17) 0.003460 210.5 88.6
326(18) 0.003067 210.7 86.9
306(17) 0.003268 210.8 85.4
330(18) 0.003030 211.0 83.9
314(18) 0.003185 211.1 82.4
282(17) 0.00355 211.3 81.1
321(18) 0.003115 211.4 79.8
325(18) 0.003077 211.5 78.5
293(17) 0.003413 211.7 77.3
304(17) 0.003289 211.8 76.2
306(17) 0.003268 212.0 75.1
293(17) 0.003413 212.1 74.1
274(17) 0.00365 212.3 73.1
302(17) 0.003311 212.4 72.1
323(18) 0.003096 212.5 71.2
289(17) 0.003460 212.7 70.4
304(17) 0.003289 212.8 69.6
285(17) 0.00351 213.0 68.8
278(17) 0.00360 213.1 68.0
265(16) 0.00377 213.2 67.3
283(17) 0.00353 213.4 66.7
286(17) 0.003497 213.5 66.0
291(17) 0.003436 213.7 65.4
302(17) 0.003311 213.8 64.8
331(18) 0.003021 214.0 64.3
279(17) 0.00358 214.1 63.8
262(16) 0.00382 214.2 63.3
290(17) 0.003448 214.4 62.8
292(17) 0.003425 214.5 62.4
248(16) 0.00403 214.7 61.9
290(17) 0.003448 214.8 61.6
285(17) 0.00351 215.0 61.2
264(16) 0.00379 215.1 60.8
230(15) 0.00435 215.2 60.5
253(16) 0.00395 215.4 60.2
230(15) 0.00435 215.5 60.0
224(15) 0.00446 215.7 59.7
208(14) 0.00481 215.8 59.5
223(15) 0.00448 216.0 59.3
227(15) 0.00441 216.1 59.1
223(15) 0.00448 216.2 58.9
228(15) 0.00439 216.4 58.7
227(15) 0.00441 216.5 58.6
267(16) 0.00375 216.7 58.5
260(16) 0.00385 216.8 58.4
220(15) 0.00455 217.0 58.3
221(15) 0.00452 217.1 58.2
226(15) 0.00442 217.2 58.2
220(15) 0.00455 217.4 58.1
231(15) 0.00433 217.5 58.1
206(14) 0.00485 217.7 58.1
234(15) 0.00427 217.8 58.2
234(15) 0.00427 218.0 58.2
224(15) 0.00446 218.1 58.3
221(15) 0.00452 218.2 58.3
232(15) 0.00431 218.4 58.4
230(15) 0.00435 218.8 58.5
234(15) 0.00427 219.1 58.6
227(15) 0.00441 219.5 58.8
239(15) 0.00418 219.8 58.9
219(15) 0.00457 220.2 59.1
218(15) 0.00459 220.5 59.3
222(15) 0.00450 220.9 59.5
223(15) 0.00448 221.2 59.7
227(15) 0.00441 221.6 59.9
216(15) 0.00463 221.9 60.2
235(15) 0.00426 222.3 60.4
209(14) 0.00478 222.6 60.7
246(16) 0.00407 223.0 61.0
230(15) 0.00435 223.3 61.3
226(15) 0.00442 223.7 61.7
223(15) 0.00448 224.0 62.0
218(15) 0.00459 224.4 62.4
215(15) 0.00465 224.7 62.8
244(16) 0.00410 225.1 63.2
241(16) 0.00415 225.4 63.6
234(15) 0.00427 225.8 64.1
237(15) 0.00422 226.1 64.5
245(16) 0.00408 226.5 65.0
253(16) 0.00395 226.8 65.5
254(16) 0.00394 227.1 66.0
244(16) 0.00410 227.5 66.5
244(16) 0.00410 227.8 67.1
228(15) 0.00439 228.2 67.7
232(15) 0.00431 228.5 68.3
218(15) 0.00459 228.9 68.9
245(16) 0.00408 229.2 69.5
228(15) 0.00439 229.6 70.2
221(15) 0.00452 229.9 70.9
233(15) 0.00429 230.3 71.6
235(15) 0.00426 230.6 72.3
255(16) 0.00392 231.0 73.1
257(16) 0.00389 231.3 73.9
220(15) 0.00455 231.7 74.7
247(16) 0.00405 232.0 75.5
238(15) 0.00420 232.4 76.4
273(17) 0.00366 232.7 77.3
244(16) 0.00410 233.1 78.2
262(16) 0.00382 233.4 79.2
276(17) 0.00362 233.8 80.2
251(16) 0.00398 234.1 81.2
238(15) 0.00420 234.5 82.2
238(15) 0.00420 234.8 83.3
280(17) 0.00357 235.2 84.4
253(16) 0.00395 235.5 85.6
258(16) 0.00388 235.9 86.7
229(15) 0.00437 236.2 88.0
264(16) 0.00379 236.6 89.2
241(16) 0.00415 236.9 90.5
241(16) 0.00415 237.3 91.9
258(16) 0.00388 237.6 93.3
248(16) 0.00403 237.9 94.7
264(16) 0.00379 238.3 96.2
259(16) 0.00386 238.6 97.7
254(16) 0.00394 239.0 99.3
248(16) 0.00403 239.3 100.9
269(16) 0.00372 239.7 102.6
260(16) 0.00385 240.0 104.3
291(17) 0.003436 240.4 106.1
285(17) 0.00351 240.7 108.0
300(17) 0.003333 241.1 109.9
304(17) 0.003289 241.4 111.9
287(17) 0.003484 241.8 113.9
294(17) 0.003401 242.1 106.5
309(18) 0.003236 242.5 108.8
276(17) 0.00362 242.8 111.1
328(18) 0.003049 243.2 113.6
317(18) 0.003155 243.5 116.1
330(18) 0.003030 243.9 118.7
339(18) 0.002950 244.2 121.4
317(18) 0.003155 244.6 124.2
301(17) 0.003322 244.9 127.1
322(18) 0.003106 245.3 130.1
344(19) 0.002907 245.6 133.1
365(19) 0.002740 246.0 136.3
347(19) 0.002882 246.3 139.7
354(19) 0.002825 246.7 143.1
353(19) 0.002833 247.0 146.7
382(20) 0.002618 247.4 150.4
384(20) 0.002604 247.7 154.2
414(20) 0.002415 248.1 158.3
380(19) 0.002632 248.4 162.4
411(20) 0.002433 248.8 166.7
380(19) 0.002632 249.1 171.2
425(21) 0.002353 249.4 175.9
424(21) 0.002358 249.8 180.8
417(20) 0.002398 250.1 185.9
432(21) 0.002315 250.5 191.2
428(21) 0.002336 250.8 196.7
426(21) 0.002347 251.2 202.5
465(22) 0.002151 251.5 208.5
468(22) 0.002137 251.9 214.9
494(22) 0.002024 252.2 221.5
511(23) 0.001957 252.6 228.4
509(23) 0.001965 252.9 235.6
524(23) 0.001908 253.3 243.2
547(23) 0.001828 253.6 251.2
555(24) 0.001802 254.0 259.5
617(25) 0.001621 254.3 268.3
647(25) 0.001546 254.7 277.6
715(27) 0.001399 255.0 287.3
714(27) 0.001401 255.4 297.5
774(28) 0.001292 255.7 308.3
751(27) 0.001332 256.1 319.7
781(28) 0.001280 256.4 331.8
729(27) 0.001372 256.8 344.5
719(27) 0.001391 257.1 358.0
711(27) 0.001406 257.5 372.3
748(27) 0.001337 257.8 387.5
734(27) 0.001362 258.2 403.6
756(27) 0.001323 258.5 420.7
704(27) 0.001420 258.9 439.0
776(28) 0.001289 259.2 458.4
777(28) 0.001287 259.6 479.2
742(27) 0.001348 259.9 501.5
788(28) 0.001269 260.2 525.3
811(28) 0.001233 260.6 550.8
828(29) 0.001208 260.9 578.2
821(29) 0.001218 261.3 607.8
870(29) 0.001149 261.6 639.6
873(30) 0.001145 262.0 674.1
906(30) 0.001104 262.3 711.3
951(31) 0.001052 262.7 751.8
922(30) 0.001085 263.0 795.7
945(31) 0.001058 263.4 843.6
998(32) 0.001002 263.7 896.0
1093(33) 0.000915 264.1 953.3
1145(34) 0.000873 264.4 1016.3
1173(34) 0.000853 264.8 1085.6
1235(35) 0.000810 265. 1162.
1272(36) 0.000786 265. 1247.
1334(37) 0.000750 266. 1342.
1491(39) 0.000671 266. 1447.
1580(40) 0.000633 267. 1566.
1713(41) 0.000584 267. 1699.
1885(43) 0.000531 267. 1850.
2028(45) 0.000493 268. 2022.
2160(46) 0.000463 268. 2218.
2452(50) 0.000408 268. 2444.
2756(52) 0.000363 269. 2706.
3084(56) 0.0003243 269. 3014.
3498(59) 0.0002859 269. 3379.
3983(63) 0.0002511 270. 3821.
4539(67) 0.0002203 270. 4364.
5252(72) 0.0001904 270. 5046.
6327(80) 0.0001581 271. 5923.
7302(85) 0.0001369 271. 7061.
8797(94) 0.0001137 271. 8554.
10700(100) 0.0000935 272. 10510.
13190(120) 0.0000758 272. 13048.
16180(130) 0.0000618 272. 16279.
20430(140) 0.0000489 273. 20288.
25700(160) 0.0000389 273. 25088.
32230(180) 0.0000310 273. 30544.
39110(200) 0.0000256 274. 36257.
45200(210) 0.0000221 274. 41424.
48750(220) 0.0000205 275. 44875.
47390(220) 0.0000211 275. 45546.
42520(210) 0.0000235 275. 43200.
36380(190) 0.0000275 276. 38622.
30840(180) 0.0000324 276. 33024.
25510(160) 0.0000392 276. 27392.
21190(150) 0.0000472 277. 22286.
18200(140) 0.0000550 277. 17936.
15140(120) 0.0000660 277. 14382.
12910(110) 0.0000775 278. 11563.
11150(110) 0.0000897 278. 9377.
9647(98) 0.0001037 278. 7705.
8373(92) 0.0001194 279. 6432.
7354(86) 0.0001360 279. 5461.
6437(80) 0.0001554 279. 4711.
5671(75) 0.0001763 280. 4122.
4945(70) 0.0002022 280. 3651.
4467(67) 0.0002239 280. 3267.
4031(63) 0.0002481 281. 2951.
3646(60) 0.0002743 281. 2686.
3345(58) 0.0002990 282. 2466.
3111(56) 0.0003214 282. 2282.
2926(54) 0.0003418 282. 2131.
2779(53) 0.000360 283. 2009.
2427(49) 0.000412 283. 1916.
2364(49) 0.000423 283. 1851.
2255(47) 0.000443 284. 1814.
2166(47) 0.000462 284. 1805.
2179(47) 0.000459 284. 1824.
2153(46) 0.000464 285. 1870.
2087(46) 0.000479 285. 1941.
2174(47) 0.000460 285. 2030.
2306(48) 0.000434 286. 2128.
2313(48) 0.000432 286. 2219.
2460(50) 0.000407 286. 2278.
2559(51) 0.000391 287. 2284.
2531(50) 0.000395 287. 2224.
2436(49) 0.000411 287. 2102.
2283(48) 0.000438 288. 1937.
1966(44) 0.000509 288. 1751.
1733(42) 0.000577 288. 1563.
1565(40) 0.000639 289. 1385.
1327(36) 0.000754 289. 1225.
1258(35) 0.000795 290. 1085.
1034(32) 0.000967 289.9 964.0
989(31) 0.001011 290.2 861.9
922(30) 0.001085 290.6 776.4
877(30) 0.001140 290.9 705.2
780(28) 0.001282 291.3 645.9
747(27) 0.001339 291.6 596.3
762(28) 0.001312 292.0 554.4
673(26) 0.001486 292.3 518.5
662(26) 0.001511 292.7 487.5
624(25) 0.001603 293.0 460.3
596(24) 0.001678 293.3 436.1
575(24) 0.001739 293.7 414.4
554(24) 0.001805 294.0 394.7
570(24) 0.001754 294.4 376.7
521(23) 0.001919 294.7 360.2
559(24) 0.001789 295.1 345.0
505(22) 0.001980 295.4 332.7
513(23) 0.001949 295.8 319.7
463(22) 0.002160 296.1 307.5
481(22) 0.002079 296.5 296.1
447(21) 0.002237 296.8 285.5
414(20) 0.002415 297.2 275.5
452(21) 0.002212 297.5 266.1
439(21) 0.002278 297.9 257.3
407(20) 0.002457 298.2 249.0
429(21) 0.002331 298.6 241.2
430(21) 0.002326 298.9 233.7
408(20) 0.002451 299.3 226.7
421(21) 0.002375 299.6 220.1
385(20) 0.002597 300.0 213.8
397(20) 0.002519 300.3 207.8
375(19) 0.002667 300.7 202.1
409(20) 0.002445 301.0 196.7
379(19) 0.002639 301.4 191.5
399(20) 0.002506 301.7 186.6
367(19) 0.002725 302.1 182.0
371(19) 0.002695 302.4 177.5
353(19) 0.002833 302.8 173.2
373(19) 0.002681 303.1 169.2
368(19) 0.002717 303.5 165.3
351(19) 0.002849 303.8 161.6
356(19) 0.002809 304.2 158.0
334(18) 0.002994 304.5 154.7
376(19) 0.002660 304.8 151.4
359(19) 0.002786 305.2 148.3
316(18) 0.003165 305.5 145.4
360(19) 0.002778 305.9 142.6
347(19) 0.002882 306.2 139.9
370(19) 0.002703 306.6 137.3
301(17) 0.003322 306.9 134.8
319(18) 0.003135 307.3 132.4
332(18) 0.003012 307.6 130.2
307(18) 0.003257 308.0 128.0
312(18) 0.003205 308.1 126.0
307(18) 0.003257 308.1 124.0
317(18) 0.003155 308.1 122.1
332(18) 0.003012 308.1 120.3
314(18) 0.003185 308.1 118.6
306(17) 0.003268 308.1 117.0
288(17) 0.003472 308.1 115.5
321(18) 0.003115 308.1 114.0
304(17) 0.003289 308.1 112.7
304(17) 0.003289 308.1 111.4
372(19) 0.002688 308.1 110.2
327(18) 0.003058 308.1 109.1
309(18) 0.003236 308.1 108.0
312(18) 0.003205 308.1 107.1
286(17) 0.003497 308.1 106.2
315(18) 0.003175 308.1 105.4
316(18) 0.003165 308.1 104.7
334(18) 0.002994 308.1 104.0
353(19) 0.002833 308.1 103.5
338(18) 0.002959 308.1 103.0
414(20) 0.002415 308.1 102.6
446(21) 0.002242 308.1 102.4
457(21) 0.002188 308.1 102.2
444(21) 0.002252 308.1 102.1
441(21) 0.002268 308.1 102.1
391(20) 0.002558 308.1 102.2
352(19) 0.002841 308.1 102.4
337(18) 0.002967 308.1 102.8
338(18) 0.002959 308.1 103.3
302(17) 0.003311 308.1 103.9
342(18) 0.002924 308.1 104.7
343(19) 0.002915 308.1 105.6
349(19) 0.002865 308.1 106.8
334(18) 0.002994 308.1 108.1
335(18) 0.002985 308.1 109.6
323(18) 0.003096 308.1 111.3
345(19) 0.002899 308.1 113.3
341(18) 0.002933 308.1 115.6
342(18) 0.002924 308.1 118.2
331(18) 0.003021 308.1 121.1
359(19) 0.002786 308.1 124.5
374(19) 0.002674 308.1 128.3
353(19) 0.002833 308.1 132.6
348(19) 0.002874 308.1 137.5
362(19) 0.002762 308.1 143.1
376(19) 0.002660 308.1 149.4
379(19) 0.002639 308.1 156.7
379(19) 0.002639 308.1 165.0
401(20) 0.002494 308.1 174.6
411(20) 0.002433 308.1 185.8
481(22) 0.002079 308.1 198.7
443(21) 0.002257 308.1 213.9
505(22) 0.001980 308.1 231.8
535(23) 0.001869 308.1 253.2
527(23) 0.001898 308.1 278.8
583(24) 0.001715 308.1 309.9
593(24) 0.001686 308.1 348.3
653(26) 0.001531 308.1 396.8
785(28) 0.001274 308.1 459.7
856(29) 0.001168 308.1 544.1
989(31) 0.001011 308.1 661.1
1186(34) 0.000843 308.1 826.5
1365(37) 0.000733 308. 1061.
1779(42) 0.000562 308. 1390.
2232(47) 0.000448 308. 1833.
2768(53) 0.000361 308. 2397.
3400(58) 0.0002941 308. 3046.
3920(63) 0.0002551 308. 3651.
4206(65) 0.0002378 308. 3979.
4090(64) 0.0002445 308. 3850.
3470(59) 0.0002882 308. 3346.
2826(53) 0.000354 308. 2707.
2210(47) 0.000452 308. 2114.
1944(44) 0.000514 308. 1637.
1629(40) 0.000614 308. 1283.
1474(38) 0.000678 308. 1037.
1333(37) 0.000750 308. 877.
1308(36) 0.000765 308. 784.
1237(35) 0.000808 308. 746.
1227(35) 0.000815 308.1 757.6
1312(36) 0.000762 308. 822.
1373(37) 0.000728 308. 948.
1480(38) 0.000676 308. 1146.
1669(41) 0.000599 308. 1418.
1854(43) 0.000539 308. 1746.
2161(46) 0.000463 308. 2055.
2377(49) 0.000421 308. 2206.
2305(48) 0.000434 308. 2099.
2176(47) 0.000460 308. 1792.
1803(42) 0.000555 308. 1428.
1378(37) 0.000726 308. 1100.
1077(33) 0.000929 308.1 840.2
869(29) 0.001151 308.1 647.6
771(28) 0.001297 308.1 510.1
602(25) 0.001661 308.1 413.4
539(23) 0.001855 308.1 345.0
535(23) 0.001869 308.1 295.4
442(21) 0.002262 308.1 258.1
467(22) 0.002141 308.1 229.1
432(21) 0.002315 308.1 205.9
439(21) 0.002278 308.1 186.8
414(20) 0.002415 308.1 171.0
405(20) 0.002469 308.1 157.6
396(20) 0.002525 308.1 146.2
375(19) 0.002667 308.1 136.3
410(20) 0.002439 308.1 127.8
385(20) 0.002597 308.1 120.4
369(19) 0.002710 308.1 113.8
394(20) 0.002538 308.1 108.0
371(19) 0.002695 308.1 102.9
387(20) 0.002584 308.1 98.2
377(19) 0.002653 308.1 94.1
361(19) 0.002770 308.1 90.4
382(20) 0.002618 308.1 87.0
356(19) 0.002809 308.1 84.0
334(18) 0.002994 308.1 81.2
347(19) 0.002882 308.1 78.6
368(19) 0.002717 308.1 76.3
366(19) 0.002732 308.1 74.2
371(19) 0.002695 308.1 72.2
308(18) 0.003247 308.1 70.4
349(19) 0.002865 308.1 68.7
380(19) 0.002632 308.1 67.2
350(19) 0.002857 308.1 65.8
372(19) 0.002688 308.1 64.5
311(18) 0.003215 308.1 63.3
343(19) 0.002915 308.1 62.2
337(18) 0.002967 308.1 61.1
358(19) 0.002793 308.1 60.2
345(19) 0.002899 308.1 59.3
357(19) 0.002801 308.1 58.5
365(19) 0.002740 308.1 57.7
379(19) 0.002639 308.1 57.0
315(18) 0.003175 308.1 56.3
361(19) 0.002770 308.1 55.8
345(19) 0.002899 308.1 55.2
378(19) 0.002646 308.1 54.7
388(20) 0.002577 308.1 54.3
370(19) 0.002703 308.1 53.9
379(19) 0.002639 308.1 53.5
372(19) 0.002688 308.1 53.2
351(19) 0.002849 308.1 52.9
348(19) 0.002874 308.1 52.6
358(19) 0.002793 308.1 52.4
343(19) 0.002915 308.1 52.2
346(19) 0.002890 308.1 52.0
349(19) 0.002865 308.1 51.9
360(19) 0.002778 308.1 51.8
357(19) 0.002801 308.1 51.8
341(18) 0.002933 308.1 51.7
348(19) 0.002874 308.1 51.7
373(19) 0.002681 308.1 51.8
362(19) 0.002762 308.1 51.8
385(20) 0.002597 308.1 51.9
366(19) 0.002732 308.1 52.0
364(19) 0.002747 308.1 52.2
344(19) 0.002907 308.1 52.4
366(19) 0.002732 308.1 52.6
358(19) 0.002793 308.1 52.8
362(19) 0.002762 308.1 53.1
330(18) 0.003030 308.1 53.4
324(18) 0.003086 308.1 53.7
355(19) 0.002817 308.1 54.1
343(19) 0.002915 308.1 54.5
308(18) 0.003247 308.1 54.9
313(18) 0.003195 308.1 55.4
327(18) 0.003058 308.1 55.9
313(18) 0.003195 308.1 56.4
341(18) 0.002933 308.1 57.0
298(17) 0.003356 308.1 57.7
287(17) 0.003484 308.1 58.3
336(18) 0.002976 308.1 59.0
320(18) 0.003125 308.1 59.8
333(18) 0.003003 308.1 60.6
314(18) 0.003185 308.1 61.4
317(18) 0.003155 308.1 62.3
315(18) 0.003175 307.9 63.3
318(18) 0.003145 307.6 64.3
301(17) 0.003322 307.3 65.3
332(18) 0.003012 307.1 66.5
335(18) 0.002985 306.8 67.6
306(17) 0.003268 306.6 68.9
323(18) 0.003096 306.3 70.2
332(18) 0.003012 306.0 71.6
339(18) 0.002950 305.8 73.1
308(18) 0.003247 305.5 74.7
322(18) 0.003106 305.2 76.3
302(17) 0.003311 305.0 78.1
309(18) 0.003236 304.7 79.9
324(18) 0.003086 304.5 81.9
326(18) 0.003067 304.2 84.0
338(18) 0.002959 303.9 86.1
319(18) 0.003135 303.7 88.5
300(17) 0.003333 303.4 90.9
296(17) 0.003378 303.1 93.6
336(18) 0.002976 302.9 96.3
324(18) 0.003086 302.6 99.3
314(18) 0.003185 302.4 102.4
308(18) 0.003247 302.1 105.7
343(19) 0.002915 301.8 109.3
327(18) 0.003058 301.6 113.1
332(18) 0.003012 301.3 117.1
366(19) 0.002732 301.0 121.5
367(19) 0.002725 300.8 126.1
359(19) 0.002786 300.5 131.0
388(20) 0.002577 300.3 136.3
374(19) 0.002674 300.0 142.1
367(19) 0.002725 299.7 148.2
385(20) 0.002597 299.5 154.8
393(20) 0.002545 299.2 161.9
377(19) 0.002653 298.9 169.7
423(21) 0.002364 298.7 178.0
394(20) 0.002538 298.4 187.1
439(21) 0.002278 298.1 196.9
436(21) 0.002294 297.9 207.7
454(21) 0.002203 297.6 219.4
485(22) 0.002062 297.4 232.2
485(22) 0.002062 297.1 246.4
495(22) 0.002020 296.8 261.9
510(23) 0.001961 296.6 279.0
547(23) 0.001828 296.3 288.3
570(24) 0.001754 296.0 309.6
627(25) 0.001595 295.8 333.3
635(25) 0.001575 295.5 360.1
649(25) 0.001541 295.3 390.4
674(26) 0.001484 295.0 425.1
772(28) 0.001295 294.7 465.2
860(29) 0.001163 294.5 512.2
889(30) 0.001125 294.2 567.8
965(31) 0.001036 293.9 634.6
1019(32) 0.000981 293.7 715.6
1145(34) 0.000873 293.4 814.7
1256(35) 0.000796 293. 936.
1388(37) 0.000720 293. 1086.
1553(39) 0.000644 293. 1269.
1896(44) 0.000527 292. 1492.
1970(44) 0.000508 292. 1760.
2321(48) 0.000431 292. 2077.
2667(52) 0.000375 292. 2447.
3172(56) 0.0003153 291. 2866.
3766(61) 0.0002655 291. 3330.
4230(65) 0.0002364 291. 3819.
4878(70) 0.0002050 291. 4306.
5407(74) 0.0001849 290. 4746.
5696(75) 0.0001756 290. 5088.
5856(77) 0.0001708 290. 5287.
5633(75) 0.0001775 289. 5327.
5381(73) 0.0001858 289. 5226.
5106(71) 0.0001958 289. 5027.
4831(70) 0.0002070 289. 4776.
4634(68) 0.0002158 288. 4507.
4423(67) 0.0002261 288. 4235.
4204(65) 0.0002379 288. 3963.
4050(64) 0.0002469 288. 3684.
3637(60) 0.0002750 287. 3392.
3363(58) 0.0002974 287. 3089.
3100(56) 0.0003226 287. 2780.
2776(53) 0.000360 287. 2475.
2557(51) 0.000391 286. 2185.
2291(48) 0.000436 286. 1917.
2068(45) 0.000484 286. 1675.
1872(43) 0.000534 286. 1460.
1645(41) 0.000608 285. 1272.
1669(41) 0.000599 285. 1109.
1419(38) 0.000705 285. 969.
1314(36) 0.000761 284. 849.
1212(35) 0.000825 284.2 747.2
1142(34) 0.000876 284.0 661.0
1063(33) 0.000941 283.7 588.3
972(31) 0.001029 283.4 526.9
989(31) 0.001011 283.2 474.9
919(30) 0.001088 282.9 430.8
818(29) 0.001222 282.6 393.0
791(28) 0.001264 282.4 360.5
708(27) 0.001412 282.1 332.3
715(27) 0.001399 281.9 307.6
646(25) 0.001548 281.6 285.8
637(25) 0.001570 281.3 266.4
614(25) 0.001629 281.1 249.0
535(23) 0.001869 280.8 233.4
531(23) 0.001883 280.5 219.2
524(23) 0.001908 280.3 206.3
492(22) 0.002033 280.0 194.6
449(21) 0.002227 279.7 183.8
443(21) 0.002257 279.5 173.9
470(22) 0.002128 279.2 164.8
454(21) 0.002203 279.0 156.4
485(22) 0.002062 278.7 148.6
471(22) 0.002123 278.4 141.4
458(21) 0.002183 278.2 134.7
428(21) 0.002336 277.9 128.5
393(20) 0.002545 277.6 122.7
413(20) 0.002421 277.4 117.3
417(20) 0.002398 277.1 112.3
416(20) 0.002404 276.9 107.5
407(20) 0.002457 276.6 103.1
368(19) 0.002717 276.3 98.9
371(19) 0.002695 276.1 95.0
334(18) 0.002994 275.8 91.4
382(20) 0.002618 275.5 87.9
337(18) 0.002967 275.3 84.6
344(19) 0.002907 275.0 81.6
340(18) 0.002941 274.8 78.6
343(19) 0.002915 274.5 75.9
339(18) 0.002950 274.2 73.3
316(18) 0.003165 274.0 70.8
297(17) 0.003367 273.7 68.4
301(17) 0.003322 273.4 66.2
290(17) 0.003448 273.2 64.1
322(18) 0.003106 272.9 62.1
292(17) 0.003425 272.7 60.2
312(18) 0.003205 272.4 58.3
307(18) 0.003257 272.1 56.6
300(17) 0.003333 271.9 54.9
296(17) 0.003378 271.6 53.3
306(17) 0.003268 271.3 51.8
318(18) 0.003145 271.1 50.4
291(17) 0.003436 270.8 49.0
274(17) 0.00365 270.5 47.6
307(18) 0.003257 270.3 46.4
275(17) 0.00364 270.0 45.1
287(17) 0.003484 269.8 44.0
284(17) 0.00352 269.5 42.8
279(17) 0.00358 269.2 41.8
284(17) 0.00352 269.0 40.7
265(16) 0.00377 268.7 39.7
280(17) 0.00357 268.4 38.8
289(17) 0.003460 268.2 37.9
298(17) 0.003356 267.9 37.0
274(17) 0.00365 267.7 36.1
279(17) 0.00358 267.4 35.3
259(16) 0.00386 267.1 34.5
287(17) 0.003484 266.9 33.7
268(16) 0.00373 266.6 33.0
297(17) 0.003367 266.3 32.3
297(17) 0.003367 266.1 31.6
277(17) 0.00361 265.8 30.9
291(17) 0.003436 265.6 30.3
282(17) 0.00355 265.3 29.7
244(16) 0.00410 265.2 29.1
265(16) 0.00377 265.3 28.5
289(17) 0.003460 265.4 28.0
283(17) 0.00353 265.5 27.4
252(16) 0.00397 265.5 26.9
245(16) 0.00408 265.6 26.4
259(16) 0.00386 265.7 25.9
266(16) 0.00376 265.8 25.4
274(17) 0.00365 265.9 25.0
261(16) 0.00383 266.0 24.5
297(17) 0.003367 266.1 24.1
260(16) 0.00385 266.2 23.7
254(16) 0.00394 266.2 23.3
276(17) 0.00362 266.3 22.9
277(17) 0.00361 266.4 22.5
296(17) 0.003378 266.5 22.2
246(16) 0.00407 266.6 21.8
255(16) 0.00392 266.7 21.5
257(16) 0.00389 266.8 21.1
270(16) 0.00370 266.8 20.8
255(16) 0.00392 266.9 20.5
272(16) 0.00368 267.0 20.2
259(16) 0.00386 267.1 19.9
270(16) 0.00370 267.2 19.6
288(17) 0.003472 267.3 19.3
269(16) 0.00372 267.4 19.1
275(17) 0.00364 267.5 18.8
233(15) 0.00429 267.5 18.5
255(16) 0.00392 267.6 18.3
247(16) 0.00405 267.7 18.1
259(16) 0.00386 267.8 17.8
280(17) 0.00357 267.9 17.6
266(16) 0.00376 268.0 17.4
279(17) 0.00358 268.1 17.2
281(17) 0.00356 268.1 17.0
290(17) 0.003448 268.2 16.8
288(17) 0.003472 268.3 16.6
286(17) 0.003497 268.4 16.4
276(17) 0.00362 268.5 16.2
238(15) 0.00420 268.6 16.1
283(17) 0.00353 268.7 15.9
280(17) 0.00357 268.8 15.7
296(17) 0.003378 268.8 15.6
266(16) 0.00376 268.9 15.4
273(17) 0.00366 269.0 15.3
269(16) 0.00372 269.1 15.1
289(17) 0.003460 269.2 15.0
302(17) 0.003311 269.3 14.9
305(17) 0.003279 269.4 14.8
283(17) 0.00353 269.4 14.6
288(17) 0.003472 269.5 14.5
285(17) 0.00351 269.6 14.4
300(17) 0.003333 269.7 14.3
291(17) 0.0 0.0 .
284(17) 0.0 0.0 .
255(16) 0.0 0.0 .
302(17) 0.0 0.0 .
360(19) 0.0 0.0 .
410(20) 0.0 0.0 .
475(22) 0.0 0.0 .
599(24) 0.0 0.0 .
579(24) 0.0 0.0 .
484(22) 0.0 0.0 .
402(20) 0.0 0.0 .
325(18) 0.0 0.0 .
280(17) 0.0 0.0 .
275(17) 0.0 0.0 .
286(17) 0.0 0.0 .
279(17) 0.0 0.0 .
360(19) 0.0 0.0 .
758(28) 0.0 0.0 .
1045(32) 0.0 0.0 .
960(31) 0.0 0.0 .
900(30) 0.0 0.0 .
723(27) 0.0 0.0 .
549(23) 0.0 0.0 .
452(21) 0.0 0.0 .
342(18) 0.0 0.0 .
268(16) 0.0 0.0 .
303(17) 0.0 0.0 .
296(17) 0.0 0.0 .
282(17) 0.0 0.0 .
288(17) 0.003472 272.3 14.0
291(17) 0.003436 272.4 14.1
293(17) 0.003413 272.5 14.2
270(16) 0.00370 272.6 14.3
281(17) 0.00356 272.7 14.5
265(16) 0.00377 272.7 14.6
274(17) 0.00365 272.8 14.8
281(17) 0.00356 272.9 15.0
283(17) 0.00353 273.0 15.2
270(16) 0.00370 273.1 15.4
306(17) 0.003268 273.2 15.6
288(17) 0.003472 273.2 15.9
272(16) 0.00368 273.3 16.1
261(16) 0.00383 273.4 16.4
291(17) 0.003436 273.5 16.7
306(17) 0.003268 273.6 17.1
306(17) 0.003268 273.6 17.5
268(16) 0.00373 273.7 17.9
284(17) 0.00352 273.8 18.3
298(17) 0.003356 273.9 18.8
275(17) 0.00364 274.0 19.3
304(17) 0.003289 274.0 19.8
300(17) 0.003333 274.1 20.4
280(17) 0.00357 274.2 21.1
293(17) 0.003413 274.3 21.8
293(17) 0.003413 274.4 22.6
299(17) 0.003344 274.4 23.4
299(17) 0.003344 274.5 24.4
328(18) 0.003049 274.6 25.4
322(18) 0.003106 274.7 26.6
319(18) 0.003135 274.8 27.9
312(18) 0.003205 274.8 29.3
305(17) 0.003279 274.9 31.0
322(18) 0.003106 275.0 32.9
333(18) 0.003003 275.1 35.0
328(18) 0.003049 275.2 37.4
324(18) 0.003086 275.2 40.2
359(19) 0.002786 275.3 43.4
323(18) 0.003096 275.4 47.0
312(18) 0.003205 275.5 51.2
318(18) 0.003145 275.6 56.0
346(19) 0.002890 275.6 61.5
359(19) 0.002786 275.7 67.7
360(19) 0.002778 275.8 74.8
356(19) 0.002809 275.9 82.7
370(19) 0.002703 275.9 91.6
384(20) 0.002604 276.0 101.5
379(19) 0.002639 276.1 112.3
414(20) 0.002415 276.2 124.2
411(20) 0.002433 276.3 137.1
409(20) 0.002445 276.3 150.9
426(21) 0.002347 276.4 165.5
438(21) 0.002283 276.5 180.6
471(22) 0.002123 276.6 196.0
495(22) 0.002020 276.7 211.3
485(22) 0.002062 276.7 226.0
492(22) 0.002033 276.8 239.5
481(22) 0.002079 276.9 251.0
519(23) 0.001927 277.0 259.9
532(23) 0.001880 277.1 265.5
573(24) 0.001745 277.1 267.4
575(24) 0.001739 277.2 265.5
550(23) 0.001818 277.3 259.9
537(23) 0.001862 277.4 251.0
519(23) 0.001927 277.5 239.4
484(22) 0.002066 277.5 225.9
491(22) 0.002037 277.6 211.1
478(22) 0.002092 277.7 195.8
439(21) 0.002278 277.8 180.3
425(21) 0.002353 277.9 165.0
435(21) 0.002299 277.9 150.4
398(20) 0.002513 278.0 136.5
419(20) 0.002387 278.1 123.6
390(20) 0.002564 278.2 111.6
414(20) 0.002415 278.3 100.6
366(19) 0.002732 278.3 90.6
346(19) 0.002890 278.4 81.6
387(20) 0.002584 278.5 73.6
355(19) 0.002817 278.6 66.5
368(19) 0.002717 278.7 60.2
375(19) 0.002667 278.7 54.6
335(18) 0.002985 278.8 49.7
350(19) 0.002857 278.9 45.4
330(18) 0.003030 279.0 41.7
369(19) 0.002710 279.1 38.4
374(19) 0.002674 279.1 35.6
357(19) 0.002801 279.2 33.0
356(19) 0.002809 279.3 30.8
359(19) 0.002786 279.4 28.9
408(20) 0.002451 279.5 27.2
368(19) 0.002717 279.5 25.6
386(20) 0.002591 279.6 24.2
342(18) 0.002924 279.7 23.0
357(19) 0.002801 279.8 21.9
374(19) 0.002674 279.9 20.8
347(19) 0.002882 279.9 19.9
365(19) 0.002740 280.0 19.0
364(19) 0.002747 280.1 18.2
380(19) 0.002632 280.2 17.5
379(19) 0.002639 280.3 16.8
363(19) 0.002755 280.3 16.2
388(20) 0.002577 280.4 15.6
401(20) 0.002494 280.5 15.0
379(19) 0.002639 280.6 14.5
353(19) 0.002833 280.7 14.0
395(20) 0.002532 280.7 13.5
367(19) 0.002725 280.8 13.1
353(19) 0.002833 280.9 12.7
372(19) 0.002688 281.0 12.3
405(20) 0.002469 281.1 11.9
383(20) 0.002611 281.1 11.6
359(19) 0.002786 281.2 11.2
430(21) 0.002326 281.3 10.9
425(21) 0.002353 281.4 10.6
390(20) 0.002564 281.4 10.3
391(20) 0.002558 281.5 10.1
443(21) 0.002257 281.6 9.8
399(20) 0.002506 281.7 9.6
452(21) 0.002212 281.8 9.3
460(21) 0.002174 281.8 9.1
442(21) 0.002262 281.9 8.9
455(21) 0.002198 282.0 8.7
443(21) 0.002257 282.1 8.5
456(21) 0.002193 282.2 8.3
424(21) 0.002358 282.2 8.1
445(21) 0.002247 282.3 7.9
430(21) 0.002326 282.4 7.8
431(21) 0.002320 282.5 7.6
448(21) 0.002232 282.6 7.5
446(21) 0.002242 282.6 7.3
451(21) 0.002217 282.7 7.2
455(21) 0.002198 282.8 7.0
473(22) 0.002114 282.9 6.9
452(21) 0.002212 283.0 6.8
455(21) 0.002198 283.0 6.7
493(22) 0.002028 283.1 6.6
475(22) 0.002105 283.2 6.4
464(22) 0.002155 283.3 6.3
441(21) 0.002268 283.4 6.2
422(21) 0.002370 283.4 6.1
479(22) 0.002088 283.5 6.0
459(21) 0.002179 283.6 5.9
470(22) 0.002128 283.7 5.8
443(21) 0.002257 283.8 5.7
482(22) 0.002075 283.8 5.7
460(21) 0.002174 283.9 5.6
424(21) 0.002358 284.0 5.5
459(21) 0.002179 284.1 5.4
485(22) 0.002062 284.2 5.3
442(21) 0.002262 284.2 5.3
473(22) 0.002114 284.3 5.2
459(21) 0.002179 284.4 5.1
442(21) 0.002262 284.5 5.0
478(22) 0.002092 284.6 5.0
432(21) 0.002315 284.6 4.9
446(21) 0.002242 284.7 4.8
479(22) 0.002088 284.8 4.8
436(21) 0.002294 284.9 4.7
457(21) 0.002188 285.0 4.7
491(22) 0.002037 285.0 4.6
452(21) 0.002212 285.1 4.6
497(22) 0.002012 285.2 4.5
466(22) 0.002146 285.3 4.4
504(22) 0.001984 285.4 4.4
512(23) 0.001953 285.4 4.3
508(23) 0.001968 285.5 4.3
562(24) 0.001779 285.6 4.2
552(23) 0.001812 285.7 4.2
585(24) 0.001709 285.8 4.1
556(24) 0.001799 285.8 4.1
506(22) 0.001976 285.9 4.1
477(22) 0.002096 286.0 4.0
459(21) 0.002179 286.1 4.0
415(20) 0.002410 286.2 3.9
431(21) 0.002320 286.2 3.9
407(20) 0.002457 286.3 3.9
399(20) 0.002506 286.4 3.8
422(21) 0.002370 286.5 3.8
387(20) 0.002584 286.6 3.7
382(20) 0.002618 286.6 3.7
377(19) 0.002653 286.7 3.7
342(18) 0.002924 286.8 3.6
380(19) 0.002632 286.9 3.6
374(19) 0.002674 286.9 3.6
364(19) 0.002747 287.0 3.5
373(19) 0.002681 287.1 3.5
376(19) 0.002660 287.2 3.5
356(19) 0.002809 287.3 3.4
352(19) 0.002841 287.3 3.4
347(19) 0.002882 287.4 3.4
299(17) 0.003344 287.5 3.3
359(19) 0.002786 287.6 3.3
328(18) 0.003049 287.7 3.3
340(18) 0.002941 287.7 3.3
324(18) 0.003086 287.8 3.2
339(18) 0.002950 287.9 3.2
331(18) 0.003021 288.0 3.2
326(18) 0.003067 288.1 3.2
316(18) 0.003165 288.1 3.1
322(18) 0.003106 288.2 3.1
317(18) 0.003155 288.3 3.1
351(19) 0.002849 288.4 3.1
331(18) 0.003021 288.5 3.0
341(18) 0.002933 288.5 3.0
297(17) 0.003367 288.6 3.0
330(18) 0.003030 288.7 3.0
309(18) 0.003236 288.8 2.9
344(19) 0.002907 288.9 2.9
336(18) 0.002976 288.9 2.9
341(18) 0.002933 289.0 2.9
368(19) 0.002717 289.1 2.9
323(18) 0.003096 289.2 2.8
307(18) 0.003257 289.3 2.8
298(17) 0.003356 289.3 2.8
304(17) 0.003289 289.4 2.8
328(18) 0.003049 289.5 2.8
335(18) 0.002985 289.6 2.7
322(18) 0.003106 289.7 2.7
317(18) 0.003155 289.7 2.7
300(17) 0.003333 289.8 2.7
299(17) 0.003344 289.9 2.7
343(19) 0.002915 290.0 2.7
292(17) 0.003425 290.1 2.6
315(18) 0.003175 290.1 2.6
327(18) 0.003058 290.2 2.6
309(18) 0.003236 290.3 2.6
291(17) 0.003436 290.4 2.6
326(18) 0.003067 290.5 2.6
319(18) 0.003135 290.5 2.5
306(17) 0.003268 290.6 2.5
304(17) 0.003289 290.7 2.5
284(17) 0.00352 290.8 2.5
303(17) 0.003300 290.9 2.5
316(18) 0.003165 290.9 2.5
295(17) 0.003390 291.0 2.5
305(17) 0.003279 291.1 2.4
294(17) 0.003401 291.2 2.4
320(18) 0.003125 291.3 2.4
319(18) 0.003135 291.3 2.4
299(17) 0.003344 291.4 2.4
334(18) 0.002994 291.5 2.4
319(18) 0.003135 291.6 2.4
324(18) 0.003086 291.7 2.4
314(18) 0.003185 291.7 2.3
305(17) 0.003279 291.8 2.3
321(18) 0.003115 291.9 2.3
314(18) 0.003185 292.0 2.3
326(18) 0.003067 292.1 2.3
312(18) 0.003205 292.1 2.3
283(17) 0.00353 292.2 2.3
307(18) 0.003257 292.3 2.3
296(17) 0.003378 292.4 2.3
301(17) 0.003322 292.5 2.2
314(18) 0.003185 292.2 2.2
319(18) 0.003135 291.8 2.2
307(18) 0.003257 291.4 2.2
282(17) 0.00355 291.0 2.2
297(17) 0.003367 290.7 2.2
288(17) 0.003472 290.3 2.2
304(17) 0.003289 289.9 2.2
316(18) 0.003165 289.5 2.2
288(17) 0.003472 289.1 2.2
292(17) 0.003425 288.8 2.1
288(17) 0.003472 288.4 2.1
281(17) 0.00356 288.0 2.1
291(17) 0.003436 287.6 2.1
312(18) 0.003205 287.2 2.1
311(18) 0.003215 286.9 2.1
298(17) 0.003356 286.5 2.1
306(17) 0.003268 286.1 2.1
297(17) 0.003367 285.7 2.1
309(18) 0.003236 285.3 2.1
311(18) 0.003215 285.0 2.1
283(17) 0.00353 284.6 2.1
277(17) 0.00361 284.2 2.1
307(18) 0.003257 283.8 2.2
297(17) 0.003367 283.4 2.2
282(17) 0.00355 283.1 2.1
316(18) 0.003165 282.7 2.1
283(17) 0.00353 282.3 2.1
300(17) 0.003333 281.9 2.1
289(17) 0.003460 281.5 2.1
306(17) 0.003268 281.1 2.1
300(17) 0.003333 280.8 2.1
315(18) 0.003175 280.4 2.1
287(17) 0.003484 280.0 2.1
340(18) 0.002941 279.6 2.1
302(17) 0.003311 279.2 2.1
302(17) 0.003311 278.9 2.1
297(17) 0.003367 278.5 2.1
319(18) 0.003135 278.1 2.1
302(17) 0.003311 277.7 2.1
293(17) 0.003413 277.3 2.1
310(18) 0.003226 277.0 2.1
306(17) 0.003268 276.6 2.1
279(17) 0.00358 276.2 2.1
300(17) 0.003333 275.8 2.1
299(17) 0.003344 275.4 2.1
277(17) 0.00361 275.1 2.1
332(18) 0.003012 274.7 2.1
298(17) 0.003356 274.3 2.1
305(17) 0.003279 273.9 2.1
302(17) 0.003311 273.5 2.1
298(17) 0.003356 273.2 2.1
307(18) 0.003257 272.8 2.1
301(17) 0.003322 272.4 2.1
322(18) 0.003106 272.0 2.1
297(17) 0.003367 271.6 2.1
296(17) 0.003378 271.3 2.1
305(17) 0.003279 270.9 2.1
295(17) 0.003390 270.5 2.1
322(18) 0.003106 270.1 2.1
297(17) 0.003367 269.7 2.1
315(18) 0.003175 269.3 2.1
330(18) 0.003030 269.0 2.1
311(18) 0.003215 268.6 2.1
285(17) 0.00351 268.2 2.1
306(17) 0.003268 267.8 2.1
293(17) 0.003413 267.4 2.1
276(17) 0.00362 267.1 2.3
277(17) 0.00361 266.7 2.3
297(17) 0.003367 266.3 2.3
296(17) 0.003378 265.9 2.3
299(17) 0.003344 265.5 2.3
271(16) 0.00369 265.2 2.3
298(17) 0.003356 264.8 2.3
301(17) 0.003322 264.4 2.3
256(16) 0.00391 264.0 2.4
278(17) 0.00360 263.6 2.4
278(17) 0.00360 263.3 2.4
304(17) 0.003289 262.9 2.4
252(16) 0.00397 262.5 2.4
264(16) 0.00379 262.1 2.4
285(17) 0.00351 261.7 2.4
284(17) 0.00352 261.4 2.4
269(16) 0.00372 261.0 2.4
278(17) 0.00360 260.6 2.5
302(17) 0.003311 260.2 2.5
277(17) 0.00361 259.8 2.5
302(17) 0.003311 259.5 4.3
307(18) 0.003257 259.1 4.3
273(17) 0.00366 258.7 4.4
285(17) 0.00351 258.3 4.4
291(17) 0.003436 257.9 4.4
274(17) 0.00365 257.6 4.5
278(17) 0.00360 257.6 4.5
302(17) 0.003311 258.0 4.6
258(16) 0.00388 258.4 4.6
278(17) 0.00360 258.8 4.6
271(16) 0.00369 259.3 4.7
242(16) 0.00413 259.7 4.7
270(16) 0.00370 260.1 4.8
261(16) 0.00383 260.5 4.8
286(17) 0.003497 260.9 4.9
255(16) 0.00392 261.4 4.9
281(17) 0.00356 261.8 5.0
273(17) 0.00366 262.2 5.0
287(17) 0.003484 262.6 5.1
275(17) 0.00364 263.0 5.1
284(17) 0.00352 263.5 6.3
288(17) 0.003472 263.9 6.4
270(16) 0.00370 264.3 9.1
253(16) 0.00395 264.7 9.1
265(16) 0.00377 265.1 9.2
301(17) 0.003322 265.6 9.3
285(17) 0.00351 266.0 9.5
299(17) 0.003344 266.4 9.6
312(18) 0.003205 266.8 9.7
334(18) 0.002994 267.2 9.8
321(18) 0.003115 267.7 9.9
290(17) 0.003448 268.1 10.0
301(17) 0.003322 268.5 10.2
269(16) 0.00372 268.9 10.3
294(17) 0.003401 269.4 10.4
306(17) 0.003268 269.8 10.5
277(17) 0.00361 270.2 10.7
284(17) 0.00352 270.6 10.8
273(17) 0.00366 271.0 11.0
261(16) 0.00383 271.5 11.1
267(16) 0.00375 271.9 11.3
262(16) 0.00382 272.3 11.5
264(16) 0.00379 272.7 11.7
254(16) 0.00394 273.1 11.8
288(17) 0.003472 273.6 12.0
258(16) 0.00388 274.0 12.2
255(16) 0.00392 274.4 12.4
270(16) 0.00370 274.8 12.6
267(16) 0.00375 275.2 12.9
292(17) 0.003425 275.7 13.1
269(16) 0.00372 276.1 13.3
305(17) 0.003279 276.5 13.6
292(17) 0.003425 276.9 13.9
317(18) 0.003155 277.3 14.2
276(17) 0.00362 277.8 14.5
284(17) 0.00352 278.2 14.8
273(17) 0.00366 278.6 15.1
252(16) 0.00397 279.0 15.5
293(17) 0.003413 279.5 15.9
294(17) 0.003401 279.9 16.3
278(17) 0.00360 280.3 16.8
326(18) 0.003067 280.7 17.3
280(17) 0.00357 281.1 17.8
293(17) 0.003413 281.6 18.4
318(18) 0.003145 282.0 19.1
302(17) 0.003311 282.4 19.8
302(17) 0.003311 282.8 20.6
289(17) 0.003460 283.2 21.5
318(18) 0.003145 283.7 22.5
302(17) 0.003311 284.1 23.5
300(17) 0.003333 284.5 24.8
299(17) 0.003344 284.9 26.2
301(17) 0.003322 285.3 27.6
306(17) 0.003268 285.8 29.2
306(17) 0.003268 286.2 31.0
333(18) 0.003003 286.6 32.9
296(17) 0.003378 287.0 35.0
325(18) 0.003077 287.4 37.2
314(18) 0.003185 287.9 39.7
328(18) 0.003049 288.3 42.3
307(18) 0.003257 288.7 45.0
330(18) 0.003030 289.1 47.9
323(18) 0.003096 289.6 50.9
291(17) 0.003436 290.0 54.1
334(18) 0.002994 290.4 57.3
314(18) 0.003185 290.8 60.4
317(18) 0.003155 291.2 63.6
355(19) 0.002817 291.7 66.6
373(19) 0.002681 292.1 69.3
364(19) 0.002747 292.5 71.8
348(19) 0.002874 292.9 73.8
368(19) 0.002717 293.3 75.3
362(19) 0.002762 293.8 76.4
357(19) 0.002801 294.2 76.7
340(18) 0.002941 294.6 76.4
335(18) 0.002985 295.0 75.5
351(19) 0.002849 295.4 74.1
348(19) 0.002874 295.9 72.3
335(18) 0.002985 296.3 70.1
316(18) 0.003165 296.7 67.7
304(17) 0.003289 297.1 65.2
331(18) 0.003021 297.5 62.7
333(18) 0.003003 298.0 60.1
333(18) 0.003003 298.4 57.6
328(18) 0.003049 298.8 55.2
309(18) 0.003236 299.2 53.0
328(18) 0.003049 299.7 50.9
337(18) 0.002967 300.1 49.0
342(18) 0.002924 300.5 47.3
358(19) 0.002793 300.9 45.7
333(18) 0.003003 301.3 44.4
326(18) 0.003067 301.8 43.2
352(19) 0.002841 302.2 42.2
366(19) 0.002732 302.6 41.4
372(19) 0.002688 303.0 40.8
348(19) 0.002874 303.4 40.3
371(19) 0.002695 303.9 39.9
357(19) 0.002801 304.3 39.7
345(19) 0.002899 304.7 39.7
367(19) 0.002725 305.1 39.7
339(18) 0.002950 305.5 39.9
342(18) 0.002924 306.0 40.2
345(19) 0.002899 306.4 40.6
346(19) 0.002890 306.8 41.1
310(18) 0.003226 307.2 41.7
334(18) 0.002994 307.6 42.4
322(18) 0.003106 308.1 43.2
307(18) 0.003257 308.5 44.1
318(18) 0.003145 308.9 45.1
303(17) 0.003300 309.3 46.2
306(17) 0.003268 309.7 47.4
293(17) 0.003413 310.2 48.7
329(18) 0.003039 310.6 50.1
323(18) 0.003096 311.0 51.6
338(18) 0.002959 311.4 53.2
316(18) 0.003165 311.9 55.0
335(18) 0.002985 312.3 56.9
333(18) 0.003003 312.7 59.0
325(18) 0.003077 313.1 61.2
341(18) 0.002933 313.5 63.6
326(18) 0.003067 314.0 66.2
339(18) 0.002950 314.4 69.1
347(19) 0.002882 314.8 72.1
324(18) 0.003086 315.2 75.5
369(19) 0.002710 315.6 79.2
323(18) 0.003096 316.1 83.2
363(19) 0.002755 316.5 87.5
360(19) 0.002778 316.9 92.3
362(19) 0.002762 317.3 97.6
347(19) 0.002882 317.7 103.5
366(19) 0.002732 318.2 110.0
355(19) 0.002817 318.6 117.2
358(19) 0.002793 319.0 125.3
389(20) 0.002571 319.4 134.4
395(20) 0.002532 319.8 144.7
419(20) 0.002387 320.3 156.3
425(21) 0.002353 320.7 169.5
457(21) 0.002188 321.1 184.7
456(21) 0.002193 321.5 202.3
465(22) 0.002151 322.0 222.7
495(22) 0.002020 322.4 246.7
520(23) 0.001923 322.8 275.1
544(23) 0.001838 323.2 309.0
587(24) 0.001704 323.6 350.2
637(25) 0.001570 324.1 401.0
726(27) 0.001377 324.5 465.0
763(28) 0.001311 324.9 548.1
894(30) 0.001119 325.3 659.7
1050(32) 0.000952 325.7 814.5
1187(34) 0.000842 326.2 1034.4
1497(39) 0.000668 327. 1348.
1773(42) 0.000564 327. 1787.
2329(48) 0.000429 327. 2382.
2952(54) 0.0003388 328. 3137.
4028(63) 0.0002483 328. 3993.
4948(70) 0.0002021 329. 4753.
5323(73) 0.0001879 329. 5090.
4874(70) 0.0002052 330. 4805.
3987(63) 0.0002508 330. 4078.
3209(57) 0.0003116 330. 3236.
2514(50) 0.000398 331. 2491.
2156(46) 0.000464 331. 1906.
1835(43) 0.000545 332. 1480.
1636(40) 0.000611 332. 1187.
1440(38) 0.000694 332. 994.
1364(37) 0.000733 333. 876.
1338(37) 0.000747 333. 814.
1218(35) 0.000821 333.7 798.2
1299(36) 0.000770 334. 826.
1297(36) 0.000771 335. 900.
1301(36) 0.000769 335. 1027.
1478(38) 0.000677 335. 1212.
1579(40) 0.000633 336. 1457.
1758(42) 0.000569 336. 1752.
2050(45) 0.000488 337. 2064.
2320(48) 0.000431 337. 2319.
2478(50) 0.000404 338. 2420.
2497(50) 0.000400 338. 2313.
2212(47) 0.000452 338. 2043.
2011(45) 0.000497 339. 1705.
1591(40) 0.000629 339. 1376.
1290(36) 0.000775 340. 1092.
1117(33) 0.000895 340.0 863.2
969(31) 0.001032 340.5 687.1
821(29) 0.001218 340.9 554.9
721(27) 0.001387 341.3 457.4
639(25) 0.001565 341.7 384.9
635(25) 0.001575 342.2 331.3
543(23) 0.001842 342.6 290.4
536(23) 0.001866 343.0 258.3
469(22) 0.002132 343.4 232.6
458(21) 0.002183 343.8 211.5
465(22) 0.002151 344.3 193.9
459(21) 0.002179 344.7 179.0
453(21) 0.002208 345.1 166.4
433(21) 0.002309 345.5 155.5
405(20) 0.002469 345.9 146.1
387(20) 0.002584 346.4 137.9
422(21) 0.002370 346.8 130.8
431(21) 0.002320 347.2 124.6
379(19) 0.002639 347.6 119.1
410(20) 0.002439 348.0 114.4
367(19) 0.002725 348.5 110.2
394(20) 0.002538 348.9 106.5
398(20) 0.002513 349.3 103.3
369(19) 0.002710 349.7 100.5
388(20) 0.002577 350.1 98.1
356(19) 0.002809 350.6 96.0
350(19) 0.002857 351.0 94.2
371(19) 0.002695 351.4 92.8
412(20) 0.002427 351.8 91.6
330(18) 0.003030 352.3 90.8
373(19) 0.002681 352.7 90.3
358(19) 0.002793 353.1 90.2
337(18) 0.002967 353.5 90.4
362(19) 0.002762 353.9 91.1
376(19) 0.002660 354.4 92.3
360(19) 0.002778 354.8 93.9
371(19) 0.002695 354.7 95.9
339(18) 0.002950 354.5 98.2
369(19) 0.002710 354.3 100.4
356(19) 0.002809 354.0 102.0
334(18) 0.002994 353.8 102.6
370(19) 0.002703 353.6 102.2
360(19) 0.002778 353.4 101.3
365(19) 0.002740 353.1 100.2
339(18) 0.002950 352.9 99.4
355(19) 0.002817 352.7 99.1
365(19) 0.002740 352.5 99.2
350(19) 0.002857 352.3 99.7
359(19) 0.002786 352.0 100.7
387(20) 0.002584 351.8 102.1
373(19) 0.002681 351.6 103.8
357(19) 0.002801 351.4 105.8
364(19) 0.002747 351.1 108.1
348(19) 0.002874 350.9 110.7
414(20) 0.002415 350.7 113.6
392(20) 0.002551 350.5 116.8
401(20) 0.002494 350.2 120.2
376(19) 0.002660 350.0 123.9
418(20) 0.002392 349.8 128.0
401(20) 0.002494 349.6 132.4
405(20) 0.002469 349.4 137.1
431(21) 0.002320 349.1 142.2
433(21) 0.002309 348.9 147.8
455(21) 0.002198 348.7 153.8
458(21) 0.002183 348.5 160.4
460(21) 0.002174 348.2 167.5
470(22) 0.002128 348.0 175.1
488(22) 0.002049 347.8 183.5
493(22) 0.002028 347.6 192.6
510(23) 0.001961 347.3 202.5
504(22) 0.001984 347.1 213.4
537(23) 0.001862 346.9 225.2
496(22) 0.002016 346.7 238.3
557(24) 0.001795 346.4 252.6
580(24) 0.001724 346.2 268.4
564(24) 0.001773 346.0 285.8
577(24) 0.001733 345.8 305.2
617(25) 0.001621 345.6 326.8
641(25) 0.001560 345.3 351.1
678(26) 0.001475 345.1 378.5
755(27) 0.001324 344.9 409.6
786(28) 0.001272 344.7 445.4
810(28) 0.001235 344.4 486.9
864(29) 0.001157 344.2 535.7
1029(32) 0.000972 344.0 593.5
1042(32) 0.000960 343.8 663.0
1132(34) 0.000883 343.5 747.0
1283(36) 0.000779 343. 849.
1362(37) 0.000734 343. 974.
1585(40) 0.000631 343. 1127.
1702(41) 0.000588 343. 1312.
1907(44) 0.000524 342. 1535.
2085(46) 0.000480 342. 1801.
2501(50) 0.000400 342. 2114.
2940(54) 0.0003401 342. 2475.
3347(58) 0.0002988 342. 2885.
3838(62) 0.0002606 341. 3338.
4463(67) 0.0002241 341. 3823.
5223(72) 0.0001915 341. 4315.
5871(77) 0.0001703 341. 4782.
6259(79) 0.0001598 340. 5176.
6674(82) 0.0001498 340. 5442.
6564(81) 0.0001523 340. 5539.
6120(78) 0.0001634 340. 5447.
5509(74) 0.0001815 340. 5184.
4953(70) 0.0002019 339. 4793.
4427(67) 0.0002259 339. 4328.
3985(63) 0.0002509 339. 3836.
3475(59) 0.0002878 339. 3353.
3163(56) 0.0003162 338. 2900.
2810(53) 0.000356 338. 2490.
2588(51) 0.000386 338. 2129.
2300(48) 0.000435 338. 1816.
2062(45) 0.000485 338. 1551.
1830(43) 0.000546 337. 1328.
1755(42) 0.000570 337. 1144.
1540(39) 0.000649 337. 992.
1454(38) 0.000688 337. 868.
1362(37) 0.000734 336. 767.
1217(35) 0.000822 336.2 684.8
1150(34) 0.000870 336.0 617.1
1068(33) 0.000936 335.7 561.2
1027(32) 0.000974 335.5 514.7
954(31) 0.001048 335.3 476.3
973(31) 0.001028 335.1 443.4
911(30) 0.001098 334.8 415.6
858(29) 0.001166 334.6 392.1
824(29) 0.001214 334.4 372.3
732(27) 0.001366 334.2 355.8
754(27) 0.001326 333.9 342.3
708(27) 0.001412 333.7 331.7
685(26) 0.001460 333.5 323.7
711(27) 0.001406 333.3 318.4
683(26) 0.001464 333.0 315.6
626(25) 0.001597 332.8 315.3
648(25) 0.001543 332.6 317.4
661(26) 0.001513 332.4 321.9
614(25) 0.001629 332.2 328.8
638(25) 0.001567 331.9 337.8
670(26) 0.001493 331.7 348.7
697(26) 0.001435 331.5 361.3
657(26) 0.001522 331.3 375.1
653(26) 0.001531 331.0 389.4
645(25) 0.001550 330.8 403.5
726(27) 0.001377 330.6 416.2
695(26) 0.001439 330.4 426.5
713(27) 0.001403 330.1 433.2
766(28) 0.001305 329.9 435.5
747(27) 0.001339 329.7 432.8
706(27) 0.001416 329.5 425.5
735(27) 0.001361 329.3 414.1
674(26) 0.001484 329.0 399.6
640(25) 0.001563 328.8 383.4
639(25) 0.001565 328.6 366.6
634(25) 0.001577 328.4 350.2
645(25) 0.001550 328.1 335.1
593(24) 0.001686 327.9 322.1
624(25) 0.001603 327.7 311.7
644(25) 0.001553 327.5 304.6
616(25) 0.001623 327.2 301.1
575(24) 0.001739 327.0 301.8
598(24) 0.001672 326.8 306.9
611(25) 0.001637 326.6 316.8
669(26) 0.001495 326.3 331.9
667(26) 0.001499 326.1 352.2
675(26) 0.001481 325.9 377.7
693(26) 0.001443 325.7 408.2
783(28) 0.001277 325.5 443.0
778(28) 0.001285 325.2 480.9
797(28) 0.001255 325.0 519.7
798(28) 0.001253 324.8 556.6
848(29) 0.001179 324.6 587.8
904(30) 0.001106 324.3 609.7
955(31) 0.001047 324.1 619.6
994(32) 0.001006 323.9 617.6
1038(32) 0.000963 323.7 605.6
974(31) 0.001027 323.4 587.5
972(31) 0.001029 323.2 567.6
1008(32) 0.000992 323.0 549.3
921(30) 0.001086 322.8 535.3
914(30) 0.001094 322.5 527.3
836(29) 0.001196 322.3 526.1
842(29) 0.001188 322.1 532.1
890(30) 0.001124 321.9 545.0
930(30) 0.001075 321.7 564.3
1011(32) 0.000989 321.4 588.8
1067(33) 0.000937 321.2 617.1
1097(33) 0.000912 321.0 647.2
1198(35) 0.000835 320.8 676.3
1175(34) 0.000851 320.5 701.7
1174(34) 0.000852 320.3 720.1
1174(34) 0.000852 320.1 728.9
1145(34) 0.000873 319.9 726.6
1081(33) 0.000925 319.6 712.7
1051(32) 0.000951 319.4 688.3
1014(32) 0.000986 319.2 655.6
974(31) 0.001027 319.0 617.1
909(30) 0.001100 318.8 575.2
869(29) 0.001151 318.5 532.3
792(28) 0.001263 318.3 490.0
829(29) 0.001206 318.1 449.3
742(27) 0.001348 317.9 411.0
745(27) 0.001342 317.6 375.3
701(26) 0.001427 317.4 342.6
677(26) 0.001477 317.2 312.5
683(26) 0.001464 317.0 285.2
635(25) 0.001575 316.7 260.5
569(24) 0.001757 316.5 238.1
566(24) 0.001767 316.3 218.1
530(23) 0.001887 316.1 200.1
484(22) 0.002066 315.8 184.1
521(23) 0.001919 315.6 169.9
527(23) 0.001898 315.4 157.4
505(22) 0.001980 315.2 146.3
478(22) 0.002092 315.0 136.6
493(22) 0.002028 314.7 128.0
479(22) 0.002088 314.5 120.6
446(21) 0.002242 314.3 114.0
423(21) 0.002364 314.1 108.2
433(21) 0.002309 313.8 103.1
437(21) 0.002288 313.6 98.6
394(20) 0.002538 313.4 94.7
390(20) 0.002564 313.2 91.3
420(20) 0.002381 312.9 88.4
388(20) 0.002577 312.7 85.9
361(19) 0.002770 312.5 83.9
382(20) 0.002618 312.3 82.1
373(19) 0.002681 312.1 80.8
388(20) 0.002577 311.8 79.7
390(20) 0.002564 311.6 79.0
385(20) 0.002597 311.4 78.6
362(19) 0.002762 311.2 78.4
385(20) 0.002597 310.9 78.6
359(19) 0.002786 310.7 79.1
389(20) 0.002571 310.5 79.9
395(20) 0.002532 310.3 81.1
378(19) 0.002646 310.0 82.7
386(20) 0.002591 309.8 84.7
363(19) 0.002755 309.6 87.2
381(20) 0.002625 309.4 90.4
379(19) 0.002639 309.1 94.3
404(20) 0.002475 308.9 99.2
403(20) 0.002481 308.7 105.3
417(20) 0.002398 308.5 113.0
417(20) 0.002398 308.3 122.9
444(21) 0.002252 308.0 135.8
508(23) 0.001968 307.8 153.1
499(22) 0.002004 307.6 177.4
573(24) 0.001745 307.4 213.0
636(25) 0.001572 307.1 267.7
780(28) 0.001282 306.9 352.7
904(30) 0.001106 306.7 482.0
1128(34) 0.000887 306.5 667.8
1320(36) 0.000758 306. 905.
1528(39) 0.000654 306. 1132.
1580(40) 0.000633 306. 1215.
1537(39) 0.000651 306. 1081.
1200(35) 0.000833 305.4 837.7
961(31) 0.001041 305.1 608.8
784(28) 0.001276 304.9 435.4
620(25) 0.001613 304.7 316.3
533(23) 0.001876 304.5 238.2
479(22) 0.002088 304.2 187.2
429(21) 0.002331 304.0 153.0
425(21) 0.002353 303.8 129.0
416(20) 0.002404 303.6 111.2
359(19) 0.002786 303.3 97.5
362(19) 0.002762 303.1 86.7
355(19) 0.002817 302.9 77.9
358(19) 0.002793 302.7 70.7
335(18) 0.002985 302.4 64.7
325(18) 0.003077 302.2 59.6
308(18) 0.003247 302.0 55.2
358(19) 0.002793 301.8 51.5
352(19) 0.002841 301.6 48.2
331(18) 0.003021 301.3 45.3
323(18) 0.003096 301.1 42.8
330(18) 0.003030 300.9 40.5
305(17) 0.003279 300.7 38.4
329(18) 0.003039 300.4 36.6
316(18) 0.003165 300.2 35.0
337(18) 0.002967 300.0 33.5
343(19) 0.002915 299.8 32.1
298(17) 0.003356 299.6 30.8
323(18) 0.003096 299.4 29.7
317(18) 0.003155 299.2 28.6
332(18) 0.003012 299.0 27.7
270(16) 0.00370 298.8 26.8
327(18) 0.003058 298.5 25.9
293(17) 0.003413 298.3 25.2
306(17) 0.003268 298.1 24.4
325(18) 0.003077 297.9 23.8
302(17) 0.003311 297.7 23.1
316(18) 0.003165 297.5 22.5
326(18) 0.003067 297.3 22.0
339(18) 0.002950 297.1 21.5
324(18) 0.003086 296.9 21.0
371(19) 0.002695 296.7 20.5
340(18) 0.002941 296.4 20.3
341(18) 0.002933 296.2 19.9
332(18) 0.003012 296.0 19.5
337(18) 0.002967 295.8 19.2
342(18) 0.002924 295.6 18.8
319(18) 0.003135 295.4 18.5
345(19) 0.002899 295.2 18.2
319(18) 0.003135 295.0 17.9
322(18) 0.003106 294.8 17.6
302(17) 0.003311 294.6 17.3
336(18) 0.002976 294.4 17.1
337(18) 0.002967 294.1 16.8
331(18) 0.003021 293.9 16.6
315(18) 0.003175 293.7 16.4
294(17) 0.003401 293.5 16.2
289(17) 0.003460 293.3 16.0
324(18) 0.003086 293.1 15.8
304(17) 0.003289 292.9 15.7
320(18) 0.003125 292.7 15.5
305(17) 0.003279 292.5 15.3
307(18) 0.003257 292.3 15.2
297(17) 0.003367 292.0 15.1
332(18) 0.003012 291.8 14.9
300(17) 0.003333 291.6 14.8
324(18) 0.003086 291.4 14.7
298(17) 0.003356 291.2 14.6
297(17) 0.003367 291.0 14.5
318(18) 0.003145 290.8 14.4
315(18) 0.003175 290.6 14.3
303(17) 0.003300 290.4 14.3
307(18) 0.003257 290.2 14.2
323(18) 0.003096 290.0 14.2
299(17) 0.003344 289.7 14.2
315(18) 0.003175 289.5 14.2
320(18) 0.003125 289.3 14.2
324(18) 0.003086 289.1 14.3
315(18) 0.003175 288.9 14.3
326(18) 0.003067 288.7 14.4
341(18) 0.002933 288.5 14.5
310(18) 0.003226 288.3 14.7
317(18) 0.003155 288.1 14.8
312(18) 0.003205 287.9 15.0
277(17) 0.00361 287.6 15.3
286(17) 0.003497 287.4 15.6
306(17) 0.003268 287.2 15.9
302(17) 0.003311 287.0 16.2
300(17) 0.003333 286.8 16.6
315(18) 0.003175 286.6 17.0
333(18) 0.003003 286.4 17.5
347(19) 0.002882 286.2 18.0
339(18) 0.002950 286.0 18.5
348(19) 0.002874 285.8 19.0
288(17) 0.003472 285.6 19.5
305(17) 0.003279 285.3 19.9
299(17) 0.003344 285.1 20.4
315(18) 0.003175 284.9 20.8
283(17) 0.00353 284.7 21.1
283(17) 0.00353 284.5 21.3
306(17) 0.003268 284.3 21.4
298(17) 0.003356 284.1 21.4
322(18) 0.003106 283.9 21.3
305(17) 0.003279 283.7 21.0
312(18) 0.003205 283.5 20.7
333(18) 0.003003 283.2 20.3
321(18) 0.003115 283.0 19.8
300(17) 0.003333 282.8 19.3
298(17) 0.003356 282.6 18.8
325(18) 0.003077 282.4 18.3
313(18) 0.003195 282.2 17.8
315(18) 0.003175 282.0 17.3
338(18) 0.002959 281.8 16.8
319(18) 0.003135 281.6 16.4
324(18) 0.003086 281.4 16.0
335(18) 0.002985 281.2 15.6
340(18) 0.002941 280.9 15.3
328(18) 0.003049 280.7 15.0
314(18) 0.003185 280.5 14.8
283(17) 0.00353 280.3 14.6
292(17) 0.003425 280.1 14.4
291(17) 0.003436 279.9 14.2
297(17) 0.003367 279.7 14.1
286(17) 0.003497 279.5 14.1
293(17) 0.003413 279.3 14.0
281(17) 0.00356 279.1 14.0
320(18) 0.003125 278.9 14.0
307(18) 0.003257 278.6 14.0
300(17) 0.003333 278.4 14.1
315(18) 0.003175 278.2 14.2
276(17) 0.00362 278.0 14.3
301(17) 0.003322 277.8 14.4
276(17) 0.00362 277.6 14.5
323(18) 0.003096 277.4 14.7
320(18) 0.003125 277.2 14.9
301(17) 0.003322 277.0 15.1
293(17) 0.003413 276.9 15.4
283(17) 0.00353 277.1 15.6
281(17) 0.00356 277.2 15.9
289(17) 0.003460 277.3 16.3
264(16) 0.00379 277.4 16.6
309(18) 0.003236 277.6 17.0
325(18) 0.003077 277.7 17.4
312(18) 0.003205 277.8 17.9
306(17) 0.003268 278.0 18.4
276(17) 0.00362 278.1 19.0
300(17) 0.003333 278.2 19.6
286(17) 0.003497 278.3 20.3
279(17) 0.00358 278.5 21.1
289(17) 0.003460 278.6 21.9
286(17) 0.003497 278.7 22.8
284(17) 0.00352 278.9 23.9
293(17) 0.003413 279.0 25.0
310(18) 0.003226 279.1 26.4
291(17) 0.003436 279.2 27.8
285(17) 0.00351 279.4 29.5
294(17) 0.003401 279.5 31.4
338(18) 0.002959 279.6 33.6
312(18) 0.003205 279.8 36.1
314(18) 0.003185 279.9 39.0
324(18) 0.003086 280.0 42.4
334(18) 0.002994 280.1 46.5
328(18) 0.003049 280.3 51.4
328(18) 0.003049 280.4 57.4
358(19) 0.002793 280.5 64.9
365(19) 0.002740 280.7 74.4
396(20) 0.002525 280.8 86.9
377(19) 0.002653 280.9 104.3
421(21) 0.002375 281.0 129.3
502(22) 0.001992 281.2 166.1
542(23) 0.001845 281.3 220.2
625(25) 0.001600 281.4 296.8
736(27) 0.001359 281.6 396.8
815(29) 0.001227 281.7 506.6
916(30) 0.001092 281.8 583.4
874(30) 0.001144 281.9 579.4
797(28) 0.001255 282.1 507.8
795(28) 0.001258 282.2 424.2
767(28) 0.001304 282.3 363.5
761(28) 0.001314 282.5 335.2
796(28) 0.001256 282.6 338.8
822(29) 0.001217 282.7 370.8
825(29) 0.001212 282.8 426.5
911(30) 0.001098 283.0 499.8
1057(33) 0.000946 283.1 579.3
1066(33) 0.000938 283.2 645.3
1097(33) 0.000912 283.4 673.3
1118(33) 0.000894 283.5 648.8
1014(32) 0.000986 283.6 580.3
893(30) 0.001120 283.7 490.8
759(28) 0.001318 283.9 400.5
689(26) 0.001451 284.0 320.4
574(24) 0.001742 284.1 254.3
558(24) 0.001792 284.3 202.1
491(22) 0.002037 284.4 162.4
488(22) 0.002049 284.5 132.7
436(21) 0.002294 284.6 110.7
382(20) 0.002618 284.8 94.4
401(20) 0.002494 284.9 82.1
421(21) 0.002375 285.0 72.6
372(19) 0.002688 285.2 65.1
341(18) 0.002933 285.3 59.0
335(18) 0.002985 285.4 54.0
358(19) 0.002793 285.5 49.9
335(18) 0.002985 285.7 46.3
330(18) 0.003030 285.8 43.3
375(19) 0.002667 285.9 40.8
344(19) 0.002907 286.1 38.6
320(18) 0.003125 286.2 36.7
325(18) 0.003077 286.3 35.1
340(18) 0.002941 286.4 33.7
336(18) 0.002976 286.6 32.5
327(18) 0.003058 286.7 31.5
324(18) 0.003086 286.8 30.7
327(18) 0.003058 287.0 29.9
325(18) 0.003077 287.1 29.3
331(18) 0.003021 287.2 28.8
315(18) 0.003175 287.3 28.4
302(17) 0.003311 287.5 28.1
334(18) 0.002994 287.6 27.9
317(18) 0.003155 287.7 27.7
308(18) 0.003247 287.9 27.7
300(17) 0.003333 288.0 27.7
302(17) 0.003311 288.1 27.8
328(18) 0.003049 288.2 28.0
311(18) 0.003215 288.4 28.3
311(18) 0.003215 288.5 28.6
335(18) 0.002985 288.6 29.1
346(19) 0.002890 288.8 29.6
360(19) 0.002778 288.9 30.2
324(18) 0.003086 289.0 30.9
338(18) 0.002959 289.1 31.8
319(18) 0.003135 289.3 32.7
308(18) 0.003247 289.4 33.8
358(19) 0.002793 289.5 35.1
338(18) 0.002959 289.7 36.4
334(18) 0.002994 289.8 38.0
318(18) 0.003145 289.9 39.7
319(18) 0.003135 290.0 41.7
343(19) 0.002915 290.2 43.8
318(18) 0.003145 290.3 46.2
354(19) 0.002825 290.4 48.9
361(19) 0.002770 290.6 51.8
345(19) 0.002899 290.7 55.0
367(19) 0.002725 290.8 58.5
367(19) 0.002725 290.9 62.3
336(18) 0.002976 291.1 66.5
356(19) 0.002809 291.2 71.0
387(20) 0.002584 291.3 75.9
364(19) 0.002747 291.5 81.1
365(19) 0.002740 291.6 86.8
391(20) 0.002558 291.7 92.9
397(20) 0.002519 291.8 99.3
412(20) 0.002427 292.0 106.2
372(19) 0.002688 292.1 113.5
390(20) 0.002564 292.2 121.2
418(20) 0.002392 292.4 129.3
436(21) 0.002294 292.5 137.9
456(21) 0.002193 292.6 146.9
467(22) 0.002141 292.8 156.5
441(21) 0.002268 292.9 166.6
459(21) 0.002179 293.0 177.3
491(22) 0.002037 293.1 188.6
483(22) 0.002070 293.3 200.4
507(23) 0.001972 293.4 212.2
538(23) 0.001859 293.5 223.3
547(23) 0.001828 293.7 232.3
538(23) 0.001859 293.8 237.6
559(24) 0.001789 293.9 238.8
559(24) 0.001789 294.0 236.9
515(23) 0.001942 294.2 233.1
528(23) 0.001894 294.3 228.3
558(24) 0.001792 294.4 222.8
524(23) 0.001908 294.6 216.9
518(23) 0.001931 294.7 210.5
520(23) 0.001923 294.8 203.5
489(22) 0.002045 294.9 196.2
533(23) 0.001876 295.1 188.4
490(22) 0.002041 295.2 180.3
465(22) 0.002151 295.3 171.9
486(22) 0.002058 295.5 163.4
449(21) 0.002227 295.6 154.8
482(22) 0.002075 295.7 146.3
431(21) 0.002320 295.8 138.0
459(21) 0.002179 296.0 129.8
438(21) 0.002283 296.1 121.9
432(21) 0.002315 296.2 114.3
394(20) 0.002538 296.4 107.1
434(21) 0.002304 296.5 100.1
393(20) 0.002545 296.6 93.6
412(20) 0.002427 296.7 87.3
424(21) 0.002358 296.9 81.4
408(20) 0.002451 297.0 75.8
396(20) 0.002525 297.1 70.6
373(19) 0.002681 297.3 65.7
384(20) 0.002604 297.4 61.2
420(20) 0.002381 297.5 57.0
425(21) 0.002353 297.6 53.2
410(20) 0.002439 297.8 49.7
381(20) 0.002625 297.9 46.5
356(19) 0.002809 298.0 43.5
364(19) 0.002747 298.2 40.8
369(19) 0.002710 298.3 38.4
368(19) 0.002717 298.4 36.1
376(19) 0.002660 298.5 34.1
348(19) 0.002874 298.7 32.2
349(19) 0.002865 298.8 30.5
354(19) 0.002825 298.9 29.0
340(18) 0.002941 299.1 27.5
324(18) 0.003086 299.2 26.2
369(19) 0.002710 299.3 25.0
345(19) 0.002899 299.4 23.9
335(18) 0.002985 299.6 22.9
337(18) 0.002967 299.7 22.0
343(19) 0.002915 299.8 21.2
334(18) 0.002994 300.0 20.4
327(18) 0.003058 300.1 19.6
345(19) 0.002899 300.2 19.0
335(18) 0.002985 300.3 18.3
346(19) 0.002890 300.5 17.7
321(18) 0.003115 300.6 17.2
335(18) 0.002985 300.7 16.6
330(18) 0.003030 300.9 16.1
339(18) 0.002950 301.0 15.7
326(18) 0.003067 301.1 15.2
377(19) 0.002653 301.2 14.8
327(18) 0.003058 301.4 14.4
348(19) 0.002874 301.5 14.1
331(18) 0.003021 301.6 13.7
354(19) 0.002825 301.8 13.4
330(18) 0.003030 301.9 13.0
323(18) 0.003096 302.0 12.7
316(18) 0.003165 302.1 12.4
309(18) 0.003236 302.3 12.2
311(18) 0.003215 302.4 11.9
337(18) 0.002967 302.5 11.6
311(18) 0.003215 302.7 11.4
343(19) 0.002915 302.8 11.2
320(18) 0.003125 302.9 10.9
317(18) 0.003155 303.0 10.7
297(17) 0.003367 303.2 10.5
339(18) 0.002950 303.3 10.3
333(18) 0.003003 303.4 10.1
331(18) 0.003021 303.6 9.9
321(18) 0.003115 303.7 9.8
310(18) 0.003226 303.8 9.6
317(18) 0.003155 303.9 9.4
326(18) 0.003067 304.1 9.3
308(18) 0.003247 304.2 9.1
315(18) 0.003175 304.2 9.0
301(17) 0.003322 304.3 8.9
327(18) 0.003058 304.4 8.7
307(18) 0.003257 304.4 8.6
306(17) 0.003268 304.5 8.5
312(18) 0.003205 304.5 8.4
340(18) 0.002941 304.6 8.3
314(18) 0.003185 304.6 8.2
312(18) 0.003205 304.7 8.1
296(17) 0.003378 304.8 8.0
291(17) 0.003436 304.8 7.9
323(18) 0.003096 304.9 7.8
326(18) 0.003067 304.9 7.7
321(18) 0.003115 305.0 7.6
313(18) 0.003195 305.1 7.5
315(18) 0.003175 305.1 7.5
332(18) 0.003012 305.2 7.4
308(18) 0.003247 305.2 7.3
299(17) 0.003344 305.3 7.3
301(17) 0.003322 305.3 7.2
357(19) 0.002801 305.4 7.1
309(18) 0.003236 305.5 7.1
325(18) 0.003077 305.5 7.1
323(18) 0.003096 305.6 7.0
332(18) 0.003012 305.6 7.0
328(18) 0.003049 305.7 6.9
334(18) 0.002994 305.8 6.9
322(18) 0.003106 305.8 6.9
326(18) 0.003067 305.9 6.8
338(18) 0.002959 305.9 6.8
349(19) 0.002865 306.0 6.8
322(18) 0.003106 306.0 6.8
341(18) 0.002933 306.1 6.8
323(18) 0.003096 306.2 6.8
345(19) 0.002899 306.2 7.1
332(18) 0.003012 306.3 7.1
326(18) 0.003067 306.3 7.1
322(18) 0.003106 306.4 7.1
306(17) 0.003268 306.4 7.1
342(18) 0.002924 306.5 7.2
314(18) 0.003185 306.6 7.2
347(19) 0.002882 306.6 7.2
311(18) 0.003215 306.7 7.3
320(18) 0.003125 306.7 7.3
343(19) 0.002915 306.8 7.4
341(18) 0.002933 306.9 7.5
357(19) 0.002801 306.9 7.6
328(18) 0.003049 307.0 7.7
284(17) 0.00352 307.0 7.8
369(19) 0.002710 307.1 7.9
338(18) 0.002959 307.1 8.1
334(18) 0.002994 307.2 8.3
315(18) 0.003175 307.3 8.5
317(18) 0.003155 307.3 8.7
328(18) 0.003049 307.4 9.0
363(19) 0.002755 307.4 9.3
349(19) 0.002865 307.5 9.6
334(18) 0.002994 307.5 9.9
342(18) 0.002924 307.6 10.4
356(19) 0.002809 307.7 11.2
338(18) 0.002959 307.7 11.8
346(19) 0.002890 307.8 12.5
347(19) 0.002882 307.8 13.3
330(18) 0.003030 307.9 14.3
334(18) 0.002994 308.0 15.6
340(18) 0.002941 308.0 17.1
334(18) 0.002994 308.1 19.0
357(19) 0.002801 308.1 21.4
351(19) 0.002849 308.2 24.3
340(18) 0.002941 308.2 27.9
344(19) 0.002907 308.3 32.2
360(19) 0.002778 308.4 37.3
382(20) 0.002618 308.4 43.2
412(20) 0.002427 308.5 49.8
447(21) 0.002237 308.5 56.8
413(20) 0.002421 308.6 64.0
445(21) 0.002247 308.6 70.7
474(22) 0.002110 308.7 75.9
492(22) 0.002033 308.8 78.8
459(21) 0.002179 308.8 78.7
453(21) 0.002208 308.9 75.7
441(21) 0.002268 308.9 70.5
439(21) 0.002278 309.0 63.9
388(20) 0.002577 309.1 56.8
428(21) 0.002336 309.1 49.8
391(20) 0.002558 309.2 43.4
391(20) 0.002558 309.2 37.6
392(20) 0.002551 309.3 32.7
397(20) 0.002519 309.3 28.5
361(19) 0.002770 309.4 25.1
367(19) 0.002725 309.5 22.3
362(19) 0.002762 309.5 20.1
389(20) 0.002571 309.6 18.3
345(19) 0.002899 309.6 16.9
369(19) 0.002710 309.7 16.0
352(19) 0.002841 309.8 15.2
369(19) 0.002710 309.8 14.6
343(19) 0.002915 309.9 14.1
353(19) 0.002833 309.9 13.7
334(18) 0.002994 310.0 13.4
372(19) 0.002688 310.0 13.3
344(19) 0.002907 310.1 13.1
372(19) 0.002688 310.2 13.1
354(19) 0.002825 310.2 13.1
339(18) 0.002950 310.3 13.2
322(18) 0.003106 310.3 13.4
370(19) 0.002703 310.4 13.6
365(19) 0.002740 310.4 13.8
364(19) 0.002747 310.5 14.1
356(19) 0.002809 310.6 14.5
350(19) 0.002857 310.6 14.9
331(18) 0.003021 310.7 15.4
336(18) 0.002976 310.7 16.0
376(19) 0.002660 310.8 16.6
344(19) 0.002907 310.9 17.3
361(19) 0.002770 310.9 18.0
353(19) 0.002833 311.0 18.8
359(19) 0.002786 311.0 19.6
367(19) 0.002725 311.1 20.5
360(19) 0.002778 311.1 21.5
386(20) 0.002591 311.2 22.5
396(20) 0.002525 311.3 23.6
363(19) 0.002755 311.3 24.7
369(19) 0.002710 311.4 25.8
347(19) 0.002882 311.4 27.0
384(20) 0.002604 311.5 28.2
390(20) 0.002564 311.5 29.5
350(19) 0.002857 311.6 30.7
354(19) 0.002825 311.7 31.9
371(19) 0.002695 311.7 33.1
381(20) 0.002625 311.8 34.2
358(19) 0.002793 311.8 35.3
360(19) 0.002778 311.9 36.3
412(20) 0.002427 312.0 37.1
395(20) 0.002532 312.0 37.8
362(19) 0.002762 312.1 38.4
358(19) 0.002793 312.1 38.8
341(18) 0.002933 312.2 39.1
387(20) 0.002584 312.2 39.1
362(19) 0.002762 312.3 39.1
422(21) 0.002370 312.4 38.7
370(19) 0.002703 312.4 38.3
372(19) 0.002688 312.5 37.6
376(19) 0.002660 312.5 36.8
372(19) 0.002688 312.6 35.9
355(19) 0.002817 312.7 34.9
370(19) 0.002703 312.7 33.8
344(19) 0.002907 312.8 32.7
337(18) 0.002967 312.8 31.4
370(19) 0.002703 312.9 30.2
325(18) 0.003077 312.9 29.0
351(19) 0.002849 313.0 27.8
395(20) 0.002532 313.1 26.5
355(19) 0.002817 313.1 25.3
336(18) 0.002976 313.2 24.1
331(18) 0.003021 313.2 23.0
344(19) 0.002907 313.3 21.9
355(19) 0.002817 313.3 20.8
340(18) 0.002941 313.4 19.8
355(19) 0.002817 313.5 18.9
322(18) 0.003106 313.5 18.0
358(19) 0.002793 313.6 17.2
340(18) 0.002941 313.6 16.4
323(18) 0.003096 313.7 15.6
341(18) 0.002933 313.8 15.0
304(17) 0.003289 313.8 14.3
350(19) 0.002857 313.9 13.7
320(18) 0.003125 313.9 13.2
308(18) 0.003247 314.0 12.7
357(19) 0.002801 314.0 12.2
343(19) 0.002915 314.1 11.8
326(18) 0.003067 314.2 11.4
327(18) 0.003058 314.2 11.1
329(18) 0.003039 314.3 10.7
366(19) 0.002732 314.3 11.2
358(19) 0.002793 314.4 10.9
341(18) 0.002933 314.4 10.7
346(19) 0.002890 314.5 10.5
331(18) 0.003021 314.6 10.3
326(18) 0.003067 314.6 10.1
357(19) 0.002801 314.7 9.9
345(19) 0.002899 314.7 9.8
359(19) 0.002786 314.8 9.7
351(19) 0.002849 314.9 9.6
336(18) 0.002976 314.9 9.5
341(18) 0.002933 315.0 9.4
355(19) 0.002817 315.0 9.3
337(18) 0.002967 315.1 9.2
347(19) 0.002882 315.1 9.2
321(18) 0.003115 315.2 9.1
311(18) 0.003215 315.3 9.1
299(17) 0.003344 315.3 9.3
331(18) 0.003021 315.4 9.3
347(19) 0.002882 315.4 9.3
351(19) 0.002849 315.5 9.3
346(19) 0.002890 315.6 9.3
328(18) 0.003049 315.6 9.2
339(18) 0.002950 315.7 9.2
345(19) 0.002899 315.7 9.3
337(18) 0.002967 315.8 9.3
332(18) 0.003012 315.8 9.3
325(18) 0.003077 316.0 9.3
332(18) 0.003012 316.1 9.3
358(19) 0.002793 316.3 11.0
350(19) 0.002857 316.5 11.0
330(18) 0.003030 316.7 11.1
319(18) 0.003135 316.9 11.1
329(18) 0.003039 317.0 11.2
317(18) 0.003155 317.2 11.3
317(18) 0.003155 317.4 11.4
338(18) 0.002959 317.6 11.5
306(17) 0.003268 317.8 11.5
302(17) 0.003311 317.9 11.6
343(19) 0.002915 318.1 11.7
339(18) 0.002950 318.3 11.7
345(19) 0.002899 318.5 11.8
315(18) 0.003175 318.7 11.9
358(19) 0.002793 318.9 12.0
333(18) 0.003003 319.0 12.1
367(19) 0.002725 319.2 12.2
325(18) 0.003077 319.4 12.3
336(18) 0.002976 319.6 12.4
344(19) 0.002907 319.8 12.5
333(18) 0.003003 319.9 12.6
328(18) 0.003049 320.1 12.7
344(19) 0.002907 320.3 12.8
343(19) 0.002915 320.5 12.9
318(18) 0.003145 320.7 13.1
345(19) 0.002899 320.8 13.2
357(19) 0.002801 321.0 13.3
348(19) 0.002874 321.2 13.5
318(18) 0.003145 321.4 13.6
337(18) 0.002967 321.6 13.7
368(19) 0.002717 321.7 13.9
335(18) 0.002985 321.9 14.1
309(18) 0.003236 322.1 14.2
331(18) 0.003021 322.3 14.4
309(18) 0.003236 322.5 14.6
344(19) 0.002907 322.6 14.8
317(18) 0.003155 322.8 15.0
323(18) 0.003096 323.0 15.2
297(17) 0.003367 323.2 15.4
370(19) 0.002703 323.4 15.6
357(19) 0.002801 323.5 15.8
341(18) 0.002933 323.7 16.0
321(18) 0.003115 323.9 16.2
335(18) 0.002985 324.1 16.5
347(19) 0.002882 324.3 16.7
378(19) 0.002646 324.4 16.9
349(19) 0.002865 324.6 18.0
349(19) 0.002865 324.8 18.3
336(18) 0.002976 325.0 18.6
338(18) 0.002959 325.2 18.8
350(19) 0.002857 325.4 19.1
368(19) 0.002717 325.5 19.4
369(19) 0.002710 325.7 19.7
339(18) 0.002950 325.9 20.1
393(20) 0.002545 326.1 20.4
361(19) 0.002770 326.3 20.7
351(19) 0.002849 326.4 21.1
347(19) 0.002882 326.6 21.4
422(21) 0.002370 326.8 21.8
372(19) 0.002688 327.0 22.2
348(19) 0.002874 327.2 22.6
340(18) 0.002941 327.3 23.1
369(19) 0.002710 327.5 23.5
395(20) 0.002532 327.7 24.0
397(20) 0.002519 327.9 24.4
410(20) 0.002439 328.1 24.9
365(19) 0.002740 328.2 25.4
399(20) 0.002506 328.4 26.0
357(19) 0.002801 328.6 26.5
362(19) 0.002762 328.8 27.2
365(19) 0.002740 329.0 27.8
389(20) 0.002571 329.1 28.4
354(19) 0.002825 329.3 29.1
368(19) 0.002717 329.5 29.8
345(19) 0.002899 329.7 30.5
339(18) 0.002950 329.9 31.3
360(19) 0.002778 330.0 32.1
358(19) 0.002793 330.2 32.9
362(19) 0.002762 330.4 33.8
383(20) 0.002611 330.6 34.8
367(19) 0.002725 330.8 35.7
376(19) 0.002660 331.0 36.8
390(20) 0.002564 331.1 37.9
368(19) 0.002717 331.3 39.1
357(19) 0.002801 331.5 40.3
379(19) 0.002639 331.7 41.6
365(19) 0.002740 331.9 43.0
345(19) 0.002899 332.0 44.5
370(19) 0.002703 332.2 46.1
370(19) 0.002703 332.4 47.9
358(19) 0.002793 332.6 49.7
354(19) 0.002825 332.8 51.7
365(19) 0.002740 332.9 53.9
394(20) 0.002538 333.1 56.2
362(19) 0.002762 333.3 58.8
352(19) 0.002841 333.5 61.6
359(19) 0.002786 333.7 64.7
392(20) 0.002551 333.8 68.0
360(19) 0.002778 334.0 71.8
388(20) 0.002577 334.2 76.0
423(21) 0.002364 334.4 80.7
405(20) 0.002469 334.6 86.0
410(20) 0.002439 334.7 92.1
455(21) 0.002198 334.9 99.1
424(21) 0.002358 335.1 107.4
482(22) 0.002075 335.3 117.3
490(22) 0.002041 335.5 129.4
468(22) 0.002137 335.6 144.7
499(22) 0.002004 335.8 164.4
518(23) 0.001931 336.0 190.2
609(25) 0.001642 336.2 224.1
689(26) 0.001451 336.4 268.2
739(27) 0.001353 336.6 324.3
841(29) 0.001189 336.7 393.3
931(31) 0.001074 336.9 473.8
1072(33) 0.000933 337.1 559.2
1158(34) 0.000864 337.3 635.2
1259(35) 0.000794 337. 681.
1203(35) 0.000831 337.6 683.0
1127(34) 0.000887 337.8 645.7
1064(33) 0.000940 338.0 589.8
952(31) 0.001050 338.2 534.9
926(30) 0.001080 338.4 492.7
980(31) 0.001020 338.5 468.0
965(31) 0.001036 338.7 462.3
1011(32) 0.000989 338.9 475.2
1008(32) 0.000992 339.1 505.5
1080(33) 0.000926 339.3 551.4
1105(33) 0.000905 339.4 610.3
1179(34) 0.000848 339.6 678.9
1175(34) 0.000851 339.8 752.7
1218(35) 0.000821 340.0 827.9
1311(36) 0.000763 340. 902.
1366(37) 0.000732 340. 976.
1423(38) 0.000703 341. 1049.
1526(39) 0.000655 341. 1118.
1602(40) 0.000624 341. 1178.
1677(41) 0.000596 341. 1217.
1661(41) 0.000602 341. 1225.
1774(42) 0.000564 341. 1197.
1637(40) 0.000611 342. 1135.
1499(39) 0.000667 342. 1049.
1397(37) 0.000716 342. 951.
1186(34) 0.000843 342.1 850.8
1122(33) 0.000891 342.3 756.0
1061(33) 0.000943 342.5 671.0
939(31) 0.001065 342.7 597.5
874(30) 0.001144 342.9 536.3
774(28) 0.001292 343.1 487.2
763(28) 0.001311 343.2 449.3
748(27) 0.001337 343.4 421.6
762(28) 0.001312 343.6 403.3
696(26) 0.001437 343.8 393.4
727(27) 0.001376 344.0 391.0
736(27) 0.001359 344.1 395.6
742(27) 0.001348 344.3 406.6
768(28) 0.001302 344.5 423.6
807(28) 0.001239 344.7 446.3
834(29) 0.001199 344.9 474.0
862(29) 0.001160 345.0 505.9
916(30) 0.001092 345.2 540.2
927(30) 0.001079 345.4 574.8
962(31) 0.001040 345.6 607.5
1068(33) 0.000936 345.8 638.2
1124(34) 0.000890 345.9 669.9
1163(34) 0.000860 346.1 708.6
1213(35) 0.000824 346.3 762.7
1212(35) 0.000825 346.5 842.8
1376(37) 0.000727 347. 962.
1511(39) 0.000662 347. 1136.
1668(41) 0.000600 347. 1382.
2036(45) 0.000491 347. 1719.
2357(49) 0.000424 347. 2156.
2929(54) 0.0003414 348. 2684.
3443(59) 0.0002904 348. 3253.
3924(63) 0.0002548 348. 3733.
4210(65) 0.0002375 348. 3941.
3855(62) 0.0002594 348. 3773.
3301(57) 0.0003029 348. 3314.
2777(53) 0.000360 349. 2747.
2456(50) 0.000407 349. 2209.
2145(46) 0.000466 349. 1761.
1968(44) 0.000508 349. 1415.
1682(41) 0.000595 349. 1163.
1541(39) 0.000649 350. 989.
1477(38) 0.000677 350. 879.
1423(38) 0.000703 350. 819.
1400(37) 0.000714 350. 798.
1347(37) 0.000742 350. 813.
1354(37) 0.000739 350. 859.
1402(37) 0.000713 351. 936.
1390(37) 0.000719 351. 1042.
1447(38) 0.000691 351. 1175.
1532(39) 0.000653 351. 1327.
1610(40) 0.000621 351. 1483.
1769(42) 0.000565 352. 1618.
1867(43) 0.000536 352. 1702.
1932(44) 0.000518 352. 1708.
1882(43) 0.000531 352. 1630.
1767(42) 0.000566 352. 1488.
1526(39) 0.000655 352. 1311.
1442(38) 0.000693 353. 1128.
1195(35) 0.000837 352.8 957.0
1166(34) 0.000858 353.0 805.7
1038(32) 0.000963 353.2 677.3
892(30) 0.001121 353.3 571.7
849(29) 0.001178 353.5 486.7
797(28) 0.001255 353.7 419.4
767(28) 0.001304 353.9 366.9
726(27) 0.001377 354.1 326.1
677(26) 0.001477 354.3 294.3
672(26) 0.001488 354.4 269.5
672(26) 0.001488 354.6 249.9
629(25) 0.001590 354.8 234.3
584(24) 0.001712 355.0 221.9
603(25) 0.001658 355.2 212.0
562(24) 0.001779 355.3 204.2
578(24) 0.001730 355.5 198.3
565(24) 0.001770 355.7 193.9
524(23) 0.001908 355.9 191.1
568(24) 0.001761 356.1 189.9
555(24) 0.001802 356.2 190.1
533(23) 0.001876 356.4 191.9
586(24) 0.001706 356.6 195.4
590(24) 0.001695 356.8 200.7
573(24) 0.001745 357.0 208.2
543(23) 0.001842 357.1 217.9
594(24) 0.001684 357.3 230.2
605(25) 0.001653 357.5 245.5
617(25) 0.001621 357.7 263.9
671(26) 0.001490 357.9 285.9
645(25) 0.001550 358.0 311.8
752(27) 0.001330 358.2 341.8
728(27) 0.001374 358.4 376.0
778(28) 0.001285 358.6 414.7
859(29) 0.001164 358.8 457.7
834(29) 0.001199 358.9 504.8
912(30) 0.001096 359.1 555.2
945(31) 0.001058 359.3 608.1
963(31) 0.001038 359.5 661.9
1118(33) 0.000894 359.7 714.4
1104(33) 0.000906 359.9 762.9
1231(35) 0.000812 360. 804.
1239(35) 0.000807 360. 834.
1321(36) 0.000757 360. 851.
1310(36) 0.000763 361. 852.
1254(35) 0.000797 361. 838.
1229(35) 0.000814 360.9 809.9
1160(34) 0.000862 361.1 771.9
1096(33) 0.000912 361.3 726.9
1054(32) 0.000949 361.5 678.5
962(31) 0.001040 361.7 629.5
919(30) 0.001088 361.8 582.5
891(30) 0.001122 362.0 539.2
811(28) 0.001233 362.2 500.8
827(29) 0.001209 362.4 468.5
769(28) 0.001300 362.6 443.0
815(29) 0.001227 362.7 425.1
796(28) 0.001256 362.9 415.1
824(29) 0.001214 363.1 413.7
842(29) 0.001188 363.3 421.0
828(29) 0.001208 363.5 437.2
816(29) 0.001225 363.6 462.3
856(29) 0.001168 363.8 495.9
852(29) 0.001174 364.0 536.8
963(31) 0.001038 364.2 583.4
970(31) 0.001031 364.4 632.4
1018(32) 0.000982 364.5 679.2
1033(32) 0.000968 364.7 717.7
1150(34) 0.000870 364.9 741.1
1109(33) 0.000902 365.1 744.3
1190(34) 0.000840 365.3 725.4
1172(34) 0.000853 365.4 686.9
1154(34) 0.000867 365.6 634.4
993(32) 0.001007 365.8 574.3
968(31) 0.001033 366.0 512.2
834(29) 0.001199 366.2 451.9
778(28) 0.001285 366.4 396.1
713(27) 0.001403 366.5 345.9
627(25) 0.001595 366.7 301.7
632(25) 0.001582 366.9 263.6
559(24) 0.001789 367.1 231.3
538(23) 0.001859 367.3 204.1
521(23) 0.001919 367.4 181.5
491(22) 0.002037 367.6 162.8
499(22) 0.002004 367.8 147.4
483(22) 0.002070 368.0 134.6
453(21) 0.002208 368.2 124.0
471(22) 0.002123 368.3 115.1
467(22) 0.002141 368.5 107.6
449(21) 0.002227 368.7 101.1
419(20) 0.002387 368.9 95.6
423(21) 0.002364 369.1 90.7
424(21) 0.002358 369.2 86.4
443(21) 0.002257 369.4 82.6
432(21) 0.002315 369.6 79.2
423(21) 0.002364 369.8 76.1
426(21) 0.002347 370.0 73.3
390(20) 0.002564 370.1 70.8
413(20) 0.002421 370.3 68.6
387(20) 0.002584 370.5 66.6
389(20) 0.002571 370.7 64.7
423(21) 0.002364 370.9 63.0
422(21) 0.002370 371.0 61.4
437(21) 0.002288 371.2 60.0
362(19) 0.002762 371.4 58.7
411(20) 0.002433 371.6 57.5
389(20) 0.002571 371.8 56.5
408(20) 0.002451 372.0 55.5
390(20) 0.002564 372.1 54.6
387(20) 0.002584 372.3 53.8
386(20) 0.002591 372.5 53.1
432(21) 0.002315 372.7 52.5
367(19) 0.002725 372.9 52.0
403(20) 0.002481 373.0 51.5
414(20) 0.002415 373.2 51.1
384(20) 0.002604 373.4 50.7
393(20) 0.002545 373.6 50.5
406(20) 0.002463 373.8 50.3
383(20) 0.002611 373.9 50.1
376(19) 0.002660 374.1 50.1
369(19) 0.002710 374.3 50.1
395(20) 0.002532 374.4 50.2
374(19) 0.002674 374.4 50.3
402(20) 0.002488 374.4 50.6
401(20) 0.002494 374.4 50.9
415(20) 0.002410 374.4 51.3
414(20) 0.002415 374.4 51.9
383(20) 0.002611 374.4 52.5
372(19) 0.002688 374.4 53.3
366(19) 0.002732 374.4 54.3
358(19) 0.002793 374.4 55.5
373(19) 0.002681 374.4 56.9
396(20) 0.002525 374.4 58.6
399(20) 0.002506 374.4 60.6
395(20) 0.002532 374.4 63.1
387(20) 0.002584 374.4 66.2
399(20) 0.002506 374.4 70.1
395(20) 0.002532 374.4 75.1
399(20) 0.002506 374.4 81.8
413(20) 0.002421 374.4 91.2
438(21) 0.002283 374.4 104.6
450(21) 0.002222 374.4 124.3
445(21) 0.002247 374.4 152.8
491(22) 0.002037 374.4 192.8
527(23) 0.001898 374.4 245.1
569(24) 0.001757 374.4 304.5
622(25) 0.001608 374.4 352.3
668(26) 0.001497 374.4 361.2
640(25) 0.001563 374.4 325.1
624(25) 0.001603 374.4 268.4
516(23) 0.001938 374.4 214.2
472(22) 0.002119 374.4 171.7
467(22) 0.002141 374.4 141.2
468(22) 0.002137 374.4 120.6
420(20) 0.002381 374.4 107.1
404(20) 0.002475 374.4 98.3
431(21) 0.002320 374.4 92.7
426(21) 0.002347 374.4 89.1
424(21) 0.002358 374.4 86.8
448(21) 0.002232 374.4 85.4
412(20) 0.002427 374.4 84.9
430(21) 0.002326 374.4 84.8
410(20) 0.002439 374.4 85.3
425(21) 0.002353 374.4 86.2
432(21) 0.002315 374.4 87.4
424(21) 0.002358 374.4 89.0
430(21) 0.002326 374.4 90.8
410(20) 0.002439 374.4 92.9
427(21) 0.002342 374.4 95.3
419(20) 0.002387 374.4 98.0
444(21) 0.002252 374.4 100.9
453(21) 0.002208 374.4 104.1
445(21) 0.002247 374.4 107.5
456(21) 0.002193 374.4 111.2
470(22) 0.002128 374.4 115.1
483(22) 0.002070 374.4 119.4
474(22) 0.002110 374.4 124.0
447(21) 0.002237 374.4 128.8
453(21) 0.002208 374.4 134.0
457(21) 0.002188 374.4 139.6
469(22) 0.002132 374.4 145.5
504(22) 0.001984 374.4 151.8
522(23) 0.001916 374.4 158.5
492(22) 0.002033 374.4 165.7
519(23) 0.001927 374.4 173.5
524(23) 0.001908 374.4 181.8
564(24) 0.001773 374.4 190.7
589(24) 0.001698 374.4 200.4
558(24) 0.001792 374.4 210.9
606(25) 0.001650 374.4 222.2
612(25) 0.001634 374.4 234.5
591(24) 0.001692 374.4 248.0
614(25) 0.001629 374.4 262.6
693(26) 0.001443 374.4 278.6
647(25) 0.001546 374.4 295.9
736(27) 0.001359 374.4 314.8
744(27) 0.001344 374.4 335.3
746(27) 0.001340 374.4 357.5
795(28) 0.001258 374.4 381.3
814(29) 0.001228 374.4 406.8
920(30) 0.001087 374.4 433.8
937(31) 0.001067 374.4 462.2
978(31) 0.001022 374.4 491.5
1003(32) 0.000997 374.4 521.5
1131(34) 0.000884 374.4 551.4
1082(33) 0.000924 374.4 580.5
1166(34) 0.000858 374.4 607.7
1111(33) 0.000900 374.4 632.2
1184(34) 0.000845 374.4 653.3
1172(34) 0.000853 374.4 670.4
1222(35) 0.000818 374.4 683.3
1142(34) 0.000876 374.4 692.3
1141(34) 0.000876 374.4 697.5
1176(34) 0.000850 374.4 699.4
1114(33) 0.000898 374.4 698.3
1134(34) 0.000882 374.4 694.4
1133(34) 0.000883 374.4 687.8
1129(34) 0.000886 374.4 678.5
1044(32) 0.000958 374.4 666.6
1057(33) 0.000946 374.4 652.5
1028(32) 0.000973 374.4 636.3
1039(32) 0.000962 374.4 618.8
1038(32) 0.000963 374.4 600.5
952(31) 0.001050 374.4 582.0
880(30) 0.001136 374.4 564.0
911(30) 0.001098 374.4 546.9
885(30) 0.001130 374.4 531.2
840(29) 0.001190 374.4 517.2
898(30) 0.001114 374.4 505.2
861(29) 0.001161 374.4 495.7
831(29) 0.001203 374.4 488.8
902(30) 0.001109 374.4 484.9
899(30) 0.001112 374.4 484.4
888(30) 0.001126 374.4 487.5
919(30) 0.001088 374.4 494.6
867(29) 0.001153 374.4 506.0
898(30) 0.001114 374.4 522.3
964(31) 0.001037 374.4 543.6
936(31) 0.001068 374.4 570.7
1021(32) 0.000979 374.4 603.9
1018(32) 0.000982 374.4 643.8
1078(33) 0.000928 374.4 690.8
1134(34) 0.000882 374.4 745.3
1126(34) 0.000888 374.4 807.6
1220(35) 0.000820 374.4 878.0
1284(36) 0.000779 374. 957.
1379(37) 0.000725 374. 1044.
1406(37) 0.000711 374. 1140.
1492(39) 0.000670 374. 1246.
1646(41) 0.000608 374. 1362.
1702(41) 0.000588 374. 1488.
1918(44) 0.000521 374. 1624.
2045(45) 0.000489 374. 1768.
2168(47) 0.000461 374. 1916.
2342(48) 0.000427 374. 2065.
2553(51) 0.000392 374. 2206.
2674(52) 0.000374 374. 2331.
2701(52) 0.000370 374. 2429.
2808(53) 0.000356 374. 2490.
2683(52) 0.000373 374. 2507.
2534(50) 0.000395 374. 2476.
2512(50) 0.000398 374. 2400.
2284(48) 0.000438 374. 2287.
2166(47) 0.000462 374. 2145.
2078(46) 0.000481 374. 1986.
1848(43) 0.000541 374. 1819.
1686(41) 0.000593 374. 1651.
1565(40) 0.000639 374. 1489.
1481(38) 0.000675 374. 1335.
1423(38) 0.000703 374. 1194.
1320(36) 0.000758 374. 1065.
1228(35) 0.000814 374.4 949.9
1140(34) 0.000877 374.4 848.5
1105(33) 0.000905 374.4 760.3
1089(33) 0.000918 374.4 684.8
1025(32) 0.000976 374.4 621.2
980(31) 0.001020 374.4 568.5
945(31) 0.001058 374.4 525.6
922(30) 0.001085 374.4 491.5
901(30) 0.001110 374.4 465.0
872(30) 0.001147 374.4 444.8
831(29) 0.001203 374.4 429.5
807(28) 0.001239 374.4 417.5
773(28) 0.001294 374.4 407.0
802(28) 0.001247 374.4 396.0
824(29) 0.001214 374.4 383.0
816(29) 0.001225 374.4 367.1
819(29) 0.001221 374.4 348.1
804(28) 0.001244 374.4 326.8
741(27) 0.001350 374.4 304.5
703(27) 0.001422 374.4 282.0
678(26) 0.001475 374.4 260.4
674(26) 0.001484 374.4 240.1
644(25) 0.001553 374.4 221.5
587(24) 0.001704 374.4 204.7
602(25) 0.001661 374.4 189.7
592(24) 0.001689 374.4 176.4
565(24) 0.001770 374.4 164.8
542(23) 0.001845 374.4 154.6
552(23) 0.001812 374.4 145.7
507(23) 0.001972 374.4 138.0
513(23) 0.001949 374.4 131.3
484(22) 0.002066 374.4 125.5
493(22) 0.002028 374.4 120.4
467(22) 0.002141 374.4 116.0
460(21) 0.002174 374.4 112.2
466(22) 0.002146 374.4 108.9
469(22) 0.002132 374.4 106.1
469(22) 0.002132 374.4 103.7
433(21) 0.002309 374.4 101.8
478(22) 0.002092 374.4 100.3
437(21) 0.002288 374.4 99.1
477(22) 0.002096 374.4 98.4
446(21) 0.002242 374.4 98.1
447(21) 0.002237 374.4 98.1
417(20) 0.002398 374.4 98.5
411(20) 0.002433 374.4 99.3
410(20) 0.002439 374.4 100.4
404(20) 0.002475 374.4 101.9
456(21) 0.002193 374.4 103.7
423(21) 0.002364 374.4 105.7
427(21) 0.002342 374.4 107.9
428(21) 0.002336 374.4 110.2
419(20) 0.002387 374.4 112.5
407(20) 0.002457 374.4 114.6
420(20) 0.002381 374.4 116.5
413(20) 0.002421 374.4 117.9
408(20) 0.002451 374.4 118.7
426(21) 0.002347 374.4 118.8
403(20) 0.002481 374.4 118.1
424(21) 0.002358 374.4 116.5
395(20) 0.002532 374.4 114.2
380(19) 0.002632 374.4 111.1
399(20) 0.002506 374.4 107.5
394(20) 0.002538 374.4 103.4
416(20) 0.002404 374.4 99.1
391(20) 0.002558 374.4 94.7
389(20) 0.002571 374.4 90.3
392(20) 0.002551 374.4 86.0
430(21) 0.002326 374.4 81.9
427(21) 0.002342 374.4 77.9
399(20) 0.002506 374.4 74.2
419(20) 0.002387 374.4 70.8
400(20) 0.002500 374.4 67.6
405(20) 0.002469 374.4 64.7
408(20) 0.002451 374.4 62.1
395(20) 0.002532 374.4 59.8
385(20) 0.002597 374.4 57.6
358(19) 0.002793 374.4 55.7
365(19) 0.002740 374.2 54.1
379(19) 0.002639 374.0 52.6
356(19) 0.002809 373.8 51.4
401(20) 0.002494 373.6 50.3
423(21) 0.002364 373.4 49.3
391(20) 0.002558 373.2 48.6
355(19) 0.002817 373.0 47.9
385(20) 0.002597 372.8 47.4
372(19) 0.002688 372.6 47.0
384(20) 0.002604 372.3 46.8
416(20) 0.002404 372.1 46.6
376(19) 0.002660 371.9 46.5
384(20) 0.002604 371.7 46.6
352(19) 0.002841 371.5 46.7
420(20) 0.002381 371.3 47.0
362(19) 0.002762 371.1 47.4
421(21) 0.002375 370.9 47.9
403(20) 0.002481 370.7 48.5
420(20) 0.002381 370.5 49.2
378(19) 0.002646 370.3 50.2
394(20) 0.002538 370.1 51.2
416(20) 0.002404 369.9 52.5
404(20) 0.002475 369.7 53.9
403(20) 0.002481 369.5 55.5
414(20) 0.002415 369.3 57.4
376(19) 0.002660 369.1 59.5
453(21) 0.002208 368.9 61.8
397(20) 0.002519 368.7 64.5
434(21) 0.002304 368.5 67.4
372(19) 0.002688 368.3 70.6
391(20) 0.002558 368.1 74.2
466(22) 0.002146 367.9 78.2
432(21) 0.002315 367.7 82.5
422(21) 0.002370 367.4 87.1
443(21) 0.002257 367.2 92.2
410(20) 0.002439 367.0 97.7
484(22) 0.002066 366.8 103.6
421(21) 0.002375 366.6 109.9
455(21) 0.002198 366.4 116.5
475(22) 0.002105 366.2 123.6
462(21) 0.002164 366.0 131.0
463(22) 0.002160 365.8 138.7
519(23) 0.001927 365.6 146.6
501(22) 0.001996 365.4 154.8
511(23) 0.001957 365.2 163.1
512(23) 0.001953 365.0 171.4
531(23) 0.001883 364.8 179.6
495(22) 0.002020 364.6 187.6
543(23) 0.001842 364.4 195.1
546(23) 0.001832 364.2 202.0
512(23) 0.001953 364.0 208.2
560(24) 0.001786 363.8 213.4
574(24) 0.001742 363.6 217.4
602(25) 0.001661 363.4 220.1
553(24) 0.001808 363.2 221.5
547(23) 0.001828 363.0 221.4
549(23) 0.001822 362.7 219.8
549(23) 0.001822 362.5 216.9
543(23) 0.001842 362.3 212.7
537(23) 0.001862 362.1 207.4
558(24) 0.001792 361.9 201.2
500(22) 0.002000 361.7 194.3
526(23) 0.001901 361.5 186.9
502(22) 0.001992 361.3 179.0
511(23) 0.001957 361.1 171.0
469(22) 0.002132 360.9 163.0
468(22) 0.002137 360.7 155.0
477(22) 0.002096 360.5 147.2
441(21) 0.002268 360.3 139.7
468(22) 0.002137 360.1 132.5
452(21) 0.002212 359.9 125.6
431(21) 0.002320 359.7 119.1
429(21) 0.002331 359.5 113.1
460(21) 0.002174 359.3 107.4
438(21) 0.002283 359.1 102.2
377(19) 0.002653 358.9 97.4
432(21) 0.002315 358.7 92.9
413(20) 0.002421 358.5 88.8
423(21) 0.002364 358.3 85.0
428(21) 0.002336 358.1 81.5
415(20) 0.002410 357.8 78.2
401(20) 0.002494 357.6 75.0
407(20) 0.002457 357.4 72.1
372(19) 0.002688 357.2 69.2
429(21) 0.002331 357.0 66.4
379(19) 0.002639 356.8 63.7
388(20) 0.002577 356.6 61.1
397(20) 0.002519 356.4 58.5
371(19) 0.002695 356.2 56.1
423(21) 0.002364 356.0 53.7
384(20) 0.002604 355.8 51.5
388(20) 0.002577 355.6 49.4
391(20) 0.002558 355.4 47.4
380(19) 0.002632 355.2 45.6
373(19) 0.002681 355.0 43.8
372(19) 0.002688 354.8 42.3
359(19) 0.002786 354.6 40.8
386(20) 0.002591 354.4 39.5
347(19) 0.002882 354.2 38.3
382(20) 0.002618 354.0 37.2
406(20) 0.002463 353.8 36.2
336(18) 0.002976 353.6 35.4
364(19) 0.002747 353.4 34.6
376(19) 0.002660 353.1 33.9
357(19) 0.002801 352.9 33.4
382(20) 0.002618 352.7 32.9
359(19) 0.002786 352.5 32.5
392(20) 0.002551 352.3 32.2
362(19) 0.002762 352.1 32.0
355(19) 0.002817 351.9 31.9
412(20) 0.002427 351.7 31.8
395(20) 0.002532 351.5 31.8
409(20) 0.002445 351.3 31.9
418(20) 0.002392 351.1 32.0
416(20) 0.002404 350.9 32.3
397(20) 0.002519 350.7 32.5
412(20) 0.002427 350.5 32.9
432(21) 0.002315 350.3 33.3
411(20) 0.002433 350.1 33.8
416(20) 0.002404 349.9 34.4
411(20) 0.002433 349.7 35.0
411(20) 0.002433 349.5 35.7
382(20) 0.002618 349.3 36.5
420(20) 0.002381 349.1 37.3
399(20) 0.002506 348.9 38.2
383(20) 0.002611 348.7 39.1
394(20) 0.002538 348.5 40.2
388(20) 0.002577 348.2 41.2
383(20) 0.002611 348.0 42.4
387(20) 0.002584 347.8 43.6
399(20) 0.002506 347.6 44.9
383(20) 0.002611 347.4 46.2
404(20) 0.002475 347.2 47.5
377(19) 0.002653 347.0 49.0
371(19) 0.002695 346.8 50.4
402(20) 0.002488 346.6 51.9
427(21) 0.002342 346.4 53.4
407(20) 0.002457 346.2 55.0
357(19) 0.002801 346.0 56.5
412(20) 0.002427 345.8 58.1
371(19) 0.002695 345.6 59.6
433(21) 0.002309 345.4 61.1
436(21) 0.002294 345.2 62.6
432(21) 0.002315 345.0 64.0
416(20) 0.002404 344.8 65.3
392(20) 0.002551 344.6 66.6
384(20) 0.002604 344.4 67.7
408(20) 0.002451 344.2 68.7
470(22) 0.002128 344.0 69.5
440(21) 0.002273 343.8 70.2
451(21) 0.002217 343.5 70.8
449(21) 0.002227 343.3 71.1
438(21) 0.002283 343.1 71.2
404(20) 0.002475 342.9 71.2
487(22) 0.002053 342.7 70.9
427(21) 0.002342 342.5 70.4
433(21) 0.002309 342.3 69.8
434(21) 0.002304 342.1 69.0
411(20) 0.002433 341.9 68.0
423(21) 0.002364 341.7 66.8
418(20) 0.002392 341.5 65.6
428(21) 0.002336 341.3 64.2
417(20) 0.002398 341.1 62.7
422(21) 0.002370 340.9 61.1
430(21) 0.002326 340.7 59.5
432(21) 0.002315 340.5 57.8
381(20) 0.002625 340.3 56.1
438(21) 0.002283 340.1 54.3
409(20) 0.002445 339.9 52.6
381(20) 0.002625 339.7 50.8
403(20) 0.002481 339.5 49.1
358(19) 0.002793 339.3 47.4
417(20) 0.002398 339.1 45.7
422(21) 0.002370 338.9 44.0
399(20) 0.002506 338.6 42.4
416(20) 0.002404 338.4 40.9
382(20) 0.002618 338.2 39.4
383(20) 0.002611 338.0 37.9
443(21) 0.002257 337.8 36.5
417(20) 0.002398 337.6 35.1
377(19) 0.002653 337.4 33.8
412(20) 0.002427 337.2 32.6
377(19) 0.002653 337.0 31.4
355(19) 0.002817 336.8 30.3
386(20) 0.002591 336.6 29.2
380(19) 0.002632 336.4 28.2
376(19) 0.002660 336.2 27.2
382(20) 0.002618 336.0 26.3
353(19) 0.002833 335.8 25.5
402(20) 0.002488 335.6 24.7
397(20) 0.002519 335.4 23.9
374(19) 0.002674 335.5 23.2
412(20) 0.002427 335.6 22.6
378(19) 0.002646 335.7 22.0
368(19) 0.002717 335.8 21.4
357(19) 0.002801 336.0 20.9
321(18) 0.003115 336.1 20.4
382(20) 0.002618 336.2 19.9
381(20) 0.002625 336.3 19.5
356(19) 0.002809 336.4 19.1
380(19) 0.002632 336.5 18.8
371(19) 0.002695 336.7 18.5
357(19) 0.002801 336.8 18.2
350(19) 0.002857 336.9 17.9
402(20) 0.002488 337.0 17.7
367(19) 0.002725 337.1 17.5
334(18) 0.002994 337.2 17.3
371(19) 0.002695 337.4 17.2
388(20) 0.002577 337.5 17.1
412(20) 0.002427 337.6 17.0
392(20) 0.002551 337.7 16.9
383(20) 0.002611 337.8 16.9
371(19) 0.002695 337.9 16.9
391(20) 0.002558 338.1 16.9
384(20) 0.002604 338.2 16.9
377(19) 0.002653 338.3 17.0
352(19) 0.002841 338.4 17.1
394(20) 0.002538 338.5 17.2
372(19) 0.002688 338.6 17.4
359(19) 0.002786 338.7 17.6
363(19) 0.002755 338.9 17.9
355(19) 0.002817 339.0 18.2
381(20) 0.002625 339.1 18.5
370(19) 0.002703 339.2 19.0
348(19) 0.002874 339.3 19.5
381(20) 0.002625 339.4 20.2
376(19) 0.002660 339.6 21.0
331(18) 0.003021 339.7 22.0
341(18) 0.002933 339.8 23.2
379(19) 0.002639 339.9 24.8
396(20) 0.002525 340.0 26.7
346(19) 0.002890 340.1 29.0
397(20) 0.002519 340.3 31.9
418(20) 0.002392 340.4 35.4
333(18) 0.003003 340.5 39.7
370(19) 0.002703 340.6 44.6
405(20) 0.002469 340.7 50.3
388(20) 0.002577 340.8 56.6
414(20) 0.002415 341.0 63.4
416(20) 0.002404 341.1 70.4
437(21) 0.002288 341.2 76.8
413(20) 0.002421 341.3 82.0
400(20) 0.002500 341.4 85.0
416(20) 0.002404 341.5 85.4
368(19) 0.002717 341.6 83.0
433(21) 0.002309 341.8 78.5
372(19) 0.002688 341.9 72.5
375(19) 0.002667 342.0 66.0
416(20) 0.002404 342.1 59.5
390(20) 0.002564 342.2 53.5
359(19) 0.002786 342.3 48.1
376(19) 0.002660 342.5 43.5
362(19) 0.002762 342.6 39.7
352(19) 0.002841 342.7 36.6
390(20) 0.002564 342.8 34.2
388(20) 0.002577 342.9 32.4
399(20) 0.002506 343.0 31.1
364(19) 0.002747 343.2 30.2
400(20) 0.002500 343.3 29.7
409(20) 0.002445 343.4 29.6
367(19) 0.002725 343.5 29.8
387(20) 0.002584 343.6 30.3
402(20) 0.002488 343.7 31.1
394(20) 0.002538 343.9 32.3
349(19) 0.002865 344.0 33.9
398(20) 0.002513 344.1 36.0
399(20) 0.002506 344.2 38.7
400(20) 0.002500 344.3 42.1
417(20) 0.002398 344.4 46.4
446(21) 0.002242 344.6 51.7
392(20) 0.002551 344.7 58.2
409(20) 0.002445 344.8 66.1
428(21) 0.002336 344.9 75.4
430(21) 0.002326 345.0 86.0
464(22) 0.002155 345.1 97.7
428(21) 0.002336 345.2 110.2
458(21) 0.002183 345.4 122.5
461(21) 0.002169 345.5 133.3
465(22) 0.002151 345.6 141.1
467(22) 0.002141 345.7 144.6
487(22) 0.002053 345.8 143.3
475(22) 0.002105 345.9 138.3
462(21) 0.002164 346.1 130.8
440(21) 0.002273 346.2 122.7
466(22) 0.002146 346.3 115.1
473(22) 0.002114 346.4 108.8
455(21) 0.002198 346.5 104.0
488(22) 0.002049 346.6 100.8
455(21) 0.002198 346.8 98.8
460(21) 0.002174 346.9 97.2
458(21) 0.002183 347.0 95.3
421(21) 0.002375 347.1 92.6
434(21) 0.002304 347.2 88.6
438(21) 0.002283 347.3 83.8
448(21) 0.002232 347.5 78.7
425(21) 0.002353 347.6 73.6
446(21) 0.002242 347.7 68.9
463(22) 0.002160 347.8 65.0
455(21) 0.002198 347.9 61.9
424(21) 0.002358 348.0 59.5
469(22) 0.002132 348.1 58.0
443(21) 0.002257 348.3 57.3
435(21) 0.002299 348.4 57.3
414(20) 0.002415 348.5 58.1
469(22) 0.002132 348.6 59.6
478(22) 0.002092 348.7 61.7
506(22) 0.001976 348.8 64.6
473(22) 0.002114 349.0 68.1
480(22) 0.002083 349.1 72.2
482(22) 0.002075 349.2 77.0
470(22) 0.002128 349.3 82.3
510(23) 0.001961 349.4 88.0
496(22) 0.002016 349.5 94.0
534(23) 0.001873 349.7 100.0
494(22) 0.002024 349.8 105.6
504(22) 0.001984 349.9 110.5
526(23) 0.001901 350.0 114.3
537(23) 0.001862 350.1 116.4
560(24) 0.001786 350.2 116.8
499(22) 0.002004 350.4 115.2
513(23) 0.001949 350.5 112.0
535(23) 0.001869 350.6 107.5
538(23) 0.001859 350.7 102.2
538(23) 0.001859 350.8 96.5
531(23) 0.001883 350.9 90.6
521(23) 0.001919 351.1 85.1
527(23) 0.001898 351.2 79.9
580(24) 0.001724 351.3 75.2
534(23) 0.001873 351.4 71.1
531(23) 0.001883 351.5 67.6
499(22) 0.002004 351.6 64.7
517(23) 0.001934 351.7 62.4
541(23) 0.001848 351.9 60.7
529(23) 0.001890 352.0 59.6
513(23) 0.001949 352.1 58.9
539(23) 0.001855 352.2 58.7
546(23) 0.001832 352.3 58.9
561(24) 0.001783 352.4 59.5
547(23) 0.001828 352.6 60.5
557(24) 0.001795 352.7 61.7
567(24) 0.001764 352.8 63.3
563(24) 0.001776 352.9 65.1
620(25) 0.001613 353.0 67.2
580(24) 0.001724 353.1 69.4
596(24) 0.0 0.0 .
662(26) 0.0 0.0 .
653(26) 0.0 0.0 .
641(25) 0.0 0.0 .
629(25) 0.0 0.0 .
676(26) 0.0 0.0 .
658(26) 0.0 0.0 .
710(27) 0.0 0.0 .
715(27) 0.0 0.0 .
710(27) 0.0 0.0 .
796(28) 0.0 0.0 .
802(28) 0.0 0.0 .
785(28) 0.0 0.0 .
831(29) 0.0 0.0 .
887(30) 0.0 0.0 .
914(30) 0.0 0.0 .
959(31) 0.0 0.0 .
985(31) 0.0 0.0 .
1057(33) 0.0 0.0 .
1137(34) 0.0 0.0 .
1103(33) 0.0 0.0 .
1193(35) 0.0 0.0 .
1305(36) 0.0 0. .
1447(38) 0.0 0. .
1539(39) 0.0 0. .
1717(41) 0.0 0. .
1886(43) 0.0 0. .
2124(46) 0.0 0. .
2424(49) 0.0 0. .
2689(52) 0.0 0. .
3170(56) 0.0 0. .
3668(61) 0.0 0. .
4470(67) 0.0 0. .
5395(73) 0.0 0. .
6953(83) 0.0 0. .
8961(95) 0.0 0. .
12100(110) 0.0 0. .
16480(130) 0.0 0. .
23470(150) 0.0 0. .
35870(190) 0.0 0. .
58090(240) 0.0 0. .
96740(310) 0.0 0. .
159110(400) 0.0 0. .
220650(470) 0.0 0. .
225560(480) 0.0 0. .
162070(400) 0.0 0. .
94550(310) 0.0 0. .
54280(230) 0.0 0. .
32980(180) 0.0 0. .
21730(150) 0.0 0. .
14910(120) 0.0 0. .
10860(100) 0.0 0. .
8322(91) 0.0 0. .
6571(81) 0.0 0. .
5388(73) 0.0 0. .
4398(66) 0.0 0. .
3784(62) 0.0 0. .
3270(57) 0.0 0. .
2847(53) 0.0 0. .
2595(51) 0.0 0. .
2338(48) 0.0 0. .
2030(45) 0.0 0. .
1889(43) 0.0 0. .
1727(42) 0.0 0. .
1640(40) 0.0 0. .
1496(39) 0.0 0. .
1367(37) 0.0 0. .
1376(37) 0.0 0. .
1210(35) 0.0 0.0 .
1151(34) 0.0 0.0 .
1111(33) 0.0 0.0 .
1068(33) 0.0 0.0 .
1069(33) 0.0 0.0 .
989(31) 0.0 0.0 .
952(31) 0.0 0.0 .
882(30) 0.0 0.0 .
918(30) 0.0 0.0 .
822(29) 0.0 0.0 .
846(29) 0.0 0.0 .
869(29) 0.0 0.0 .
774(28) 0.0 0.0 .
717(27) 0.0 0.0 .
711(27) 0.0 0.0 .
704(27) 0.0 0.0 .
739(27) 0.0 0.0 .
673(26) 0.0 0.0 .
683(26) 0.0 0.0 .
663(26) 0.0 0.0 .
615(25) 0.0 0.0 .
664(26) 0.0 0.0 .
619(25) 0.0 0.0 .
624(25) 0.0 0.0 .
610(25) 0.0 0.0 .
581(24) 0.0 0.0 .
564(24) 0.0 0.0 .
587(24) 0.001704 364.3 42.0
577(24) 0.001733 364.4 40.0
544(23) 0.001838 364.5 38.2
541(23) 0.001848 364.6 36.6
555(24) 0.001802 364.8 35.0
574(24) 0.001742 364.9 33.6
515(23) 0.001942 365.0 32.3
504(22) 0.001984 365.1 31.1
511(23) 0.001957 365.2 30.2
516(23) 0.001938 365.3 29.2
550(23) 0.001818 365.4 28.2
500(22) 0.002000 365.6 27.3
485(22) 0.002062 365.7 26.4
490(22) 0.002041 365.8 25.6
483(22) 0.002070 365.9 24.9
508(23) 0.001968 366.0 24.2
486(22) 0.002058 366.1 23.6
452(21) 0.002212 366.3 23.0
488(22) 0.002049 366.4 22.4
448(21) 0.002232 366.5 21.9
471(22) 0.002123 366.6 21.4
485(22) 0.002062 366.7 20.9
470(22) 0.002128 366.8 20.5
484(22) 0.002066 367.0 20.1
456(21) 0.002193 367.1 19.7
465(22) 0.002151 367.2 19.4
462(21) 0.002164 367.3 19.0
481(22) 0.002079 367.4 18.7
482(22) 0.002075 367.5 18.5
472(22) 0.002119 367.7 18.2
452(21) 0.002212 367.8 18.0
402(20) 0.002488 367.9 17.8
454(21) 0.002203 368.0 17.6
492(22) 0.002033 368.1 17.4
492(22) 0.002033 368.2 17.2
443(21) 0.002257 368.3 17.1
477(22) 0.002096 368.5 17.0
484(22) 0.002066 368.6 16.9
486(22) 0.002058 368.7 16.8
509(23) 0.001965 368.8 17.7
454(21) 0.002203 368.9 17.7
526(23) 0.001901 369.0 17.7
516(23) 0.001938 369.2 17.8
493(22) 0.002028 369.3 18.0
468(22) 0.002137 369.4 18.1
473(22) 0.002114 369.5 18.3
478(22) 0.002092 369.6 18.5
472(22) 0.002119 369.7 18.9
457(21) 0.002188 369.9 19.3
448(21) 0.002232 370.0 19.8
460(21) 0.002174 370.1 20.4
448(21) 0.002232 370.2 21.2
431(21) 0.002320 370.3 22.1
441(21) 0.002268 370.4 23.2
464(22) 0.002155 370.6 24.6
418(20) 0.002392 370.7 26.1
390(20) 0.002564 370.8 27.9
426(21) 0.002347 370.9 30.0
429(21) 0.002331 371.0 32.3
431(21) 0.002320 371.1 34.9
415(20) 0.002410 371.3 37.7
418(20) 0.002392 371.4 40.7
417(20) 0.002398 371.5 43.8
425(21) 0.002353 371.6 46.9
448(21) 0.002232 371.7 49.8
405(20) 0.002469 371.8 52.3
440(21) 0.002273 371.9 54.2
450(21) 0.002222 372.1 55.2
445(21) 0.002247 372.2 55.3
424(21) 0.002358 372.3 54.4
426(21) 0.002347 372.4 52.6
413(20) 0.002421 372.5 50.2
404(20) 0.002475 372.6 47.3
398(20) 0.002513 372.8 44.1
429(21) 0.002331 372.9 40.9
407(20) 0.002457 373.0 37.8
404(20) 0.002475 373.1 34.8
410(20) 0.002439 373.2 32.1
400(20) 0.002500 373.3 29.6
405(20) 0.002469 373.5 27.4
419(20) 0.002387 373.6 25.4
441(21) 0.002268 373.7 23.7
409(20) 0.002445 373.8 22.2
433(21) 0.002309 373.9 20.9
454(21) 0.002203 374.0 19.8
403(20) 0.002481 374.2 18.9
471(22) 0.002123 374.3 18.1
398(20) 0.002513 374.4 17.5
414(20) 0.002415 374.5 16.9
419(20) 0.002387 374.6 16.5
418(20) 0.002392 374.7 16.1
416(20) 0.002404 374.9 15.7
410(20) 0.002439 375.0 15.4
418(20) 0.002392 375.1 15.2
405(20) 0.002469 375.2 15.0
401(20) 0.002494 375.3 14.8
386(20) 0.002591 375.4 14.6
399(20) 0.002506 375.5 14.5
385(20) 0.002597 375.7 14.4
418(20) 0.002392 375.8 14.3
422(21) 0.002370 375.9 14.2
391(20) 0.002558 376.0 14.1
384(20) 0.002604 376.2 14.0
398(20) 0.002513 376.4 14.0
407(20) 0.002457 376.7 13.9
371(19) 0.002695 376.9 13.9
384(20) 0.002604 377.2 13.9
356(19) 0.002809 377.4 13.8
415(20) 0.002410 377.6 13.8
385(20) 0.002597 377.9 13.8
389(20) 0.002571 378.1 13.8
382(20) 0.002618 378.3 13.8
363(19) 0.002755 378.6 13.8
364(19) 0.002747 378.8 13.9
353(19) 0.002833 379.0 13.9
381(20) 0.002625 379.3 13.9
380(19) 0.002632 379.5 14.0
388(20) 0.002577 379.7 14.0
359(19) 0.002786 380.0 14.0
409(20) 0.002445 380.2 14.1
368(19) 0.002717 380.4 14.2
385(20) 0.002597 380.7 14.2
375(19) 0.002667 380.9 14.3
345(19) 0.002899 381.1 14.4
371(19) 0.002695 381.4 14.5
371(19) 0.002695 381.6 14.6
396(20) 0.002525 381.8 14.6
387(20) 0.002584 382.1 14.7
382(20) 0.002618 382.3 14.8
387(20) 0.002584 382.5 15.0
385(20) 0.002597 382.8 15.1
356(19) 0.002809 383.0 15.2
387(20) 0.002584 383.2 15.3
355(19) 0.002817 383.5 15.5
385(20) 0.002597 383.7 15.6
387(20) 0.002584 383.9 15.8
389(20) 0.002571 384.2 15.9
410(20) 0.002439 384.4 16.1
410(20) 0.002439 384.6 16.5
370(19) 0.002703 384.9 16.7
372(19) 0.002688 385.1 17.0
370(19) 0.002703 385.3 17.2
361(19) 0.002770 385.6 17.4
348(19) 0.002874 385.8 17.7
399(20) 0.002506 386.0 18.0
430(21) 0.002326 386.3 18.3
388(20) 0.002577 386.5 18.6
358(19) 0.002793 386.8 18.9
384(20) 0.002604 387.0 19.3
400(20) 0.002500 387.2 19.7
403(20) 0.002481 387.5 20.1
387(20) 0.002584 387.7 20.5
394(20) 0.002538 387.9 20.9
378(19) 0.002646 388.2 21.4
428(21) 0.002336 388.4 21.8
368(19) 0.002717 388.6 22.3
404(20) 0.002475 388.9 23.7
416(20) 0.002404 389.1 24.2
434(21) 0.002304 389.3 24.7
427(21) 0.002342 389.6 25.1
439(21) 0.002278 389.8 25.7
406(20) 0.002463 390.0 26.1
424(21) 0.002358 390.3 26.6
485(22) 0.002062 390.5 27.0
413(20) 0.002421 390.7 27.5
394(20) 0.002538 391.0 27.9
410(20) 0.002439 391.2 28.3
415(20) 0.002410 391.4 28.7
423(21) 0.002364 391.7 29.1
435(21) 0.002299 391.9 29.5
381(20) 0.002625 392.1 29.9
414(20) 0.002415 392.4 30.4
407(20) 0.002457 392.6 30.9
429(21) 0.002331 392.8 31.3
411(20) 0.002433 393.1 31.7
389(20) 0.002571 393.3 32.1
396(20) 0.002525 393.5 32.5
407(20) 0.002457 393.8 32.9
416(20) 0.002404 394.0 33.3
402(20) 0.002488 394.2 33.6
399(20) 0.002506 394.5 33.9
363(19) 0.002755 394.7 34.2
414(20) 0.002415 394.9 34.5
410(20) 0.002439 395.2 34.7
389(20) 0.002571 395.4 35.3
397(20) 0.002519 395.6 35.6
406(20) 0.002463 395.9 35.9
424(21) 0.002358 396.1 36.1
417(20) 0.002398 396.3 36.4
408(20) 0.002451 396.6 36.8
390(20) 0.002564 396.8 37.1
344(19) 0.002907 397.1 37.5
411(20) 0.002433 397.3 38.0
393(20) 0.002545 397.5 38.5
391(20) 0.002558 397.8 39.0
404(20) 0.002475 398.0 39.5
374(19) 0.002674 398.2 40.2
403(20) 0.002481 398.5 40.8
426(21) 0.002347 398.7 41.5
417(20) 0.002398 398.9 42.3
443(21) 0.002257 399.2 43.1
394(20) 0.002538 399.4 44.0
410(20) 0.002439 399.6 44.9
430(21) 0.002326 399.9 45.9
428(21) 0.002336 400.1 47.0
427(21) 0.002342 400.3 48.1
455(21) 0.002198 400.6 49.3
423(21) 0.002364 400.8 50.6
417(20) 0.002398 401.0 51.9
460(21) 0.002174 401.3 53.3
427(21) 0.002342 401.5 54.8
431(21) 0.002320 401.7 56.4
451(21) 0.002217 402.0 58.0
444(21) 0.002252 402.2 59.8
466(22) 0.002146 402.4 61.7
451(21) 0.002217 402.7 63.6
415(20) 0.002410 402.9 65.7
436(21) 0.002294 403.1 68.0
462(21) 0.002164 403.4 70.3
474(22) 0.002110 403.6 72.8
477(22) 0.002096 403.8 75.4
470(22) 0.002128 404.1 78.2
441(21) 0.002268 404.3 81.2
452(21) 0.002212 404.5 84.4
507(23) 0.001972 404.8 87.8
473(22) 0.002114 405.0 91.4
473(22) 0.002114 405.2 95.2
454(21) 0.002203 405.5 99.3
463(22) 0.002160 405.7 103.7
491(22) 0.002037 405.9 108.4
494(22) 0.002024 406.2 113.5
487(22) 0.002053 406.4 118.9
483(22) 0.002070 406.6 124.8
530(23) 0.001887 406.9 131.1
539(23) 0.001855 407.1 137.9
568(24) 0.001761 407.4 145.3
518(23) 0.001931 407.6 153.4
542(23) 0.001845 407.8 162.1
595(24) 0.001681 408.1 171.7
589(24) 0.001698 408.3 182.2
616(25) 0.001623 408.5 193.8
646(25) 0.001548 408.8 206.7
645(25) 0.001550 409.0 221.0
652(26) 0.001534 409.2 237.1
693(26) 0.001443 409.5 255.2
753(27) 0.001328 409.7 275.8
777(28) 0.001287 409.9 299.4
770(28) 0.001299 410.2 326.7
819(29) 0.001221 410.4 358.5
893(30) 0.001120 410.6 395.9
892(30) 0.001121 410.9 440.2
937(31) 0.001067 411.1 493.2
1064(33) 0.000940 411.3 557.2
1142(34) 0.000876 411.6 635.0
1238(35) 0.000808 412. 730.
1375(37) 0.000727 412. 847.
1578(40) 0.000634 412. 989.
1673(41) 0.000598 413. 1162.
1881(43) 0.000532 413. 1370.
2188(47) 0.000457 413. 1615.
2447(49) 0.000409 413. 1897.
2724(52) 0.000367 413. 2210.
3162(56) 0.0003163 414. 2537.
3505(59) 0.0002853 414. 2849.
3839(62) 0.0002605 414. 3099.
3925(63) 0.0002548 414. 3234.
3793(62) 0.0002636 415. 3223.
3526(59) 0.0002836 415. 3073.
3245(57) 0.0003082 415. 2827.
3089(56) 0.0003237 415. 2537.
2718(52) 0.000368 416. 2244.
2495(50) 0.000401 416. 1972.
2186(47) 0.000457 416. 1735.
2114(46) 0.000473 416. 1538.
2000(45) 0.000500 416. 1382.
1829(43) 0.000547 417. 1266.
1787(42) 0.000560 417. 1186.
1755(42) 0.000570 417. 1140.
1719(41) 0.000582 417. 1125.
1666(41) 0.000600 418. 1138.
1721(41) 0.000581 418. 1176.
1735(42) 0.000576 418. 1235.
1789(42) 0.000559 418. 1312.
1925(44) 0.000519 419. 1401.
1905(44) 0.000525 419. 1494.
1949(44) 0.000513 419. 1581.
2040(45) 0.000490 419. 1655.
2134(46) 0.000469 420. 1706.
2027(45) 0.000493 420. 1730.
2089(46) 0.000479 420. 1723.
2081(46) 0.000481 420. 1682.
2088(46) 0.000479 420. 1603.
1970(44) 0.000508 421. 1491.
1934(44) 0.000517 421. 1354.
1759(42) 0.000569 421. 1207.
1596(40) 0.000627 421. 1060.
1420(38) 0.000704 422. 922.
1260(35) 0.000794 422. 798.
1164(34) 0.000859 422.1 689.4
1058(33) 0.000945 422.3 596.6
1000(32) 0.001000 422.6 518.6
930(30) 0.001075 422.8 453.7
853(29) 0.001172 423.0 400.3
832(29) 0.001202 423.3 356.3
816(29) 0.001225 423.5 320.3
743(27) 0.001346 423.7 290.4
741(27) 0.001350 424.0 265.6
692(26) 0.001445 424.2 244.6
637(25) 0.001570 424.4 226.7
660(26) 0.001515 424.7 211.2
600(24) 0.001667 424.9 197.7
625(25) 0.001600 425.1 185.7
603(25) 0.001658 425.4 175.0
592(24) 0.001689 425.6 165.4
557(24) 0.001795 425.8 156.7
561(24) 0.001783 426.1 148.8
564(24) 0.001773 426.3 141.6
543(23) 0.001842 426.5 135.1
559(24) 0.001789 426.8 129.1
574(24) 0.001742 427.0 123.6
527(23) 0.001898 427.3 118.5
527(23) 0.001898 427.5 113.9
480(22) 0.002083 427.7 109.6
518(23) 0.001931 428.0 105.7
540(23) 0.001852 428.2 102.1
498(22) 0.002008 428.4 98.8
509(23) 0.001965 428.7 95.7
489(22) 0.002045 428.9 92.9
489(22) 0.002045 429.1 90.4
502(22) 0.001992 429.4 88.0
456(21) 0.002193 429.6 85.9
463(22) 0.002160 429.8 84.0
464(22) 0.002155 430.1 82.4
509(23) 0.001965 430.3 80.9
497(22) 0.002012 430.5 79.6
524(23) 0.001908 430.8 78.5
478(22) 0.002092 431.0 77.6
488(22) 0.002049 431.2 76.9
473(22) 0.002114 431.5 76.4
472(22) 0.002119 431.7 76.2
514(23) 0.001946 431.9 76.2
512(23) 0.001953 432.2 76.4
516(23) 0.001938 432.4 77.0
482(22) 0.002075 432.6 77.9
471(22) 0.002123 432.9 79.1
498(22) 0.002008 433.1 80.8
552(23) 0.001812 433.3 83.0
516(23) 0.001938 433.6 85.7
522(23) 0.001916 433.8 89.2
545(23) 0.001835 434.0 93.5
500(22) 0.002000 434.3 99.0
579(24) 0.001727 434.5 106.0
541(23) 0.001848 434.7 115.1
550(23) 0.001818 435.0 127.1
591(24) 0.001692 435.2 143.3
667(26) 0.001499 435.4 165.2
690(26) 0.001449 435.7 195.4
745(27) 0.001342 435.9 235.8
798(28) 0.001253 436.1 289.2
866(29) 0.001155 436.4 357.6
924(30) 0.001082 436.6 441.6
1004(32) 0.000996 436.8 538.6
1166(34) 0.000858 437.1 639.1
1179(34) 0.000848 437.3 724.2
1297(36) 0.000771 438. 768.
1234(35) 0.000810 438. 753.
1179(34) 0.000848 438.0 684.4
1047(32) 0.000955 438.3 587.9
967(31) 0.001034 438.5 486.5
896(30) 0.001116 438.7 394.4
820(29) 0.001220 439.0 318.5
755(27) 0.001324 439.2 256.7
699(26) 0.001431 439.4 209.2
705(27) 0.001418 439.7 173.3
677(26) 0.001477 439.9 146.7
651(26) 0.001536 440.1 126.9
719(27) 0.001391 440.4 112.0
683(26) 0.001464 440.6 100.6
680(26) 0.001471 440.8 91.7
686(26) 0.001458 441.1 84.5
743(27) 0.001346 441.3 78.6
745(27) 0.001342 441.5 73.6
681(26) 0.001468 441.8 69.4
694(26) 0.001441 442.0 65.8
650(25) 0.001538 442.2 62.7
635(25) 0.001575 442.5 60.0
626(25) 0.001597 442.7 57.7
609(25) 0.001642 442.9 55.6
623(25) 0.001605 443.2 53.8
572(24) 0.001748 443.4 52.2
550(23) 0.001818 443.6 50.8
559(24) 0.001789 443.9 49.6
514(23) 0.001946 444.1 48.5
504(22) 0.001984 444.3 47.5
493(22) 0.002028 444.6 46.6
514(23) 0.001946 444.8 45.8
497(22) 0.002012 445.0 45.1
500(22) 0.002000 445.3 44.5
499(22) 0.002004 445.5 44.0
491(22) 0.002037 445.7 43.5
478(22) 0.002092 446.0 43.5
486(22) 0.002058 446.2 43.1
448(21) 0.002232 446.4 42.8
462(21) 0.002164 446.7 42.6
466(22) 0.002146 446.9 42.4
413(20) 0.002421 447.2 42.2
479(22) 0.002088 447.4 42.1
447(21) 0.002237 447.6 42.0
463(22) 0.002160 447.7 42.0
448(21) 0.002232 447.9 41.9
458(21) 0.002183 448.0 42.0
442(21) 0.002262 448.1 42.0
434(21) 0.002304 448.3 42.1
463(22) 0.002160 448.4 42.2
405(20) 0.002469 448.6 42.4
466(22) 0.002146 448.7 42.6
441(21) 0.002268 448.8 42.8
476(22) 0.002101 449.0 43.0
436(21) 0.002294 449.1 43.3
467(22) 0.002141 449.3 43.6
450(21) 0.002222 449.4 43.9
486(22) 0.002058 449.5 44.3
511(23) 0.001957 449.7 44.7
473(22) 0.002114 449.8 45.2
475(22) 0.002105 450.0 45.6
465(22) 0.002151 450.1 46.1
452(21) 0.002212 450.2 46.7
449(21) 0.002227 450.4 47.3
441(21) 0.002268 450.5 47.9
455(21) 0.002198 450.6 48.5
457(21) 0.002188 450.8 49.2
449(21) 0.002227 450.9 49.9
443(21) 0.002257 451.1 50.7
460(21) 0.002174 451.2 51.6
474(22) 0.002110 451.3 52.4
468(22) 0.002137 451.5 53.3
503(22) 0.001988 451.6 54.3
505(22) 0.001980 451.8 55.3
469(22) 0.002132 451.9 56.3
477(22) 0.002096 452.0 57.4
485(22) 0.002062 452.2 58.6
491(22) 0.002037 452.3 59.8
537(23) 0.001862 452.5 61.0
554(24) 0.001805 452.6 62.4
527(23) 0.001898 452.7 63.8
514(23) 0.001946 452.9 65.2
505(22) 0.001980 453.0 66.8
487(22) 0.002053 453.1 68.4
549(23) 0.001822 453.3 70.1
537(23) 0.001862 453.4 71.8
500(22) 0.002000 453.6 73.7
484(22) 0.002066 453.7 75.7
485(22) 0.002062 453.8 77.7
531(23) 0.001883 454.0 79.9
507(23) 0.001972 454.1 82.2
477(22) 0.002096 454.3 84.6
526(23) 0.001901 454.4 87.1
535(23) 0.001869 454.5 89.8
499(22) 0.002004 454.7 92.6
517(23) 0.001934 454.8 95.5
534(23) 0.001873 455.0 98.6
541(23) 0.001848 455.1 101.9
521(23) 0.001919 455.2 105.3
559(24) 0.001789 455.4 109.0
505(22) 0.001980 455.5 112.8
544(23) 0.001838 455.6 116.8
541(23) 0.001848 455.8 121.1
556(24) 0.001799 455.9 125.6
561(24) 0.001783 456.1 130.3
615(25) 0.001626 456.2 135.3
581(24) 0.001721 456.3 140.6
562(24) 0.001779 456.5 146.2
553(24) 0.001808 456.6 152.1
588(24) 0.001701 456.8 158.4
582(24) 0.001718 456.9 165.0
621(25) 0.001610 457.0 172.1
594(24) 0.001684 457.2 179.5
597(24) 0.001675 457.3 187.4
610(25) 0.001639 457.4 195.8
644(25) 0.001553 457.6 204.8
632(25) 0.001582 457.7 214.4
628(25) 0.001592 457.9 224.7
641(25) 0.001560 458.0 235.8
626(25) 0.001597 458.1 247.9
630(25) 0.001587 458.3 261.2
719(27) 0.001391 458.4 276.2
706(27) 0.001416 458.6 292.9
751(27) 0.001332 458.7 312.0
761(28) 0.001314 458.8 334.0
778(28) 0.001285 459.0 359.9
830(29) 0.001205 459.1 390.7
825(29) 0.001212 459.3 428.1
922(30) 0.001085 459.4 474.2
961(31) 0.001041 459.5 533.0
1086(33) 0.000921 459.7 610.8
1164(34) 0.000859 459.8 718.6
1353(37) 0.000739 460. 875.
1520(39) 0.000658 460. 1109.
1859(43) 0.000538 460. 1454.
2275(48) 0.000440 460. 1943.
2812(53) 0.000356 461. 2563.
3654(60) 0.0002737 461. 3161.
4170(65) 0.0002398 461. 3389.
3931(63) 0.0002544 461. 3066.
3297(57) 0.0003033 461. 2474.
2715(52) 0.000368 461. 1921.
2361(49) 0.000424 461. 1509.
2044(45) 0.000489 461. 1233.
1864(43) 0.000536 462. 1058.
1685(41) 0.000593 462. 948.
1591(40) 0.000629 462. 879.
1540(39) 0.000649 462. 834.
1440(38) 0.000694 462. 803.
1387(37) 0.000721 462. 781.
1396(37) 0.000716 462. 764.
1295(36) 0.000772 463. 751.
1320(36) 0.000758 463. 741.
1233(35) 0.000811 463. 733.
1247(35) 0.000802 463. 727.
1238(35) 0.000808 463. 722.
1140(34) 0.000877 463.3 719.1
1130(34) 0.000885 463.4 717.1
1144(34) 0.000874 463.6 716.2
1148(34) 0.000871 463.7 716.2
1087(33) 0.000920 463.8 716.9
1046(32) 0.000956 464.0 718.0
1058(33) 0.000945 464.1 718.7
1035(32) 0.000966 464.2 718.7
1040(32) 0.000962 464.4 717.2
1069(33) 0.000935 464.5 713.7
1030(32) 0.000971 464.7 707.6
1054(32) 0.000949 464.8 698.5
1040(32) 0.000962 464.9 686.1
1051(32) 0.000951 465.1 670.7
1064(33) 0.000940 465.2 652.7
1007(32) 0.000993 465.4 632.5
995(32) 0.001005 465.5 610.9
988(31) 0.001012 465.6 588.7
999(32) 0.001001 465.8 566.6
973(31) 0.001028 465.9 544.7
921(30) 0.001086 466.1 523.1
973(31) 0.001028 466.2 500.7
980(31) 0.001020 466.3 476.4
916(30) 0.001092 466.5 449.5
891(30) 0.001122 466.6 421.4
913(30) 0.001095 466.7 393.7
866(29) 0.001155 466.9 367.8
817(29) 0.001224 467.0 344.0
804(28) 0.001244 467.2 322.6
764(28) 0.001309 467.3 303.5
754(27) 0.001326 467.4 286.5
731(27) 0.001368 467.6 271.4
745(27) 0.001342 467.7 258.1
682(26) 0.001466 467.9 246.4
702(26) 0.001424 468.0 236.1
697(26) 0.001435 468.1 227.3
720(27) 0.001389 468.3 219.6
726(27) 0.001377 468.4 213.2
723(27) 0.001383 468.6 207.9
726(27) 0.001377 468.7 203.5
759(28) 0.001318 468.8 200.2
768(28) 0.001302 469.0 197.7
748(27) 0.001337 469.1 196.0
774(28) 0.001292 469.2 195.1
935(31) 0.001070 469.4 194.9
960(31) 0.001042 469.5 195.3
1207(35) 0.000829 469.7 196.2
1164(34) 0.000859 469.8 197.6
867(29) 0.001153 469.9 199.6
718(27) 0.001393 470.1 202.3
705(27) 0.001418 470.2 205.7
726(27) 0.001377 470.4 210.0
714(27) 0.001401 470.5 215.4
770(28) 0.001299 470.6 221.9
739(27) 0.001353 470.8 229.7
711(27) 0.001406 470.9 239.0
804(28) 0.001244 471.0 249.8
746(27) 0.001340 471.2 262.6
800(28) 0.001250 471.3 277.4
809(28) 0.001236 471.5 294.5
856(29) 0.001168 471.6 314.3
885(30) 0.001130 471.7 336.9
910(30) 0.001099 471.9 362.5
975(31) 0.001026 472.0 391.6
961(31) 0.001041 472.2 424.1
1091(33) 0.000917 472.3 460.4
1122(33) 0.000891 472.4 500.4
1155(34) 0.000866 472.6 544.1
1195(35) 0.000837 472.7 591.4
1199(35) 0.000834 472.9 641.7
1218(35) 0.000821 473.0 694.6
1290(36) 0.000775 473. 749.
1345(37) 0.000743 473. 804.
1340(37) 0.000746 473. 857.
1476(38) 0.000678 474. 906.
1508(39) 0.000663 474. 948.
1519(39) 0.000658 474. 982.
1525(39) 0.000656 474. 1004.
1605(40) 0.000623 474. 1014.
1642(41) 0.000609 474. 1011.
1622(40) 0.000617 474. 996.
1570(40) 0.000637 475. 972.
1492(39) 0.000670 475. 941.
1483(39) 0.000674 475. 905.
1382(37) 0.000724 475. 867.
1326(36) 0.000754 475. 830.
1173(34) 0.000853 475.2 793.9
1211(35) 0.000826 475.4 761.0
1187(34) 0.000842 475.5 732.0
1174(34) 0.000852 475.6 707.5
1110(33) 0.000901 475.8 688.3
1190(34) 0.000840 475.9 674.6
1087(33) 0.000920 476.0 667.2
1161(34) 0.000861 476.2 666.7
1154(34) 0.000867 476.3 673.8
1173(34) 0.000853 476.5 689.8
1238(35) 0.000808 477. 716.
1283(36) 0.000779 477. 754.
1332(36) 0.000751 477. 806.
1398(37) 0.000715 477. 872.
1529(39) 0.000654 477. 956.
1623(40) 0.000616 477. 1057.
1737(42) 0.000576 477. 1174.
1840(43) 0.000543 478. 1304.
1960(44) 0.000510 478. 1438.
2020(45) 0.000495 478. 1562.
2099(46) 0.000476 478. 1661.
2195(47) 0.000456 478. 1724.
2169(47) 0.000461 478. 1754.
2207(47) 0.000453 478. 1763.
2184(47) 0.000458 479. 1771.
2320(48) 0.000431 479. 1789.
2367(49) 0.000422 479. 1825.
2420(49) 0.000413 479. 1883.
2567(51) 0.000390 479. 1961.
2610(51) 0.000383 479. 2056.
2788(53) 0.000359 479. 2162.
2826(53) 0.000354 480. 2273.
3075(55) 0.0003252 480. 2381.
3203(57) 0.0003122 480. 2480.
3400(58) 0.0002941 480. 2565.
3402(58) 0.0002939 480. 2632.
3407(58) 0.0002935 480. 2680.
3323(58) 0.0003009 480. 2704.
3346(58) 0.0002989 480. 2704.
3285(57) 0.0003044 481. 2677.
3075(55) 0.0003252 481. 2623.
2965(54) 0.0003373 481. 2543.
2806(53) 0.000356 481. 2441.
2700(52) 0.000370 481. 2321.
2498(50) 0.000400 481. 2189.
2319(48) 0.000431 481. 2049.
2260(48) 0.000442 482. 1906.
2083(46) 0.000480 482. 1763.
2018(45) 0.000496 482. 1624.
2043(45) 0.000489 482. 1490.
1906(44) 0.000525 482. 1364.
1795(42) 0.000557 482. 1245.
1736(42) 0.000576 482. 1136.
1678(41) 0.000596 483. 1035.
1612(40) 0.000620 483. 943.
1553(39) 0.000644 483. 861.
1473(38) 0.000679 483. 787.
1392(37) 0.000718 483. 721.
1458(38) 0.000686 483. 663.
1370(37) 0.000730 483. 612.
1377(37) 0.000726 484. 568.
1336(37) 0.000749 484. 528.
1309(36) 0.000764 484. 493.
1280(36) 0.000781 484. 462.
1179(34) 0.000848 484.1 433.0
1164(34) 0.000859 484.2 405.7
1198(35) 0.000835 484.4 380.3
1188(34) 0.000842 484.5 356.6
1180(34) 0.000847 484.6 334.7
1082(33) 0.000924 484.8 314.6
1125(34) 0.000889 484.9 296.3
1080(33) 0.000926 485.1 279.8
1122(33) 0.000891 485.2 265.0
1058(33) 0.000945 485.3 251.7
1077(33) 0.000929 485.5 239.8
1020(32) 0.000980 485.6 229.2
1071(33) 0.000934 485.8 219.6
1045(32) 0.000957 485.9 211.0
1045(32) 0.000957 486.0 203.3
1010(32) 0.000990 486.2 196.2
1004(32) 0.000996 486.3 189.9
1030(32) 0.000971 486.5 184.1
1019(32) 0.0 0.0 .
1050(32) 0.0 0.0 .
1070(33) 0.0 0.0 .
1091(33) 0.0 0.0 .
1084(33) 0.0 0.0 .
1108(33) 0.0 0.0 .
1162(34) 0.0 0.0 .
1175(34) 0.0 0.0 .
1199(35) 0.0 0.0 .
1253(35) 0.0 0. .
1301(36) 0.0 0. .
1268(36) 0.0 0. .
1437(38) 0.0 0. .
1423(38) 0.0 0. .
1481(38) 0.0 0. .
1487(39) 0.0 0. .
1448(38) 0.0 0. .
1524(39) 0.0 0. .
1486(39) 0.0 0. .
1487(39) 0.0 0. .
1477(38) 0.0 0. .
1532(39) 0.0 0. .
1491(39) 0.0 0. .
1453(38) 0.0 0. .
1459(38) 0.0 0. .
1518(39) 0.0 0. .
1557(39) 0.0 0. .
1629(40) 0.0 0. .
1644(41) 0.0 0. .
1673(41) 0.0 0. .
1753(42) 0.0 0. .
1854(43) 0.0 0. .
1901(44) 0.0 0. .
2038(45) 0.0 0. .
2170(47) 0.0 0. .
2272(48) 0.0 0. .
2476(50) 0.0 0. .
2576(51) 0.0 0. .
2798(53) 0.0 0. .
2885(54) 0.0 0. .
3222(57) 0.0 0. .
3549(60) 0.0 0. .
3947(63) 0.0 0. .
4378(66) 0.0 0. .
4836(70) 0.0 0. .
5578(75) 0.0 0. .
6407(80) 0.0 0. .
7181(85) 0.0 0. .
8422(92) 0.0 0. .
9891(99) 0.0 0. .
11640(110) 0.0 0. .
14170(120) 0.0 0. .
17650(130) 0.0 0. .
22200(150) 0.0 0. .
28910(170) 0.0 0. .
38700(200) 0.0 0. .
53470(230) 0.0 0. .
76890(280) 0.0 0. .
115060(340) 0.0 0. .
183860(430) 0.0 0. .
301430(550) 0.0 0. .
466810(680) 0.0 0. .
605660(780) 0.0 0. .
586380(770) 0.0 0. .
430920(660) 0.0 0. .
269030(520) 0.0 0. .
163330(400) 0.0 0. .
103630(320) 0.0 0. .
69150(260) 0.0 0. .
48410(220) 0.0 0. .
35550(190) 0.0 0. .
26790(160) 0.0 0. .
20580(140) 0.0 0. .
16220(130) 0.0 0. .
12850(110) 0.0 0. .
10590(100) 0.0 0. .
9001(95) 0.0 0. .
7553(87) 0.0 0. .
6303(79) 0.0 0. .
5407(74) 0.0 0. .
4820(69) 0.0 0. .
4228(65) 0.0 0. .
3846(62) 0.0 0. .
3442(59) 0.0 0. .
3293(57) 0.0 0. .
2900(54) 0.0 0. .
2654(52) 0.0 0. .
2523(50) 0.0 0. .
2315(48) 0.0 0. .
2151(46) 0.0 0. .
1978(44) 0.0 0. .
1906(44) 0.0 0. .
1783(42) 0.0 0. .
1661(41) 0.0 0. .
1599(40) 0.0 0. .
1478(38) 0.0 0. .
1437(38) 0.0 0. .
1412(38) 0.0 0. .
1374(37) 0.0 0. .
1299(36) 0.0 0. .
1272(36) 0.0 0. .
1170(34) 0.0 0.0 .
1178(34) 0.0 0.0 .
1063(33) 0.0 0.0 .
1063(33) 0.0 0.0 .
1094(33) 0.0 0.0 .
955(31) 0.0 0.0 .
971(31) 0.0 0.0 .
1041(32) 0.0 0.0 .
917(30) 0.0 0.0 .
948(31) 0.0 0.0 .
896(30) 0.0 0.0 .
907(30) 0.0 0.0 .
855(29) 0.0 0.0 .
870(29) 0.0 0.0 .
881(30) 0.0 0.0 .
809(28) 0.0 0.0 .
841(29) 0.0 0.0 .
848(29) 0.001179 503.0 56.1
761(28) 0.001314 503.1 58.1
759(28) 0.001318 503.2 60.5
795(28) 0.001258 503.4 63.1
811(28) 0.001233 503.5 65.9
815(29) 0.001227 503.7 69.0
775(28) 0.001290 503.8 72.2
816(29) 0.001225 503.9 75.3
759(28) 0.001318 504.1 78.1
742(27) 0.001348 504.2 80.6
766(28) 0.001305 504.4 82.3
734(27) 0.001362 504.5 83.1
742(27) 0.001348 504.6 83.0
705(27) 0.001418 504.8 81.8
700(26) 0.001429 504.9 79.6
739(27) 0.001353 505.1 76.8
729(27) 0.001372 505.2 73.4
683(26) 0.001464 505.3 69.8
701(26) 0.001427 505.5 66.0
682(26) 0.001466 505.6 62.3
717(27) 0.001395 505.7 58.8
633(25) 0.001580 505.9 55.4
635(25) 0.001575 506.0 52.4
649(25) 0.001541 506.2 49.6
606(25) 0.001650 506.3 47.2
631(25) 0.001585 506.4 45.0
638(25) 0.001567 506.6 43.0
621(25) 0.001610 506.7 41.4
622(25) 0.001608 506.9 39.9
603(25) 0.001658 507.0 38.7
622(25) 0.001608 507.1 37.7
602(25) 0.001661 507.3 36.8
609(25) 0.001642 507.4 36.0
605(25) 0.001653 507.5 35.4
572(24) 0.001748 507.7 34.9
598(24) 0.001672 507.8 34.4
628(25) 0.001592 508.0 34.1
621(25) 0.001610 508.1 33.8
586(24) 0.001706 508.2 33.5
561(24) 0.001783 508.4 33.3
598(24) 0.001672 508.5 33.2
604(25) 0.001656 508.7 33.1
573(24) 0.001745 508.8 33.0
604(25) 0.001656 508.9 32.9
600(24) 0.001667 509.1 32.9
590(24) 0.001695 509.2 32.9
560(24) 0.001786 509.4 33.0
614(25) 0.001629 509.5 33.0
569(24) 0.001757 509.6 33.1
578(24) 0.001730 509.8 33.2
606(25) 0.001650 509.9 33.3
597(24) 0.001675 510.0 33.5
565(24) 0.001770 510.2 33.7
601(25) 0.001664 510.3 33.9
551(23) 0.001815 510.5 34.1
543(23) 0.001842 510.6 34.4
585(24) 0.001709 510.7 34.6
586(24) 0.001706 510.9 34.9
566(24) 0.001767 511.0 35.3
556(24) 0.001799 511.2 35.6
540(23) 0.001852 511.3 36.0
543(23) 0.001842 511.4 36.4
528(23) 0.001894 511.6 36.9
529(23) 0.001890 511.7 37.4
540(23) 0.001852 511.9 37.9
504(22) 0.001984 512.0 38.5
519(23) 0.001927 512.1 39.1
514(23) 0.001946 512.3 39.7
518(23) 0.001931 512.4 40.4
567(24) 0.001764 512.5 41.2
526(23) 0.001901 512.2 42.0
550(23) 0.001818 511.7 42.9
511(23) 0.001957 511.2 43.9
542(23) 0.001845 510.7 45.0
540(23) 0.001852 510.1 46.1
525(23) 0.001905 509.6 47.3
529(23) 0.001890 509.1 48.6
523(23) 0.001912 508.6 50.1
548(23) 0.001825 508.1 51.6
545(23) 0.001835 507.6 53.3
532(23) 0.001880 507.1 55.1
530(23) 0.001887 506.6 57.0
526(23) 0.001901 506.1 59.2
561(24) 0.001783 505.5 61.5
530(23) 0.001887 505.0 63.9
560(24) 0.001786 504.5 66.6
584(24) 0.001712 504.0 69.5
569(24) 0.001757 503.5 72.6
540(23) 0.001852 503.0 76.0
541(23) 0.001848 502.5 79.6
571(24) 0.001751 502.0 83.5
572(24) 0.001748 501.4 87.6
538(23) 0.001859 500.9 92.0
568(24) 0.001761 500.4 96.7
597(24) 0.001675 499.9 101.7
569(24) 0.001757 499.4 107.0
589(24) 0.001698 498.9 112.6
599(24) 0.001669 498.4 118.5
600(24) 0.001667 497.9 124.7
635(25) 0.001575 497.4 131.2
619(25) 0.001616 496.8 138.0
607(25) 0.001647 496.3 145.0
673(26) 0.001486 495.8 152.3
688(26) 0.001453 495.3 159.9
618(25) 0.001618 494.8 167.6
652(26) 0.001534 494.3 175.5
680(26) 0.001471 493.8 183.5
645(25) 0.001550 493.3 191.6
668(26) 0.001497 492.7 199.8
688(26) 0.001453 492.2 207.9
707(27) 0.001414 491.7 216.1
696(26) 0.001437 491.2 224.2
708(27) 0.001412 490.7 232.2
719(27) 0.001391 490.2 240.2
783(28) 0.001277 489.7 248.2
797(28) 0.001255 489.2 256.2
757(28) 0.001321 488.7 264.5
759(28) 0.001318 488.1 273.0
782(28) 0.001279 487.6 282.1
798(28) 0.001253 487.1 291.8
822(29) 0.001217 486.6 302.4
837(29) 0.001195 486.1 314.0
847(29) 0.001181 485.6 326.8
820(29) 0.001220 485.1 340.9
873(30) 0.001145 484.6 356.2
800(28) 0.001250 484.0 372.7
900(30) 0.001111 483.5 390.0
852(29) 0.001174 483.0 407.7
875(30) 0.001143 482.5 425.0
870(29) 0.001149 482.0 440.9
923(30) 0.001083 481.5 454.1
937(31) 0.001067 481.0 463.4
896(30) 0.001116 480.5 467.5
911(30) 0.001098 480.0 465.6
871(30) 0.001148 479.4 457.7
821(29) 0.001218 478.9 444.1
810(28) 0.001235 478.4 426.1
798(28) 0.001253 477.9 404.9
740(27) 0.001351 477.4 381.9
709(27) 0.001410 476.9 358.4
721(27) 0.001387 476.4 335.3
700(26) 0.001429 475.9 313.4
679(26) 0.001473 475.3 293.0
630(25) 0.001587 474.8 274.6
642(25) 0.001558 474.3 258.4
699(26) 0.001431 473.8 244.2
626(25) 0.001597 473.3 232.1
658(26) 0.001520 472.8 222.1
642(25) 0.001558 472.3 214.2
637(25) 0.001570 471.8 208.1
635(25) 0.001575 471.3 203.9
631(25) 0.001585 470.7 201.3
626(25) 0.001597 470.2 200.4
631(25) 0.001585 469.7 201.1
628(25) 0.001592 469.2 203.4
648(25) 0.001543 468.7 207.4
698(26) 0.001433 468.2 213.3
669(26) 0.001495 467.7 221.5
744(27) 0.001344 467.2 232.4
732(27) 0.001366 466.6 246.4
748(27) 0.001337 466.1 264.3
786(28) 0.001272 465.6 286.5
836(29) 0.001196 465.1 313.3
936(31) 0.001068 464.6 344.6
917(30) 0.001091 464.1 379.3
983(31) 0.001017 463.6 415.0
1006(32) 0.000994 463.1 446.8
1019(32) 0.000981 462.6 468.1
1012(32) 0.000988 462.0 473.5
980(31) 0.001020 461.5 462.5
966(31) 0.001035 461.0 439.8
880(30) 0.001136 460.5 412.0
831(29) 0.001203 460.0 384.1
829(29) 0.001206 459.5 359.1
772(28) 0.001295 459.0 338.2
739(27) 0.001353 458.5 321.4
768(28) 0.001302 457.9 308.6
779(28) 0.001284 457.4 299.1
737(27) 0.001357 456.9 292.4
729(27) 0.001372 456.4 287.7
704(27) 0.001420 455.9 284.6
724(27) 0.001381 455.4 282.7
633(25) 0.001580 454.9 281.7
654(26) 0.001529 454.4 281.4
690(26) 0.001449 453.9 281.7
696(26) 0.001437 453.3 282.4
651(26) 0.001536 452.8 283.7
700(26) 0.001429 452.3 285.6
679(26) 0.001473 451.8 288.0
714(27) 0.001401 451.3 291.0
692(26) 0.001445 450.8 294.6
700(26) 0.001429 450.3 299.0
712(27) 0.001404 449.8 304.0
734(27) 0.001362 449.2 309.8
727(27) 0.001376 448.7 316.1
752(27) 0.001330 448.2 322.9
789(28) 0.001267 447.7 329.9
811(28) 0.001233 447.2 336.7
819(29) 0.001221 446.7 342.8
795(28) 0.001258 446.2 347.6
810(28) 0.001235 445.7 350.2
829(29) 0.001206 445.1 350.1
861(29) 0.001161 444.6 347.1
897(30) 0.001115 444.1 341.4
813(29) 0.001230 443.6 333.4
784(28) 0.001276 443.1 323.8
792(28) 0.001263 442.6 313.3
752(27) 0.001330 442.1 302.4
740(27) 0.001351 441.6 291.4
728(27) 0.001374 441.1 280.7
695(26) 0.001439 440.5 270.4
742(27) 0.001348 440.0 260.6
658(26) 0.001520 439.5 251.3
653(26) 0.001531 439.0 242.5
651(26) 0.001536 438.5 234.3
616(25) 0.001623 438.0 226.7
648(25) 0.001543 437.5 219.6
630(25) 0.001587 437.0 213.0
577(24) 0.001733 436.4 206.9
562(24) 0.001779 435.9 201.3
590(24) 0.001695 435.4 196.1
590(24) 0.001695 434.9 191.4
557(24) 0.001795 434.4 187.1
549(23) 0.001822 433.9 183.3
563(24) 0.001776 433.4 179.8
577(24) 0.001733 432.9 176.7
600(24) 0.001667 432.4 174.0
575(24) 0.001739 431.8 171.5
609(25) 0.001642 431.3 169.4
598(24) 0.001672 430.8 167.5
648(25) 0.001543 430.3 165.9
605(25) 0.001653 429.8 164.4
585(24) 0.001709 429.3 163.1
606(25) 0.001650 428.8 161.9
590(24) 0.001695 428.3 160.7
609(25) 0.001642 427.7 159.7
604(25) 0.001656 427.2 158.7
603(25) 0.001658 426.7 157.8
597(24) 0.001675 426.2 157.0
608(25) 0.001645 425.7 156.4
567(24) 0.001764 425.2 156.0
565(24) 0.001770 424.7 155.8
598(24) 0.001672 424.2 155.9
587(24) 0.001704 423.7 156.4
616(25) 0.001623 423.1 157.3
595(24) 0.001681 422.6 158.9
589(24) 0.001698 422.1 160.9
614(25) 0.001629 421.6 163.7
594(24) 0.001684 421.1 167.1
642(25) 0.001558 420.6 171.5
651(26) 0.001536 420.1 176.7
641(25) 0.001560 419.6 182.9
628(25) 0.001592 419.0 190.0
701(26) 0.001427 418.5 198.1
686(26) 0.001458 418.0 207.2
683(26) 0.001464 417.5 217.1
714(27) 0.001401 417.0 227.6
738(27) 0.001355 416.5 238.4
751(27) 0.001332 416.0 248.9
795(28) 0.001258 415.5 258.4
780(28) 0.001282 415.0 266.1
790(28) 0.001266 414.4 270.8
714(27) 0.001401 413.9 272.0
742(27) 0.001348 413.4 269.4
738(27) 0.001355 412.9 263.2
697(26) 0.001435 412.4 254.3
688(26) 0.001453 411.9 243.6
675(26) 0.001481 411.4 232.2
612(25) 0.001634 410.9 220.9
631(25) 0.001585 410.3 210.3
681(26) 0.001468 409.8 200.8
601(25) 0.001664 409.3 192.7
632(25) 0.001582 408.8 186.3
553(24) 0.001808 408.3 181.6
586(24) 0.001706 407.8 178.7
627(25) 0.001595 407.3 177.8
617(25) 0.001621 406.8 179.0
649(25) 0.001541 406.3 182.5
615(25) 0.001626 405.7 188.6
670(26) 0.001493 405.2 197.7
676(26) 0.001479 404.7 210.1
715(27) 0.001399 404.2 226.6
714(27) 0.001401 403.7 247.6
742(27) 0.001348 403.2 273.9
734(27) 0.001362 402.7 306.1
887(30) 0.001127 402.2 344.9
916(30) 0.001092 401.6 390.6
1055(32) 0.000948 401.1 443.5
1076(33) 0.000929 400.6 503.4
1127(34) 0.000887 400.1 569.5
1182(34) 0.000846 399.6 640.0
1333(37) 0.000750 399. 712.
1419(38) 0.000705 399. 780.
1488(39) 0.000672 398. 838.
1503(39) 0.000665 398. 878.
1557(39) 0.000642 397. 897.
1431(38) 0.000699 397. 890.
1371(37) 0.000729 396. 860.
1290(36) 0.000775 396. 814.
1224(35) 0.000817 395.0 758.3
1218(35) 0.000821 394.5 699.5
1161(34) 0.000861 394.0 642.6
1059(33) 0.000944 393.5 590.8
1093(33) 0.000915 392.9 545.8
1063(33) 0.000941 392.4 508.0
1031(32) 0.000970 391.9 477.5
1074(33) 0.000931 391.4 453.7
1080(33) 0.000926 390.9 436.0
1029(32) 0.000972 390.4 423.7
997(32) 0.001003 389.9 416.3
971(31) 0.001030 389.4 413.0
1015(32) 0.000985 388.9 413.1
1004(32) 0.000996 388.3 415.6
1009(32) 0.000991 387.8 419.0
1054(32) 0.000949 387.3 422.1
1060(33) 0.000943 386.8 423.4
1122(33) 0.000891 386.3 421.7
999(32) 0.001001 385.8 415.9
1025(32) 0.000976 385.3 405.7
920(30) 0.001087 384.8 391.3
971(31) 0.001030 384.2 373.2
857(29) 0.001167 383.7 352.4
852(29) 0.001174 383.2 329.9
772(28) 0.001295 382.7 306.7
725(27) 0.001379 382.2 283.6
765(28) 0.001307 381.7 261.1
727(27) 0.001376 381.2 239.6
712(27) 0.001404 380.7 219.5
639(25) 0.001565 380.1 200.9
600(24) 0.001667 379.6 183.9
626(25) 0.001597 379.1 168.5
583(24) 0.001715 378.6 154.6
594(24) 0.001684 378.1 142.2
582(24) 0.001718 377.6 131.3
520(23) 0.001923 377.1 121.6
488(22) 0.002049 376.6 113.1
493(22) 0.002028 376.1 105.6
533(23) 0.001876 375.5 99.2
497(22) 0.002012 375.0 93.5
469(22) 0.002132 374.5 88.7
479(22) 0.002088 374.0 84.4
482(22) 0.002075 373.5 80.8
472(22) 0.002119 373.0 77.6
478(22) 0.002092 372.5 74.9
442(21) 0.002262 372.0 72.6
436(21) 0.002294 371.4 70.7
453(21) 0.002208 370.9 69.1
486(22) 0.002058 370.4 67.8
457(21) 0.002188 369.9 66.8
447(21) 0.002237 369.4 66.1
416(20) 0.002404 368.9 65.8
448(21) 0.002232 368.4 65.8
427(21) 0.002342 367.9 65.9
442(21) 0.002262 367.4 66.4
462(21) 0.002164 366.8 67.2
470(22) 0.002128 366.3 68.3
430(21) 0.002326 365.8 69.8
423(21) 0.002364 365.3 71.6
446(21) 0.002242 364.8 73.7
431(21) 0.002320 364.3 76.2
458(21) 0.002183 363.8 79.0
418(20) 0.002392 363.3 82.1
457(21) 0.002188 362.7 85.6
455(21) 0.002198 362.2 89.4
437(21) 0.002288 361.7 93.6
451(21) 0.002217 361.2 98.0
447(21) 0.002237 360.7 102.6
470(22) 0.002128 360.2 107.4
474(22) 0.002110 359.7 112.3
448(21) 0.002232 359.2 117.1
473(22) 0.002114 358.7 121.8
497(22) 0.002012 358.1 126.3
460(21) 0.002174 357.6 130.3
474(22) 0.002110 357.1 133.8
492(22) 0.002033 356.6 136.5
469(22) 0.002132 356.1 138.2
413(20) 0.002421 355.6 139.0
497(22) 0.002012 355.1 138.7
502(22) 0.001992 354.6 137.4
445(21) 0.002247 354.0 135.1
492(22) 0.002033 353.5 131.8
456(21) 0.002193 353.0 127.9
470(22) 0.002128 352.5 123.3
500(22) 0.002000 352.0 118.3
479(22) 0.002088 351.5 113.1
453(21) 0.002208 351.0 107.7
455(21) 0.002198 350.5 102.3
444(21) 0.002252 350.0 96.9
440(21) 0.002273 349.4 91.7
452(21) 0.002212 348.9 86.8
462(21) 0.002164 348.4 82.1
434(21) 0.002304 347.9 77.6
436(21) 0.002294 347.4 73.4
396(20) 0.002525 346.9 69.6
434(21) 0.002304 346.4 66.0
391(20) 0.002558 345.9 62.8
436(21) 0.002294 345.3 59.8
416(20) 0.002404 344.8 57.2
417(20) 0.002398 344.3 54.8
409(20) 0.002445 343.8 52.6
395(20) 0.002532 343.3 50.7
388(20) 0.002577 342.8 49.1
407(20) 0.002457 342.3 47.6
380(19) 0.002632 341.8 46.3
435(21) 0.002299 341.3 45.2
437(21) 0.002288 340.7 44.3
413(20) 0.002421 340.2 43.4
365(19) 0.002740 339.7 42.7
391(20) 0.002558 339.2 42.2
395(20) 0.002532 338.7 41.7
380(19) 0.002632 338.2 41.2
417(20) 0.002398 337.7 40.9
401(20) 0.002494 337.2 40.6
373(19) 0.002681 337.3 40.4
341(18) 0.002933 337.7 40.2
390(20) 0.002564 338.1 40.1
390(20) 0.002564 338.5 40.0
374(19) 0.002674 338.9 39.9
390(20) 0.002564 339.3 39.8
401(20) 0.002494 339.7 39.8
413(20) 0.002421 340.1 39.7
395(20) 0.002532 340.5 39.7
403(20) 0.002481 340.9 39.7
399(20) 0.002506 341.3 39.7
406(20) 0.002463 341.7 39.6
397(20) 0.002519 342.1 39.6
402(20) 0.002488 342.5 39.6
378(19) 0.002646 342.9 39.5
406(20) 0.002463 343.3 39.4
400(20) 0.002500 343.6 39.3
391(20) 0.002558 344.0 39.2
404(20) 0.002475 344.4 39.1
389(20) 0.002571 344.8 38.9
413(20) 0.002421 345.2 38.8
402(20) 0.002488 345.6 38.6
390(20) 0.002564 346.0 38.4
405(20) 0.002469 346.4 38.1
384(20) 0.002604 346.8 37.9
386(20) 0.002591 347.2 37.6
359(19) 0.002786 347.6 37.3
391(20) 0.002558 348.0 36.9
399(20) 0.002506 348.4 36.6
412(20) 0.002427 348.8 36.2
373(19) 0.002681 349.2 35.8
396(20) 0.002525 349.6 35.4
379(19) 0.002639 350.0 35.0
368(19) 0.002717 350.4 34.6
395(20) 0.002532 350.8 34.2
395(20) 0.002532 351.2 33.8
408(20) 0.002451 351.5 33.3
378(19) 0.002646 351.9 32.9
388(20) 0.002577 352.3 32.5
381(20) 0.002625 352.7 32.0
408(20) 0.002451 353.1 31.7
367(19) 0.002725 353.5 31.3
427(21) 0.002342 353.9 30.9
398(20) 0.002513 354.3 30.5
418(20) 0.002392 354.7 30.1
428(21) 0.002336 355.1 29.7
401(20) 0.002494 355.5 29.3
420(20) 0.002381 355.9 28.9
398(20) 0.002513 356.3 28.5
375(19) 0.002667 356.7 28.1
401(20) 0.002494 357.1 27.7
394(20) 0.002538 357.5 27.3
384(20) 0.002604 357.9 27.0
399(20) 0.002506 358.3 26.7
375(19) 0.002667 358.7 26.3
401(20) 0.002494 359.1 26.0
361(19) 0.002770 359.4 25.7
386(20) 0.002591 359.8 25.4
392(20) 0.002551 360.2 25.1
355(19) 0.002817 360.6 24.9
386(20) 0.002591 361.0 24.7
423(21) 0.002364 361.4 24.4
376(19) 0.002660 361.8 24.2
379(19) 0.002639 362.2 24.0
370(19) 0.002703 362.6 23.8
411(20) 0.002433 363.0 23.6
387(20) 0.002584 363.4 23.5
378(19) 0.002646 363.8 23.3
364(19) 0.002747 364.2 23.2
376(19) 0.002660 364.6 23.1
425(21) 0.002353 365.0 23.0
393(20) 0.002545 365.4 22.9
370(19) 0.002703 365.8 22.8
389(20) 0.002571 366.2 22.7
411(20) 0.002433 366.6 22.7
398(20) 0.002513 367.0 22.7
446(21) 0.002242 367.3 22.6
396(20) 0.002525 367.7 22.6
408(20) 0.002451 368.1 22.7
398(20) 0.002513 368.5 22.7
428(21) 0.002336 368.9 22.7
391(20) 0.002558 369.3 22.9
386(20) 0.002591 369.7 22.9
413(20) 0.002421 370.1 23.0
393(20) 0.002545 370.5 23.2
378(19) 0.002646 370.9 23.3
398(20) 0.002513 371.3 23.5
385(20) 0.002597 371.7 23.7
402(20) 0.002488 372.1 23.9
386(20) 0.002591 372.5 24.2
387(20) 0.002584 372.9 24.5
421(21) 0.002375 373.3 24.8
384(20) 0.002604 373.7 25.2
391(20) 0.002558 374.1 25.6
410(20) 0.002439 374.5 26.0
373(19) 0.002681 374.9 26.5
388(20) 0.002577 375.3 27.1
401(20) 0.002494 375.6 27.8
388(20) 0.002577 376.0 28.5
380(19) 0.002632 376.2 29.4
408(20) 0.002451 376.3 30.4
381(20) 0.002625 376.4 31.5
414(20) 0.002415 376.5 32.9
418(20) 0.002392 376.6 34.6
415(20) 0.002410 376.7 36.6
381(20) 0.002625 376.8 39.1
383(20) 0.002611 377.0 42.1
395(20) 0.002532 377.1 45.7
398(20) 0.002513 377.2 50.1
416(20) 0.002404 377.3 55.3
454(21) 0.002203 377.4 61.4
462(21) 0.002164 377.5 68.4
447(21) 0.002237 377.7 76.4
489(22) 0.002045 377.8 85.1
495(22) 0.002020 377.9 94.4
504(22) 0.001984 378.0 103.6
528(23) 0.001894 378.1 112.1
540(23) 0.001852 378.2 118.8
566(24) 0.001767 378.3 122.6
550(23) 0.001818 378.5 123.1
540(23) 0.001852 378.6 120.1
485(22) 0.002062 378.7 114.4
479(22) 0.002088 378.8 106.8
490(22) 0.002041 378.9 98.5
440(21) 0.002273 379.0 90.2
465(22) 0.002151 379.2 82.5
442(21) 0.002262 379.3 75.6
452(21) 0.002212 379.4 69.7
426(21) 0.002347 379.5 64.8
437(21) 0.002288 379.6 61.0
453(21) 0.002208 379.7 58.1
396(20) 0.002525 379.8 56.1
445(21) 0.002247 380.0 55.1
439(21) 0.002278 380.1 55.0
447(21) 0.002237 380.2 55.7
446(21) 0.002242 380.3 57.4
446(21) 0.002242 380.4 59.9
476(22) 0.002101 380.5 63.5
464(22) 0.002155 380.7 67.9
464(22) 0.002155 380.8 73.1
527(23) 0.001898 380.9 78.8
468(22) 0.002137 381.0 84.5
467(22) 0.002141 381.1 89.1
507(23) 0.001972 381.2 91.9
524(23) 0.001908 381.3 92.3
538(23) 0.001859 381.5 90.7
490(22) 0.002041 381.6 87.9
479(22) 0.002088 381.7 85.0
497(22) 0.002012 381.8 82.7
501(22) 0.001996 381.9 81.4
497(22) 0.002012 382.0 81.4
447(21) 0.002237 382.2 83.0
508(23) 0.001968 382.3 86.1
474(22) 0.002110 382.4 91.0
497(22) 0.002012 382.5 97.6
519(23) 0.001927 382.6 106.0
557(24) 0.001795 382.7 116.3
554(24) 0.001805 382.8 128.4
557(24) 0.001795 383.0 142.2
546(23) 0.001832 383.1 157.4
585(24) 0.001709 383.2 173.4
636(25) 0.001572 383.3 189.5
633(25) 0.001580 383.4 204.4
639(25) 0.001565 383.5 216.4
632(25) 0.001582 383.7 223.8
638(25) 0.001567 383.8 225.6
616(25) 0.001623 383.9 221.6
629(25) 0.001590 384.0 212.8
561(24) 0.001783 384.1 200.8
583(24) 0.001715 384.2 187.1
576(24) 0.001736 384.3 173.3
585(24) 0.001709 384.5 160.2
567(24) 0.001764 384.6 148.4
537(23) 0.001862 384.7 138.3
530(23) 0.001887 384.8 129.9
534(23) 0.001873 384.9 123.3
521(23) 0.001919 385.0 118.3
537(23) 0.001862 385.2 114.9
526(23) 0.001901 385.3 112.8
549(23) 0.001822 385.4 111.9
546(23) 0.001832 385.5 112.0
540(23) 0.001852 385.6 112.9
527(23) 0.001898 385.7 114.5
521(23) 0.001919 385.8 116.7
574(24) 0.001742 386.0 119.2
576(24) 0.001736 386.1 122.1
531(23) 0.001883 386.2 125.1
528(23) 0.001894 386.3 128.4
545(23) 0.001835 386.4 131.9
544(23) 0.001838 386.5 135.7
553(24) 0.001808 386.7 139.9
561(24) 0.001783 386.8 144.5
605(25) 0.001653 386.9 149.7
603(25) 0.001658 387.0 155.5
604(25) 0.001656 387.1 161.9
577(24) 0.001733 387.2 169.2
578(24) 0.001730 387.3 177.3
615(25) 0.001626 387.5 186.3
630(25) 0.001587 387.6 196.2
620(25) 0.001613 387.7 207.2
677(26) 0.001477 387.8 219.2
678(26) 0.001475 387.9 232.4
632(25) 0.001582 388.0 246.7
638(25) 0.001567 388.2 262.2
703(27) 0.001422 388.3 279.0
733(27) 0.001364 388.4 297.1
767(28) 0.001304 388.5 316.4
792(28) 0.001263 388.6 336.9
828(29) 0.001208 388.7 358.6
815(29) 0.001227 388.9 381.4
879(30) 0.001138 389.0 405.1
909(30) 0.001100 389.1 429.5
950(31) 0.001053 389.2 454.4
976(31) 0.001025 389.3 479.4
1023(32) 0.000978 389.4 504.1
1078(33) 0.000928 389.5 528.1
1112(33) 0.000899 389.7 550.8
1073(33) 0.000932 389.8 571.6
1104(33) 0.000906 389.9 590.1
1152(34) 0.000868 390.0 605.9
1162(34) 0.000861 390.1 618.6
1170(34) 0.000855 390.2 628.1
1179(34) 0.000848 390.4 634.4
1127(34) 0.000887 390.5 637.7
1204(35) 0.000831 390.6 637.9
1166(34) 0.000858 390.7 635.5
1209(35) 0.000827 390.8 630.4
1188(34) 0.000842 390.9 622.7
1126(34) 0.000888 391.0 612.7
1164(34) 0.000859 391.2 600.3
1111(33) 0.000900 391.3 585.8
1051(32) 0.000951 391.4 569.2
1037(32) 0.000964 391.5 550.8
1005(32) 0.000995 391.6 531.0
982(31) 0.001018 391.7 510.0
932(31) 0.001073 391.9 488.2
918(30) 0.001089 392.0 466.0
914(30) 0.001094 392.1 443.8
857(29) 0.001167 392.2 421.7
791(28) 0.001264 392.3 400.1
800(28) 0.001250 392.4 379.1
814(29) 0.001228 392.5 358.9
791(28) 0.001264 392.7 339.5
772(28) 0.001295 392.8 321.1
752(27) 0.001330 392.9 303.7
720(27) 0.001389 393.0 287.3
798(28) 0.001253 393.1 271.9
779(28) 0.001284 393.2 257.4
951(31) 0.001052 393.4 244.0
1043(32) 0.000959 393.5 231.4
840(29) 0.001190 393.6 219.8
739(27) 0.001353 393.7 209.1
699(26) 0.001431 393.8 199.1
689(26) 0.001451 393.9 190.0
639(25) 0.001565 394.0 181.5
622(25) 0.001608 394.2 173.8
622(25) 0.001608 394.3 166.8
593(24) 0.001686 394.4 160.3
573(24) 0.001745 394.5 154.4
576(24) 0.001736 394.6 149.1
552(23) 0.001812 394.7 144.3
557(24) 0.001795 394.9 140.0
543(23) 0.001842 395.0 136.1
535(23) 0.001869 395.1 132.7
540(23) 0.001852 395.2 129.7
521(23) 0.001919 395.3 127.0
587(24) 0.001704 395.4 124.7
490(22) 0.002041 395.5 122.8
506(22) 0.001976 395.7 121.1
550(23) 0.001818 395.8 119.8
540(23) 0.001852 395.9 118.7
541(23) 0.001848 396.0 117.8
531(23) 0.001883 396.1 117.2
532(23) 0.001880 396.2 116.7
503(22) 0.001988 396.4 116.4
526(23) 0.001901 396.5 116.2
517(23) 0.001934 396.6 116.1
530(23) 0.001887 396.7 116.0
506(22) 0.001976 396.8 115.8
490(22) 0.002041 396.9 115.6
513(23) 0.001949 397.0 115.2
502(22) 0.001992 397.2 114.7
502(22) 0.001992 397.3 114.0
524(23) 0.001908 397.4 113.1
503(22) 0.001988 397.5 112.0
507(23) 0.001972 397.6 110.8
519(23) 0.001927 397.7 109.3
482(22) 0.002075 397.9 107.7
492(22) 0.002033 398.0 106.1
475(22) 0.002105 398.1 104.3
471(22) 0.002123 398.2 102.6
476(22) 0.002101 398.3 101.0
493(22) 0.002028 398.4 99.4
508(23) 0.001968 398.5 97.9
489(22) 0.002045 398.7 96.5
470(22) 0.002128 398.8 95.3
449(21) 0.002227 398.9 94.3
482(22) 0.002075 399.0 93.5
455(21) 0.002198 399.1 92.8
488(22) 0.002049 399.2 92.4
478(22) 0.002092 399.4 92.1
489(22) 0.002045 399.5 92.1
434(21) 0.002304 399.6 92.2
500(22) 0.002000 399.7 92.6
486(22) 0.002058 399.8 93.2
476(22) 0.002101 399.9 93.9
465(22) 0.002151 400.0 94.9
506(22) 0.001976 400.2 96.0
513(23) 0.001949 400.3 97.3
468(22) 0.002137 400.4 98.8
479(22) 0.002088 400.5 100.4
486(22) 0.002058 400.6 102.2
503(22) 0.001988 400.7 104.2
489(22) 0.002045 400.9 106.2
477(22) 0.002096 401.0 108.4
478(22) 0.002092 401.1 110.8
491(22) 0.002037 401.2 113.3
526(23) 0.001901 401.3 115.9
502(22) 0.001992 401.4 118.6
514(23) 0.001946 401.5 121.5
532(23) 0.001880 401.7 124.4
527(23) 0.001898 401.8 127.5
491(22) 0.002037 401.9 130.6
519(23) 0.001927 402.0 133.8
545(23) 0.001835 402.1 137.1
545(23) 0.001835 402.2 140.4
526(23) 0.001901 402.4 143.8
585(24) 0.001709 402.5 147.2
543(23) 0.001842 402.6 150.6
561(24) 0.001783 402.7 154.0
519(23) 0.001927 402.8 157.5
563(24) 0.001776 402.9 161.0
598(24) 0.001672 403.0 164.6
621(25) 0.001610 403.2 168.3
597(24) 0.001675 403.3 172.3
569(24) 0.001757 403.4 176.5
582(24) 0.001718 403.5 181.1
617(25) 0.001621 403.6 186.2
592(24) 0.001689 403.7 191.9
629(25) 0.001590 403.9 198.4
581(24) 0.001721 404.0 205.8
678(26) 0.001475 404.1 214.1
706(27) 0.001416 404.2 223.3
735(27) 0.001361 404.3 233.2
721(27) 0.001387 404.4 243.5
737(27) 0.001357 404.5 253.5
815(29) 0.001227 404.7 262.1
809(28) 0.001236 404.8 268.1
828(29) 0.001208 404.9 270.2
797(28) 0.001255 405.0 267.9
762(28) 0.001312 405.1 261.6
739(27) 0.001353 405.2 252.4
711(27) 0.001406 405.4 241.6
664(26) 0.001506 405.5 230.4
656(26) 0.001524 405.6 219.6
638(25) 0.001567 405.7 209.7
608(25) 0.001645 405.8 201.0
598(24) 0.001672 405.9 193.4
637(25) 0.001570 406.0 187.1
571(24) 0.001751 406.2 181.9
591(24) 0.001692 406.3 177.8
622(25) 0.001608 406.4 174.7
594(24) 0.001684 406.5 172.4
630(25) 0.001587 406.6 170.8
579(24) 0.001727 406.7 169.8
608(25) 0.001645 406.9 169.2
581(24) 0.001721 407.0 168.8
574(24) 0.001742 407.1 168.3
578(24) 0.001730 407.2 167.7
553(24) 0.001808 407.3 167.1
580(24) 0.001724 407.4 166.5
555(24) 0.001802 407.5 166.3
526(23) 0.001901 407.7 166.5
577(24) 0.001733 407.8 167.4
548(23) 0.001825 407.9 169.1
572(24) 0.001748 408.0 171.7
571(24) 0.001751 408.1 175.4
571(24) 0.001751 408.2 180.1
564(24) 0.001773 408.4 186.0
600(24) 0.001667 408.5 193.2
613(25) 0.001631 408.6 201.6
618(25) 0.001618 408.7 211.3
589(24) 0.001698 408.8 222.1
676(26) 0.001479 408.9 234.0
667(26) 0.001499 409.0 246.6
662(26) 0.001511 409.2 259.4
731(27) 0.001368 409.3 271.6
736(27) 0.001359 409.4 282.5
770(28) 0.001299 409.5 290.9
809(28) 0.001236 409.6 296.2
788(28) 0.001269 409.7 298.2
814(29) 0.001228 409.9 297.0
761(28) 0.001314 410.0 293.5
814(29) 0.001228 410.1 288.6
762(28) 0.001312 410.2 283.4
744(27) 0.001344 410.3 278.5
739(27) 0.001353 410.4 274.5
723(27) 0.001383 410.5 271.7
695(26) 0.001439 410.7 270.4
680(26) 0.001471 410.8 270.5
734(27) 0.001362 410.9 272.0
702(26) 0.001424 411.0 274.9
684(26) 0.001462 411.1 279.0
711(27) 0.001406 411.2 284.1
719(27) 0.001391 411.4 290.1
721(27) 0.001387 411.5 296.5
728(27) 0.001374 411.6 303.0
672(26) 0.001488 411.7 309.4
772(28) 0.001295 411.8 315.3
783(28) 0.001277 411.9 320.5
732(27) 0.001366 412.0 324.9
786(28) 0.001272 412.2 328.5
704(27) 0.001420 412.3 331.3
739(27) 0.001353 412.4 333.4
775(28) 0.001290 412.5 334.9
760(28) 0.001316 412.6 335.8
699(26) 0.001431 412.7 336.1
752(27) 0.001330 412.9 335.9
733(27) 0.001364 413.0 335.2
692(26) 0.001445 413.1 333.9
697(26) 0.001435 413.2 331.9
691(26) 0.001447 413.3 329.4
672(26) 0.001488 413.4 326.2
684(26) 0.001462 413.5 322.2
681(26) 0.001468 413.7 317.5
694(26) 0.001441 413.8 312.0
666(26) 0.001501 413.9 305.7
675(26) 0.001481 414.0 298.6
691(26) 0.001447 414.1 290.8
673(26) 0.001486 414.2 282.5
647(25) 0.001546 414.4 273.8
686(26) 0.001458 414.5 265.0
596(24) 0.001678 414.6 256.4
592(24) 0.001689 414.7 248.2
601(25) 0.001664 414.8 240.7
630(25) 0.001587 414.9 234.5
636(25) 0.001572 415.0 230.0
681(26) 0.001468 415.2 227.7
671(26) 0.001490 415.3 228.6
687(26) 0.001456 415.4 233.5
688(26) 0.001453 415.5 243.2
703(27) 0.001422 415.6 258.3
781(28) 0.001280 415.7 278.6
738(27) 0.001355 415.9 302.3
860(29) 0.001163 416.0 324.6
881(30) 0.001135 416.1 337.4
875(30) 0.001143 416.2 333.9
852(29) 0.001174 416.3 314.8
762(28) 0.001312 416.4 287.6
758(28) 0.001319 416.5 259.9
714(27) 0.001401 416.7 236.4
690(26) 0.001449 416.8 218.4
637(25) 0.001570 416.9 206.2
677(26) 0.001477 417.0 198.9
643(25) 0.001555 417.1 195.9
667(26) 0.001499 417.2 196.2
700(26) 0.001429 417.4 198.9
663(26) 0.001508 417.5 203.4
692(26) 0.001445 417.6 208.8
704(27) 0.001420 417.7 214.8
717(27) 0.001395 417.8 220.9
691(26) 0.001447 417.9 227.2
691(26) 0.001447 418.0 233.7
688(26) 0.001453 418.2 240.7
691(26) 0.001447 418.3 248.7
682(26) 0.001466 418.4 257.7
744(27) 0.001344 418.5 268.2
676(26) 0.001479 418.6 280.0
782(28) 0.001279 418.7 292.9
761(28) 0.001314 418.9 306.5
777(28) 0.001287 419.0 320.2
801(28) 0.001248 419.1 333.0
840(29) 0.001190 419.2 344.1
810(28) 0.001235 419.3 352.7
847(29) 0.001181 419.4 357.9
889(30) 0.001125 419.5 359.9
830(29) 0.001205 419.7 358.8
829(29) 0.001206 419.8 355.1
827(29) 0.001209 419.9 349.3
821(29) 0.001218 420.0 341.8
808(28) 0.001238 420.1 333.0
814(29) 0.001228 420.2 322.9
801(28) 0.001248 420.4 311.7
773(28) 0.001294 420.5 299.6
786(28) 0.001272 420.6 287.0
695(26) 0.001439 420.7 274.4
672(26) 0.001488 420.8 262.4
627(25) 0.001595 420.9 251.5
676(26) 0.001479 421.0 242.1
641(25) 0.001560 421.2 234.5
634(25) 0.001577 421.3 228.9
597(24) 0.001675 421.4 225.3
637(25) 0.001570 421.5 223.8
607(25) 0.001647 421.6 224.1
634(25) 0.001577 421.7 226.3
633(25) 0.001580 421.9 230.1
691(26) 0.001447 422.0 235.4
633(25) 0.001580 422.1 242.0
618(25) 0.001618 422.2 249.5
682(26) 0.001466 422.3 257.9
663(26) 0.001508 422.4 266.6
688(26) 0.001453 422.5 275.3
682(26) 0.001466 422.7 283.8
684(26) 0.001462 422.8 291.4
721(27) 0.001387 422.9 297.9
767(28) 0.001304 423.0 302.9
742(27) 0.001348 423.1 305.9
724(27) 0.001381 423.2 306.9
773(28) 0.001294 423.4 305.7
739(27) 0.001353 423.5 302.3
681(26) 0.001468 423.6 297.0
677(26) 0.001477 423.7 290.1
687(26) 0.001456 423.8 281.8
689(26) 0.001451 423.9 272.6
647(25) 0.001546 424.0 262.8
641(25) 0.001560 424.2 252.9
631(25) 0.001585 424.3 243.1
574(24) 0.001742 424.4 233.7
564(24) 0.001773 424.5 224.8
620(25) 0.001613 424.6 216.7
570(24) 0.001754 424.7 209.4
545(23) 0.001835 424.9 202.9
556(24) 0.001799 425.0 197.2
547(23) 0.001828 425.1 192.2
554(24) 0.001805 425.2 187.6
524(23) 0.001908 425.3 183.3
570(24) 0.001754 425.4 178.9
543(23) 0.001842 425.5 174.1
533(23) 0.001876 425.7 168.7
494(22) 0.002024 425.8 162.5
505(22) 0.001980 425.9 155.5
483(22) 0.002070 426.0 147.9
519(23) 0.001927 426.1 139.8
457(21) 0.002188 426.2 131.6
479(22) 0.002088 426.4 123.3
503(22) 0.001988 426.5 115.4
473(22) 0.002114 426.6 107.8
467(22) 0.002141 426.7 100.8
483(22) 0.002070 426.8 94.3
487(22) 0.002053 426.9 88.3
483(22) 0.002070 427.1 83.0
464(22) 0.002155 427.2 78.2
486(22) 0.002058 427.3 73.9
419(20) 0.002387 427.4 70.1
433(21) 0.002309 427.5 66.8
424(21) 0.002358 427.6 63.9
470(22) 0.002128 427.7 61.4
451(21) 0.002217 427.9 59.3
446(21) 0.002242 428.0 57.4
472(22) 0.002119 428.0 55.8
459(21) 0.002179 428.0 54.4
475(22) 0.002105 427.9 53.2
455(21) 0.002198 427.9 52.2
445(21) 0.002247 427.8 51.4
428(21) 0.002336 427.7 50.7
443(21) 0.002257 427.7 50.1
462(21) 0.002164 427.6 49.6
420(20) 0.002381 427.5 49.2
470(22) 0.002128 427.5 48.9
419(20) 0.002387 427.4 48.6
424(21) 0.002358 427.3 48.5
435(21) 0.002299 427.3 48.4
407(20) 0.002457 427.2 48.4
443(21) 0.002257 427.1 48.4
461(21) 0.002169 427.1 48.6
473(22) 0.002114 427.0 48.8
425(21) 0.002353 427.0 49.1
471(22) 0.002123 426.9 49.5
450(21) 0.002222 426.8 50.0
463(22) 0.002160 426.8 50.6
420(20) 0.002381 426.7 51.3
445(21) 0.002247 426.6 52.2
445(21) 0.002247 426.6 53.1
470(22) 0.002128 426.5 54.3
457(21) 0.002188 426.4 55.5
456(21) 0.002193 426.4 57.0
472(22) 0.002119 426.3 58.7
486(22) 0.002058 426.3 60.6
484(22) 0.002066 426.2 62.8
481(22) 0.002079 426.1 65.2
471(22) 0.002123 426.1 68.0
487(22) 0.002053 426.0 71.2
521(23) 0.001919 425.9 74.7
505(22) 0.001980 425.9 78.7
470(22) 0.002128 425.8 83.2
516(23) 0.001938 425.7 88.3
504(22) 0.001984 425.7 93.9
529(23) 0.001890 425.6 100.1
536(23) 0.001866 425.6 107.1
526(23) 0.001901 425.5 114.7
525(23) 0.001905 425.4 123.2
547(23) 0.001828 425.4 132.4
561(24) 0.001783 425.3 142.4
578(24) 0.001730 425.2 153.3
586(24) 0.001706 425.2 165.1
619(25) 0.001616 425.1 177.7
647(25) 0.001546 425.0 191.0
625(25) 0.001600 425.0 205.2
665(26) 0.001504 424.9 220.0
688(26) 0.001453 424.8 235.4
715(27) 0.001399 424.8 251.1
760(28) 0.001316 424.7 267.1
806(28) 0.001241 424.7 283.0
774(28) 0.001292 424.6 298.4
794(28) 0.001259 424.5 313.1
806(28) 0.001241 424.5 326.5
820(29) 0.001220 424.4 338.3
844(29) 0.001185 424.3 348.0
839(29) 0.001192 424.3 355.0
851(29) 0.001175 424.2 359.2
842(29) 0.001188 424.1 360.3
804(28) 0.001244 424.1 358.4
800(28) 0.001250 424.0 353.4
776(28) 0.001289 424.0 345.7
779(28) 0.001284 423.9 335.8
753(27) 0.001328 423.8 323.9
760(28) 0.001316 423.8 310.6
726(27) 0.001377 423.7 296.4
712(27) 0.001404 423.6 281.7
666(26) 0.001501 423.6 266.7
681(26) 0.001468 423.5 252.0
643(25) 0.001555 423.4 237.6
633(25) 0.001580 423.4 223.9
661(26) 0.001513 423.3 210.8
607(25) 0.001647 423.2 198.7
592(24) 0.001689 423.2 187.5
614(25) 0.001629 423.1 177.3
586(24) 0.001706 423.1 168.1
577(24) 0.001733 423.0 160.0
597(24) 0.001675 422.9 152.9
555(24) 0.001802 422.9 146.9
566(24) 0.001767 422.8 142.0
574(24) 0.001742 422.7 138.0
596(24) 0.001678 422.7 135.0
561(24) 0.001783 422.6 133.0
542(23) 0.001845 422.5 131.9
515(23) 0.001942 422.5 131.5
529(23) 0.001890 422.4 132.0
554(24) 0.001805 422.4 133.2
599(24) 0.001669 422.3 135.0
561(24) 0.001783 422.2 137.4
570(24) 0.001754 422.2 140.2
565(24) 0.001770 422.1 143.4
624(25) 0.001603 422.0 146.7
616(25) 0.001623 422.0 150.2
606(25) 0.001650 421.9 153.5
588(24) 0.001701 421.8 156.5
587(24) 0.001704 421.8 159.1
600(24) 0.001667 421.7 161.0
578(24) 0.001730 421.6 162.2
582(24) 0.001718 421.6 162.4
590(24) 0.001695 421.5 161.6
563(24) 0.001776 421.5 159.8
524(23) 0.001908 421.4 156.9
550(23) 0.001818 421.3 153.2
553(24) 0.001808 421.3 148.8
543(23) 0.001842 421.2 143.7
551(23) 0.001815 421.1 138.2
504(22) 0.001984 421.1 132.4
490(22) 0.002041 421.0 126.4
490(22) 0.002041 420.9 120.4
501(22) 0.001996 420.9 114.5
531(23) 0.001883 420.8 108.7
489(22) 0.002045 420.8 103.2
522(23) 0.001916 420.7 97.9
508(23) 0.001968 420.6 92.9
490(22) 0.002041 420.6 88.2
506(22) 0.001976 420.5 83.9
488(22) 0.002049 420.4 79.9
489(22) 0.002045 420.4 76.2
478(22) 0.002092 420.3 72.9
474(22) 0.002110 420.2 69.9
458(21) 0.002183 420.2 67.2
445(21) 0.002247 420.1 64.8
447(21) 0.002237 420.1 62.7
452(21) 0.002212 420.0 61.0
420(20) 0.002381 419.9 59.4
438(21) 0.002283 419.9 58.2
460(21) 0.002174 419.8 57.2
459(21) 0.002179 419.7 56.4
481(22) 0.002079 419.7 55.9
488(22) 0.002049 419.6 55.6
451(21) 0.002217 419.5 55.6
467(22) 0.002141 419.5 55.8
455(21) 0.002198 419.4 56.3
440(21) 0.002273 419.3 57.0
479(22) 0.002088 419.3 58.0
462(21) 0.002164 419.2 59.4
457(21) 0.002188 419.2 61.1
506(22) 0.001976 419.1 63.1
495(22) 0.002020 419.0 65.6
484(22) 0.002066 419.0 68.6
518(23) 0.001931 418.9 72.0
478(22) 0.002092 418.8 76.0
482(22) 0.002075 418.8 80.6
494(22) 0.002024 418.7 85.7
555(24) 0.001802 418.6 91.6
504(22) 0.001984 418.6 98.2
534(23) 0.001873 418.5 105.3
564(24) 0.001773 418.5 113.2
541(23) 0.001848 418.4 121.6
564(24) 0.001773 418.3 130.6
594(24) 0.001684 418.3 140.0
572(24) 0.001748 418.2 149.7
582(24) 0.001718 418.1 159.4
674(26) 0.001484 418.1 168.7
632(25) 0.001582 418.0 177.4
654(26) 0.001529 417.9 185.0
654(26) 0.001529 417.9 191.1
648(25) 0.001543 417.8 195.4
663(26) 0.001508 417.7 197.6
652(26) 0.001534 417.7 197.8
687(26) 0.001456 417.6 196.2
654(26) 0.001529 417.6 193.1
694(26) 0.001441 417.5 188.8
664(26) 0.001506 417.4 183.9
686(26) 0.001458 417.4 178.6
655(26) 0.001527 417.3 173.4
655(26) 0.001527 417.2 168.4
655(26) 0.001527 417.2 163.9
614(25) 0.001629 417.1 160.0
606(25) 0.001650 417.0 156.6
642(25) 0.001558 417.0 154.0
636(25) 0.001572 416.9 152.1
614(25) 0.001629 416.9 150.9
625(25) 0.001600 416.8 150.4
653(26) 0.001531 416.7 150.5
644(25) 0.001553 416.7 151.1
627(25) 0.001595 416.6 152.2
651(26) 0.001536 416.5 153.7
640(25) 0.001563 416.5 155.6
633(25) 0.001580 416.4 157.6
647(25) 0.001546 416.3 159.7
679(26) 0.001473 416.3 161.8
695(26) 0.001439 416.2 163.8
654(26) 0.001529 416.2 165.6
654(26) 0.001529 416.1 167.0
668(26) 0.001497 416.0 168.1
702(26) 0.001424 416.0 168.6
652(26) 0.001534 415.9 168.7
657(26) 0.001522 415.8 168.3
646(25) 0.001548 415.8 167.5
629(25) 0.001590 415.7 166.0
601(25) 0.001664 415.6 164.1
645(25) 0.001550 415.6 161.8
586(24) 0.001706 415.5 159.2
597(24) 0.001675 415.4 156.2
570(24) 0.001754 415.4 153.1
556(24) 0.001799 415.3 149.8
575(24) 0.001739 415.3 146.3
554(24) 0.001805 415.2 142.8
556(24) 0.001799 415.1 139.2
513(23) 0.001949 415.1 135.6
541(23) 0.001848 415.0 132.0
567(24) 0.001764 414.9 128.4
502(22) 0.001992 414.9 124.8
525(23) 0.001905 414.8 121.4
498(22) 0.002008 414.7 118.0
458(21) 0.002183 414.7 114.8
524(23) 0.001908 414.6 111.7
518(23) 0.001931 414.6 108.9
536(23) 0.001866 414.5 106.3
519(23) 0.001927 414.4 104.0
495(22) 0.002020 414.4 101.9
511(23) 0.001957 414.3 100.2
506(22) 0.001976 414.2 98.8
489(22) 0.002045 414.2 97.8
512(23) 0.001953 414.1 97.1
485(22) 0.002062 414.0 96.8
527(23) 0.001898 414.0 96.8
536(23) 0.001866 413.9 97.2
551(23) 0.001815 413.8 98.0
484(22) 0.002066 413.8 99.1
522(23) 0.001916 413.7 100.6
522(23) 0.001916 413.7 102.4
495(22) 0.002020 413.6 104.5
528(23) 0.001894 413.5 106.9
536(23) 0.001866 413.5 109.7
504(22) 0.001984 413.4 112.6
525(23) 0.001905 413.3 115.9
536(23) 0.001866 413.3 119.3
546(23) 0.001832 413.2 122.9
564(24) 0.001773 413.1 126.7
581(24) 0.001721 413.1 130.5
605(25) 0.001653 413.0 134.4
587(24) 0.001704 413.0 138.3
601(25) 0.001664 412.9 142.0
572(24) 0.001748 412.8 145.6
573(24) 0.001745 412.8 148.9
563(24) 0.001776 412.7 152.0
592(24) 0.001689 412.6 154.7
593(24) 0.001686 412.6 156.9
618(25) 0.001618 412.5 158.7
639(25) 0.001565 412.4 160.0
632(25) 0.001582 412.4 160.8
640(25) 0.001563 412.3 161.1
629(25) 0.001590 412.2 161.0
562(24) 0.001779 412.2 160.3
582(24) 0.001718 412.1 159.3
572(24) 0.001748 412.1 157.9
590(24) 0.001695 412.0 156.3
571(24) 0.001751 411.9 154.4
607(25) 0.001647 411.9 152.3
572(24) 0.001748 411.8 150.2
604(25) 0.001656 411.7 148.0
627(25) 0.001595 411.7 145.7
584(24) 0.001712 411.6 143.5
603(25) 0.001658 411.5 141.3
603(25) 0.001658 411.5 139.1
590(24) 0.001695 411.4 137.0
622(25) 0.001608 411.4 135.0
605(25) 0.001653 411.3 133.0
601(25) 0.001664 411.2 131.1
575(24) 0.001739 411.2 129.1
589(24) 0.001698 411.1 127.3
604(25) 0.001656 411.0 125.4
611(25) 0.001637 411.0 123.5
593(24) 0.001686 410.9 121.5
583(24) 0.001715 410.8 119.6
608(25) 0.001645 410.8 117.6
595(24) 0.001681 410.7 115.5
621(25) 0.001610 410.7 113.4
578(24) 0.001730 410.6 111.2
576(24) 0.001736 410.5 109.0
574(24) 0.001742 410.5 106.7
580(24) 0.001724 410.4 104.5
575(24) 0.001739 410.3 102.2
549(23) 0.001822 410.3 99.9
592(24) 0.001689 410.2 97.7
502(22) 0.001992 410.1 95.5
533(23) 0.001876 410.1 93.3
548(23) 0.001825 410.0 91.3
566(24) 0.001767 409.9 89.3
558(24) 0.001792 409.9 87.4
502(22) 0.001992 409.8 85.6
513(23) 0.001949 409.8 83.9
528(23) 0.001894 409.7 82.3
491(22) 0.002037 409.6 80.8
498(22) 0.002008 409.6 79.5
523(23) 0.001912 409.5 78.3
532(23) 0.001880 409.4 77.2
502(22) 0.001992 409.4 76.2
475(22) 0.002105 409.3 75.3
501(22) 0.001996 409.2 74.6
535(23) 0.001869 409.2 74.0
492(22) 0.002033 409.1 73.6
487(22) 0.002053 409.1 73.2
488(22) 0.002049 409.0 73.0
477(22) 0.002096 408.9 72.9
508(23) 0.001968 408.9 72.9
468(22) 0.002137 408.8 73.1
490(22) 0.002041 408.7 73.3
454(21) 0.002203 408.7 73.7
502(22) 0.001992 408.6 74.2
461(21) 0.002169 408.5 74.8
484(22) 0.002066 408.5 75.5
494(22) 0.002024 408.4 76.4
502(22) 0.001992 408.3 77.3
500(22) 0.002000 408.3 78.4
493(22) 0.002028 408.2 79.6
462(21) 0.002164 408.2 80.9
462(21) 0.002164 408.1 82.3
502(22) 0.001992 408.0 83.9
478(22) 0.002092 408.0 85.6
476(22) 0.002101 407.9 87.4
494(22) 0.002024 407.8 89.3
463(22) 0.002160 407.8 91.4
470(22) 0.002128 407.7 93.6
469(22) 0.002132 407.6 95.9
505(22) 0.001980 407.6 98.3
500(22) 0.002000 407.5 100.9
499(22) 0.002004 407.5 103.6
518(23) 0.001931 407.4 106.4
465(22) 0.002151 407.3 109.3
477(22) 0.002096 407.3 112.3
486(22) 0.002058 407.2 115.3
497(22) 0.002012 407.1 118.5
506(22) 0.001976 407.1 121.7
532(23) 0.001880 407.0 124.9
532(23) 0.001880 406.9 128.2
464(22) 0.002155 406.9 131.5
553(24) 0.001808 406.8 134.8
539(23) 0.001855 406.8 138.2
553(24) 0.001808 406.7 141.5
520(23) 0.001923 406.6 144.8
515(23) 0.001942 406.6 148.1
588(24) 0.001701 406.5 151.4
574(24) 0.001742 406.4 154.7
558(24) 0.001792 406.4 157.9
539(23) 0.001855 406.3 161.1
569(24) 0.001757 406.2 164.1
609(25) 0.001642 406.2 167.1
596(24) 0.001678 406.1 169.9
570(24) 0.001754 406.0 172.6
592(24) 0.001689 406.0 175.1
560(24) 0.001786 405.9 177.5
624(25) 0.001603 405.9 179.6
586(24) 0.001706 405.8 181.4
580(24) 0.001724 405.7 183.1
543(23) 0.001842 405.7 184.5
574(24) 0.001742 405.6 185.6
628(25) 0.001592 405.5 186.5
621(25) 0.001610 405.5 187.1
585(24) 0.001709 405.4 187.5
613(25) 0.001631 405.3 187.7
649(25) 0.001541 405.3 187.7
645(25) 0.001550 405.2 187.7
628(25) 0.001592 405.2 187.7
608(25) 0.001645 405.1 187.9
622(25) 0.001608 405.0 188.4
638(25) 0.001567 405.0 189.5
647(25) 0.001546 404.9 191.5
610(25) 0.001639 404.8 194.9
642(25) 0.001558 404.8 200.2
617(25) 0.001621 404.7 208.1
619(25) 0.001616 404.6 219.2
669(26) 0.001495 404.6 234.3
624(25) 0.001603 404.5 253.9
656(26) 0.001524 404.4 278.0
638(25) 0.001567 404.4 305.9
693(26) 0.001443 404.3 335.5
674(26) 0.001484 404.3 362.3
732(27) 0.001366 404.2 380.0
709(27) 0.001410 404.1 382.3
661(26) 0.001513 404.1 367.0
632(25) 0.001582 404.0 338.1
592(24) 0.001689 403.9 302.3
625(25) 0.001600 403.9 265.5
584(24) 0.001712 403.8 231.4
552(23) 0.001812 403.7 201.6
567(24) 0.001764 403.7 176.5
513(23) 0.001949 403.6 155.8
490(22) 0.002041 403.6 139.1
516(23) 0.001938 403.5 125.7
478(22) 0.002092 403.4 114.9
485(22) 0.002062 403.4 106.1
475(22) 0.002105 403.3 98.8
469(22) 0.002132 403.2 92.6
434(21) 0.002304 403.2 87.3
466(22) 0.002146 403.1 82.7
463(22) 0.002160 403.0 78.6
465(22) 0.002151 403.0 74.9
466(22) 0.002146 402.9 71.5
396(20) 0.002525 402.8 68.5
442(21) 0.002262 402.8 65.7
450(21) 0.002222 402.7 63.1
449(21) 0.002227 402.7 60.8
433(21) 0.002309 402.6 58.6
444(21) 0.002252 402.5 56.7
416(20) 0.002404 402.5 54.9
442(21) 0.002262 402.4 53.2
418(20) 0.002392 402.3 51.7
413(20) 0.002421 402.3 50.3
442(21) 0.002262 402.2 49.0
428(21) 0.002336 402.1 47.8
428(21) 0.002336 402.1 46.8
436(21) 0.002294 402.0 45.8
400(20) 0.002500 401.9 44.9
389(20) 0.002571 401.7 44.1
442(21) 0.002262 401.6 43.4
425(21) 0.002353 401.5 42.8
436(21) 0.002294 401.3 42.3
424(21) 0.002358 401.2 41.9
412(20) 0.002427 401.1 41.5
426(21) 0.002347 401.0 41.1
401(20) 0.002494 400.8 40.8
427(21) 0.002342 400.7 40.6
417(20) 0.002398 400.6 40.4
405(20) 0.002469 400.5 40.3
429(21) 0.002331 400.3 40.3
393(20) 0.002545 400.2 40.2
413(20) 0.002421 400.1 40.3
406(20) 0.002463 399.9 40.4
412(20) 0.002427 399.8 40.5
412(20) 0.002427 399.7 40.7
407(20) 0.002457 399.6 40.9
416(20) 0.002404 399.4 41.2
402(20) 0.002488 399.3 41.5
424(21) 0.002358 399.2 41.9
424(21) 0.002358 399.1 42.4
422(21) 0.002370 398.9 42.8
454(21) 0.002203 398.8 43.4
422(21) 0.002370 398.7 43.9
419(20) 0.002387 398.5 44.5
442(21) 0.002262 398.4 45.2
436(21) 0.002294 398.3 45.9
411(20) 0.002433 398.2 46.7
438(21) 0.002283 398.0 47.5
437(21) 0.002288 397.9 48.5
426(21) 0.002347 397.8 49.4
406(20) 0.002463 397.7 50.5
431(21) 0.002320 397.5 51.6
462(21) 0.002164 397.4 52.9
434(21) 0.002304 397.3 54.2
478(22) 0.002092 397.1 55.8
460(21) 0.002174 397.0 57.5
461(21) 0.002169 396.9 59.4
476(22) 0.002101 396.8 61.6
504(22) 0.001984 396.6 64.2
439(21) 0.002278 396.5 67.3
442(21) 0.002262 396.4 71.1
505(22) 0.001980 396.3 76.0
529(23) 0.001890 396.1 82.2
539(23) 0.001855 396.0 90.2
536(23) 0.001866 395.9 100.6
554(24) 0.001805 395.7 113.7
528(23) 0.001894 395.6 130.1
595(24) 0.001681 395.5 149.6
619(25) 0.001616 395.4 171.8
647(25) 0.001546 395.2 194.8
662(26) 0.001511 395.1 215.1
672(26) 0.001488 395.0 228.2
670(26) 0.001493 394.9 231.3
640(25) 0.001563 394.7 225.7
665(26) 0.001504 394.6 216.0
636(25) 0.001572 394.5 207.0
637(25) 0.001570 394.3 201.4
630(25) 0.001587 394.2 200.8
648(25) 0.001543 394.1 205.2
660(26) 0.001515 394.0 214.1
662(26) 0.001511 393.8 226.1
681(26) 0.001468 393.7 239.3
643(25) 0.001555 393.6 250.7
711(27) 0.001406 393.5 257.5
653(26) 0.001531 393.3 257.2
679(26) 0.001473 393.2 249.0
671(26) 0.001490 393.1 234.2
651(26) 0.001536 392.9 214.9
602(25) 0.001661 392.8 193.9
600(24) 0.001667 392.7 173.0
536(23) 0.001866 392.6 153.4
544(23) 0.001838 392.4 135.9
456(21) 0.002193 392.3 120.6
497(22) 0.002012 392.2 107.6
491(22) 0.002037 392.1 96.8
503(22) 0.001988 391.9 87.9
496(22) 0.002016 391.8 80.6
471(22) 0.002123 391.7 74.8
473(22) 0.002114 391.5 70.1
458(21) 0.002183 391.4 66.3
434(21) 0.002304 391.3 63.2
481(22) 0.002079 391.2 60.7
485(22) 0.002062 391.0 58.6
413(20) 0.002421 390.9 56.9
462(21) 0.002164 390.8 55.5
448(21) 0.002232 390.7 54.3
466(22) 0.002146 390.5 53.3
452(21) 0.002212 390.4 52.5
442(21) 0.002262 390.3 51.9
456(21) 0.002193 390.1 51.5
492(22) 0.002033 390.0 51.4
503(22) 0.001988 389.9 51.6
485(22) 0.002062 389.8 52.1
503(22) 0.001988 389.6 52.9
510(23) 0.001961 389.5 54.1
471(22) 0.002123 389.4 55.4
492(22) 0.002033 389.2 56.7
483(22) 0.002070 389.1 57.4
463(22) 0.002160 389.0 57.1
476(22) 0.002101 388.9 55.7
486(22) 0.002058 388.7 53.7
474(22) 0.002110 388.6 51.4
442(21) 0.002262 388.5 49.3
452(21) 0.002212 388.4 47.5
443(21) 0.002257 388.2 46.0
470(22) 0.002128 388.1 44.8
442(21) 0.002262 388.0 43.8
427(21) 0.002342 387.8 43.2
448(21) 0.002232 387.7 42.7
463(22) 0.002160 387.6 42.4
420(20) 0.002381 387.5 42.2
427(21) 0.002342 387.3 42.2
416(20) 0.002404 387.2 42.3
471(22) 0.002123 387.1 42.6
430(21) 0.002326 387.0 43.1
443(21) 0.002257 386.8 43.7
422(21) 0.002370 386.7 44.5
442(21) 0.002262 386.6 45.4
446(21) 0.002242 386.4 46.4
462(21) 0.002164 386.3 47.4
478(22) 0.002092 386.2 48.3
466(22) 0.002146 386.1 49.0
505(22) 0.001980 385.9 49.4
479(22) 0.002088 385.8 49.4
483(22) 0.002070 385.7 49.0
456(21) 0.002193 385.6 48.3
458(21) 0.002183 385.4 47.4
453(21) 0.002208 385.3 46.4
458(21) 0.002183 385.2 45.5
441(21) 0.002268 385.0 44.6
477(22) 0.002096 384.9 43.9
429(21) 0.002331 384.8 43.4
423(21) 0.002364 384.7 43.2
435(21) 0.002299 384.5 43.0
425(21) 0.002353 384.4 43.0
440(21) 0.002273 384.3 43.2
446(21) 0.002242 384.2 43.6
468(22) 0.002137 384.0 44.2
459(21) 0.002179 383.9 44.9
432(21) 0.002315 383.8 45.8
437(21) 0.002288 383.6 46.8
442(21) 0.002262 383.5 48.0
466(22) 0.002146 383.4 49.4
459(21) 0.002179 383.3 51.1
444(21) 0.002252 383.1 52.9
468(22) 0.002137 383.0 55.0
465(22) 0.002151 382.9 57.4
478(22) 0.002092 382.8 60.0
448(21) 0.002232 382.6 63.0
501(22) 0.001996 382.5 66.3
493(22) 0.002028 382.4 70.0
468(22) 0.002137 382.2 74.0
481(22) 0.002079 382.1 78.3
465(22) 0.002151 382.0 82.9
477(22) 0.002096 381.9 87.6
463(22) 0.002160 381.7 92.5
518(23) 0.001931 381.6 97.2
484(22) 0.002066 381.5 101.5
448(21) 0.002232 381.4 105.2
504(22) 0.001984 381.2 108.0
485(22) 0.002062 381.1 109.7
497(22) 0.002012 381.0 110.1
490(22) 0.002041 380.8 109.4
453(21) 0.002208 380.7 107.7
516(23) 0.001938 380.6 105.4
483(22) 0.002070 380.5 102.8
483(22) 0.002070 380.3 100.2
506(22) 0.001976 380.2 97.7
482(22) 0.002075 380.1 95.5
458(21) 0.002183 380.0 93.6
456(21) 0.002193 379.8 92.0
414(20) 0.002415 379.7 90.7
436(21) 0.002294 379.6 89.7
426(21) 0.002347 379.4 88.9
514(23) 0.001946 379.3 88.4
444(21) 0.002252 379.2 88.1
483(22) 0.002070 379.1 88.0
476(22) 0.002101 378.9 88.1
477(22) 0.002096 378.8 88.4
443(21) 0.002257 378.7 88.9
447(21) 0.002237 378.6 89.5
456(21) 0.002193 378.4 90.3
471(22) 0.002123 378.3 91.4
488(22) 0.002049 378.2 92.7
475(22) 0.002105 378.0 94.2
456(21) 0.002193 377.9 95.9
513(23) 0.001949 377.8 97.9
503(22) 0.001988 377.7 100.1
507(23) 0.001972 377.5 102.4
534(23) 0.001873 377.4 104.7
542(23) 0.001845 377.3 106.9
551(23) 0.001815 377.2 108.7
560(24) 0.001786 377.0 110.1
543(23) 0.001842 376.9 110.9
532(23) 0.001880 376.8 111.3
502(22) 0.001992 376.6 111.4
482(22) 0.002075 376.5 111.4
483(22) 0.002070 376.4 111.5
496(22) 0.002016 376.3 111.8
498(22) 0.002008 376.1 112.3
507(23) 0.001972 376.0 113.2
472(22) 0.002119 375.9 114.4
446(21) 0.002242 375.7 115.8
509(23) 0.001965 375.6 117.4
517(23) 0.001934 375.5 119.3
478(22) 0.002092 375.4 121.2
527(23) 0.001898 375.2 123.2
449(21) 0.002227 375.1 125.1
497(22) 0.002012 375.0 126.9
481(22) 0.002079 374.9 128.5
495(22) 0.002020 374.7 129.7
489(22) 0.002045 374.6 130.5
516(23) 0.001938 374.5 130.7
493(22) 0.002028 374.3 130.2
460(21) 0.002174 374.2 129.1
483(22) 0.002070 374.1 127.3
509(23) 0.001965 374.0 125.0
487(22) 0.002053 373.8 122.3
483(22) 0.002070 373.7 119.3
474(22) 0.002110 373.6 116.1
486(22) 0.002058 373.5 112.9
455(21) 0.002198 373.3 109.6
459(21) 0.002179 373.2 106.5
438(21) 0.002283 373.1 103.5
462(21) 0.002164 372.9 100.6
468(22) 0.002137 372.8 97.9
431(21) 0.002320 372.7 95.4
428(21) 0.002336 372.6 92.9
431(21) 0.002320 372.4 90.7
418(20) 0.002392 372.3 88.6
427(21) 0.002342 372.2 86.6
416(20) 0.002404 372.1 84.7
436(21) 0.002294 371.9 83.0
419(20) 0.002387 371.8 81.3
435(21) 0.002299 371.7 79.8
412(20) 0.002427 371.5 78.3
437(21) 0.002288 371.4 76.9
376(19) 0.002660 371.3 75.6
421(21) 0.002375 371.2 74.3
398(20) 0.002513 371.0 73.1
417(20) 0.002398 370.9 72.0
380(19) 0.002632 370.8 70.9
398(20) 0.002513 370.7 69.9
393(20) 0.002545 370.5 68.9
395(20) 0.002532 370.4 68.0
408(20) 0.002451 370.3 67.2
382(20) 0.002618 370.1 66.4
406(20) 0.002463 370.0 65.7
412(20) 0.002427 369.9 65.0
387(20) 0.002584 369.8 64.5
393(20) 0.002545 369.6 64.0
408(20) 0.002451 369.6 63.6
370(19) 0.002703 369.9 63.3
375(19) 0.002667 370.1 63.1
378(19) 0.002646 370.4 63.0
413(20) 0.002421 370.7 63.1
382(20) 0.002618 370.9 63.4
429(21) 0.002331 371.2 64.0
387(20) 0.002584 371.5 64.9
381(20) 0.002625 371.7 66.3
396(20) 0.002525 372.0 68.1
392(20) 0.002551 372.3 70.7
412(20) 0.002427 372.5 74.1
421(21) 0.002375 372.8 78.6
405(20) 0.002469 373.1 84.2
403(20) 0.002481 373.3 91.0
376(19) 0.002660 373.6 99.2
447(21) 0.002237 373.9 108.6
483(22) 0.002070 374.1 118.9
453(21) 0.002208 374.4 129.1
479(22) 0.002088 374.7 138.0
494(22) 0.002024 374.9 144.0
514(23) 0.001946 375.2 145.6
481(22) 0.002079 375.5 142.5
464(22) 0.002155 375.7 135.7
440(21) 0.002273 376.0 126.8
427(21) 0.002342 376.3 117.3
431(21) 0.002320 376.5 108.3
439(21) 0.002278 376.8 100.3
422(21) 0.002370 377.1 93.7
422(21) 0.002370 377.3 88.5
401(20) 0.002494 377.6 84.6
407(20) 0.002457 377.9 81.9
427(21) 0.002342 378.1 80.3
421(21) 0.002375 378.4 79.5
439(21) 0.002278 378.7 79.6
405(20) 0.002469 378.9 80.5
458(21) 0.002183 379.2 82.0
449(21) 0.002227 379.5 84.3
452(21) 0.002212 379.7 87.3
425(21) 0.002353 380.0 91.0
418(20) 0.002392 380.3 95.4
449(21) 0.002227 380.5 100.4
429(21) 0.002331 380.8 106.0
459(21) 0.002179 381.1 111.6
428(21) 0.002336 381.3 116.7
494(22) 0.002024 381.6 120.5
502(22) 0.001992 381.8 122.7
489(22) 0.002045 382.1 123.6
471(22) 0.002123 382.4 123.7
512(23) 0.001953 382.6 123.7
499(22) 0.002004 382.9 124.2
484(22) 0.002066 383.2 125.3
514(23) 0.001946 383.4 127.1
450(21) 0.002222 383.7 129.7
478(22) 0.002092 384.0 133.1
482(22) 0.002075 384.2 137.1
505(22) 0.001980 384.5 141.9
520(23) 0.001923 384.8 147.3
516(23) 0.001938 385.0 153.6
527(23) 0.001898 385.3 160.7
511(23) 0.001957 385.6 168.9
555(24) 0.001802 385.8 178.4
593(24) 0.001686 386.1 189.4
604(25) 0.001656 386.4 202.4
590(24) 0.001695 386.6 217.7
655(26) 0.001527 386.9 235.8
643(25) 0.001555 387.2 256.9
694(26) 0.001441 387.4 281.1
692(26) 0.001445 387.7 308.1
714(27) 0.001401 388.0 337.0
730(27) 0.001370 388.2 365.6
750(27) 0.001333 388.5 390.9
720(27) 0.001389 388.8 409.5
749(27) 0.001335 389.0 419.8
791(28) 0.001264 389.3 422.4
766(28) 0.001305 389.6 419.8
792(28) 0.001263 389.8 414.1
737(27) 0.001357 390.1 406.6
759(28) 0.001318 390.4 398.0
806(28) 0.001241 390.6 389.5
746(27) 0.001340 390.9 382.5
712(27) 0.001404 391.2 378.0
714(27) 0.001401 391.4 376.7
744(27) 0.001344 391.7 378.7
771(28) 0.001297 392.0 384.1
724(27) 0.001381 392.2 392.7
759(28) 0.001318 392.5 404.2
756(27) 0.001323 392.8 418.4
768(28) 0.001302 393.0 434.9
843(29) 0.001186 393.3 453.4
815(29) 0.001227 393.6 473.5
795(28) 0.001258 393.8 494.4
848(29) 0.001179 394.1 515.2
836(29) 0.001196 394.4 534.6
850(29) 0.001176 394.6 551.0
908(30) 0.001101 394.9 562.7
854(29) 0.001171 395.2 568.1
804(28) 0.001244 395.4 566.4
837(29) 0.001195 395.7 557.5
783(28) 0.001277 396.0 542.1
808(28) 0.001238 396.2 521.7
776(28) 0.001289 396.5 497.7
759(28) 0.001318 396.8 471.8
720(27) 0.001389 397.0 445.2
689(26) 0.001451 397.3 419.2
658(26) 0.001520 397.5 394.6
650(25) 0.001538 397.8 372.1
637(25) 0.001570 398.1 352.0
639(25) 0.001565 398.3 334.5
633(25) 0.001580 398.6 319.5
603(25) 0.001658 398.9 306.5
678(26) 0.001475 399.1 295.1
625(25) 0.001600 399.4 284.5
610(25) 0.001639 399.7 274.3
645(25) 0.001550 399.9 264.0
588(24) 0.001701 400.2 253.4
595(24) 0.001681 400.5 242.6
597(24) 0.001675 400.7 231.9
593(24) 0.001686 401.0 221.4
567(24) 0.001764 401.3 211.5
593(24) 0.001686 401.5 202.3
580(24) 0.001724 401.8 193.6
546(23) 0.001832 402.1 185.6
519(23) 0.001927 402.3 178.2
535(23) 0.001869 402.6 171.3
580(24) 0.001724 402.9 165.0
517(23) 0.001934 403.1 159.2
541(23) 0.001848 403.4 153.9
475(22) 0.002105 403.7 149.1
476(22) 0.002101 403.9 144.9
491(22) 0.002037 404.2 141.3
496(22) 0.002016 404.5 138.4
529(23) 0.001890 404.7 136.5
475(22) 0.002105 405.0 135.2
542(23) 0.001845 405.3 134.9
505(22) 0.001980 405.5 135.8
517(23) 0.001934 405.8 137.8
527(23) 0.001898 406.1 141.3
531(23) 0.001883 406.3 146.2
567(24) 0.001764 406.6 152.9
556(24) 0.001799 406.9 161.3
531(23) 0.001883 407.1 171.6
616(25) 0.001623 407.4 183.7
628(25) 0.001592 407.7 197.3
631(25) 0.001585 407.9 212.1
635(25) 0.001575 408.2 227.2
694(26) 0.001441 408.5 241.5
695(26) 0.001439 408.7 253.3
745(27) 0.001342 409.0 261.0
704(27) 0.001420 409.3 263.4
732(27) 0.001366 409.5 260.1
667(26) 0.001499 409.8 252.0
671(26) 0.001490 410.1 240.5
647(25) 0.001546 410.3 227.1
630(25) 0.001587 410.6 213.1
632(25) 0.001582 410.9 199.3
596(24) 0.001678 411.1 186.4
598(24) 0.001672 411.4 174.8
634(25) 0.001577 411.7 164.6
553(24) 0.001808 411.9 156.0
569(24) 0.001757 412.2 148.9
590(24) 0.001695 412.5 143.4
579(24) 0.001727 412.7 139.4
582(24) 0.001718 413.0 136.8
553(24) 0.001808 413.3 135.6
565(24) 0.001770 413.5 135.5
520(23) 0.001923 413.8 136.6
532(23) 0.001880 414.1 138.8
507(23) 0.001972 414.3 141.9
545(23) 0.001835 414.6 145.9
577(24) 0.001733 414.8 150.7
541(23) 0.001848 415.1 156.2
560(24) 0.001786 415.4 162.1
546(23) 0.001832 415.6 168.4
606(25) 0.001650 415.9 174.8
617(25) 0.001621 416.2 181.0
612(25) 0.001634 416.4 187.0
572(24) 0.001748 416.7 192.4
628(25) 0.001592 417.0 197.2
635(25) 0.001575 417.2 201.3
591(24) 0.001692 417.5 204.8
601(25) 0.001664 417.8 207.7
615(25) 0.001626 418.0 210.3
641(25) 0.001560 418.3 212.8
607(25) 0.001647 418.6 215.2
623(25) 0.001605 418.8 217.5
622(25) 0.001608 419.1 219.7
630(25) 0.001587 419.4 221.3
646(25) 0.001548 419.6 221.9
663(26) 0.001508 419.9 221.1
671(26) 0.001490 420.2 218.3
617(25) 0.001621 420.4 213.2
604(25) 0.001656 420.7 205.9
623(25) 0.001605 421.0 196.6
553(24) 0.001808 421.2 185.9
609(25) 0.001642 421.5 174.4
604(25) 0.001656 421.8 162.6
558(24) 0.001792 422.0 151.0
559(24) 0.001789 422.3 139.9
550(23) 0.001818 422.6 129.6
513(23) 0.001949 422.8 120.3
505(22) 0.001980 423.1 112.0
524(23) 0.001908 423.4 104.8
479(22) 0.002088 423.6 98.7
516(23) 0.001938 423.9 93.6
486(22) 0.002058 424.2 89.6
484(22) 0.002066 424.4 86.5
491(22) 0.002037 424.7 84.5
492(22) 0.002033 425.0 83.4
498(22) 0.002008 425.2 83.4
514(23) 0.001946 425.5 84.3
456(21) 0.002193 425.8 86.3
479(22) 0.002088 426.0 89.2
503(22) 0.001988 426.3 93.3
504(22) 0.001984 426.6 98.5
486(22) 0.002058 426.8 104.8
504(22) 0.001984 427.1 112.2
492(22) 0.002033 427.4 120.7
549(23) 0.001822 427.6 130.2
547(23) 0.001828 427.9 140.5
507(23) 0.001972 428.2 151.5
549(23) 0.001822 428.4 162.5
572(24) 0.001748 428.7 173.2
590(24) 0.001695 429.0 182.8
560(24) 0.001786 429.2 190.4
589(24) 0.001698 429.5 195.2
579(24) 0.001727 429.8 196.7
600(24) 0.001667 430.0 194.8
613(25) 0.001631 430.3 189.6
588(24) 0.001701 430.5 181.8
607(25) 0.001647 430.8 172.3
602(25) 0.001661 431.1 161.8
525(23) 0.001905 431.3 151.1
561(24) 0.001783 431.6 140.7
507(23) 0.001972 431.9 131.2
535(23) 0.001869 432.1 122.6
518(23) 0.001931 432.4 115.2
513(23) 0.001949 432.7 109.1
469(22) 0.002132 432.9 104.3
488(22) 0.002049 433.2 100.7
475(22) 0.002105 433.5 98.4
470(22) 0.002128 433.7 97.2
463(22) 0.002160 434.0 97.1
490(22) 0.002041 434.3 97.8
514(23) 0.001946 434.5 99.1
512(23) 0.001953 434.8 100.9
477(22) 0.002096 435.1 102.8
493(22) 0.002028 435.3 104.7
483(22) 0.002070 435.6 106.4
502(22) 0.001992 435.9 107.7
516(23) 0.001938 436.1 108.9
462(21) 0.002164 436.4 110.1
506(22) 0.001976 436.7 111.5
499(22) 0.002004 436.9 113.1
495(22) 0.002020 437.2 115.2
487(22) 0.002053 437.5 117.7
486(22) 0.002058 437.7 120.5
489(22) 0.002045 438.0 123.4
521(23) 0.001919 438.3 126.0
534(23) 0.001873 438.5 128.1
510(23) 0.001961 438.8 129.2
499(22) 0.002004 439.1 128.9
522(23) 0.001916 439.3 127.1
475(22) 0.002105 439.6 123.8
454(21) 0.002203 439.9 119.0
473(22) 0.002114 440.1 113.3
451(21) 0.002217 440.4 107.0
467(22) 0.002141 440.7 100.5
453(21) 0.002208 440.9 94.2
472(22) 0.002119 441.2 88.3
466(22) 0.002146 441.5 83.0
471(22) 0.002123 441.7 78.2
428(21) 0.002336 442.0 74.1
430(21) 0.002326 442.3 70.7
428(21) 0.002336 442.5 67.9
426(21) 0.002347 442.8 65.7
428(21) 0.002336 443.1 64.2
417(20) 0.002398 443.3 63.1
442(21) 0.002262 443.6 62.6
451(21) 0.002217 443.9 62.6
482(22) 0.002075 444.1 63.1
451(21) 0.002217 444.4 64.0
444(21) 0.002252 444.7 65.3
451(21) 0.002217 444.9 67.0
451(21) 0.002217 445.2 69.1
475(22) 0.002105 445.5 71.6
434(21) 0.002304 445.7 74.4
456(21) 0.002193 446.0 77.6
453(21) 0.002208 446.3 81.1
446(21) 0.002242 446.5 85.0
478(22) 0.002092 446.8 89.2
475(22) 0.002105 447.0 93.6
471(22) 0.002123 447.3 98.3
482(22) 0.002075 447.6 103.2
490(22) 0.002041 447.8 108.1
492(22) 0.002033 448.1 113.1
522(23) 0.001916 448.4 118.1
518(23) 0.001931 448.6 122.9
526(23) 0.001901 448.9 127.6
529(23) 0.001890 449.2 132.0
542(23) 0.001845 449.4 136.4
471(22) 0.002123 449.7 140.5
520(23) 0.001923 450.0 144.7
511(23) 0.001957 450.2 148.7
501(22) 0.001996 450.5 152.8
571(24) 0.001751 450.8 156.7
529(23) 0.001890 451.0 160.4
507(23) 0.001972 451.3 163.6
552(23) 0.001812 451.6 166.0
517(23) 0.001934 451.8 167.5
522(23) 0.001916 452.1 167.9
567(24) 0.001764 452.4 167.3
525(23) 0.001905 452.6 165.9
574(24) 0.001742 452.9 164.0
519(23) 0.001927 453.2 162.0
554(24) 0.001805 453.4 160.3
544(23) 0.001838 453.7 159.0
526(23) 0.001901 454.0 158.4
533(23) 0.001876 454.2 158.6
555(24) 0.001802 454.5 159.7
557(24) 0.001795 454.8 161.5
576(24) 0.001736 455.0 164.2
501(22) 0.001996 455.3 167.6
517(23) 0.001934 455.6 171.7
591(24) 0.001692 455.8 176.3
566(24) 0.001767 456.1 181.3
585(24) 0.001709 456.4 186.5
583(24) 0.001715 456.6 191.9
586(24) 0.001706 456.9 197.1
611(25) 0.001637 457.2 202.1
590(24) 0.001695 457.4 206.5
561(24) 0.001783 457.7 210.3
635(25) 0.001575 458.0 213.3
612(25) 0.001634 458.2 215.4
613(25) 0.001631 458.5 216.5
614(25) 0.001629 458.8 216.5
631(25) 0.001585 459.0 215.5
646(25) 0.001548 459.3 213.5
593(24) 0.001686 459.6 210.7
613(25) 0.001631 459.8 207.1
607(25) 0.001647 460.1 202.8
578(24) 0.001730 460.4 198.2
582(24) 0.001718 460.6 193.3
596(24) 0.001678 460.9 188.2
564(24) 0.001773 461.2 183.1
564(24) 0.001773 461.4 178.0
543(23) 0.001842 461.7 173.0
543(23) 0.001842 462.0 168.1
552(23) 0.001812 462.2 163.5
547(23) 0.001828 462.5 159.0
546(23) 0.001832 462.8 154.8
574(24) 0.001742 463.0 150.8
575(24) 0.001739 463.3 146.9
558(24) 0.001792 463.5 143.2
582(24) 0.001718 463.8 139.7
567(24) 0.001764 464.1 136.3
564(24) 0.001773 464.3 133.0
580(24) 0.001724 464.6 129.7
569(24) 0.001757 464.9 126.4
543(23) 0.001842 465.1 123.2
559(24) 0.001789 465.4 120.0
555(24) 0.001802 465.7 116.7
576(24) 0.001736 465.9 113.5
507(23) 0.001972 466.2 110.3
517(23) 0.001934 466.5 107.0
555(24) 0.001802 466.7 103.9
571(24) 0.001751 467.0 100.7
493(22) 0.002028 467.3 97.7
524(23) 0.001908 467.5 94.7
484(22) 0.002066 467.8 91.8
495(22) 0.002020 468.1 89.0
519(23) 0.001927 468.3 86.3
491(22) 0.002037 468.6 83.8
496(22) 0.002016 468.9 81.3
521(23) 0.001919 469.1 79.0
509(23) 0.001965 469.4 76.9
490(22) 0.002041 469.7 74.8
516(23) 0.001938 469.9 72.9
535(23) 0.001869 470.2 71.1
499(22) 0.002004 470.5 69.3
504(22) 0.001984 470.7 67.7
512(23) 0.001953 471.0 66.2
466(22) 0.002146 471.3 64.8
484(22) 0.002066 471.5 63.5
513(23) 0.001949 471.8 62.4
461(21) 0.002169 472.1 61.3
457(21) 0.002188 472.3 60.3
482(22) 0.002075 472.6 59.4
463(22) 0.002160 472.9 58.6
476(22) 0.002101 473.1 58.0
504(22) 0.001984 473.4 57.5
476(22) 0.002101 473.7 57.2
480(22) 0.002083 473.9 57.1
462(21) 0.002164 474.2 57.4
462(21) 0.002164 474.5 57.9
469(22) 0.002132 474.7 58.8
495(22) 0.002020 475.0 60.2
514(23) 0.001946 475.3 62.1
494(22) 0.002024 475.5 64.5
503(22) 0.001988 475.8 67.6
528(23) 0.001894 476.1 71.4
486(22) 0.002058 476.3 75.8
529(23) 0.001890 476.6 81.0
561(24) 0.001783 476.9 86.8
565(24) 0.001770 477.1 93.0
561(24) 0.001783 477.4 99.4
563(24) 0.001776 477.7 105.5
585(24) 0.001709 477.9 111.0
576(24) 0.001736 478.2 115.6
611(25) 0.001637 478.5 119.3
591(24) 0.001692 478.7 122.3
591(24) 0.001692 479.0 124.5
614(25) 0.001629 479.3 126.0
641(25) 0.001560 479.5 126.2
589(24) 0.001698 479.8 124.5
592(24) 0.001689 480.0 120.4
568(24) 0.001761 480.3 114.1
572(24) 0.001748 480.6 106.2
575(24) 0.001739 480.8 97.7
579(24) 0.001727 481.1 89.3
549(23) 0.001822 481.4 81.5
533(23) 0.001876 481.6 74.7
524(23) 0.001908 481.9 68.9
497(22) 0.002012 482.2 64.1
510(23) 0.001961 482.4 60.2
503(22) 0.001988 482.7 57.2
545(23) 0.001835 483.0 54.8
490(22) 0.002041 483.2 53.1
479(22) 0.002088 483.5 51.8
475(22) 0.002105 483.8 50.9
493(22) 0.002028 484.0 50.3
469(22) 0.002132 484.3 49.9
502(22) 0.001992 484.6 49.7
503(22) 0.001988 484.8 49.7
498(22) 0.002008 485.1 49.8
483(22) 0.002070 485.4 50.0
523(23) 0.001912 485.6 50.3
471(22) 0.002123 485.9 50.7
464(22) 0.002155 486.2 51.1
500(22) 0.002000 486.4 51.6
531(23) 0.001883 487.0 52.2
488(22) 0.002049 487.9 52.8
532(23) 0.001880 488.7 53.5
487(22) 0.002053 489.6 54.3
477(22) 0.002096 490.4 55.1
480(22) 0.002083 491.3 56.0
451(21) 0.002217 492.2 57.0
523(23) 0.001912 493.0 58.1
511(23) 0.001957 493.9 59.2
536(23) 0.001866 494.8 60.5
486(22) 0.002058 495.6 61.9
497(22) 0.002012 496.5 63.4
510(23) 0.001961 497.3 65.0
510(23) 0.001961 498.2 66.7
500(22) 0.002000 499.1 68.6
535(23) 0.001869 499.9 70.6
486(22) 0.002058 500.8 72.8
538(23) 0.001859 501.6 75.1
522(23) 0.001916 502.5 77.7
563(24) 0.001776 503.4 80.5
524(23) 0.001908 504.2 83.5
534(23) 0.001873 505.1 86.9
580(24) 0.001724 506.0 90.6
583(24) 0.001715 506.8 94.8
576(24) 0.001736 507.7 99.6
578(24) 0.001730 508.5 104.9
594(24) 0.001684 509.4 111.0
680(26) 0.001471 510.3 118.0
660(26) 0.001515 511.1 125.8
701(26) 0.001427 512.0 134.6
696(26) 0.001437 512.8 144.3
695(26) 0.001439 513.7 155.0
733(27) 0.001364 514.6 166.3
728(27) 0.001374 515.4 177.9
749(27) 0.001335 516.3 189.1
771(28) 0.001297 517.2 199.1
795(28) 0.001258 518.0 206.8
779(28) 0.001284 518.9 211.3
793(28) 0.001261 519.7 212.3
757(28) 0.001321 520.6 210.1
730(27) 0.001370 521.5 205.6
731(27) 0.001368 522.3 199.6
686(26) 0.001458 523.2 193.2
677(26) 0.001477 524.0 187.0
668(26) 0.001497 524.9 181.3
693(26) 0.001443 525.8 176.3
686(26) 0.001458 526.6 172.1
701(26) 0.001427 527.5 168.7
665(26) 0.001504 528.4 166.0
643(25) 0.001555 529.2 164.0
709(27) 0.001410 530.1 162.5
730(27) 0.001370 530.9 161.5
635(25) 0.001575 531.8 160.9
680(26) 0.001471 532.7 160.6
659(26) 0.001517 533.5 160.7
733(27) 0.001364 534.4 161.2
692(26) 0.001445 535.2 162.1
694(26) 0.001441 536.1 163.4
695(26) 0.001439 537.0 165.4
668(26) 0.001497 537.8 168.2
654(26) 0.001529 538.7 171.8
731(27) 0.001368 539.6 176.4
703(27) 0.001422 540.4 182.2
721(27) 0.001387 541.3 189.3
711(27) 0.001406 542.1 197.7
783(28) 0.001277 543.0 207.3
749(27) 0.001335 543.9 217.8
791(28) 0.001264 544.7 228.7
837(29) 0.001195 545.6 239.0
806(28) 0.001241 546.4 247.5
813(29) 0.001230 547.3 252.9
773(28) 0.001294 548.2 254.1
789(28) 0.001267 549.0 251.2
780(28) 0.001282 549.9 245.1
741(27) 0.001350 550.8 237.0
725(27) 0.001379 551.6 228.3
724(27) 0.001381 552.5 220.0
725(27) 0.001379 553.3 212.7
743(27) 0.001346 554.2 206.6
743(27) 0.001346 555.1 201.8
755(27) 0.001324 555.9 198.1
756(27) 0.001323 556.8 195.2
798(28) 0.001253 557.6 192.8
777(28) 0.001287 558.5 190.5
742(27) 0.001348 559.4 188.3
794(28) 0.001259 560.2 186.1
765(28) 0.001307 561.1 183.9
759(28) 0.001318 562.0 182.1
763(28) 0.001311 562.8 180.7
723(27) 0.001383 563.7 180.2
737(27) 0.001357 564.5 180.7
673(26) 0.001486 565.4 182.4
703(27) 0.001422 566.3 185.4
721(27) 0.001387 567.1 189.7
737(27) 0.001357 568.0 195.4
750(27) 0.001333 568.8 202.5
749(27) 0.001335 569.7 210.9
739(27) 0.001353 570.6 220.3
691(26) 0.001447 571.4 230.6
775(28) 0.001290 572.3 241.4
786(28) 0.001272 573.2 252.1
787(28) 0.001271 574.0 262.4
824(29) 0.001214 574.9 271.4
858(29) 0.001166 575.7 278.4
824(29) 0.001214 576.6 282.9
786(28) 0.001272 577.5 284.3
803(28) 0.001245 578.3 282.4
805(28) 0.001242 579.2 277.3
807(28) 0.001239 580.0 269.3
792(28) 0.001263 580.9 259.1
786(28) 0.001272 581.8 247.3
686(26) 0.001458 582.6 234.5
710(27) 0.001408 583.5 221.3
730(27) 0.001370 584.4 208.3
687(26) 0.001456 585.2 195.7
665(26) 0.001504 586.1 183.8
661(26) 0.001513 586.9 172.8
682(26) 0.001466 587.8 162.8
647(25) 0.001546 588.7 153.8
654(26) 0.001529 589.5 146.0
650(25) 0.001538 590.4 139.2
570(24) 0.001754 590.5 133.4
620(25) 0.001613 590.3 128.7
662(26) 0.001511 590.1 125.0
618(25) 0.001618 590.0 122.2
598(24) 0.001672 589.8 120.2
601(25) 0.001664 589.6 119.1
623(25) 0.001605 589.4 118.7
640(25) 0.001563 589.3 119.0
595(24) 0.001681 589.1 120.0
614(25) 0.001629 588.9 121.6
619(25) 0.001616 588.8 123.7
631(25) 0.001585 588.6 126.5
625(25) 0.001600 588.4 129.8
652(26) 0.001534 588.2 133.6
623(25) 0.001605 588.1 137.9
642(25) 0.001558 587.9 142.8
636(25) 0.001572 587.7 148.1
671(26) 0.001490 587.6 153.9
680(26) 0.001471 587.4 160.2
698(26) 0.001433 587.2 167.0
711(27) 0.001406 587.0 174.2
687(26) 0.001456 586.9 181.8
732(27) 0.001366 586.7 189.7
727(27) 0.001376 586.5 197.9
760(28) 0.001316 586.4 206.4
796(28) 0.001256 586.2 214.9
749(27) 0.001335 586.0 223.5
766(28) 0.001305 585.8 231.9
798(28) 0.001253 585.7 240.0
822(29) 0.001217 585.5 247.6
794(28) 0.001259 585.3 254.6
784(28) 0.001276 585.2 260.8
785(28) 0.001274 585.0 266.0
823(29) 0.001215 584.8 270.3
821(29) 0.001218 584.6 273.6
851(29) 0.001175 584.5 275.9
807(28) 0.001239 584.3 277.4
748(27) 0.001337 584.1 278.2
833(29) 0.001200 584.0 278.6
797(28) 0.001255 583.8 278.7
784(28) 0.001276 583.6 278.8
811(28) 0.001233 583.4 279.0
849(29) 0.001178 583.3 279.7
783(28) 0.001277 583.1 280.8
799(28) 0.001252 582.9 282.5
820(29) 0.001220 582.8 284.9
860(29) 0.001163 582.6 288.1
867(29) 0.001153 582.4 291.9
882(30) 0.001134 582.2 296.4
891(30) 0.001122 582.1 301.2
915(30) 0.001093 581.9 306.3
870(29) 0.001149 581.7 311.2
857(29) 0.001167 581.6 315.4
885(30) 0.001130 581.4 318.6
867(29) 0.001153 581.2 320.1
890(30) 0.001124 581.0 319.7
813(29) 0.001230 580.9 317.0
860(29) 0.001163 580.7 312.1
777(28) 0.001287 580.5 305.2
845(29) 0.001183 580.4 296.6
781(28) 0.001280 580.2 286.9
865(29) 0.001156 580.0 276.3
788(28) 0.001269 579.8 265.5
784(28) 0.001276 579.7 254.6
737(27) 0.001357 579.5 244.0
766(28) 0.001305 579.3 233.8
773(28) 0.001294 579.2 224.2
728(27) 0.001374 579.0 215.1
731(27) 0.001368 578.8 206.8
722(27) 0.001385 578.6 199.1
723(27) 0.001383 578.5 192.1
717(27) 0.001395 578.3 185.8
668(26) 0.001497 578.1 180.1
713(27) 0.001403 578.0 175.0
705(27) 0.001418 577.8 170.4
717(27) 0.001395 577.6 166.4
718(27) 0.001393 577.4 162.7
692(26) 0.001445 577.3 159.5
692(26) 0.001445 577.1 156.6
685(26) 0.001460 576.9 154.0
714(27) 0.001401 576.8 151.7
690(26) 0.001449 576.6 149.6
724(27) 0.001381 576.4 147.7
683(26) 0.001464 576.2 146.0
658(26) 0.001520 576.1 144.4
708(27) 0.001412 575.9 143.0
702(26) 0.001424 575.7 141.7
688(26) 0.001453 575.6 140.5
702(26) 0.001424 575.4 139.5
716(27) 0.001397 575.2 138.6
746(27) 0.001340 575.0 137.9
691(26) 0.001447 574.9 137.4
739(27) 0.001353 574.7 137.1
701(26) 0.001427 574.5 137.2
729(27) 0.001372 574.4 137.5
691(26) 0.001447 574.2 138.2
709(27) 0.001410 574.0 139.3
709(27) 0.001410 573.8 140.9
717(27) 0.001395 573.7 143.0
711(27) 0.001406 573.5 145.6
730(27) 0.001370 573.3 148.8
793(28) 0.001261 573.2 152.6
736(27) 0.001359 573.0 157.0
698(26) 0.001433 572.8 161.9
724(27) 0.001381 572.6 167.4
731(27) 0.001368 572.5 173.2
738(27) 0.001355 572.3 179.3
716(27) 0.001397 572.1 185.4
738(27) 0.001355 572.0 191.2
803(28) 0.001245 571.8 196.4
769(28) 0.001300 571.6 200.4
808(28) 0.001238 571.4 203.0
721(27) 0.001387 571.3 203.8
780(28) 0.001282 571.1 202.6
778(28) 0.001285 570.9 199.5
792(28) 0.001263 570.8 194.7
809(28) 0.001236 570.6 188.5
752(27) 0.001330 570.4 181.5
728(27) 0.001374 570.2 173.9
729(27) 0.001372 570.1 166.1
713(27) 0.001403 569.9 158.5
760(28) 0.001316 569.7 151.1
713(27) 0.001403 569.6 144.2
727(27) 0.001376 569.4 137.8
678(26) 0.001475 569.2 132.0
703(27) 0.001422 569.0 126.8
716(27) 0.001397 568.9 122.2
713(27) 0.001403 568.7 118.2
699(26) 0.001431 568.5 114.7
650(25) 0.001538 568.4 111.7
679(26) 0.001473 568.2 109.2
659(26) 0.001517 568.0 107.2
650(25) 0.001538 567.8 105.5
700(26) 0.001429 567.7 104.3
688(26) 0.001453 567.5 103.3
667(26) 0.001499 567.3 102.6
676(26) 0.001479 567.2 102.3
694(26) 0.001441 567.0 102.1
672(26) 0.001488 566.8 102.2
709(27) 0.001410 566.7 102.5
711(27) 0.001406 566.5 103.0
694(26) 0.001441 566.3 103.7
743(27) 0.001346 566.1 104.5
686(26) 0.001458 566.0 105.5
696(26) 0.001437 565.8 106.7
708(27) 0.001412 565.6 108.0
725(27) 0.001379 565.5 109.4
714(27) 0.001401 565.3 110.8
741(27) 0.001350 565.1 112.3
764(28) 0.001309 564.9 113.7
758(28) 0.001319 564.8 115.1
785(28) 0.001274 564.6 116.2
806(28) 0.001241 564.4 117.0
745(27) 0.001342 564.3 117.4
782(28) 0.001279 564.1 117.4
765(28) 0.001307 563.9 116.9
738(27) 0.001355 563.7 115.9
744(27) 0.001344 563.6 114.6
741(27) 0.001350 563.4 113.0
723(27) 0.001383 563.2 111.1
757(28) 0.001321 563.1 109.1
746(27) 0.001340 562.9 107.1
738(27) 0.001355 562.7 105.1
764(28) 0.001309 562.5 103.3
781(28) 0.001280 562.4 101.6
790(28) 0.001266 562.2 100.0
789(28) 0.001267 562.0 98.6
771(28) 0.001297 561.9 97.4
796(28) 0.001256 561.7 96.4
801(28) 0.001248 561.5 95.5
802(28) 0.001247 561.3 94.7
789(28) 0.001267 561.2 93.9
846(29) 0.001182 561.0 93.2
795(28) 0.001258 560.8 92.5
838(29) 0.001193 560.7 91.7
823(29) 0.001215 560.5 90.8
794(28) 0.001259 560.3 89.7
830(29) 0.001205 560.1 88.5
762(28) 0.001312 560.0 87.0
827(29) 0.001209 559.8 85.3
841(29) 0.001189 559.6 83.5
891(30) 0.001122 559.5 81.4
834(29) 0.0 0.0 .
856(29) 0.0 0.0 .
838(29) 0.0 0.0 .
813(29) 0.0 0.0 .
865(29) 0.0 0.0 .
892(30) 0.0 0.0 .
886(30) 0.0 0.0 .
853(29) 0.0 0.0 .
900(30) 0.0 0.0 .
850(29) 0.0 0.0 .
904(30) 0.0 0.0 .
870(29) 0.0 0.0 .
940(31) 0.0 0.0 .
885(30) 0.0 0.0 .
900(30) 0.0 0.0 .
942(31) 0.0 0.0 .
961(31) 0.0 0.0 .
984(31) 0.0 0.0 .
940(31) 0.0 0.0 .
1005(32) 0.0 0.0 .
1063(33) 0.0 0.0 .
1004(32) 0.0 0.0 .
1065(33) 0.0 0.0 .
1079(33) 0.0 0.0 .
1070(33) 0.0 0.0 .
1068(33) 0.0 0.0 .
1146(34) 0.0 0.0 .
1116(33) 0.0 0.0 .
1127(34) 0.0 0.0 .
1251(35) 0.0 0. .
1237(35) 0.0 0. .
1271(36) 0.0 0. .
1227(35) 0.0 0.0 .
1304(36) 0.0 0. .
1343(37) 0.0 0. .
1389(37) 0.0 0. .
1427(38) 0.0 0. .
1481(38) 0.0 0. .
1521(39) 0.0 0. .
1565(40) 0.0 0. .
1560(39) 0.0 0. .
1610(40) 0.0 0. .
1733(42) 0.0 0. .
1738(42) 0.0 0. .
1900(44) 0.0 0. .
1862(43) 0.0 0. .
2016(45) 0.0 0. .
2014(45) 0.0 0. .
2095(46) 0.0 0. .
2195(47) 0.0 0. .
2275(48) 0.0 0. .
2452(50) 0.0 0. .
2636(51) 0.0 0. .
2691(52) 0.0 0. .
2809(53) 0.0 0. .
3042(55) 0.0 0. .
3141(56) 0.0 0. .
3324(58) 0.0 0. .
3537(59) 0.0 0. .
3899(62) 0.0 0. .
4195(65) 0.0 0. .
4532(67) 0.0 0. .
4774(69) 0.0 0. .
5277(73) 0.0 0. .
5643(75) 0.0 0. .
6195(79) 0.0 0. .
6792(82) 0.0 0. .
7547(87) 0.0 0. .
8271(91) 0.0 0. .
9308(96) 0.0 0. .
10240(100) 0.0 0. .
11500(110) 0.0 0. .
13270(120) 0.0 0. .
15090(120) 0.0 0. .
17330(130) 0.0 0. .
20590(140) 0.0 0. .
24390(160) 0.0 0. .
29830(170) 0.0 0. .
36400(190) 0.0 0. .
45440(210) 0.0 0. .
57320(240) 0.0 0. .
73780(270) 0.0 0. .
96960(310) 0.0 0. .
130530(360) 0.0 0. .
180750(430) 0.0 0. .
254590(510) 0.0 0. .
361660(600) 0.0 0. .
495490(700) 0.0 0. .
618300(790) 0.0 0. .
671060(820) 0.0 0. .
640460(800) 0.0 0. .
545400(740) 0.0 0. .
418380(650) 0.0 0. .
300600(550) 0.0 0. .
214370(460) 0.0 0. .
154570(390) 0.0 0. .
114720(340) 0.0 0. .
87110(300) 0.0 0. .
67340(260) 0.0 0. .
53120(230) 0.0 0. .
42760(210) 0.0 0. .
34390(190) 0.0 0. .
28310(170) 0.0 0. .
23630(150) 0.0 0. .
20090(140) 0.0 0. .
17060(130) 0.0 0. .
14910(120) 0.0 0. .
12900(110) 0.0 0. .
11250(110) 0.0 0. .
9891(99) 0.0 0. .
8676(93) 0.0 0. .
7877(89) 0.0 0. .
7180(85) 0.0 0. .
6426(80) 0.0 0. .
5913(77) 0.0 0. .
5419(74) 0.0 0. .
4985(71) 0.0 0. .
4680(68) 0.0 0. .
4294(66) 0.0 0. .
3936(63) 0.0 0. .
3725(61) 0.0 0. .
3549(60) 0.0 0. .
3218(57) 0.0 0. .
3097(56) 0.0 0. .
2897(54) 0.0 0. .
2706(52) 0.0 0. .
2563(51) 0.0 0. .
2398(49) 0.0 0. .
2301(48) 0.0 0. .
2235(47) 0.0 0. .
2179(47) 0.0 0. .
2067(45) 0.0 0. .
1997(45) 0.0 0. .
1986(45) 0.0 0. .
1844(43) 0.0 0. .
1889(43) 0.0 0. .
1764(42) 0.0 0. .
1717(41) 0.0 0. .
1688(41) 0.0 0. .
1551(39) 0.0 0. .
1608(40) 0.0 0. .
1556(39) 0.0 0. .
1461(38) 0.0 0. .
1491(39) 0.0 0. .
1508(39) 0.0 0. .
1473(38) 0.0 0. .
1362(37) 0.0 0. .
1369(37) 0.0 0. .
1392(37) 0.0 0. .
1265(36) 0.0 0. .
1373(37) 0.0 0. .
1315(36) 0.0 0. .
1313(36) 0.0 0. .
1284(36) 0.0 0. .
1244(35) 0.0 0. .
1267(36) 0.0 0. .
1193(35) 0.0 0.0 .
1224(35) 0.0 0.0 .
1259(35) 0.0 0. .
1169(34) 0.0 0.0 .
1135(34) 0.0 0.0 .
1187(34) 0.0 0.0 .
1088(33) 0.0 0.0 .
1108(33) 0.0 0.0 .
1145(34) 0.0 0.0 .
1065(33) 0.0 0.0 .
1100(33) 0.0 0.0 .
1092(33) 0.0 0.0 .
1172(34) 0.0 0.0 .
1098(33) 0.0 0.0 .
1137(34) 0.0 0.0 .
1121(33) 0.0 0.0 .
1123(34) 0.0 0.0 .
1125(34) 0.0 0.0 .
1091(33) 0.0 0.0 .
1043(32) 0.0 0.0 .
1040(32) 0.0 0.0 .
1076(33) 0.0 0.0 .
1086(33) 0.0 0.0 .
1056(32) 0.0 0.0 .
1057(33) 0.0 0.0 .
1000(32) 0.0 0.0 .
912(30) 0.0 0.0 .
984(31) 0.0 0.0 .
920(30) 0.001087 527.7 130.2
949(31) 0.001054 527.6 124.9
897(30) 0.001115 527.4 119.2
907(30) 0.001103 527.2 113.3
898(30) 0.001114 527.1 107.4
895(30) 0.001117 526.9 101.5
943(31) 0.001060 526.7 95.8
907(30) 0.001103 526.5 90.4
846(29) 0.001182 526.4 85.1
840(29) 0.001190 526.2 80.2
806(28) 0.001241 526.0 75.7
831(29) 0.001203 525.9 71.4
844(29) 0.001185 525.7 67.6
801(28) 0.001248 525.5 64.0
803(28) 0.001245 525.3 60.8
822(29) 0.001217 525.2 58.0
812(28) 0.001232 525.0 55.4
732(27) 0.001366 524.8 53.1
737(27) 0.001357 524.7 51.2
774(28) 0.001292 524.5 49.4
737(27) 0.001357 524.3 47.9
754(27) 0.001326 524.1 46.7
720(27) 0.001389 524.0 45.6
772(28) 0.001295 523.8 44.8
749(27) 0.001335 523.6 44.1
786(28) 0.001272 523.5 43.6
741(27) 0.001350 523.3 43.3
727(27) 0.001376 523.1 43.1
747(27) 0.001339 522.9 43.0
679(26) 0.001473 522.8 43.1
682(26) 0.001466 522.6 43.3
698(26) 0.001433 522.4 43.6
641(25) 0.001560 522.3 44.1
760(28) 0.001316 522.1 44.6
705(27) 0.001418 521.9 45.3
678(26) 0.001475 521.7 46.1
695(26) 0.001439 521.6 47.1
695(26) 0.001439 521.4 48.1
704(27) 0.001420 521.2 49.3
696(26) 0.001437 521.1 50.5
645(25) 0.001550 520.9 52.0
707(27) 0.001414 520.7 53.5
702(26) 0.001424 520.6 55.1
694(26) 0.001441 520.4 56.8
707(27) 0.001414 520.2 58.6
698(26) 0.001433 520.0 60.4
672(26) 0.001488 519.9 62.3
705(27) 0.001418 519.7 64.3
709(27) 0.001410 519.5 66.2
664(26) 0.001506 519.4 68.2
687(26) 0.001456 519.2 70.1
703(27) 0.001422 519.0 72.0
680(26) 0.001471 518.8 73.9
665(26) 0.001504 518.7 75.7
702(26) 0.001424 518.5 77.4
699(26) 0.001431 518.3 79.0
711(27) 0.001406 518.2 80.3
723(27) 0.001383 518.0 81.4
681(26) 0.001468 517.8 82.0
638(25) 0.001567 517.6 82.2
694(26) 0.001441 517.5 81.8
691(26) 0.001447 517.3 80.8
669(26) 0.001495 517.1 79.3
701(26) 0.001427 517.0 77.3
684(26) 0.001462 516.8 74.9
699(26) 0.001431 516.6 72.2
631(25) 0.001585 516.4 69.4
655(26) 0.001527 516.3 66.4
670(26) 0.001493 516.1 63.5
632(25) 0.001582 515.9 60.6
584(24) 0.001712 515.8 57.9
646(25) 0.001548 515.6 55.4
615(25) 0.001626 515.4 53.0
629(25) 0.001590 515.2 50.9
586(24) 0.001706 515.1 48.9
622(25) 0.001608 514.9 47.2
555(24) 0.001802 514.7 45.7
591(24) 0.001692 514.6 44.4
560(24) 0.001786 514.4 43.4
568(24) 0.001761 514.2 42.5
552(23) 0.001812 514.0 41.8
542(23) 0.001845 513.9 41.3
569(24) 0.001757 513.7 41.0
528(23) 0.001894 513.5 40.8
560(24) 0.001786 513.4 40.8
616(25) 0.001623 513.2 41.0
531(23) 0.001883 513.0 41.4
552(23) 0.001812 512.8 41.9
629(25) 0.001590 512.7 42.7
584(24) 0.001712 512.5 43.6
602(25) 0.001661 512.3 44.6
601(25) 0.001664 512.2 45.9
595(24) 0.001681 512.0 47.3
609(25) 0.001642 511.8 48.8
581(24) 0.001721 511.6 50.4
633(25) 0.001580 511.5 51.9
602(25) 0.001661 511.3 53.3
637(25) 0.001570 511.1 54.4
594(24) 0.001684 511.0 55.0
604(25) 0.001656 510.8 55.1
575(24) 0.001739 510.6 54.5
560(24) 0.001786 510.4 53.5
589(24) 0.001698 510.3 52.1
601(25) 0.001664 510.1 50.4
614(25) 0.001629 509.9 48.6
531(23) 0.001883 509.8 46.9
567(24) 0.001764 509.6 45.3
537(23) 0.001862 509.4 43.9
532(23) 0.001880 509.2 42.7
540(23) 0.001852 509.1 41.6
522(23) 0.001916 508.9 40.8
531(23) 0.001883 508.7 40.2
505(22) 0.001980 508.6 39.8
537(23) 0.001862 508.4 39.5
531(23) 0.001883 508.2 39.4
536(23) 0.001866 508.0 39.5
517(23) 0.001934 507.9 39.7
531(23) 0.001883 507.7 40.1
500(22) 0.002000 507.5 40.6
535(23) 0.001869 507.4 41.2
531(23) 0.001883 507.2 41.9
538(23) 0.001859 507.0 42.8
525(23) 0.001905 506.9 43.7
527(23) 0.001898 506.7 44.8
513(23) 0.001949 506.6 45.9
528(23) 0.001894 506.4 47.2
537(23) 0.001862 506.3 48.6
527(23) 0.001898 506.1 50.2
563(24) 0.001776 506.0 51.8
499(22) 0.002004 505.9 53.7
527(23) 0.001898 505.7 55.6
540(23) 0.001852 505.6 57.7
527(23) 0.001898 505.4 60.0
552(23) 0.001812 505.3 62.4
560(24) 0.001786 505.1 65.0
541(23) 0.001848 505.0 67.8
565(24) 0.001770 504.8 70.7
546(23) 0.001832 504.7 73.8
573(24) 0.001745 504.5 77.2
566(24) 0.001767 504.4 80.7
608(25) 0.001645 504.2 84.4
578(24) 0.001730 504.1 88.3
596(24) 0.001678 503.9 92.4
615(25) 0.001626 503.8 96.6
618(25) 0.001618 503.6 101.0
593(24) 0.001686 503.5 105.5
627(25) 0.001595 503.4 110.1
680(26) 0.001471 503.2 114.7
656(26) 0.001524 503.1 119.3
647(25) 0.001546 502.9 123.9
663(26) 0.001508 502.8 128.4
662(26) 0.001511 502.6 132.6
658(26) 0.001520 502.5 136.7
710(27) 0.001408 502.3 140.4
696(26) 0.001437 502.2 143.9
678(26) 0.001475 502.0 147.0
681(26) 0.001468 501.9 149.8
689(26) 0.001451 501.7 152.3
730(27) 0.001370 501.6 154.7
682(26) 0.001466 501.4 156.8
727(27) 0.001376 501.3 158.7
714(27) 0.001401 501.1 160.4
739(27) 0.001353 501.0 161.8
733(27) 0.001364 500.8 162.9
757(28) 0.001321 500.7 163.5
696(26) 0.001437 500.6 163.7
699(26) 0.001431 500.4 163.1
724(27) 0.001381 500.3 161.9
662(26) 0.001511 500.1 160.0
701(26) 0.001427 500.0 157.5
655(26) 0.001527 499.8 154.6
669(26) 0.001495 499.7 151.5
638(25) 0.001567 499.5 148.3
641(25) 0.001560 499.4 145.2
666(26) 0.001501 499.2 142.2
668(26) 0.001497 499.1 139.4
663(26) 0.001508 498.9 136.9
685(26) 0.001460 498.8 134.8
646(25) 0.001548 498.6 133.0
673(26) 0.001486 498.5 131.5
640(25) 0.001563 498.3 130.4
651(26) 0.001536 498.2 129.7
630(25) 0.001587 498.1 129.4
611(25) 0.001637 497.9 129.5
649(25) 0.001541 497.8 129.9
644(25) 0.001553 497.6 130.7
637(25) 0.001570 497.5 131.9
658(26) 0.001520 497.3 133.3
668(26) 0.001497 497.2 135.0
682(26) 0.001466 497.0 136.9
648(25) 0.001543 496.9 138.9
606(25) 0.001650 496.7 141.0
652(26) 0.001534 496.6 143.0
640(25) 0.001563 496.4 144.9
699(26) 0.001431 496.3 146.6
613(25) 0.001631 496.1 148.0
675(26) 0.001481 496.0 149.2
662(26) 0.001511 495.8 150.1
617(25) 0.001621 495.7 150.8
643(25) 0.001555 495.6 151.3
597(24) 0.001675 495.4 151.8
625(25) 0.001600 495.3 152.3
665(26) 0.001504 495.1 152.7
629(25) 0.001590 495.0 153.1
669(26) 0.001495 494.8 153.5
646(25) 0.001548 494.7 153.7
610(25) 0.001639 494.5 153.7
681(26) 0.001468 494.4 153.3
639(25) 0.001565 494.2 152.4
603(25) 0.001658 494.1 151.0
645(25) 0.001550 493.9 148.9
628(25) 0.001592 493.8 146.2
602(25) 0.001661 493.6 142.8
627(25) 0.001595 493.5 139.0
635(25) 0.001575 493.3 134.6
646(25) 0.001548 493.2 130.0
571(24) 0.001751 493.0 125.2
597(24) 0.001675 492.9 120.4
574(24) 0.001742 492.8 115.6
565(24) 0.001770 492.6 110.9
601(25) 0.001664 492.5 106.5
562(24) 0.001779 492.3 102.3
547(23) 0.001828 492.2 98.5
558(24) 0.001792 492.0 95.0
561(24) 0.001783 491.9 91.9
563(24) 0.001776 491.7 89.2
575(24) 0.001739 491.6 87.0
545(23) 0.001835 491.4 85.4
572(24) 0.001748 491.3 84.3
562(24) 0.001779 491.1 84.0
545(23) 0.001835 491.0 84.4
539(23) 0.001855 490.8 85.7
521(23) 0.001919 490.7 88.0
528(23) 0.001894 490.5 91.4
551(23) 0.001815 490.4 96.0
527(23) 0.001898 490.3 101.5
583(24) 0.001715 490.1 107.8
575(24) 0.001739 490.0 114.2
574(24) 0.001742 489.8 119.5
582(24) 0.001718 489.7 122.7
592(24) 0.001689 489.5 122.8
555(24) 0.001802 489.4 120.3
554(24) 0.001805 489.2 116.2
593(24) 0.001686 489.1 111.7
538(23) 0.001859 488.9 107.6
574(24) 0.001742 488.8 104.6
557(24) 0.001795 488.6 102.7
577(24) 0.001733 488.5 102.0
561(24) 0.001783 488.3 102.4
577(24) 0.001733 488.2 103.8
599(24) 0.001669 488.0 106.1
591(24) 0.001692 487.9 109.3
586(24) 0.001706 487.8 113.1
594(24) 0.001684 487.6 117.6
624(25) 0.001603 487.5 122.5
615(25) 0.001626 487.3 127.9
618(25) 0.001618 487.2 133.6
595(24) 0.001681 487.0 139.6
608(25) 0.001645 486.9 145.7
654(26) 0.001529 486.7 151.8
721(27) 0.001387 486.6 157.7
690(26) 0.001449 486.4 163.4
702(26) 0.001424 486.3 168.6
670(26) 0.001493 486.1 173.0
712(27) 0.001404 486.0 176.7
700(26) 0.001429 485.8 179.7
674(26) 0.001484 485.7 182.5
694(26) 0.001441 485.5 185.7
686(26) 0.001458 485.4 189.7
685(26) 0.001460 485.2 194.7
699(26) 0.001431 485.1 201.1
732(27) 0.001366 485.0 208.7
758(28) 0.001319 484.8 217.6
795(28) 0.001258 484.7 227.5
742(27) 0.001348 484.5 238.4
824(29) 0.001214 484.4 249.8
859(29) 0.001164 484.2 261.5
845(29) 0.001183 484.1 273.1
906(30) 0.001104 483.9 284.3
941(31) 0.001063 483.8 294.7
908(30) 0.001101 483.6 304.3
894(30) 0.001119 483.5 313.0
934(31) 0.001071 483.3 321.0
901(30) 0.001110 483.2 328.3
949(31) 0.001054 483.0 334.8
962(31) 0.001040 482.9 340.1
943(31) 0.001060 482.7 343.4
951(31) 0.001052 482.6 343.5
876(30) 0.001142 482.5 339.5
814(29) 0.001228 482.3 330.8
776(28) 0.001289 482.2 317.6
807(28) 0.001239 482.0 300.9
778(28) 0.001285 481.9 282.1
720(27) 0.001389 481.7 262.3
670(26) 0.001493 481.6 242.8
690(26) 0.001449 481.4 224.1
678(26) 0.001475 481.3 206.7
654(26) 0.001529 481.1 190.9
669(26) 0.001495 481.0 176.8
650(25) 0.001538 480.8 164.3
636(25) 0.001572 480.7 153.5
614(25) 0.001629 480.5 144.2
606(25) 0.001650 480.4 136.5
601(25) 0.001664 480.2 130.1
585(24) 0.001709 480.1 124.9
606(25) 0.001650 480.0 121.0
602(25) 0.001661 479.8 118.3
609(25) 0.001642 479.7 116.6
615(25) 0.001626 479.5 116.1
610(25) 0.001639 479.4 116.8
585(24) 0.001709 479.2 118.7
634(25) 0.001577 479.1 122.0
596(24) 0.001678 478.9 126.6
590(24) 0.001695 478.8 132.9
652(26) 0.001534 478.6 140.8
617(25) 0.001621 478.5 150.6
652(26) 0.001534 478.3 162.4
655(26) 0.001527 478.2 176.2
727(27) 0.001376 478.0 192.1
724(27) 0.001381 477.9 210.1
756(27) 0.001323 477.7 230.0
762(28) 0.001312 477.6 251.7
771(28) 0.001297 477.4 274.5
789(28) 0.001267 477.3 297.8
826(29) 0.001211 477.2 320.5
861(29) 0.001161 477.0 341.3
921(30) 0.001086 476.9 358.6
942(31) 0.001062 476.7 371.1
983(31) 0.001017 476.6 377.8
1014(32) 0.000986 476.4 378.2
1044(32) 0.000958 476.3 372.7
979(31) 0.001021 476.1 362.1
990(31) 0.001010 476.0 347.5
903(30) 0.001107 475.8 330.1
867(29) 0.001153 475.7 311.0
855(29) 0.001170 475.5 291.2
804(28) 0.001244 475.4 271.4
788(28) 0.001269 475.2 252.3
714(27) 0.001401 475.1 234.2
730(27) 0.001370 474.9 217.4
663(26) 0.001508 474.8 202.2
663(26) 0.001508 474.7 188.3
644(25) 0.001553 474.5 175.8
660(26) 0.001515 474.4 164.5
622(25) 0.001608 474.2 154.2
605(25) 0.001653 474.1 144.7
589(24) 0.001698 473.9 136.0
570(24) 0.001754 473.8 127.8
553(24) 0.001808 473.6 120.2
563(24) 0.001776 473.5 112.9
567(24) 0.001764 473.3 106.2
533(23) 0.001876 473.2 99.9
549(23) 0.001822 473.0 94.0
562(24) 0.001779 472.9 88.6
516(23) 0.001938 472.7 83.6
523(23) 0.001912 472.6 79.1
531(23) 0.001883 472.4 74.9
526(23) 0.001901 472.3 71.2
476(22) 0.002101 472.1 67.8
461(21) 0.002169 472.1 64.8
550(23) 0.001818 472.0 62.0
485(22) 0.002062 472.0 59.6
480(22) 0.002083 471.9 57.5
466(22) 0.002146 471.8 55.6
488(22) 0.002049 471.8 53.9
489(22) 0.002045 471.7 52.5
500(22) 0.002000 471.6 51.2
514(23) 0.001946 471.6 50.1
486(22) 0.002058 471.5 49.2
462(21) 0.002164 471.4 48.4
495(22) 0.002020 471.4 47.7
487(22) 0.002053 471.3 47.2
515(23) 0.001942 471.2 46.8
491(22) 0.002037 471.2 46.5
481(22) 0.002079 471.1 46.3
470(22) 0.002128 471.1 46.3
478(22) 0.002092 471.0 46.3
499(22) 0.002004 470.9 46.4
475(22) 0.002105 470.9 46.6
475(22) 0.002105 470.8 46.9
513(23) 0.001949 470.7 47.3
521(23) 0.001919 470.7 47.7
505(22) 0.001980 470.6 48.3
540(23) 0.001852 470.5 48.9
501(22) 0.001996 470.5 49.6
497(22) 0.002012 470.4 50.4
504(22) 0.001984 470.3 51.3
508(23) 0.001968 470.3 52.2
530(23) 0.001887 470.2 53.2
514(23) 0.001946 470.1 54.2
518(23) 0.001931 470.1 55.3
557(24) 0.001795 470.0 56.4
485(22) 0.002062 470.0 57.5
527(23) 0.001898 469.9 58.7
571(24) 0.001751 469.8 59.9
546(23) 0.001832 469.8 61.1
523(23) 0.001912 469.7 62.3
512(23) 0.001953 469.6 63.5
515(23) 0.001942 469.6 64.7
516(23) 0.001938 469.5 66.0
546(23) 0.001832 469.4 67.3
515(23) 0.001942 469.4 68.7
516(23) 0.001938 469.3 70.1
540(23) 0.001852 469.2 71.6
562(24) 0.001779 469.2 73.2
560(24) 0.001786 469.1 74.9
549(23) 0.001822 469.1 76.7
536(23) 0.001866 469.0 78.5
564(24) 0.001773 468.9 80.5
554(24) 0.001805 468.9 82.6
543(23) 0.001842 468.8 84.8
575(24) 0.001739 468.7 87.1
593(24) 0.001686 468.7 89.6
582(24) 0.001718 468.6 92.2
571(24) 0.001751 468.5 94.9
558(24) 0.001792 468.5 97.8
571(24) 0.001751 468.4 100.8
580(24) 0.001724 468.3 103.9
591(24) 0.001692 468.3 107.2
581(24) 0.001721 468.2 110.7
599(24) 0.001669 468.1 114.4
612(25) 0.001634 468.1 118.1
605(25) 0.001653 468.0 122.1
606(25) 0.001650 468.0 126.2
644(25) 0.001553 467.9 130.4
672(26) 0.001488 467.8 134.8
634(25) 0.001577 467.8 139.3
653(26) 0.001531 467.7 143.9
652(26) 0.001534 467.6 148.7
663(26) 0.001508 467.6 153.5
631(25) 0.001585 467.5 158.5
685(26) 0.001460 467.4 163.6
672(26) 0.001488 467.4 168.8
670(26) 0.001493 467.3 174.1
660(26) 0.001515 467.2 179.6
685(26) 0.001460 467.2 185.4
687(26) 0.001456 467.1 191.2
726(27) 0.001377 467.1 197.1
692(26) 0.001445 467.0 203.3
753(27) 0.001328 466.9 209.5
705(27) 0.001418 466.9 215.9
716(27) 0.001397 466.8 222.4
723(27) 0.001383 466.7 228.8
778(28) 0.001285 466.7 235.2
733(27) 0.001364 466.6 241.4
782(28) 0.001279 466.5 247.3
761(28) 0.001314 466.5 252.8
794(28) 0.001259 466.4 257.9
859(29) 0.001164 466.3 262.3
801(28) 0.001248 466.3 266.0
805(28) 0.001242 466.2 269.0
814(29) 0.001228 466.1 271.1
821(29) 0.001218 466.1 272.3
760(28) 0.001316 466.0 272.5
781(28) 0.001280 466.0 271.9
800(28) 0.001250 465.9 270.4
752(27) 0.001330 465.8 268.1
770(28) 0.001299 465.8 264.9
751(27) 0.001332 465.7 261.1
695(26) 0.001439 465.6 256.7
769(28) 0.001300 465.6 251.9
731(27) 0.001368 465.5 246.7
748(27) 0.001337 465.4 241.2
714(27) 0.001401 465.4 235.7
664(26) 0.001506 465.3 230.2
675(26) 0.001481 465.2 224.8
724(27) 0.001381 465.2 219.6
615(25) 0.001626 465.1 214.7
717(27) 0.001395 465.0 210.2
729(27) 0.001372 465.0 206.1
673(26) 0.001486 464.9 202.4
635(25) 0.001575 464.9 199.2
663(26) 0.001508 464.8 196.6
644(25) 0.001553 464.7 194.4
661(26) 0.001513 464.7 192.8
614(25) 0.001629 464.6 191.6
667(26) 0.001499 464.5 191.0
658(26) 0.001520 464.5 190.8
666(26) 0.001501 464.4 191.1
679(26) 0.001473 464.3 191.8
715(27) 0.001399 464.3 192.8
677(26) 0.001477 464.2 194.1
667(26) 0.001499 464.1 195.8
675(26) 0.001481 464.1 197.7
642(25) 0.001558 464.0 199.7
699(26) 0.001431 464.0 201.8
661(26) 0.001513 463.9 203.9
667(26) 0.001499 463.8 205.9
623(25) 0.001605 463.8 207.8
664(26) 0.001506 463.7 209.4
702(26) 0.001424 463.6 210.7
709(27) 0.001410 463.6 211.5
631(25) 0.001585 463.5 212.0
669(26) 0.001495 463.4 211.8
670(26) 0.001493 463.4 211.2
676(26) 0.001479 463.3 209.9
662(26) 0.001511 463.2 208.2
693(26) 0.001443 463.2 205.8
603(25) 0.001658 463.1 203.1
645(25) 0.001550 463.0 199.9
654(26) 0.001529 463.0 196.4
641(25) 0.001560 462.9 192.6
589(24) 0.001698 462.9 188.7
646(25) 0.001548 462.8 184.7
626(25) 0.001597 462.7 180.7
623(25) 0.001605 462.7 176.8
640(25) 0.001563 462.6 173.0
582(24) 0.001718 462.5 169.3
612(25) 0.001634 462.5 166.0
592(24) 0.001689 462.4 162.9
616(25) 0.001623 462.3 160.1
598(24) 0.001672 462.3 157.6
585(24) 0.001709 462.2 155.4
598(24) 0.001672 462.1 153.5
616(25) 0.001623 462.1 152.0
614(25) 0.001629 462.0 150.7
633(25) 0.001580 462.0 149.7
613(25) 0.001631 461.9 148.8
615(25) 0.001626 461.8 148.1
584(24) 0.001712 461.8 147.4
658(26) 0.001520 461.7 146.6
606(25) 0.001650 461.6 145.8
650(25) 0.001538 461.6 144.7
633(25) 0.001580 461.5 143.3
617(25) 0.001621 461.4 141.6
612(25) 0.001634 461.4 139.6
627(25) 0.001595 461.3 137.3
592(24) 0.001689 461.2 134.7
607(25) 0.001647 461.2 131.9
634(25) 0.001577 461.1 128.9
569(24) 0.001757 461.0 125.9
569(24) 0.001757 461.0 122.8
591(24) 0.001692 460.9 119.8
533(23) 0.001876 460.9 116.8
563(24) 0.001776 460.8 113.8
558(24) 0.001792 460.7 110.9
524(23) 0.001908 460.7 108.1
548(23) 0.001825 460.6 105.4
514(23) 0.001946 460.5 102.8
537(23) 0.001862 460.5 100.2
583(24) 0.001715 460.4 97.8
555(24) 0.001802 460.3 95.4
516(23) 0.001938 460.3 93.1
508(23) 0.001968 460.2 90.9
524(23) 0.001908 460.1 88.7
536(23) 0.001866 460.1 86.7
502(22) 0.001992 460.0 84.7
523(23) 0.001912 459.9 82.8
539(23) 0.001855 459.9 80.9
513(23) 0.001949 459.8 79.2
487(22) 0.002053 459.8 77.5
503(22) 0.001988 459.7 75.9
482(22) 0.002075 459.6 74.3
500(22) 0.002000 459.6 72.8
491(22) 0.002037 459.5 71.4
474(22) 0.002110 459.4 70.1
497(22) 0.002012 459.4 68.8
490(22) 0.002041 459.3 67.5
495(22) 0.002020 459.2 66.3
507(23) 0.001972 459.2 65.2
510(23) 0.001961 459.1 64.1
491(22) 0.002037 459.0 63.1
449(21) 0.002227 459.3 62.2
500(22) 0.002000 459.7 61.3
491(22) 0.002037 460.1 60.4
533(23) 0.001876 460.5 59.6
483(22) 0.002070 460.9 58.9
463(22) 0.002160 461.2 58.2
506(22) 0.001976 461.6 57.6
457(21) 0.002188 462.0 57.0
489(22) 0.002045 462.4 56.5
514(23) 0.001946 462.8 56.0
460(21) 0.002174 463.2 55.6
511(23) 0.001957 463.5 55.3
482(22) 0.002075 463.9 55.0
514(23) 0.001946 464.3 54.7
497(22) 0.002012 464.7 54.6
498(22) 0.002008 465.1 54.5
483(22) 0.002070 465.5 54.4
485(22) 0.002062 465.9 54.4
504(22) 0.001984 466.2 54.4
489(22) 0.002045 466.6 54.6
482(22) 0.002075 467.0 54.7
483(22) 0.002070 467.4 55.0
513(23) 0.001949 467.8 55.2
476(22) 0.002101 468.2 55.6
499(22) 0.002004 468.5 56.0
468(22) 0.002137 468.9 56.4
511(23) 0.001957 469.3 56.9
463(22) 0.002160 469.7 57.4
525(23) 0.001905 470.1 58.0
513(23) 0.001949 470.5 58.6
511(23) 0.001957 470.8 59.3
508(23) 0.001968 471.2 60.0
483(22) 0.002070 471.6 60.7
514(23) 0.001946 472.0 61.4
468(22) 0.002137 472.4 62.2
527(23) 0.001898 472.8 62.9
531(23) 0.001883 473.2 63.7
495(22) 0.002020 473.5 64.5
494(22) 0.002024 473.9 65.2
492(22) 0.002033 474.3 65.9
518(23) 0.001931 474.7 66.6
518(23) 0.001931 475.1 67.2
500(22) 0.002000 475.5 67.7
513(23) 0.001949 475.8 68.2
558(24) 0.001792 476.2 68.6
512(23) 0.001953 476.6 68.9
526(23) 0.001901 477.0 69.2
486(22) 0.002058 477.4 69.4
503(22) 0.001988 477.8 69.4
485(22) 0.002062 478.1 69.5
502(22) 0.001992 478.5 69.4
476(22) 0.002101 478.9 69.3
509(23) 0.001965 479.3 69.1
499(22) 0.002004 479.7 68.9
504(22) 0.001984 480.1 68.6
541(23) 0.001848 480.5 68.3
543(23) 0.001842 480.8 68.1
482(22) 0.002075 481.2 67.8
534(23) 0.001873 481.6 67.5
504(22) 0.001984 482.0 67.2
511(23) 0.001957 482.4 66.9
524(23) 0.001908 482.8 66.7
491(22) 0.002037 483.1 66.5
486(22) 0.002058 483.5 66.3
526(23) 0.001901 483.9 66.2
489(22) 0.002045 484.3 66.1
494(22) 0.002024 484.7 66.1
504(22) 0.001984 485.1 66.2
531(23) 0.001883 485.4 66.3
467(22) 0.002141 485.8 66.5
510(23) 0.001961 486.2 66.8
469(22) 0.002132 486.6 67.2
538(23) 0.001859 487.0 67.7
536(23) 0.001866 487.4 68.4
494(22) 0.002024 487.8 69.2
486(22) 0.002058 488.1 70.2
523(23) 0.001912 488.5 71.5
556(24) 0.001799 488.9 72.9
488(22) 0.002049 489.3 74.5
514(23) 0.001946 489.7 76.3
490(22) 0.002041 490.1 78.0
500(22) 0.002000 490.4 79.7
537(23) 0.001862 490.8 81.1
538(23) 0.001859 491.2 81.9
543(23) 0.001842 491.6 82.1
498(22) 0.002008 492.0 81.9
516(23) 0.001938 492.4 81.4
569(24) 0.001757 492.7 80.8
554(24) 0.001805 493.1 80.2
546(23) 0.001832 493.5 79.8
537(23) 0.001862 493.9 79.5
541(23) 0.001848 494.3 79.4
554(24) 0.001805 494.7 79.4
538(23) 0.001859 495.1 79.5
522(23) 0.001916 495.4 79.7
559(24) 0.001789 495.8 80.0
554(24) 0.001805 496.2 80.2
544(23) 0.001838 496.6 80.5
550(23) 0.001818 497.0 80.8
563(24) 0.001776 497.4 81.0
559(24) 0.001789 497.7 81.3
511(23) 0.001957 498.1 81.4
542(23) 0.001845 498.5 81.6
514(23) 0.001946 498.9 81.6
499(22) 0.002004 499.3 81.7
544(23) 0.001838 499.7 81.7
540(23) 0.001852 500.0 81.7
538(23) 0.001859 500.4 81.6
494(22) 0.002024 500.8 81.6
521(23) 0.001919 501.2 81.5
545(23) 0.001835 501.6 81.5
505(22) 0.001980 502.0 81.4
562(24) 0.001779 502.4 81.4
516(23) 0.001938 502.7 81.4
531(23) 0.001883 503.1 81.4
515(23) 0.001942 503.5 81.5
489(22) 0.002045 503.9 81.6
544(23) 0.001838 504.3 81.7
538(23) 0.001859 504.7 81.9
522(23) 0.001916 505.0 82.1
489(22) 0.002045 505.4 82.2
534(23) 0.001873 505.8 82.3
537(23) 0.001862 506.2 82.4
497(22) 0.002012 506.6 82.3
532(23) 0.001880 507.0 82.2
543(23) 0.001842 507.3 82.0
530(23) 0.001887 507.7 81.7
521(23) 0.001919 508.1 81.4
546(23) 0.001832 508.5 81.1
554(24) 0.001805 508.9 80.9
537(23) 0.001862 509.3 80.7
470(22) 0.002128 509.7 80.7
520(23) 0.001923 510.0 80.9
509(23) 0.001965 510.4 81.2
535(23) 0.001869 510.8 81.7
561(24) 0.001783 511.2 82.5
553(24) 0.001808 511.6 83.6
530(23) 0.001887 512.0 85.0
508(23) 0.001968 512.3 86.9
534(23) 0.001873 512.7 89.2
574(24) 0.001742 513.1 92.2
571(24) 0.001751 513.5 96.0
523(23) 0.001912 513.9 100.8
544(23) 0.001838 514.3 106.7
582(24) 0.001718 514.6 114.1
561(24) 0.001783 515.0 123.1
598(24) 0.001672 515.4 134.0
565(24) 0.001770 515.8 146.9
651(26) 0.001536 516.2 162.0
656(26) 0.001524 516.6 179.2
622(25) 0.001608 517.0 198.2
657(26) 0.001522 517.3 218.3
679(26) 0.001473 517.7 238.3
672(26) 0.001488 518.1 256.5
682(26) 0.001466 518.5 270.5
720(27) 0.001389 518.9 278.0
641(25) 0.001560 519.3 277.5
683(26) 0.001464 519.6 269.3
688(26) 0.001453 520.0 255.1
643(25) 0.001555 520.4 237.1
615(25) 0.001626 520.8 217.8
581(24) 0.001721 521.2 198.8
566(24) 0.001767 521.6 181.2
557(24) 0.001795 522.0 165.5
572(24) 0.001748 522.3 151.9
522(23) 0.001916 522.7 140.5
560(24) 0.001786 523.1 131.1
540(23) 0.001852 523.5 123.5
556(24) 0.001799 523.9 117.5
536(23) 0.001866 524.3 112.9
544(23) 0.001838 524.6 109.3
554(24) 0.001805 524.2 106.7
547(23) 0.001828 523.7 104.8
574(24) 0.001742 523.2 103.5
559(24) 0.001789 522.7 102.6
548(23) 0.001825 522.2 102.2
530(23) 0.001887 521.7 102.0
504(22) 0.001984 521.2 102.1
544(23) 0.001838 520.7 102.4
585(24) 0.001709 520.2 102.9
568(24) 0.001761 519.8 103.7
597(24) 0.001675 519.3 104.6
535(23) 0.001869 518.8 105.6
504(22) 0.001984 518.3 106.9
506(22) 0.001976 517.8 108.3
564(24) 0.001773 517.3 109.9
550(23) 0.001818 516.8 111.6
575(24) 0.001739 516.3 113.5
546(23) 0.001832 515.8 115.6
567(24) 0.001764 515.4 117.7
532(23) 0.001880 514.9 120.1
551(23) 0.001815 514.4 122.5
540(23) 0.001852 513.9 125.1
532(23) 0.001880 513.4 127.8
544(23) 0.001838 512.9 130.6
545(23) 0.001835 512.4 133.4
559(24) 0.001789 511.9 136.4
581(24) 0.001721 511.5 139.4
573(24) 0.001745 511.0 142.4
616(25) 0.001623 510.5 145.5
571(24) 0.001751 510.0 148.6
584(24) 0.001712 509.5 151.8
671(26) 0.001490 509.0 155.1
651(26) 0.001536 508.5 158.4
595(24) 0.001681 508.0 161.8
613(25) 0.001631 507.5 165.2
632(25) 0.001582 507.1 168.6
637(25) 0.001570 506.6 171.9
658(26) 0.001520 506.1 175.2
630(25) 0.001587 505.6 178.3
707(27) 0.001414 505.1 181.1
703(27) 0.001422 504.6 183.5
662(26) 0.001511 504.1 185.5
674(26) 0.001484 503.6 187.1
625(25) 0.001600 503.1 188.2
629(25) 0.001590 502.7 188.8
670(26) 0.001493 502.2 189.1
610(25) 0.001639 501.7 188.9
615(25) 0.001626 501.2 188.5
667(26) 0.001499 500.7 187.9
651(26) 0.001536 500.2 187.0
650(25) 0.001538 499.7 185.9
675(26) 0.001481 499.2 184.7
618(25) 0.001618 498.8 183.3
638(25) 0.001567 498.3 181.8
619(25) 0.001616 497.8 180.2
632(25) 0.001582 497.3 178.4
618(25) 0.001618 496.8 176.6
646(25) 0.001548 496.3 174.7
628(25) 0.001592 495.8 172.8
648(25) 0.001543 495.3 170.7
642(25) 0.001558 494.8 168.7
652(26) 0.001534 494.4 166.6
666(26) 0.001501 493.9 164.5
613(25) 0.001631 493.4 162.3
614(25) 0.001629 492.9 160.2
669(26) 0.001495 492.4 158.0
616(25) 0.001623 491.9 155.8
608(25) 0.001645 491.4 153.5
622(25) 0.001608 490.9 151.3
624(25) 0.001603 490.5 149.0
601(25) 0.001664 490.0 146.8
632(25) 0.001582 489.5 144.6
613(25) 0.001631 489.0 142.4
570(24) 0.001754 488.5 140.3
554(24) 0.001805 488.0 138.3
534(23) 0.001873 487.5 136.4
606(25) 0.001650 487.0 134.6
612(25) 0.001634 486.5 133.0
580(24) 0.001724 486.1 131.5
581(24) 0.001721 485.6 130.3
564(24) 0.001773 485.1 129.4
610(25) 0.001639 484.6 128.9
553(24) 0.001808 484.1 128.8
560(24) 0.001786 483.6 129.2
604(25) 0.001656 483.1 130.2
547(23) 0.001828 482.6 131.9
561(24) 0.001783 482.1 134.2
588(24) 0.001701 481.7 137.2
584(24) 0.001712 481.2 140.8
557(24) 0.001795 480.7 144.5
580(24) 0.001724 480.2 147.8
563(24) 0.001776 479.7 150.1
569(24) 0.001757 479.2 150.8
519(23) 0.001927 478.7 149.8
573(24) 0.001745 478.2 147.4
574(24) 0.001742 477.8 144.3
572(24) 0.001748 477.3 141.1
573(24) 0.001745 476.8 138.1
558(24) 0.001792 476.3 135.6
562(24) 0.001779 475.8 133.6
585(24) 0.001709 475.3 132.1
574(24) 0.001742 474.8 131.1
548(23) 0.001825 474.3 130.6
533(23) 0.001876 473.8 130.6
547(23) 0.001828 473.4 131.0
529(23) 0.001890 472.9 131.9
549(23) 0.001822 472.4 133.2
597(24) 0.001675 471.9 135.0
621(25) 0.001610 471.4 137.3
566(24) 0.001767 470.9 140.0
587(24) 0.001704 470.4 143.0
548(23) 0.001825 469.9 146.4
616(25) 0.001623 469.4 149.9
580(24) 0.001724 469.0 153.4
568(24) 0.001761 468.5 156.5
599(24) 0.001669 468.0 158.9
606(25) 0.001650 467.5 160.3
576(24) 0.001736 467.0 160.4
576(24) 0.001736 466.5 159.1
546(23) 0.001832 466.0 156.4
552(23) 0.001812 465.5 152.5
601(25) 0.001664 465.1 147.9
573(24) 0.001745 464.6 142.8
554(24) 0.001805 464.1 137.6
521(23) 0.001919 463.6 132.5
497(22) 0.002012 463.1 127.8
565(24) 0.001770 462.6 123.4
536(23) 0.001866 462.1 119.5
578(24) 0.001730 461.6 116.1
530(23) 0.001887 461.1 113.3
571(24) 0.001751 460.7 111.0
524(23) 0.001908 460.2 109.2
519(23) 0.001927 459.7 107.9
517(23) 0.001934 459.2 107.1
521(23) 0.001919 458.7 106.7
548(23) 0.001825 458.2 106.8
542(23) 0.001845 457.7 107.4
506(22) 0.001976 457.2 108.3
555(24) 0.001802 456.8 109.7
531(23) 0.001883 456.3 111.6
526(23) 0.001901 455.8 114.1
567(24) 0.001764 455.3 117.2
541(23) 0.001848 454.8 120.8
560(24) 0.001786 454.3 125.1
563(24) 0.001776 453.8 129.8
536(23) 0.001866 453.3 134.5
558(24) 0.001792 452.8 139.0
554(24) 0.001805 452.4 142.5
496(22) 0.002016 451.9 144.4
542(23) 0.001845 451.4 144.4
565(24) 0.001770 450.9 142.4
523(23) 0.001912 450.4 139.0
515(23) 0.001942 449.9 134.8
508(23) 0.001968 449.4 130.5
506(22) 0.001976 448.9 126.5
522(23) 0.001916 448.4 123.2
500(22) 0.002000 448.0 120.5
497(22) 0.002012 447.5 118.7
497(22) 0.002012 447.0 117.5
536(23) 0.001866 446.5 116.7
561(24) 0.001783 446.0 116.3
517(23) 0.001934 445.5 116.0
527(23) 0.001898 445.0 115.7
506(22) 0.001976 444.5 115.2
494(22) 0.002024 444.1 114.5
511(23) 0.001957 443.6 113.6
529(23) 0.001890 443.1 112.6
527(23) 0.001898 442.6 111.3
543(23) 0.001842 442.1 109.8
533(23) 0.001876 441.6 108.2
545(23) 0.001835 441.1 106.5
517(23) 0.001934 440.6 104.7
517(23) 0.001934 440.1 102.9
488(22) 0.002049 439.7 101.1
520(23) 0.001923 439.2 99.5
483(22) 0.002070 438.7 98.0
509(23) 0.001965 438.2 96.7
510(23) 0.001961 437.7 95.7
512(23) 0.001953 437.2 94.8
532(23) 0.001880 436.7 94.2
516(23) 0.001938 436.2 93.8
479(22) 0.002088 435.7 93.5
526(23) 0.001901 435.3 93.4
507(23) 0.001972 434.8 93.3
512(23) 0.001953 434.3 93.2
509(23) 0.001965 433.8 93.2
529(23) 0.001890 433.3 93.0
566(24) 0.001767 432.8 92.7
482(22) 0.002075 432.3 92.2
496(22) 0.002016 431.8 91.6
495(22) 0.002020 431.4 90.7
514(23) 0.001946 430.9 89.7
476(22) 0.002101 430.4 88.4
519(23) 0.001927 429.9 86.9
524(23) 0.001908 429.4 85.3
503(22) 0.001988 428.9 83.6
492(22) 0.002033 428.4 81.7
487(22) 0.002053 427.9 79.7
478(22) 0.002092 427.4 77.6
517(23) 0.001934 427.0 75.4
519(23) 0.001927 426.5 73.1
477(22) 0.002096 426.0 70.8
523(23) 0.001912 425.5 68.4
472(22) 0.002119 425.0 65.9
541(23) 0.001848 424.5 63.5
499(22) 0.002004 424.0 61.0
496(22) 0.002016 423.5 58.6
503(22) 0.001988 423.0 56.2
535(23) 0.001869 422.6 53.9
536(23) 0.001866 422.1 51.6
529(23) 0.001890 421.6 49.5
512(23) 0.001953 421.1 47.4
567(24) 0.001764 420.6 45.4
607(25) 0.001647 420.1 43.6
566(24) 0.001767 419.6 41.9
524(23) 0.001908 419.1 40.3
478(22) 0.002092 418.7 38.8
498(22) 0.002008 418.2 37.4
497(22) 0.002012 417.7 36.1
442(21) 0.002262 417.2 34.9
490(22) 0.002041 416.7 33.8
428(21) 0.002336 416.2 32.8
453(21) 0.002208 415.7 31.9
437(21) 0.002288 415.2 31.1
468(22) 0.002137 414.7 30.4
468(22) 0.002137 414.3 29.7
420(20) 0.002381 413.8 29.1
433(21) 0.002309 413.3 28.6
427(21) 0.002342 412.8 28.1
429(21) 0.002331 412.3 27.7
430(21) 0.002326 411.8 27.3
433(21) 0.002309 411.3 27.0
420(20) 0.002381 410.8 26.8
444(21) 0.002252 410.4 26.5
437(21) 0.002288 409.9 26.4
439(21) 0.002278 409.4 26.2
413(20) 0.002421 408.9 26.1
425(21) 0.002353 408.4 26.1
443(21) 0.002257 407.9 26.1
458(21) 0.002183 407.4 26.1
391(20) 0.002558 406.9 26.1
449(21) 0.002227 406.4 26.2
433(21) 0.002309 406.0 26.4
467(22) 0.002141 405.5 26.5
392(20) 0.002551 405.0 26.8
423(21) 0.002364 404.5 27.0
445(21) 0.002247 404.0 27.3
443(21) 0.002257 403.5 27.7
424(21) 0.002358 403.0 28.1
430(21) 0.002326 402.5 28.5
427(21) 0.002342 402.2 29.0
421(21) 0.002375 402.4 29.6
402(20) 0.002488 402.6 30.2
415(20) 0.002410 402.8 30.8
445(21) 0.002247 403.0 31.6
421(21) 0.002375 403.2 32.3
446(21) 0.002242 403.4 33.2
438(21) 0.002283 403.6 34.1
457(21) 0.002188 403.7 35.0
410(20) 0.002439 403.9 36.0
435(21) 0.002299 404.1 37.1
433(21) 0.002309 404.3 38.2
484(22) 0.002066 404.5 39.4
475(22) 0.002105 404.7 40.7
423(21) 0.002364 404.9 41.9
526(23) 0.001901 405.1 43.3
463(22) 0.002160 405.3 44.6
469(22) 0.002132 405.5 46.0
529(23) 0.001890 405.7 47.4
537(23) 0.001862 405.9 48.8
479(22) 0.002088 406.0 50.2
566(24) 0.001767 406.2 51.6
527(23) 0.001898 406.4 53.0
503(22) 0.001988 406.6 54.3
500(22) 0.002000 406.8 55.6
533(23) 0.001876 407.0 56.9
572(24) 0.001748 407.2 58.2
553(24) 0.001808 407.4 59.4
559(24) 0.001789 407.6 60.7
514(23) 0.001946 407.8 62.0
530(23) 0.001887 408.0 63.3
526(23) 0.001901 408.2 64.7
547(23) 0.001828 408.3 66.1
563(24) 0.001776 408.5 67.6
535(23) 0.001869 408.7 69.2
507(23) 0.001972 408.9 70.9
525(23) 0.001905 409.1 72.7
548(23) 0.001825 409.3 74.7
537(23) 0.001862 409.5 76.7
495(22) 0.002020 409.7 78.9
528(23) 0.001894 409.9 81.2
558(24) 0.001792 410.1 83.5
556(24) 0.001799 410.3 86.0
534(23) 0.001873 410.5 88.5
528(23) 0.001894 410.6 91.0
563(24) 0.001776 410.8 93.6
515(23) 0.001942 411.0 96.1
546(23) 0.001832 411.2 98.6
568(24) 0.001761 411.4 100.9
543(23) 0.001842 411.6 103.1
554(24) 0.001805 411.8 105.1
559(24) 0.001789 412.0 106.9
575(24) 0.001739 412.2 108.3
545(23) 0.001835 412.4 109.5
530(23) 0.001887 412.6 110.3
535(23) 0.001869 412.7 110.8
529(23) 0.001890 412.9 111.0
549(23) 0.001822 413.1 110.8
535(23) 0.001869 413.3 110.4
530(23) 0.001887 413.5 109.6
530(23) 0.001887 413.7 108.6
496(22) 0.002016 413.9 107.4
505(22) 0.001980 414.1 106.0
516(23) 0.001938 414.3 104.5
459(21) 0.002179 414.5 102.9
493(22) 0.002028 414.7 101.2
535(23) 0.001869 414.9 99.5
460(21) 0.002174 415.0 97.8
456(21) 0.002193 415.2 96.0
498(22) 0.002008 415.4 94.3
473(22) 0.002114 415.6 92.6
480(22) 0.002083 415.8 90.9
489(22) 0.002045 416.0 89.3
465(22) 0.002151 416.2 87.7
493(22) 0.002028 416.4 86.1
490(22) 0.002041 416.6 84.6
489(22) 0.002045 416.8 83.2
492(22) 0.002033 417.0 81.8
464(22) 0.002155 417.2 80.4
478(22) 0.002092 417.3 79.1
475(22) 0.002105 417.5 77.9
479(22) 0.002088 417.7 76.7
469(22) 0.002132 417.9 75.5
463(22) 0.002160 418.1 74.4
438(21) 0.002283 418.3 73.3
476(22) 0.002101 418.5 72.3
494(22) 0.002024 418.7 71.4
504(22) 0.001984 418.9 70.4
488(22) 0.002049 419.1 69.5
456(21) 0.002193 419.3 68.7
461(21) 0.002169 419.4 67.9
489(22) 0.002045 419.6 67.1
456(21) 0.002193 419.8 66.4
500(22) 0.002000 420.0 65.8
486(22) 0.002058 420.2 65.2
470(22) 0.002128 420.4 64.6
454(21) 0.002203 420.6 64.1
446(21) 0.002242 420.8 63.6
464(22) 0.002155 421.0 63.3
459(21) 0.002179 421.2 63.0
476(22) 0.002101 421.4 62.8
471(22) 0.002123 421.6 62.7
492(22) 0.002033 421.7 62.7
475(22) 0.002105 421.9 62.8
461(21) 0.002169 422.1 63.0
485(22) 0.002062 422.3 63.3
491(22) 0.002037 422.5 63.9
464(22) 0.002155 422.7 64.6
501(22) 0.001996 422.9 65.6
466(22) 0.002146 423.1 66.8
472(22) 0.002119 423.3 68.3
483(22) 0.002070 423.5 70.2
454(21) 0.002203 423.7 72.5
516(23) 0.001938 423.9 75.3
485(22) 0.002062 424.0 78.5
466(22) 0.002146 424.2 82.2
465(22) 0.002151 424.4 86.3
480(22) 0.002083 424.6 90.7
506(22) 0.001976 424.8 95.3
487(22) 0.002053 425.0 99.6
514(23) 0.001946 425.2 103.4
537(23) 0.001862 425.4 106.2
563(24) 0.001776 425.6 107.8
520(23) 0.001923 425.8 108.1
502(22) 0.001992 426.0 107.5
524(23) 0.001908 426.2 106.4
527(23) 0.001898 426.3 105.1
528(23) 0.001894 426.5 103.7
497(22) 0.002012 426.7 102.4
522(23) 0.001916 426.9 101.3
534(23) 0.001873 427.1 100.2
535(23) 0.001869 427.3 99.1
527(23) 0.001898 427.5 98.0
527(23) 0.001898 427.7 96.8
514(23) 0.001946 427.9 95.4
477(22) 0.002096 428.1 94.0
540(23) 0.001852 428.3 92.3
542(23) 0.001845 428.4 90.5
531(23) 0.001883 428.6 88.7
489(22) 0.002045 428.8 86.8
478(22) 0.002092 429.0 84.9
488(22) 0.002049 429.2 83.2
464(22) 0.002155 429.4 81.6
501(22) 0.001996 429.6 80.2
474(22) 0.002110 429.8 79.2
495(22) 0.002020 430.0 78.4
495(22) 0.002020 430.2 78.0
525(23) 0.001905 430.4 78.0
518(23) 0.001931 430.6 78.4
539(23) 0.001855 430.7 79.2
499(22) 0.002004 430.9 80.3
472(22) 0.002119 431.1 81.8
510(23) 0.001961 431.3 83.5
473(22) 0.002114 431.5 85.3
489(22) 0.002045 431.7 87.0
514(23) 0.001946 431.9 88.6
490(22) 0.002041 432.1 89.8
492(22) 0.002033 432.3 90.5
481(22) 0.002079 432.5 90.3
531(23) 0.001883 432.7 89.3
525(23) 0.001905 432.9 87.5
520(23) 0.001923 433.0 84.9
494(22) 0.002024 433.2 81.7
476(22) 0.002101 433.4 78.1
517(23) 0.001934 433.6 74.2
496(22) 0.002016 433.8 70.2
474(22) 0.002110 434.0 66.2
432(21) 0.002315 434.2 62.4
482(22) 0.002075 434.4 58.8
469(22) 0.002132 434.6 55.5
433(21) 0.002309 434.8 52.5
458(21) 0.002183 435.0 49.7
456(21) 0.002193 435.1 47.3
474(22) 0.002110 435.3 45.1
463(22) 0.002160 435.5 43.2
448(21) 0.002232 435.7 41.6
454(21) 0.002203 435.9 40.2
450(21) 0.002222 436.1 39.1
456(21) 0.002193 436.3 38.1
432(21) 0.002315 436.5 37.3
464(22) 0.002155 436.7 36.7
437(21) 0.002288 436.9 36.2
460(21) 0.002174 437.1 35.9
428(21) 0.002336 437.3 35.7
448(21) 0.002232 437.7 35.6
453(21) 0.002208 438.0 35.5
435(21) 0.002299 438.4 35.6
456(21) 0.002193 438.8 35.8
436(21) 0.002294 439.1 36.0
484(22) 0.002066 439.5 36.4
443(21) 0.002257 439.8 36.8
447(21) 0.002237 440.2 37.4
453(21) 0.002208 440.5 38.1
457(21) 0.002188 440.9 38.9
474(22) 0.002110 441.2 39.9
463(22) 0.002160 441.6 41.0
491(22) 0.002037 441.9 42.4
442(21) 0.002262 442.3 44.0
462(21) 0.002164 442.6 45.8
451(21) 0.002217 443.0 47.9
494(22) 0.002024 443.4 50.2
462(21) 0.002164 443.7 52.9
470(22) 0.002128 444.1 55.8
481(22) 0.002079 444.4 59.0
452(21) 0.002212 444.8 62.3
475(22) 0.002105 445.1 65.7
478(22) 0.002092 445.5 68.9
485(22) 0.002062 445.8 71.9
484(22) 0.002066 446.2 74.3
483(22) 0.002070 446.5 75.9
474(22) 0.002110 446.9 76.7
469(22) 0.002132 447.2 76.6
500(22) 0.002000 447.6 75.9
497(22) 0.002012 447.9 74.7
473(22) 0.002114 448.3 73.3
494(22) 0.002024 448.7 72.0
487(22) 0.002053 449.0 70.7
454(21) 0.002203 449.4 69.8
542(23) 0.001845 449.7 69.1
449(21) 0.002227 450.1 68.8
474(22) 0.002110 450.4 68.8
484(22) 0.002066 450.8 69.2
528(23) 0.001894 451.1 69.9
494(22) 0.002024 451.5 70.8
503(22) 0.001988 451.8 72.1
484(22) 0.002066 452.2 73.5
474(22) 0.002110 452.5 75.2
530(23) 0.001887 452.9 77.0
563(24) 0.001776 453.3 78.9
508(23) 0.001968 453.6 80.8
551(23) 0.001815 454.0 82.7
484(22) 0.002066 454.3 84.5
504(22) 0.001984 454.7 86.3
527(23) 0.001898 455.0 87.8
489(22) 0.002045 455.4 89.2
496(22) 0.002016 455.7 90.4
532(23) 0.001880 456.1 91.3
528(23) 0.001894 456.4 92.1
540(23) 0.001852 456.8 92.8
549(23) 0.001822 457.1 93.3
576(24) 0.001736 457.5 93.8
522(23) 0.001916 457.9 94.2
525(23) 0.001905 458.2 94.6
513(23) 0.001949 458.6 94.9
566(24) 0.001767 458.9 95.3
551(23) 0.001815 459.3 95.7
533(23) 0.001876 459.6 96.0
537(23) 0.001862 460.0 96.3
591(24) 0.001692 460.3 96.7
601(25) 0.001664 460.7 97.0
577(24) 0.001733 461.0 97.2
600(24) 0.001667 461.4 97.4
568(24) 0.001761 461.7 97.6
562(24) 0.001779 462.1 97.7
571(24) 0.001751 462.5 97.7
565(24) 0.001770 462.8 97.6
525(23) 0.001905 463.2 97.4
565(24) 0.001770 463.5 97.2
512(23) 0.001953 463.9 96.8
552(23) 0.001812 464.2 96.4
573(24) 0.001745 464.6 95.8
545(23) 0.001835 464.9 95.2
534(23) 0.001873 465.3 94.5
559(24) 0.001789 465.6 93.6
578(24) 0.001730 466.0 92.7
543(23) 0.001842 466.3 91.7
577(24) 0.001733 466.7 90.6
551(23) 0.001815 467.1 89.5
538(23) 0.001859 467.4 88.3
500(22) 0.002000 467.8 87.1
531(23) 0.001883 468.1 85.8
548(23) 0.001825 468.5 84.5
553(24) 0.001808 468.8 83.1
563(24) 0.001776 469.2 81.8
550(23) 0.001818 469.5 80.4
538(23) 0.001859 469.9 79.0
570(24) 0.001754 470.2 77.6
518(23) 0.001931 470.6 76.2
534(23) 0.001873 470.9 74.8
534(23) 0.001873 471.3 73.4
517(23) 0.001934 471.7 72.0
529(23) 0.001890 472.0 70.6
507(23) 0.001972 472.4 69.2
522(23) 0.001916 472.7 67.8
526(23) 0.001901 473.1 66.5
494(22) 0.002024 473.4 65.1
499(22) 0.002004 473.8 63.8
508(23) 0.001968 474.1 62.5
516(23) 0.001938 474.5 61.3
522(23) 0.001916 474.8 60.0
529(23) 0.001890 475.2 58.8
521(23) 0.001919 475.5 57.6
492(22) 0.002033 475.9 56.5
506(22) 0.001976 476.2 55.3
507(23) 0.001972 476.6 54.2
539(23) 0.001855 477.0 53.1
546(23) 0.001832 477.3 52.0
539(23) 0.001855 477.7 51.0
495(22) 0.002020 478.0 49.9
505(22) 0.001980 478.4 48.9
513(23) 0.001949 478.7 47.9
516(23) 0.001938 479.1 46.9
505(22) 0.001980 479.4 46.0
448(21) 0.002232 479.8 45.1
531(23) 0.001883 480.1 44.1
513(23) 0.001949 480.5 43.2
485(22) 0.002062 480.8 42.4
487(22) 0.002053 481.2 41.5
480(22) 0.002083 481.6 40.6
502(22) 0.001992 481.9 39.8
513(23) 0.001949 482.3 39.0
496(22) 0.002016 482.6 38.2
517(23) 0.001934 483.0 37.5
543(23) 0.001842 483.3 36.7
491(22) 0.002037 483.7 36.0
454(21) 0.002203 484.0 35.3
519(23) 0.001927 484.4 34.6
496(22) 0.002016 484.7 34.0
513(23) 0.001949 485.1 33.4
537(23) 0.001862 485.3 32.8
533(23) 0.001876 485.4 32.2
438(21) 0.002283 485.4 31.7
463(22) 0.002160 485.5 31.2
492(22) 0.002033 485.6 30.7
467(22) 0.002141 485.6 30.2
491(22) 0.002037 485.7 29.8
483(22) 0.002070 485.7 29.4
527(23) 0.001898 485.8 29.0
512(23) 0.001953 485.9 28.6
508(23) 0.001968 485.9 28.3
508(23) 0.001968 486.0 28.0
520(23) 0.001923 486.1 27.7
533(23) 0.001876 486.1 27.4
494(22) 0.002024 486.2 27.2
496(22) 0.002016 486.3 27.0
514(23) 0.001946 486.3 26.8
536(23) 0.001866 486.4 26.7
509(23) 0.001965 486.4 26.5
525(23) 0.001905 486.5 26.4
487(22) 0.002053 486.6 26.3
501(22) 0.001996 486.6 26.3
476(22) 0.002101 486.7 26.2
514(23) 0.001946 486.8 26.2
516(23) 0.001938 486.8 26.3
517(23) 0.001934 486.9 26.3
523(23) 0.001912 487.0 26.4
515(23) 0.001942 487.0 26.5
501(22) 0.001996 487.1 26.6
539(23) 0.001855 487.1 26.7
493(22) 0.002028 487.2 26.9
531(23) 0.001883 487.3 27.1
496(22) 0.002016 487.3 27.3
543(23) 0.001842 487.4 27.5
564(24) 0.001773 487.5 27.8
545(23) 0.001835 487.5 28.1
555(24) 0.001802 487.6 28.5
503(22) 0.001988 487.7 28.9
533(23) 0.001876 487.7 29.3
569(24) 0.001757 487.8 29.8
545(23) 0.001835 487.8 30.3
576(24) 0.001736 487.9 30.8
599(24) 0.001669 488.0 31.4
573(24) 0.001745 488.0 32.1
624(25) 0.0 0.0 .
614(25) 0.0 0.0 .
581(24) 0.0 0.0 .
550(23) 0.0 0.0 .
627(25) 0.0 0.0 .
634(25) 0.0 0.0 .
683(26) 0.0 0.0 .
615(25) 0.0 0.0 .
608(25) 0.0 0.0 .
652(26) 0.0 0.0 .
686(26) 0.0 0.0 .
684(26) 0.0 0.0 .
677(26) 0.0 0.0 .
695(26) 0.0 0.0 .
711(27) 0.0 0.0 .
732(27) 0.0 0.0 .
730(27) 0.0 0.0 .
745(27) 0.0 0.0 .
742(27) 0.0 0.0 .
764(28) 0.0 0.0 .
768(28) 0.0 0.0 .
792(28) 0.0 0.0 .
794(28) 0.0 0.0 .
814(29) 0.0 0.0 .
801(28) 0.0 0.0 .
831(29) 0.0 0.0 .
845(29) 0.0 0.0 .
917(30) 0.0 0.0 .
888(30) 0.0 0.0 .
909(30) 0.0 0.0 .
943(31) 0.0 0.0 .
995(32) 0.0 0.0 .
1047(32) 0.0 0.0 .
1092(33) 0.0 0.0 .
1155(34) 0.0 0.0 .
1100(33) 0.0 0.0 .
1232(35) 0.0 0. .
1270(36) 0.0 0. .
1316(36) 0.0 0. .
1416(38) 0.0 0. .
1451(38) 0.0 0. .
1620(40) 0.0 0. .
1635(40) 0.0 0. .
1732(42) 0.0 0. .
1875(43) 0.0 0. .
1984(45) 0.0 0. .
2267(48) 0.0 0. .
2340(48) 0.0 0. .
2660(52) 0.0 0. .
2870(54) 0.0 0. .
3170(56) 0.0 0. .
3626(60) 0.0 0. .
3925(63) 0.0 0. .
4515(67) 0.0 0. .
4989(71) 0.0 0. .
5786(76) 0.0 0. .
6562(81) 0.0 0. .
7544(87) 0.0 0. .
9069(95) 0.0 0. .
10850(100) 0.0 0. .
13300(120) 0.0 0. .
16440(130) 0.0 0. .
20310(140) 0.0 0. .
25730(160) 0.0 0. .
33110(180) 0.0 0. .
43390(210) 0.0 0. .
57680(240) 0.0 0. .
76340(280) 0.0 0. .
98040(310) 0.0 0. .
118110(340) 0.0 0. .
129650(360) 0.0 0. .
127930(360) 0.0 0. .
114190(340) 0.0 0. .
93670(310) 0.0 0. .
72260(270) 0.0 0. .
53750(230) 0.0 0. .
40610(200) 0.0 0. .
30330(170) 0.0 0. .
23400(150) 0.0 0. .
18240(140) 0.0 0. .
14380(120) 0.0 0. .
11660(110) 0.0 0. .
9798(99) 0.0 0. .
8086(90) 0.0 0. .
6985(84) 0.0 0. .
6082(78) 0.0 0. .
5267(73) 0.0 0. .
4635(68) 0.0 0. .
3971(63) 0.0 0. .
3709(61) 0.0 0. .
3235(57) 0.0 0. .
3008(55) 0.0 0. .
2577(51) 0.0 0. .
2407(49) 0.0 0. .
2151(46) 0.0 0. .
1999(45) 0.0 0. .
1903(44) 0.0 0. .
1787(42) 0.0 0. .
1683(41) 0.0 0. .
1601(40) 0.0 0. .
1535(39) 0.0 0. .
1470(38) 0.0 0. .
1324(36) 0.0 0. .
1242(35) 0.0 0. .
1252(35) 0.0 0. .
1175(34) 0.0 0.0 .
1162(34) 0.0 0.0 .
1087(33) 0.0 0.0 .
1053(32) 0.0 0.0 .
1013(32) 0.0 0.0 .
1048(32) 0.0 0.0 .
1001(32) 0.0 0.0 .
1035(32) 0.0 0.0 .
929(30) 0.0 0.0 .
883(30) 0.0 0.0 .
925(30) 0.0 0.0 .
853(29) 0.0 0.0 .
877(30) 0.0 0.0 .
839(29) 0.0 0.0 .
806(28) 0.0 0.0 .
805(28) 0.0 0.0 .
799(28) 0.0 0.0 .
778(28) 0.0 0.0 .
776(28) 0.0 0.0 .
791(28) 0.0 0.0 .
775(28) 0.0 0.0 .
759(28) 0.0 0.0 .
760(28) 0.0 0.0 .
744(27) 0.0 0.0 .
742(27) 0.0 0.0 .
705(27) 0.0 0.0 .
695(26) 0.0 0.0 .
678(26) 0.0 0.0 .
708(27) 0.0 0.0 .
722(27) 0.0 0.0 .
731(27) 0.0 0.0 .
687(26) 0.0 0.0 .
666(26) 0.0 0.0 .
712(27) 0.0 0.0 .
670(26) 0.0 0.0 .
699(26) 0.0 0.0 .
684(26) 0.0 0.0 .
658(26) 0.0 0.0 .
666(26) 0.0 0.0 .
613(25) 0.0 0.0 .
641(25) 0.001560 497.3 85.9
622(25) 0.001608 497.4 85.8
685(26) 0.001460 497.4 85.8
666(26) 0.001501 497.5 85.9
590(24) 0.001695 497.6 86.1
596(24) 0.001678 497.6 86.4
622(25) 0.001608 497.7 86.8
647(25) 0.001546 497.8 87.4
587(24) 0.001704 497.8 88.0
622(25) 0.001608 497.9 88.9
565(24) 0.001770 497.9 89.9
604(25) 0.001656 498.0 91.0
606(25) 0.001650 498.1 92.4
604(25) 0.001656 498.1 94.0
566(24) 0.001767 498.2 95.8
583(24) 0.001715 498.3 97.9
528(23) 0.001894 498.3 100.2
598(24) 0.001672 498.4 102.9
639(25) 0.001565 498.5 105.9
589(24) 0.001698 498.5 109.3
586(24) 0.001706 498.6 113.0
603(25) 0.001658 498.6 117.1
620(25) 0.001613 498.7 121.6
570(24) 0.001754 498.8 126.3
589(24) 0.001698 498.8 131.3
556(24) 0.001799 498.9 136.4
588(24) 0.001701 499.0 141.5
593(24) 0.001686 499.0 146.3
609(25) 0.001642 499.1 150.4
624(25) 0.001603 499.2 153.5
616(25) 0.001623 499.2 155.0
591(24) 0.001692 499.3 154.4
580(24) 0.001724 499.3 151.7
578(24) 0.001730 499.4 147.0
583(24) 0.001715 499.5 140.7
541(23) 0.001848 499.5 133.5
533(23) 0.001876 499.6 126.0
543(23) 0.001842 499.7 118.6
606(25) 0.001650 499.7 111.5
524(23) 0.001908 499.8 105.1
541(23) 0.001848 499.9 99.3
565(24) 0.001770 499.9 94.3
512(23) 0.001953 500.0 89.9
540(23) 0.001852 500.0 86.3
531(23) 0.001883 500.1 83.2
546(23) 0.001832 500.2 80.8
533(23) 0.001876 500.2 78.8
568(24) 0.001761 500.3 77.3
525(23) 0.001905 500.4 76.2
531(23) 0.001883 500.4 75.4
543(23) 0.001842 500.5 74.9
505(22) 0.001980 500.1 74.7
473(22) 0.002114 499.2 74.7
502(22) 0.001992 498.2 74.9
475(22) 0.002105 497.3 75.4
527(23) 0.001898 496.4 76.0
525(23) 0.001905 495.5 76.7
544(23) 0.001838 494.6 77.5
522(23) 0.001916 493.7 78.4
494(22) 0.002024 492.8 79.4
497(22) 0.002012 491.9 80.4
558(24) 0.001792 491.0 81.5
534(23) 0.001873 490.1 82.7
539(23) 0.001855 489.1 84.2
535(23) 0.001869 488.2 85.8
532(23) 0.001880 487.3 87.8
546(23) 0.001832 486.4 90.1
528(23) 0.001894 485.5 92.8
542(23) 0.001845 484.6 95.9
511(23) 0.001957 483.7 99.3
556(24) 0.001799 482.8 103.0
551(23) 0.001815 481.9 106.9
557(24) 0.001795 481.0 111.0
525(23) 0.001905 480.0 115.1
530(23) 0.001887 479.1 119.0
575(24) 0.001739 478.2 122.6
582(24) 0.001718 477.3 125.7
573(24) 0.001745 476.4 128.0
585(24) 0.001709 475.5 129.4
575(24) 0.001739 474.6 129.8
584(24) 0.001712 473.7 129.0
567(24) 0.001764 472.8 127.2
554(24) 0.001805 471.9 124.4
584(24) 0.001712 470.9 120.7
534(23) 0.001873 470.0 116.5
545(23) 0.001835 469.1 111.8
552(23) 0.001812 468.2 106.8
524(23) 0.001908 467.3 101.8
525(23) 0.001905 466.4 96.8
517(23) 0.001934 465.5 91.9
517(23) 0.001934 464.6 87.3
516(23) 0.001938 463.7 82.9
497(22) 0.002012 462.8 78.8
524(23) 0.001908 461.8 75.1
479(22) 0.002088 460.9 71.7
476(22) 0.002101 460.0 68.7
493(22) 0.002028 459.1 66.1
454(21) 0.002203 458.2 63.8
427(21) 0.002342 457.3 61.8
482(22) 0.002075 456.4 60.2
475(22) 0.002105 455.5 59.0
452(21) 0.002212 454.6 58.1
486(22) 0.002058 453.7 57.5
449(21) 0.002227 452.7 57.3
460(21) 0.002174 451.8 57.3
502(22) 0.001992 450.9 57.6
468(22) 0.002137 450.0 58.2
463(22) 0.002160 449.1 59.1
472(22) 0.002119 448.2 60.2
529(23) 0.001890 447.3 61.4
497(22) 0.002012 446.4 62.9
435(21) 0.002299 445.5 64.4
484(22) 0.002066 444.6 66.0
468(22) 0.002137 443.6 67.6
437(21) 0.002288 442.7 69.2
475(22) 0.002105 441.8 70.5
483(22) 0.002070 440.9 71.6
473(22) 0.002114 440.0 72.4
508(23) 0.001968 439.1 72.8
484(22) 0.002066 438.2 72.8
503(22) 0.001988 437.3 72.5
500(22) 0.002000 436.4 71.7
481(22) 0.002079 435.5 70.7
505(22) 0.001980 434.5 69.4
501(22) 0.001996 433.6 68.0
440(21) 0.002273 432.7 66.4
430(21) 0.002326 431.8 64.8
474(22) 0.002110 430.9 63.1
461(21) 0.002169 430.0 61.5
469(22) 0.002132 429.1 59.9
456(21) 0.002193 428.2 58.3
459(21) 0.002179 427.3 56.7
457(21) 0.002188 426.4 55.2
454(21) 0.002203 425.4 53.7
472(22) 0.002119 424.5 52.3
475(22) 0.002105 423.6 51.0
451(21) 0.002217 422.7 49.7
465(22) 0.002151 421.8 48.5
459(21) 0.002179 420.9 47.4
463(22) 0.002160 420.0 46.3
457(21) 0.002188 419.1 45.3
443(21) 0.002257 418.2 44.3
434(21) 0.002304 417.3 43.5
450(21) 0.002222 416.3 42.7
383(20) 0.002611 415.4 41.9
432(21) 0.002315 414.5 41.1
408(20) 0.002451 413.6 40.4
438(21) 0.002283 412.7 39.7
442(21) 0.002262 411.8 39.1
420(20) 0.002381 410.9 38.5
447(21) 0.002237 410.0 37.9
432(21) 0.002315 409.1 37.3
441(21) 0.002268 408.2 36.7
449(21) 0.002227 407.2 36.2
420(20) 0.002381 406.3 35.7
454(21) 0.002203 405.4 35.2
437(21) 0.002288 404.5 34.8
433(21) 0.002309 403.6 34.5
411(20) 0.002433 402.7 34.1
424(21) 0.002358 401.8 33.8
411(20) 0.002433 400.9 33.6
470(22) 0.002128 400.0 33.4
402(20) 0.002488 399.1 33.2
443(21) 0.002257 398.1 33.1
389(20) 0.002571 397.2 33.0
418(20) 0.002392 396.3 33.0
384(20) 0.002604 395.4 33.0
421(21) 0.002375 394.5 33.1
442(21) 0.002262 393.6 33.2
399(20) 0.002506 392.7 33.3
446(21) 0.002242 392.0 33.5
426(21) 0.002347 391.9 33.7
443(21) 0.002257 391.8 34.0
390(20) 0.002564 391.8 34.3
422(21) 0.002370 391.7 34.7
429(21) 0.002331 391.6 35.1
403(20) 0.002481 391.6 35.6
423(21) 0.002364 391.5 36.1
412(20) 0.002427 391.4 36.6
437(21) 0.002288 391.4 37.2
445(21) 0.002247 391.3 37.9
421(21) 0.002375 391.2 38.6
405(20) 0.002469 391.2 39.3
433(21) 0.002309 391.1 40.1
460(21) 0.002174 391.0 40.9
435(21) 0.002299 391.0 41.9
404(20) 0.002475 390.9 42.9
463(22) 0.002160 390.8 44.0
431(21) 0.002320 390.8 45.3
409(20) 0.002445 390.7 46.8
425(21) 0.002353 390.6 48.6
444(21) 0.002252 390.6 50.6
460(21) 0.002174 390.5 53.0
456(21) 0.002193 390.4 55.7
456(21) 0.002193 390.3 58.9
474(22) 0.002110 390.3 62.5
465(22) 0.002151 390.2 66.6
472(22) 0.002119 390.1 71.3
472(22) 0.002119 390.1 76.5
482(22) 0.002075 390.0 82.2
492(22) 0.002033 389.9 88.4
490(22) 0.002041 389.9 95.0
512(23) 0.001953 389.8 102.0
575(24) 0.001739 389.7 109.0
560(24) 0.001786 389.7 115.9
579(24) 0.001727 389.6 122.3
588(24) 0.001701 389.5 127.9
573(24) 0.001745 389.5 132.3
560(24) 0.001786 389.4 135.0
551(23) 0.001815 389.3 135.9
523(23) 0.001912 389.3 134.9
543(23) 0.001842 389.2 132.1
502(22) 0.001992 389.1 128.0
529(23) 0.001890 389.1 122.8
476(22) 0.002101 389.0 117.0
506(22) 0.001976 388.9 111.0
489(22) 0.002045 388.8 105.0
490(22) 0.002041 388.8 99.2
454(21) 0.002203 388.7 93.8
445(21) 0.002247 388.6 88.9
465(22) 0.002151 388.6 84.6
482(22) 0.002075 388.5 80.8
475(22) 0.002105 388.4 77.6
484(22) 0.002066 388.4 74.9
484(22) 0.002066 388.3 72.7
464(22) 0.002155 388.2 71.0
499(22) 0.002004 388.2 69.7
455(21) 0.002198 388.1 68.7
492(22) 0.002033 388.0 68.0
500(22) 0.002000 388.0 67.7
486(22) 0.002058 387.9 67.5
504(22) 0.001984 387.8 67.5
515(23) 0.001942 387.8 67.7
526(23) 0.001901 387.7 68.1
494(22) 0.002024 387.6 68.6
511(23) 0.001957 387.6 69.3
477(22) 0.002096 387.5 70.0
518(23) 0.001931 387.4 70.9
495(22) 0.002020 387.4 71.9
508(23) 0.001968 387.3 72.9
507(23) 0.001972 387.2 74.0
517(23) 0.001934 387.1 75.2
535(23) 0.001869 387.1 76.4
524(23) 0.001908 387.0 77.6
528(23) 0.001894 386.9 78.9
551(23) 0.001815 386.9 80.2
492(22) 0.002033 386.8 81.6
539(23) 0.001855 386.7 82.9
518(23) 0.001931 386.7 84.2
523(23) 0.001912 386.6 85.6
562(24) 0.001779 386.5 86.9
526(23) 0.001901 386.5 88.2
532(23) 0.001880 386.4 89.6
552(23) 0.001812 386.3 91.0
530(23) 0.001887 386.3 92.4
558(24) 0.001792 386.2 93.8
530(23) 0.001887 386.1 95.3
553(24) 0.001808 386.1 96.9
515(23) 0.001942 386.0 98.5
500(22) 0.002000 385.9 100.3
540(23) 0.001852 385.9 102.2
549(23) 0.001822 385.8 104.3
524(23) 0.001908 385.7 106.5
527(23) 0.001898 385.6 108.9
508(23) 0.001968 385.6 111.4
515(23) 0.001942 385.5 114.0
572(24) 0.001748 385.4 116.7
533(23) 0.001876 385.4 119.4
545(23) 0.001835 385.3 121.9
539(23) 0.001855 385.2 124.2
540(23) 0.001852 385.2 126.2
544(23) 0.001838 385.1 127.7
560(24) 0.001786 385.0 128.7
567(24) 0.001764 385.0 129.2
556(24) 0.001799 384.9 129.2
597(24) 0.001675 384.8 128.6
559(24) 0.001789 384.8 127.7
560(24) 0.001786 384.7 126.5
551(23) 0.001815 384.6 125.2
581(24) 0.001721 384.6 123.8
537(23) 0.001862 384.5 122.5
573(24) 0.001745 384.4 121.4
578(24) 0.001730 384.4 120.6
544(23) 0.001838 384.3 120.1
534(23) 0.001873 384.2 119.9
547(23) 0.001828 384.2 120.2
523(23) 0.001912 384.1 120.9
549(23) 0.001822 384.0 122.0
556(24) 0.001799 383.9 123.6
524(23) 0.001908 383.9 125.7
547(23) 0.001828 383.8 128.2
556(24) 0.001799 383.7 131.1
523(23) 0.001912 383.7 134.4
599(24) 0.001669 383.6 138.0
579(24) 0.001727 383.5 141.9
573(24) 0.001745 383.5 145.9
569(24) 0.001757 383.4 150.1
610(25) 0.001639 383.3 154.2
601(25) 0.001664 383.3 158.3
620(25) 0.001613 383.2 162.0
604(25) 0.001656 383.1 165.4
618(25) 0.001618 383.1 168.4
601(25) 0.001664 383.0 170.7
599(24) 0.001669 382.9 172.4
645(25) 0.001550 382.9 173.4
623(25) 0.001605 382.8 173.7
601(25) 0.001664 382.7 173.4
560(24) 0.001786 382.7 172.5
606(25) 0.001650 382.6 171.1
544(23) 0.001838 382.5 169.4
586(24) 0.001706 382.4 167.6
600(24) 0.001667 382.4 165.6
610(25) 0.001639 382.3 163.7
579(24) 0.001727 382.2 161.9
582(24) 0.001718 382.2 160.2
593(24) 0.001686 382.1 158.7
578(24) 0.001730 382.0 157.3
592(24) 0.001689 382.0 156.2
602(25) 0.001661 381.9 155.2
586(24) 0.001706 381.8 154.4
633(25) 0.001580 381.8 153.6
575(24) 0.001739 381.7 152.8
539(23) 0.001855 381.6 151.9
596(24) 0.001678 381.6 151.0
610(25) 0.001639 381.5 149.8
623(25) 0.001605 381.4 148.3
603(25) 0.001658 381.4 146.6
617(25) 0.001621 381.3 144.6
633(25) 0.001580 381.2 142.3
633(25) 0.001580 381.2 139.8
644(25) 0.001553 381.1 137.2
594(24) 0.001684 381.0 134.5
630(25) 0.001587 380.9 131.7
589(24) 0.001698 380.9 129.0
614(25) 0.001629 380.8 126.4
592(24) 0.001689 380.7 123.9
584(24) 0.001712 380.7 121.6
595(24) 0.001681 380.6 119.4
610(25) 0.001639 380.5 117.4
571(24) 0.001751 380.5 115.7
579(24) 0.001727 380.4 114.1
587(24) 0.001704 380.3 112.8
601(25) 0.001664 380.3 111.7
549(23) 0.001822 380.2 110.7
590(24) 0.001695 380.1 109.9
564(24) 0.001773 380.1 109.2
585(24) 0.001709 380.0 108.6
579(24) 0.001727 379.9 108.2
601(25) 0.001664 379.9 107.8
571(24) 0.001751 379.8 107.6
560(24) 0.001786 379.7 107.5
590(24) 0.001695 379.7 107.5
589(24) 0.001698 379.6 107.6
578(24) 0.001730 379.5 107.7
614(25) 0.001629 379.5 107.8
614(25) 0.001629 379.4 107.8
592(24) 0.001689 379.3 107.7
663(26) 0.001508 379.2 107.6
711(27) 0.0 0.0 .
709(27) 0.0 0.0 .
684(26) 0.0 0.0 .
724(27) 0.0 0.0 .
723(27) 0.0 0.0 .
753(27) 0.0 0.0 .
768(28) 0.0 0.0 .
763(28) 0.0 0.0 .
833(29) 0.0 0.0 .
819(29) 0.0 0.0 .
871(30) 0.0 0.0 .
933(31) 0.0 0.0 .
984(31) 0.0 0.0 .
1049(32) 0.0 0.0 .
1172(34) 0.0 0.0 .
1234(35) 0.0 0. .
1450(38) 0.0 0. .
1593(40) 0.0 0. .
1733(42) 0.0 0. .
2101(46) 0.0 0. .
2494(50) 0.0 0. .
3007(55) 0.0 0. .
3590(60) 0.0 0. .
4635(68) 0.0 0. .
5670(75) 0.0 0. .
7341(86) 0.0 0. .
9586(98) 0.0 0. .
12260(110) 0.0 0. .
14770(120) 0.0 0. .
16490(130) 0.0 0. .
16230(130) 0.0 0. .
14740(120) 0.0 0. .
12130(110) 0.0 0. .
9654(98) 0.0 0. .
7340(86) 0.0 0. .
5630(75) 0.0 0. .
4391(66) 0.0 0. .
3646(60) 0.0 0. .
3017(55) 0.0 0. .
2499(50) 0.0 0. .
2085(46) 0.0 0. .
1731(42) 0.0 0. .
1518(39) 0.0 0. .
1326(36) 0.0 0. .
1234(35) 0.0 0. .
1123(34) 0.0 0.0 .
975(31) 0.0 0.0 .
959(31) 0.0 0.0 .
832(29) 0.0 0.0 .
789(28) 0.0 0.0 .
778(28) 0.0 0.0 .
708(27) 0.0 0.0 .
668(26) 0.0 0.0 .
637(25) 0.0 0.0 .
604(25) 0.0 0.0 .
639(25) 0.0 0.0 .
559(24) 0.0 0.0 .
599(24) 0.0 0.0 .
608(25) 0.0 0.0 .
586(24) 0.0 0.0 .
600(24) 0.0 0.0 .
568(24) 0.0 0.0 .
565(24) 0.0 0.0 .
568(24) 0.0 0.0 .
572(24) 0.0 0.0 .
553(24) 0.0 0.0 .
506(22) 0.0 0.0 .
507(23) 0.0 0.0 .
530(23) 0.0 0.0 .
537(23) 0.0 0.0 .
519(23) 0.0 0.0 .
542(23) 0.0 0.0 .
518(23) 0.0 0.0 .
518(23) 0.001931 374.2 80.1
513(23) 0.001949 374.1 81.1
507(23) 0.001972 374.1 82.1
531(23) 0.001883 374.0 83.1
495(22) 0.002020 373.9 84.0
489(22) 0.002045 373.9 84.8
486(22) 0.002058 373.8 85.5
531(23) 0.001883 373.7 86.1
512(23) 0.001953 373.7 86.6
521(23) 0.001919 373.6 86.9
498(22) 0.002008 373.5 87.1
527(23) 0.001898 373.5 87.2
500(22) 0.002000 373.4 87.1
484(22) 0.002066 373.3 86.9
469(22) 0.002132 373.3 86.6
521(23) 0.001919 373.2 86.1
460(21) 0.002174 373.1 85.6
517(23) 0.001934 373.0 85.0
477(22) 0.002096 373.0 84.3
535(23) 0.001869 372.9 83.6
477(22) 0.002096 372.8 82.8
487(22) 0.002053 372.8 82.0
481(22) 0.002079 372.7 81.2
465(22) 0.002151 372.6 80.4
483(22) 0.002070 372.6 79.6
431(21) 0.002320 372.5 78.9
483(22) 0.002070 372.4 78.1
495(22) 0.002020 372.4 77.5
437(21) 0.002288 372.3 76.8
451(21) 0.002217 372.2 76.2
439(21) 0.002278 372.2 75.6
426(21) 0.002347 372.1 75.1
431(21) 0.002320 372.0 74.6
488(22) 0.002049 372.0 74.1
465(22) 0.002151 371.9 73.7
446(21) 0.002242 371.8 73.2
450(21) 0.002222 371.8 72.8
462(21) 0.002164 371.7 72.3
457(21) 0.002188 371.6 71.8
471(22) 0.002123 371.6 71.3
479(22) 0.002088 371.5 70.8
472(22) 0.002119 371.4 70.3
471(22) 0.002123 371.3 69.7
485(22) 0.002062 371.3 69.1
480(22) 0.002083 371.2 68.6
499(22) 0.002004 371.1 68.0
477(22) 0.002096 371.1 67.4
448(21) 0.002232 371.0 66.9
475(22) 0.002105 370.9 66.4
490(22) 0.002041 370.9 65.9
440(21) 0.002273 370.8 65.6
465(22) 0.002151 370.7 65.2
462(21) 0.002164 370.7 65.0
471(22) 0.002123 370.6 64.9
453(21) 0.002208 370.5 64.8
461(21) 0.002169 370.5 64.9
423(21) 0.002364 370.4 65.1
451(21) 0.002217 370.3 65.4
429(21) 0.002331 370.3 65.8
473(22) 0.002114 370.2 66.4
428(21) 0.002336 370.1 67.1
442(21) 0.002262 370.1 67.9
463(22) 0.002160 370.0 68.9
449(21) 0.002227 369.9 70.1
422(21) 0.002370 369.8 71.4
425(21) 0.002353 369.8 72.9
450(21) 0.002222 369.7 74.5
426(21) 0.002347 369.6 76.3
482(22) 0.002075 369.6 78.3
476(22) 0.002101 369.5 80.4
425(21) 0.002353 369.4 82.7
424(21) 0.002358 369.4 85.2
456(21) 0.002193 369.3 87.8
473(22) 0.002114 369.2 90.5
471(22) 0.002123 369.2 93.4
495(22) 0.002020 369.1 96.4
480(22) 0.002083 369.0 99.4
504(22) 0.001984 369.0 102.5
450(21) 0.002222 368.9 105.7
495(22) 0.002020 368.8 108.8
499(22) 0.002004 368.8 111.8
472(22) 0.002119 368.7 114.8
496(22) 0.002016 368.6 117.5
563(24) 0.001776 368.6 120.1
519(23) 0.001927 368.5 122.4
535(23) 0.001869 368.4 124.5
482(22) 0.002075 368.3 126.2
545(23) 0.001835 368.3 127.5
526(23) 0.001901 368.2 128.5
550(23) 0.001818 368.1 129.2
546(23) 0.001832 368.1 129.6
507(23) 0.001972 368.0 129.7
536(23) 0.001866 367.9 129.5
521(23) 0.001919 367.9 129.2
523(23) 0.001912 367.8 128.7
545(23) 0.001835 367.7 128.1
531(23) 0.001883 367.7 127.3
543(23) 0.001842 367.6 126.5
500(22) 0.002000 367.5 125.7
555(24) 0.001802 367.5 124.8
516(23) 0.001938 367.4 123.9
537(23) 0.001862 367.3 122.9
513(23) 0.001949 367.3 121.9
485(22) 0.002062 367.2 120.8
503(22) 0.001988 367.1 119.7
522(23) 0.001916 367.1 118.5
516(23) 0.001938 367.0 117.2
534(23) 0.001873 366.9 115.8
513(23) 0.001949 366.9 114.3
509(23) 0.001965 366.8 112.7
475(22) 0.002105 366.7 111.0
520(23) 0.001923 366.6 109.3
472(22) 0.002119 366.6 107.6
489(22) 0.002045 366.5 105.8
448(21) 0.002232 366.4 104.0
477(22) 0.002096 366.4 102.3
482(22) 0.002075 366.3 100.7
481(22) 0.002079 366.2 99.1
483(22) 0.002070 366.2 97.7
486(22) 0.002058 366.1 96.5
468(22) 0.002137 366.0 95.5
490(22) 0.002041 366.0 94.8
489(22) 0.002045 365.9 94.4
426(21) 0.002347 365.8 94.4
457(21) 0.002188 365.8 94.8
486(22) 0.002058 365.7 95.7
483(22) 0.002070 365.6 97.1
466(22) 0.002146 365.6 99.0
516(23) 0.001938 365.5 101.7
495(22) 0.002020 365.4 105.0
516(23) 0.001938 365.4 109.1
477(22) 0.002096 365.3 113.9
477(22) 0.002096 365.2 119.4
505(22) 0.001980 365.1 125.7
485(22) 0.002062 365.1 132.5
548(23) 0.001825 365.0 139.9
545(23) 0.001835 364.9 147.5
545(23) 0.001835 364.9 155.2
493(22) 0.002028 364.8 162.5
540(23) 0.001852 364.7 169.1
546(23) 0.001832 364.7 174.4
501(22) 0.001996 364.6 178.0
517(23) 0.001934 364.5 179.5
503(22) 0.001988 364.5 178.6
494(22) 0.002024 364.4 175.1
484(22) 0.002066 364.3 169.5
460(21) 0.002174 364.3 162.1
465(22) 0.002151 364.2 153.6
499(22) 0.002004 364.1 144.5
491(22) 0.002037 364.1 135.3
477(22) 0.002096 364.0 126.3
471(22) 0.002123 363.9 117.9
439(21) 0.002278 363.9 110.0
470(22) 0.002128 363.8 102.9
452(21) 0.002212 363.7 96.5
470(22) 0.002128 363.6 90.8
440(21) 0.002273 363.6 85.9
439(21) 0.002278 363.5 81.5
433(21) 0.002309 363.4 77.8
406(20) 0.002463 363.4 74.6
423(21) 0.002364 363.3 71.8
437(21) 0.002288 363.2 69.5
415(20) 0.002410 363.2 67.5
434(21) 0.002304 363.1 65.8
433(21) 0.002309 363.0 64.4
430(21) 0.002326 363.0 63.2
424(21) 0.002358 362.9 62.2
426(21) 0.002347 362.8 61.4
484(22) 0.002066 362.8 60.7
426(21) 0.002347 362.7 60.3
397(20) 0.002519 362.6 59.9
416(20) 0.002404 362.6 59.8
442(21) 0.002262 362.5 59.8
426(21) 0.002347 362.4 59.9
421(21) 0.002375 362.4 60.2
440(21) 0.002273 362.3 60.7
415(20) 0.002410 362.2 61.4
453(21) 0.002208 362.2 62.3
435(21) 0.002299 362.1 63.4
454(21) 0.002203 362.0 64.7
462(21) 0.002164 361.9 66.2
444(21) 0.002252 361.9 68.0
454(21) 0.002203 361.8 70.0
447(21) 0.002237 361.7 72.2
415(20) 0.002410 361.7 74.7
434(21) 0.002304 361.6 77.5
438(21) 0.002283 361.5 80.5
472(22) 0.002119 361.5 83.8
476(22) 0.002101 361.4 87.3
456(21) 0.002193 361.3 91.1
448(21) 0.002232 361.3 95.0
468(22) 0.002137 361.2 99.1
482(22) 0.002075 361.1 103.4
514(23) 0.001946 361.1 107.7
493(22) 0.002028 361.0 112.0
484(22) 0.002066 360.9 116.2
486(22) 0.002058 360.9 120.2
505(22) 0.001980 360.8 123.9
495(22) 0.002020 360.7 127.1
502(22) 0.001992 360.7 129.8
525(23) 0.001905 360.6 131.9
493(22) 0.002028 360.5 133.2
525(23) 0.001905 360.4 133.8
503(22) 0.001988 360.4 133.6
531(23) 0.001883 360.3 132.7
515(23) 0.001942 360.2 131.0
497(22) 0.002012 360.2 128.5
507(23) 0.001972 360.1 125.5
496(22) 0.002016 360.0 121.8
527(23) 0.001898 360.0 117.7
477(22) 0.002096 359.9 113.1
487(22) 0.002053 359.8 108.2
497(22) 0.002012 359.8 103.2
453(21) 0.002208 359.7 98.1
434(21) 0.002304 359.6 92.9
438(21) 0.002283 359.6 87.9
420(20) 0.002381 359.5 83.0
408(20) 0.002451 359.4 78.3
420(20) 0.002381 359.4 73.8
441(21) 0.002268 359.3 69.6
448(21) 0.002232 359.2 65.6
425(21) 0.002353 359.2 62.0
422(21) 0.002370 359.1 58.6
389(20) 0.002571 359.0 55.5
394(20) 0.002538 359.0 52.7
422(21) 0.002370 358.9 50.1
373(19) 0.002681 358.8 47.8
392(20) 0.002551 358.7 45.7
396(20) 0.002525 358.7 43.8
402(20) 0.002488 358.6 42.1
401(20) 0.002494 358.5 40.6
377(19) 0.002653 358.5 39.2
380(19) 0.002632 358.4 38.1
398(20) 0.002513 358.3 37.0
405(20) 0.002469 358.3 36.1
419(20) 0.002387 358.2 35.3
376(19) 0.002660 358.1 34.6
363(19) 0.002755 358.1 34.0
372(19) 0.002688 358.0 33.4
404(20) 0.002475 357.9 33.0
369(19) 0.002710 357.9 32.6
380(19) 0.002632 357.8 32.3
413(20) 0.002421 357.7 32.1
393(20) 0.002545 357.7 31.9
401(20) 0.002494 357.6 31.8
385(20) 0.002597 357.5 31.8
354(19) 0.002825 357.5 31.8
364(19) 0.002747 357.4 31.9
383(20) 0.002611 357.3 32.1
364(19) 0.002747 357.2 32.4
425(21) 0.002353 357.2 32.7
391(20) 0.002558 357.1 33.0
365(19) 0.002740 357.0 33.5
387(20) 0.002584 357.0 34.0
363(19) 0.002755 356.9 34.6
349(19) 0.002865 356.9 35.3
372(19) 0.002688 357.0 36.0
402(20) 0.002488 357.1 36.9
387(20) 0.002584 357.2 37.8
381(20) 0.002625 357.3 38.8
362(19) 0.002762 357.3 39.8
389(20) 0.002571 357.4 40.9
387(20) 0.002584 357.5 42.0
420(20) 0.002381 357.6 43.2
370(19) 0.002703 357.7 44.4
394(20) 0.002538 357.7 45.7
372(19) 0.002688 357.8 46.8
367(19) 0.002725 357.9 48.0
415(20) 0.002410 358.0 49.0
378(19) 0.002646 358.1 50.0
376(19) 0.002660 358.1 50.8
400(20) 0.002500 358.2 51.5
404(20) 0.002475 358.3 52.0
378(19) 0.002646 358.4 52.4
405(20) 0.002469 358.4 52.6
417(20) 0.002398 358.5 52.7
426(21) 0.002347 358.6 52.6
401(20) 0.002494 358.7 52.5
383(20) 0.002611 358.8 52.3
395(20) 0.002532 358.8 52.0
410(20) 0.002439 358.9 51.7
348(19) 0.002874 359.0 51.3
382(20) 0.002618 359.1 51.0
350(19) 0.002857 359.2 50.6
369(19) 0.002710 359.2 50.2
375(19) 0.002667 359.3 49.8
399(20) 0.002506 359.4 49.4
395(20) 0.002532 359.5 49.0
391(20) 0.002558 359.6 48.6
384(20) 0.002604 359.6 48.3
379(19) 0.002639 359.7 48.0
400(20) 0.002500 359.8 47.7
408(20) 0.002451 359.9 47.5
394(20) 0.002538 359.9 47.4
391(20) 0.002558 360.0 47.3
421(21) 0.002375 360.1 47.4
390(20) 0.002564 360.2 47.5
385(20) 0.002597 360.3 47.7
412(20) 0.002427 360.3 48.0
363(19) 0.002755 360.4 48.3
384(20) 0.002604 360.5 48.7
374(19) 0.002674 360.6 49.2
385(20) 0.002597 360.7 49.8
376(19) 0.002660 360.7 50.4
417(20) 0.002398 360.8 51.1
392(20) 0.002551 360.9 51.8
408(20) 0.002451 361.0 52.6
399(20) 0.002506 361.0 53.4
391(20) 0.002558 361.1 54.3
395(20) 0.002532 361.2 55.2
410(20) 0.002439 361.3 56.2
392(20) 0.002551 361.4 57.2
356(19) 0.002809 361.4 58.2
401(20) 0.002494 361.5 59.2
414(20) 0.002415 361.6 60.3
397(20) 0.002519 361.7 61.3
394(20) 0.002538 361.8 62.4
396(20) 0.002525 361.8 63.5
412(20) 0.002427 361.9 64.6
409(20) 0.002445 362.0 65.6
433(21) 0.002309 362.1 66.7
415(20) 0.002410 362.2 67.8
418(20) 0.002392 362.2 68.8
441(21) 0.002268 362.3 69.9
400(20) 0.002500 362.4 70.9
431(21) 0.002320 362.5 71.9
419(20) 0.002387 362.5 72.9
420(20) 0.002381 362.6 73.9
441(21) 0.002268 362.7 74.8
415(20) 0.002410 362.8 75.7
405(20) 0.002469 362.9 76.7
457(21) 0.002188 362.9 77.6
442(21) 0.002262 363.0 78.5
419(20) 0.002387 363.1 79.4
443(21) 0.002257 363.2 80.3
431(21) 0.002320 363.3 81.2
426(21) 0.002347 363.3 82.1
451(21) 0.002217 363.4 83.1
448(21) 0.002232 363.5 84.0
451(21) 0.002217 363.6 85.0
439(21) 0.002278 363.6 86.0
458(21) 0.002183 363.7 87.0
435(21) 0.002299 363.8 88.0
432(21) 0.002315 363.9 89.0
432(21) 0.002315 364.0 89.9
403(20) 0.002481 364.0 90.8
419(20) 0.002387 364.1 91.5
432(21) 0.002315 364.2 92.1
437(21) 0.002288 364.3 92.6
449(21) 0.002227 364.4 92.8
436(21) 0.002294 364.4 92.7
426(21) 0.002347 364.5 92.4
429(21) 0.002331 364.6 91.7
443(21) 0.002257 364.7 90.8
414(20) 0.002415 364.8 89.7
401(20) 0.002494 364.8 88.3
419(20) 0.002387 364.9 86.7
446(21) 0.002242 365.0 84.9
405(20) 0.002469 365.1 83.1
427(21) 0.002342 365.1 81.2
449(21) 0.002227 365.2 79.3
403(20) 0.002481 365.3 77.4
404(20) 0.002475 365.4 75.6
441(21) 0.002268 365.5 73.7
445(21) 0.002247 365.5 72.0
439(21) 0.002278 365.6 70.3
430(21) 0.002326 365.7 68.7
438(21) 0.002283 365.8 67.2
401(20) 0.002494 365.9 65.8
432(21) 0.002315 365.9 64.5
409(20) 0.002445 366.0 63.3
397(20) 0.002519 366.1 62.3
388(20) 0.002577 366.2 61.3
420(20) 0.002381 366.2 60.4
421(21) 0.002375 366.3 59.6
398(20) 0.002513 366.4 59.0
368(19) 0.002717 366.5 58.4
433(21) 0.002309 366.6 57.9
410(20) 0.002439 366.6 57.5
386(20) 0.002591 366.7 57.2
391(20) 0.002558 366.8 57.0
396(20) 0.002525 366.9 56.9
391(20) 0.002558 367.0 56.8
412(20) 0.002427 367.0 56.8
405(20) 0.002469 367.1 57.0
384(20) 0.002604 367.2 57.2
412(20) 0.002427 367.3 57.4
386(20) 0.002591 367.4 57.7
394(20) 0.002538 367.4 58.1
446(21) 0.002242 367.5 58.6
470(22) 0.002128 367.6 59.1
406(20) 0.002463 367.7 59.7
414(20) 0.002415 367.7 60.4
396(20) 0.002525 367.8 61.1
402(20) 0.002488 367.9 61.8
403(20) 0.002481 368.0 62.6
377(19) 0.002653 368.1 63.4
415(20) 0.002410 368.1 64.2
444(21) 0.002252 368.2 65.0
408(20) 0.002451 368.3 65.9
400(20) 0.002500 368.4 66.7
414(20) 0.002415 368.5 67.6
435(21) 0.002299 368.5 68.4
413(20) 0.002421 368.6 69.2
422(21) 0.002370 368.7 69.9
432(21) 0.002315 368.8 70.5
454(21) 0.002203 368.9 71.1
425(21) 0.002353 368.9 71.6
442(21) 0.002262 369.0 71.9
409(20) 0.002445 369.1 72.2
439(21) 0.002278 369.2 72.3
446(21) 0.002242 369.2 72.3
417(20) 0.002398 369.3 72.1
407(20) 0.002457 369.4 71.8
454(21) 0.002203 369.5 71.4
452(21) 0.002212 369.6 70.8
417(20) 0.002398 369.6 70.1
441(21) 0.002268 369.7 69.3
420(20) 0.002381 369.8 68.4
437(21) 0.002288 369.9 67.4
432(21) 0.002315 370.0 66.3
410(20) 0.002439 370.0 65.2
421(21) 0.002375 370.1 64.0
391(20) 0.002558 370.2 62.7
398(20) 0.002513 370.3 61.5
418(20) 0.002392 370.3 60.2
415(20) 0.002410 370.4 58.9
427(21) 0.002342 370.5 57.7
422(21) 0.002370 370.6 56.4
386(20) 0.002591 370.7 55.2
386(20) 0.002591 370.7 54.0
369(19) 0.002710 370.8 52.9
373(19) 0.002681 370.9 51.8
408(20) 0.002451 371.0 50.7
391(20) 0.002558 371.1 49.7
402(20) 0.002488 371.1 48.7
411(20) 0.002433 371.2 47.7
422(21) 0.002370 371.3 46.8
420(20) 0.002381 371.4 46.0
387(20) 0.002584 371.5 45.2
384(20) 0.002604 371.5 44.5
366(19) 0.002732 371.6 43.8
370(19) 0.002703 371.7 43.1
383(20) 0.002611 371.8 42.6
380(19) 0.002632 371.8 42.0
396(20) 0.002525 371.9 41.5
393(20) 0.002545 372.0 41.1
388(20) 0.002577 372.1 40.7
393(20) 0.002545 372.2 40.3
381(20) 0.002625 372.2 40.0
406(20) 0.002463 372.3 39.8
404(20) 0.002475 372.4 39.5
379(19) 0.002639 372.5 39.3
372(19) 0.002688 372.6 39.2
378(19) 0.002646 372.6 39.1
408(20) 0.002451 372.7 39.0
389(20) 0.002571 372.8 39.0
355(19) 0.002817 372.9 39.0
357(19) 0.002801 373.0 39.0
375(19) 0.002667 373.1 39.0
384(20) 0.002604 373.3 39.1
393(20) 0.002545 373.4 39.1
381(20) 0.002625 373.5 39.2
399(20) 0.002506 373.6 39.3
346(19) 0.002890 373.8 39.5
419(20) 0.002387 373.9 39.6
418(20) 0.002392 374.0 39.7
380(19) 0.002632 374.1 39.9
401(20) 0.002494 374.3 40.0
410(20) 0.002439 374.4 40.2
420(20) 0.002381 374.5 40.3
379(19) 0.002639 374.6 40.5
381(20) 0.002625 374.7 40.7
418(20) 0.002392 374.9 40.8
404(20) 0.002475 375.0 41.0
371(19) 0.002695 375.1 41.1
431(21) 0.002320 375.2 41.3
380(19) 0.002632 375.4 41.5
383(20) 0.002611 375.5 41.6
399(20) 0.002506 375.6 41.8
363(19) 0.002755 375.7 42.0
375(19) 0.002667 375.9 42.1
377(19) 0.002653 376.0 42.3
405(20) 0.002469 376.1 42.5
424(21) 0.002358 376.2 42.7
400(20) 0.002500 376.4 42.9
382(20) 0.002618 376.5 43.2
412(20) 0.002427 376.6 43.4
414(20) 0.002415 376.7 43.6
392(20) 0.002551 376.9 43.9
365(19) 0.002740 377.0 44.1
370(19) 0.002703 377.1 44.3
412(20) 0.002427 377.2 44.6
369(19) 0.002710 377.4 44.8
403(20) 0.002481 377.5 45.0
394(20) 0.002538 377.6 45.3
412(20) 0.002427 377.7 45.5
394(20) 0.002538 377.9 45.7
403(20) 0.002481 378.0 45.9
390(20) 0.002564 378.1 46.0
399(20) 0.002506 378.2 46.2
399(20) 0.002506 378.4 46.3
406(20) 0.002463 378.5 46.4
417(20) 0.002398 378.6 46.4
386(20) 0.002591 378.7 46.5
387(20) 0.002584 378.9 46.6
424(21) 0.002358 379.0 46.6
386(20) 0.002591 379.1 46.7
423(21) 0.002364 379.2 46.8
373(19) 0.002681 379.4 46.9
395(20) 0.002532 379.5 47.0
412(20) 0.002427 379.6 47.2
397(20) 0.002519 379.7 47.3
411(20) 0.002433 379.9 47.5
403(20) 0.002481 380.0 47.7
396(20) 0.002525 380.1 47.9
410(20) 0.002439 380.2 48.1
389(20) 0.002571 380.3 48.4
388(20) 0.002577 380.5 48.6
349(19) 0.002865 380.6 48.9
364(19) 0.002747 380.7 49.2
409(20) 0.002445 380.8 49.5
390(20) 0.002564 381.0 49.9
380(19) 0.002632 381.1 50.2
413(20) 0.002421 381.2 50.6
394(20) 0.002538 381.3 51.0
409(20) 0.002445 381.5 51.5
395(20) 0.002532 381.6 51.9
392(20) 0.002551 381.7 52.5
388(20) 0.002577 381.8 53.0
396(20) 0.002525 382.0 53.6
374(19) 0.002674 382.1 54.2
374(19) 0.002674 382.2 54.8
437(21) 0.002288 382.3 55.5
441(21) 0.002268 382.5 56.2
411(20) 0.002433 382.6 56.9
423(21) 0.002364 382.7 57.7
418(20) 0.002392 382.8 58.6
389(20) 0.002571 383.0 59.5
423(21) 0.002364 383.1 60.4
408(20) 0.002451 383.2 61.4
423(21) 0.002364 383.3 62.5
414(20) 0.002415 383.5 63.6
388(20) 0.002577 383.6 64.9
430(21) 0.002326 383.7 66.3
424(21) 0.002358 383.8 67.7
426(21) 0.002347 384.0 69.3
436(21) 0.002294 384.1 71.1
417(20) 0.002398 384.2 73.0
391(20) 0.002558 384.3 75.0
469(22) 0.002132 384.5 77.1
439(21) 0.002278 384.6 79.4
442(21) 0.002262 384.7 81.7
434(21) 0.002304 384.8 84.2
458(21) 0.002183 385.0 86.6
402(20) 0.002488 385.1 89.0
470(22) 0.002128 385.2 91.2
468(22) 0.002137 385.3 93.1
474(22) 0.002110 385.5 94.7
455(21) 0.002198 385.6 95.7
462(21) 0.002164 385.7 96.1
462(21) 0.002164 385.8 95.8
493(22) 0.002028 385.9 94.9
468(22) 0.002137 386.1 93.4
451(21) 0.002217 386.2 91.4
457(21) 0.002188 386.3 89.2
442(21) 0.002262 386.4 86.7
470(22) 0.002128 386.6 84.1
418(20) 0.002392 386.7 81.6
448(21) 0.002232 386.8 79.0
414(20) 0.002415 386.9 76.6
441(21) 0.002268 387.1 74.3
428(21) 0.002336 387.2 72.1
431(21) 0.002320 387.3 70.1
411(20) 0.002433 387.4 68.2
431(21) 0.002320 387.6 66.4
410(20) 0.002439 387.7 64.8
416(20) 0.002404 387.8 63.4
458(21) 0.002183 387.9 62.0
395(20) 0.002532 388.1 60.9
414(20) 0.002415 388.2 59.8
428(21) 0.002336 388.3 58.9
393(20) 0.002545 388.4 58.0
407(20) 0.002457 388.6 57.3
437(21) 0.002288 388.7 56.7
423(21) 0.002364 388.8 56.2
412(20) 0.002427 388.9 55.8
404(20) 0.002475 389.1 55.5
390(20) 0.002564 389.2 55.4
414(20) 0.002415 389.3 55.4
370(19) 0.002703 389.4 55.5
444(21) 0.002252 389.6 55.8
413(20) 0.002421 389.7 56.3
437(21) 0.002288 389.8 56.9
422(21) 0.002370 389.9 57.8
425(21) 0.002353 390.1 58.9
394(20) 0.002538 390.2 60.3
401(20) 0.002494 390.3 62.0
405(20) 0.002469 390.4 64.0
441(21) 0.002268 390.6 66.2
436(21) 0.002294 390.7 68.8
410(20) 0.002439 390.8 71.7
440(21) 0.002273 390.9 74.7
438(21) 0.002283 391.1 78.0
445(21) 0.002247 391.2 81.4
454(21) 0.002203 391.3 84.8
464(22) 0.002155 391.4 87.9
431(21) 0.002320 391.5 90.5
453(21) 0.002208 391.7 92.4
475(22) 0.002105 391.8 93.4
451(21) 0.002217 391.9 93.5
478(22) 0.002092 392.0 92.6
467(22) 0.002141 392.2 91.0
477(22) 0.002096 392.3 88.8
466(22) 0.002146 392.4 86.2
454(21) 0.002203 392.5 83.5
471(22) 0.002123 392.7 80.9
432(21) 0.002315 392.8 78.3
440(21) 0.002273 392.9 76.0
468(22) 0.002137 393.0 73.9
427(21) 0.002342 393.2 72.1
448(21) 0.002232 393.3 70.5
448(21) 0.002232 393.4 69.2
458(21) 0.002183 393.5 68.0
425(21) 0.002353 393.7 66.9
431(21) 0.002320 393.8 66.0
437(21) 0.002288 393.9 65.1
441(21) 0.002268 394.0 64.1
444(21) 0.002252 394.2 63.2
397(20) 0.002519 394.3 62.2
427(21) 0.002342 394.4 61.2
437(21) 0.002288 394.5 60.2
416(20) 0.002404 394.7 59.2
424(21) 0.002358 394.8 58.2
434(21) 0.002304 394.9 57.2
404(20) 0.002475 395.0 56.3
394(20) 0.002538 395.2 55.4
382(20) 0.002618 395.1 54.5
397(20) 0.002519 395.1 53.7
409(20) 0.002445 395.0 53.0
398(20) 0.002513 395.0 52.3
415(20) 0.002410 394.9 51.7
435(21) 0.002299 394.9 51.1
423(21) 0.002364 394.8 50.6
418(20) 0.002392 394.8 50.1
396(20) 0.002525 394.7 49.7
441(21) 0.002268 394.7 49.4
414(20) 0.002415 394.6 49.1
374(19) 0.002674 394.6 49.0
415(20) 0.002410 394.5 48.9
420(20) 0.002381 394.4 48.9
425(21) 0.002353 394.4 49.0
406(20) 0.002463 394.3 49.2
424(21) 0.002358 394.3 49.6
399(20) 0.002506 394.2 50.1
448(21) 0.002232 394.2 50.8
436(21) 0.002294 394.1 51.6
439(21) 0.002278 394.1 52.7
447(21) 0.002237 394.0 54.1
418(20) 0.002392 394.0 55.7
468(22) 0.002137 393.9 57.7
440(21) 0.002273 393.9 60.0
426(21) 0.002347 393.8 62.8
425(21) 0.002353 393.7 66.1
432(21) 0.002315 393.7 69.8
479(22) 0.002088 393.6 74.2
434(21) 0.002304 393.6 79.1
485(22) 0.002062 393.5 84.6
458(21) 0.002183 393.5 90.7
455(21) 0.002198 393.4 97.2
476(22) 0.002101 393.4 104.2
444(21) 0.002252 393.3 111.3
481(22) 0.002079 393.3 118.2
477(22) 0.002096 393.2 124.5
475(22) 0.002105 393.2 129.5
538(23) 0.001859 393.1 132.8
469(22) 0.002132 393.0 133.8
459(21) 0.002179 393.0 132.5
503(22) 0.001988 392.9 129.0
507(23) 0.001972 392.9 124.0
442(21) 0.002262 392.8 117.8
478(22) 0.002092 392.8 111.2
416(20) 0.002404 392.7 104.3
442(21) 0.002262 392.7 97.7
414(20) 0.002415 392.6 91.5
413(20) 0.002421 392.6 85.8
430(21) 0.002326 392.5 80.9
416(20) 0.002404 392.5 76.6
404(20) 0.002475 392.4 72.9
432(21) 0.002315 392.3 69.8
446(21) 0.002242 392.3 67.1
440(21) 0.002273 392.2 64.8
407(20) 0.002457 392.2 62.6
408(20) 0.002451 392.1 60.6
405(20) 0.002469 392.1 58.6
406(20) 0.002463 392.0 56.7
366(19) 0.002732 391.9 55.0
428(21) 0.002336 391.8 53.4
409(20) 0.002445 391.6 52.0
387(20) 0.002584 391.4 50.9
407(20) 0.002457 391.3 49.9
392(20) 0.002551 391.1 49.1
417(20) 0.002398 390.9 48.5
396(20) 0.002525 390.8 48.0
419(20) 0.002387 390.6 47.7
434(21) 0.002304 390.4 47.4
398(20) 0.002513 390.3 47.1
425(21) 0.002353 390.1 46.9
444(21) 0.002252 389.9 46.8
390(20) 0.002564 389.8 46.6
428(21) 0.002336 389.6 46.6
426(21) 0.002347 389.4 46.5
380(19) 0.002632 389.3 46.5
403(20) 0.002481 389.1 46.6
417(20) 0.002398 388.9 46.6
439(21) 0.002278 388.8 46.7
419(20) 0.002387 388.6 46.8
439(21) 0.002278 388.4 46.8
445(21) 0.002247 388.3 46.9
434(21) 0.002304 388.1 47.1
447(21) 0.002237 387.9 47.4
409(20) 0.002445 387.8 47.9
456(21) 0.002193 387.6 48.6
409(20) 0.002445 387.4 49.6
418(20) 0.002392 387.3 51.0
407(20) 0.002457 387.1 52.8
427(21) 0.002342 387.0 55.1
433(21) 0.002309 386.8 57.9
431(21) 0.002320 386.6 61.2
432(21) 0.002315 386.5 64.9
422(21) 0.002370 386.3 69.1
419(20) 0.002387 386.1 73.5
452(21) 0.002212 386.0 77.9
469(22) 0.002132 385.8 81.9
461(21) 0.002169 385.6 85.0
505(22) 0.001980 385.5 86.7
430(21) 0.002326 385.3 87.0
435(21) 0.002299 385.1 85.7
494(22) 0.002024 385.0 83.4
511(23) 0.001957 384.8 80.3
480(22) 0.002083 384.6 77.0
775(28) 0.001290 384.5 73.9
435(21) 0.002299 384.3 71.0
481(22) 0.002079 384.1 68.6
460(21) 0.002174 384.0 66.6
498(22) 0.002008 383.8 65.0
428(21) 0.002336 383.6 63.6
433(21) 0.002309 383.5 62.5
449(21) 0.002227 383.3 61.5
409(20) 0.002445 383.1 60.6
445(21) 0.002247 383.0 59.6
424(21) 0.002358 382.8 58.5
426(21) 0.002347 382.7 57.5
430(21) 0.002326 382.5 56.5
440(21) 0.002273 382.3 55.5
402(20) 0.002488 382.2 54.7
421(21) 0.002375 382.0 53.9
397(20) 0.002519 381.8 53.3
407(20) 0.002457 381.7 52.7
385(20) 0.002597 381.5 52.3
392(20) 0.002551 381.3 52.1
396(20) 0.002525 381.2 51.9
387(20) 0.002584 381.0 51.8
397(20) 0.002519 380.8 51.8
426(21) 0.002347 380.7 51.8
428(21) 0.002336 380.5 51.8
419(20) 0.002387 380.3 51.8
395(20) 0.002532 380.2 51.8
390(20) 0.002564 380.0 51.7
441(21) 0.002268 379.8 51.6
414(20) 0.002415 379.7 51.5
445(21) 0.002247 379.5 51.4
439(21) 0.002278 379.3 51.3
410(20) 0.002439 379.2 51.2
431(21) 0.002320 379.0 51.2
378(19) 0.002646 378.8 51.1
403(20) 0.002481 378.7 51.1
431(21) 0.002320 378.5 51.1
418(20) 0.002392 378.4 51.2
428(21) 0.002336 378.2 51.2
388(20) 0.002577 378.0 51.3
416(20) 0.002404 377.9 51.4
411(20) 0.002433 377.7 51.5
442(21) 0.002262 377.5 51.6
454(21) 0.002203 377.4 51.8
450(21) 0.002222 377.2 52.0
411(20) 0.002433 377.0 52.2
393(20) 0.002545 376.9 52.4
377(19) 0.002653 376.7 52.6
437(21) 0.002288 376.5 52.9
418(20) 0.002392 376.4 53.1
414(20) 0.002415 376.2 53.3
401(20) 0.002494 376.0 53.4
383(20) 0.002611 375.9 53.4
409(20) 0.002445 375.7 53.4
399(20) 0.002506 375.5 53.3
401(20) 0.002494 375.4 53.0
419(20) 0.002387 375.2 52.6
360(19) 0.002778 375.0 52.2
410(20) 0.002439 374.9 51.7
402(20) 0.002488 374.7 51.1
397(20) 0.002519 374.5 50.5
415(20) 0.002410 374.4 49.9
394(20) 0.002538 374.2 49.3
402(20) 0.002488 374.0 48.8
402(20) 0.002488 373.9 48.4
396(20) 0.002525 373.7 48.0
375(19) 0.002667 373.6 47.8
397(20) 0.002519 373.4 47.6
407(20) 0.002457 373.2 47.5
395(20) 0.002532 373.1 47.5
367(19) 0.002725 372.9 47.6
403(20) 0.002481 372.9 47.8
408(20) 0.002451 372.9 48.0
362(19) 0.002762 372.9 48.4
399(20) 0.002506 372.9 48.9
378(19) 0.002646 372.9 49.4
403(20) 0.002481 372.9 50.1
433(21) 0.002309 372.9 50.8
417(20) . . .
395(20) . . .
378(19) . . .
420(20) . . .
423(21) . . .
390(20) . . .
397(20) . . .
418(20) . . .
397(20) . . .
419(20) . . .
394(20) . . .
455(21) . . .
444(21) . . .
386(20) . . .
399(20) . . .
433(21) . . .
443(21) . . .
415(20) . . .
407(20) . . .
414(20) . . .
374(19) . . .
425(21) . . .
421(21) . . .
409(20) . . .
418(20) . . .
410(20) . . .
420(20) . . .
436(21) . . .
418(20) . . .
419(20) . . .
385(20) . . .
422(21) . . .
436(21) . . .
418(20) . . .
442(21) . . .
419(20) . . .
445(21) . . .
397(20) . . .
465(22) . . .
443(21) . . .
420(20) . . .
419(20) . . .
420(20) . . .
421(21) . . .
431(21) . . .
440(21) . . .
444(21) . . .
427(21) . . .
449(21) . . .
429(21) . . .
427(21) . . .
426(21) . . .
383(20) . . .
408(20) . . .
409(20) . . .
437(21) . . .
408(20) . . .
422(21) . . .
423(21) . . .
395(20) . . .
447(21) . . .
384(20) . . .
398(20) . . .
426(21) . . .
379(19) . . .
369(19) . . .
388(20) . . .
418(20) . . .
367(19) . . .
387(20) . . .
392(20) . . .
391(20) . . .
401(20) . . .
407(20) . . .
376(19) . . .
375(19) . . .
370(19) . . .
358(19) . . .
349(19) . . .
371(19) . . .
379(19) . . .
399(20) . . .
377(19) . . .
384(20) . . .
346(19) . . .
376(19) . . .
376(19) . . .
380(19) . . .
370(19) . . .
386(20) . . .
387(20) . . .
345(19) . . .
340(18) . . .
381(20) . . .
364(19) . . .
396(20) . . .
354(19) . . .
370(19) . . .
395(20) . . .
393(20) . . .
380(19) . . .
330(18) . . .
384(20) . . .
376(19) . . .
384(20) . . .
388(20) . . .
400(20) . . .
377(19) . . .
395(20) . . .
370(19) . . .
368(19) . . .
408(20) . . .
371(19) . . .
388(20) . . .
366(19) . . .
373(19) . . .
388(20) . . .
382(20) . . .
392(20) . . .
370(19) . . .
372(19) . . .
392(20) . . .
340(18) . . .
377(19) . . .
361(19) . . .
403(20) . . .
378(19) . . .
373(19) . . .
420(20) . . .
402(20) . . .
392(20) . . .
386(20) . . .
364(19) . . .
419(20) . . .
407(20) . . .
406(20) . . .
412(20) . . .
411(20) . . .
416(20) . . .
428(21) . . .
420(20) . . .
422(21) . . .
430(21) . . .
379(19) . . .
410(20) . . .
414(20) . . .
435(21) . . .
399(20) . . .
399(20) . . .
437(21) . . .
396(20) . . .
390(20) . . .
384(20) . . .
418(20) . . .
375(19) . . .
438(21) . . .
374(19) . . .
385(20) . . .
364(19) . . .
379(19) . . .
378(19) . . .
384(20) . . .
388(20) . . .
350(19) . . .
384(20) . . .
377(19) . . .
353(19) . . .
377(19) . . .
367(19) . . .
368(19) . . .
399(20) . . .
374(19) . . .
386(20) . . .
401(20) . . .
367(19) . . .
355(19) . . .
342(18) . . .
376(19) . . .
391(20) . . .
345(19) . . .
395(20) . . .
354(19) . . .
358(19) . . .
385(20) . . .
370(19) . . .
350(19) . . .
413(20) . . .
366(19) . . .
365(19) . . .
384(20) . . .
375(19) . . .
353(19) . . .
406(20) . . .
360(19) . . .
358(19) . . .
371(19) . . .
353(19) . . .
334(18) . . .
401(20) . . .
378(19) . . .
358(19) . . .
353(19) . . .
372(19) . . .
397(20) . . .
375(19) . . .
385(20) . . .
338(18) . . .
374(19) . . .
363(19) . . .
355(19) . . .
371(19) . . .
367(19) . . .
369(19) . . .
394(20) . . .
365(19) . . .
369(19) . . .
372(19) . . .
336(18) . . .
368(19) . . .
375(19) . . .
391(20) . . .
394(20) . . .
367(19) . . .
342(18) . . .
416(20) . . .
383(20) . . .
412(20) . . .
393(20) . . .
383(20) . . .
433(21) . . .
397(20) . . .
429(21) . . .
394(20) . . .
371(19) . . .
398(20) . . .
425(21) . . .
420(20) . . .
409(20) . . .
425(21) . . .
427(21) . . .
429(21) . . .
366(19) . . .
397(20) . . .
428(21) . . .
401(20) . . .
375(19) . . .
385(20) . . .
398(20) . . .
376(19) . . .
396(20) . . .
409(20) . . .
348(19) . . .
354(19) . . .
396(20) . . .
390(20) . . .
358(19) . . .
365(19) . . .
361(19) . . .
357(19) . . .
337(18) . . .
337(18) . . .
368(19) . . .
359(19) . . .
314(18) . . .
365(19) . . .
363(19) . . .
341(18) . . .
357(19) . . .
341(18) . . .
345(19) . . .
357(19) . . .
365(19) . . .
329(18) . . .
361(19) . . .
361(19) . . .
357(19) . . .
372(19) . . .
359(19) . . .
327(18) . . .
359(19) . . .
342(18) . . .
363(19) . . .
346(19) . . .
368(19) . . .
375(19) . . .
391(20) . . .
341(18) . . .
397(20) . . .
374(19) . . .
384(20) . . .
365(19) . . .
348(19) . . .
354(19) . . .
398(20) . . .
383(20) . . .
368(19) . . .
337(18) . . .
363(19) . . .
354(19) . . .
345(19) . . .
342(18) . . .
334(18) . . .
364(19) . . .
335(18) . . .
375(19) . . .
349(19) . . .
355(19) . . .
337(18) . . .
383(20) . . .
361(19) . . .
352(19) . . .
347(19) . . .
312(18) . . .
324(18) . . .
365(19) . . .
333(18) . . .
398(20) . . .
378(19) . . .
358(19) . . .
351(19) . . .
324(18) . . .
363(19) . . .
350(19) . . .
323(18) . . .
360(19) . . .
363(19) . . .
340(18) . . .
336(18) . . .
344(19) . . .
353(19) . . .
359(19) . . .
358(19) . . .
363(19) . . .
368(19) . . .
343(19) . . .
318(18) . . .
329(18) . . .
350(19) . . .
344(19) . . .
329(18) . . .
335(18) . . .
361(19) . . .
359(19) . . .
362(19) . . .
357(19) . . .
333(18) . . .
345(19) . . .
348(19) . . .
336(18) . . .
325(18) . . .
341(18) . . .
367(19) . . .
355(19) . . .
363(19) . . .
346(19) . . .
327(18) . . .
334(18) . . .
341(18) . . .
362(19) . . .
351(19) . . .
310(18) . . .
337(18) . . .
362(19) . . .
349(19) . . .
372(19) . . .
340(18) . . .
354(19) . . .
344(19) . . .
380(19) . . .
374(19) . . .
369(19) . . .
387(20) . . .
396(20) . . .
361(19) . . .
381(20) . . .
368(19) . . .
359(19) . . .
347(19) . . .
386(20) . . .
344(19) . . .
361(19) . . .
350(19) . . .
358(19) . . .
351(19) . . .
345(19) . . .
330(18) . . .
350(19) . . .
355(19) . . .
378(19) . . .
348(19) . . .
369(19) . . .
370(19) . . .
352(19) . . .
374(19) . . .
387(20) . . .
402(20) . . .
358(19) . . .
346(19) . . .
353(19) . . .
378(19) . . .
362(19) . . .
329(18) . . .
374(19) . . .
353(19) . . .
341(18) . . .
346(19) . . .
385(20) . . .
362(19) . . .
336(18) . . .
350(19) . . .
352(19) . . .
372(19) . . .
368(19) . . .
373(19) . . .
349(19) . . .
357(19) . . .
355(19) . . .
339(18) . . .
358(19) . . .
380(19) . . .
370(19) . . .
342(18) . . .
347(19) . . .
378(19) . . .
373(19) . . .
366(19) . . .
393(20) . . .
356(19) . . .
360(19) . . .
343(19) . . .
345(19) . . .
358(19) . . .
365(19) . . .
395(20) . . .
374(19) . . .
359(19) . . .
351(19) . . .
390(20) . . .
375(19) . . .
409(20) . . .
390(20) . . .
414(20) . . .
407(20) . . .
426(21) . . .
448(21) . . .
398(20) . . .
464(22) . . .
415(20) . . .
463(22) . . .
389(20) . . .
387(20) . . .
402(20) . . .
417(20) . . .
404(20) . . .
399(20) . . .
401(20) . . .
390(20) . . .
388(20) . . .
388(20) . . .
398(20) . . .
377(19) . . .
385(20) . . .
365(19) . . .
397(20) . . .
359(19) . . .
357(19) . . .
389(20) . . .
380(19) . . .
386(20) . . .
347(19) . . .
414(20) . . .
371(19) . . .
378(19) . . .
391(20) . . .
394(20) . . .
405(20) . . .
407(20) . . .
430(21) . . .
430(21) . . .
374(19) . . .
435(21) . . .
383(20) . . .
399(20) . . .
410(20) . . .
422(21) . . .
404(20) . . .
445(21) . . .
423(21) . . .
444(21) . . .
419(20) . . .
450(21) . . .
400(20) . . .
440(21) . . .
426(21) . . .
424(21) . . .
425(21) . . .
429(21) . . .
421(21) . . .
425(21) . . .
402(20) . . .
430(21) . . .
410(20) . . .
387(20) . . .
425(21) . . .
402(20) . . .
439(21) . . .
370(19) . . .
434(21) . . .
428(21) . . .
420(20) . . .
394(20) . . .
384(20) . . .
400(20) . . .
380(19) . . .
392(20) . . .
409(20) . . .
400(20) . . .
359(19) . . .
391(20) . . .
402(20) . . .
400(20) . . .
414(20) . . .
385(20) . . .
406(20) . . .
407(20) . . .
398(20) . . .
407(20) . . .
415(20) . . .
375(19) . . .
382(20) . . .
454(21) . . .
398(20) . . .
412(20) . . .
383(20) . . .
385(20) . . .
377(19) . . .
361(19) . . .
402(20) . . .
403(20) . . .
401(20) . . .
368(19) . . .
407(20) . . .
419(20) . . .
409(20) . . .
412(20) . . .
430(21) . . .
360(19) . . .
392(20) . . .
400(20) . . .
391(20) . . .
432(21) . . .
402(20) . . .
440(21) . . .
431(21) . . .
425(21) . . .
419(20) . . .
398(20) . . .
428(21) . . .
444(21) . . .
469(22) . . .
441(21) . . .
464(22) . . .
471(22) . . .
474(22) . . .
480(22) . . .
482(22) . . .
441(21) . . .
428(21) . . .
428(21) . . .
468(22) . . .
471(22) . . .
514(23) . . .
508(23) . . .
475(22) . . .
496(22) . . .
489(22) . . .
499(22) . . .
457(21) . . .
454(21) . . .
448(21) . . .
468(22) . . .
450(21) . . .
458(21) . . .
462(21) . . .
404(20) . . .
462(21) . . .
435(21) . . .
427(21) . . .
418(20) . . .
404(20) . . .
436(21) . . .
410(20) . . .
420(20) . . .
403(20) . . .
396(20) . . .
436(21) . . .
433(21) . . .
406(20) . . .
428(21) . . .
381(20) . . .
423(21) . . .
436(21) . . .
387(20) . . .
420(20) . . .
394(20) . . .
423(21) . . .
408(20) . . .
391(20) . . .
389(20) . . .
374(19) . . .
364(19) . . .
400(20) . . .
401(20) . . .
369(19) . . .
394(20) . . .
397(20) . . .
394(20) . . .
397(20) . . .
406(20) . . .
387(20) . . .
373(19) . . .
406(20) . . .
388(20) . . .
333(18) . . .
387(20) . . .
379(19) . . .
421(21) . . .
371(19) . . .
391(20) . . .
398(20) . . .
386(20) . . .
354(19) . . .
368(19) . . .
384(20) . . .
396(20) . . .
380(19) . . .
398(20) . . .
372(19) . . .
357(19) . . .
365(19) . . .
367(19) . . .
363(19) . . .
412(20) . . .
359(19) . . .
349(19) . . .
365(19) . . .
364(19) . . .
394(20) . . .
370(19) . . .
397(20) . . .
366(19) . . .
399(20) . . .
373(19) . . .
402(20) . . .
361(19) . . .
369(19) . . .
383(20) . . .
390(20) . . .
388(20) . . .
431(21) . . .
424(21) . . .
405(20) . . .
382(20) . . .
408(20) . . .
386(20) . . .
409(20) . . .
423(21) . . .
399(20) . . .
434(21) . . .
404(20) . . .
427(21) . . .
451(21) . . .
441(21) . . .
393(20) . . .
402(20) . . .
414(20) . . .
442(21) . . .
396(20) . . .
427(21) . . .
388(20) . . .
394(20) . . .
408(20) . . .
384(20) . . .
376(19) . . .
387(20) . . .
410(20) . . .
383(20) . . .
410(20) . . .
407(20) . . .
387(20) . . .
371(19) . . .
393(20) . . .
393(20) . . .
380(19) . . .
390(20) . . .
407(20) . . .
429(21) . . .
374(19) . . .
390(20) . . .
400(20) . . .
369(19) . . .
371(19) . . .
381(20) . . .
378(19) . . .
394(20) . . .
396(20) . . .
422(21) . . .
415(20) . . .
385(20) . . .
381(20) . . .
382(20) . . .
402(20) . . .
371(19) . . .
421(21) . . .
440(21) . . .
392(20) . . .
371(19) . . .
399(20) . . .
395(20) . . .
424(21) . . .
414(20) . . .
398(20) . . .
415(20) . . .
380(19) . . .
391(20) . . .
441(21) . . .
387(20) . . .
380(19) . . .
403(20) . . .
417(20) . . .
393(20) . . .
390(20) . . .
412(20) . . .
403(20) . . .
401(20) . . .
387(20) . . .
394(20) . . .
407(20) . . .
394(20) . . .
384(20) . . .
409(20) . . .
372(19) . . .
381(20) . . .
380(19) . . .
377(19) . . .
362(19) . . .
395(20) . . .
367(19) . . .
398(20) . . .
380(19) . . .
391(20) . . .
396(20) . . .
404(20) . . .
415(20) . . .
392(20) . . .
399(20) . . .
410(20) . . .
394(20) . . .
433(21) . . .
411(20) . . .
411(20) . . .
430(21) . . .
426(21) . . .
411(20) . . .
406(20) . . .
442(21) . . .
405(20) . . .
417(20) . . .
425(21) . . .
428(21) . . .
396(20) . . .
434(21) . . .
416(20) . . .
441(21) . . .
438(21) . . .
462(21) . . .
404(20) . . .
456(21) . . .
469(22) . . .
465(22) . . .
448(21) . . .
457(21) . . .
437(21) . . .
446(21) . . .
467(22) . . .
456(21) . . .
455(21) . . .
482(22) . . .
496(22) . . .
508(23) . . .
515(23) . . .
522(23) . . .
513(23) . . .
552(23) . . .
546(23) . . .
527(23) . . .
572(24) . . .
563(24) . . .
566(24) . . .
644(25) . . .
567(24) . . .
615(25) . . .
626(25) . . .
652(26) . . .
670(26) . . .
665(26) . . .
673(26) . . .
698(26) . . .
798(28) . . .
764(28) . . .
765(28) . . .
847(29) . . .
870(29) . . .
902(30) . . .
953(31) . . .
936(31) . . .
996(32) . . .
1150(34) . . .
1148(34) . . .
1305(36) . . .
1431(38) . . .
1450(38) . . .
1635(40) . . .
1767(42) . . .
1998(45) . . .
2182(47) . . .
2499(50) . . .
2868(54) . . .
3251(57) . . .
3708(61) . . .
4315(66) . . .
5239(72) . . .
6322(80) . . .
7871(89) . . .
9820(99) . . .
12380(110) . . .
15570(130) . . .
19790(140) . . .
24910(160) . . .
30140(170) . . .
34010(180) . . .
36080(190) . . .
35570(190) . . .
32280(180) . . .
28010(170) . . .
22940(150) . . .
18490(140) . . .
14510(120) . . .
11490(110) . . .
9098(95) . . .
7609(87) . . .
6122(78) . . .
5153(72) . . .
4205(65) . . .
3572(60) . . .
3201(57) . . .
2711(52) . . .
2406(49) . . .
2116(46) . . .
1966(44) . . .
1803(42) . . .
1576(40) . . .
1456(38) . . .
1361(37) . . .
1264(36) . . .
1184(34) . . .
1134(34) . . .
1101(33) . . .
943(31) . . .
949(31) . . .
886(30) . . .
866(29) . . .
808(28) . . .
824(29) . . .
736(27) . . .
758(28) . . .
684(26) . . .
693(26) . . .
657(26) . . .
615(25) . . .
643(25) . . .
621(25) . . .
589(24) . . .
640(25) . . .
615(25) . . .
597(24) . . .
589(24) . . .
559(24) . . .
560(24) . . .
568(24) . . .
524(23) . . .
517(23) . . .
546(23) . . .
568(24) . . .
513(23) . . .
516(23) . . .
519(23) . . .
500(22) . . .
506(22) . . .
506(22) . . .
513(23) . . .
506(22) . . .
490(22) . . .
475(22) . . .
514(23) . . .
496(22) . . .
525(23) . . .
494(22) . . .
446(21) . . .
475(22) . . .
450(21) . . .
483(22) . . .
434(21) . . .
447(21) . . .
450(21) . . .
434(21) . . .
404(20) . . .
402(20) . . .
426(21) . . .
420(20) . . .
402(20) . . .
417(20) . . .
392(20) . . .
427(21) . . .
397(20) . . .
427(21) . . .
409(20) . . .
391(20) . . .
406(20) . . .
406(20) . . .
431(21) . . .
424(21) . . .
377(19) . . .
413(20) . . .
414(20) . . .
400(20) . . .
418(20) . . .
451(21) . . .
404(20) . . .
436(21) . . .
433(21) . . .
457(21) . . .
424(21) . . .
430(21) . . .
405(20) . . .
435(21) . . .
423(21) . . .
460(21) . . .
434(21) . . .
433(21) . . .
435(21) . . .
430(21) . . .
445(21) . . .
452(21) . . .
450(21) . . .
462(21) . . .
426(21) . . .
415(20) . . .
406(20) . . .
438(21) . . .
390(20) . . .
410(20) . . .
445(21) . . .
380(19) . . .
414(20) . . .
381(20) . . .
400(20) . . .
395(20) . . .
381(20) . . .
402(20) . . .
392(20) . . .
412(20) . . .
403(20) . . .
394(20) . . .
352(19) . . .
390(20) . . .
393(20) . . .
396(20) . . .
398(20) . . .
394(20) . . .
383(20) . . .
362(19) . . .
364(19) . . .
409(20) . . .
416(20) . . .
379(19) . . .
397(20) . . .
380(19) . . .
393(20) . . .
365(19) . . .
374(19) . . .
417(20) . . .
397(20) . . .
380(19) . . .
365(19) . . .
404(20) . . .
389(20) . . .
399(20) . . .
395(20) . . .
405(20) . . .
389(20) . . .
409(20) . . .
378(19) . . .
369(19) . . .
365(19) . . .
395(20) . . .
390(20) . . .
402(20) . . .
407(20) . . .
382(20) . . .
408(20) . . .
389(20) . . .
407(20) . . .
387(20) . . .
368(19) . . .
393(20) . . .
414(20) . . .
372(19) . . .
382(20) . . .
400(20) . . .
391(20) . . .
407(20) . . .
389(20) . . .
405(20) . . .
400(20) . . .
422(21) . . .
427(21) . . .
406(20) . . .
444(21) . . .
420(20) . . .
435(21) . . .
434(21) . . .
456(21) . . .
440(21) . . .
453(21) . . .
416(20) . . .
440(21) . . .
415(20) . . .
414(20) . . .
414(20) . . .
465(22) . . .
422(21) . . .
374(19) . . .
413(20) . . .
412(20) . . .
407(20) . . .
436(21) . . .
409(20) . . .
419(20) . . .
401(20) . . .
434(21) . . .
448(21) . . .
438(21) . . .
430(21) . . .
388(20) . . .
423(21) . . .
426(21) . . .
417(20) . . .
453(21) . . .
415(20) . . .
431(21) . . .
441(21) . . .
424(21) . . .
445(21) . . .
415(20) . . .
439(21) . . .
425(21) . . .
458(21) . . .
440(21) . . .
421(21) . . .
426(21) . . .
383(20) . . .
423(21) . . .
387(20) . . .
399(20) . . .
399(20) . . .
414(20) . . .
406(20) . . .
385(20) . . .
347(19) . . .
413(20) . . .
375(19) . . .
399(20) . . .
419(20) . . .
338(18) . . .
389(20) . . .
367(19) . . .
367(19) . . .
365(19) . . .
346(19) . . .
360(19) . . .
368(19) . . .
375(19) . . .
385(20) . . .
349(19) . . .
375(19) . . .
363(19) . . .
395(20) . . .
390(20) . . .
363(19) . . .
393(20) . . .
378(19) . . .
357(19) . . .
358(19) . . .
332(18) . . .
388(20) . . .
401(20) . . .
370(19) . . .
356(19) . . .
328(18) . . .
308(18) . . .
349(19) . . .
355(19) . . .
365(19) . . .
355(19) . . .
371(19) . . .
378(19) . . .
383(20) . . .
352(19) . . .
351(19) . . .
348(19) . . .
364(19) . . .
362(19) . . .
376(19) . . .
354(19) . . .
369(19) . . .
349(19) . . .
372(19) . . .
353(19) . . .
369(19) . . .
376(19) . . .
357(19) . . .
377(19) . . .
359(19) . . .
331(18) . . .
357(19) . . .
371(19) . . .
361(19) . . .
381(20) . . .
340(18) . . .
387(20) . . .
352(19) . . .
355(19) . . .
361(19) . . .
365(19) . . .
359(19) . . .
358(19) . . .
377(19) . . .
370(19) . . .
369(19) . . .
388(20) . . .
393(20) . . .
382(20) . . .
355(19) . . .
396(20) . . .
351(19) . . .
359(19) . . .
374(19) . . .
372(19) . . .
369(19) . . .
374(19) . . .
374(19) . . .
362(19) . . .
364(19) . . .
354(19) . . .
372(19) . . .
342(18) . . .
336(18) . . .
374(19) . . .
368(19) . . .
321(18) . . .
337(18) . . .
385(20) . . .
333(18) . . .
339(18) . . .
361(19) . . .
353(19) . . .
350(19) . . .
326(18) . . .
343(19) . . .
341(18) . . .
326(18) . . .
352(19) . . .
366(19) . . .
330(18) . . .
351(19) . . .
350(19) . . .
346(19) . . .
363(19) . . .
366(19) . . .
346(19) . . .
334(18) . . .
322(18) . . .
354(19) . . .
371(19) . . .
350(19) . . .
350(19) . . .
357(19) . . .
352(19) . . .
341(18) . . .
367(19) . . .
343(19) . . .
328(18) . . .
382(20) . . .
343(19) . . .
377(19) . . .
333(18) . . .
362(19) . . .
351(19) . . .
368(19) . . .
351(19) . . .
346(19) . . .
364(19) . . .
356(19) . . .
364(19) . . .
362(19) . . .
373(19) . . .
363(19) . . .
359(19) . . .
372(19) . . .
352(19) . . .
378(19) . . .
373(19) . . .
398(20) . . .
399(20) . . .
392(20) . . .
371(19) . . .
384(20) . . .
389(20) . . .
409(20) . . .
376(19) . . .
399(20) . . .
382(20) . . .
387(20) . . .
412(20) . . .
403(20) . . .
380(19) . . .
376(19) . . .
399(20) . . .
386(20) . . .
413(20) . . .
385(20) . . .
413(20) . . .
382(20) . . .
399(20) . . .
366(19) . . .
402(20) . . .
422(21) . . .
384(20) . . .
391(20) . . .
411(20) . . .
402(20) . . .
381(20) . . .
387(20) . . .
383(20) . . .
422(21) . . .
382(20) . . .
385(20) . . .
396(20) . . .
381(20) . . .
357(19) . . .
385(20) . . .
395(20) . . .
395(20) . . .
363(19) . . .
401(20) . . .
375(19) . . .
386(20) . . .
398(20) . . .
364(19) . . .
385(20) . . .
366(19) . . .
378(19) . . .
350(19) . . .
351(19) . . .
383(20) . . .
353(19) . . .
334(18) . . .
339(18) . . .
332(18) . . .
373(19) . . .
362(19) . . .
369(19) . . .
365(19) . . .
345(19) . . .
348(19) . . .
375(19) . . .
356(19) . . .
379(19) . . .
379(19) . . .
359(19) . . .
333(18) . . .
352(19) . . .
390(20) . . .
359(19) . . .
346(19) . . .
359(19) . . .
316(18) . . .
355(19) . . .
355(19) . . .
345(19) . . .
364(19) . . .
346(19) . . .
326(18) . . .
360(19) . . .
371(19) . . .
365(19) . . .
350(19) . . .
395(20) . . .
396(20) . . .
379(19) . . .
392(20) . . .
378(19) . . .
391(20) . . .
370(19) . . .
383(20) . . .
384(20) . . .
419(20) . . .
392(20) . . .
405(20) . . .
382(20) . . .
386(20) . . .
426(21) . . .
393(20) . . .
403(20) . . .
401(20) . . .
426(21) . . .
395(20) . . .
433(21) . . .
435(21) . . .
396(20) . . .
413(20) . . .
396(20) . . .
417(20) . . .
401(20) . . .
403(20) . . .
399(20) . . .
377(19) . . .
391(20) . . .
414(20) . . .
375(19) . . .
393(20) . . .
401(20) . . .
415(20) . . .
380(19) . . .
394(20) . . .
391(20) . . .
387(20) . . .
422(21) . . .
385(20) . . .
362(19) . . .
366(19) . . .
362(19) . . .
352(19) . . .
362(19) . . .
376(19) . . .
367(19) . . .
397(20) . . .
402(20) . . .
380(19) . . .
398(20) . . .
391(20) . . .
354(19) . . .
345(19) . . .
399(20) . . .
378(19) . . .
377(19) . . .
369(19) . . .
399(20) . . .
372(19) . . .
383(20) . . .
387(20) . . .
376(19) . . .
401(20) . . .
391(20) . . .
383(20) . . .
390(20) . . .
388(20) . . .
364(19) . . .
393(20) . . .
382(20) . . .
362(19) . . .
373(19) . . .
375(19) . . .
370(19) . . .
366(19) . . .
394(20) . . .
375(19) . . .
371(19) . . .
389(20) . . .
381(20) . . .
379(19) . . .
363(19) . . .
364(19) . . .
381(20) . . .
356(19) . . .
388(20) . . .
361(19) . . .
383(20) . . .
345(19) . . .
352(19) . . .
397(20) . . .
380(19) . . .
387(20) . . .
388(20) . . .
344(19) . . .
396(20) . . .
363(19) . . .
349(19) . . .
389(20) . . .
333(18) . . .
397(20) . . .
355(19) . . .
385(20) . . .
340(18) . . .
368(19) . . .
359(19) . . .
351(19) . . .
361(19) . . .
380(19) . . .
375(19) . . .
356(19) . . .
364(19) . . .
361(19) . . .
382(20) . . .
347(19) . . .
352(19) . . .
369(19) . . .
371(19) . . .
355(19) . . .
376(19) . . .
398(20) . . .
344(19) . . .
379(19) . . .
365(19) . . .
355(19) . . .
384(20) . . .
375(19) . . .
362(19) . . .
370(19) . . .
370(19) . . .
344(19) . . .
357(19) . . .
388(20) . . .
386(20) . . .
350(19) . . .
338(18) . . .
362(19) . . .
364(19) . . .
349(19) . . .
357(19) . . .
362(19) . . .
380(19) . . .
364(19) . . .
380(19) . . .
387(20) . . .
371(19) . . .
360(19) . . .
367(19) . . .
359(19) . . .
376(19) . . .
373(19) . . .
349(19) . . .
367(19) . . .
371(19) . . .
330(18) . . .
388(20) . . .
334(18) . . .
377(19) . . .
380(19) . . .
356(19) . . .
367(19) . . .
377(19) . . .
378(19) . . .
363(19) . . .
376(19) . . .
380(19) . . .
345(19) . . .
350(19) . . .
365(19) . . .
371(19) . . .
361(19) . . .
384(20) . . .
370(19) . . .
363(19) . . .
372(19) . . .
384(20) . . .
356(19) . . .
346(19) . . .
350(19) . . .
348(19) . . .
348(19) . . .
374(19) . . .
381(20) . . .
350(19) . . .
377(19) . . .
369(19) . . .
376(19) . . .
351(19) . . .
356(19) . . .
378(19) . . .
381(20) . . .
374(19) . . .
381(20) . . .
314(18) . . .
371(19) . . .
384(20) . . .
358(19) . . .
366(19) . . .
357(19) . . .
352(19) . . .
385(20) . . .
384(20) . . .
357(19) . . .
351(19) . . .
363(19) . . .
363(19) . . .
385(20) . . .
379(19) . . .
379(19) . . .
377(19) . . .
374(19) . . .
374(19) . . .
384(20) . . .
402(20) . . .
394(20) . . .
433(21) . . .
359(19) . . .
409(20) . . .
381(20) . . .
385(20) . . .
404(20) . . .
371(19) . . .
349(19) . . .
375(19) . . .
353(19) . . .
404(20) . . .
354(19) . . .
394(20) . . .
380(19) . . .
390(20) . . .
360(19) . . .
381(20) . . .
388(20) . . .
370(19) . . .
350(19) . . .
357(19) . . .
382(20) . . .
374(19) . . .
372(19) . . .
384(20) . . .
415(20) . . .
373(19) . . .
414(20) . . .
405(20) . . .
364(19) . . .
415(20) . . .
405(20) . . .
369(19) . . .
388(20) . . .
386(20) . . .
370(19) . . .
379(19) . . .
395(20) . . .
396(20) . . .
398(20) . . .
391(20) . . .
396(20) . . .
396(20) . . .
376(19) . . .
394(20) . . .
368(19) . . .
344(19) . . .
390(20) . . .
391(20) . . .
407(20) . . .
372(19) . . .
363(19) . . .
368(19) . . .
379(19) . . .
363(19) . . .
378(19) . . .
381(20) . . .
356(19) . . .
361(19) . . .
375(19) . . .
371(19) . . .
385(20) . . .
340(18) . . .
363(19) . . .
356(19) . . .
353(19) . . .
370(19) . . .
380(19) . . .
422(21) . . .
373(19) . . .
343(19) . . .
397(20) . . .
408(20) . . .
400(20) . . .
386(20) . . .
433(21) . . .
378(19) . . .
390(20) . . .
400(20) . . .
381(20) . . .
365(19) . . .
365(19) . . .
384(20) . . .
366(19) . . .
360(19) . . .
390(20) . . .
385(20) . . .
415(20) . . .
395(20) . . .
374(19) . . .
384(20) . . .
413(20) . . .
453(21) . . .
381(20) . . .
371(19) . . .
397(20) . . .
400(20) . . .
416(20) . . .
421(21) . . .
396(20) . . .
384(20) . . .
406(20) . . .
423(21) . . .
382(20) . . .
411(20) . . .
395(20) . . .
410(20) . . .
373(19) . . .
397(20) . . .
406(20) . . .
397(20) . . .
395(20) . . .
379(19) . . .
392(20) . . .
389(20) . . .
366(19) . . .
327(18) . . .
397(20) . . .
393(20) . . .
377(19) . . .
380(19) . . .
398(20) . . .
377(19) . . .
398(20) . . .
381(20) . . .
390(20) . . .
429(21) . . .
399(20) . . .
401(20) . . .
420(20) . . .
398(20) . . .
403(20) . . .
407(20) . . .
432(21) . . .
382(20) . . .
394(20) . . .
377(19) . . .
388(20) . . .
397(20) . . .
385(20) . . .
395(20) . . .
394(20) . . .
371(19) . . .
385(20) . . .
405(20) . . .
378(19) . . .
377(19) . . .
380(19) . . .
405(20) . . .
372(19) . . .
374(19) . . .
364(19) . . .
366(19) . . .
393(20) . . .
399(20) . . .
386(20) . . .
379(19) . . .
391(20) . . .
385(20) . . .
378(19) . . .
367(19) . . .
401(20) . . .
384(20) . . .
330(18) . . .
390(20) . . .
382(20) . . .
388(20) . . .
381(20) . . .
351(19) . . .
375(19) . . .
367(19) . . .
366(19) . . .
364(19) . . .
346(19) . . .
358(19) . . .
396(20) . . .
411(20) . . .
378(19) . . .
414(20) . . .
394(20) . . .
409(20) . . .
407(20) . . .
379(19) . . .
388(20) . . .
365(19) . . .
372(19) . . .
373(19) . . .
388(20) . . .
421(21) . . .
371(19) . . .
385(20) . . .
382(20) . . .
385(20) . . .
360(19) . . .
373(19) . . .
391(20) . . .
417(20) . . .
387(20) . . .
377(19) . . .
378(19) . . .
437(21) . . .
433(21) . . .
430(21) . . .
391(20) . . .
420(20) . . .
406(20) . . .
378(19) . . .
407(20) . . .
394(20) . . .
409(20) . . .
447(21) . . .
414(20) . . .
410(20) . . .
401(20) . . .
435(21) . . .
394(20) . . .
438(21) . . .
426(21) . . .
407(20) . . .
428(21) . . .
430(21) . . .
412(20) . . .
411(20) . . .
381(20) . . .
451(21) . . .
409(20) . . .
420(20) . . .
453(21) . . .
421(21) . . .
391(20) . . .
389(20) . . .
429(21) . . .
414(20) . . .
399(20) . . .
411(20) . . .
458(21) . . .
372(19) . . .
390(20) . . .
394(20) . . .
381(20) . . .
419(20) . . .
442(21) . . .
382(20) . . .
396(20) . . .
390(20) . . .
356(19) . . .
394(20) . . .
407(20) . . .
422(21) . . .
372(19) . . .
365(19) . . .
418(20) . . .
398(20) . . .
405(20) . . .
378(19) . . .
378(19) . . .
400(20) . . .
381(20) . . .
392(20) . . .
410(20) . . .
401(20) . . .
394(20) . . .
403(20) . . .
440(21) . . .
402(20) . . .
385(20) . . .
391(20) . . .
400(20) . . .
421(21) . . .
407(20) . . .
435(21) . . .
423(21) . . .
423(21) . . .
417(20) . . .
370(19) . . .
418(20) . . .
437(21) . . .
432(21) . . .
373(19) . . .
383(20) . . .
385(20) . . .
399(20) . . .
385(20) . . .
384(20) . . .
398(20) . . .
415(20) . . .
383(20) . . .
401(20) . . .
414(20) . . .
449(21) . . .
400(20) . . .
430(21) . . .
395(20) . . .
388(20) . . .
363(19) . . .
389(20) . . .
392(20) . . .
391(20) . . .
405(20) . . .
406(20) . . .
402(20) . . .
382(20) . . .
406(20) . . .
384(20) . . .
392(20) . . .
437(21) . . .
439(21) . . .
410(20) . . .
418(20) . . .
379(19) . . .
403(20) . . .
405(20) . . .
414(20) . . .
383(20) . . .
391(20) . . .
415(20) . . .
394(20) . . .
395(20) . . .
402(20) . . .
392(20) . . .
417(20) . . .
428(21) . . .
392(20) . . .
390(20) . . .
416(20) . . .
401(20) . . .
437(21) . . .
403(20) . . .
392(20) . . .
417(20) . . .
401(20) . . .
397(20) . . .
439(21) . . .
416(20) . . .
420(20) . . .
426(21) . . .
459(21) . . .
427(21) . . .
425(21) . . .
429(21) . . .
406(20) . . .
398(20) . . .
391(20) . . .
444(21) . . .
444(21) . . .
448(21) . . .
445(21) . . .
433(21) . . .
424(21) . . .
451(21) . . .
452(21) . . .
465(22) . . .
441(21) . . .
435(21) . . .
466(22) . . .
438(21) . . .
447(21) . . .
436(21) . . .
446(21) . . .
450(21) . . .
421(21) . . .
465(22) . . .
436(21) . . .
461(21) . . .
432(21) . . .
402(20) . . .
469(22) . . .
432(21) . . .
475(22) . . .
460(21) . . .
440(21) . . .
465(22) . . .
445(21) . . .
465(22) . . .
452(21) . . .
466(22) . . .
453(21) . . .
443(21) . . .
451(21) . . .
443(21) . . .
468(22) . . .
448(21) . . .
479(22) . . .
475(22) . . .
457(21) . . .
438(21) . . .
471(22) . . .
483(22) . . .
452(21) . . .
505(22) . . .
470(22) . . .
456(21) . . .
456(21) . . .
459(21) . . .
436(21) . . .
449(21) . . .
450(21) . . .
503(22) . . .
472(22) . . .
452(21) . . .
467(22) . . .
502(22) . . .
462(21) . . .
480(22) . . .
508(23) . . .
477(22) . . .
517(23) . . .
526(23) . . .
486(22) . . .
526(23) . . .
539(23) . . .
533(23) . . .
502(22) . . .
562(24) . . .
572(24) . . .
504(22) . . .
538(23) . . .
557(24) . . .
533(23) . . .
549(23) . . .
572(24) . . .
588(24) . . .
562(24) . . .
591(24) . . .
546(23) . . .
561(24) . . .
576(24) . . .
580(24) . . .
642(25) . . .
620(25) . . .
637(25) . . .
614(25) . . .
678(26) . . .
661(26) . . .
735(27) . . .
760(28) . . .
729(27) . . .
722(27) . . .
769(28) . . .
749(27) . . .
806(28) . . .
852(29) . . .
868(29) . . .
873(30) . . .
877(30) . . .
953(31) . . .
997(32) . . .
1054(32) . . .
1098(33) . . .
1168(34) . . .
1174(34) . . .
1284(36) . . .
1358(37) . . .
1439(38) . . .
1529(39) . . .
1715(41) . . .
1766(42) . . .
1807(43) . . .
1992(45) . . .
2189(47) . . .
2408(49) . . .
2590(51) . . .
2902(54) . . .
3265(57) . . .
3721(61) . . .
4146(64) . . .
4776(69) . . .
5400(73) . . .
6330(80) . . .
7306(85) . . .
8797(94) . . .
10220(100) . . .
12340(110) . . .
14680(120) . . .
17650(130) . . .
21440(150) . . .
26250(160) . . .
31440(180) . . .
37690(190) . . .
43680(210) . . .
48370(220) . . .
51610(230) . . .
51080(230) . . .
49170(220) . . .
45530(210) . . .
40150(200) . . .
34270(190) . . .
28690(170) . . .
23360(150) . . .
18900(140) . . .
15400(120) . . .
12460(110) . . .
10250(100) . . .
8508(92) . . .
7259(85) . . .
6144(78) . . .
5312(73) . . .
4701(69) . . .
4077(64) . . .
3575(60) . . .
3144(56) . . .
2868(54) . . .
2575(51) . . .
2401(49) . . .
2195(47) . . .
1985(45) . . .
1855(43) . . .
1699(41) . . .
1659(41) . . .
1488(39) . . .
1398(37) . . .
1316(36) . . .
1231(35) . . .
1121(33) . . .
1105(33) . . .
1065(33) . . .
1030(32) . . .
1035(32) . . .
941(31) . . .
875(30) . . .
911(30) . . .
911(30) . . .
785(28) . . .
856(29) . . .
784(28) . . .
799(28) . . .
807(28) . . .
782(28) . . .
755(27) . . .
728(27) . . .
686(26) . . .
654(26) . . .
663(26) . . .
627(25) . . .
645(25) . . .
643(25) . . .
601(25) . . .
591(24) . . .
631(25) . . .
593(24) . . .
585(24) . . .
570(24) . . .
611(25) . . .
565(24) . . .
550(23) . . .
563(24) . . .
577(24) . . .
586(24) . . .
548(23) . . .
538(23) . . .
537(23) . . .
560(24) . . .
525(23) . . .
525(23) . . .
550(23) . . .
524(23) . . .
553(24) . . .
569(24) . . .
573(24) . . .
530(23) . . .
511(23) . . .
529(23) . . .
510(23) . . .
571(24) . . .
530(23) . . .
488(22) . . .
513(23) . . .
532(23) . . .
517(23) . . .
524(23) . . .
489(22) . . .
529(23) . . .
514(23) . . .
532(23) . . .
545(23) . . .
515(23) . . .
520(23) . . .
512(23) . . .
528(23) . . .
533(23) . . .
546(23) . . .
542(23) . . .
528(23) . . .
513(23) . . .
509(23) . . .
516(23) . . .
554(24) . . .
531(23) . . .
467(22) . . .
496(22) . . .
494(22) . . .
478(22) . . .
473(22) . . .
483(22) . . .
485(22) . . .
469(22) . . .
471(22) . . .
504(22) . . .
469(22) . . .
478(22) . . .
446(21) . . .
448(21) . . .
458(21) . . .
489(22) . . .
466(22) . . .
434(21) . . .
459(21) . . .
447(21) . . .
459(21) . . .
460(21) . . .
437(21) . . .
427(21) . . .
477(22) . . .
462(21) . . .
489(22) . . .
464(22) . . .
453(21) . . .
483(22) . . .
451(21) . . .
462(21) . . .
469(22) . . .
485(22) . . .
499(22) . . .
508(23) . . .
491(22) . . .
476(22) . . .
467(22) . . .
520(23) . . .
489(22) . . .
477(22) . . .
465(22) . . .
456(21) . . .
489(22) . . .
489(22) . . .
508(23) . . .
480(22) . . .
505(22) . . .
452(21) . . .
495(22) . . .
482(22) . . .
457(21) . . .
498(22) . . .
494(22) . . .
469(22) . . .
438(21) . . .
463(22) . . .
502(22) . . .
465(22) . . .
403(20) . . .
453(21) . . .
488(22) . . .
428(21) . . .
485(22) . . .
440(21) . . .
455(21) . . .
485(22) . . .
458(21) . . .
441(21) . . .
465(22) . . .
455(21) . . .
468(22) . . .
472(22) . . .
470(22) . . .
449(21) . . .
446(21) . . .
469(22) . . .
479(22) . . .
490(22) . . .
447(21) . . .
483(22) . . .
467(22) . . .
518(23) . . .
484(22) . . .
515(23) . . .
490(22) . . .
481(22) . . .
462(21) . . .
470(22) . . .
499(22) . . .
477(22) . . .
467(22) . . .
456(21) . . .
445(21) . . .
470(22) . . .
453(21) . . .
440(21) . . .
470(22) . . .
511(23) . . .
451(21) . . .
446(21) . . .
474(22) . . .
437(21) . . .
452(21) . . .
493(22) . . .
504(22) . . .
493(22) . . .
494(22) . . .
460(21) . . .
468(22) . . .
467(22) . . .
484(22) . . .
479(22) . . .
454(21) . . .
462(21) . . .
475(22) . . .
493(22) . . .
466(22) . . .
477(22) . . .
507(23) . . .
460(21) . . .
489(22) . . .
457(21) . . .
468(22) . . .
501(22) . . .
474(22) . . .
507(23) . . .
483(22) . . .
476(22) . . .
519(23) . . .
501(22) . . .
490(22) . . .
478(22) . . .
510(23) . . .
507(23) . . .
487(22) . . .
506(22) . . .
482(22) . . .
481(22) . . .
470(22) . . .
506(22) . . .
492(22) . . .
517(23) . . .
491(22) . . .
493(22) . . .
530(23) . . .
506(22) . . .
495(22) . . .
507(23) . . .
509(23) . . .
521(23) . . .
519(23) . . .
488(22) . . .
512(23) . . .
489(22) . . .
508(23) . . .
467(22) . . .
483(22) . . .
507(23) . . .
491(22) . . .
524(23) . . .
498(22) . . .
524(23) . . .
519(23) . . .
494(22) . . .
486(22) . . .
484(22) . . .
478(22) . . .
478(22) . . .
512(23) . . .
522(23) . . .
502(22) . . .
516(23) . . .
515(23) . . .
482(22) . . .
495(22) . . .
509(23) . . .
520(23) . . .
517(23) . . .
523(23) . . .
523(23) . . .
508(23) . . .
527(23) . . .
532(23) . . .
513(23) . . .
550(23) . . .
536(23) . . .
539(23) . . .
525(23) . . .
498(22) . . .
523(23) . . .
533(23) . . .
528(23) . . .
513(23) . . .
579(24) . . .
588(24) . . .
565(24) . . .
573(24) . . .
582(24) . . .
588(24) . . .
570(24) . . .
608(25) . . .
578(24) . . .
600(24) . . .
615(25) . . .
618(25) . . .
648(25) . . .
605(25) . . .
632(25) . . .
693(26) . . .
589(24) . . .
683(26) . . .
683(26) . . .
694(26) . . .
699(26) . . .
714(27) . . .
735(27) . . .
752(27) . . .
754(27) . . .
769(28) . . .
809(28) . . .
772(28) . . .
837(29) . . .
840(29) . . .
838(29) . . .
890(30) . . .
926(30) . . .
1002(32) . . .
1046(32) . . .
989(31) . . .
1100(33) . . .
1090(33) . . .
1223(35) . . .
1249(35) . . .
1238(35) . . .
1356(37) . . .
1451(38) . . .
1537(39) . . .
1741(42) . . .
1789(42) . . .
1959(44) . . .
2037(45) . . .
2241(47) . . .
2436(49) . . .
2648(51) . . .
2961(54) . . .
3228(57) . . .
3683(61) . . .
4042(64) . . .
4448(67) . . .
5218(72) . . .
5779(76) . . .
6802(82) . . .
7853(89) . . .
9314(97) . . .
11180(110) . . .
13410(120) . . .
16280(130) . . .
20050(140) . . .
24690(160) . . .
30540(180) . . .
37540(190) . . .
45840(210) . . .
54620(230) . . .
60700(250) . . .
63980(250) . . .
64100(250) . . .
61210(250) . . .
55110(240) . . .
47800(220) . . .
39470(200) . . .
32350(180) . . .
26260(160) . . .
21090(150) . . .
16990(130) . . .
14110(120) . . .
11520(110) . . .
9970(100) . . .
8148(90) . . .
7066(84) . . .
6023(78) . . .
5183(72) . . .
4589(68) . . .
3942(63) . . .
3642(60) . . .
3158(56) . . .
2942(54) . . .
2646(51) . . .
2465(50) . . .
2244(47) . . .
1966(44) . . .
1881(43) . . .
1737(42) . . .
1628(40) . . .
1579(40) . . .
1414(38) . . .
1319(36) . . .
1288(36) . . .
1196(35) . . .
1108(33) . . .
1102(33) . . .
1114(33) . . .
994(32) . . .
970(31) . . .
959(31) . . .
840(29) . . .
883(30) . . .
788(28) . . .
779(28) . . .
744(27) . . .
826(29) . . .
752(27) . . .
750(27) . . .
719(27) . . .
748(27) . . .
657(26) . . .
674(26) . . .
636(25) . . .
676(26) . . .
661(26) . . .
661(26) . . .
652(26) . . .
619(25) . . .
586(24) . . .
622(25) . . .
622(25) . . .
597(24) . . .
578(24) . . .
562(24) . . .
558(24) . . .
547(23) . . .
565(24) . . .
514(23) . . .
538(23) . . .
584(24) . . .
570(24) . . .
535(23) . . .
533(23) . . .
530(23) . . .
553(24) . . .
572(24) . . .
522(23) . . .
556(24) . . .
527(23) . . .
526(23) . . .
486(22) . . .
523(23) . . .
516(23) . . .
508(23) . . .
524(23) . . .
511(23) . . .
509(23) . . .
457(21) . . .
514(23) . . .
538(23) . . .
502(22) . . .
502(22) . . .
493(22) . . .
527(23) . . .
483(22) . . .
495(22) . . .
488(22) . . .
491(22) . . .
470(22) . . .
477(22) . . .
482(22) . . .
410(20) . . .
469(22) . . .
470(22) . . .
476(22) . . .
495(22) . . .
490(22) . . .
434(21) . . .
474(22) . . .
464(22) . . .
484(22) . . .
492(22) . . .
465(22) . . .
482(22) . . .
458(21) . . .
431(21) . . .
436(21) . . .
468(22) . . .
483(22) . . .
457(21) . . .
444(21) . . .
464(22) . . .
433(21) . . .
453(21) . . .
472(22) . . .
435(21) . . .
404(20) . . .
396(20) . . .
452(21) . . .
457(21) . . .
435(21) . . .
443(21) . . .
410(20) . . .
445(21) . . .
435(21) . . .
415(20) . . .
423(21) . . .
395(20) . . .
432(21) . . .
418(20) . . .
427(21) . . .
399(20) . . .
405(20) . . .
414(20) . . .
419(20) . . .
396(20) . . .
418(20) . . .
399(20) . . .
421(21) . . .
404(20) . . .
418(20) . . .
412(20) . . .
392(20) . . .
383(20) . . .
422(21) . . .
376(19) . . .
407(20) . . .
401(20) . . .
450(21) . . .
416(20) . . .
430(21) . . .
403(20) . . .
443(21) . . .
401(20) . . .
404(20) . . .
409(20) . . .
411(20) . . .
389(20) . . .
401(20) . . .
450(21) . . .
414(20) . . .
404(20) . . .
400(20) . . .
393(20) . . .
417(20) . . .
401(20) . . .
436(21) . . .
428(21) . . .
397(20) . . .
411(20) . . .
421(21) . . .
418(20) . . .
428(21) . . .
404(20) . . .
381(20) . . .
418(20) . . .
405(20) . . .
365(19) . . .
391(20) . . .
416(20) . . .
387(20) . . .
419(20) . . .
414(20) . . .
416(20) . . .
414(20) . . .
409(20) . . .
387(20) . . .
371(19) . . .
423(21) . . .
391(20) . . .
451(21) . . .
420(20) . . .
380(19) . . .
392(20) . . .
386(20) . . .
405(20) . . .
344(19) . . .
403(20) . . .
376(19) . . .
388(20) . . .
384(20) . . .
378(19) . . .
363(19) . . .
386(20) . . .
393(20) . . .
393(20) . . .
356(19) . . .
387(20) . . .
396(20) . . .
443(21) . . .
391(20) . . .
358(19) . . .
373(19) . . .
374(19) . . .
413(20) . . .
372(19) . . .
407(20) . . .
353(19) . . .
369(19) . . .
405(20) . . .
405(20) . . .
408(20) . . .
383(20) . . .
384(20) . . .
397(20) . . .
398(20) . . .
389(20) . . .
399(20) . . .
399(20) . . .
377(19) . . .
377(19) . . .
383(20) . . .
360(19) . . .
368(19) . . .
409(20) . . .
366(19) . . .
364(19) . . .
403(20) . . .
404(20) . . .
391(20) . . .
385(20) . . .
384(20) . . .
390(20) . . .
388(20) . . .
408(20) . . .
375(19) . . .
404(20) . . .
374(19) . . .
362(19) . . .
442(21) . . .
365(19) . . .
382(20) . . .
398(20) . . .
406(20) . . .
393(20) . . .
375(19) . . .
385(20) . . .
401(20) . . .
380(19) . . .
381(20) . . .
382(20) . . .
375(19) . . .
349(19) . . .
357(19) . . .
361(19) . . .
381(20) . . .
377(19) . . .
382(20) . . .
375(19) . . .
368(19) . . .
390(20) . . .
354(19) . . .
365(19) . . .
376(19) . . .
386(20) . . .
377(19) . . .
362(19) . . .
392(20) . . .
404(20) . . .
357(19) . . .
379(19) . . .
361(19) . . .
364(19) . . .
349(19) . . .
399(20) . . .
374(19) . . .
387(20) . . .
397(20) . . .
358(19) . . .
365(19) . . .
379(19) . . .
359(19) . . .
348(19) . . .
330(18) . . .
353(19) . . .
355(19) . . .
376(19) . . .
350(19) . . .
322(18) . . .
358(19) . . .
367(19) . . .
392(20) . . .
382(20) . . .
367(19) . . .
372(19) . . .
316(18) . . .
344(19) . . .
331(18) . . .
360(19) . . .
364(19) . . .
356(19) . . .
368(19) . . .
370(19) . . .
361(19) . . .
353(19) . . .
371(19) . . .
368(19) . . .
363(19) . . .
373(19) . . .
392(20) . . .
344(19) . . .
358(19) . . .
386(20) . . .
342(18) . . .
346(19) . . .
332(18) . . .
363(19) . . .
370(19) . . .
374(19) . . .
363(19) . . .
380(19) . . .
419(20) . . .
349(19) . . .
368(19) . . .
361(19) . . .
366(19) . . .
397(20) . . .
373(19) . . .
354(19) . . .
364(19) . . .
368(19) . . .
345(19) . . .
388(20) . . .
353(19) . . .
365(19) . . .
365(19) . . .
352(19) . . .
392(20) . . .
366(19) . . .
364(19) . . .
372(19) . . .
390(20) . . .
364(19) . . .
330(18) . . .
361(19) . . .
380(19) . . .
363(19) . . .
393(20) . . .
352(19) . . .
395(20) . . .
365(19) . . .
390(20) . . .
433(21) . . .
404(20) . . .
370(19) . . .
365(19) . . .
367(19) . . .
372(19) . . .
413(20) . . .
373(19) . . .
380(19) . . .
397(20) . . .
393(20) . . .
381(20) . . .
334(18) . . .
360(19) . . .
387(20) . . .
312(18) . . .
391(20) . . .
368(19) . . .
384(20) . . .
360(19) . . .
340(18) . . .
377(19) . . .
361(19) . . .
392(20) . . .
369(19) . . .
356(19) . . .
361(19) . . .
361(19) . . .
393(20) . . .
363(19) . . .
375(19) . . .
378(19) . . .
357(19) . . .
362(19) . . .
373(19) . . .
363(19) . . .
363(19) . . .
356(19) . . .
371(19) . . .
333(18) . . .
372(19) . . .
376(19) . . .
347(19) . . .
347(19) . . .
350(19) . . .
322(18) . . .
365(19) . . .
368(19) . . .
417(20) . . .
383(20) . . .
389(20) . . .
379(19) . . .
372(19) . . .
368(19) . . .
319(18) . . .
361(19) . . .
366(19) . . .
372(19) . . .
371(19) . . .
364(19) . . .
346(19) . . .
387(20) . . .
340(18) . . .
367(19) . . .
357(19) . . .
363(19) . . .
364(19) . . .
370(19) . . .
348(19) . . .
361(19) . . .
364(19) . . .
384(20) . . .
382(20) . . .
374(19) . . .
374(19) . . .
377(19) . . .
360(19) . . .
394(20) . . .
352(19) . . .
358(19) . . .
363(19) . . .
354(19) . . .
329(18) . . .
360(19) . . .
369(19) . . .
370(19) . . .
346(19) . . .
357(19) . . .
365(19) . . .
345(19) . . .
399(20) . . .
363(19) . . .
358(19) . . .
328(18) . . .
344(19) . . .
349(19) . . .
315(18) . . .
345(19) . . .
331(18) . . .
351(19) . . .
356(19) . . .
326(18) . . .
371(19) . . .
373(19) . . .
348(19) . . .
352(19) . . .
344(19) . . .
355(19) . . .
379(19) . . .
361(19) . . .
344(19) . . .
374(19) . . .
347(19) . . .
354(19) . . .
317(18) . . .
361(19) . . .
375(19) . . .
321(18) . . .
351(19) . . .
348(19) . . .
310(18) . . .
345(19) . . .
368(19) . . .
338(18) . . .
343(19) . . .
342(18) . . .
326(18) . . .
333(18) . . .
368(19) . . .
352(19) . . .
358(19) . . .
323(18) . . .
334(18) . . .
376(19) . . .
340(18) . . .
346(19) . . .
359(19) . . .
354(19) . . .
315(18) . . .
318(18) . . .
332(18) . . .
358(19) . . .
353(19) . . .
326(18) . . .
365(19) . . .
344(19) . . .
322(18) . . .
351(19) . . .
360(19) . . .
359(19) . . .
331(18) . . .
365(19) . . .
351(19) . . .
340(18) . . .
357(19) . . .
336(18) . . .
358(19) . . .
349(19) . . .
360(19) . . .
351(19) . . .
353(19) . . .
371(19) . . .
369(19) . . .
339(18) . . .
351(19) . . .
346(19) . . .
356(19) . . .
377(19) . . .
359(19) . . .
343(19) . . .
341(18) . . .
352(19) . . .
368(19) . . .
326(18) . . .
294(17) . . .
347(19) . . .
333(18) . . .
357(19) . . .
357(19) . . .
366(19) . . .
326(18) . . .
356(19) . . .
340(18) . . .
363(19) . . .
324(18) . . .
346(19) . . .
316(18) . . .
361(19) . . .
359(19) . . .
352(19) . . .
352(19) . . .
348(19) . . .
327(18) . . .
316(18) . . .
337(18) . . .
312(18) . . .
360(19) . . .
327(18) . . .
333(18) . . .
344(19) . . .
344(19) . . .
323(18) . . .
333(18) . . .
365(19) . . .
336(18) . . .
342(18) . . .
335(18) . . .
382(20) . . .
329(18) . . .
350(19) . . .
333(18) . . .
375(19) . . .
356(19) . . .
340(18) . . .
312(18) . . .
341(18) . . .
355(19) . . .
356(19) . . .
327(18) . . .
340(18) . . .
347(19) . . .
341(18) . . .
309(18) . . .
368(19) . . .
318(18) . . .
346(19) . . .
352(19) . . .
360(19) . . .
359(19) . . .
335(18) . . .
329(18) . . .
367(19) . . .
351(19) . . .
370(19) . . .
352(19) . . .
362(19) . . .
367(19) . . .
362(19) . . .
368(19) . . .
336(18) . . .
380(19) . . .
343(19) . . .
357(19) . . .
382(20) . . .
349(19) . . .
377(19) . . .
376(19) . . .
350(19) . . .
351(19) . . .
384(20) . . .
368(19) . . .
376(19) . . .
370(19) . . .
357(19) . . .
336(18) . . .
397(20) . . .
389(20) . . .
325(18) . . .
336(18) . . .
396(20) . . .
371(19) . . .
376(19) . . .
331(18) . . .
342(18) . . .
377(19) . . .
341(18) . . .
344(19) . . .
338(18) . . .
342(18) . . .
347(19) . . .
354(19) . . .
392(20) . . .
367(19) . . .
330(18) . . .
341(18) . . .
346(19) . . .
363(19) . . .
326(18) . . .
354(19) . . .
349(19) . . .
330(18) . . .
336(18) . . .
355(19) . . .
340(18) . . .
353(19) . . .
353(19) . . .
373(19) . . .
354(19) . . .
392(20) . . .
351(19) . . .
333(18) . . .
378(19) . . .
333(18) . . .
364(19) . . .
360(19) . . .
349(19) . . .
337(18) . . .
359(19) . . .
318(18) . . .
324(18) . . .
352(19) . . .
338(18) . . .
347(19) . . .
341(18) . . .
351(19) . . .
328(18) . . .
346(19) . . .
337(18) . . .
330(18) . . .
333(18) . . .
331(18) . . .
315(18) . . .
334(18) . . .
340(18) . . .
301(17) . . .
357(19) . . .
329(18) . . .
345(19) . . .
352(19) . . .
341(18) . . .
348(19) . . .
337(18) . . .
331(18) . . .
331(18) . . .
348(19) . . .
341(18) . . .
357(19) . . .
354(19) . . .
352(19) . . .
334(18) . . .
378(19) . . .
314(18) . . .
337(18) . . .
349(19) . . .
334(18) . . .
363(19) . . .
348(19) . . .
345(19) . . .
360(19) . . .
338(18) . . .
317(18) . . .
344(19) . . .
336(18) . . .
363(19) . . .
351(19) . . .
339(18) . . .
327(18) . . .
323(18) . . .
335(18) . . .
320(18) . . .
354(19) . . .
340(18) . . .
338(18) . . .
341(18) . . .
327(18) . . .
316(18) . . .
332(18) . . .
340(18) . . .
339(18) . . .
336(18) . . .
311(18) . . .
325(18) . . .
333(18) . . .
350(19) . . .
334(18) . . .
323(18) . . .
309(18) . . .
343(19) . . .
331(18) . . .
318(18) . . .
361(19) . . .
338(18) . . .
320(18) . . .
364(19) . . .
294(17) . . .
310(18) . . .
302(17) . . .
303(17) . . .
335(18) . . .
305(17) . . .
310(18) . . .
302(17) . . .
350(19) . . .
326(18) . . .
329(18) . . .
351(19) . . .
351(19) . . .
342(18) . . .
319(18) . . .
331(18) . . .
344(19) . . .
319(18) . . .
322(18) . . .
365(19) . . .
332(18) . . .
319(18) . . .
326(18) . . .
320(18) . . .
310(18) . . .
351(19) . . .
359(19) . . .
313(18) . . .
376(19) . . .
323(18) . . .
326(18) . . .
338(18) . . .
345(19) . . .
332(18) . . .
339(18) . . .
370(19) . . .
332(18) . . .
327(18) . . .
282(17) . . .
330(18) . . .
331(18) . . .
303(17) . . .
324(18) . . .
322(18) . . .
334(18) . . .
337(18) . . .
316(18) . . .
319(18) . . .
341(18) . . .
344(19) . . .
324(18) . . .
311(18) . . .
340(18) . . .
332(18) . . .
346(19) . . .
313(18) . . .
326(18) . . .
337(18) . . .
345(19) . . .
336(18) . . .
351(19) . . .
305(17) . . .
334(18) . . .
315(18) . . .
332(18) . . .
337(18) . . .
337(18) . . .
356(19) . . .
343(19) . . .
333(18) . . .
311(18) . . .
329(18) . . .
303(17) . . .
324(18) . . .
343(19) . . .
320(18) . . .
339(18) . . .
342(18) . . .
309(18) . . .
312(18) . . .
347(19) . . .
336(18) . . .
327(18) . . .
314(18) . . .
322(18) . . .
314(18) . . .
339(18) . . .
334(18) . . .
324(18) . . .
341(18) . . .
336(18) . . .
300(17) . . .
313(18) . . .
324(18) . . .
336(18) . . .
329(18) . . .
308(18) . . .
316(18) . . .
323(18) . . .
325(18) . . .
334(18) . . .
335(18) . . .
319(18) . . .
335(18) . . .
332(18) . . .
318(18) . . .
326(18) . . .
311(18) . . .
326(18) . . .
303(17) . . .
318(18) . . .
329(18) . . .
329(18) . . .
332(18) . . .
321(18) . . .
320(18) . . .
334(18) . . .
329(18) . . .
315(18) . . .
349(19) . . .
313(18) . . .
320(18) . . .
330(18) . . .
319(18) . . .
345(19) . . .
327(18) . . .
325(18) . . .
332(18) . . .
350(19) . . .
316(18) . . .
321(18) . . .
340(18) . . .
330(18) . . .
328(18) . . .
337(18) . . .
344(19) . . .
348(19) . . .
342(18) . . .
330(18) . . .
350(19) . . .
322(18) . . .
325(18) . . .
308(18) . . .
347(19) . . .
307(18) . . .
320(18) . . .
313(18) . . .
306(17) . . .
284(17) . . .
321(18) . . .
319(18) . . .
282(17) . . .
328(18) . . .
314(18) . . .
327(18) . . .
338(18) . . .
311(18) . . .
324(18) . . .
345(19) . . .
309(18) . . .
334(18) . . .
365(19) . . .
341(18) . . .
327(18) . . .
319(18) . . .
288(17) . . .
322(18) . . .
303(17) . . .
308(18) . . .
339(18) . . .
321(18) . . .
304(17) . . .
337(18) . . .
330(18) . . .
323(18) . . .
347(19) . . .
348(19) . . .
329(18) . . .
331(18) . . .
334(18) . . .
345(19) . . .
369(19) . . .
338(18) . . .
334(18) . . .
328(18) . . .
341(18) . . .
320(18) . . .
349(19) . . .
338(18) . . .
343(19) . . .
344(19) . . .
365(19) . . .
315(18) . . .
370(19) . . .
349(19) . . .
356(19) . . .
362(19) . . .
354(19) . . .
351(19) . . .
360(19) . . .
376(19) . . .
378(19) . . .
362(19) . . .
393(20) . . .
360(19) . . .
368(19) . . .
387(20) . . .
376(19) . . .
375(19) . . .
382(20) . . .
379(19) . . .
368(19) . . .
352(19) . . .
386(20) . . .
382(20) . . .
376(19) . . .
376(19) . . .
370(19) . . .
378(19) . . .
363(19) . . .
354(19) . . .
371(19) . . .
340(18) . . .
381(20) . . .
363(19) . . .
308(18) . . .
352(19) . . .
357(19) . . .
346(19) . . .
343(19) . . .
337(18) . . .
359(19) . . .
371(19) . . .
331(18) . . .
355(19) . . .
359(19) . . .
349(19) . . .
334(18) . . .
326(18) . . .
344(19) . . .
346(19) . . .
340(18) . . .
344(19) . . .
358(19) . . .
335(18) . . .
361(19) . . .
348(19) . . .
327(18) . . .
360(19) . . .
340(18) . . .
374(19) . . .
347(19) . . .
333(18) . . .
359(19) . . .
358(19) . . .
355(19) . . .
372(19) . . .
390(20) . . .
354(19) . . .
373(19) . . .
362(19) . . .
373(19) . . .
373(19) . . .
374(19) . . .
356(19) . . .
340(18) . . .
350(19) . . .
369(19) . . .
344(19) . . .
379(19) . . .
380(19) . . .
382(20) . . .
366(19) . . .
361(19) . . .
398(20) . . .
347(19) . . .
400(20) . . .
348(19) . . .
342(18) . . .
394(20) . . .
347(19) . . .
392(20) . . .
326(18) . . .
378(19) . . .
386(20) . . .
363(19) . . .
402(20) . . .
386(20) . . .
375(19) . . .
380(19) . . .
391(20) . . .
342(18) . . .
340(18) . . .
384(20) . . .
373(19) . . .
360(19) . . .
415(20) . . .
372(19) . . .
374(19) . . .
396(20) . . .
356(19) . . .
345(19) . . .
339(18) . . .
353(19) . . .
360(19) . . .
361(19) . . .
345(19) . . .
351(19) . . .
346(19) . . .
342(18) . . .
363(19) . . .
340(18) . . .
341(18) . . .
346(19) . . .
343(19) . . .
357(19) . . .
360(19) . . .
331(18) . . .
359(19) . . .
343(19) . . .
313(18) . . .
341(18) . . .
349(19) . . .
351(19) . . .
354(19) . . .
346(19) . . .
317(18) . . .
332(18) . . .
359(19) . . .
328(18) . . .
333(18) . . .
351(19) . . .
349(19) . . .
350(19) . . .
371(19) . . .
336(18) . . .
338(18) . . .
340(18) . . .
342(18) . . .
364(19) . . .
358(19) . . .
317(18) . . .
330(18) . . .
355(19) . . .
391(20) . . .
367(19) . . .
366(19) . . .
363(19) . . .
383(20) . . .
329(18) . . .
367(19) . . .
325(18) . . .
346(19) . . .
349(19) . . .
335(18) . . .
342(18) . . .
319(18) . . .
342(18) . . .
334(18) . . .
343(19) . . .
332(18) . . .
376(19) . . .
344(19) . . .
338(18) . . .
338(18) . . .
340(18) . . .
332(18) . . .
330(18) . . .
375(19) . . .
332(18) . . .
346(19) . . .
341(18) . . .
365(19) . . .
371(19) . . .
346(19) . . .
362(19) . . .
332(18) . . .
329(18) . . .
341(18) . . .
343(19) . . .
363(19) . . .
346(19) . . .
347(19) . . .
359(19) . . .
348(19) . . .
370(19) . . .
333(18) . . .
318(18) . . .
350(19) . . .
349(19) . . .
348(19) . . .
346(19) . . .
339(18) . . .
371(19) . . .
331(18) . . .
364(19) . . .
342(18) . . .
356(19) . . .
330(18) . . .
360(19) . . .
341(18) . . .
362(19) . . .
356(19) . . .
343(19) . . .
302(17) . . .
386(20) . . .
354(19) . . .
362(19) . . .
370(19) . . .
347(19) . . .
323(18) . . .
331(18) . . .
375(19) . . .
342(18) . . .
353(19) . . .
368(19) . . .
350(19) . . .
343(19) . . .
365(19) . . .
323(18) . . .
313(18) . . .
352(19) . . .
323(18) . . .
340(18) . . .
350(19) . . .
316(18) . . .
342(18) . . .
332(18) . . .
365(19) . . .
321(18) . . .
363(19) . . .
366(19) . . .
355(19) . . .
354(19) . . .
344(19) . . .
343(19) . . .
365(19) . . .
356(19) . . .
361(19) . . .
334(18) . . .
353(19) . . .
351(19) . . .
353(19) . . .
358(19) . . .
336(18) . . .
340(18) . . .
317(18) . . .
347(19) . . .
357(19) . . .
326(18) . . .
354(19) . . .
333(18) . . .
370(19) . . .
351(19) . . .
337(18) . . .
317(18) . . .
336(18) . . .
348(19) . . .
330(18) . . .
332(18) . . .
360(19) . . .
345(19) . . .
335(18) . . .
344(19) . . .
348(19) . . .
344(19) . . .
316(18) . . .
354(19) . . .
345(19) . . .
332(18) . . .
352(19) . . .
312(18) . . .
355(19) . . .
334(18) . . .
355(19) . . .
351(19) . . .
337(18) . . .
323(18) . . .
348(19) . . .
350(19) . . .
320(18) . . .
350(19) . . .
338(18) . . .
340(18) . . .
353(19) . . .
358(19) . . .
350(19) . . .
342(18) . . .
365(19) . . .
348(19) . . .
332(18) . . .
348(19) . . .
355(19) . . .
380(19) . . .
370(19) . . .
363(19) . . .
334(18) . . .
330(18) . . .
350(19) . . .
358(19) . . .
348(19) . . .
354(19) . . .
346(19) . . .
372(19) . . .
358(19) . . .
343(19) . . .
349(19) . . .
359(19) . . .
335(18) . . .
332(18) . . .
325(18) . . .
334(18) . . .
347(19) . . .
320(18) . . .
327(18) . . .
335(18) . . .
359(19) . . .
337(18) . . .
330(18) . . .
351(19) . . .
320(18) . . .
334(18) . . .
364(19) . . .
376(19) . . .
328(18) . . .
350(19) . . .
332(18) . . .
304(17) . . .
356(19) . . .
351(19) . . .
344(19) . . .
335(18) . . .
325(18) . . .
361(19) . . .
359(19) . . .
372(19) . . .
373(19) . . .
362(19) . . .
335(18) . . .
334(18) . . .
331(18) . . .
323(18) . . .
371(19) . . .
318(18) . . .
331(18) . . .
362(19) . . .
378(19) . . .
344(19) . . .
391(20) . . .
352(19) . . .
372(19) . . .
359(19) . . .
362(19) . . .
346(19) . . .
379(19) . . .
358(19) . . .
388(20) . . .
350(19) . . .
335(18) . . .
376(19) . . .
388(20) . . .
381(20) . . .
373(19) . . .
373(19) . . .
377(19) . . .
358(19) . . .
384(20) . . .
365(19) . . .
382(20) . . .
364(19) . . .
350(19) . . .
367(19) . . .
370(19) . . .
363(19) . . .
359(19) . . .
376(19) . . .
338(18) . . .
343(19) . . .
385(20) . . .
382(20) . . .
360(19) . . .
337(18) . . .
357(19) . . .
381(20) . . .
373(19) . . .
364(19) . . .
362(19) . . .
359(19) . . .
382(20) . . .
395(20) . . .
396(20) . . .
368(19) . . .
385(20) . . .
372(19) . . .
364(19) . . .
378(19) . . .
381(20) . . .
394(20) . . .
389(20) . . .
408(20) . . .
373(19) . . .
379(19) . . .
415(20) . . .
413(20) . . .
429(21) . . .
428(21) . . .
419(20) . . .
403(20) . . .
424(21) . . .
431(21) . . .
443(21) . . .
460(21) . . .
472(22) . . .
491(22) . . .
687(26) . . .
564(24) . . .
738(27) . . .
475(22) . . .
491(22) . . .
464(22) . . .
483(22) . . .
454(21) . . .
483(22) . . .
476(22) . . .
514(23) . . .
502(22) . . .
495(22) . . .
538(23) . . .
523(23) . . .
534(23) . . .
532(23) . . .
578(24) . . .
574(24) . . .
523(23) . . .
550(23) . . .
546(23) . . .
556(24) . . .
556(24) . . .
620(25) . . .
639(25) . . .
649(25) . . .
618(25) . . .
653(26) . . .
710(27) . . .
712(27) . . .
753(27) . . .
737(27) . . .
819(29) . . .
830(29) . . .
828(29) . . .
879(30) . . .
879(30) . . .
971(31) . . .
972(31) . . .
1061(33) . . .
1134(34) . . .
1193(35) . . .
1262(36) . . .
1327(36) . . .
1429(38) . . .
1589(40) . . .
1658(41) . . .
1787(42) . . .
1955(44) . . .
2202(47) . . .
2493(50) . . .
2736(52) . . .
3038(55) . . .
3423(59) . . .
3860(62) . . .
4353(66) . . .
4982(71) . . .
5865(77) . . .
6782(82) . . .
7988(89) . . .
9377(97) . . .
11120(110) . . .
12950(110) . . .
15380(120) . . .
18370(140) . . .
21380(150) . . .
24390(160) . . .
26830(160) . . .
28930(170) . . .
29740(170) . . .
29350(170) . . .
28630(170) . . .
26140(160) . . .
23780(150) . . .
20430(140) . . .
17370(130) . . .
14590(120) . . .
12500(110) . . .
10390(100) . . .
8639(93) . . .
7338(86) . . .
6237(79) . . .
5229(72) . . .
4638(68) . . .
4048(64) . . .
3557(60) . . .
3121(56) . . .
2903(54) . . .
2548(50) . . .
2307(48) . . .
2038(45) . . .
1874(43) . . .
1735(42) . . .
1670(41) . . .
1477(38) . . .
1356(37) . . .
1332(36) . . .
1197(35) . . .
1154(34) . . .
1072(33) . . .
1057(33) . . .
997(32) . . .
885(30) . . .
929(30) . . .
831(29) . . .
862(29) . . .
773(28) . . .
793(28) . . .
686(26) . . .
713(27) . . .
706(27) . . .
652(26) . . .
594(24) . . .
622(25) . . .
604(25) . . .
628(25) . . .
622(25) . . .
594(24) . . .
548(23) . . .
537(23) . . .
577(24) . . .
567(24) . . .
547(23) . . .
516(23) . . .
502(22) . . .
528(23) . . .
499(22) . . .
482(22) . . .
480(22) . . .
471(22) . . .
471(22) . . .
460(21) . . .
460(21) . . .
463(22) . . .
464(22) . . .
490(22) . . .
470(22) . . .
425(21) . . .
431(21) . . .
420(20) . . .
463(22) . . .
437(21) . . .
447(21) . . .
405(20) . . .
405(20) . . .
399(20) . . .
412(20) . . .
401(20) . . .
402(20) . . .
416(20) . . .
417(20) . . .
403(20) . . .
404(20) . . .
413(20) . . .
417(20) . . .
420(20) . . .
393(20) . . .
375(19) . . .
427(21) . . .
371(19) . . .
413(20) . . .
402(20) . . .
385(20) . . .
368(19) . . .
378(19) . . .
371(19) . . .
370(19) . . .
373(19) . . .
415(20) . . .
414(20) . . .
370(19) . . .
419(20) . . .
371(19) . . .
422(21) . . .
382(20) . . .
395(20) . . .
380(19) . . .
382(20) . . .
371(19) . . .
403(20) . . .
385(20) . . .
371(19) . . .
359(19) . . .
368(19) . . .
396(20) . . .
350(19) . . .
359(19) . . .
382(20) . . .
356(19) . . .
392(20) . . .
381(20) . . .
382(20) . . .
369(19) . . .
382(20) . . .
392(20) . . .
345(19) . . .
358(19) . . .
397(20) . . .
373(19) . . .
376(19) . . .
347(19) . . .
351(19) . . .
356(19) . . .
373(19) . . .
372(19) . . .
359(19) . . .
347(19) . . .
392(20) . . .
379(19) . . .
364(19) . . .
375(19) . . .
379(19) . . .
336(18) . . .
408(20) . . .
360(19) . . .
340(18) . . .
369(19) . . .
361(19) . . .
334(18) . . .
353(19) . . .
347(19) . . .
362(19) . . .
360(19) . . .
371(19) . . .
357(19) . . .
330(18) . . .
360(19) . . .
377(19) . . .
343(19) . . .
369(19) . . .
321(18) . . .
343(19) . . .
353(19) . . .
360(19) . . .
352(19) . . .
385(20) . . .
373(19) . . .
382(20) . . .
364(19) . . .
339(18) . . .
353(19) . . .
357(19) . . .
344(19) . . .
327(18) . . .
344(19) . . .
355(19) . . .
372(19) . . .
340(18) . . .
371(19) . . .
346(19) . . .
352(19) . . .
381(20) . . .
360(19) . . .
365(19) . . .
385(20) . . .
323(18) . . .
327(18) . . .
370(19) . . .
340(18) . . .
354(19) . . .
357(19) . . .
354(19) . . .
350(19) . . .
338(18) . . .
312(18) . . .
347(19) . . .
338(18) . . .
336(18) . . .
361(19) . . .
352(19) . . .
335(18) . . .
333(18) . . .
332(18) . . .
375(19) . . .
377(19) . . .
343(19) . . .
369(19) . . .
358(19) . . .
355(19) . . .
337(18) . . .
328(18) . . .
368(19) . . .
333(18) . . .
351(19) . . .
348(19) . . .
354(19) . . .
339(18) . . .
334(18) . . .
308(18) . . .
348(19) . . .
321(18) . . .
320(18) . . .
358(19) . . .
345(19) . . .
344(19) . . .
335(18) . . .
339(18) . . .
348(19) . . .
330(18) . . .
317(18) . . .
352(19) . . .
326(18) . . .
346(19) . . .
314(18) . . .
333(18) . . .
320(18) . . .
345(19) . . .
333(18) . . .
338(18) . . .
349(19) . . .
318(18) . . .
356(19) . . .
364(19) . . .
336(18) . . .
330(18) . . .
340(18) . . .
301(17) . . .
333(18) . . .
337(18) . . .
329(18) . . .
333(18) . . .
318(18) . . .
331(18) . . .
312(18) . . .
337(18) . . .
339(18) . . .
347(19) . . .
343(19) . . .
318(18) . . .
343(19) . . .
341(18) . . .
320(18) . . .
327(18) . . .
343(19) . . .
298(17) . . .
322(18) . . .
313(18) . . .
355(19) . . .
351(19) . . .
335(18) . . .
339(18) . . .
338(18) . . .
345(19) . . .
331(18) . . .
347(19) . . .
305(17) . . .
322(18) . . .
322(18) . . .
297(17) . . .
336(18) . . .
337(18) . . .
310(18) . . .
323(18) . . .
326(18) . . .
301(17) . . .
312(18) . . .
344(19) . . .
304(17) . . .
325(18) . . .
342(18) . . .
334(18) . . .
286(17) . . .
329(18) . . .
305(17) . . .
314(18) . . .
326(18) . . .
323(18) . . .
303(17) . . .
301(17) . . .
337(18) . . .
315(18) . . .
325(18) . . .
337(18) . . .
331(18) . . .
314(18) . . .
348(19) . . .
323(18) . . .
338(18) . . .
327(18) . . .
346(19) . . .
363(19) . . .
356(19) . . .
306(17) . . .
325(18) . . .
342(18) . . .
326(18) . . .
330(18) . . .
337(18) . . .
314(18) . . .
314(18) . . .
330(18) . . .
321(18) . . .
312(18) . . .
306(17) . . .
334(18) . . .
313(18) . . .
314(18) . . .
341(18) . . .
331(18) . . .
311(18) . . .
313(18) . . .
310(18) . . .
304(17) . . .
297(17) . . .
309(18) . . .
311(18) . . .
313(18) . . .
284(17) . . .
280(17) . . .
308(18) . . .
318(18) . . .
289(17) . . .
320(18) . . .
299(17) . . .
344(19) . . .
338(18) . . .
302(17) . . .
347(19) . . .
313(18) . . .
328(18) . . .
315(18) . . .
283(17) . . .
332(18) . . .
297(17) . . .
354(19) . . .
354(19) . . .
350(19) . . .
359(19) . . .
389(20) . . .
380(19) . . .
357(19) . . .
355(19) . . .
321(18) . . .
338(18) . . .
357(19) . . .
362(19) . . .
354(19) . . .
316(18) . . .
341(18) . . .
320(18) . . .
326(18) . . .
341(18) . . .
329(18) . . .
346(19) . . .
325(18) . . .
333(18) . . .
321(18) . . .
330(18) . . .
364(19) . . .
329(18) . . .
340(18) . . .
314(18) . . .
319(18) . . .
350(19) . . .
326(18) . . .
364(19) . . .
307(18) . . .
309(18) . . .
326(18) . . .
334(18) . . .
302(17) . . .
340(18) . . .
313(18) . . .
302(17) . . .
325(18) . . .
316(18) . . .
324(18) . . .
339(18) . . .
309(18) . . .
323(18) . . .
312(18) . . .
300(17) . . .
292(17) . . .
321(18) . . .
307(18) . . .
321(18) . . .
310(18) . . .
314(18) . . .
317(18) . . .
293(17) . . .
315(18) . . .
331(18) . . .
342(18) . . .
317(18) . . .
334(18) . . .
321(18) . . .
320(18) . . .
314(18) . . .
323(18) . . .
314(18) . . .
314(18) . . .
341(18) . . .
326(18) . . .
327(18) . . .
314(18) . . .
333(18) . . .
336(18) . . .
311(18) . . .
340(18) . . .
300(17) . . .
289(17) . . .
338(18) . . .
313(18) . . .
313(18) . . .
331(18) . . .
302(17) . . .
337(18) . . .
320(18) . . .
316(18) . . .
311(18) . . .
311(18) . . .
325(18) . . .
344(19) . . .
332(18) . . .
334(18) . . .
309(18) . . .
342(18) . . .
305(17) . . .
319(18) . . .
321(18) . . .
345(19) . . .
318(18) . . .
294(17) . . .
302(17) . . .
312(18) . . .
297(17) . . .
328(18) . . .
336(18) . . .
317(18) . . .
317(18) . . .
327(18) . . .
296(17) . . .
314(18) . . .
345(19) . . .
306(17) . . .
333(18) . . .
326(18) . . .
352(19) . . .
317(18) . . .
327(18) . . .
332(18) . . .
309(18) . . .
327(18) . . .
343(19) . . .
311(18) . . .
334(18) . . .
320(18) . . .
316(18) . . .
339(18) . . .
338(18) . . .
324(18) . . .
319(18) . . .
333(18) . . .
318(18) . . .
359(19) . . .
329(18) . . .
326(18) . . .
331(18) . . .
347(19) . . .
325(18) . . .
322(18) . . .
325(18) . . .
343(19) . . .
346(19) . . .
310(18) . . .
363(19) . . .
357(19) . . .
322(18) . . .
341(18) . . .
311(18) . . .
350(19) . . .
332(18) . . .
351(19) . . .
353(19) . . .
388(20) . . .
344(19) . . .
333(18) . . .
350(19) . . .
351(19) . . .
354(19) . . .
352(19) . . .
335(18) . . .
351(19) . . .
348(19) . . .
356(19) . . .
367(19) . . .
362(19) . . .
357(19) . . .
328(18) . . .
389(20) . . .
362(19) . . .
365(19) . . .
367(19) . . .
346(19) . . .
344(19) . . .
338(18) . . .
323(18) . . .
357(19) . . .
352(19) . . .
344(19) . . .
337(18) . . .
341(18) . . .
347(19) . . .
347(19) . . .
381(20) . . .
365(19) . . .
371(19) . . .
357(19) . . .
322(18) . . .
341(18) . . .
329(18) . . .
327(18) . . .
351(19) . . .
327(18) . . .
309(18) . . .
345(19) . . .
335(18) . . .
335(18) . . .
332(18) . . .
328(18) . . .
332(18) . . .
341(18) . . .
369(19) . . .
349(19) . . .
388(20) . . .
371(19) . . .
331(18) . . .
356(19) . . .
358(19) . . .
353(19) . . .
356(19) . . .
360(19) . . .
370(19) . . .
352(19) . . .
361(19) . . .
340(18) . . .
342(18) . . .
348(19) . . .
348(19) . . .
353(19) . . .
359(19) . . .
376(19) . . .
333(18) . . .
342(18) . . .
352(19) . . .
388(20) . . .
361(19) . . .
352(19) . . .
360(19) . . .
369(19) . . .
345(19) . . .
382(20) . . .
337(18) . . .
341(18) . . .
353(19) . . .
347(19) . . .
356(19) . . .
347(19) . . .
354(19) . . .
340(18) . . .
335(18) . . .
357(19) . . .
386(20) . . .
337(18) . . .
356(19) . . .
370(19) . . .
348(19) . . .
339(18) . . .
330(18) . . .
340(18) . . .
354(19) . . .
340(18) . . .
305(17) . . .
316(18) . . .
315(18) . . .
315(18) . . .
341(18) . . .
354(19) . . .
343(19) . . .
335(18) . . .
345(19) . . .
330(18) . . .
331(18) . . .
317(18) . . .
318(18) . . .
353(19) . . .
322(18) . . .
320(18) . . .
296(17) . . .
327(18) . . .
313(18) . . .
324(18) . . .
294(17) . . .
320(18) . . .
329(18) . . .
356(19) . . .
347(19) . . .
342(18) . . .
310(18) . . .
321(18) . . .
343(19) . . .
344(19) . . .
348(19) . . .
334(18) . . .
341(18) . . .
344(19) . . .
315(18) . . .
329(18) . . .
342(18) . . .
341(18) . . .
347(19) . . .
329(18) . . .
333(18) . . .
331(18) . . .
303(17) . . .
334(18) . . .
334(18) . . .
357(19) . . .
330(18) . . .
319(18) . . .
329(18) . . .
334(18) . . .
352(19) . . .
354(19) . . .
326(18) . . .
353(19) . . .
317(18) . . .
316(18) . . .
359(19) . . .
361(19) . . .
356(19) . . .
333(18) . . .
359(19) . . .
355(19) . . .
347(19) . . .
349(19) . . .
324(18) . . .
351(19) . . .
324(18) . . .
342(18) . . .
314(18) . . .
332(18) . . .
332(18) . . .
319(18) . . .
308(18) . . .
334(18) . . .
337(18) . . .
344(19) . . .
332(18) . . .
332(18) . . .
315(18) . . .
364(19) . . .
327(18) . . .
341(18) . . .
338(18) . . .
311(18) . . .
306(17) . . .
333(18) . . .
320(18) . . .
298(17) . . .
296(17) . . .
325(18) . . .
345(19) . . .
336(18) . . .
346(19) . . .
302(17) . . .
320(18) . . .
312(18) . . .
321(18) . . .
304(17) . . .
298(17) . . .
319(18) . . .
313(18) . . .
307(18) . . .
302(17) . . .
277(17) . . .
282(17) . . .
282(17) . . .
290(17) . . .
302(17) . . .
309(18) . . .
328(18) . . .
286(17) . . .
293(17) . . .
302(17) . . .
272(16) . . .
261(16) . . .
298(17) . . .
311(18) . . .
339(18) . . .
337(18) . . .
308(18) . . .
302(17) . . .
300(17) . . .
293(17) . . .
307(18) . . .
301(17) . . .
300(17) . . .
315(18) . . .
303(17) . . .
310(18) . . .
297(17) . . .
318(18) . . .
288(17) . . .
287(17) . . .
295(17) . . .
304(17) . . .
315(18) . . .
300(17) . . .
299(17) . . .
289(17) . . .
340(18) . . .
332(18) . . .
279(17) . . .
300(17) . . .
280(17) . . .
287(17) . . .
294(17) . . .
299(17) . . .
312(18) . . .
292(17) . . .
326(18) . . .
296(17) . . .
300(17) . . .
315(18) . . .
302(17) . . .
308(18) . . .
304(17) . . .
309(18) . . .
299(17) . . .
298(17) . . .
307(18) . . .
328(18) . . .
297(17) . . .
274(17) . . .
292(17) . . .
310(18) . . .
310(18) . . .
299(17) . . .
322(18) . . .
299(17) . . .
310(18) . . .
317(18) . . .
315(18) . . .
308(18) . . .
337(18) . . .
313(18) . . .
294(17) . . .
337(18) . . .
307(18) . . .
288(17) . . .
305(17) . . .
322(18) . . .
335(18) . . .
334(18) . . .
332(18) . . .
309(18) . . .
329(18) . . .
318(18) . . .
311(18) . . .
330(18) . . .
334(18) . . .
329(18) . . .
324(18) . . .
314(18) . . .
331(18) . . .
304(17) . . .
277(17) . . .
295(17) . . .
313(18) . . .
288(17) . . .
305(17) . . .
316(18) . . .
297(17) . . .
312(18) . . .
303(17) . . .
295(17) . . .
306(17) . . .
318(18) . . .
284(17) . . .
321(18) . . .
339(18) . . .
300(17) . . .
305(17) . . .
298(17) . . .
293(17) . . .
336(18) . . .
297(17) . . .
345(19) . . .
289(17) . . .
298(17) . . .
322(18) . . .
344(19) . . .
297(17) . . .
342(18) . . .
322(18) . . .
335(18) . . .
319(18) . . .
342(18) . . .
343(19) . . .
297(17) . . .
333(18) . . .
308(18) . . .
316(18) . . .
320(18) . . .
309(18) . . .
351(19) . . .
365(19) . . .
324(18) . . .
312(18) . . .
321(18) . . .
313(18) . . .
325(18) . . .
324(18) . . .
316(18) . . .
319(18) . . .
308(18) . . .
335(18) . . .
321(18) . . .
336(18) . . .
354(19) . . .
351(19) . . .
332(18) . . .
347(19) . . .
342(18) . . .
345(19) . . .
321(18) . . .
336(18) . . .
332(18) . . .
306(17) . . .
350(19) . . .
340(18) . . .
316(18) . . .
305(17) . . .
339(18) . . .
327(18) . . .
336(18) . . .
335(18) . . .
348(19) . . .
356(19) . . .
332(18) . . .
325(18) . . .
324(18) . . .
322(18) . . .
357(19) . . .
339(18) . . .
319(18) . . .
346(19) . . .
329(18) . . .
312(18) . . .
312(18) . . .
359(19) . . .
348(19) . . .
333(18) . . .
337(18) . . .
329(18) . . .
302(17) . . .
326(18) . . .
329(18) . . .
335(18) . . .
313(18) . . .
319(18) . . .
355(19) . . .
354(19) . . .
341(18) . . .
326(18) . . .
324(18) . . .
300(17) . . .
325(18) . . .
334(18) . . .
324(18) . . .
330(18) . . .
332(18) . . .
318(18) . . .
339(18) . . .
354(19) . . .
370(19) . . .
331(18) . . .
358(19) . . .
339(18) . . .
364(19) . . .
365(19) . . .
305(17) . . .
327(18) . . .
339(18) . . .
352(19) . . .
348(19) . . .
351(19) . . .
324(18) . . .
309(18) . . .
377(19) . . .
343(19) . . .
327(18) . . .
323(18) . . .
330(18) . . .
336(18) . . .
357(19) . . .
322(18) . . .
325(18) . . .
359(19) . . .
345(19) . . .
342(18) . . .
335(18) . . .
355(19) . . .
335(18) . . .
353(19) . . .
353(19) . . .
361(19) . . .
336(18) . . .
371(19) . . .
366(19) . . .
366(19) . . .
332(18) . . .
335(18) . . .
350(19) . . .
351(19) . . .
381(20) . . .
382(20) . . .
373(19) . . .
355(19) . . .
364(19) . . .
390(20) . . .
365(19) . . .
379(19) . . .
346(19) . . .
350(19) . . .
388(20) . . .
364(19) . . .
366(19) . . .
385(20) . . .
378(19) . . .
387(20) . . .
405(20) . . .
386(20) . . .
408(20) . . .
386(20) . . .
423(21) . . .
456(21) . . .
403(20) . . .
397(20) . . .
420(20) . . .
396(20) . . .
462(21) . . .
429(21) . . .
439(21) . . .
450(21) . . .
485(22) . . .
438(21) . . .
475(22) . . .
459(21) . . .
503(22) . . .
508(23) . . .
540(23) . . .
527(23) . . .
553(24) . . .
588(24) . . .
644(25) . . .
675(26) . . .
684(26) . . .
651(26) . . .
731(27) . . .
758(28) . . .
857(29) . . .
910(30) . . .
918(30) . . .
996(32) . . .
1109(33) . . .
1107(33) . . .
1332(36) . . .
1399(37) . . .
1480(38) . . .
1626(40) . . .
1926(44) . . .
2078(46) . . .
2257(48) . . .
2645(51) . . .
2914(54) . . .
3383(58) . . .
3879(62) . . .
4494(67) . . .
5183(72) . . .
6099(78) . . .
7342(86) . . .
8538(92) . . .
10170(100) . . .
11630(110) . . .
13290(120) . . .
14820(120) . . .
15820(130) . . .
16300(130) . . .
16500(130) . . .
15660(130) . . .
14190(120) . . .
12730(110) . . .
11170(110) . . .
9496(97) . . .
7938(89) . . .
6549(81) . . .
5654(75) . . .
4656(68) . . .
3968(63) . . .
3430(59) . . .
2986(55) . . .
2563(51) . . .
2225(47) . . .
1939(44) . . .
1783(42) . . .
1541(39) . . .
1463(38) . . .
1279(36) . . .
1186(34) . . .
1132(34) . . .
1059(33) . . .
927(30) . . .
895(30) . . .
849(29) . . .
797(28) . . .
766(28) . . .
743(27) . . .
737(27) . . .
681(26) . . .
691(26) . . .
640(25) . . .
636(25) . . .
614(25) . . .
591(24) . . .
582(24) . . .
538(23) . . .
546(23) . . .
527(23) . . .
495(22) . . .
486(22) . . .
489(22) . . .
441(21) . . .
477(22) . . .
450(21) . . .
430(21) . . .
455(21) . . .
442(21) . . .
428(21) . . .
426(21) . . .
408(20) . . .
422(21) . . .
398(20) . . .
412(20) . . .
405(20) . . .
411(20) . . .
380(19) . . .
396(20) . . .
398(20) . . .
371(19) . . .
351(19) . . .
343(19) . . .
334(18) . . .
394(20) . . .
333(18) . . .
375(19) . . .
334(18) . . .
336(18) . . .
320(18) . . .
320(18) . . .
341(18) . . .
350(19) . . .
345(19) . . .
335(18) . . .
362(19) . . .
350(19) . . .
333(18) . . .
302(17) . . .
324(18) . . .
325(18) . . .
372(19) . . .
357(19) . . .
319(18) . . .
330(18) . . .
327(18) . . .
344(19) . . .
328(18) . . .
313(18) . . .
335(18) . . .
313(18) . . .
322(18) . . .
312(18) . . .
336(18) . . .
300(17) . . .
352(19) . . .
336(18) . . .
287(17) . . .
322(18) . . .
308(18) . . .
301(17) . . .
326(18) . . .
318(18) . . .
335(18) . . .
292(17) . . .
345(19) . . .
332(18) . . .
316(18) . . .
290(17) . . .
321(18) . . .
326(18) . . .
310(18) . . .
331(18) . . .
296(17) . . .
330(18) . . .
307(18) . . .
297(17) . . .
295(17) . . .
338(18) . . .
307(18) . . .
334(18) . . .
275(17) . . .
311(18) . . .
323(18) . . .
310(18) . . .
337(18) . . .
280(17) . . .
318(18) . . .
317(18) . . .
316(18) . . .
315(18) . . .
300(17) . . .
329(18) . . .
298(17) . . .
325(18) . . .
321(18) . . .
288(17) . . .
330(18) . . .
319(18) . . .
305(17) . . .
354(19) . . .
326(18) . . .
301(17) . . .
296(17) . . .
311(18) . . .
313(18) . . .
313(18) . . .
309(18) . . .
317(18) . . .
296(17) . . .
330(18) . . .
291(17) . . .
321(18) . . .
320(18) . . .
310(18) . . .
283(17) . . .
295(17) . . .
303(17) . . .
299(17) . . .
288(17) . . .
300(17) . . .
272(16) . . .
293(17) . . .
331(18) . . .
325(18) . . .
307(18) . . .
306(17) . . .
303(17) . . .
317(18) . . .
287(17) . . .
289(17) . . .
316(18) . . .
303(17) . . .
309(18) . . .
305(17) . . .
303(17) . . .
303(17) . . .
294(17) . . .
290(17) . . .
297(17) . . .
268(16) . . .
298(17) . . .
282(17) . . .
321(18) . . .
284(17) . . .
279(17) . . .
290(17) . . .
314(18) . . .
318(18) . . .
279(17) . . .
302(17) . . .
278(17) . . .
307(18) . . .
296(17) . . .
299(17) . . .
305(17) . . .
311(18) . . .
311(18) . . .
291(17) . . .
305(17) . . .
304(17) . . .
314(18) . . .
296(17) . . .
269(16) . . .
290(17) . . .
303(17) . . .
288(17) . . .
281(17) . . .
285(17) . . .
299(17) . . .
312(18) . . .
311(18) . . .
278(17) . . .
306(17) . . .
304(17) . . .
301(17) . . .
318(18) . . .
290(17) . . .
299(17) . . .
311(18) . . .
276(17) . . .
343(19) . . .
295(17) . . .
304(17) . . .
267(16) . . .
305(17) . . .
297(17) . . .
308(18) . . .
293(17) . . .
293(17) . . .
287(17) . . .
299(17) . . .
310(18) . . .
281(17) . . .
300(17) . . .
308(18) . . .
286(17) . . .
249(16) . . .
284(17) . . .
307(18) . . .
298(17) . . .
309(18) . . .
268(16) . . .
308(18) . . .
286(17) . . .
316(18) . . .
291(17) . . .
263(16) . . .
296(17) . . .
283(17) . . .
311(18) . . .
322(18) . . .
301(17) . . .
295(17) . . .
254(16) . . .
277(17) . . .
284(17) . . .
306(17) . . .
285(17) . . .
273(17) . . .
277(17) . . .
272(16) . . .
272(16) . . .
295(17) . . .
288(17) . . .
262(16) . . .
290(17) . . .
298(17) . . .
297(17) . . .
300(17) . . .
265(16) . . .
268(16) . . .
282(17) . . .
266(16) . . .
289(17) . . .
259(16) . . .
276(17) . . .
309(18) . . .
292(17) . . .
282(17) . . .
287(17) . . .
262(16) . . .
310(18) . . .
268(16) . . .
276(17) . . .
267(16) . . .
279(17) . . .
253(16) . . .
267(16) . . .
268(16) . . .
281(17) . . .
283(17) . . .
276(17) . . .
271(16) . . .
256(16) . . .
283(17) . . .
293(17) . . .
303(17) . . .
274(17) . . .
270(16) . . .
243(16) . . .
291(17) . . .
262(16) . . .
275(17) . . .
297(17) . . .
305(17) . . .
298(17) . . .
292(17) . . .
282(17) . . .
285(17) . . .
249(16) . . .
309(18) . . .
296(17) . . .
278(17) . . .
286(17) . . .
269(16) . . .
301(17) . . .
284(17) . . .
265(16) . . .
270(16) . . .
276(17) . . .
288(17) . . .
282(17) . . .
301(17) . . .
282(17) . . .
292(17) . . .
262(16) . . .
282(17) . . .
263(16) . . .
246(16) . . .
276(17) . . .
273(17) . . .
289(17) . . .
286(17) . . .
279(17) . . .
275(17) . . .
292(17) . . .
290(17) . . .
283(17) . . .
305(17) . . .
296(17) . . .
291(17) . . .
289(17) . . .
252(16) . . .
260(16) . . .
291(17) . . .
316(18) . . .
288(17) . . .
288(17) . . .
273(17) . . .
283(17) . . .
256(16) . . .
297(17) . . .
264(16) . . .
254(16) . . .
285(17) . . .
277(17) . . .
311(18) . . .
281(17) . . .
286(17) . . .
281(17) . . .
289(17) . . .
291(17) . . .
272(16) . . .
286(17) . . .
312(18) . . .
289(17) . . .
285(17) . . .
304(17) . . .
288(17) . . .
283(17) . . .
305(17) . . .
291(17) . . .
297(17) . . .
303(17) . . .
290(17) . . .
314(18) . . .
308(18) . . .
302(17) . . .
293(17) . . .
313(18) . . .
303(17) . . .
285(17) . . .
308(18) . . .
278(17) . . .
248(16) . . .
286(17) . . .
312(18) . . .
286(17) . . .
292(17) . . .
313(18) . . .
287(17) . . .
288(17) . . .
288(17) . . .
278(17) . . .
270(16) . . .
305(17) . . .
311(18) . . .
300(17) . . .
285(17) . . .
295(17) . . .
305(17) . . .
306(17) . . .
286(17) . . .
297(17) . . .
297(17) . . .
305(17) . . .
287(17) . . .
260(16) . . .
307(18) . . .
310(18) . . .
294(17) . . .
309(18) . . .
315(18) . . .
308(18) . . .
275(17) . . .
295(17) . . .
307(18) . . .
309(18) . . .
258(16) . . .
275(17) . . .
291(17) . . .
323(18) . . .
294(17) . . .
292(17) . . .
278(17) . . .
275(17) . . .
278(17) . . .
287(17) . . .
305(17) . . .
287(17) . . .
281(17) . . .
280(17) . . .
260(16) . . .
282(17) . . .
284(17) . . .
281(17) . . .
283(17) . . .
276(17) . . .
293(17) . . .
288(17) . . .
290(17) . . .
290(17) . . .
270(16) . . .
306(17) . . .
290(17) . . .
316(18) . . .
265(16) . . .
295(17) . . .
286(17) . . .
252(16) . . .
292(17) . . .
279(17) . . .
278(17) . . .
280(17) . . .
283(17) . . .
253(16) . . .
267(16) . . .
274(17) . . .
288(17) . . .
271(16) . . .
254(16) . . .
261(16) . . .
294(17) . . .
303(17) . . .
282(17) . . .
300(17) . . .
265(16) . . .
267(16) . . .
258(16) . . .
258(16) . . .
279(17) . . .
305(17) . . .
292(17) . . .
285(17) . . .
299(17) . . .
276(17) . . .
303(17) . . .
268(16) . . .
252(16) . . .
283(17) . . .
289(17) . . .
278(17) . . .
311(18) . . .
266(16) . . .
278(17) . . .
283(17) . . .
276(17) . . .
280(17) . . .
287(17) . . .
282(17) . . .
261(16) . . .
277(17) . . .
280(17) . . .
284(17) . . .
266(16) . . .
285(17) . . .
286(17) . . .
270(16) . . .
295(17) . . .
276(17) . . .
319(18) . . .
284(17) . . .
276(17) . . .
289(17) . . .
294(17) . . .
274(17) . . .
327(18) . . .
283(17) . . .
310(18) . . .
274(17) . . .
277(17) . . .
272(16) . . .
285(17) . . .
293(17) . . .
302(17) . . .
284(17) . . .
281(17) . . .
278(17) . . .
297(17) . . .
302(17) . . .
289(17) . . .
268(16) . . .
309(18) . . .
296(17) . . .
273(17) . . .
269(16) . . .
327(18) . . .
324(18) . . .
297(17) . . .
279(17) . . .
285(17) . . .
286(17) . . .
303(17) . . .
290(17) . . .
300(17) . . .
268(16) . . .
302(17) . . .
269(16) . . .
288(17) . . .
295(17) . . .
272(16) . . .
273(17) . . .
278(17) . . .
307(18) . . .
304(17) . . .
266(16) . . .
273(17) . . .
315(18) . . .
270(16) . . .
263(16) . . .
261(16) . . .
293(17) . . .
274(17) . . .
297(17) . . .
286(17) . . .
265(16) . . .
279(17) . . .
259(16) . . .
273(17) . . .
272(16) . . .
258(16) . . .
291(17) . . .
254(16) . . .
258(16) . . .
258(16) . . .
280(17) . . .
279(17) . . .
277(17) . . .
272(16) . . .
270(16) . . .
277(17) . . .
271(16) . . .
276(17) . . .
292(17) . . .
269(16) . . .
282(17) . . .
260(16) . . .
282(17) . . .
264(16) . . .
261(16) . . .
256(16) . . .
258(16) . . .
287(17) . . .
277(17) . . .
282(17) . . .
269(16) . . .
290(17) . . .
274(17) . . .
290(17) . . .
279(17) . . .
268(16) . . .
239(15) . . .
273(17) . . .
279(17) . . .
253(16) . . .
273(17) . . .
256(16) . . .
260(16) . . .
258(16) . . .
270(16) . . .
248(16) . . .
286(17) . . .
284(17) . . .
253(16) . . .
262(16) . . .
271(16) . . .
258(16) . . .
278(17) . . .
266(16) . . .
245(16) . . .
265(16) . . .
271(16) . . .
258(16) . . .
256(16) . . .
274(17) . . .
267(16) . . .
263(16) . . .
255(16) . . .
285(17) . . .
263(16) . . .
284(17) . . .
267(16) . . .
252(16) . . .
288(17) . . .
281(17) . . .
284(17) . . .
288(17) . . .
266(16) . . .
266(16) . . .
265(16) . . .
284(17) . . .
282(17) . . .
274(17) . . .
274(17) . . .
270(16) . . .
301(17) . . .
296(17) . . .
274(17) . . .
273(17) . . .
300(17) . . .
273(17) . . .
294(17) . . .
274(17) . . .
265(16) . . .
254(16) . . .
290(17) . . .
280(17) . . .
275(17) . . .
278(17) . . .
256(16) . . .
242(16) . . .
257(16) . . .
281(17) . . .
250(16) . . .
272(16) . . .
307(18) . . .
287(17) . . .
286(17) . . .
259(16) . . .
278(17) . . .
267(16) . . .
281(17) . . .
315(18) . . .
301(17) . . .
263(16) . . .
261(16) . . .
278(17) . . .
257(16) . . .
274(17) . . .
285(17) . . .
287(17) . . .
269(16) . . .
251(16) . . .
253(16) . . .
273(17) . . .
280(17) . . .
275(17) . . .
264(16) . . .
285(17) . . .
282(17) . . .
270(16) . . .
292(17) . . .
260(16) . . .
272(16) . . .
277(17) . . .
264(16) . . .
280(17) . . .
262(16) . . .
269(16) . . .
266(16) . . .
271(16) . . .
259(16) . . .
262(16) . . .
263(16) . . .
281(17) . . .
278(17) . . .
264(16) . . .
277(17) . . .
271(16) . . .
277(17) . . .
270(16) . . .
258(16) . . .
281(17) . . .
308(18) . . .
258(16) . . .
259(16) . . .
261(16) . . .
255(16) . . .
277(17) . . .
270(16) . . .
277(17) . . .
250(16) . . .
281(17) . . .
277(17) . . .
262(16) . . .
275(17) . . .
263(16) . . .
272(16) . . .
246(16) . . .
237(15) . . .
299(17) . . .
247(16) . . .
251(16) . . .
293(17) . . .
263(16) . . .
270(16) . . .
270(16) . . .
230(15) . . .
281(17) . . .
272(16) . . .
267(16) . . .
265(16) . . .
281(17) . . .
281(17) . . .
250(16) . . .
257(16) . . .
279(17) . . .
253(16) . . .
269(16) . . .
285(17) . . .
276(17) . . .
296(17) . . .
274(17) . . .
268(16) . . .
243(16) . . .
264(16) . . .
278(17) . . .
272(16) . . .
299(17) . . .
282(17) . . .
254(16) . . .
255(16) . . .
281(17) . . .
269(16) . . .
252(16) . . .
258(16) . . .
262(16) . . .
255(16) . . .
260(16) . . .
256(16) . . .
276(17) . . .
261(16) . . .
248(16) . . .
267(16) . . .
266(16) . . .
285(17) . . .
265(16) . . .
274(17) . . .
252(16) . . .
271(16) . . .
245(16) . . .
251(16) . . .
270(16) . . .
290(17) . . .
288(17) . . .
265(16) . . .
278(17) . . .
263(16) . . .
273(17) . . .
275(17) . . .
265(16) . . .
284(17) . . .
279(17) . . .
281(17) . . .
241(16) . . .
258(16) . . .
283(17) . . .
285(17) . . .
275(17) . . .
262(16) . . .
267(16) . . .
278(17) . . .
258(16) . . .
273(17) . . .
286(17) . . .
260(16) . . .
269(16) . . .
260(16) . . .
247(16) . . .
268(16) . . .
283(17) . . .
229(15) . . .
266(16) . . .
296(17) . . .
293(17) . . .
225(15) . . .
276(17) . . .
278(17) . . .
275(17) . . .
233(15) . . .
258(16) . . .
244(16) . . .
264(16) . . .
267(16) . . .
243(16) . . .
255(16) . . .
246(16) . . .
257(16) . . .
252(16) . . .
252(16) . . .
243(16) . . .
247(16) . . .
264(16) . . .
244(16) . . .
277(17) . . .
264(16) . . .
260(16) . . .
231(15) . . .
240(15) . . .
284(17) . . .
253(16) . . .
266(16) . . .
280(17) . . .
263(16) . . .
289(17) . . .
267(16) . . .
240(15) . . .
275(17) . . .
299(17) . . .
260(16) . . .
256(16) . . .
277(17) . . .
266(16) . . .
258(16) . . .
252(16) . . .
260(16) . . .
244(16) . . .
240(15) . . .
263(16) . . .
264(16) . . .
244(16) . . .
290(17) . . .
275(17) . . .
247(16) . . .
266(16) . . .
258(16) . . .
256(16) . . .
261(16) . . .
248(16) . . .
252(16) . . .
249(16) . . .
250(16) . . .
292(17) . . .
259(16) . . .
258(16) . . .
248(16) . . .
255(16) . . .
271(16) . . .
262(16) . . .
272(16) . . .
241(16) . . .
278(17) . . .
261(16) . . .
270(16) . . .
230(15) . . .
249(16) . . .
271(16) . . .
285(17) . . .
261(16) . . .
248(16) . . .
241(16) . . .
259(16) . . .
264(16) . . .
284(17) . . .
259(16) . . .
259(16) . . .
252(16) . . .
279(17) . . .
261(16) . . .
248(16) . . .
239(15) . . .
285(17) . . .
268(16) . . .
259(16) . . .
262(16) . . .
288(17) . . .
257(16) . . .
268(16) . . .
271(16) . . .
276(17) . . .
270(16) . . .
296(17) . . .
260(16) . . .
252(16) . . .
279(17) . . .
242(16) . . .
287(17) . . .
293(17) . . .
272(16) . . .
288(17) . . .
262(16) . . .
285(17) . . .
272(16) . . .
256(16) . . .
261(16) . . .
269(16) . . .
275(17) . . .
233(15) . . .
285(17) . . .
270(16) . . .
272(16) . . .
306(17) . . .
243(16) . . .
267(16) . . .
282(17) . . .
280(17) . . .
300(17) . . .
269(16) . . .
293(17) . . .
272(16) . . .
240(15) . . .
253(16) . . .
254(16) . . .
271(16) . . .
257(16) . . .
264(16) . . .
263(16) . . .
268(16) . . .
282(17) . . .
261(16) . . .
257(16) . . .
265(16) . . .
272(16) . . .
276(17) . . .
268(16) . . .
244(16) . . .
253(16) . . .
266(16) . . .
275(17) . . .
243(16) . . .
266(16) . . .
286(17) . . .
260(16) . . .
275(17) . . .
261(16) . . .
259(16) . . .
262(16) . . .
272(16) . . .
255(16) . . .
239(15) . . .
277(17) . . .
247(16) . . .
300(17) . . .
268(16) . . .
281(17) . . .
265(16) . . .
256(16) . . .
268(16) . . .
279(17) . . .
260(16) . . .
283(17) . . .
264(16) . . .
244(16) . . .
271(16) . . .
266(16) . . .
265(16) . . .
303(17) . . .
278(17) . . .
262(16) . . .
278(17) . . .
240(15) . . .
272(16) . . .
279(17) . . .
271(16) . . .
263(16) . . .
277(17) . . .
242(16) . . .
283(17) . . .
276(17) . . .
262(16) . . .
272(16) . . .
272(16) . . .
284(17) . . .
294(17) . . .
295(17) . . .
277(17) . . .
291(17) . . .
294(17) . . .
327(18) . . .
308(18) . . .
277(17) . . .
293(17) . . .
280(17) . . .
307(18) . . .
278(17) . . .
302(17) . . .
266(16) . . .
279(17) . . .
323(18) . . .
273(17) . . .
280(17) . . .
310(18) . . .
270(16) . . .
253(16) . . .
274(17) . . .
270(16) . . .
267(16) . . .
271(16) . . .
292(17) . . .
260(16) . . .
293(17) . . .
268(16) . . .
288(17) . . .
262(16) . . .
255(16) . . .
275(17) . . .
272(16) . . .
253(16) . . .
266(16) . . .
272(16) . . .
277(17) . . .
260(16) . . .
300(17) . . .
244(16) . . .
255(16) . . .
268(16) . . .
261(16) . . .
278(17) . . .
289(17) . . .
266(16) . . .
278(17) . . .
234(15) . . .
283(17) . . .
283(17) . . .
292(17) . . .
279(17) . . .
283(17) . . .
253(16) . . .
269(16) . . .
272(16) . . .
293(17) . . .
253(16) . . .
287(17) . . .
289(17) . . .
279(17) . . .
254(16) . . .
278(17) . . .
283(17) . . .
260(16) . . .
264(16) . . .
276(17) . . .
249(16) . . .
298(17) . . .
298(17) . . .
262(16) . . .
281(17) . . .
273(17) . . .
282(17) . . .
256(16) . . .
266(16) . . .
295(17) . . .
296(17) . . .
270(16) . . .
274(17) . . .
270(16) . . .
243(16) . . .
246(16) . . .
256(16) . . .
260(16) . . .
267(16) . . .
296(17) . . .
276(17) . . .
278(17) . . .
258(16) . . .
271(16) . . .
261(16) . . .
269(16) . . .
266(16) . . .
296(17) . . .
250(16) . . .
274(17) . . .
277(17) . . .
267(16) . . .
271(16) . . .
283(17) . . .
261(16) . . .
270(16) . . .
247(16) . . .
288(17) . . .
276(17) . . .
279(17) . . .
275(17) . . .
304(17) . . .
263(16) . . .
300(17) . . .
277(17) . . .
298(17) . . .
271(16) . . .
297(17) . . .
285(17) . . .
282(17) . . .
279(17) . . .
272(16) . . .
271(16) . . .
274(17) . . .
259(16) . . .
263(16) . . .
278(17) . . .
265(16) . . .
228(15) . . .
268(16) . . .
294(17) . . .
274(17) . . .
255(16) . . .
266(16) . . .
291(17) . . .
275(17) . . .
265(16) . . .
252(16) . . .
265(16) . . .
293(17) . . .
254(16) . . .
273(17) . . .
279(17) . . .
272(16) . . .
281(17) . . .
263(16) . . .
236(15) . . .
266(16) . . .
271(16) . . .
264(16) . . .
264(16) . . .
261(16) . . .
265(16) . . .
284(17) . . .
268(16) . . .
253(16) . . .
293(17) . . .
280(17) . . .
265(16) . . .
282(17) . . .
267(16) . . .
258(16) . . .
248(16) . . .
305(17) . . .
265(16) . . .
279(17) . . .
260(16) . . .
268(16) . . .
294(17) . . .
272(16) . . .
247(16) . . .
247(16) . . .
265(16) . . .
253(16) . . .
271(16) . . .
250(16) . . .
295(17) . . .
254(16) . . .
262(16) . . .
263(16) . . .
253(16) . . .
281(17) . . .
263(16) . . .
259(16) . . .
279(17) . . .
276(17) . . .
276(17) . . .
270(16) . . .
270(16) . . .
230(15) . . .
265(16) . . .
267(16) . . .
274(17) . . .
251(16) . . .
286(17) . . .
278(17) . . .
247(16) . . .
267(16) . . .
282(17) . . .
259(16) . . .
269(16) . . .
254(16) . . .
245(16) . . .
263(16) . . .
272(16) . . .
295(17) . . .
266(16) . . .
283(17) . . .
252(16) . . .
269(16) . . .
231(15) . . .
275(17) . . .
260(16) . . .
296(17) . . .
252(16) . . .
259(16) . . .
267(16) . . .
271(16) . . .
278(17) . . .
247(16) . . .
273(17) . . .
272(16) . . .
293(17) . . .
272(16) . . .
304(17) . . .
256(16) . . .
280(17) . . .
261(16) . . .
278(17) . . .
274(17) . . .
260(16) . . .
304(17) . . .
286(17) . . .
253(16) . . .
261(16) . . .
275(17) . . .
256(16) . . .
278(17) . . .
257(16) . . .
268(16) . . .
298(17) . . .
279(17) . . .
264(16) . . .
278(17) . . .
270(16) . . .
294(17) . . .
267(16) . . .
274(17) . . .
269(16) . . .
278(17) . . .
271(16) . . .
256(16) . . .
261(16) . . .
260(16) . . .
262(16) . . .
277(17) . . .
274(17) . . .
251(16) . . .
291(17) . . .
275(17) . . .
249(16) . . .
267(16) . . .
289(17) . . .
294(17) . . .
265(16) . . .
287(17) . . .
295(17) . . .
259(16) . . .
275(17) . . .
271(16) . . .
281(17) . . .
243(16) . . .
278(17) . . .
260(16) . . .
257(16) . . .
271(16) . . .
263(16) . . .
252(16) . . .
238(15) . . .
279(17) . . .
259(16) . . .
264(16) . . .
290(17) . . .
273(17) . . .
283(17) . . .
277(17) . . .
257(16) . . .
268(16) . . .
268(16) . . .
286(17) . . .
273(17) . . .
302(17) . . .
268(16) . . .
229(15) . . .
257(16) . . .
277(17) . . .
250(16) . . .
257(16) . . .
270(16) . . .
260(16) . . .
272(16) . . .
276(17) . . .
281(17) . . .
268(16) . . .
272(16) . . .
269(16) . . .
265(16) . . .
271(16) . . .
269(16) . . .
252(16) . . .
274(17) . . .
281(17) . . .
269(16) . . .
269(16) . . .
285(17) . . .
297(17) . . .
256(16) . . .
270(16) . . .
281(17) . . .
273(17) . . .
267(16) . . .
258(16) . . .
284(17) . . .
253(16) . . .
251(16) . . .
278(17) . . .
281(17) . . .
269(16) . . .
280(17) . . .
271(16) . . .
270(16) . . .
283(17) . . .
291(17) . . .
255(16) . . .
255(16) . . .
261(16) . . .
278(17) . . .
267(16) . . .
274(17) . . .
247(16) . . .
282(17) . . .
265(16) . . .
280(17) . . .
260(16) . . .
264(16) . . .
262(16) . . .
251(16) . . .
290(17) . . .
249(16) . . .
272(16) . . .
264(16) . . .
314(18) . . .
273(17) . . .
263(16) . . .
274(17) . . .
255(16) . . .
270(16) . . .
253(16) . . .
289(17) . . .
263(16) . . .
261(16) . . .
281(17) . . .
288(17) . . .
261(16) . . .
268(16) . . .
240(15) . . .
273(17) . . .
277(17) . . .
280(17) . . .
282(17) . . .
298(17) . . .
254(16) . . .
256(16) . . .
277(17) . . .
293(17) . . .
277(17) . . .
269(16) . . .
261(16) . . .
273(17) . . .
286(17) . . .
253(16) . . .
249(16) . . .
272(16) . . .
302(17) . . .
274(17) . . .
278(17) . . .
289(17) . . .
275(17) . . .
293(17) . . .
273(17) . . .
285(17) . . .
260(16) . . .
266(16) . . .
290(17) . . .
319(18) . . .
276(17) . . .
313(18) . . .
304(17) . . .
296(17) . . .
317(18) . . .
304(17) . . .
291(17) . . .
263(16) . . .
268(16) . . .
239(15) . . .
305(17) . . .
299(17) . . .
275(17) . . .
268(16) . . .
266(16) . . .
292(17) . . .
289(17) . . .
292(17) . . .
276(17) . . .
285(17) . . .
300(17) . . .
270(16) . . .
307(18) . . .
264(16) . . .
280(17) . . .
282(17) . . .
275(17) . . .
298(17) . . .
313(18) . . .
277(17) . . .
288(17) . . .
271(16) . . .
306(17) . . .
292(17) . . .
281(17) . . .
314(18) . . .
276(17) . . .
275(17) . . .
290(17) . . .
295(17) . . .
303(17) . . .
321(18) . . .
284(17) . . .
314(18) . . .
285(17) . . .
306(17) . . .
309(18) . . .
289(17) . . .
308(18) . . .
273(17) . . .
305(17) . . .
286(17) . . .
270(16) . . .
296(17) . . .
302(17) . . .
286(17) . . .
287(17) . . .
303(17) . . .
288(17) . . .
282(17) . . .
305(17) . . .
311(18) . . .
296(17) . . .
289(17) . . .
313(18) . . .
316(18) . . .
277(17) . . .
298(17) . . .
303(17) . . .
304(17) . . .
296(17) . . .
312(18) . . .
273(17) . . .
280(17) . . .
296(17) . . .
283(17) . . .
282(17) . . .
305(17) . . .
298(17) . . .
306(17) . . .
285(17) . . .
286(17) . . .
304(17) . . .
264(16) . . .
312(18) . . .
282(17) . . .
299(17) . . .
281(17) . . .
314(18) . . .
284(17) . . .
288(17) . . .
273(17) . . .
309(18) . . .
304(17) . . .
308(18) . . .
290(17) . . .
327(18) . . .
286(17) . . .
307(18) . . .
302(17) . . .
304(17) . . .
295(17) . . .
305(17) . . .
295(17) . . .
307(18) . . .
300(17) . . .
302(17) . . .
324(18) . . .
307(18) . . .
300(17) . . .
286(17) . . .
282(17) . . .
339(18) . . .
329(18) . . .
298(17) . . .
283(17) . . .
310(18) . . .
306(17) . . .
290(17) . . .
315(18) . . .
302(17) . . .
293(17) . . .
301(17) . . .
307(18) . . .
308(18) . . .
316(18) . . .
315(18) . . .
305(17) . . .
310(18) . . .
359(19) . . .
321(18) . . .
313(18) . . .
345(19) . . .
318(18) . . .
340(18) . . .
308(18) . . .
323(18) . . .
286(17) . . .
336(18) . . .
315(18) . . .
341(18) . . .
330(18) . . .
328(18) . . .
313(18) . . .
326(18) . . .
333(18) . . .
315(18) . . .
312(18) . . .
323(18) . . .
334(18) . . .
322(18) . . .
334(18) . . .
355(19) . . .
332(18) . . .
347(19) . . .
375(19) . . .
351(19) . . .
333(18) . . .
363(19) . . .
366(19) . . .
326(18) . . .
342(18) . . .
352(19) . . .
337(18) . . .
371(19) . . .
356(19) . . .
371(19) . . .
383(20) . . .
350(19) . . .
367(19) . . .
352(19) . . .
354(19) . . .
380(19) . . .
374(19) . . .
373(19) . . .
375(19) . . .
402(20) . . .
384(20) . . .
399(20) . . .
411(20) . . .
414(20) . . .
429(21) . . .
430(21) . . .
440(21) . . .
399(20) . . .
434(21) . . .
435(21) . . .
445(21) . . .
462(21) . . .
456(21) . . .
483(22) . . .
456(21) . . .
467(22) . . .
479(22) . . .
544(23) . . .
515(23) . . .
516(23) . . .
559(24) . . .
547(23) . . .
581(24) . . .
577(24) . . .
638(25) . . .
621(25) . . .
647(25) . . .
702(26) . . .
735(27) . . .
758(28) . . .
756(27) . . .
851(29) . . .
852(29) . . .
913(30) . . .
919(30) . . .
1019(32) . . .
1029(32) . . .
1143(34) . . .
1214(35) . . .
1297(36) . . .
1388(37) . . .
1501(39) . . .
1617(40) . . .
1876(43) . . .
2041(45) . . .
2218(47) . . .
2402(49) . . .
2649(51) . . .
3138(56) . . .
3449(59) . . .
3854(62) . . .
4389(66) . . .
5304(73) . . .
5873(77) . . .
6694(82) . . .
7924(89) . . .
9369(97) . . .
10600(100) . . .
12270(110) . . .
13990(120) . . .
15100(120) . . .
16450(130) . . .
17070(130) . . .
17720(130) . . .
17620(130) . . .
17120(130) . . .
16280(130) . . .
15520(130) . . .
14130(120) . . .
12590(110) . . .
10910(100) . . .
9463(97) . . .
8247(91) . . .
7043(84) . . .
6126(78) . . .
5205(72) . . .
4527(67) . . .
3978(63) . . .
3390(58) . . .
3067(55) . . .
2769(53) . . .
2460(50) . . .
2254(47) . . .
2018(45) . . .
1845(43) . . .
1688(41) . . .
1544(39) . . .
1358(37) . . .
1302(36) . . .
1295(36) . . .
1125(34) . . .
1061(33) . . .
1038(32) . . .
938(31) . . .
906(30) . . .
836(29) . . .
841(29) . . .
728(27) . . .
748(27) . . .
706(27) . . .
690(26) . . .
712(27) . . .
626(25) . . .
623(25) . . .
583(24) . . .
564(24) . . .
563(24) . . .
558(24) . . .
541(23) . . .
568(24) . . .
534(23) . . .
501(22) . . .
466(22) . . .
502(22) . . .
498(22) . . .
473(22) . . .
424(21) . . .
460(21) . . .
431(21) . . .
412(20) . . .
421(21) . . .
435(21) . . .
383(20) . . .
395(20) . . .
418(20) . . .
409(20) . . .
384(20) . . .
398(20) . . .
391(20) . . .
399(20) . . .
360(19) . . .
359(19) . . .
403(20) . . .
387(20) . . .
405(20) . . .
382(20) . . .
351(19) . . .
358(19) . . .
365(19) . . .
358(19) . . .
345(19) . . .
337(18) . . .
364(19) . . .
339(18) . . .
336(18) . . .
348(19) . . .
357(19) . . .
349(19) . . .
310(18) . . .
315(18) . . .
359(19) . . .
337(18) . . .
322(18) . . .
324(18) . . .
344(19) . . .
329(18) . . .
323(18) . . .
342(18) . . .
306(17) . . .
333(18) . . .
312(18) . . .
351(19) . . .
305(17) . . .
317(18) . . .
307(18) . . .
324(18) . . .
319(18) . . .
313(18) . . .
318(18) . . .
315(18) . . .
301(17) . . .
315(18) . . .
322(18) . . .
288(17) . . .
312(18) . . .
359(19) . . .
320(18) . . .
292(17) . . .
341(18) . . .
330(18) . . .
306(17) . . .
324(18) . . .
279(17) . . .
291(17) . . .
305(17) . . .
318(18) . . .
341(18) . . .
338(18) . . .
304(17) . . .
316(18) . . .
312(18) . . .
300(17) . . .
316(18) . . .
291(17) . . .
320(18) . . .
281(17) . . .
291(17) . . .
288(17) . . .
275(17) . . .
302(17) . . .
321(18) . . .
289(17) . . .
317(18) . . .
300(17) . . .
311(18) . . .
327(18) . . .
269(16) . . .
306(17) . . .
298(17) . . .
298(17) . . .
286(17) . . .
276(17) . . .
288(17) . . .
269(16) . . .
321(18) . . .
290(17) . . .
311(18) . . .
296(17) . . .
311(18) . . .
285(17) . . .
272(16) . . .
300(17) . . .
332(18) . . .
291(17) . . .
296(17) . . .
283(17) . . .
284(17) . . .
265(16) . . .
274(17) . . .
286(17) . . .
302(17) . . .
259(16) . . .
295(17) . . .
300(17) . . .
290(17) . . .
283(17) . . .
312(18) . . .
261(16) . . .
292(17) . . .
286(17) . . .
274(17) . . .
275(17) . . .
297(17) . . .
304(17) . . .
270(16) . . .
287(17) . . .
275(17) . . .
306(17) . . .
285(17) . . .
333(18) . . .
278(17) . . .
264(16) . . .
292(17) . . .
275(17) . . .
261(16) . . .
308(18) . . .
294(17) . . .
280(17) . . .
258(16) . . .
260(16) . . .
286(17) . . .
289(17) . . .
289(17) . . .
298(17) . . .
283(17) . . .
289(17) . . .
309(18) . . .
291(17) . . .
276(17) . . .
291(17) . . .
269(16) . . .
276(17) . . .
277(17) . . .
313(18) . . .
297(17) . . .
303(17) . . .
278(17) . . .
286(17) . . .
283(17) . . .
276(17) . . .
298(17) . . .
306(17) . . .
302(17) . . .
301(17) . . .
290(17) . . .
290(17) . . .
258(16) . . .
261(16) . . .
285(17) . . .
299(17) . . .
267(16) . . .
295(17) . . .
294(17) . . .
299(17) . . .
288(17) . . .
288(17) . . .
272(16) . . .
307(18) . . .
283(17) . . .
261(16) . . .
251(16) . . .
276(17) . . .
266(16) . . .
281(17) . . .
282(17) . . .
261(16) . . .
296(17) . . .
266(16) . . .
276(17) . . .
267(16) . . .
279(17) . . .
274(17) . . .
268(16) . . .
259(16) . . .
282(17) . . .
274(17) . . .
276(17) . . .
270(16) . . .
281(17) . . .
283(17) . . .
253(16) . . .
272(16) . . .
289(17) . . .
277(17) . . .
268(16) . . .
286(17) . . .
292(17) . . .
263(16) . . .
288(17) . . .
280(17) . . .
280(17) . . .
313(18) . . .
271(16) . . .
266(16) . . .
283(17) . . .
281(17) . . .
253(16) . . .
257(16) . . .
280(17) . . .
285(17) . . .
265(16) . . .
297(17) . . .
267(16) . . .
240(15) . . .
280(17) . . .
285(17) . . .
299(17) . . .
265(16) . . .
251(16) . . .
286(17) . . .
280(17) . . .
301(17) . . .
269(16) . . .
259(16) . . .
275(17) . . .
257(16) . . .
261(16) . . .
305(17) . . .
275(17) . . .
294(17) . . .
309(18) . . .
275(17) . . .
239(15) . . .
305(17) . . .
290(17) . . .
268(16) . . .
262(16) . . .
259(16) . . .
263(16) . . .
268(16) . . .
268(16) . . .
275(17) . . .
261(16) . . .
280(17) . . .
279(17) . . .
298(17) . . .
246(16) . . .
269(16) . . .
275(17) . . .
246(16) . . .
278(17) . . .
281(17) . . .
246(16) . . .
267(16) . . .
269(16) . . .
306(17) . . .
274(17) . . .
279(17) . . .
274(17) . . .
265(16) . . .
288(17) . . .
243(16) . . .
269(16) . . .
292(17) . . .
291(17) . . .
288(17) . . .
265(16) . . .
293(17) . . .
270(16) . . .
304(17) . . .
278(17) . . .
311(18) . . .
265(16) . . .
271(16) . . .
261(16) . . .
301(17) . . .
296(17) . . .
286(17) . . .
300(17) . . .
293(17) . . .
278(17) . . .
277(17) . . .
276(17) . . .
286(17) . . .
275(17) . . .
286(17) . . .
264(16) . . .
283(17) . . .
284(17) . . .
280(17) . . .
318(18) . . .
292(17) . . .
305(17) . . .
274(17) . . .
271(16) . . .
280(17) . . .
281(17) . . .
297(17) . . .
289(17) . . .
291(17) . . .
264(16) . . .
275(17) . . .
265(16) . . .
281(17) . . .
261(16) . . .
288(17) . . .
266(16) . . .
277(17) . . .
277(17) . . .
267(16) . . .
301(17) . . .
238(15) . . .
259(16) . . .
276(17) . . .
296(17) . . .
260(16) . . .
258(16) . . .
290(17) . . .
249(16) . . .
278(17) . . .
277(17) . . .
280(17) . . .
286(17) . . .
264(16) . . .
298(17) . . .
271(16) . . .
264(16) . . .
268(16) . . .
280(17) . . .
288(17) . . .
273(17) . . .
270(16) . . .
297(17) . . .
300(17) . . .
271(16) . . .
254(16) . . .
292(17) . . .
271(16) . . .
256(16) . . .
273(17) . . .
279(17) . . .
284(17) . . .
299(17) . . .
293(17) . . .
278(17) . . .
279(17) . . .
283(17) . . .
249(16) . . .
266(16) . . .
265(16) . . .
296(17) . . .
281(17) . . .
297(17) . . .
252(16) . . .
262(16) . . .
281(17) . . .
276(17) . . .
286(17) . . .
272(16) . . .
296(17) . . .
283(17) . . .
275(17) . . .
254(16) . . .
284(17) . . .
271(16) . . .
285(17) . . .
283(17) . . .
270(16) . . .
276(17) . . .
290(17) . . .
277(17) . . .
264(16) . . .
261(16) . . .
301(17) . . .
259(16) . . .
284(17) . . .
264(16) . . .
268(16) . . .
283(17) . . .
248(16) . . .
266(16) . . .
307(18) . . .
292(17) . . .
251(16) . . .
255(16) . . .
247(16) . . .
285(17) . . .
295(17) . . .
269(16) . . .
279(17) . . .
278(17) . . .
267(16) . . .
265(16) . . .
258(16) . . .
280(17) . . .
278(17) . . .
271(16) . . .
250(16) . . .
291(17) . . .
253(16) . . .
236(15) . . .
250(16) . . .
255(16) . . .
277(17) . . .
291(17) . . .
268(16) . . .
296(17) . . .
275(17) . . .
271(16) . . .
282(17) . . .
273(17) . . .
285(17) . . .
262(16) . . .
289(17) . . .
304(17) . . .
277(17) . . .
273(17) . . .
277(17) . . .
281(17) . . .
293(17) . . .
279(17) . . .
268(16) . . .
250(16) . . .
278(17) . . .
285(17) . . .
282(17) . . .
312(18) . . .
295(17) . . .
257(16) . . .
282(17) . . .
282(17) . . .
309(18) . . .
283(17) . . .
286(17) . . .
286(17) . . .
276(17) . . .
279(17) . . .
289(17) . . .
285(17) . . .
303(17) . . .
273(17) . . .
280(17) . . .
302(17) . . .
278(17) . . .
255(16) . . .
306(17) . . .
270(16) . . .
260(16) . . .
286(17) . . .
265(16) . . .
281(17) . . .
269(16) . . .
263(16) . . .
291(17) . . .
287(17) . . .
282(17) . . .
259(16) . . .
242(16) . . .
266(16) . . .
278(17) . . .
282(17) . . .
259(16) . . .
284(17) . . .
288(17) . . .
259(16) . . .
287(17) . . .
288(17) . . .
287(17) . . .
272(16) . . .
306(17) . . .
278(17) . . .
280(17) . . .
274(17) . . .
291(17) . . .
271(16) . . .
292(17) . . .
290(17) . . .
301(17) . . .
306(17) . . .
281(17) . . .
301(17) . . .
302(17) . . .
303(17) . . .
272(16) . . .
294(17) . . .
270(16) . . .
280(17) . . .
268(16) . . .
300(17) . . .
292(17) . . .
273(17) . . .
274(17) . . .
304(17) . . .
256(16) . . .
296(17) . . .
253(16) . . .
278(17) . . .
298(17) . . .
272(16) . . .
296(17) . . .
275(17) . . .
295(17) . . .
306(17) . . .
289(17) . . .
303(17) . . .
277(17) . . .
304(17) . . .
289(17) . . .
299(17) . . .
321(18) . . .
284(17) . . .
293(17) . . .
293(17) . . .
305(17) . . .
309(18) . . .
285(17) . . .
289(17) . . .
257(16) . . .
308(18) . . .
293(17) . . .
272(16) . . .
295(17) . . .
258(16) . . .
314(18) . . .
300(17) . . .
299(17) . . .
299(17) . . .
283(17) . . .
296(17) . . .
306(17) . . .
303(17) . . .
302(17) . . .
294(17) . . .
321(18) . . .
289(17) . . .
299(17) . . .
315(18) . . .
264(16) . . .
278(17) . . .
299(17) . . .
299(17) . . .
284(17) . . .
289(17) . . .
278(17) . . .
294(17) . . .
304(17) . . .
288(17) . . .
267(16) . . .
259(16) . . .
294(17) . . .
287(17) . . .
293(17) . . .
274(17) . . .
288(17) . . .
291(17) . . .
305(17) . . .
315(18) . . .
284(17) . . .
284(17) . . .
268(16) . . .
290(17) . . .
267(16) . . .
273(17) . . .
311(18) . . .
252(16) . . .
273(17) . . .
295(17) . . .
308(18) . . .
310(18) . . .
295(17) . . .
273(17) . . .
281(17) . . .
275(17) . . .
300(17) . . .
321(18) . . .
296(17) . . .
281(17) . . .
309(18) . . .
326(18) . . .
335(18) . . .
305(17) . . .
302(17) . . .
298(17) . . .
298(17) . . .
274(17) . . .
310(18) . . .
298(17) . . .
290(17) . . .
307(18) . . .
264(16) . . .
277(17) . . .
293(17) . . .
280(17) . . .
269(16) . . .
289(17) . . .
274(17) . . .
299(17) . . .
319(18) . . .
297(17) . . .
295(17) . . .
293(17) . . .
318(18) . . .
286(17) . . .
311(18) . . .
292(17) . . .
291(17) . . .
292(17) . . .
288(17) . . .
304(17) . . .
305(17) . . .
284(17) . . .
298(17) . . .
295(17) . . .
305(17) . . .
280(17) . . .
273(17) . . .
277(17) . . .
282(17) . . .
313(18) . . .
319(18) . . .
311(18) . . .
272(16) . . .
288(17) . . .
300(17) . . .
290(17) . . .
286(17) . . .
309(18) . . .
291(17) . . .
293(17) . . .
319(18) . . .
291(17) . . .
248(16) . . .
283(17) . . .
329(18) . . .
333(18) . . .
296(17) . . .
268(16) . . .
301(17) . . .
259(16) . . .
284(17) . . .
283(17) . . .
293(17) . . .
303(17) . . .
265(16) . . .
280(17) . . .
309(18) . . .
272(16) . . .
279(17) . . .
287(17) . . .
283(17) . . .
290(17) . . .
320(18) . . .
292(17) . . .
277(17) . . .
282(17) . . .
305(17) . . .
294(17) . . .
289(17) . . .
284(17) . . .
271(16) . . .
250(16) . . .
260(16) . . .
302(17) . . .
315(18) . . .
285(17) . . .
311(18) . . .
289(17) . . .
310(18) . . .
291(17) . . .
298(17) . . .
307(18) . . .
293(17) . . .
289(17) . . .
307(18) . . .
291(17) . . .
282(17) . . .
290(17) . . .
307(18) . . .
267(16) . . .
289(17) . . .
302(17) . . .
286(17) . . .
316(18) . . .
300(17) . . .
294(17) . . .
285(17) . . .
280(17) . . .
297(17) . . .
298(17) . . .
297(17) . . .
273(17) . . .
282(17) . . .
320(18) . . .
296(17) . . .
305(17) . . .
317(18) . . .
276(17) . . .
306(17) . . .
295(17) . . .
294(17) . . .
302(17) . . .
271(16) . . .
305(17) . . .
264(16) . . .
291(17) . . .
282(17) . . .
294(17) . . .
311(18) . . .
285(17) . . .
270(16) . . .
293(17) . . .
301(17) . . .
298(17) . . .
301(17) . . .
312(18) . . .
297(17) . . .
292(17) . . .
298(17) . . .
293(17) . . .
304(17) . . .
297(17) . . .
307(18) . . .
290(17) . . .
317(18) . . .
295(17) . . .
279(17) . . .
311(18) . . .
316(18) . . .
299(17) . . .
305(17) . . .
335(18) . . .
307(18) . . .
321(18) . . .
337(18) . . .
321(18) . . .
306(17) . . .
328(18) . . .
369(19) . . .
324(18) . . .
319(18) . . .
323(18) . . .
310(18) . . .
308(18) . . .
299(17) . . .
333(18) . . .
295(17) . . .
327(18) . . .
288(17) . . .
301(17) . . .
315(18) . . .
322(18) . . .
317(18) . . .
328(18) . . .
313(18) . . .
346(19) . . .
329(18) . . .
299(17) . . .
302(17) . . .
314(18) . . .
342(18) . . .
316(18) . . .
318(18) . . .
322(18) . . .
318(18) . . .
314(18) . . .
341(18) . . .
332(18) . . .
330(18) . . .
347(19) . . .
336(18) . . .
319(18) . . .
346(19) . . .
341(18) . . .
357(19) . . .
334(18) . . .
318(18) . . .
359(19) . . .
345(19) . . .
383(20) . . .
343(19) . . .
381(20) . . .
336(18) . . .
355(19) . . .
370(19) . . .
362(19) . . .
349(19) . . .
356(19) . . .
367(19) . . .
363(19) . . .
379(19) . . .
370(19) . . .
391(20) . . .
379(19) . . .
366(19) . . .
423(21) . . .
391(20) . . .
385(20) . . .
340(18) . . .
394(20) . . .
377(19) . . .
373(19) . . .
361(19) . . .
376(19) . . .
378(19) . . .
397(20) . . .
405(20) . . .
404(20) . . .
393(20) . . .
383(20) . . .
398(20) . . .
431(21) . . .
438(21) . . .
418(20) . . .
436(21) . . .
430(21) . . .
435(21) . . .
460(21) . . .
439(21) . . .
426(21) . . .
461(21) . . .
437(21) . . .
481(22) . . .
475(22) . . .
491(22) . . .
461(21) . . .
497(22) . . .
525(23) . . .
507(23) . . .
533(23) . . .
508(23) . . .
547(23) . . .
555(24) . . .
594(24) . . .
621(25) . . .
609(25) . . .
628(25) . . .
697(26) . . .
715(27) . . .
696(26) . . .
665(26) . . .
780(28) . . .
856(29) . . .
800(28) . . .
886(30) . . .
925(30) . . .
909(30) . . .
955(31) . . .
1064(33) . . .
1095(33) . . .
1152(34) . . .
1235(35) . . .
1354(37) . . .
1395(37) . . .
1512(39) . . .
1649(41) . . .
1751(42) . . .
1919(44) . . .
2014(45) . . .
2211(47) . . .
2379(49) . . .
2765(53) . . .
2900(54) . . .
3145(56) . . .
3576(60) . . .
4001(63) . . .
4471(67) . . .
5116(72) . . .
5570(75) . . .
6302(79) . . .
7167(85) . . .
8272(91) . . .
9334(97) . . .
10660(100) . . .
12170(110) . . .
13550(120) . . .
15160(120) . . .
16560(130) . . .
17820(130) . . .
18670(140) . . .
19020(140) . . .
19210(140) . . .
18780(140) . . .
17960(130) . . .
17060(130) . . .
15690(130) . . .
14230(120) . . .
12730(110) . . .
11170(110) . . .
9756(99) . . .
8422(92) . . .
7460(86) . . .
6515(81) . . .
5763(76) . . .
5141(72) . . .
4509(67) . . .
3909(63) . . .
3589(60) . . .
3048(55) . . .
2914(54) . . .
2549(50) . . .
2345(48) . . .
2140(46) . . .
1971(44) . . .
1845(43) . . .
1659(41) . . .
1599(40) . . .
1416(38) . . .
1372(37) . . .
1292(36) . . .
1192(35) . . .
1120(33) . . .
1046(32) . . .
1000(32) . . .
902(30) . . .
952(31) . . .
851(29) . . .
770(28) . . .
815(29) . . .
752(27) . . .
778(28) . . .
677(26) . . .
713(27) . . .
668(26) . . .
639(25) . . .
609(25) . . .
631(25) . . .
626(25) . . .
580(24) . . .
551(23) . . .
550(23) . . .
518(23) . . .
535(23) . . .
522(23) . . .
523(23) . . .
553(24) . . .
495(22) . . .
470(22) . . .
447(21) . . .
450(21) . . .
465(22) . . .
437(21) . . .
437(21) . . .
448(21) . . .
429(21) . . .
438(21) . . .
396(20) . . .
381(20) . . .
420(20) . . .
419(20) . . .
383(20) . . .
437(21) . . .
376(19) . . .
365(19) . . .
380(19) . . .
411(20) . . .
391(20) . . .
421(21) . . .
384(20) . . .
378(19) . . .
371(19) . . .
358(19) . . .
379(19) . . .
356(19) . . .
409(20) . . .
354(19) . . .
361(19) . . .
369(19) . . .
344(19) . . .
374(19) . . .
335(18) . . .
356(19) . . .
336(18) . . .
302(17) . . .
338(18) . . .
340(18) . . .
384(20) . . .
328(18) . . .
316(18) . . .
346(19) . . .
308(18) . . .
326(18) . . .
352(19) . . .
352(19) . . .
331(18) . . .
334(18) . . .
314(18) . . .
316(18) . . .
319(18) . . .
355(19) . . .
322(18) . . .
327(18) . . .
333(18) . . .
305(17) . . .
336(18) . . .
308(18) . . .
327(18) . . .
324(18) . . .
331(18) . . .
305(17) . . .
314(18) . . .
316(18) . . .
320(18) . . .
298(17) . . .
334(18) . . .
325(18) . . .
305(17) . . .
304(17) . . .
323(18) . . .
300(17) . . .
318(18) . . .
296(17) . . .
333(18) . . .
322(18) . . .
314(18) . . .
313(18) . . .
279(17) . . .
289(17) . . .
288(17) . . .
303(17) . . .
287(17) . . .
275(17) . . .
304(17) . . .
321(18) . . .
291(17) . . .
295(17) . . .
286(17) . . .
318(18) . . .
305(17) . . .
306(17) . . .
311(18) . . .
281(17) . . .
289(17) . . .
289(17) . . .
306(17) . . .
307(18) . . .
301(17) . . .
318(18) . . .
308(18) . . .
304(17) . . .
312(18) . . .
329(18) . . .
332(18) . . .
299(17) . . .
290(17) . . .
285(17) . . .
288(17) . . .
313(18) . . .
295(17) . . .
300(17) . . .
300(17) . . .
321(18) . . .
306(17) . . .
296(17) . . .
302(17) . . .
311(18) . . .
295(17) . . .
304(17) . . .
294(17) . . .
312(18) . . .
316(18) . . .
297(17) . . .
305(17) . . .
318(18) . . .
312(18) . . .
295(17) . . .
297(17) . . .
290(17) . . .
320(18) . . .
319(18) . . .
293(17) . . .
322(18) . . .
302(17) . . .
289(17) . . .
291(17) . . .
288(17) . . .
303(17) . . .
303(17) . . .
306(17) . . .
310(18) . . .
296(17) . . .
270(16) . . .
294(17) . . .
317(18) . . .
325(18) . . .
275(17) . . .
323(18) . . .
305(17) . . .
302(17) . . .
318(18) . . .
307(18) . . .
297(17) . . .
301(17) . . .
287(17) . . .
299(17) . . .
310(18) . . .
292(17) . . .
311(18) . . .
316(18) . . .
296(17) . . .
312(18) . . .
313(18) . . .
329(18) . . .
274(17) . . .
322(18) . . .
313(18) . . .
319(18) . . .
332(18) . . .
314(18) . . .
304(17) . . .
282(17) . . .
312(18) . . .
314(18) . . .
322(18) . . .
310(18) . . .
304(17) . . .
309(18) . . .
316(18) . . .
341(18) . . .
326(18) . . .
339(18) . . .
326(18) . . .
327(18) . . .
324(18) . . .
338(18) . . .
331(18) . . .
326(18) . . .
314(18) . . .
330(18) . . .
370(19) . . .
326(18) . . .
334(18) . . .
348(19) . . .
366(19) . . .
356(19) . . .
329(18) . . .
352(19) . . .
372(19) . . .
380(19) . . .
351(19) . . .
374(19) . . .
388(20) . . .
400(20) . . .
356(19) . . .
384(20) . . .
377(19) . . .
438(21) . . .
445(21) . . .
417(20) . . .
435(21) . . .
465(22) . . .
488(22) . . .
456(21) . . .
470(22) . . .
511(23) . . .
502(22) . . .
568(24) . . .
531(23) . . .
551(23) . . .
579(24) . . .
613(25) . . .
597(24) . . .
645(25) . . .
739(27) . . .
690(26) . . .
766(28) . . .
796(28) . . .
834(29) . . .
923(30) . . .
993(32) . . .
1019(32) . . .
1117(33) . . .
1203(35) . . .
1286(36) . . .
1414(38) . . .
1547(39) . . .
1695(41) . . .
1853(43) . . .
2132(46) . . .
2433(49) . . .
2589(51) . . .
2874(54) . . .
3376(58) . . .
3690(61) . . .
4285(65) . . .
4808(69) . . .
5528(74) . . .
6080(78) . . .
6776(82) . . .
7281(85) . . .
7925(89) . . .
7973(89) . . .
8594(93) . . .
8575(93) . . .
8492(92) . . .
8247(91) . . .
7679(88) . . .
7161(85) . . .
6478(80) . . .
5690(75) . . .
5120(72) . . .
4501(67) . . .
3745(61) . . .
3420(58) . . .
2997(55) . . .
2585(51) . . .
2301(48) . . .
2077(46) . . .
1926(44) . . .
1734(42) . . .
1533(39) . . .
1362(37) . . .
1299(36) . . .
1120(33) . . .
1060(33) . . .
1014(32) . . .
921(30) . . .
868(29) . . .
804(28) . . .
754(27) . . .
715(27) . . .
693(26) . . .
627(25) . . .
603(25) . . .
621(25) . . .
541(23) . . .
572(24) . . .
510(23) . . .
521(23) . . .
523(23) . . .
477(22) . . .
457(21) . . .
445(21) . . .
433(21) . . .
416(20) . . .
439(21) . . .
391(20) . . .
412(20) . . .
401(20) . . .
415(20) . . .
381(20) . . .
395(20) . . .
388(20) . . .
362(19) . . .
367(19) . . .
355(19) . . .
380(19) . . .
354(19) . . .
336(18) . . .
346(19) . . .
327(18) . . .
349(19) . . .
344(19) . . .
321(18) . . .
327(18) . . .
357(19) . . .
307(18) . . .
317(18) . . .
321(18) . . .
358(19) . . .
329(18) . . .
322(18) . . .
292(17) . . .
302(17) . . .
298(17) . . .
303(17) . . .
317(18) . . .
298(17) . . .
315(18) . . .
300(17) . . .
296(17) . . .
308(18) . . .
295(17) . . .
317(18) . . .
287(17) . . .
295(17) . . .
320(18) . . .
297(17) . . .
314(18) . . .
291(17) . . .
303(17) . . .
281(17) . . .
297(17) . . .
294(17) . . .
302(17) . . .
261(16) . . .
300(17) . . .
281(17) . . .
277(17) . . .
254(16) . . .
279(17) . . .
293(17) . . .
293(17) . . .
288(17) . . .
308(18) . . .
289(17) . . .
290(17) . . .
262(16) . . .
274(17) . . .
291(17) . . .
274(17) . . .
280(17) . . .
266(16) . . .
268(16) . . .
262(16) . . .
268(16) . . .
294(17) . . .
286(17) . . .
268(16) . . .
272(16) . . .
261(16) . . .
299(17) . . .
287(17) . . .
300(17) . . .
295(17) . . .
290(17) . . .
268(16) . . .
274(17) . . .
284(17) . . .
286(17) . . .
298(17) . . .
266(16) . . .
260(16) . . .
247(16) . . .
291(17) . . .
270(16) . . .
284(17) . . .
246(16) . . .
306(17) . . .
265(16) . . .
288(17) . . .
272(16) . . .
249(16) . . .
268(16) . . .
281(17) . . .
257(16) . . .
266(16) . . .
259(16) . . .
267(16) . . .
271(16) . . .
298(17) . . .
271(16) . . .
289(17) . . .
252(16) . . .
259(16) . . .
279(17) . . .
251(16) . . .
269(16) . . .
273(17) . . .
258(16) . . .
270(16) . . .
281(17) . . .
258(16) . . .
252(16) . . .
234(15) . . .
258(16) . . .
266(16) . . .
259(16) . . .
264(16) . . .
272(16) . . .
272(16) . . .
231(15) . . .
258(16) . . .
264(16) . . .
232(15) . . .
288(17) . . .
260(16) . . .
282(17) . . .
275(17) . . .
253(16) . . .
264(16) . . .
290(17) . . .
257(16) . . .
254(16) . . .
265(16) . . .
252(16) . . .
237(15) . . .
268(16) . . .
277(17) . . .
267(16) . . .
242(16) . . .
259(16) . . .
278(17) . . .
241(16) . . .
256(16) . . .
239(15) . . .
250(16) . . .
254(16) . . .
271(16) . . .
269(16) . . .
249(16) . . .
261(16) . . .
275(17) . . .
243(16) . . .
228(15) . . .
252(16) . . .
244(16) . . .
257(16) . . .
261(16) . . .
241(16) . . .
264(16) . . .
240(15) . . .
244(16) . . .
254(16) . . .
247(16) . . .
251(16) . . .
223(15) . . .
250(16) . . .
264(16) . . .
253(16) . . .
221(15) . . .
265(16) . . .
252(16) . . .
272(16) . . .
258(16) . . .
247(16) . . .
245(16) . . .
233(15) . . .
248(16) . . .
246(16) . . .
260(16) . . .
240(15) . . .
262(16) . . .
263(16) . . .
273(17) . . .
254(16) . . .
238(15) . . .
246(16) . . .
255(16) . . .
249(16) . . .
240(15) . . .
268(16) . . .
254(16) . . .
266(16) . . .
280(17) . . .
241(16) . . .
224(15) . . .
235(15) . . .
245(16) . . .
224(15) . . .
239(15) . . .
256(16) . . .
221(15) . . .
247(16) . . .
232(15) . . .
254(16) . . .
266(16) . . .
227(15) . . .
233(15) . . .
238(15) . . .
235(15) . . .
242(16) . . .
223(15) . . .
263(16) . . .
257(16) . . .
229(15) . . .
234(15) . . .
255(16) . . .
245(16) . . .
276(17) . . .
235(15) . . .
247(16) . . .
259(16) . . .
243(16) . . .
222(15) . . .
246(16) . . .
234(15) . . .
220(15) . . .
260(16) . . .
235(15) . . .
261(16) . . .
273(17) . . .
245(16) . . .
252(16) . . .
260(16) . . .
235(15) . . .
261(16) . . .
217(15) . . .
264(16) . . .
243(16) . . .
232(15) . . .
249(16) . . .
230(15) . . .
248(16) . . .
247(16) . . .
230(15) . . .
206(14) . . .
236(15) . . .
237(15) . . .
241(16) . . .
248(16) . . .
234(15) . . .
248(16) . . .
253(16) . . .
266(16) . . .
256(16) . . .
250(16) . . .
228(15) . . .
255(16) . . .
235(15) . . .
225(15) . . .
238(15) . . .
243(16) . . .
242(16) . . .
240(15) . . .
229(15) . . .
210(14) . . .
222(15) . . .
227(15) . . .
244(16) . . .
252(16) . . .
238(15) . . .
246(16) . . .
254(16) . . .
228(15) . . .
253(16) . . .
263(16) . . .
244(16) . . .
254(16) . . .
228(15) . . .
271(16) . . .
245(16) . . .
230(15) . . .
240(15) . . .
239(15) . . .
248(16) . . .
218(15) . . .
208(14) . . .
247(16) . . .
229(15) . . .
252(16) . . .
239(15) . . .
270(16) . . .
237(15) . . .
235(15) . . .
246(16) . . .
241(16) . . .
233(15) . . .
248(16) . . .
237(15) . . .
243(16) . . .
254(16) . . .
251(16) . . .
250(16) . . .
211(15) . . .
242(16) . . .
233(15) . . .
244(16) . . .
257(16) . . .
251(16) . . .
225(15) . . .
258(16) . . .
236(15) . . .
246(16) . . .
232(15) . . .
235(15) . . .
230(15) . . .
210(14) . . .
235(15) . . .
249(16) . . .
226(15) . . .
232(15) . . .
235(15) . . .
242(16) . . .
226(15) . . .
241(16) . . .
244(16) . . .
200(14) . . .
219(15) . . .
251(16) . . .
238(15) . . .
234(15) . . .
248(16) . . .
241(16) . . .
256(16) . . .
225(15) . . .
213(15) . . .
232(15) . . .
235(15) . . .
244(16) . . .
246(16) . . .
228(15) . . .
242(16) . . .
271(16) . . .
239(15) . . .
266(16) . . .
247(16) . . .
241(16) . . .
240(15) . . .
256(16) . . .
245(16) . . .
225(15) . . .
253(16) . . .
224(15) . . .
212(15) . . .
250(16) . . .
230(15) . . .
265(16) . . .
220(15) . . .
203(14) . . .
231(15) . . .
252(16) . . .
261(16) . . .
226(15) . . .
233(15) . . .
206(14) . . .
227(15) . . .
236(15) . . .
223(15) . . .
222(15) . . .
220(15) . . .
239(15) . . .
240(15) . . .
221(15) . . .
245(16) . . .
219(15) . . .
251(16) . . .
235(15) . . .
243(16) . . .
264(16) . . .
234(15) . . .
230(15) . . .
262(16) . . .
219(15) . . .
230(15) . . .
249(16) . . .
253(16) . . .
249(16) . . .
237(15) . . .
227(15) . . .
235(15) . . .
203(14) . . .
231(15) . . .
224(15) . . .
226(15) . . .
221(15) . . .
246(16) . . .
225(15) . . .
211(15) . . .
215(15) . . .
248(16) . . .
231(15) . . .
209(14) . . .
250(16) . . .
234(15) . . .
235(15) . . .
243(16) . . .
225(15) . . .
233(15) . . .
243(16) . . .
251(16) . . .
246(16) . . .
224(15) . . .
242(16) . . .
220(15) . . .
223(15) . . .
210(14) . . .
229(15) . . .
236(15) . . .
218(15) . . .
229(15) . . .
234(15) . . .
206(14) . . .
232(15) . . .
231(15) . . .
223(15) . . .
230(15) . . .
230(15) . . .
215(15) . . .
236(15) . . .
225(15) . . .
240(15) . . .
240(15) . . .
240(15) . . .
225(15) . . .
240(15) . . .
250(16) . . .
233(15) . . .
209(14) . . .
215(15) . . .
251(16) . . .
228(15) . . .
230(15) . . .
236(15) . . .
234(15) . . .
236(15) . . .
218(15) . . .
237(15) . . .
229(15) . . .
208(14) . . .
244(16) . . .
225(15) . . .
242(16) . . .
235(15) . . .
248(16) . . .
221(15) . . .
250(16) . . .
216(15) . . .
225(15) . . .
257(16) . . .
231(15) . . .
217(15) . . .
219(15) . . .
227(15) . . .
217(15) . . .
238(15) . . .
245(16) . . .
219(15) . . .
224(15) . . .
246(16) . . .
222(15) . . .
228(15) . . .
211(15) . . .
244(16) . . .
225(15) . . .
218(15) . . .
221(15) . . .
216(15) . . .
217(15) . . .
243(16) . . .
225(15) . . .
218(15) . . .
230(15) . . .
216(15) . . .
220(15) . . .
253(16) . . .
226(15) . . .
237(15) . . .
229(15) . . .
221(15) . . .
226(15) . . .
245(16) . . .
217(15) . . .
226(15) . . .
226(15) . . .
227(15) . . .
218(15) . . .
240(15) . . .
247(16) . . .
238(15) . . .
220(15) . . .
212(15) . . .
242(16) . . .
249(16) . . .
222(15) . . .
214(15) . . .
222(15) . . .
215(15) . . .
218(15) . . .
214(15) . . .
249(16) . . .
206(14) . . .
222(15) . . .
233(15) . . .
228(15) . . .
222(15) . . .
232(15) . . .
225(15) . . .
248(16) . . .
213(15) . . .
236(15) . . .
212(15) . . .
227(15) . . .
231(15) . . .
208(14) . . .
203(14) . . .
249(16) . . .
227(15) . . .
214(15) . . .
209(14) . . .
220(15) . . .
202(14) . . .
240(15) . . .
255(16) . . .
234(15) . . .
192(14) . . .
203(14) . . .
232(15) . . .
222(15) . . .
216(15) . . .
227(15) . . .
218(15) . . .
212(15) . . .
215(15) . . .
239(15) . . .
211(15) . . .
238(15) . . .
213(15) . . .
232(15) . . .
226(15) . . .
237(15) . . .
209(14) . . .
246(16) . . .
229(15) . . .
229(15) . . .
238(15) . . .
238(15) . . .
245(16) . . .
201(14) . . .
206(14) . . .
216(15) . . .
244(16) . . .
224(15) . . .
220(15) . . .
217(15) . . .
229(15) . . .
234(15) . . .
231(15) . . .
219(15) . . .
228(15) . . .
217(15) . . .
244(16) . . .
202(14) . . .
222(15) . . .
204(14) . . .
246(16) . . .
224(15) . . .
222(15) . . .
230(15) . . .
208(14) . . .
206(14) . . .
237(15) . . .
240(15) . . .
232(15) . . .
179(13) . . .
209(14) . . .
237(15) . . .
221(15) . . .
224(15) . . .
235(15) . . .
242(16) . . .
239(15) . . .
232(15) . . .
245(16) . . .
248(16) . . .
217(15) . . .
201(14) . . .
251(16) . . .
229(15) . . .
207(14) . . .
246(16) . . .
235(15) . . .
225(15) . . .
231(15) . . .
224(15) . . .
227(15) . . .
237(15) . . .
210(14) . . .
242(16) . . .
218(15) . . .
219(15) . . .
226(15) . . .
221(15) . . .
208(14) . . .
229(15) . . .
233(15) . . .
215(15) . . .
210(14) . . .
213(15) . . .
227(15) . . .
218(15) . . .
205(14) . . .
239(15) . . .
229(15) . . .
212(15) . . .
233(15) . . .
236(15) . . .
236(15) . . .
237(15) . . .
219(15) . . .
231(15) . . .
225(15) . . .
231(15) . . .
209(14) . . .
220(15) . . .
244(16) . . .
229(15) . . .
249(16) . . .
244(16) . . .
232(15) . . .
224(15) . . .
232(15) . . .
226(15) . . .
236(15) . . .
225(15) . . .
239(15) . . .
220(15) . . .
226(15) . . .
254(16) . . .
249(16) . . .
225(15) . . .
236(15) . . .
229(15) . . .
223(15) . . .
224(15) . . .
238(15) . . .
226(15) . . .
250(16) . . .
250(16) . . .
217(15) . . .
221(15) . . .
230(15) . . .
236(15) . . .
211(15) . . .
211(15) . . .
231(15) . . .
216(15) . . .
233(15) . . .
214(15) . . .
206(14) . . .
216(15) . . .
228(15) . . .
226(15) . . .
224(15) . . .
229(15) . . .
224(15) . . .
206(14) . . .
228(15) . . .
225(15) . . .
231(15) . . .
229(15) . . .
231(15) . . .
213(15) . . .
221(15) . . .
230(15) . . .
233(15) . . .
216(15) . . .
229(15) . . .
227(15) . . .
212(15) . . .
224(15) . . .
202(14) . . .
209(14) . . .
250(16) . . .
220(15) . . .
234(15) . . .
239(15) . . .
213(15) . . .
217(15) . . .
222(15) . . .
211(15) . . .
203(14) . . .
230(15) . . .
229(15) . . .
232(15) . . .
221(15) . . .
245(16) . . .
243(16) . . .
217(15) . . .
221(15) . . .
241(16) . . .
261(16) . . .
220(15) . . .
218(15) . . .
236(15) . . .
210(14) . . .
218(15) . . .
228(15) . . .
245(16) . . .
210(14) . . .
237(15) . . .
228(15) . . .
212(15) . . .
223(15) . . .
224(15) . . .
253(16) . . .
216(15) . . .
209(14) . . .
227(15) . . .
218(15) . . .
230(15) . . .
236(15) . . .
204(14) . . .
212(15) . . .
234(15) . . .
228(15) . . .
236(15) . . .
229(15) . . .
245(16) . . .
242(16) . . .
235(15) . . .
236(15) . . .
219(15) . . .
235(15) . . .
241(16) . . .
228(15) . . .
226(15) . . .
247(16) . . .
221(15) . . .
233(15) . . .
247(16) . . .
236(15) . . .
239(15) . . .
243(16) . . .
241(16) . . .
236(15) . . .
243(16) . . .
247(16) . . .
233(15) . . .
229(15) . . .
262(16) . . .
238(15) . . .
225(15) . . .
216(15) . . .
217(15) . . .
237(15) . . .
221(15) . . .
233(15) . . .
245(16) . . .
225(15) . . .
239(15) . . .
215(15) . . .
214(15) . . .
278(17) . . .
229(15) . . .
245(16) . . .
226(15) . . .
248(16) . . .
247(16) . . .
243(16) . . .
222(15) . . .
248(16) . . .
235(15) . . .
218(15) . . .
241(16) . . .
228(15) . . .
248(16) . . .
252(16) . . .
234(15) . . .
254(16) . . .
265(16) . . .
254(16) . . .
259(16) . . .
226(15) . . .
242(16) . . .
253(16) . . .
233(15) . . .
231(15) . . .
237(15) . . .
267(16) . . .
246(16) . . .
226(15) . . .
243(16) . . .
261(16) . . .
245(16) . . .
254(16) . . .
245(16) . . .
208(14) . . .
247(16) . . .
233(15) . . .
233(15) . . .
229(15) . . .
238(15) . . .
237(15) . . .
231(15) . . .
254(16) . . .
225(15) . . .
229(15) . . .
253(16) . . .
243(16) . . .
225(15) . . .
249(16) . . .
245(16) . . .
235(15) . . .
245(16) . . .
236(15) . . .
224(15) . . .
226(15) . . .
258(16) . . .
252(16) . . .
230(15) . . .
234(15) . . .
235(15) . . .
241(16) . . .
230(15) . . .
237(15) . . .
235(15) . . .
225(15) . . .
235(15) . . .
220(15) . . .
232(15) . . .
252(16) . . .
243(16) . . .
244(16) . . .
211(15) . . .
234(15) . . .
249(16) . . .
229(15) . . .
216(15) . . .
217(15) . . .
246(16) . . .
235(15) . . .
208(14) . . .
229(15) . . .
221(15) . . .
239(15) . . .
246(16) . . .
233(15) . . .
249(16) . . .
241(16) . . .
206(14) . . .
237(15) . . .
222(15) . . .
238(15) . . .
218(15) . . .
232(15) . . .
230(15) . . .
235(15) . . .
214(15) . . .
233(15) . . .
229(15) . . .
255(16) . . .
256(16) . . .
229(15) . . .
201(14) . . .
223(15) . . .
220(15) . . .
231(15) . . .
211(15) . . .
218(15) . . .
248(16) . . .
207(14) . . .
225(15) . . .
219(15) . . .
219(15) . . .
208(14) . . .
221(15) . . .
235(15) . . .
241(16) . . .
236(15) . . .
238(15) . . .
238(15) . . .
231(15) . . .
228(15) . . .
241(16) . . .
240(15) . . .
233(15) . . .
232(15) . . .
214(15) . . .
215(15) . . .
224(15) . . .
236(15) . . .
249(16) . . .
244(16) . . .
231(15) . . .
238(15) . . .
239(15) . . .
233(15) . . .
244(16) . . .
245(16) . . .
203(14) . . .
253(16) . . .
273(17) . . .
234(15) . . .
258(16) . . .
194(14) . . .
221(15) . . .
235(15) . . .
234(15) . . .
263(16) . . .
235(15) . . .
239(15) . . .
240(15) . . .
259(16) . . .
226(15) . . .
231(15) . . .
216(15) . . .
246(16) . . .
238(15) . . .
228(15) . . .
254(16) . . .
225(15) . . .
224(15) . . .
241(16) . . .
238(15) . . .
260(16) . . .
224(15) . . .
217(15) . . .
212(15) . . .
232(15) . . .
230(15) . . .
235(15) . . .
234(15) . . .
235(15) . . .
221(15) . . .
217(15) . . .
221(15) . . .
241(16) . . .
230(15) . . .
230(15) . . .
222(15) . . .
237(15) . . .
237(15) . . .
238(15) . . .
218(15) . . .
230(15) . . .
233(15) . . .
216(15) . . .
227(15) . . .
234(15) . . .
214(15) . . .
243(16) . . .
236(15) . . .
232(15) . . .
233(15) . . .
258(16) . . .
230(15) . . .
227(15) . . .
241(16) . . .
228(15) . . .
217(15) . . .
247(16) . . .
243(16) . . .
235(15) . . .
223(15) . . .
227(15) . . .
228(15) . . .
241(16) . . .
243(16) . . .
234(15) . . .
256(16) . . .
246(16) . . .
243(16) . . .
227(15) . . .
249(16) . . .
240(15) . . .
239(15) . . .
271(16) . . .
244(16) . . .
241(16) . . .
231(15) . . .
213(15) . . .
255(16) . . .
244(16) . . .
216(15) . . .
234(15) . . .
261(16) . . .
261(16) . . .
227(15) . . .
235(15) . . .
240(15) . . .
242(16) . . .
232(15) . . .
251(16) . . .
213(15) . . .
238(15) . . .
222(15) . . .
229(15) . . .
224(15) . . .
227(15) . . .
235(15) . . .
227(15) . . .
215(15) . . .
268(16) . . .
223(15) . . .
228(15) . . .
241(16) . . .
246(16) . . .
224(15) . . .
211(15) . . .
226(15) . . .
234(15) . . .
218(15) . . .
230(15) . . .
247(16) . . .
244(16) . . .
251(16) . . .
228(15) . . .
257(16) . . .
229(15) . . .
254(16) . . .
235(15) . . .
213(15) . . .
224(15) . . .
244(16) . . .
216(15) . . .
229(15) . . .
218(15) . . .
225(15) . . .
223(15) . . .
217(15) . . .
227(15) . . .
249(16) . . .
240(15) . . .
213(15) . . .
218(15) . . .
225(15) . . .
237(15) . . .
218(15) . . .
209(14) . . .
222(15) . . .
230(15) . . .
263(16) . . .
238(15) . . .
240(15) . . .
227(15) . . .
224(15) . . .
252(16) . . .
236(15) . . .
224(15) . . .
233(15) . . .
252(16) . . .
250(16) . . .
261(16) . . .
234(15) . . .
219(15) . . .
245(16) . . .
263(16) . . .
234(15) . . .
230(15) . . .
241(16) . . .
229(15) . . .
259(16) . . .
265(16) . . .
261(16) . . .
221(15) . . .
256(16) . . .
263(16) . . .
241(16) . . .
248(16) . . .
232(15) . . .
235(15) . . .
237(15) . . .
259(16) . . .
255(16) . . .
256(16) . . .
227(15) . . .
248(16) . . .
233(15) . . .
238(15) . . .
255(16) . . .
236(15) . . .
247(16) . . .
285(17) . . .
255(16) . . .
225(15) . . .
263(16) . . .
252(16) . . .
267(16) . . .
251(16) . . .
271(16) . . .
233(15) . . .
258(16) . . .
270(16) . . .
261(16) . . .
237(15) . . .
270(16) . . .
261(16) . . .
274(17) . . .
255(16) . . .
278(17) . . .
293(17) . . .
283(17) . . .
256(16) . . .
310(18) . . .
251(16) . . .
268(16) . . .
256(16) . . .
306(17) . . .
281(17) . . .
296(17) . . .
281(17) . . .
276(17) . . .
267(16) . . .
322(18) . . .
329(18) . . .
291(17) . . .
310(18) . . .
308(18) . . .
297(17) . . .
344(19) . . .
323(18) . . .
363(19) . . .
373(19) . . .
347(19) . . .
344(19) . . .
352(19) . . .
361(19) . . .
355(19) . . .
394(20) . . .
374(19) . . .
405(20) . . .
416(20) . . .
402(20) . . .
396(20) . . .
452(21) . . .
432(21) . . .
460(21) . . .
490(22) . . .
513(23) . . .
526(23) . . .
555(24) . . .
559(24) . . .
622(25) . . .
673(26) . . .
687(26) . . .
719(27) . . .
750(27) . . .
770(28) . . .
879(30) . . .
1014(32) . . .
986(31) . . .
1136(34) . . .
1246(35) . . .
1344(37) . . .
1393(37) . . .
1620(40) . . .
1752(42) . . .
1948(44) . . .
2285(48) . . .
2451(50) . . .
2739(52) . . .
3200(57) . . .
3514(59) . . .
4091(64) . . .
4646(68) . . .
5162(72) . . .
5613(75) . . .
6069(78) . . .
6562(81) . . .
6770(82) . . .
6824(83) . . .
6957(83) . . .
6762(82) . . .
6640(81) . . .
6152(78) . . .
5648(75) . . .
5224(72) . . .
4653(68) . . .
4209(65) . . .
3714(61) . . .
3259(57) . . .
2907(54) . . .
2619(51) . . .
2398(49) . . .
2030(45) . . .
1843(43) . . .
1684(41) . . .
1507(39) . . .
1392(37) . . .
1246(35) . . .
1097(33) . . .
1037(32) . . .
938(31) . . .
904(30) . . .
871(30) . . .
736(27) . . .
693(26) . . .
682(26) . . .
631(25) . . .
589(24) . . .
578(24) . . .
597(24) . . .
544(23) . . .
512(23) . . .
502(22) . . .
491(22) . . .
465(22) . . .
416(20) . . .
425(21) . . .
379(19) . . .
412(20) . . .
414(20) . . .
398(20) . . .
367(19) . . .
358(19) . . .
348(19) . . .
365(19) . . .
325(18) . . .
325(18) . . .
338(18) . . .
315(18) . . .
311(18) . . .
288(17) . . .
289(17) . . .
292(17) . . .
341(18) . . .
288(17) . . .
309(18) . . .
303(17) . . .
290(17) . . .
300(17) . . .
342(18) . . .
300(17) . . .
286(17) . . .
300(17) . . .
289(17) . . .
275(17) . . .
309(18) . . .
298(17) . . .
287(17) . . .
279(17) . . .
265(16) . . .
254(16) . . .
273(17) . . .
290(17) . . .
295(17) . . .
265(16) . . .
246(16) . . .
255(16) . . .
265(16) . . .
280(17) . . .
261(16) . . .
252(16) . . .
224(15) . . .
278(17) . . .
268(16) . . .
265(16) . . .
248(16) . . .
242(16) . . .
253(16) . . .
239(15) . . .
252(16) . . .
228(15) . . .
231(15) . . .
266(16) . . .
258(16) . . .
211(15) . . .
237(15) . . .
241(16) . . .
242(16) . . .
258(16) . . .
246(16) . . .
243(16) . . .
239(15) . . .
251(16) . . .
246(16) . . .
248(16) . . .
245(16) . . .
223(15) . . .
215(15) . . .
233(15) . . .
236(15) . . .
233(15) . . .
238(15) . . .
237(15) . . .
242(16) . . .
244(16) . . .
236(15) . . .
234(15) . . .
230(15) . . .
241(16) . . .
224(15) . . .
241(16) . . .
223(15) . . .
262(16) . . .
225(15) . . .
231(15) . . .
226(15) . . .
220(15) . . .
212(15) . . .
226(15) . . .
222(15) . . .
227(15) . . .
253(16) . . .
222(15) . . .
227(15) . . .
232(15) . . .
215(15) . . .
211(15) . . .
219(15) . . .
222(15) . . .
215(15) . . .
214(15) . . .
223(15) . . .
212(15) . . .
210(14) . . .
234(15) . . .
223(15) . . .
220(15) . . .
221(15) . . .
224(15) . . .
219(15) . . .
204(14) . . .
229(15) . . .
220(15) . . .
211(15) . . .
242(16) . . .
195(14) . . .
219(15) . . .
216(15) . . .
224(15) . . .
237(15) . . .
252(16) . . .
246(16) . . .
255(16) . . .
214(15) . . .
224(15) . . .
217(15) . . .
213(15) . . .
242(16) . . .
241(16) . . .
228(15) . . .
227(15) . . .
210(14) . . .
236(15) . . .
223(15) . . .
207(14) . . .
222(15) . . .
231(15) . . .
236(15) . . .
238(15) . . .
231(15) . . .
210(14) . . .
195(14) . . .
247(16) . . .
233(15) . . .
216(15) . . .
222(15) . . .
257(16) . . .
215(15) . . .
234(15) . . .
239(15) . . .
230(15) . . .
247(16) . . .
242(16) . . .
219(15) . . .
222(15) . . .
215(15) . . .
217(15) . . .
236(15) . . .
225(15) . . .
202(14) . . .
252(16) . . .
213(15) . . .
215(15) . . .
210(14) . . .
207(14) . . .
239(15) . . .
234(15) . . .
224(15) . . .
199(14) . . .
223(15) . . .
222(15) . . .
261(16) . . .
237(15) . . .
220(15) . . .
203(14) . . .
183(14) . . .
241(16) . . .
196(14) . . .
203(14) . . .
218(15) . . .
205(14) . . .
198(14) . . .
229(15) . . .
216(15) . . .
208(14) . . .
221(15) . . .
216(15) . . .
240(15) . . .
220(15) . . .
218(15) . . .
228(15) . . .
219(15) . . .
206(14) . . .
209(14) . . .
216(15) . . .
226(15) . . .
211(15) . . .
225(15) . . .
201(14) . . .
195(14) . . .
194(14) . . .
214(15) . . .
208(14) . . .
218(15) . . .
219(15) . . .
229(15) . . .
234(15) . . .
222(15) . . .
224(15) . . .
221(15) . . .
211(15) . . .
224(15) . . .
225(15) . . .
211(15) . . .
216(15) . . .
220(15) . . .
219(15) . . .
232(15) . . .
216(15) . . .
226(15) . . .
221(15) . . .
227(15) . . .
216(15) . . .
219(15) . . .
219(15) . . .
195(14) . . .
231(15) . . .
231(15) . . .
207(14) . . .
229(15) . . .
224(15) . . .
228(15) . . .
227(15) . . .
235(15) . . .
236(15) . . .
207(14) . . .
215(15) . . .
201(14) . . .
196(14) . . .
195(14) . . .
207(14) . . .
219(15) . . .
216(15) . . .
198(14) . . .
221(15) . . .
213(15) . . .
220(15) . . .
225(15) . . .
201(14) . . .
235(15) . . .
226(15) . . .
223(15) . . .
203(14) . . .
225(15) . . .
234(15) . . .
241(16) . . .
226(15) . . .
201(14) . . .
244(16) . . .
217(15) . . .
216(15) . . .
200(14) . . .
216(15) . . .
203(14) . . .
217(15) . . .
195(14) . . .
214(15) . . .
195(14) . . .
193(14) . . .
210(14) . . .
211(15) . . .
199(14) . . .
217(15) . . .
226(15) . . .
229(15) . . .
205(14) . . .
208(14) . . .
221(15) . . .
218(15) . . .
200(14) . . .
201(14) . . .
203(14) . . .
200(14) . . .
197(14) . . .
207(14) . . .
200(14) . . .
221(15) . . .
202(14) . . .
218(15) . . .
239(15) . . .
206(14) . . .
223(15) . . .
198(14) . . .
213(15) . . .
199(14) . . .
201(14) . . .
217(15) . . .
199(14) . . .
221(15) . . .
205(14) . . .
190(14) . . .
190(14) . . .
222(15) . . .
199(14) . . .
209(14) . . .
205(14) . . .
179(13) . . .
214(15) . . .
217(15) . . .
212(15) . . .
195(14) . . .
177(13) . . .
221(15) . . .
213(15) . . .
185(14) . . .
212(15) . . .
217(15) . . .
183(14) . . .
215(15) . . .
175(13) . . .
218(15) . . .
201(14) . . .
230(15) . . .
188(14) . . .
198(14) . . .
214(15) . . .
219(15) . . .
224(15) . . .
204(14) . . .
209(14) . . .
198(14) . . .
204(14) . . .
205(14) . . .
190(14) . . .
229(15) . . .
199(14) . . .
205(14) . . .
206(14) . . .
219(15) . . .
213(15) . . .
216(15) . . .
188(14) . . .
201(14) . . .
198(14) . . .
195(14) . . .
206(14) . . .
200(14) . . .
183(14) . . .
188(14) . . .
192(14) . . .
203(14) . . .
213(15) . . .
202(14) . . .
206(14) . . .
213(15) . . .
207(14) . . .
209(14) . . .
204(14) . . .
193(14) . . .
174(13) . . .
211(15) . . .
199(14) . . .
198(14) . . .
217(15) . . .
208(14) . . .
206(14) . . .
206(14) . . .
206(14) . . .
193(14) . . .
194(14) . . .
191(14) . . .
197(14) . . .
202(14) . . .
193(14) . . .
195(14) . . .
199(14) . . .
195(14) . . .
193(14) . . .
209(14) . . .
207(14) . . .
184(14) . . .
194(14) . . .
223(15) . . .
196(14) . . .
195(14) . . .
200(14) . . .
183(14) . . .
204(14) . . .
198(14) . . .
194(14) . . .
207(14) . . .
206(14) . . .
213(15) . . .
177(13) . . .
206(14) . . .
214(15) . . .
177(13) . . .
206(14) . . .
198(14) . . .
216(15) . . .
209(14) . . .
193(14) . . .
217(15) . . .
207(14) . . .
198(14) . . .
203(14) . . .
193(14) . . .
189(14) . . .
217(15) . . .
213(15) . . .
197(14) . . .
210(14) . . .
230(15) . . .
208(14) . . .
203(14) . . .
212(15) . . .
228(15) . . .
212(15) . . .
188(14) . . .
202(14) . . .
217(15) . . .
212(15) . . .
197(14) . . .
207(14) . . .
206(14) . . .
203(14) . . .
223(15) . . .
178(13) . . .
207(14) . . .
228(15) . . .
217(15) . . .
186(14) . . .
191(14) . . .
213(15) . . .
200(14) . . .
191(14) . . .
207(14) . . .
207(14) . . .
209(14) . . .
196(14) . . .
191(14) . . .
185(14) . . .
218(15) . . .
219(15) . . .
184(14) . . .
183(14) . . .
191(14) . . .
192(14) . . .
190(14) . . .
209(14) . . .
220(15) . . .
205(14) . . .
198(14) . . .
183(14) . . .
181(13) . . .
191(14) . . .
214(15) . . .
214(15) . . .
179(13) . . .
210(14) . . .
203(14) . . .
197(14) . . .
200(14) . . .
198(14) . . .
195(14) . . .
198(14) . . .
173(13) . . .
203(14) . . .
193(14) . . .
191(14) . . .
176(13) . . .
209(14) . . .
185(14) . . .
193(14) . . .
180(13) . . .
192(14) . . .
219(15) . . .
215(15) . . .
183(14) . . .
197(14) . . .
207(14) . . .
177(13) . . .
194(14) . . .
199(14) . . .
208(14) . . .
194(14) . . .
213(15) . . .
175(13) . . .
215(15) . . .
204(14) . . .
178(13) . . .
203(14) . . .
209(14) . . .
202(14) . . .
218(15) . . .
206(14) . . .
210(14) . . .
193(14) . . .
179(13) . . .
202(14) . . .
229(15) . . .
195(14) . . .
195(14) . . .
211(15) . . .
219(15) . . .
197(14) . . .
193(14) . . .
192(14) . . .
205(14) . . .
210(14) . . .
196(14) . . .
176(13) . . .
215(15) . . .
191(14) . . .
188(14) . . .
205(14) . . .
188(14) . . .
212(15) . . .
200(14) . . .
212(15) . . .
186(14) . . .
182(13) . . .
184(14) . . .
207(14) . . .
186(14) . . .
193(14) . . .
195(14) . . .
183(14) . . .
213(15) . . .
222(15) . . .
189(14) . . .
209(14) . . .
204(14) . . .
194(14) . . .
200(14) . . .
197(14) . . .
178(13) . . .
211(15) . . .
195(14) . . .
202(14) . . .
190(14) . . .
170(13) . . .
184(14) . . .
206(14) . . .
208(14) . . .
170(13) . . .
191(14) . . .
205(14) . . .
207(14) . . .
164(13) . . .
171(13) . . .
191(14) . . .
195(14) . . .
218(15) . . .
203(14) . . .
193(14) . . .
191(14) . . .
203(14) . . .
188(14) . . .
196(14) . . .
214(15) . . .
184(14) . . .
199(14) . . .
182(13) . . .
202(14) . . .
196(14) . . .
200(14) . . .
192(14) . . .
213(15) . . .
198(14) . . .
188(14) . . .
184(14) . . .
204(14) . . .
209(14) . . .
186(14) . . .
199(14) . . .
190(14) . . .
210(14) . . .
188(14) . . .
200(14) . . .
208(14) . . .
204(14) . . .
205(14) . . .
208(14) . . .
181(13) . . .
187(14) . . .
207(14) . . .
217(15) . . .
197(14) . . .
193(14) . . .
200(14) . . .
191(14) . . .
210(14) . . .
194(14) . . .
210(14) . . .
232(15) . . .
193(14) . . .
218(15) . . .
215(15) . . .
195(14) . . .
199(14) . . .
189(14) . . .
206(14) . . .
206(14) . . .
216(15) . . .
202(14) . . .
205(14) . . .
208(14) . . .
201(14) . . .
224(15) . . .
200(14) . . .
201(14) . . .
203(14) . . .
196(14) . . .
216(15) . . .
215(15) . . .
185(14) . . .
210(14) . . .
234(15) . . .
222(15) . . .
198(14) . . .
227(15) . . .
212(15) . . .
225(15) . . .
204(14) . . .
195(14) . . .
186(14) . . .
175(13) . . .
196(14) . . .
179(13) . . .
216(15) . . .
207(14) . . .
176(13) . . .
199(14) . . .
225(15) . . .
177(13) . . .
206(14) . . .
207(14) . . .
192(14) . . .
211(15) . . .
228(15) . . .
214(15) . . .
220(15) . . .
209(14) . . .
216(15) . . .
210(14) . . .
213(15) . . .
187(14) . . .
181(13) . . .
217(15) . . .
205(14) . . .
199(14) . . .
208(14) . . .
182(13) . . .
214(15) . . .
205(14) . . .
210(14) . . .
217(15) . . .
215(15) . . .
205(14) . . .
219(15) . . .
200(14) . . .
208(14) . . .
243(16) . . .
233(15) . . .
209(14) . . .
218(15) . . .
176(13) . . .
220(15) . . .
209(14) . . .
200(14) . . .
206(14) . . .
186(14) . . .
201(14) . . .
212(15) . . .
208(14) . . .
195(14) . . .
232(15) . . .
206(14) . . .
190(14) . . .
186(14) . . .
176(13) . . .
216(15) . . .
214(15) . . .
195(14) . . .
234(15) . . .
198(14) . . .
196(14) . . .
203(14) . . .
204(14) . . .
216(15) . . .
232(15) . . .
210(14) . . .
170(13) . . .
174(13) . . .
181(13) . . .
220(15) . . .
200(14) . . .
211(15) . . .
225(15) . . .
197(14) . . .
207(14) . . .
190(14) . . .
171(13) . . .
201(14) . . .
201(14) . . .
200(14) . . .
208(14) . . .
201(14) . . .
197(14) . . .
195(14) . . .
214(15) . . .
225(15) . . .
199(14) . . .
205(14) . . .
244(16) . . .
204(14) . . .
205(14) . . .
209(14) . . .
212(15) . . .
199(14) . . .
213(15) . . .
197(14) . . .
205(14) . . .
209(14) . . .
194(14) . . .
198(14) . . .
204(14) . . .
179(13) . . .
202(14) . . .
200(14) . . .
185(14) . . .
190(14) . . .
216(15) . . .
203(14) . . .
196(14) . . .
206(14) . . .
187(14) . . .
209(14) . . .
214(15) . . .
200(14) . . .
201(14) . . .
211(15) . . .
188(14) . . .
208(14) . . .
203(14) . . .
212(15) . . .
207(14) . . .
183(14) . . .
193(14) . . .
200(14) . . .
226(15) . . .
210(14) . . .
197(14) . . .
229(15) . . .
219(15) . . .
210(14) . . .
193(14) . . .
185(14) . . .
204(14) . . .
182(13) . . .
206(14) . . .
220(15) . . .
221(15) . . .
194(14) . . .
212(15) . . .
225(15) . . .
234(15) . . .
239(15) . . .
204(14) . . .
204(14) . . .
218(15) . . .
198(14) . . .
213(15) . . .
216(15) . . .
222(15) . . .
208(14) . . .
229(15) . . .
236(15) . . .
196(14) . . .
210(14) . . .
225(15) . . .
223(15) . . .
227(15) . . .
202(14) . . .
204(14) . . .
228(15) . . .
221(15) . . .
204(14) . . .
214(15) . . .
213(15) . . .
202(14) . . .
223(15) . . .
195(14) . . .
219(15) . . .
220(15) . . .
225(15) . . .
207(14) . . .
225(15) . . .
219(15) . . .
242(16) . . .
241(16) . . .
238(15) . . .
228(15) . . .
236(15) . . .
214(15) . . .
211(15) . . .
232(15) . . .
235(15) . . .
233(15) . . .
234(15) . . .
255(16) . . .
236(15) . . .
262(16) . . .
209(14) . . .
251(16) . . .
255(16) . . .
270(16) . . .
271(16) . . .
275(17) . . .
280(17) . . .
276(17) . . .
251(16) . . .
273(17) . . .
311(18) . . .
295(17) . . .
308(18) . . .
322(18) . . .
310(18) . . .
317(18) . . .
315(18) . . .
291(17) . . .
355(19) . . .
308(18) . . .
383(20) . . .
364(19) . . .
377(19) . . .
380(19) . . .
428(21) . . .
429(21) . . .
431(21) . . .
459(21) . . .
424(21) . . .
474(22) . . .
553(24) . . .
536(23) . . .
555(24) . . .
628(25) . . .
644(25) . . .
692(26) . . .
774(28) . . .
792(28) . . .
885(30) . . .
870(29) . . .
1009(32) . . .
1122(33) . . .
1195(35) . . .
1342(37) . . .
1532(39) . . .
1697(41) . . .
1894(44) . . .
2126(46) . . .
2251(47) . . .
2538(50) . . .
2625(51) . . .
2808(53) . . .
3018(55) . . .
3343(58) . . .
3235(57) . . .
3213(57) . . .
3325(58) . . .
3288(57) . . .
3110(56) . . .
3010(55) . . .
2930(54) . . .
2657(52) . . .
2486(50) . . .
2214(47) . . .
2081(46) . . .
1825(43) . . .
1679(41) . . .
1534(39) . . .
1410(38) . . .
1211(35) . . .
1159(34) . . .
1021(32) . . .
950(31) . . .
890(30) . . .
778(28) . . .
768(28) . . .
685(26) . . .
621(25) . . .
618(25) . . .
610(25) . . .
534(23) . . .
542(23) . . .
467(22) . . .
476(22) . . .
487(22) . . .
426(21) . . .
433(21) . . .
358(19) . . .
391(20) . . .
365(19) . . .
336(18) . . .
358(19) . . .
344(19) . . .
303(17) . . .
335(18) . . .
286(17) . . .
280(17) . . .
279(17) . . .
301(17) . . .
298(17) . . .
275(17) . . .
280(17) . . .
273(17) . . .
252(16) . . .
246(16) . . .
231(15) . . .
256(16) . . .
240(15) . . .
278(17) . . .
264(16) . . .
256(16) . . .
242(16) . . .
235(15) . . .
251(16) . . .
244(16) . . .
253(16) . . .
274(17) . . .
236(15) . . .
238(15) . . .
225(15) . . .
220(15) . . .
254(16) . . .
244(16) . . .
228(15) . . .
234(15) . . .
222(15) . . .
210(14) . . .
243(16) . . .
209(14) . . .
224(15) . . .
218(15) . . .
235(15) . . .
195(14) . . .
223(15) . . .
242(16) . . .
228(15) . . .
233(15) . . .
217(15) . . .
208(14) . . .
195(14) . . .
221(15) . . .
211(15) . . .
202(14) . . .
210(14) . . .
216(15) . . .
232(15) . . .
239(15) . . .
220(15) . . .
196(14) . . .
191(14) . . .
200(14) . . .
211(15) . . .
197(14) . . .
225(15) . . .
223(15) . . .
209(14) . . .
210(14) . . .
205(14) . . .
208(14) . . .
191(14) . . .
211(15) . . .
238(15) . . .
192(14) . . .
225(15) . . .
215(15) . . .
206(14) . . .
220(15) . . .
218(15) . . .
221(15) . . .
208(14) . . .
229(15) . . .
196(14) . . .
203(14) . . .
199(14) . . .
199(14) . . .
210(14) . . .
205(14) . . .
214(15) . . .
209(14) . . .
211(15) . . .
220(15) . . .
192(14) . . .
213(15) . . .
203(14) . . .
208(14) . . .
215(15) . . .
205(14) . . .
184(14) . . .
208(14) . . .
212(15) . . .
217(15) . . .
198(14) . . .
220(15) . . .
188(14) . . .
188(14) . . .
199(14) . . .
187(14) . . .
210(14) . . .
211(15) . . .
212(15) . . .
209(14) . . .
204(14) . . .
221(15) . . .
187(14) . . .
189(14) . . .
235(15) . . .
223(15) . . .
212(15) . . .
198(14) . . .
209(14) . . .
193(14) . . .
198(14) . . .
198(14) . . .
199(14) . . .
209(14) . . .
211(15) . . .
179(13) . . .
199(14) . . .
196(14) . . .
173(13) . . .
207(14) . . .
205(14) . . .
203(14) . . .
187(14) . . .
204(14) . . .
199(14) . . .
185(14) . . .
214(15) . . .
197(14) . . .
208(14) . . .
219(15) . . .
203(14) . . .
199(14) . . .
195(14) . . .
195(14) . . .
215(15) . . .
205(14) . . .
202(14) . . .
194(14) . . .
216(15) . . .
221(15) . . .
190(14) . . .
192(14) . . .
200(14) . . .
192(14) . . .
201(14) . . .
208(14) . . .
184(14) . . .
194(14) . . .
212(15) . . .
187(14) . . .
206(14) . . .
195(14) . . .
222(15) . . .
201(14) . . .
191(14) . . .
206(14) . . .
215(15) . . .
197(14) . . .
175(13) . . .
188(14) . . .
198(14) . . .
199(14) . . .
199(14) . . .
202(14) . . .
204(14) . . .
206(14) . . .
192(14) . . .
202(14) . . .
213(15) . . .
195(14) . . .
209(14) . . .
214(15) . . .
225(15) . . .
226(15) . . .
225(15) . . .
219(15) . . .
217(15) . . .
188(14) . . .
217(15) . . .
234(15) . . .
240(15) . . .
238(15) . . .
214(15) . . .
212(15) . . .
238(15) . . .
248(16) . . .
231(15) . . .
233(15) . . .
230(15) . . .
221(15) . . .
230(15) . . .
249(16) . . .
231(15) . . .
233(15) . . .
224(15) . . .
233(15) . . .
219(15) . . .
257(16) . . .
233(15) . . .
259(16) . . .
248(16) . . .
227(15) . . .
232(15) . . .
237(15) . . .
269(16) . . .
240(15) . . .
251(16) . . .
229(15) . . .
276(17) . . .
261(16) . . .
276(17) . . .
262(16) . . .
282(17) . . .
274(17) . . .
284(17) . . .
290(17) . . .
287(17) . . .
303(17) . . .
302(17) . . .
311(18) . . .
330(18) . . .
319(18) . . .
362(19) . . .
366(19) . . .
391(20) . . .
400(20) . . .
372(19) . . .
392(20) . . .
404(20) . . .
409(20) . . .
476(22) . . .
475(22) . . .
471(22) . . .
503(22) . . .
564(24) . . .
611(25) . . .
640(25) . . .
712(27) . . .
733(27) . . .
766(28) . . .
823(29) . . .
970(31) . . .
994(32) . . .
1063(33) . . .
1159(34) . . .
1219(35) . . .
1350(37) . . .
1555(39) . . .
1640(40) . . .
1904(44) . . .
2066(45) . . .
2157(46) . . .
2304(48) . . .
2387(49) . . .
2547(50) . . .
2596(51) . . .
2608(51) . . .
2671(52) . . .
2563(51) . . .
2472(50) . . .
2494(50) . . .
2169(47) . . .
2083(46) . . .
1901(44) . . .
1780(42) . . .
1595(40) . . .
1450(38) . . .
1363(37) . . .
1203(35) . . .
1132(34) . . .
1018(32) . . .
932(31) . . .
879(30) . . .
775(28) . . .
722(27) . . .
672(26) . . .
619(25) . . .
617(25) . . .
598(24) . . .
514(23) . . .
515(23) . . .
487(22) . . .
439(21) . . .
429(21) . . .
379(19) . . .
378(19) . . .
379(19) . . .
357(19) . . .
381(20) . . .
329(18) . . .
299(17) . . .
336(18) . . .
329(18) . . .
319(18) . . .
295(17) . . .
277(17) . . .
275(17) . . .
283(17) . . .
277(17) . . .
299(17) . . .
267(16) . . .
260(16) . . .
280(17) . . .
232(15) . . .
219(15) . . .
247(16) . . .
234(15) . . .
232(15) . . .
245(16) . . .
209(14) . . .
228(15) . . .
209(14) . . .
236(15) . . .
239(15) . . .
225(15) . . .
242(16) . . .
222(15) . . .
206(14) . . .
228(15) . . .
259(16) . . .
240(15) . . .
211(15) . . .
200(14) . . .
215(15) . . .
201(14) . . .
204(14) . . .
233(15) . . .
217(15) . . .
203(14) . . .
218(15) . . .
206(14) . . .
222(15) . . .
211(15) . . .
202(14) . . .
211(15) . . .
216(15) . . .
219(15) . . .
220(15) . . .
206(14) . . .
192(14) . . .
203(14) . . .
213(15) . . .
201(14) . . .
185(14) . . .
198(14) . . .
194(14) . . .
182(13) . . .
191(14) . . .
205(14) . . .
200(14) . . .
222(15) . . .
183(14) . . .
194(14) . . .
215(15) . . .
190(14) . . .
198(14) . . .
200(14) . . .
204(14) . . .
186(14) . . .
193(14) . . .
178(13) . . .
184(14) . . .
199(14) . . .
187(14) . . .
185(14) . . .
192(14) . . .
205(14) . . .
196(14) . . .
190(14) . . .
186(14) . . .
206(14) . . .
205(14) . . .
185(14) . . .
186(14) . . .
197(14) . . .
193(14) . . .
193(14) . . .
184(14) . . .
197(14) . . .
193(14) . . .
196(14) . . .
205(14) . . .
198(14) . . .
189(14) . . .
185(14) . . .
178(13) . . .
214(15) . . .
207(14) . . .
178(13) . . .
177(13) . . .
204(14) . . .
206(14) . . .
188(14) . . .
177(13) . . .
170(13) . . .
204(14) . . .
194(14) . . .
186(14) . . .
183(14) . . .
178(13) . . .
191(14) . . .
185(14) . . .
187(14) . . .
192(14) . . .
183(14) . . .
170(13) . . .
187(14) . . .
175(13) . . .
184(14) . . .
178(13) . . .
178(13) . . .
170(13) . . .
172(13) . . .
201(14) . . .
207(14) . . .
172(13) . . .
178(13) . . .
192(14) . . .
173(13) . . .
178(13) . . .
170(13) . . .
183(14) . . .
177(13) . . .
196(14) . . .
183(14) . . .
179(13) . . .
172(13) . . .
200(14) . . .
205(14) . . .
193(14) . . .
188(14) . . .
186(14) . . .
204(14) . . .
188(14) . . .
188(14) . . .
194(14) . . .
180(13) . . .
192(14) . . .
191(14) . . .
212(15) . . .
196(14) . . .
169(13) . . .
185(14) . . .
202(14) . . .
185(14) . . .
182(13) . . .
176(13) . . .
171(13) . . .
187(14) . . .
186(14) . . .
190(14) . . .
188(14) . . .
176(13) . . .
210(14) . . .
192(14) . . .
196(14) . . .
207(14) . . .
167(13) . . .
185(14) . . .
170(13) . . .
211(15) . . .
186(14) . . .
182(13) . . .
184(14) . . .
195(14) . . .
175(13) . . .
175(13) . . .
191(14) . . .
191(14) . . .
177(13) . . .
186(14) . . .
173(13) . . .
196(14) . . .
163(13) . . .
176(13) . . .
168(13) . . .
190(14) . . .
172(13) . . .
194(14) . . .
193(14) . . .
191(14) . . .
172(13) . . .
199(14) . . .
196(14) . . .
188(14) . . .
191(14) . . .
193(14) . . .
193(14) . . .
198(14) . . .
173(13) . . .
167(13) . . .
181(13) . . .
184(14) . . .
178(13) . . .
203(14) . . .
190(14) . . .
178(13) . . .
206(14) . . .
161(13) . . .
177(13) . . .
204(14) . . .
179(13) . . .
179(13) . . .
191(14) . . .
200(14) . . .
207(14) . . .
193(14) . . .
185(14) . . .
167(13) . . .
192(14) . . .
163(13) . . .
164(13) . . .
183(14) . . .
184(14) . . .
170(13) . . .
193(14) . . .
184(14) . . .
194(14) . . .
192(14) . . .
199(14) . . .
191(14) . . .
186(14) . . .
178(13) . . .
200(14) . . .
181(13) . . .
186(14) . . .
209(14) . . .
183(14) . . .
195(14) . . .
182(13) . . .
193(14) . . .
200(14) . . .
178(13) . . .
188(14) . . .
175(13) . . .
177(13) . . .
195(14) . . .
186(14) . . .
190(14) . . .
196(14) . . .
178(13) . . .
173(13) . . .
203(14) . . .
195(14) . . .
171(13) . . .
192(14) . . .
178(13) . . .
187(14) . . .
195(14) . . .
183(14) . . .
171(13) . . .
166(13) . . .
176(13) . . .
209(14) . . .
193(14) . . .
200(14) . . .
190(14) . . .
199(14) . . .
184(14) . . .
180(13) . . .
168(13) . . .
165(13) . . .
180(13) . . .
193(14) . . .
151(12) . . .
179(13) . . .
192(14) . . .
185(14) . . .
168(13) . . .
185(14) . . .
185(14) . . .
185(14) . . .
171(13) . . .
189(14) . . .
178(13) . . .
195(14) . . .
189(14) . . .
189(14) . . .
180(13) . . .
186(14) . . .
182(13) . . .
204(14) . . .
194(14) . . .
190(14) . . .
193(14) . . .
186(14) . . .
178(13) . . .
188(14) . . .
188(14) . . .
179(13) . . .
183(14) . . .
178(13) . . .
177(13) . . .
160(13) . . .
198(14) . . .
217(15) . . .
172(13) . . .
191(14) . . .
181(13) . . .
178(13) . . .
184(14) . . .
170(13) . . .
206(14) . . .
179(13) . . .
179(13) . . .
183(14) . . .
192(14) . . .
210(14) . . .
191(14) . . .
197(14) . . .
190(14) . . .
188(14) . . .
186(14) . . .
183(14) . . .
185(14) . . .
184(14) . . .
189(14) . . .
170(13) . . .
196(14) . . .
184(14) . . .
189(14) . . .
177(13) . . .
174(13) . . .
196(14) . . .
185(14) . . .
182(13) . . .
180(13) . . .
192(14) . . .
184(14) . . .
207(14) . . .
195(14) . . .
178(13) . . .
185(14) . . .
151(12) . . .
180(13) . . .
183(14) . . .
189(14) . . .
178(13) . . .
179(13) . . .
174(13) . . .
182(13) . . .
195(14) . . .
188(14) . . .
176(13) . . .
189(14) . . .
190(14) . . .
180(13) . . .
188(14) . . .
190(14) . . .
192(14) . . .
188(14) . . .
186(14) . . .
198(14) . . .
194(14) . . .
177(13) . . .
191(14) . . .
177(13) . . .
180(13) . . .
177(13) . . .
202(14) . . .
189(14) . . .
191(14) . . .
194(14) . . .
189(14) . . .
168(13) . . .
165(13) . . .
170(13) . . .
184(14) . . .
204(14) . . .
181(13) . . .
185(14) . . .
174(13) . . .
178(13) . . .
173(13) . . .
189(14) . . .
193(14) . . .
182(13) . . .
178(13) . . .
186(14) . . .
185(14) . . .
167(13) . . .
155(12) . . .
190(14) . . .
178(13) . . .
193(14) . . .
175(13) . . .
168(13) . . .
186(14) . . .
176(13) . . .
199(14) . . .
174(13) . . .
163(13) . . .
183(14) . . .
186(14) . . .
166(13) . . .
193(14) . . .
170(13) . . .
210(14) . . .
189(14) . . .
178(13) . . .
187(14) . . .
167(13) . . .
195(14) . . .
191(14) . . .
188(14) . . .
189(14) . . .
190(14) . . .
197(14) . . .
166(13) . . .
185(14) . . .
176(13) . . .
196(14) . . .
165(13) . . .
172(13) . . .
181(13) . . .
186(14) . . .
162(13) . . .
193(14) . . .
183(14) . . .
175(13) . . .
179(13) . . .
168(13) . . .
173(13) . . .
185(14) . . .
187(14) . . .
175(13) . . .
173(13) . . .
178(13) . . .
169(13) . . .
158(13) . . .
191(14) . . .
178(13) . . .
181(13) . . .
167(13) . . .
159(13) . . .
193(14) . . .
179(13) . . .
214(15) . . .
182(13) . . .
163(13) . . .
176(13) . . .
179(13) . . .
181(13) . . .
214(15) . . .
177(13) . . .
188(14) . . .
182(13) . . .
165(13) . . .
166(13) . . .
184(14) . . .
171(13) . . .
198(14) . . .
188(14) . . .
181(13) . . .
217(15) . . .
191(14) . . .
200(14) . . .
181(13) . . .
174(13) . . .
190(14) . . .
200(14) . . .
157(13) . . .
184(14) . . .
188(14) . . .
196(14) . . .
163(13) . . .
188(14) . . .
193(14) . . .
158(13) . . .
197(14) . . .
183(14) . . .
184(14) . . .
176(13) . . .
183(14) . . .
196(14) . . .
181(13) . . .
163(13) . . .
168(13) . . .
190(14) . . .
165(13) . . .
179(13) . . .
192(14) . . .
179(13) . . .
186(14) . . .
177(13) . . .
145(12) . . .
178(13) . . .
196(14) . . .
163(13) . . .
182(13) . . .
186(14) . . .
178(13) . . .
175(13) . . .
191(14) . . .
193(14) . . .
197(14) . . .
181(13) . . .
182(13) . . .
190(14) . . .
166(13) . . .
196(14) . . .
183(14) . . .
180(13) . . .
168(13) . . .
176(13) . . .
189(14) . . .
178(13) . . .
171(13) . . .
169(13) . . .
203(14) . . .
184(14) . . .
189(14) . . .
193(14) . . .
186(14) . . .
172(13) . . .
191(14) . . .
166(13) . . .
178(13) . . .
197(14) . . .
191(14) . . .
194(14) . . .
220(15) . . .
191(14) . . .
171(13) . . .
177(13) . . .
200(14) . . .
173(13) . . .
175(13) . . .
181(13) . . .
172(13) . . .
180(13) . . .
184(14) . . .
182(13) . . .
190(14) . . .
183(14) . . .
192(14) . . .
191(14) . . .
172(13) . . .
161(13) . . .
179(13) . . .
187(14) . . .
190(14) . . .
193(14) . . .
178(13) . . .
184(14) . . .
186(14) . . .
157(13) . . .
179(13) . . .
171(13) . . .
161(13) . . .
194(14) . . .
170(13) . . .
193(14) . . .
166(13) . . .
188(14) . . .
158(13) . . .
164(13) . . .
185(14) . . .
165(13) . . .
190(14) . . .
190(14) . . .
183(14) . . .
164(13) . . .
189(14) . . .
173(13) . . .
168(13) . . .
179(13) . . .
176(13) . . .
192(14) . . .
191(14) . . .
168(13) . . .
156(12) . . .
159(13) . . .
190(14) . . .
167(13) . . .
167(13) . . .
178(13) . . .
178(13) . . .
174(13) . . .
181(13) . . .
176(13) . . .
169(13) . . .
190(14) . . .
177(13) . . .
185(14) . . .
181(13) . . .
169(13) . . .
168(13) . . .
171(13) . . .
169(13) . . .
153(12) . . .
180(13) . . .
175(13) . . .
189(14) . . .
183(14) . . .
181(13) . . .
156(12) . . .
173(13) . . .
193(14) . . .
187(14) . . .
178(13) . . .
176(13) . . .
172(13) . . .
198(14) . . .
196(14) . . .
171(13) . . .
202(14) . . .
186(14) . . .
182(13) . . .
184(14) . . .
169(13) . . .
194(14) . . .
207(14) . . .
186(14) . . .
194(14) . . .
186(14) . . .
182(13) . . .
171(13) . . .
168(13) . . .
186(14) . . .
179(13) . . .
187(14) . . .
186(14) . . .
182(13) . . .
206(14) . . .
165(13) . . .
175(13) . . .
189(14) . . .
178(13) . . .
197(14) . . .
208(14) . . .
174(13) . . .
215(15) . . .
188(14) . . .
173(13) . . .
192(14) . . .
172(13) . . .
191(14) . . .
184(14) . . .
182(13) . . .
177(13) . . .
155(12) . . .
179(13) . . .
150(12) . . .
188(14) . . .
190(14) . . .
172(13) . . .
175(13) . . .
157(13) . . .
155(12) . . .
155(12) . . .
177(13) . . .
170(13) . . .
185(14) . . .
174(13) . . .
175(13) . . .
177(13) . . .
186(14) . . .
175(13) . . .
183(14) . . .
176(13) . . .
210(14) . . .
171(13) . . .
173(13) . . .
176(13) . . .
188(14) . . .
185(14) . . .
180(13) . . .
196(14) . . .
193(14) . . .
175(13) . . .
217(15) . . .
188(14) . . .
177(13) . . .
197(14) . . .
179(13) . . .
163(13) . . .
180(13) . . .
181(13) . . .
170(13) . . .
203(14) . . .
169(13) . . .
193(14) . . .
182(13) . . .
191(14) . . .
190(14) . . .
183(14) . . .
167(13) . . .
192(14) . . .
177(13) . . .
183(14) . . .
202(14) . . .
179(13) . . .
200(14) . . .
176(13) . . .
188(14) . . .
171(13) . . .
186(14) . . .
189(14) . . .
189(14) . . .
176(13) . . .
183(14) . . .
188(14) . . .
201(14) . . .
192(14) . . .
185(14) . . .
196(14) . . .
182(13) . . .
184(14) . . .
197(14) . . .
169(13) . . .
163(13) . . .
167(13) . . .
189(14) . . .
170(13) . . .
198(14) . . .
197(14) . . .
186(14) . . .
189(14) . . .
188(14) . . .
190(14) . . .
197(14) . . .
173(13) . . .
173(13) . . .
189(14) . . .
202(14) . . .
163(13) . . .
195(14) . . .
172(13) . . .
165(13) . . .
195(14) . . .
155(12) . . .
175(13) . . .
171(13) . . .
185(14) . . .
168(13) . . .
173(13) . . .
195(14) . . .
186(14) . . .
162(13) . . .
174(13) . . .
194(14) . . .
212(15) . . .
175(13) . . .
175(13) . . .
176(13) . . .
188(14) . . .
180(13) . . .
178(13) . . .
190(14) . . .
176(13) . . .
183(14) . . .
179(13) . . .
198(14) . . .
178(13) . . .
169(13) . . .
166(13) . . .
174(13) . . .
181(13) . . .
163(13) . . .
164(13) . . .
161(13) . . .
183(14) . . .
180(13) . . .
212(15) . . .
211(15) . . .
200(14) . . .
170(13) . . .
170(13) . . .
188(14) . . .
209(14) . . .
196(14) . . .
182(13) . . .
204(14) . . .
194(14) . . .
185(14) . . .
173(13) . . .
180(13) . . .
182(13) . . .
176(13) . . .
167(13) . . .
188(14) . . .
187(14) . . .
176(13) . . .
194(14) . . .
191(14) . . .
161(13) . . .
170(13) . . .
164(13) . . .
184(14) . . .
174(13) . . .
172(13) . . .
166(13) . . .
196(14) . . .
194(14) . . .
205(14) . . .
185(14) . . .
208(14) . . .
183(14) . . .
175(13) . . .
186(14) . . .
195(14) . . .
193(14) . . .
194(14) . . .
200(14) . . .
173(13) . . .
186(14) . . .
179(13) . . .
179(13) . . .
160(13) . . .
176(13) . . .
204(14) . . .
203(14) . . .
176(13) . . .
184(14) . . .
175(13) . . .
177(13) . . .
196(14) . . .
181(13) . . .
179(13) . . .
179(13) . . .
176(13) . . .
200(14) . . .
182(13) . . .
189(14) . . .
188(14) . . .
183(14) . . .
176(13) . . .
184(14) . . .
188(14) . . .
194(14) . . .
194(14) . . .
188(14) . . .
168(13) . . .
185(14) . . .
186(14) . . .
171(13) . . .
164(13) . . .
214(15) . . .
174(13) . . .
200(14) . . .
163(13) . . .
178(13) . . .
174(13) . . .
176(13) . . .
179(13) . . .
184(14) . . .
187(14) . . .
198(14) . . .
188(14) . . .
196(14) . . .
168(13) . . .
181(13) . . .
174(13) . . .
176(13) . . .
207(14) . . .
183(14) . . .
189(14) . . .
171(13) . . .
174(13) . . .
182(13) . . .
190(14) . . .
185(14) . . .
168(13) . . .
195(14) . . .
196(14) . . .
196(14) . . .
190(14) . . .
187(14) . . .
195(14) . . .
194(14) . . .
186(14) . . .
174(13) . . .
190(14) . . .
164(13) . . .
197(14) . . .
187(14) . . .
182(13) . . .
191(14) . . .
186(14) . . .
184(14) . . .
191(14) . . .
191(14) . . .
180(13) . . .
185(14) . . .
181(13) . . .
184(14) . . .
193(14) . . .
199(14) . . .
191(14) . . .
173(13) . . .
182(13) . . .
208(14) . . .
186(14) . . .
187(14) . . .
197(14) . . .
198(14) . . .
199(14) . . .
183(14) . . .
181(13) . . .
186(14) . . .
166(13) . . .
162(13) . . .
178(13) . . .
176(13) . . .
171(13) . . .
174(13) . . .
170(13) . . .
185(14) . . .
194(14) . . .
167(13) . . .
190(14) . . .
171(13) . . .
166(13) . . .
179(13) . . .
174(13) . . .
182(13) . . .
179(13) . . .
172(13) . . .
182(13) . . .
192(14) . . .
200(14) . . .
187(14) . . .
191(14) . . .
191(14) . . .
177(13) . . .
207(14) . . .
173(13) . . .
185(14) . . .
179(13) . . .
193(14) . . .
176(13) . . .
184(14) . . .
187(14) . . .
179(13) . . .
198(14) . . .
170(13) . . .
192(14) . . .
180(13) . . .
178(13) . . .
177(13) . . .
181(13) . . .
185(14) . . .
173(13) . . .
192(14) . . .
186(14) . . .
163(13) . . .
187(14) . . .
180(13) . . .
174(13) . . .
191(14) . . .
170(13) . . .
193(14) . . .
192(14) . . .
176(13) . . .
178(13) . . .
187(14) . . .
161(13) . . .
179(13) . . .
180(13) . . .
177(13) . . .
190(14) . . .
186(14) . . .
186(14) . . .
182(13) . . .
163(13) . . .
195(14) . . .
146(12) . . .
168(13) . . .
174(13) . . .
185(14) . . .
189(14) . . .
199(14) . . .
170(13) . . .
175(13) . . .
168(13) . . .
195(14) . . .
174(13) . . .
189(14) . . .
156(12) . . .
180(13) . . .
163(13) . . .
208(14) . . .
177(13) . . .
177(13) . . .
148(12) . . .
160(13) . . .
192(14) . . .
161(13) . . .
177(13) . . .
162(13) . . .
193(14) . . .
170(13) . . .
195(14) . . .
204(14) . . .
181(13) . . .
193(14) . . .
189(14) . . .
162(13) . . .
168(13) . . .
201(14) . . .
192(14) . . .
177(13) . . .
199(14) . . .
185(14) . . .
194(14) . . .
172(13) . . .
190(14) . . .
186(14) . . .
198(14) . . .
192(14) . . .
158(13) . . .
186(14) . . .
180(13) . . .
212(15) . . .
203(14) . . .
184(14) . . .
204(14) . . .
171(13) . . .
191(14) . . .
163(13) . . .
186(14) . . .
214(15) . . .
207(14) . . .
187(14) . . .
170(13) . . .
208(14) . . .
190(14) . . .
178(13) . . .
177(13) . . .
181(13) . . .
178(13) . . .
192(14) . . .
175(13) . . .
185(14) . . .
197(14) . . .
171(13) . . .
192(14) . . .
182(13) . . .
173(13) . . .
198(14) . . .
191(14) . . .
192(14) . . .
213(15) . . .
170(13) . . .
178(13) . . .
183(14) . . .
188(14) . . .
186(14) . . .
192(14) . . .
183(14) . . .
196(14) . . .
186(14) . . .
190(14) . . .
175(13) . . .
165(13) . . .
172(13) . . .
196(14) . . .
182(13) . . .
182(13) . . .
185(14) . . .
183(14) . . .
165(13) . . .
207(14) . . .
178(13) . . .
180(13) . . .
189(14) . . .
168(13) . . .
180(13) . . .
190(14) . . .
179(13) . . .
178(13) . . .
194(14) . . .
180(13) . . .
197(14) . . .
183(14) . . .
174(13) . . .
178(13) . . .
203(14) . . .
179(13) . . .
183(14) . . .
174(13) . . .
182(13) . . .
207(14) . . .
203(14) . . .
193(14) . . .
201(14) . . .
190(14) . . .
204(14) . . .
173(13) . . .
189(14) . . .
176(13) . . .
198(14) . . .
187(14) . . .
193(14) . . .
187(14) . . .
192(14) . . .
181(13) . . .
201(14) . . .
164(13) . . .
170(13) . . .
189(14) . . .
159(13) . . .
171(13) . . .
177(13) . . .
183(14) . . .
168(13) . . .
187(14) . . .
160(13) . . .
180(13) . . .
149(12) . . .
189(14) . . .
208(14) . . .
213(15) . . .
195(14) . . .
168(13) . . .
162(13) . . .
179(13) . . .
188(14) . . .
187(14) . . .
189(14) . . .
192(14) . . .
193(14) . . .
174(13) . . .
188(14) . . .
191(14) . . .
195(14) . . .
193(14) . . .
197(14) . . .
190(14) . . .
176(13) . . .
194(14) . . .
189(14) . . .
179(13) . . .
196(14) . . .
190(14) . . .
197(14) . . .
210(14) . . .
198(14) . . .
200(14) . . .
213(15) . . .
215(15) . . .
217(15) . . .
229(15) . . .
224(15) . . .
213(15) . . .
213(15) . . .
230(15) . . .
238(15) . . .
247(16) . . .
250(16) . . .
274(17) . . .
285(17) . . .
249(16) . . .
318(18) . . .
329(18) . . .
295(17) . . .
326(18) . . .
345(19) . . .
389(20) . . .
407(20) . . .
427(21) . . .
368(19) . . .
378(19) . . .
372(19) . . .
397(20) . . .
408(20) . . .
381(20) . . .
303(17) . . .
317(18) . . .
324(18) . . .
321(18) . . .
268(16) . . .
297(17) . . .
273(17) . . .
244(16) . . .
239(15) . . .
234(15) . . .
247(16) . . .
219(15) . . .
220(15) . . .
209(14) . . .
224(15) . . .
209(14) . . .
216(15) . . .
198(14) . . .
194(14) . . .
185(14) . . .
185(14) . . .
196(14) . . .
186(14) . . .
197(14) . . .
183(14) . . .
183(14) . . .
175(13) . . .
178(13) . . .
198(14) . . .
200(14) . . .
179(13) . . .
189(14) . . .
187(14) . . .
177(13) . . .
173(13) . . .
179(13) . . .
188(14) . . .
184(14) . . .
179(13) . . .
208(14) . . .
198(14) . . .
186(14) . . .
168(13) . . .
174(13) . . .
179(13) . . .
182(13) . . .
178(13) . . .
190(14) . . .
190(14) . . .
190(14) . . .
177(13) . . .
170(13) . . .
195(14) . . .
188(14) . . .
202(14) . . .
188(14) . . .
190(14) . . .
176(13) . . .
198(14) . . .
179(13) . . .
166(13) . . .
184(14) . . .
170(13) . . .
194(14) . . .
180(13) . . .
152(12) . . .
183(14) . . .
199(14) . . .
194(14) . . .
191(14) . . .
178(13) . . .
183(14) . . .
186(14) . . .
191(14) . . .
211(15) . . .
183(14) . . .
197(14) . . .
185(14) . . .
185(14) . . .
173(13) . . .
188(14) . . .
189(14) . . .
175(13) . . .
179(13) . . .
164(13) . . .
178(13) . . .
186(14) . . .
176(13) . . .
190(14) . . .
190(14) . . .
190(14) . . .
187(14) . . .
189(14) . . .
154(12) . . .
178(13) . . .
174(13) . . .
179(13) . . .
173(13) . . .
181(13) . . .
179(13) . . .
185(14) . . .
173(13) . . .
173(13) . . .
172(13) . . .
163(13) . . .
166(13) . . .
191(14) . . .
196(14) . . .
170(13) . . .
175(13) . . .
186(14) . . .
195(14) . . .
171(13) . . .
178(13) . . .
204(14) . . .
165(13) . . .
179(13) . . .
180(13) . . .
184(14) . . .
189(14) . . .
176(13) . . .
169(13) . . .
163(13) . . .
197(14) . . .
180(13) . . .
171(13) . . .
179(13) . . .
157(13) . . .
173(13) . . .
170(13) . . .
158(13) . . .
170(13) . . .
169(13) . . .
166(13) . . .
178(13) . . .
191(14) . . .
174(13) . . .
166(13) . . .
178(13) . . .
167(13) . . .
180(13) . . .
184(14) . . .
194(14) . . .
174(13) . . .
161(13) . . .
174(13) . . .
178(13) . . .
159(13) . . .
160(13) . . .
159(13) . . .
165(13) . . .
185(14) . . .
169(13) . . .
190(14) . . .
193(14) . . .
178(13) . . .
194(14) . . .
166(13) . . .
170(13) . . .
177(13) . . .
186(14) . . .
173(13) . . .
179(13) . . .
190(14) . . .
202(14) . . .
177(13) . . .
167(13) . . .
168(13) . . .
185(14) . . .
187(14) . . .
190(14) . . .
194(14) . . .
157(13) . . .
168(13) . . .
174(13) . . .
182(13) . . .
183(14) . . .
173(13) . . .
159(13) . . .
192(14) . . .
181(13) . . .
196(14) . . .
174(13) . . .
182(13) . . .
169(13) . . .
196(14) . . .
203(14) . . .
174(13) . . .
185(14) . . .
175(13) . . .
152(12) . . .
184(14) . . .
178(13) . . .
177(13) . . .
161(13) . . .
162(13) . . .
175(13) . . .
182(13) . . .
199(14) . . .
195(14) . . .
169(13) . . .
159(13) . . .
183(14) . . .
166(13) . . .
155(12) . . .
189(14) . . .
173(13) . . .
167(13) . . .
166(13) . . .
165(13) . . .
176(13) . . .
173(13) . . .
152(12) . . .
157(13) . . .
186(14) . . .
175(13) . . .
196(14) . . .
162(13) . . .
183(14) . . .
161(13) . . .
180(13) . . .
197(14) . . .
187(14) . . .
175(13) . . .
166(13) . . .
165(13) . . .
166(13) . . .
182(13) . . .
171(13) . . .
186(14) . . .
184(14) . . .
178(13) . . .
179(13) . . .
170(13) . . .
174(13) . . .
181(13) . . .
162(13) . . .
180(13) . . .
176(13) . . .
188(14) . . .
171(13) . . .
207(14) . . .
156(12) . . .
178(13) . . .
179(13) . . .
177(13) . . .
195(14) . . .
166(13) . . .
161(13) . . .
184(14) . . .
172(13) . . .
183(14) . . .
143(12) . . .
178(13) . . .
185(14) . . .
198(14) . . .
196(14) . . .
179(13) . . .
171(13) . . .
206(14) . . .
193(14) . . .
171(13) . . .
184(14) . . .
177(13) . . .
212(15) . . .
169(13) . . .
178(13) . . .
185(14) . . .
176(13) . . .
173(13) . . .
183(14) . . .
164(13) . . .
189(14) . . .
179(13) . . .
193(14) . . .
158(13) . . .
171(13) . . .
168(13) . . .
181(13) . . .
187(14) . . .
201(14) . . .
180(13) . . .
202(14) . . .
177(13) . . .
183(14) . . .
182(13) . . .
189(14) . . .
184(14) . . .
199(14) . . .
183(14) . . .
178(13) . . .
191(14) . . .
177(13) . . .
181(13) . . .
181(13) . . .
202(14) . . .
179(13) . . .
191(14) . . .
199(14) . . .
188(14) . . .
197(14) . . .
180(13) . . .
165(13) . . .
174(13) . . .
181(13) . . .
171(13) . . .
177(13) . . .
186(14) . . .
194(14) . . .
191(14) . . .
207(14) . . .
165(13) . . .
203(14) . . .
178(13) . . .
177(13) . . .
202(14) . . .
165(13) . . .
176(13) . . .
179(13) . . .
168(13) . . .
202(14) . . .
176(13) . . .
175(13) . . .
185(14) . . .
192(14) . . .
183(14) . . .
182(13) . . .
171(13) . . .
193(14) . . .
187(14) . . .
188(14) . . .
175(13) . . .
171(13) . . .
188(14) . . .
190(14) . . .
182(13) . . .
192(14) . . .
179(13) . . .
183(14) . . .
179(13) . . .
207(14) . . .
176(13) . . .
168(13) . . .
194(14) . . .
176(13) . . .
188(14) . . .
187(14) . . .
185(14) . . .
185(14) . . .
174(13) . . .
174(13) . . .
176(13) . . .
180(13) . . .
188(14) . . .
198(14) . . .
177(13) . . .
189(14) . . .
202(14) . . .
213(15) . . .
215(15) . . .
179(13) . . .
194(14) . . .
188(14) . . .
161(13) . . .
168(13) . . .
170(13) . . .
179(13) . . .
154(12) . . .
175(13) . . .
185(14) . . .
169(13) . . .
183(14) . . .
172(13) . . .
191(14) . . .
191(14) . . .
181(13) . . .
208(14) . . .
164(13) . . .
182(13) . . .
181(13) . . .
196(14) . . .
175(13) . . .
174(13) . . .
200(14) . . .
181(13) . . .
173(13) . . .
183(14) . . .
200(14) . . .
187(14) . . .
206(14) . . .
191(14) . . .
176(13) . . .
186(14) . . .
189(14) . . .
179(13) . . .
194(14) . . .
188(14) . . .
209(14) . . .
194(14) . . .
190(14) . . .
170(13) . . .
165(13) . . .
173(13) . . .
198(14) . . .
196(14) . . .
153(12) . . .
196(14) . . .
173(13) . . .
174(13) . . .
155(12) . . .
172(13) . . .
195(14) . . .
181(13) . . .
187(14) . . .
193(14) . . .
181(13) . . .
216(15) . . .
188(14) . . .
194(14) . . .
190(14) . . .
187(14) . . .
215(15) . . .
189(14) . . .
193(14) . . .
191(14) . . .
182(13) . . .
189(14) . . .
187(14) . . .
169(13) . . .
191(14) . . .
186(14) . . .
198(14) . . .
200(14) . . .
178(13) . . .
180(13) . . .
174(13) . . .
190(14) . . .
192(14) . . .
198(14) . . .
215(15) . . .
184(14) . . .
193(14) . . .
198(14) . . .
185(14) . . .
195(14) . . .
159(13) . . .
174(13) . . .
176(13) . . .
182(13) . . .
173(13) . . .
188(14) . . .
177(13) . . .
182(13) . . .
189(14) . . .
206(14) . . .
187(14) . . .
197(14) . . .
179(13) . . .
179(13) . . .
175(13) . . .
187(14) . . .
180(13) . . .
180(13) . . .
188(14) . . .
186(14) . . .
180(13) . . .
180(13) . . .
186(14) . . .
193(14) . . .
175(13) . . .
194(14) . . .
189(14) . . .
171(13) . . .
161(13) . . .
182(13) . . .
189(14) . . .
160(13) . . .
185(14) . . .
184(14) . . .
186(14) . . .
187(14) . . .
203(14) . . .
200(14) . . .
196(14) . . .
171(13) . . .
180(13) . . .
193(14) . . .
193(14) . . .
177(13) . . .
186(14) . . .
180(13) . . .
165(13) . . .
195(14) . . .
159(13) . . .
182(13) . . .
198(14) . . .
200(14) . . .
167(13) . . .
188(14) . . .
178(13) . . .
167(13) . . .
182(13) . . .
181(13) . . .
184(14) . . .
171(13) . . .
202(14) . . .
211(15) . . .
200(14) . . .
190(14) . . .
183(14) . . .
210(14) . . .
209(14) . . .
178(13) . . .
187(14) . . .
176(13) . . .
178(13) . . .
191(14) . . .
179(13) . . .
199(14) . . .
197(14) . . .
180(13) . . .
186(14) . . .
190(14) . . .
206(14) . . .
188(14) . . .
185(14) . . .
188(14) . . .
199(14) . . .
186(14) . . .
191(14) . . .
199(14) . . .
174(13) . . .
202(14) . . .
180(13) . . .
193(14) . . .
194(14) . . .
178(13) . . .
183(14) . . .
186(14) . . .
185(14) . . .
212(15) . . .
170(13) . . .
190(14) . . .
199(14) . . .
193(14) . . .
182(13) . . .
193(14) . . .
192(14) . . .
206(14) . . .
197(14) . . .
199(14) . . .
209(14) . . .
176(13) . . .
183(14) . . .
193(14) . . .
182(13) . . .
191(14) . . .
178(13) . . .
188(14) . . .
197(14) . . .
206(14) . . .
210(14) . . .
197(14) . . .
195(14) . . .
178(13) . . .
187(14) . . .
194(14) . . .
211(15) . . .
200(14) . . .
206(14) . . .
205(14) . . .
197(14) . . .
184(14) . . .
198(14) . . .
200(14) . . .
211(15) . . .
172(13) . . .
191(14) . . .
177(13) . . .
180(13) . . .
202(14) . . .
205(14) . . .
193(14) . . .
202(14) . . .
200(14) . . .
201(14) . . .
184(14) . . .
169(13) . . .
189(14) . . .
199(14) . . .
203(14) . . .
177(13) . . .
215(15) . . .
182(13) . . .
193(14) . . .
184(14) . . .
187(14) . . .
186(14) . . .
187(14) . . .
208(14) . . .
181(13) . . .
202(14) . . .
197(14) . . .
212(15) . . .
216(15) . . .
218(15) . . .
195(14) . . .
196(14) . . .
197(14) . . .
197(14) . . .
189(14) . . .
209(14) . . .
189(14) . . .
204(14) . . .
186(14) . . .
198(14) . . .
210(14) . . .
204(14) . . .
209(14) . . .
191(14) . . .
208(14) . . .
182(13) . . .
215(15) . . .
228(15) . . .
207(14) . . .
218(15) . . .
210(14) . . .
211(15) . . .
191(14) . . .
200(14) . . .
200(14) . . .
212(15) . . .
178(13) . . .
186(14) . . .
197(14) . . .
200(14) . . .
228(15) . . .
205(14) . . .
221(15) . . .
177(13) . . .
191(14) . . .
203(14) . . .
205(14) . . .
208(14) . . .
191(14) . . .
186(14) . . .
201(14) . . .
200(14) . . .
195(14) . . .
173(13) . . .
200(14) . . .
182(13) . . .
185(14) . . .
194(14) . . .
200(14) . . .
198(14) . . .
186(14) . . .
186(14) . . .
197(14) . . .
206(14) . . .
202(14) . . .
203(14) . . .
196(14) . . .
217(15) . . .
183(14) . . .
175(13) . . .
194(14) . . .
209(14) . . .
173(13) . . .
199(14) . . .
188(14) . . .
184(14) . . .
199(14) . . .
207(14) . . .
199(14) . . .
194(14) . . .
188(14) . . .
210(14) . . .
208(14) . . .
198(14) . . .
199(14) . . .
189(14) . . .
197(14) . . .
203(14) . . .
190(14) . . .
193(14) . . .
209(14) . . .
203(14) . . .
189(14) . . .
185(14) . . .
217(15) . . .
212(15) . . .
201(14) . . .
185(14) . . .
205(14) . . .
186(14) . . .
205(14) . . .
230(15) . . .
212(15) . . .
213(15) . . .
196(14) . . .
205(14) . . .
196(14) . . .
191(14) . . .
200(14) . . .
191(14) . . .
211(15) . . .
196(14) . . .
205(14) . . .
201(14) . . .
222(15) . . .
191(14) . . .
208(14) . . .
196(14) . . .
211(15) . . .
210(14) . . .
195(14) . . .
188(14) . . .
190(14) . . .
193(14) . . .
224(15) . . .
193(14) . . .
201(14) . . .
220(15) . . .
213(15) . . .
203(14) . . .
184(14) . . .
186(14) . . .
187(14) . . .
231(15) . . .
219(15) . . .
204(14) . . .
198(14) . . .
211(15) . . .
205(14) . . .
215(15) . . .
201(14) . . .
200(14) . . .
205(14) . . .
207(14) . . .
227(15) . . .
214(15) . . .
214(15) . . .
205(14) . . .
208(14) . . .
193(14) . . .
207(14) . . .
219(15) . . .
222(15) . . .
208(14) . . .
206(14) . . .
194(14) . . .
218(15) . . .
203(14) . . .
224(15) . . .
204(14) . . .
220(15) . . .
233(15) . . .
190(14) . . .
214(15) . . .
191(14) . . .
202(14) . . .
223(15) . . .
225(15) . . .
203(14) . . .
202(14) . . .
214(15) . . .
196(14) . . .
197(14) . . .
223(15) . . .
235(15) . . .
236(15) . . .
242(16) . . .
214(15) . . .
218(15) . . .
212(15) . . .
231(15) . . .
239(15) . . .
229(15) . . .
224(15) . . .
215(15) . . .
232(15) . . .
242(16) . . .
206(14) . . .
233(15) . . .
244(16) . . .
214(15) . . .
252(16) . . .
243(16) . . .
226(15) . . .
246(16) . . .
221(15) . . .
235(15) . . .
253(16) . . .
224(15) . . .
219(15) . . .
243(16) . . .
240(15) . . .
233(15) . . .
229(15) . . .
254(16) . . .
229(15) . . .
267(16) . . .
250(16) . . .
229(15) . . .
245(16) . . .
243(16) . . .
249(16) . . .
248(16) . . .
281(17) . . .
247(16) . . .
265(16) . . .
268(16) . . .
277(17) . . .
261(16) . . .
246(16) . . .
260(16) . . .
255(16) . . .
287(17) . . .
287(17) . . .
281(17) . . .
314(18) . . .
263(16) . . .
276(17) . . .
313(18) . . .
275(17) . . .
303(17) . . .
297(17) . . .
330(18) . . .
302(17) . . .
325(18) . . .
305(17) . . .
321(18) . . .
332(18) . . .
319(18) . . .
354(19) . . .
313(18) . . .
359(19) . . .
335(18) . . .
356(19) . . .
363(19) . . .
402(20) . . .
388(20) . . .
348(19) . . .
404(20) . . .
362(19) . . .
434(21) . . .
402(20) . . .
455(21) . . .
442(21) . . .
481(22) . . .
420(20) . . .
522(23) . . .
513(23) . . .
502(22) . . .
536(23) . . .
589(24) . . .
578(24) . . .
583(24) . . .
608(25) . . .
645(25) . . .
660(26) . . .
667(26) . . .
723(27) . . .
748(27) . . .
837(29) . . .
875(30) . . .
927(30) . . .
929(30) . . .
1000(32) . . .
1071(33) . . .
1081(33) . . .
1152(34) . . .
1251(35) . . .
1363(37) . . .
1503(39) . . .
1575(40) . . .
1621(40) . . .
1775(42) . . .
1935(44) . . .
2174(47) . . .
2260(48) . . .
2513(50) . . .
2745(52) . . .
2926(54) . . .
3325(58) . . .
3592(60) . . .
4030(63) . . .
4353(66) . . .
4917(70) . . .
5248(72) . . .
5681(75) . . .
5995(77) . . .
6395(80) . . .
6976(84) . . .
7325(86) . . .
7528(87) . . .
7918(89) . . .
8061(90) . . .
8240(91) . . .
7936(89) . . .
7841(89) . . .
7705(88) . . .
7507(87) . . .
7068(84) . . .
6737(82) . . .
6274(79) . . .
5844(76) . . .
5510(74) . . .
4881(70) . . .
4462(67) . . .
4068(64) . . .
3487(59) . . .
3230(57) . . .
2987(55) . . .
2693(52) . . .
2496(50) . . .
2300(48) . . .
2098(46) . . .
1856(43) . . .
1740(42) . . .
1604(40) . . .
1515(39) . . .
1332(36) . . .
1283(36) . . .
1216(35) . . .
1137(34) . . .
1064(33) . . .
987(31) . . .
954(31) . . .
910(30) . . .
831(29) . . .
839(29) . . .
774(28) . . .
730(27) . . .
686(26) . . .
672(26) . . .
638(25) . . .
610(25) . . .
570(24) . . .
583(24) . . .
550(23) . . .
535(23) . . .
490(22) . . .
521(23) . . .
454(21) . . .
480(22) . . .
453(21) . . .
432(21) . . .
408(20) . . .
428(21) . . .
404(20) . . .
403(20) . . .
407(20) . . .
375(19) . . .
368(19) . . .
359(19) . . .
327(18) . . .
361(19) . . .
347(19) . . .
356(19) . . .
370(19) . . .
363(19) . . .
298(17) . . .
320(18) . . .
312(18) . . .
333(18) . . .
303(17) . . .
285(17) . . .
276(17) . . .
290(17) . . .
318(18) . . .
310(18) . . .
300(17) . . .
278(17) . . .
284(17) . . .
282(17) . . .
281(17) . . .
278(17) . . .
288(17) . . .
256(16) . . .
278(17) . . .
240(15) . . .
272(16) . . .
234(15) . . .
262(16) . . .
275(17) . . .
246(16) . . .
245(16) . . .
262(16) . . .
269(16) . . .
228(15) . . .
252(16) . . .
252(16) . . .
266(16) . . .
260(16) . . .
255(16) . . .
247(16) . . .
256(16) . . .
239(15) . . .
221(15) . . .
255(16) . . .
242(16) . . .
246(16) . . .
262(16) . . .
239(15) . . .
253(16) . . .
226(15) . . .
242(16) . . .
234(15) . . .
199(14) . . .
225(15) . . .
231(15) . . .
244(16) . . .
230(15) . . .
232(15) . . .
228(15) . . .
221(15) . . .
229(15) . . .
245(16) . . .
228(15) . . .
234(15) . . .
245(16) . . .
234(15) . . .
214(15) . . .
230(15) . . .
231(15) . . .
221(15) . . .
238(15) . . .
230(15) . . .
230(15) . . .
209(14) . . .
237(15) . . .
250(16) . . .
238(15) . . .
210(14) . . .
241(16) . . .
227(15) . . .
218(15) . . .
224(15) . . .
216(15) . . .
230(15) . . .
225(15) . . .
204(14) . . .
210(14) . . .
212(15) . . .
236(15) . . .
220(15) . . .
214(15) . . .
240(15) . . .
224(15) . . .
224(15) . . .
204(14) . . .
196(14) . . .
226(15) . . .
216(15) . . .
214(15) . . .
210(14) . . .
205(14) . . .
215(15) . . .
207(14) . . .
196(14) . . .
214(15) . . .
231(15) . . .
212(15) . . .
219(15) . . .
226(15) . . .
220(15) . . .
231(15) . . .
215(15) . . .
210(14) . . .
213(15) . . .
219(15) . . .
220(15) . . .
218(15) . . .
224(15) . . .
221(15) . . .
250(16) . . .
221(15) . . .
225(15) . . .
226(15) . . .
220(15) . . .
223(15) . . .
224(15) . . .
221(15) . . .
236(15) . . .
205(14) . . .
228(15) . . .
222(15) . . .
226(15) . . .
225(15) . . .
216(15) . . .
235(15) . . .
238(15) . . .
217(15) . . .
204(14) . . .
223(15) . . .
227(15) . . .
224(15) . . .
231(15) . . .
229(15) . . .
243(16) . . .
207(14) . . .
217(15) . . .
233(15) . . .
208(14) . . .
238(15) . . .
212(15) . . .
226(15) . . .
214(15) . . .
214(15) . . .
239(15) . . .
252(16) . . .
212(15) . . .
249(16) . . .
244(16) . . .
228(15) . . .
243(16) . . .
212(15) . . .
202(14) . . .
218(15) . . .
230(15) . . .
233(15) . . .
254(16) . . .
232(15) . . .
229(15) . . .
235(15) . . .
272(16) . . .
240(15) . . .
269(16) . . .
243(16) . . .
256(16) . . .
249(16) . . .
270(16) . . .
242(16) . . .
292(17) . . .
247(16) . . .
278(17) . . .
260(16) . . .
264(16) . . .
252(16) . . .
254(16) . . .
280(17) . . .
279(17) . . .
316(18) . . .
286(17) . . .
305(17) . . .
293(17) . . .
307(18) . . .
313(18) . . .
322(18) . . .
313(18) . . .
327(18) . . .
332(18) . . .
339(18) . . .
323(18) . . .
360(19) . . .
360(19) . . .
380(19) . . .
353(19) . . .
379(19) . . .
366(19) . . .
444(21) . . .
407(20) . . .
413(20) . . .
477(22) . . .
459(21) . . .
499(22) . . .
524(23) . . .
531(23) . . .
588(24) . . .
637(25) . . .
623(25) . . .
624(25) . . .
655(26) . . .
700(26) . . .
779(28) . . .
832(29) . . .
855(29) . . .
957(31) . . .
1032(32) . . .
1021(32) . . .
1127(34) . . .
1205(35) . . .
1323(36) . . .
1464(38) . . .
1641(41) . . .
1793(42) . . .
1918(44) . . .
2143(46) . . .
2342(48) . . .
2586(51) . . .
2755(52) . . .
3017(55) . . .
3202(57) . . .
3367(58) . . .
3547(60) . . .
3694(61) . . .
3799(62) . . .
3994(63) . . .
3922(63) . . .
4029(63) . . .
3891(62) . . .
3859(62) . . .
3701(61) . . .
3512(59) . . .
3283(57) . . .
3113(56) . . .
2927(54) . . .
2637(51) . . .
2535(50) . . .
2305(48) . . .
2113(46) . . .
1890(43) . . .
1755(42) . . .
1665(41) . . .
1461(38) . . .
1372(37) . . .
1239(35) . . .
1207(35) . . .
1101(33) . . .
1028(32) . . .
969(31) . . .
870(29) . . .
822(29) . . .
794(28) . . .
705(27) . . .
712(27) . . .
597(24) . . .
596(24) . . .
560(24) . . .
522(23) . . .
516(23) . . .
488(22) . . .
496(22) . . .
468(22) . . .
409(20) . . .
380(19) . . .
422(21) . . .
397(20) . . .
369(19) . . .
380(19) . . .
373(19) . . .
361(19) . . .
359(19) . . .
323(18) . . .
319(18) . . .
345(19) . . .
295(17) . . .
312(18) . . .
272(16) . . .
310(18) . . .
303(17) . . .
270(16) . . .
303(17) . . .
281(17) . . .
319(18) . . .
251(16) . . .
243(16) . . .
226(15) . . .
258(16) . . .
257(16) . . .
253(16) . . .
277(17) . . .
253(16) . . .
257(16) . . .
250(16) . . .
226(15) . . .
286(17) . . .
232(15) . . .
258(16) . . .
235(15) . . .
235(15) . . .
268(16) . . .
254(16) . . .
229(15) . . .
249(16) . . .
218(15) . . .
230(15) . . .
228(15) . . .
226(15) . . .
228(15) . . .
227(15) . . .
222(15) . . .
236(15) . . .
217(15) . . .
212(15) . . .
203(14) . . .
215(15) . . .
225(15) . . .
211(15) . . .
211(15) . . .
203(14) . . .
216(15) . . .
212(15) . . .
234(15) . . .
204(14) . . .
201(14) . . .
220(15) . . .
185(14) . . .
193(14) . . .
199(14) . . .
223(15) . . .
189(14) . . .
235(15) . . .
191(14) . . .
202(14) . . .
203(14) . . .
204(14) . . .
225(15) . . .
211(15) . . .
196(14) . . .
215(15) . . .
188(14) . . .
200(14) . . .
204(14) . . .
218(15) . . .
188(14) . . .
190(14) . . .
175(13) . . .
193(14) . . .
208(14) . . .
204(14) . . .
192(14) . . .
189(14) . . .
212(15) . . .
200(14) . . .
199(14) . . .
205(14) . . .
186(14) . . .
194(14) . . .
201(14) . . .
172(13) . . .
174(13) . . .
183(14) . . .
196(14) . . .
196(14) . . .
180(13) . . .
175(13) . . .
183(14) . . .
194(14) . . .
189(14) . . .
186(14) . . .
202(14) . . .
191(14) . . .
198(14) . . .
162(13) . . .
198(14) . . .
173(13) . . .
167(13) . . .
184(14) . . .
180(13) . . .
187(14) . . .
190(14) . . .
202(14) . . .
191(14) . . .
190(14) . . .
191(14) . . .
183(14) . . .
205(14) . . .
174(13) . . .
173(13) . . .
189(14) . . .
188(14) . . .
185(14) . . .
192(14) . . .
196(14) . . .
183(14) . . .
174(13) . . .
156(12) . . .
177(13) . . .
181(13) . . .
182(13) . . .
173(13) . . .
193(14) . . .
184(14) . . .
195(14) . . .
163(13) . . .
186(14) . . .
193(14) . . .
173(13) . . .
187(14) . . .
206(14) . . .
209(14) . . .
177(13) . . .
170(13) . . .
182(13) . . .
178(13) . . .
174(13) . . .
146(12) . . .
191(14) . . .
203(14) . . .
187(14) . . .
192(14) . . .
178(13) . . .
168(13) . . .
198(14) . . .
175(13) . . .
179(13) . . .
188(14) . . .
172(13) . . .
174(13) . . .
176(13) . . .
176(13) . . .
197(14) . . .
171(13) . . .
198(14) . . .
173(13) . . .
182(13) . . .
183(14) . . .
162(13) . . .
187(14) . . .
176(13) . . .
171(13) . . .
162(13) . . .
184(14) . . .
172(13) . . .
163(13) . . .
195(14) . . .
193(14) . . .
159(13) . . .
190(14) . . .
175(13) . . .
201(14) . . .
161(13) . . .
184(14) . . .
187(14) . . .
174(13) . . .
193(14) . . .
204(14) . . .
197(14) . . .
177(13) . . .
169(13) . . .
185(14) . . .
181(13) . . .
172(13) . . .
173(13) . . .
169(13) . . .
183(14) . . .
194(14) . . .
175(13) . . .
188(14) . . .
207(14) . . .
176(13) . . .
177(13) . . .
180(13) . . .
162(13) . . .
182(13) . . .
173(13) . . .
155(12) . . .
177(13) . . .
180(13) . . .
187(14) . . .
168(13) . . .
183(14) . . .
165(13) . . .
161(13) . . .
183(14) . . .
185(14) . . .
165(13) . . .
181(13) . . .
179(13) . . .
167(13) . . .
170(13) . . .
178(13) . . .
178(13) . . .
178(13) . . .
191(14) . . .
178(13) . . .
183(14) . . .
168(13) . . .
184(14) . . .
190(14) . . .
178(13) . . .
171(13) . . .
185(14) . . .
179(13) . . .
176(13) . . .
175(13) . . .
166(13) . . .
203(14) . . .
195(14) . . .
172(13) . . .
173(13) . . .
184(14) . . .
176(13) . . .
191(14) . . .
187(14) . . .
160(13) . . .
170(13) . . .
173(13) . . .
208(14) . . .
165(13) . . .
167(13) . . .
178(13) . . .
189(14) . . .
173(13) . . .
179(13) . . .
186(14) . . .
156(12) . . .
177(13) . . .
183(14) . . .
169(13) . . .
184(14) . . .
180(13) . . .
202(14) . . .
194(14) . . .
189(14) . . .
168(13) . . .
204(14) . . .
191(14) . . .
177(13) . . .
167(13) . . .
178(13) . . .
166(13) . . .
192(14) . . .
176(13) . . .
182(13) . . .
184(14) . . .
178(13) . . .
178(13) . . .
159(13) . . .
185(14) . . .
179(13) . . .
193(14) . . .
176(13) . . .
177(13) . . .
164(13) . . .
179(13) . . .
153(12) . . .
188(14) . . .
174(13) . . .
174(13) . . .
174(13) . . .
175(13) . . .
189(14) . . .
171(13) . . .
182(13) . . .
161(13) . . .
179(13) . . .
190(14) . . .
181(13) . . .
203(14) . . .
174(13) . . .
158(13) . . .
167(13) . . .
212(15) . . .
190(14) . . .
160(13) . . .
168(13) . . .
180(13) . . .
146(12) . . .
184(14) . . .
176(13) . . .
185(14) . . .
159(13) . . .
167(13) . . .
161(13) . . .
171(13) . . .
169(13) . . .
166(13) . . .
162(13) . . .
165(13) . . .
194(14) . . .
156(12) . . .
187(14) . . .
173(13) . . .
189(14) . . .
192(14) . . .
172(13) . . .
187(14) . . .
152(12) . . .
194(14) . . .
155(12) . . .
181(13) . . .
170(13) . . .
180(13) . . .
174(13) . . .
185(14) . . .
158(13) . . .
175(13) . . .
182(13) . . .
177(13) . . .
152(12) . . .
187(14) . . .
182(13) . . .
163(13) . . .
188(14) . . .
184(14) . . .
170(13) . . .
159(13) . . .
157(13) . . .
168(13) . . .
178(13) . . .
179(13) . . .
206(14) . . .
168(13) . . .
166(13) . . .
188(14) . . .
179(13) . . .
162(13) . . .
162(13) . . .
165(13) . . .
181(13) . . .
175(13) . . .
179(13) . . .
190(14) . . .
180(13) . . .
186(14) . . .
173(13) . . .
172(13) . . .
155(12) . . .
169(13) . . .
179(13) . . .
142(12) . . .
153(12) . . .
150(12) . . .
172(13) . . .
174(13) . . .
164(13) . . .
174(13) . . .
174(13) . . .
181(13) . . .
158(13) . . .
155(12) . . .
174(13) . . .
172(13) . . .
166(13) . . .
174(13) . . .
179(13) . . .
179(13) . . .
179(13) . . .
177(13) . . .
174(13) . . .
152(12) . . .
180(13) . . .
159(13) . . .
168(13) . . .
176(13) . . .
173(13) . . .
175(13) . . .
173(13) . . .
155(12) . . .
182(13) . . .
171(13) . . .
174(13) . . .
196(14) . . .
164(13) . . .
176(13) . . .
158(13) . . .
176(13) . . .
174(13) . . .
150(12) . . .
160(13) . . .
181(13) . . .
157(13) . . .
175(13) . . .
166(13) . . .
192(14) . . .
182(13) . . .
160(13) . . .
173(13) . . .
158(13) . . .
163(13) . . .
170(13) . . .
176(13) . . .
166(13) . . .
181(13) . . .
168(13) . . .
190(14) . . .
161(13) . . .
168(13) . . .
171(13) . . .
167(13) . . .
169(13) . . .
176(13) . . .
162(13) . . .
167(13) . . .
173(13) . . .
180(13) . . .
181(13) . . .
183(14) . . .
159(13) . . .
170(13) . . .
155(12) . . .
163(13) . . .
165(13) . . .
178(13) . . .
163(13) . . .
159(13) . . .
162(13) . . .
167(13) . . .
171(13) . . .
160(13) . . .
178(13) . . .
177(13) . . .
183(14) . . .
180(13) . . .
164(13) . . .
142(12) . . .
166(13) . . .
180(13) . . .
155(12) . . .
162(13) . . .
165(13) . . .
155(12) . . .
175(13) . . .
164(13) . . .
158(13) . . .
182(13) . . .
171(13) . . .
159(13) . . .
160(13) . . .
173(13) . . .
171(13) . . .
146(12) . . .
169(13) . . .
166(13) . . .
182(13) . . .
160(13) . . .
153(12) . . .
182(13) . . .
162(13) . . .
149(12) . . .
179(13) . . .
186(14) . . .
189(14) . . .
185(14) . . .
187(14) . . .
169(13) . . .
162(13) . . .
167(13) . . .
184(14) . . .
177(13) . . .
166(13) . . .
158(13) . . .
158(13) . . .
151(12) . . .
169(13) . . .
166(13) . . .
172(13) . . .
174(13) . . .
170(13) . . .
174(13) . . .
163(13) . . .
180(13) . . .
146(12) . . .
171(13) . . .
172(13) . . .
173(13) . . .
182(13) . . .
161(13) . . .
161(13) . . .
146(12) . . .
149(12) . . .
168(13) . . .
167(13) . . .
168(13) . . .
165(13) . . .
159(13) . . .
168(13) . . .
167(13) . . .
165(13) . . .
171(13) . . .
158(13) . . .
175(13) . . .
145(12) . . .
146(12) . . .
190(14) . . .
166(13) . . .
176(13) . . .
181(13) . . .
164(13) . . .
176(13) . . .
163(13) . . .
166(13) . . .
172(13) . . .
172(13) . . .
198(14) . . .
184(14) . . .
181(13) . . .
171(13) . . .
160(13) . . .
183(14) . . .
159(13) . . .
172(13) . . .
161(13) . . .
182(13) . . .
171(13) . . .
145(12) . . .
169(13) . . .
174(13) . . .
172(13) . . .
165(13) . . .
160(13) . . .
155(12) . . .
164(13) . . .
178(13) . . .
164(13) . . .
167(13) . . .
156(12) . . .
156(12) . . .
173(13) . . .
137(12) . . .
182(13) . . .
173(13) . . .
166(13) . . .
178(13) . . .
152(12) . . .
168(13) . . .
177(13) . . .
168(13) . . .
171(13) . . .
173(13) . . .
178(13) . . .
171(13) . . .
162(13) . . .
183(14) . . .
170(13) . . .
154(12) . . .
178(13) . . .
170(13) . . .
178(13) . . .
148(12) . . .
176(13) . . .
175(13) . . .
188(14) . . .
164(13) . . .
174(13) . . .
171(13) . . .
179(13) . . .
160(13) . . .
190(14) . . .
168(13) . . .
170(13) . . .
166(13) . . .
172(13) . . .
149(12) . . .
177(13) . . .
149(12) . . .
163(13) . . .
178(13) . . .
132(11) . . .
169(13) . . .
168(13) . . .
158(13) . . .
166(13) . . .
149(12) . . .
161(13) . . .
153(12) . . .
184(14) . . .
156(12) . . .
161(13) . . .
175(13) . . .
162(13) . . .
166(13) . . .
165(13) . . .
154(12) . . .
157(13) . . .
161(13) . . .
175(13) . . .
147(12) . . .
149(12) . . .
142(12) . . .
177(13) . . .
186(14) . . .
161(13) . . .
166(13) . . .
168(13) . . .
179(13) . . .
151(12) . . .
170(13) . . .
171(13) . . .
195(14) . . .
168(13) . . .
182(13) . . .
166(13) . . .
162(13) . . .
153(12) . . .
165(13) . . .
145(12) . . .
173(13) . . .
159(13) . . .
171(13) . . .
156(12) . . .
155(12) . . .
177(13) . . .
171(13) . . .
164(13) . . .
168(13) . . .
175(13) . . .
183(14) . . .
154(12) . . .
151(12) . . .
174(13) . . .
157(13) . . .
179(13) . . .
171(13) . . .
171(13) . . .
175(13) . . .
167(13) . . .
162(13) . . .
159(13) . . .
171(13) . . .
170(13) . . .
147(12) . . .
163(13) . . .
167(13) . . .
167(13) . . .
186(14) . . .
169(13) . . .
159(13) . . .
160(13) . . .
155(12) . . .
159(13) . . .
160(13) . . .
173(13) . . .
161(13) . . .
159(13) . . .
157(13) . . .
153(12) . . .
174(13) . . .
176(13) . . .
147(12) . . .
162(13) . . .
171(13) . . .
158(13) . . .
171(13) . . .
161(13) . . .
172(13) . . .
163(13) . . .
196(14) . . .
172(13) . . .
158(13) . . .
175(13) . . .
171(13) . . .
181(13) . . .
179(13) . . .
169(13) . . .
187(14) . . .
177(13) . . .
172(13) . . .
175(13) . . .
170(13) . . .
177(13) . . .
177(13) . . .
162(13) . . .
155(12) . . .
176(13) . . .
179(13) . . .
177(13) . . .
193(14) . . .
166(13) . . .
169(13) . . .
187(14) . . .
159(13) . . .
160(13) . . .
151(12) . . .
167(13) . . .
187(14) . . .
189(14) . . .
186(14) . . .
152(12) . . .
162(13) . . .
180(13) . . .
162(13) . . .
187(14) . . .
176(13) . . .
153(12) . . .
176(13) . . .
173(13) . . .
180(13) . . .
159(13) . . .
159(13) . . .
192(14) . . .
163(13) . . .
178(13) . . .
184(14) . . .
150(12) . . .
186(14) . . .
176(13) . . .
153(12) . . .
160(13) . . .
191(14) . . .
176(13) . . .
177(13) . . .
192(14) . . .
161(13) . . .
176(13) . . .
171(13) . . .
185(14) . . .
200(14) . . .
196(14) . . .
166(13) . . .
172(13) . . .
180(13) . . .
170(13) . . .
162(13) . . .
147(12) . . .
182(13) . . .
169(13) . . .
171(13) . . .
172(13) . . .
184(14) . . .
158(13) . . .
177(13) . . .
172(13) . . .
195(14) . . .
174(13) . . .
157(13) . . .
177(13) . . .
164(13) . . .
165(13) . . .
160(13) . . .
162(13) . . .
162(13) . . .
172(13) . . .
176(13) . . .
157(13) . . .
184(14) . . .
172(13) . . .
164(13) . . .
179(13) . . .
165(13) . . .
154(12) . . .
152(12) . . .
174(13) . . .
158(13) . . .
164(13) . . .
166(13) . . .
171(13) . . .
162(13) . . .
173(13) . . .
187(14) . . .
151(12) . . .
171(13) . . .
177(13) . . .
165(13) . . .
162(13) . . .
185(14) . . .
150(12) . . .
163(13) . . .
163(13) . . .
167(13) . . .
171(13) . . .
162(13) . . .
176(13) . . .
180(13) . . .
163(13) . . .
166(13) . . .
158(13) . . .
163(13) . . .
176(13) . . .
182(13) . . .
177(13) . . .
192(14) . . .
178(13) . . .
159(13) . . .
161(13) . . .
167(13) . . .
147(12) . . .
147(12) . . .
169(13) . . .
165(13) . . .
172(13) . . .
158(13) . . .
164(13) . . .
175(13) . . .
170(13) . . .
162(13) . . .
160(13) . . .
163(13) . . .
158(13) . . .
170(13) . . .
160(13) . . .
166(13) . . .
156(12) . . .
155(12) . . .
151(12) . . .
163(13) . . .
164(13) . . .
161(13) . . .
152(12) . . .
164(13) . . .
176(13) . . .
161(13) . . .
146(12) . . .
168(13) . . .
169(13) . . .
158(13) . . .
168(13) . . .
172(13) . . .
152(12) . . .
182(13) . . .
166(13) . . .
183(14) . . .
158(13) . . .
175(13) . . .
172(13) . . .
182(13) . . .
172(13) . . .
170(13) . . .
160(13) . . .
177(13) . . .
178(13) . . .
154(12) . . .
193(14) . . .
166(13) . . .
170(13) . . .
174(13) . . .
174(13) . . .
162(13) . . .
162(13) . . .
163(13) . . .
169(13) . . .
178(13) . . .
148(12) . . .
147(12) . . .
160(13) . . .
163(13) . . .
182(13) . . .
154(12) . . .
164(13) . . .
173(13) . . .
178(13) . . .
167(13) . . .
141(12) . . .
173(13) . . .
167(13) . . .
175(13) . . .
170(13) . . .
171(13) . . .
174(13) . . .
163(13) . . .
160(13) . . .
167(13) . . .
171(13) . . .
191(14) . . .
178(13) . . .
173(13) . . .
188(14) . . .
181(13) . . .
170(13) . . .
194(14) . . .
191(14) . . .
193(14) . . .
181(13) . . .
176(13) . . .
189(14) . . .
202(14) . . .
168(13) . . .
183(14) . . .
188(14) . . .
173(13) . . .
187(14) . . .
166(13) . . .
177(13) . . .
198(14) . . .
188(14) . . .
159(13) . . .
162(13) . . .
173(13) . . .
174(13) . . .
181(13) . . .
174(13) . . .
165(13) . . .
180(13) . . .
176(13) . . .
163(13) . . .
161(13) . . .
163(13) . . .
172(13) . . .
189(14) . . .
195(14) . . .
178(13) . . .
181(13) . . .
166(13) . . .
175(13) . . .
177(13) . . .
175(13) . . .
175(13) . . .
155(12) . . .
164(13) . . .
170(13) . . .
162(13) . . .
168(13) . . .
180(13) . . .
165(13) . . .
170(13) . . .
152(12) . . .
171(13) . . .
184(14) . . .
181(13) . . .
165(13) . . .
176(13) . . .
169(13) . . .
164(13) . . .
185(14) . . .
187(14) . . .
159(13) . . .
155(12) . . .
148(12) . . .
176(13) . . .
166(13) . . .
192(14) . . .
168(13) . . .
164(13) . . .
185(14) . . .
162(13) . . .
168(13) . . .
170(13) . . .
169(13) . . .
174(13) . . .
152(12) . . .
179(13) . . .
185(14) . . .
162(13) . . .
172(13) . . .
170(13) . . .
179(13) . . .
166(13) . . .
160(13) . . .
164(13) . . .
174(13) . . .
167(13) . . .
171(13) . . .
168(13) . . .
158(13) . . .
181(13) . . .
174(13) . . .
163(13) . . .
162(13) . . .
166(13) . . .
156(12) . . .
191(14) . . .
171(13) . . .
165(13) . . .
176(13) . . .
177(13) . . .
172(13) . . .
162(13) . . .
172(13) . . .
164(13) . . .
158(13) . . .
160(13) . . .
185(14) . . .
181(13) . . .
175(13) . . .
166(13) . . .
181(13) . . .
174(13) . . .
182(13) . . .
192(14) . . .
165(13) . . .
167(13) . . .
181(13) . . .
186(14) . . .
189(14) . . .
162(13) . . .
168(13) . . .
191(14) . . .
170(13) . . .
172(13) . . .
180(13) . . .
169(13) . . .
185(14) . . .
189(14) . . .
161(13) . . .
198(14) . . .
168(13) . . .
186(14) . . .
155(12) . . .
166(13) . . .
169(13) . . .
188(14) . . .
186(14) . . .
155(12) . . .
162(13) . . .
202(14) . . .
182(13) . . .
165(13) . . .
179(13) . . .
166(13) . . .
176(13) . . .
187(14) . . .
169(13) . . .
177(13) . . .
172(13) . . .
168(13) . . .
180(13) . . .
182(13) . . .
170(13) . . .
173(13) . . .
179(13) . . .
159(13) . . .
182(13) . . .
159(13) . . .
185(14) . . .
183(14) . . .
202(14) . . .
186(14) . . .
200(14) . . .
196(14) . . .
183(14) . . .
188(14) . . .
189(14) . . .
201(14) . . .
189(14) . . .
195(14) . . .
182(13) . . .
193(14) . . .
212(15) . . .
193(14) . . .
197(14) . . .
208(14) . . .
188(14) . . .
200(14) . . .
197(14) . . .
192(14) . . .
188(14) . . .
213(15) . . .
224(15) . . .
197(14) . . .
197(14) . . .
208(14) . . .
192(14) . . .
205(14) . . .
207(14) . . .
235(15) . . .
204(14) . . .
214(15) . . .
203(14) . . .
218(15) . . .
204(14) . . .
199(14) . . .
216(15) . . .
213(15) . . .
204(14) . . .
221(15) . . .
204(14) . . .
228(15) . . .
205(14) . . .
213(15) . . .
235(15) . . .
226(15) . . .
239(15) . . .
253(16) . . .
240(15) . . .
252(16) . . .
216(15) . . .
243(16) . . .
260(16) . . .
273(17) . . .
281(17) . . .
282(17) . . .
294(17) . . .
310(18) . . .
271(16) . . .
309(18) . . .
281(17) . . .
270(16) . . .
306(17) . . .
281(17) . . .
332(18) . . .
324(18) . . .
318(18) . . .
374(19) . . .
338(18) . . .
341(18) . . .
348(19) . . .
380(19) . . .
407(20) . . .
400(20) . . .
387(20) . . .
415(20) . . .
385(20) . . .
430(21) . . .
447(21) . . .
440(21) . . .
482(22) . . .
535(23) . . .
522(23) . . .
562(24) . . .
605(25) . . .
610(25) . . .
624(25) . . .
672(26) . . .
701(26) . . .
747(27) . . .
795(28) . . .
821(29) . . .
857(29) . . .
941(31) . . .
1009(32) . . .
1093(33) . . .
1126(34) . . .
1172(34) . . .
1309(36) . . .
1448(38) . . .
1524(39) . . .
1649(41) . . .
1809(43) . . .
1947(44) . . .
2100(46) . . .
2213(47) . . .
2468(50) . . .
2619(51) . . .
2930(54) . . .
3100(56) . . .
3291(57) . . .
3433(59) . . .
3525(59) . . .
3731(61) . . .
3879(62) . . .
3924(63) . . .
3955(63) . . .
3947(63) . . .
3931(63) . . .
4015(63) . . .
3801(62) . . .
3754(61) . . .
3621(60) . . .
3473(59) . . .
3343(58) . . .
3059(55) . . .
2911(54) . . .
2780(53) . . .
2483(50) . . .
2392(49) . . .
2177(47) . . .
2008(45) . . .
1834(43) . . .
1695(41) . . .
1546(39) . . .
1450(38) . . .
1428(38) . . .
1264(36) . . .
1172(34) . . .
1073(33) . . .
1035(32) . . .
938(31) . . .
862(29) . . .
867(29) . . .
745(27) . . .
709(27) . . .
682(26) . . .
674(26) . . .
633(25) . . .
622(25) . . .
561(24) . . .
512(23) . . .
510(23) . . .
498(22) . . .
491(22) . . .
443(21) . . .
414(20) . . .
417(20) . . .
441(21) . . .
392(20) . . .
382(20) . . .
378(19) . . .
364(19) . . .
362(19) . . .
346(19) . . .
374(19) . . .
315(18) . . .
292(17) . . .
320(18) . . .
315(18) . . .
305(17) . . .
297(17) . . .
295(17) . . .
266(16) . . .
264(16) . . .
282(17) . . .
308(18) . . .
264(16) . . .
257(16) . . .
263(16) . . .
256(16) . . .
256(16) . . .
242(16) . . .
243(16) . . .
238(15) . . .
257(16) . . .
230(15) . . .
267(16) . . .
232(15) . . .
226(15) . . .
209(14) . . .
244(16) . . .
238(15) . . .
232(15) . . .
210(14) . . .
179(13) . . .
223(15) . . .
207(14) . . .
205(14) . . .
209(14) . . .
217(15) . . .
198(14) . . .
208(14) . . .
210(14) . . .
196(14) . . .
201(14) . . .
208(14) . . .
203(14) . . .
197(14) . . .
189(14) . . .
186(14) . . .
197(14) . . .
199(14) . . .
190(14) . . .
222(15) . . .
188(14) . . .
180(13) . . .
216(15) . . .
195(14) . . .
212(15) . . .
196(14) . . .
196(14) . . .
204(14) . . .
189(14) . . .
186(14) . . .
199(14) . . .
176(13) . . .
174(13) . . .
184(14) . . .
161(13) . . .
187(14) . . .
185(14) . . .
197(14) . . .
204(14) . . .
152(12) . . .
163(13) . . .
189(14) . . .
188(14) . . .
185(14) . . .
174(13) . . .
189(14) . . .
158(13) . . .
164(13) . . .
157(13) . . .
172(13) . . .
202(14) . . .
174(13) . . .
176(13) . . .
177(13) . . .
167(13) . . .
178(13) . . .
171(13) . . .
186(14) . . .
164(13) . . .
168(13) . . .
184(14) . . .
189(14) . . .
184(14) . . .
182(13) . . .
170(13) . . .
178(13) . . .
177(13) . . .
168(13) . . .
166(13) . . .
163(13) . . .
157(13) . . .
161(13) . . .
176(13) . . .
168(13) . . .
167(13) . . .
175(13) . . .
173(13) . . .
173(13) . . .
164(13) . . .
154(12) . . .
168(13) . . .
162(13) . . .
163(13) . . .
168(13) . . .
188(14) . . .
152(12) . . .
183(14) . . .
160(13) . . .
177(13) . . .
154(12) . . .
174(13) . . .
182(13) . . .
159(13) . . .
191(14) . . .
146(12) . . .
173(13) . . .
161(13) . . .
182(13) . . .
155(12) . . .
169(13) . . .
191(14) . . .
185(14) . . .
167(13) . . .
183(14) . . .
172(13) . . .
172(13) . . .
148(12) . . .
188(14) . . .
162(13) . . .
171(13) . . .
157(13) . . .
167(13) . . .
167(13) . . .
166(13) . . .
164(13) . . .
166(13) . . .
160(13) . . .
175(13) . . .
160(13) . . .
179(13) . . .
180(13) . . .
178(13) . . .
158(13) . . .
160(13) . . .
170(13) . . .
172(13) . . .
160(13) . . .
157(13) . . .
173(13) . . .
150(12) . . .
150(12) . . .
152(12) . . .
172(13) . . .
183(14) . . .
155(12) . . .
167(13) . . .
176(13) . . .
171(13) . . .
172(13) . . .
179(13) . . .
173(13) . . .
166(13) . . .
153(12) . . .
159(13) . . .
150(12) . . .
149(12) . . .
147(12) . . .
171(13) . . .
161(13) . . .
175(13) . . .
167(13) . . .
162(13) . . .
154(12) . . .
155(12) . . .
160(13) . . .
152(12) . . .
140(12) . . .
158(13) . . .
147(12) . . .
168(13) . . .
145(12) . . .
156(12) . . .
147(12) . . .
150(12) . . .
153(12) . . .
170(13) . . .
179(13) . . .
167(13) . . .
184(14) . . .
153(12) . . .
157(13) . . .
167(13) . . .
174(13) . . .
157(13) . . .
163(13) . . .
163(13) . . .
159(13) . . .
155(12) . . .
162(13) . . .
147(12) . . .
150(12) . . .
165(13) . . .
145(12) . . .
157(13) . . .
158(13) . . .
174(13) . . .
162(13) . . .
170(13) . . .
173(13) . . .
147(12) . . .
165(13) . . .
173(13) . . .
144(12) . . .
156(12) . . .
162(13) . . .
176(13) . . .
146(12) . . .
178(13) . . .
150(12) . . .
154(12) . . .
171(13) . . .
168(13) . . .
174(13) . . .
155(12) . . .
142(12) . . .
168(13) . . .
164(13) . . .
147(12) . . .
148(12) . . .
155(12) . . .
148(12) . . .
151(12) . . .
166(13) . . .
167(13) . . .
153(12) . . .
147(12) . . .
156(12) . . .
165(13) . . .
159(13) . . .
155(12) . . .
149(12) . . .
160(13) . . .
153(12) . . .
168(13) . . .
160(13) . . .
162(13) . . .
169(13) . . .
157(13) . . .
142(12) . . .
164(13) . . .
144(12) . . .
156(12) . . .
161(13) . . .
151(12) . . .
135(12) . . .
160(13) . . .
155(12) . . .
171(13) . . .
164(13) . . .
159(13) . . .
152(12) . . .
157(13) . . .
143(12) . . .
163(13) . . .
171(13) . . .
147(12) . . .
176(13) . . .
173(13) . . .
170(13) . . .
167(13) . . .
155(12) . . .
169(13) . . .
160(13) . . .
160(13) . . .
162(13) . . .
162(13) . . .
163(13) . . .
163(13) . . .
161(13) . . .
159(13) . . .
152(12) . . .
167(13) . . .
152(12) . . .
145(12) . . .
128(11) . . .
176(13) . . .
151(12) . . .
158(13) . . .
156(12) . . .
144(12) . . .
153(12) . . .
151(12) . . .
152(12) . . .
154(12) . . .
135(12) . . .
155(12) . . .
155(12) . . .
144(12) . . .
129(11) . . .
162(13) . . .
167(13) . . .
158(13) . . .
139(12) . . .
125(11) . . .
161(13) . . .
144(12) . . .
143(12) . . .
175(13) . . .
141(12) . . .
160(13) . . .
158(13) . . .
162(13) . . .
156(12) . . .
157(13) . . .
157(13) . . .
158(13) . . .
142(12) . . .
143(12) . . .
165(13) . . .
164(13) . . .
156(12) . . .
152(12) . . .
168(13) . . .
178(13) . . .
140(12) . . .
160(13) . . .
158(13) . . .
143(12) . . .
150(12) . . .
152(12) . . .
155(12) . . .
140(12) . . .
145(12) . . .
159(13) . . .
163(13) . . .
149(12) . . .
168(13) . . .
176(13) . . .
177(13) . . .
145(12) . . .
145(12) . . .
143(12) . . .
151(12) . . .
154(12) . . .
156(12) . . .
137(12) . . .
161(13) . . .
146(12) . . .
173(13) . . .
150(12) . . .
149(12) . . .
163(13) . . .
161(13) . . .
147(12) . . .
158(13) . . .
146(12) . . .
148(12) . . .
148(12) . . .
154(12) . . .
145(12) . . .
133(12) . . .
149(12) . . .
156(12) . . .
161(13) . . .
156(12) . . .
144(12) . . .
141(12) . . .
157(13) . . .
149(12) . . .
132(11) . . .
157(13) . . .
137(12) . . .
158(13) . . .
155(12) . . .
151(12) . . .
155(12) . . .
142(12) . . .
147(12) . . .
142(12) . . .
150(12) . . .
158(13) . . .
155(12) . . .
154(12) . . .
157(13) . . .
140(12) . . .
164(13) . . .
138(12) . . .
133(12) . . .
169(13) . . .
171(13) . . .
148(12) . . .
159(13) . . .
150(12) . . .
140(12) . . .
142(12) . . .
157(13) . . .
136(12) . . .
157(13) . . .
149(12) . . .
144(12) . . .
145(12) . . .
172(13) . . .
138(12) . . .
149(12) . . .
164(13) . . .
140(12) . . .
146(12) . . .
160(13) . . .
160(13) . . .
163(13) . . .
150(12) . . .
154(12) . . .
160(13) . . .
148(12) . . .
157(13) . . .
143(12) . . .
161(13) . . .
191(14) . . .
146(12) . . .
160(13) . . .
144(12) . . .
161(13) . . .
149(12) . . .
159(13) . . .
147(12) . . .
153(12) . . .
155(12) . . .
172(13) . . .
155(12) . . .
152(12) . . .
146(12) . . .
149(12) . . .
150(12) . . .
158(13) . . .
128(11) . . .
129(11) . . .
142(12) . . .
149(12) . . .
151(12) . . .
148(12) . . .
152(12) . . .
145(12) . . .
160(13) . . .
155(12) . . .
157(13) . . .
136(12) . . .
145(12) . . .
123(11) . . .
138(12) . . .
159(13) . . .
157(13) . . .
148(12) . . .
145(12) . . .
149(12) . . .
145(12) . . .
144(12) . . .
145(12) . . .
155(12) . . .
163(13) . . .
161(13) . . .
165(13) . . .
163(13) . . .
157(13) . . .
140(12) . . .
130(11) . . .
152(12) . . .
139(12) . . .
155(12) . . .
164(13) . . .
153(12) . . .
161(13) . . .
136(12) . . .
148(12) . . .
156(12) . . .
150(12) . . .
183(14) . . .
175(13) . . .
162(13) . . .
156(12) . . .
145(12) . . .
174(13) . . .
148(12) . . .
160(13) . . .
136(12) . . .
147(12) . . .
151(12) . . .
160(13) . . .
146(12) . . .
149(12) . . .
159(13) . . .
143(12) . . .
146(12) . . .
152(12) . . .
159(13) . . .
126(11) . . .
162(13) . . .
162(13) . . .
176(13) . . .
157(13) . . .
137(12) . . .
143(12) . . .
153(12) . . .
156(12) . . .
157(13) . . .
152(12) . . .
141(12) . . .
153(12) . . .
153(12) . . .
141(12) . . .
147(12) . . .
152(12) . . .
177(13) . . .
155(12) . . .
142(12) . . .
154(12) . . .
147(12) . . .
155(12) . . .
150(12) . . .
163(13) . . .
171(13) . . .
156(12) . . .
146(12) . . .
149(12) . . .
165(13) . . .
130(11) . . .
141(12) . . .
155(12) . . .
151(12) . . .
152(12) . . .
145(12) . . .
159(13) . . .
151(12) . . .
156(12) . . .
154(12) . . .
140(12) . . .
175(13) . . .
158(13) . . .
140(12) . . .
147(12) . . .
150(12) . . .
167(13) . . .
149(12) . . .
165(13) . . .
175(13) . . .
147(12) . . .
151(12) . . .
153(12) . . .
155(12) . . .
136(12) . . .
138(12) . . .
149(12) . . .
139(12) . . .
161(13) . . .
143(12) . . .
140(12) . . .
149(12) . . .
143(12) . . .
168(13) . . .
145(12) . . .
160(13) . . .
169(13) . . .
152(12) . . .
150(12) . . .
152(12) . . .
149(12) . . .
162(13) . . .
173(13) . . .
163(13) . . .
158(13) . . .
190(14) . . .
165(13) . . .
142(12) . . .
133(12) . . .
143(12) . . .
155(12) . . .
162(13) . . .
141(12) . . .
140(12) . . .
158(13) . . .
143(12) . . .
162(13) . . .
137(12) . . .
145(12) . . .
150(12) . . .
159(13) . . .
157(13) . . .
151(12) . . .
153(12) . . .
148(12) . . .
162(13) . . .
148(12) . . .
130(11) . . .
150(12) . . .
147(12) . . .
139(12) . . .
168(13) . . .
150(12) . . .
149(12) . . .
155(12) . . .
162(13) . . .
161(13) . . .
152(12) . . .
173(13) . . .
158(13) . . .
140(12) . . .
177(13) . . .
153(12) . . .
173(13) . . .
154(12) . . .
139(12) . . .
167(13) . . .
164(13) . . .
149(12) . . .
150(12) . . .
162(13) . . .
152(12) . . .
151(12) . . .
158(13) . . .
142(12) . . .
154(12) . . .
148(12) . . .
163(13) . . .
149(12) . . .
147(12) . . .
168(13) . . .
170(13) . . .
164(13) . . .
162(13) . . .
156(12) . . .
167(13) . . .
144(12) . . .
156(12) . . .
150(12) . . .
159(13) . . .
168(13) . . .
159(13) . . .
173(13) . . .
142(12) . . .
156(12) . . .
172(13) . . .
147(12) . . .
153(12) . . .
170(13) . . .
148(12) . . .
152(12) . . .
151(12) . . .
155(12) . . .
168(13) . . .
166(13) . . .
152(12) . . .
145(12) . . .
158(13) . . .
145(12) . . .
130(11) . . .
139(12) . . .
173(13) . . .
155(12) . . .
159(13) . . .
157(13) . . .
167(13) . . .
147(12) . . .
161(13) . . .
173(13) . . .
150(12) . . .
165(13) . . .
144(12) . . .
170(13) . . .
163(13) . . .
184(14) . . .
143(12) . . .
154(12) . . .
153(12) . . .
152(12) . . .
149(12) . . .
176(13) . . .
156(12) . . .
140(12) . . .
167(13) . . .
154(12) . . .
149(12) . . .
133(12) . . .
157(13) . . .
139(12) . . .
154(12) . . .
167(13) . . .
153(12) . . .
161(13) . . .
141(12) . . .
153(12) . . .
154(12) . . .
161(13) . . .
163(13) . . .
169(13) . . .
147(12) . . .
146(12) . . .
162(13) . . .
148(12) . . .
152(12) . . .
158(13) . . .
164(13) . . .
173(13) . . .
137(12) . . .
160(13) . . .
159(13) . . .
176(13) . . .
161(13) . . .
154(12) . . .
150(12) . . .
164(13) . . .
161(13) . . .
172(13) . . .
164(13) . . .
172(13) . . .
177(13) . . .
163(13) . . .
162(13) . . .
143(12) . . .
157(13) . . .
157(13) . . .
166(13) . . .
174(13) . . .
164(13) . . .
157(13) . . .
173(13) . . .
158(13) . . .
163(13) . . .
162(13) . . .
155(12) . . .
158(13) . . .
152(12) . . .
168(13) . . .
173(13) . . .
157(13) . . .
162(13) . . .
168(13) . . .
172(13) . . .
165(13) . . .
174(13) . . .
164(13) . . .
168(13) . . .
134(12) . . .
166(13) . . .
164(13) . . .
169(13) . . .
154(12) . . .
142(12) . . .
154(12) . . .
149(12) . . .
193(14) . . .
188(14) . . .
142(12) . . .
166(13) . . .
173(13) . . .
169(13) . . .
178(13) . . .
182(13) . . .
172(13) . . .
163(13) . . .
169(13) . . .
174(13) . . .
168(13) . . .
188(14) . . .
159(13) . . .
166(13) . . .
179(13) . . .
194(14) . . .
184(14) . . .
188(14) . . .
166(13) . . .
191(14) . . .
197(14) . . .
201(14) . . .
184(14) . . .
175(13) . . .
200(14) . . .
197(14) . . .
183(14) . . .
206(14) . . .
202(14) . . .
207(14) . . .
202(14) . . .
165(13) . . .
179(13) . . .
187(14) . . .
184(14) . . .
201(14) . . .
206(14) . . .
221(15) . . .
208(14) . . .
207(14) . . .
196(14) . . .
213(15) . . .
201(14) . . .
204(14) . . .
212(15) . . .
204(14) . . .
202(14) . . .
226(15) . . .
235(15) . . .
224(15) . . .
198(14) . . .
220(15) . . .
236(15) . . .
233(15) . . .
219(15) . . .
222(15) . . .
249(16) . . .
231(15) . . .
239(15) . . .
264(16) . . .
241(16) . . .
262(16) . . .
285(17) . . .
278(17) . . .
273(17) . . .
288(17) . . .
286(17) . . .
303(17) . . .
290(17) . . .
306(17) . . .
282(17) . . .
291(17) . . .
329(18) . . .
333(18) . . .
345(19) . . .
372(19) . . .
400(20) . . .
404(20) . . .
408(20) . . .
394(20) . . .
452(21) . . .
423(21) . . .
446(21) . . .
462(21) . . .
487(22) . . .
503(22) . . .
565(24) . . .
555(24) . . .
602(25) . . .
624(25) . . .
670(26) . . .
713(27) . . .
784(28) . . .
823(29) . . .
869(29) . . .
890(30) . . .
982(31) . . .
1070(33) . . .
1175(34) . . .
1207(35) . . .
1307(36) . . .
1408(38) . . .
1526(39) . . .
1697(41) . . .
1885(43) . . .
1958(44) . . .
2022(45) . . .
2263(48) . . .
2441(49) . . .
2566(51) . . .
2670(52) . . .
2848(53) . . .
2869(54) . . .
3023(55) . . .
3055(55) . . .
3175(56) . . .
3156(56) . . .
3101(56) . . .
3159(56) . . .
3049(55) . . .
3049(55) . . .
2848(53) . . .
2738(52) . . .
2624(51) . . .
2402(49) . . .
2318(48) . . .
2149(46) . . .
2004(45) . . .
1867(43) . . .
1753(42) . . .
1574(40) . . .
1578(40) . . .
1434(38) . . .
1264(36) . . .
1164(34) . . .
1080(33) . . .
1020(32) . . .
896(30) . . .
877(30) . . .
778(28) . . .
766(28) . . .
691(26) . . .
672(26) . . .
585(24) . . .
576(24) . . .
541(23) . . .
562(24) . . .
535(23) . . .
485(22) . . .
471(22) . . .
424(21) . . .
432(21) . . .
399(20) . . .
401(20) . . .
414(20) . . .
368(19) . . .
364(19) . . .
333(18) . . .
326(18) . . .
334(18) . . .
331(18) . . .
305(17) . . .
290(17) . . .
285(17) . . .
304(17) . . .
279(17) . . .
299(17) . . .
280(17) . . .
251(16) . . .
251(16) . . .
251(16) . . .
236(15) . . .
261(16) . . .
227(15) . . .
251(16) . . .
231(15) . . .
221(15) . . .
226(15) . . .
226(15) . . .
208(14) . . .
239(15) . . .
219(15) . . .
231(15) . . .
189(14) . . .
217(15) . . .
212(15) . . .
203(14) . . .
193(14) . . .
208(14) . . .
219(15) . . .
206(14) . . .
214(15) . . .
202(14) . . .
192(14) . . .
190(14) . . .
182(13) . . .
195(14) . . .
182(13) . . .
205(14) . . .
191(14) . . .
182(13) . . .
179(13) . . .
173(13) . . .
158(13) . . .
170(13) . . .
164(13) . . .
153(12) . . .
172(13) . . .
184(14) . . .
192(14) . . .
159(13) . . .
166(13) . . .
164(13) . . .
178(13) . . .
190(14) . . .
178(13) . . .
159(13) . . .
165(13) . . .
192(14) . . .
171(13) . . .
190(14) . . .
183(14) . . .
160(13) . . .
154(12) . . .
168(13) . . .
160(13) . . .
186(14) . . .
179(13) . . .
169(13) . . .
165(13) . . .
154(12) . . .
154(12) . . .
168(13) . . .
161(13) . . .
156(12) . . .
160(13) . . .
154(12) . . .
155(12) . . .
150(12) . . .
160(13) . . .
149(12) . . .
170(13) . . .
161(13) . . .
155(12) . . .
152(12) . . .
182(13) . . .
182(13) . . .
165(13) . . .
144(12) . . .
164(13) . . .
165(13) . . .
132(11) . . .
157(13) . . .
144(12) . . .
138(12) . . .
156(12) . . .
153(12) . . .
145(12) . . .
167(13) . . .
160(13) . . .
150(12) . . .
158(13) . . .
159(13) . . .
152(12) . . .
157(13) . . .
132(11) . . .
154(12) . . .
152(12) . . .
157(13) . . .
158(13) . . .
177(13) . . .
168(13) . . .
138(12) . . .
162(13) . . .
132(11) . . .
156(12) . . .
165(13) . . .
165(13) . . .
137(12) . . .
167(13) . . .
156(12) . . .
176(13) . . .
150(12) . . .
172(13) . . .
166(13) . . .
181(13) . . .
155(12) . . .
142(12) . . .
152(12) . . .
154(12) . . .
137(12) . . .
142(12) . . .
151(12) . . .
140(12) . . .
142(12) . . .
160(13) . . .
164(13) . . .
137(12) . . .
153(12) . . .
137(12) . . .
133(12) . . .
145(12) . . .
151(12) . . .
154(12) . . .
155(12) . . .
155(12) . . .
129(11) . . .
154(12) . . .
162(13) . . .
131(11) . . .
153(12) . . .
136(12) . . .
142(12) . . .
145(12) . . .
161(13) . . .
163(13) . . .
138(12) . . .
148(12) . . .
148(12) . . .
141(12) . . .
140(12) . . .
137(12) . . .
159(13) . . .
143(12) . . .
146(12) . . .
151(12) . . .
154(12) . . .
156(12) . . .
143(12) . . .
140(12) . . .
122(11) . . .
158(13) . . .
154(12) . . .
161(13) . . .
145(12) . . .
154(12) . . .
155(12) . . .
146(12) . . .
154(12) . . .
143(12) . . .
148(12) . . .
141(12) . . .
138(12) . . .
145(12) . . .
152(12) . . .
148(12) . . .
149(12) . . .
146(12) . . .
135(12) . . .
150(12) . . .
146(12) . . .
161(13) . . .
157(13) . . .
177(13) . . .
134(12) . . .
139(12) . . .
150(12) . . .
160(13) . . .
141(12) . . .
140(12) . . .
151(12) . . .
129(11) . . .
159(13) . . .
154(12) . . .
143(12) . . .
141(12) . . .
137(12) . . .
142(12) . . .
136(12) . . .
154(12) . . .
140(12) . . .
145(12) . . .
124(11) . . .
139(12) . . .
150(12) . . .
131(11) . . .
141(12) . . .
137(12) . . .
130(11) . . .
134(12) . . .
147(12) . . .
152(12) . . .
144(12) . . .
125(11) . . .
148(12) . . .
131(11) . . .
134(12) . . .
153(12) . . .
148(12) . . .
175(13) . . .
162(13) . . .
135(12) . . .
144(12) . . .
130(11) . . .
156(12) . . .
146(12) . . .
148(12) . . .
145(12) . . .
135(12) . . .
141(12) . . .
144(12) . . .
134(12) . . .
138(12) . . .
128(11) . . .
145(12) . . .
136(12) . . .
157(13) . . .
146(12) . . .
151(12) . . .
152(12) . . .
150(12) . . .
153(12) . . .
154(12) . . .
134(12) . . .
122(11) . . .
142(12) . . .
158(13) . . .
123(11) . . .
134(12) . . .
156(12) . . .
141(12) . . .
140(12) . . .
143(12) . . .
123(11) . . .
150(12) . . .
146(12) . . .
130(11) . . .
144(12) . . .
161(13) . . .
129(11) . . .
135(12) . . .
141(12) . . .
148(12) . . .
143(12) . . .
139(12) . . .
141(12) . . .
133(12) . . .
144(12) . . .
147(12) . . .
136(12) . . .
137(12) . . .
148(12) . . .
138(12) . . .
156(12) . . .
141(12) . . .
131(11) . . .
136(12) . . .
142(12) . . .
153(12) . . .
145(12) . . .
133(12) . . .
153(12) . . .
133(12) . . .
138(12) . . .
129(11) . . .
139(12) . . .
135(12) . . .
123(11) . . .
138(12) . . .
160(13) . . .
153(12) . . .
134(12) . . .
148(12) . . .
144(12) . . .
141(12) . . .
133(12) . . .
137(12) . . .
150(12) . . .
148(12) . . .
154(12) . . .
137(12) . . .
156(12) . . .
146(12) . . .
143(12) . . .
147(12) . . .
129(11) . . .
156(12) . . .
126(11) . . .
127(11) . . .
125(11) . . .
142(12) . . .
140(12) . . .
143(12) . . .
155(12) . . .
133(12) . . .
130(11) . . .
142(12) . . .
132(11) . . .
138(12) . . .
145(12) . . .
154(12) . . .
127(11) . . .
121(11) . . .
139(12) . . .
123(11) . . .
148(12) . . .
135(12) . . .
138(12) . . .
135(12) . . .
143(12) . . .
142(12) . . .
144(12) . . .
137(12) . . .
134(12) . . .
156(12) . . .
152(12) . . .
159(13) . . .
125(11) . . .
144(12) . . .
136(12) . . .
119(11) . . .
138(12) . . .
130(11) . . .
161(13) . . .
148(12) . . .
117(11) . . .
124(11) . . .
116(11) . . .
121(11) . . .
122(11) . . .
129(11) . . .
136(12) . . .
142(12) . . .
125(11) . . .
143(12) . . .
142(12) . . .
135(12) . . .
126(11) . . .
137(12) . . .
143(12) . . .
120(11) . . .
141(12) . . .
138(12) . . .
132(11) . . .
155(12) . . .
137(12) . . .
146(12) . . .
129(11) . . .
138(12) . . .
130(11) . . .
131(11) . . .
126(11) . . .
138(12) . . .
137(12) . . .
144(12) . . .
131(11) . . .
132(11) . . .
145(12) . . .
134(12) . . .
141(12) . . .
139(12) . . .
142(12) . . .
147(12) . . .
147(12) . . .
141(12) . . .
141(12) . . .
130(11) . . .
141(12) . . .
139(12) . . .
132(11) . . .
137(12) . . .
126(11) . . .
131(11) . . .
148(12) . . .
130(11) . . .
122(11) . . .
142(12) . . .
140(12) . . .
120(11) . . .
133(12) . . .
139(12) . . .
127(11) . . .
125(11) . . .
136(12) . . .
135(12) . . .
136(12) . . .
145(12) . . .
125(11) . . .
137(12) . . .
138(12) . . .
136(12) . . .
128(11) . . .
120(11) . . .
146(12) . . .
129(11) . . .
127(11) . . .
119(11) . . .
124(11) . . .
134(12) . . .
139(12) . . .
123(11) . . .
134(12) . . .
146(12) . . .
135(12) . . .
130(11) . . .
119(11) . . .
136(12) . . .
136(12) . . .
131(11) . . .
133(12) . . .
139(12) . . .
134(12) . . .
132(11) . . .
118(11) . . .
117(11) . . .
147(12) . . .
128(11) . . .
124(11) . . .
130(11) . . .
137(12) . . .
131(11) . . .
127(11) . . .
143(12) . . .
137(12) . . .
149(12) . . .
130(11) . . .
116(11) . . .
137(12) . . .
130(11) . . .
127(11) . . .
141(12) . . .
140(12) . . .
131(11) . . .
105(10) . . .
125(11) . . .
130(11) . . .
139(12) . . .
129(11) . . .
137(12) . . .
137(12) . . .
130(11) . . .
138(12) . . .
117(11) . . .
131(11) . . .
121(11) . . .
119(11) . . .
129(11) . . .
132(11) . . .
132(11) . . .
128(11) . . .
151(12) . . .
129(11) . . .
134(12) . . .
136(12) . . .
138(12) . . .
133(12) . . .
130(11) . . .
124(11) . . .
147(12) . . .
138(12) . . .
138(12) . . .
133(12) . . .
125(11) . . .
119(11) . . .
121(11) . . .
128(11) . . .
122(11) . . .
132(11) . . .
132(11) . . .
130(11) . . .
151(12) . . .
127(11) . . .
144(12) . . .
140(12) . . .
142(12) . . .
120(11) . . .
132(11) . . .
144(12) . . .
139(12) . . .
138(12) . . .
136(12) . . .
126(11) . . .
130(11) . . .
122(11) . . .
112(11) . . .
132(11) . . .
122(11) . . .
132(11) . . .
144(12) . . .
129(11) . . .
129(11) . . .
141(12) . . .
127(11) . . .
137(12) . . .
129(11) . . .
132(11) . . .
140(12) . . .
122(11) . . .
112(11) . . .
128(11) . . .
123(11) . . .
123(11) . . .
113(11) . . .
135(12) . . .
119(11) . . .
131(11) . . .
127(11) . . .
130(11) . . .
115(11) . . .
151(12) . . .
131(11) . . .
123(11) . . .
136(12) . . .
132(11) . . .
138(12) . . .
152(12) . . .
113(11) . . .
132(11) . . .
131(11) . . .
128(11) . . .
132(11) . . .
135(12) . . .
131(11) . . .
149(12) . . .
132(11) . . .
139(12) . . .
137(12) . . .
136(12) . . .
120(11) . . .
134(12) . . .
121(11) . . .
132(11) . . .
138(12) . . .
136(12) . . .
127(11) . . .
142(12) . . .
127(11) . . .
125(11) . . .
131(11) . . .
124(11) . . .
142(12) . . .
119(11) . . .
130(11) . . .
124(11) . . .
136(12) . . .
143(12) . . .
126(11) . . .
124(11) . . .
137(12) . . .
140(12) . . .
137(12) . . .
119(11) . . .
113(11) . . .
131(11) . . .
113(11) . . .
137(12) . . .
137(12) . . .
120(11) . . .
151(12) . . .
116(11) . . .
135(12) . . .
128(11) . . .
152(12) . . .
141(12) . . .
128(11) . . .
132(11) . . .
121(11) . . .
111(11) . . .
142(12) . . .
134(12) . . .
139(12) . . .
124(11) . . .
139(12) . . .
115(11) . . .
129(11) . . .
120(11) . . .
141(12) . . .
130(11) . . .
126(11) . . .
123(11) . . .
107(10) . . .
123(11) . . .
120(11) . . .
132(11) . . .
137(12) . . .
136(12) . . .
132(11) . . .
131(11) . . .
118(11) . . .
130(11) . . .
130(11) . . .
132(11) . . .
124(11) . . .
131(11) . . .
133(12) . . .
126(11) . . .
130(11) . . .
119(11) . . .
129(11) . . .
143(12) . . .
138(12) . . .
129(11) . . .
143(12) . . .
127(11) . . .
127(11) . . .
123(11) . . .
143(12) . . .
117(11) . . .
118(11) . . .
131(11) . . .
134(12) . . .
131(11) . . .
135(12) . . .
124(11) . . .
130(11) . . .
132(11) . . .
133(12) . . .
122(11) . . .
125(11) . . .
128(11) . . .
125(11) . . .
123(11) . . .
128(11) . . .
129(11) . . .
136(12) . . .
123(11) . . .
126(11) . . .
125(11) . . .
114(11) . . .
130(11) . . .
134(12) . . .
132(11) . . .
139(12) . . .
142(12) . . .
132(11) . . .
122(11) . . .
129(11) . . .
142(12) . . .
138(12) . . .
133(12) . . .
132(11) . . .
133(12) . . .
119(11) . . .
129(11) . . .
157(13) . . .
116(11) . . .
133(12) . . .
130(11) . . .
129(11) . . .
125(11) . . .
110(10) . . .
127(11) . . .
125(11) . . .
123(11) . . .
138(12) . . .
116(11) . . .
102(10) . . .
108(10) . . .
124(11) . . .
124(11) . . .
123(11) . . .
130(11) . . .
125(11) . . .
128(11) . . .
143(12) . . .
130(11) . . .
141(12) . . .
139(12) . . .
123(11) . . .
111(11) . . .
127(11) . . .
128(11) . . .
136(12) . . .
142(12) . . .
123(11) . . .
120(11) . . .
131(11) . . .
134(12) . . .
127(11) . . .
130(11) . . .
131(11) . . .
129(11) . . .
127(11) . . .
141(12) . . .
148(12) . . .
129(11) . . .
133(12) . . .
146(12) . . .
141(12) . . .
140(12) . . .
121(11) . . .
125(11) . . .
115(11) . . .
141(12) . . .
134(12) . . .
144(12) . . .
125(11) . . .
123(11) . . .
121(11) . . .
130(11) . . .
109(10) . . .
119(11) . . .
120(11) . . .
144(12) . . .
114(11) . . .
126(11) . . .
130(11) . . .
129(11) . . .
124(11) . . .
120(11) . . .
115(11) . . .
134(12) . . .
127(11) . . .
129(11) . . .
133(12) . . .
122(11) . . .
127(11) . . .
119(11) . . .
116(11) . . .
121(11) . . .
144(12) . . .
125(11) . . .
130(11) . . .
135(12) . . .
145(12) . . .
139(12) . . .
120(11) . . .
134(12) . . .
131(11) . . .
132(11) . . .
139(12) . . .
123(11) . . .
116(11) . . .
136(12) . . .
144(12) . . .
137(12) . . .
136(12) . . .
126(11) . . .
131(11) . . .
133(12) . . .
139(12) . . .
112(11) . . .
119(11) . . .
129(11) . . .
123(11) . . .
123(11) . . .
121(11) . . .
136(12) . . .
139(12) . . .
116(11) . . .
113(11) . . .
116(11) . . .
133(12) . . .
125(11) . . .
131(11) . . .
124(11) . . .
132(11) . . .
126(11) . . .
126(11) . . .
118(11) . . .
114(11) . . .
141(12) . . .
132(11) . . .
99(10) . . .
123(11) . . .
128(11) . . .
113(11) . . .
154(12) . . .
128(11) . . .
141(12) . . .
139(12) . . .
119(11) . . .
125(11) . . .
130(11) . . .
116(11) . . .
138(12) . . .
100(10) . . .
130(11) . . .
136(12) . . .
130(11) . . .
123(11) . . .
121(11) . . .
119(11) . . .
136(12) . . .
138(12) . . .
145(12) . . .
125(11) . . .
127(11) . . .
139(12) . . .
107(10) . . .
115(11) . . .
120(11) . . .
117(11) . . .
139(12) . . .
131(11) . . .
111(11) . . .
121(11) . . .
138(12) . . .
133(12) . . .
142(12) . . .
125(11) . . .
125(11) . . .
125(11) . . .
136(12) . . .
114(11) . . .
140(12) . . .
134(12) . . .
135(12) . . .
133(12) . . .
116(11) . . .
113(11) . . .
122(11) . . .
136(12) . . .
120(11) . . .
134(12) . . .
142(12) . . .
132(11) . . .
118(11) . . .
136(12) . . .
123(11) . . .
136(12) . . .
112(11) . . .
118(11) . . .
122(11) . . .
137(12) . . .
124(11) . . .
139(12) . . .
126(11) . . .
123(11) . . .
132(11) . . .
133(12) . . .
116(11) . . .
138(12) . . .
144(12) . . .
124(11) . . .
132(11) . . .
133(12) . . .
130(11) . . .
114(11) . . .
133(12) . . .
131(11) . . .
132(11) . . .
117(11) . . .
141(12) . . .
115(11) . . .
132(11) . . .
126(11) . . .
120(11) . . .
131(11) . . .
126(11) . . .
136(12) . . .
138(12) . . .
132(11) . . .
142(12) . . .
131(11) . . .
137(12) . . .
117(11) . . .
140(12) . . .
117(11) . . .
140(12) . . .
126(11) . . .
119(11) . . .
125(11) . . .
118(11) . . .
130(11) . . .
115(11) . . .
128(11) . . .
132(11) . . .
141(12) . . .
131(11) . . .
118(11) . . .
134(12) . . .
119(11) . . .
138(12) . . .
121(11) . . .
109(10) . . .
125(11) . . .
108(10) . . .
129(11) . . .
151(12) . . .
129(11) . . .
136(12) . . .
118(11) . . .
108(10) . . .
120(11) . . .
113(11) . . .
121(11) . . .
139(12) . . .
125(11) . . .
126(11) . . .
112(11) . . .
125(11) . . .
121(11) . . .
135(12) . . .
129(11) . . .
122(11) . . .
146(12) . . .
126(11) . . .
131(11) . . .
110(10) . . .
144(12) . . .
130(11) . . .
124(11) . . .
148(12) . . .
134(12) . . .
125(11) . . .
114(11) . . .
127(11) . . .
130(11) . . .
118(11) . . .
126(11) . . .
128(11) . . .
133(12) . . .
139(12) . . .
122(11) . . .
151(12) . . .
137(12) . . .
135(12) . . .
117(11) . . .
130(11) . . .
120(11) . . .
120(11) . . .
118(11) . . .
120(11) . . .
136(12) . . .
133(12) . . .
107(10) . . .
127(11) . . .
116(11) . . .
119(11) . . .
134(12) . . .
123(11) . . .
136(12) . . .
123(11) . . .
133(12) . . .
138(12) . . .
129(11) . . .
120(11) . . .
121(11) . . .
135(12) . . .
131(11) . . .
123(11) . . .
126(11) . . .
137(12) . . .
116(11) . . .
124(11) . . .
133(12) . . .
132(11) . . .
112(11) . . .
115(11) . . .
116(11) . . .
138(12) . . .
148(12) . . .
140(12) . . .
113(11) . . .
110(10) . . .
130(11) . . .
140(12) . . .
119(11) . . .
118(11) . . .
116(11) . . .
115(11) . . .
114(11) . . .
123(11) . . .
121(11) . . .
137(12) . . .
130(11) . . .
131(11) . . .
130(11) . . .
140(12) . . .
126(11) . . .
127(11) . . .
142(12) . . .
126(11) . . .
139(12) . . .
111(11) . . .
122(11) . . .
132(11) . . .
134(12) . . .
124(11) . . .
138(12) . . .
111(11) . . .
129(11) . . .
120(11) . . .
126(11) . . .
116(11) . . .
135(12) . . .
117(11) . . .
103(10) . . .
115(11) . . .
127(11) . . .
131(11) . . .
106(10) . . .
132(11) . . .
131(11) . . .
131(11) . . .
132(11) . . .
131(11) . . .
119(11) . . .
125(11) . . .
120(11) . . .
115(11) . . .
113(11) . . .
148(12) . . .
118(11) . . .
119(11) . . .
116(11) . . .
131(11) . . .
115(11) . . .
114(11) . . .
125(11) . . .
138(12) . . .
121(11) . . .
138(12) . . .
122(11) . . .
124(11) . . .
126(11) . . .
127(11) . . .
118(11) . . .
109(10) . . .
129(11) . . .
122(11) . . .
110(10) . . .
117(11) . . .
118(11) . . .
122(11) . . .
112(11) . . .
117(11) . . .
119(11) . . .
119(11) . . .
137(12) . . .
124(11) . . .
129(11) . . .
144(12) . . .
138(12) . . .
107(10) . . .
126(11) . . .
125(11) . . .
132(11) . . .
147(12) . . .
125(11) . . .
123(11) . . .
117(11) . . .
115(11) . . .
128(11) . . .
128(11) . . .
136(12) . . .
131(11) . . .
128(11) . . .
143(12) . . .
122(11) . . .
125(11) . . .
126(11) . . .
130(11) . . .
113(11) . . .
121(11) . . .
130(11) . . .
108(10) . . .
118(11) . . .
129(11) . . .
124(11) . . .
135(12) . . .
126(11) . . .
121(11) . . .
113(11) . . .
119(11) . . .
122(11) . . .
100(10) . . .
131(11) . . .
116(11) . . .
133(12) . . .
130(11) . . .
130(11) . . .
132(11) . . .
117(11) . . .
124(11) . . .
140(12) . . .
129(11) . . .
122(11) . . .
125(11) . . .
114(11) . . .
142(12) . . .
115(11) . . .
124(11) . . .
142(12) . . .
120(11) . . .
121(11) . . .
112(11) . . .
124(11) . . .
125(11) . . .
122(11) . . .
123(11) . . .
113(11) . . .
123(11) . . .
134(12) . . .
118(11) . . .
127(11) . . .
128(11) . . .
125(11) . . .
132(11) . . .
118(11) . . .
119(11) . . .
116(11) . . .
119(11) . . .
121(11) . . .
126(11) . . .
132(11) . . .
129(11) . . .
128(11) . . .
122(11) . . .
122(11) . . .
131(11) . . .
135(12) . . .
143(12) . . .
122(11) . . .
117(11) . . .
107(10) . . .
128(11) . . .
127(11) . . .
125(11) . . .
126(11) . . .
129(11) . . .
128(11) . . .
130(11) . . .
131(11) . . .
137(12) . . .
119(11) . . .
135(12) . . .
115(11) . . .
102(10) . . .
130(11) . . .
125(11) . . .
123(11) . . .
116(11) . . .
99(10) . . .
126(11) . . .
129(11) . . .
127(11) . . .
121(11) . . .
119(11) . . .
122(11) . . .
119(11) . . .
137(12) . . .
112(11) . . .
117(11) . . .
105(10) . . .
123(11) . . .
121(11) . . .
107(10) . . .
139(12) . . .
123(11) . . .
125(11) . . .
132(11) . . .
128(11) . . .
123(11) . . .
115(11) . . .
123(11) . . .
123(11) . . .
119(11) . . .
133(12) . . .
118(11) . . .
130(11) . . .
148(12) . . .
119(11) . . .
102(10) . . .
113(11) . . .
125(11) . . .
111(11) . . .
105(10) . . .
114(11) . . .
109(10) . . .
141(12) . . .
131(11) . . .
103(10) . . .
143(12) . . .
131(11) . . .
117(11) . . .
114(11) . . .
120(11) . . .
137(12) . . .
121(11) . . .
121(11) . . .
122(11) . . .
114(11) . . .
136(12) . . .
139(12) . . .
131(11) . . .
125(11) . . .
115(11) . . .
115(11) . . .
131(11) . . .
121(11) . . .
122(11) . . .
142(12) . . .
133(12) . . .
128(11) . . .
118(11) . . .
143(12) . . .
131(11) . . .
123(11) . . .
125(11) . . .
113(11) . . .
114(11) . . .
117(11) . . .
123(11) . . .
122(11) . . .
112(11) . . .
104(10) . . .
110(10) . . .
120(11) . . .
136(12) . . .
127(11) . . .
121(11) . . .
121(11) . . .
133(12) . . .
120(11) . . .
121(11) . . .
136(12) . . .
116(11) . . .
104(10) . . .
112(11) . . .
119(11) . . .
127(11) . . .
118(11) . . .
122(11) . . .
137(12) . . .
114(11) . . .
122(11) . . .
127(11) . . .
122(11) . . .
124(11) . . .
123(11) . . .
122(11) . . .
122(11) . . .
113(11) . . .
107(10) . . .
130(11) . . .
118(11) . . .
130(11) . . .
128(11) . . .
122(11) . . .
120(11) . . .
136(12) . . .
109(10) . . .
114(11) . . .
125(11) . . .
134(12) . . .
142(12) . . .
118(11) . . .
116(11) . . .
119(11) . . .
124(11) . . .
123(11) . . .
121(11) . . .
133(12) . . .
144(12) . . .
110(10) . . .
100(10) . . .
105(10) . . .
122(11) . . .
132(11) . . .
122(11) . . .
127(11) . . .
130(11) . . .
130(11) . . .
128(11) . . .
101(10) . . .
119(11) . . .
146(12) . . .
127(11) . . .
138(12) . . .
125(11) . . .
136(12) . . .
99(10) . . .
105(10) . . .
121(11) . . .
120(11) . . .
116(11) . . .
127(11) . . .
122(11) . . .
117(11) . . .
152(12) . . .
118(11) . . .
130(11) . . .
136(12) . . .
140(12) . . .
115(11) . . .
116(11) . . .
119(11) . . .
125(11) . . .
115(11) . . .
129(11) . . .
129(11) . . .
120(11) . . .
121(11) . . .
131(11) . . .
127(11) . . .
128(11) . . .
143(12) . . .
145(12) . . .
131(11) . . .
132(11) . . .
118(11) . . .
119(11) . . .
126(11) . . .
132(11) . . .
127(11) . . .
101(10) . . .
118(11) . . .
125(11) . . .
125(11) . . .
139(12) . . .
125(11) . . .
121(11) . . .
130(11) . . .
110(10) . . .
122(11) . . .
125(11) . . .
129(11) . . .
129(11) . . .
132(11) . . .
117(11) . . .
132(11) . . .
120(11) . . .
142(12) . . .
117(11) . . .
100(10) . . .
142(12) . . .
123(11) . . .
132(11) . . .
125(11) . . .
132(11) . . .
130(11) . . .
126(11) . . .
136(12) . . .
128(11) . . .
126(11) . . .
123(11) . . .
124(11) . . .
149(12) . . .
127(11) . . .
123(11) . . .
132(11) . . .
147(12) . . .
125(11) . . .
108(10) . . .
119(11) . . .
128(11) . . .
134(12) . . .
145(12) . . .
124(11) . . .
131(11) . . .
134(12) . . .
130(11) . . .
135(12) . . .
121(11) . . .
106(10) . . .
151(12) . . .
120(11) . . .
110(10) . . .
133(12) . . .
116(11) . . .
122(11) . . .
131(11) . . .
155(12) . . .
117(11) . . .
124(11) . . .
123(11) . . .
123(11) . . .
126(11) . . .
120(11) . . .
126(11) . . .
143(12) . . .
129(11) . . .
128(11) . . .
111(11) . . .
123(11) . . .
138(12) . . .
156(12) . . .
117(11) . . .
124(11) . . .
122(11) . . .
116(11) . . .
137(12) . . .
122(11) . . .
133(12) . . .
115(11) . . .
134(12) . . .
156(12) . . .
134(12) . . .
101(10) . . .
128(11) . . .
134(12) . . .
141(12) . . .
128(11) . . .
129(11) . . .
113(11) . . .
128(11) . . .
146(12) . . .
128(11) . . .
132(11) . . .
132(11) . . .
129(11) . . .
127(11) . . .
136(12) . . .
128(11) . . .
142(12) . . .
117(11) . . .
124(11) . . .
131(11) . . .
138(12) . . .
129(11) . . .
111(11) . . .
121(11) . . .
128(11) . . .
114(11) . . .
120(11) . . .
151(12) . . .
116(11) . . .
143(12) . . .
146(12) . . .
133(12) . . .
121(11) . . .
141(12) . . .
137(12) . . .
128(11) . . .
130(11) . . .
107(10) . . .
148(12) . . .
154(12) . . .
135(12) . . .
133(12) . . .
148(12) . . .
140(12) . . .
146(12) . . .
128(11) . . .
139(12) . . .
124(11) . . .
136(12) . . .
145(12) . . .
135(12) . . .
142(12) . . .
152(12) . . .
141(12) . . .
127(11) . . .
144(12) . . .
148(12) . . .
143(12) . . .
153(12) . . .
170(13) . . .
158(13) . . .
158(13) . . .
163(13) . . .
161(13) . . .
140(12) . . .
153(12) . . .
159(13) . . .
169(13) . . .
155(12) . . .
179(13) . . .
165(13) . . .
160(13) . . .
188(14) . . .
186(14) . . .
188(14) . . .
164(13) . . .
193(14) . . .
191(14) . . .
194(14) . . .
189(14) . . .
184(14) . . .
179(13) . . .
206(14) . . .
243(16) . . .
225(15) . . .
222(15) . . .
239(15) . . .
243(16) . . .
243(16) . . .
294(17) . . .
291(17) . . .
280(17) . . .
290(17) . . .
277(17) . . .
348(19) . . .
392(20) . . .
395(20) . . .
384(20) . . .
403(20) . . .
384(20) . . .
459(21) . . .
481(22) . . .
455(21) . . .
521(23) . . .
505(22) . . .
535(23) . . .
528(23) . . .
552(23) . . .
596(24) . . .
576(24) . . .
601(25) . . .
604(25) . . .
632(25) . . .
612(25) . . .
583(24) . . .
579(24) . . .
582(24) . . .
592(24) . . .
555(24) . . .
531(23) . . .
502(22) . . .
499(22) . . .
452(21) . . .
441(21) . . .
389(20) . . .
371(19) . . .
365(19) . . .
347(19) . . .
338(18) . . .
318(18) . . .
312(18) . . .
302(17) . . .
257(16) . . .
277(17) . . .
256(16) . . .
227(15) . . .
249(16) . . .
240(15) . . .
221(15) . . .
195(14) . . .
207(14) . . .
190(14) . . .
218(15) . . .
192(14) . . .
177(13) . . .
190(14) . . .
206(14) . . .
183(14) . . .
172(13) . . .
168(13) . . .
182(13) . . .
173(13) . . .
148(12) . . .
188(14) . . .
168(13) . . .
158(13) . . .
163(13) . . .
160(13) . . .
162(13) . . .
162(13) . . .
143(12) . . .
143(12) . . .
154(12) . . .
139(12) . . .
142(12) . . .
127(11) . . .
141(12) . . .
151(12) . . .
153(12) . . .
137(12) . . .
138(12) . . .
134(12) . . .
131(11) . . .
150(12) . . .
140(12) . . .
148(12) . . .
133(12) . . .
128(11) . . .
133(12) . . .
140(12) . . .
146(12) . . .
131(11) . . .
144(12) . . .
142(12) . . .
116(11) . . .
132(11) . . .
113(11) . . .
131(11) . . .
150(12) . . .
122(11) . . .
135(12) . . .
128(11) . . .
125(11) . . .
133(12) . . .
130(11) . . .
100(10) . . .
125(11) . . .
115(11) . . .
109(10) . . .
99(10) . . .
135(12) . . .
114(11) . . .
124(11) . . .
127(11) . . .
141(12) . . .
127(11) . . .
143(12) . . .
133(12) . . .
119(11) . . .
117(11) . . .
130(11) . . .
137(12) . . .
148(12) . . .
127(11) . . .
123(11) . . .
124(11) . . .
108(10) . . .
127(11) . . .
124(11) . . .
119(11) . . .
134(12) . . .
122(11) . . .
122(11) . . .
104(10) . . .
117(11) . . .
125(11) . . .
140(12) . . .
146(12) . . .
119(11) . . .
131(11) . . .
128(11) . . .
121(11) . . .
130(11) . . .
124(11) . . .
123(11) . . .
118(11) . . .
135(12) . . .
107(10) . . .
104(10) . . .
137(12) . . .
110(10) . . .
106(10) . . .
115(11) . . .
122(11) . . .
123(11) . . .
116(11) . . .
121(11) . . .
114(11) . . .
108(10) . . .
120(11) . . .
100(10) . . .
123(11) . . .
124(11) . . .
140(12) . . .
134(12) . . .
108(10) . . .
129(11) . . .
120(11) . . .
117(11) . . .
122(11) . . .
117(11) . . .
132(11) . . .
115(11) . . .
128(11) . . .
127(11) . . .
129(11) . . .
112(11) . . .
130(11) . . .
141(12) . . .
114(11) . . .
120(11) . . .
127(11) . . .
132(11) . . .
130(11) . . .
106(10) . . .
122(11) . . .
108(10) . . .
116(11) . . .
122(11) . . .
120(11) . . .
106(10) . . .
130(11) . . .
116(11) . . .
136(12) . . .
116(11) . . .
120(11) . . .
117(11) . . .
121(11) . . .
102(10) . . .
118(11) . . .
111(11) . . .
124(11) . . .
129(11) . . .
120(11) . . .
139(12) . . .
121(11) . . .
124(11) . . .
119(11) . . .
123(11) . . .
114(11) . . .
117(11) . . .
115(11) . . .
125(11) . . .
123(11) . . .
117(11) . . .
123(11) . . .
122(11) . . .
129(11) . . .
106(10) . . .
136(12) . . .
132(11) . . .
134(12) . . .
105(10) . . .
115(11) . . .
109(10) . . .
128(11) . . .
131(11) . . .
131(11) . . .
120(11) . . .
127(11) . . .
131(11) . . .
133(12) . . .
129(11) . . .
131(11) . . .
128(11) . . .
115(11) . . .
115(11) . . .
116(11) . . .
122(11) . . .
149(12) . . .
123(11) . . .
123(11) . . .
112(11) . . .
137(12) . . .
115(11) . . .
123(11) . . .
116(11) . . .
114(11) . . .
120(11) . . .
129(11) . . .
127(11) . . .
120(11) . . .
109(10) . . .
105(10) . . .
128(11) . . .
124(11) . . .
123(11) . . .
126(11) . . .
117(11) . . .
143(12) . . .
120(11) . . .
132(11) . . .
122(11) . . .
107(10) . . .
129(11) . . .
126(11) . . .
118(11) . . .
155(12) . . .
126(11) . . .
119(11) . . .
137(12) . . .
131(11) . . .
104(10) . . .
123(11) . . .
137(12) . . .
121(11) . . .
128(11) . . .
120(11) . . .
114(11) . . .
138(12) . . .
126(11) . . .
120(11) . . .
118(11) . . .
132(11) . . .
122(11) . . .
126(11) . . .
116(11) . . .
126(11) . . .
124(11) . . .
128(11) . . .
116(11) . . .
148(12) . . .
119(11) . . .
148(12) . . .
139(12) . . .
115(11) . . .
116(11) . . .
133(12) . . .
132(11) . . .
127(11) . . .
116(11) . . .
113(11) . . .
116(11) . . .
123(11) . . .
112(11) . . .
119(11) . . .
120(11) . . .
114(11) . . .
126(11) . . .
123(11) . . .
119(11) . . .
134(12) . . .
140(12) . . .
114(11) . . .
120(11) . . .
115(11) . . .
136(12) . . .
121(11) . . .
116(11) . . .
112(11) . . .
103(10) . . .
111(11) . . .
131(11) . . .
124(11) . . .
125(11) . . .
132(11) . . .
141(12) . . .
122(11) . . .
112(11) . . .
129(11) . . .
128(11) . . .
114(11) . . .
121(11) . . .
116(11) . . .
128(11) . . .
133(12) . . .
119(11) . . .
124(11) . . .
130(11) . . .
131(11) . . .
129(11) . . .
127(11) . . .
120(11) . . .
125(11) . . .
124(11) . . .
116(11) . . .
133(12) . . .
126(11) . . .
114(11) . . .
110(10) . . .
125(11) . . .
123(11) . . .
110(10) . . .
129(11) . . .
126(11) . . .
116(11) . . .
116(11) . . .
119(11) . . .
99(10) . . .
120(11) . . .
111(11) . . .
125(11) . . .
116(11) . . .
115(11) . . .
119(11) . . .
104(10) . . .
123(11) . . .
129(11) . . .
125(11) . . .
109(10) . . .
110(10) . . .
133(12) . . .
112(11) . . .
116(11) . . .
120(11) . . .
126(11) . . .
105(10) . . .
117(11) . . .
108(10) . . .
125(11) . . .
122(11) . . .
131(11) . . .
130(11) . . .
133(12) . . .
124(11) . . .
124(11) . . .
117(11) . . .
133(12) . . .
144(12) . . .
133(12) . . .
128(11) . . .
125(11) . . .
125(11) . . .
115(11) . . .
135(12) . . .
147(12) . . .
138(12) . . .
112(11) . . .
128(11) . . .
130(11) . . .
134(12) . . .
121(11) . . .
135(12) . . .
127(11) . . .
115(11) . . .
124(11) . . .
134(12) . . .
119(11) . . .
121(11) . . .
109(10) . . .
114(11) . . .
121(11) . . .
127(11) . . .
124(11) . . .
107(10) . . .
115(11) . . .
122(11) . . .
121(11) . . .
117(11) . . .
117(11) . . .
110(10) . . .
99(10) . . .
124(11) . . .
128(11) . . .
121(11) . . .
112(11) . . .
114(11) . . .
125(11) . . .
111(11) . . .
119(11) . . .
119(11) . . .
109(10) . . .
116(11) . . .
125(11) . . .
130(11) . . .
106(10) . . .
110(10) . . .
113(11) . . .
131(11) . . .
104(10) . . .
118(11) . . .
130(11) . . .
111(11) . . .
123(11) . . .
129(11) . . .
125(11) . . .
128(11) . . .
122(11) . . .
132(11) . . .
127(11) . . .
124(11) . . .
105(10) . . .
126(11) . . .
123(11) . . .
120(11) . . .
121(11) . . .
128(11) . . .
119(11) . . .
131(11) . . .
124(11) . . .
104(10) . . .
129(11) . . .
109(10) . . .
110(10) . . .
110(10) . . .
115(11) . . .
126(11) . . .
114(11) . . .
117(11) . . .
118(11) . . .
134(12) . . .
122(11) . . .
113(11) . . .
134(12) . . .
128(11) . . .
120(11) . . .
123(11) . . .
130(11) . . .
149(12) . . .
134(12) . . .
129(11) . . .
110(10) . . .
119(11) . . .
127(11) . . .
108(10) . . .
135(12) . . .
118(11) . . .
116(11) . . .
120(11) . . .
132(11) . . .
118(11) . . .
123(11) . . .
123(11) . . .
114(11) . . .
121(11) . . .
121(11) . . .
126(11) . . .
116(11) . . .
133(12) . . .
119(11) . . .
136(12) . . .
140(12) . . .
135(12) . . .
120(11) . . .
126(11) . . .
123(11) . . .
112(11) . . .
121(11) . . .
133(12) . . .
125(11) . . .
122(11) . . .
131(11) . . .
134(12) . . .
119(11) . . .
112(11) . . .
114(11) . . .
107(10) . . .
110(10) . . .
127(11) . . .
120(11) . . .
101(10) . . .
102(10) . . .
117(11) . . .
121(11) . . .
128(11) . . .
101(10) . . .
123(11) . . .
120(11) . . .
117(11) . . .
113(11) . . .
121(11) . . .
111(11) . . .
126(11) . . .
108(10) . . .
116(11) . . .
115(11) . . .
113(11) . . .
130(11) . . .
110(10) . . .
131(11) . . .
128(11) . . .
128(11) . . .
110(10) . . .
127(11) . . .
112(11) . . .
132(11) . . .
121(11) . . .
102(10) . . .
116(11) . . .
130(11) . . .
125(11) . . .
123(11) . . .
112(11) . . .
121(11) . . .
120(11) . . .
115(11) . . .
129(11) . . .
123(11) . . .
110(10) . . .
112(11) . . .
120(11) . . .
102(10) . . .
123(11) . . .
131(11) . . .
132(11) . . .
129(11) . . .
112(11) . . .
112(11) . . .
135(12) . . .
119(11) . . .
109(10) . . .
113(11) . . .
112(11) . . .
121(11) . . .
117(11) . . .
125(11) . . .
107(10) . . .
124(11) . . .
131(11) . . .
100(10) . . .
137(12) . . .
127(11) . . .
133(12) . . .
106(10) . . .
117(11) . . .
131(11) . . .
106(10) . . .
128(11) . . .
118(11) . . .
120(11) . . .
129(11) . . .
119(11) . . .
126(11) . . .
123(11) . . .
124(11) . . .
118(11) . . .
126(11) . . .
153(12) . . .
118(11) . . .
121(11) . . .
117(11) . . .
115(11) . . .
104(10) . . .
126(11) . . .
124(11) . . .
124(11) . . .
107(10) . . .
117(11) . . .
108(10) . . .
121(11) . . .
118(11) . . .
146(12) . . .
120(11) . . .
130(11) . . .
101(10) . . .
130(11) . . .
129(11) . . .
110(10) . . .
113(11) . . .
118(11) . . .
115(11) . . .
128(11) . . .
123(11) . . .
115(11) . . .
122(11) . . .
125(11) . . .
118(11) . . .
111(11) . . .
118(11) . . .
121(11) . . .
131(11) . . .
107(10) . . .
112(11) . . .
128(11) . . .
114(11) . . .
127(11) . . .
117(11) . . .
114(11) . . .
119(11) . . .
107(10) . . .
129(11) . . .
111(11) . . .
105(10) . . .
123(11) . . .
114(11) . . .
114(11) . . .
115(11) . . .
118(11) . . .
119(11) . . .
115(11) . . .
124(11) . . .
128(11) . . .
132(11) . . .
121(11) . . .
116(11) . . .
128(11) . . .
99(10) . . .
112(11) . . .
120(11) . . .
136(12) . . .
124(11) . . .
126(11) . . .
119(11) . . .
104(10) . . .
111(11) . . .
129(11) . . .
144(12) . . .
109(10) . . .
123(11) . . .
110(10) . . .
128(11) . . .
107(10) . . .
117(11) . . .
109(10) . . .
134(12) . . .
122(11) . . .
106(10) . . .
139(12) . . .
136(12) . . .
124(11) . . .
103(10) . . .
109(10) . . .
121(11) . . .
132(11) . . .
116(11) . . .
118(11) . . .
130(11) . . .
124(11) . . .
124(11) . . .
119(11) . . .
122(11) . . .
126(11) . . .
122(11) . . .
149(12) . . .
118(11) . . .
114(11) . . .
136(12) . . .
123(11) . . .
123(11) . . .
136(12) . . .
116(11) . . .
132(11) . . .
115(11) . . .
130(11) . . .
116(11) . . .
121(11) . . .
121(11) . . .
115(11) . . .
111(11) . . .
108(10) . . .
125(11) . . .
101(10) . . .
122(11) . . .
125(11) . . .
139(12) . . .
118(11) . . .
134(12) . . .
131(11) . . .
125(11) . . .
125(11) . . .
130(11) . . .
120(11) . . .
130(11) . . .
139(12) . . .
116(11) . . .
122(11) . . .
118(11) . . .
121(11) . . .
119(11) . . .
119(11) . . .
128(11) . . .
133(12) . . .
123(11) . . .
121(11) . . .
112(11) . . .
125(11) . . .
107(10) . . .
130(11) . . .
116(11) . . .
120(11) . . .
124(11) . . .
121(11) . . .
110(10) . . .
131(11) . . .
114(11) . . .
134(12) . . .
119(11) . . .
116(11) . . .
125(11) . . .
108(10) . . .
119(11) . . .
100(10) . . .
120(11) . . .
103(10) . . .
121(11) . . .
127(11) . . .
119(11) . . .
118(11) . . .
118(11) . . .
126(11) . . .
119(11) . . .
128(11) . . .
121(11) . . .
131(11) . . .
135(12) . . .
127(11) . . .
100(10) . . .
118(11) . . .
126(11) . . .
107(10) . . .
133(12) . . .
124(11) . . .
128(11) . . .
135(12) . . .
126(11) . . .
103(10) . . .
113(11) . . .
107(10) . . .
120(11) . . .
121(11) . . .
127(11) . . .
129(11) . . .
114(11) . . .
121(11) . . .
130(11) . . .
123(11) . . .
124(11) . . .
119(11) . . .
110(10) . . .
125(11) . . .
109(10) . . .
104(10) . . .
116(11) . . .
123(11) . . .
119(11) . . .
127(11) . . .
126(11) . . .
136(12) . . .
135(12) . . .
129(11) . . .
126(11) . . .
124(11) . . .
108(10) . . .
111(11) . . .
137(12) . . .
138(12) . . .
142(12) . . .
132(11) . . .
123(11) . . .
106(10) . . .
118(11) . . .
133(12) . . .
126(11) . . .
143(12) . . .
115(11) . . .
133(12) . . .
108(10) . . .
113(11) . . .
118(11) . . .
127(11) . . .
137(12) . . .
124(11) . . .
137(12) . . .
116(11) . . .
123(11) . . .
118(11) . . .
122(11) . . .
122(11) . . .
124(11) . . .
124(11) . . .
140(12) . . .
135(12) . . .
131(11) . . .
130(11) . . .
114(11) . . .
123(11) . . .
135(12) . . .
129(11) . . .
127(11) . . .
143(12) . . .
133(12) . . .
133(12) . . .
123(11) . . .
126(11) . . .
125(11) . . .
127(11) . . .
123(11) . . .
110(10) . . .
153(12) . . .
131(11) . . .
123(11) . . .
121(11) . . .
128(11) . . .
130(11) . . .
137(12) . . .
127(11) . . .
133(12) . . .
136(12) . . .
126(11) . . .
134(12) . . .
132(11) . . .
110(10) . . .
119(11) . . .
126(11) . . .
148(12) . . .
110(10) . . .
126(11) . . .
129(11) . . .
138(12) . . .
137(12) . . .
130(11) . . .
130(11) . . .
131(11) . . .
138(12) . . .
129(11) . . .
137(12) . . .
125(11) . . .
133(12) . . .
114(11) . . .
131(11) . . .
129(11) . . .
149(12) . . .
135(12) . . .
127(11) . . .
132(11) . . .
139(12) . . .
117(11) . . .
132(11) . . .
134(12) . . .
149(12) . . .
127(11) . . .
138(12) . . .
128(11) . . .
117(11) . . .
121(11) . . .
145(12) . . .
132(11) . . .
139(12) . . .
138(12) . . .
135(12) . . .
135(12) . . .
142(12) . . .
131(11) . . .
128(11) . . .
125(11) . . .
138(12) . . .
147(12) . . .
118(11) . . .
150(12) . . .
164(13) . . .
124(11) . . .
146(12) . . .
142(12) . . .
138(12) . . .
134(12) . . .
148(12) . . .
131(11) . . .
149(12) . . .
134(12) . . .
135(12) . . .
141(12) . . .
143(12) . . .
155(12) . . .
146(12) . . .
153(12) . . .
161(13) . . .
161(13) . . .
148(12) . . .
140(12) . . .
150(12) . . .
147(12) . . .
154(12) . . .
146(12) . . .
147(12) . . .
152(12) . . .
156(12) . . .
144(12) . . .
160(13) . . .
167(13) . . .
160(13) . . .
161(13) . . .
157(13) . . .
160(13) . . .
166(13) . . .
193(14) . . .
204(14) . . .
171(13) . . .
180(13) . . .
177(13) . . .
190(14) . . .
175(13) . . .
193(14) . . .
198(14) . . .
179(13) . . .
212(15) . . .
217(15) . . .
245(16) . . .
223(15) . . .
211(15) . . .
200(14) . . .
240(15) . . .
240(15) . . .
250(16) . . .
282(17) . . .
251(16) . . .
258(16) . . .
306(17) . . .
296(17) . . .
291(17) . . .
302(17) . . .
313(18) . . .
329(18) . . .
340(18) . . .
346(19) . . .
349(19) . . .
423(21) . . .
414(20) . . .
448(21) . . .
469(22) . . .
509(23) . . .
498(22) . . .
559(24) . . .
556(24) . . .
614(25) . . .
601(25) . . .
659(26) . . .
675(26) . . .
734(27) . . .
738(27) . . .
771(28) . . .
795(28) . . .
826(29) . . .
816(29) . . .
824(29) . . .
850(29) . . .
883(30) . . .
883(30) . . .
830(29) . . .
862(29) . . .
856(29) . . .
833(29) . . .
816(29) . . .
845(29) . . .
810(28) . . .
781(28) . . .
778(28) . . .
738(27) . . .
708(27) . . .
625(25) . . .
666(26) . . .
638(25) . . .
567(24) . . .
548(23) . . .
540(23) . . .
500(22) . . .
446(21) . . .
454(21) . . .
421(21) . . .
402(20) . . .
384(20) . . .
345(19) . . .
361(19) . . .
335(18) . . .
324(18) . . .
318(18) . . .
304(17) . . .
283(17) . . .
279(17) . . .
279(17) . . .
261(16) . . .
258(16) . . .
214(15) . . .
236(15) . . .
209(14) . . .
241(16) . . .
199(14) . . .
197(14) . . .
215(15) . . .
186(14) . . .
177(13) . . .
207(14) . . .
211(15) . . .
203(14) . . .
185(14) . . .
179(13) . . .
192(14) . . .
198(14) . . .
170(13) . . .
159(13) . . .
177(13) . . .
168(13) . . .
154(12) . . .
155(12) . . .
173(13) . . .
156(12) . . .
152(12) . . .
154(12) . . .
150(12) . . .
168(13) . . .
150(12) . . .
163(13) . . .
160(13) . . .
151(12) . . .
157(13) . . .
158(13) . . .
147(12) . . .
155(12) . . .
157(13) . . .
145(12) . . .
167(13) . . .
146(12) . . .
131(11) . . .
153(12) . . .
145(12) . . .
155(12) . . .
149(12) . . .
133(12) . . .
133(12) . . .
140(12) . . .
144(12) . . .
124(11) . . .
157(13) . . .
130(11) . . .
126(11) . . .
135(12) . . .
150(12) . . .
152(12) . . .
140(12) . . .
147(12) . . .
140(12) . . .
132(11) . . .
120(11) . . .
135(12) . . .
161(13) . . .
141(12) . . .
137(12) . . .
143(12) . . .
130(11) . . .
142(12) . . .
128(11) . . .
136(12) . . .
117(11) . . .
124(11) . . .
121(11) . . .
139(12) . . .
130(11) . . .
140(12) . . .
133(12) . . .
121(11) . . .
129(11) . . .
132(11) . . .
139(12) . . .
145(12) . . .
142(12) . . .
132(11) . . .
139(12) . . .
132(11) . . .
133(12) . . .
131(11) . . .
144(12) . . .
133(12) . . .
132(11) . . .
119(11) . . .
113(11) . . .
126(11) . . .
134(12) . . .
135(12) . . .
121(11) . . .
133(12) . . .
140(12) . . .
121(11) . . .
120(11) . . .
127(11) . . .
114(11) . . .
147(12) . . .
123(11) . . .
118(11) . . .
134(12) . . .
120(11) . . .
136(12) . . .
134(12) . . .
144(12) . . .
136(12) . . .
123(11) . . .
135(12) . . .
125(11) . . .
128(11) . . .
128(11) . . .
123(11) . . .
135(12) . . .
146(12) . . .
121(11) . . .
131(11) . . .
147(12) . . .
124(11) . . .
141(12) . . .
125(11) . . .
144(12) . . .
133(12) . . .
133(12) . . .
140(12) . . .
127(11) . . .
139(12) . . .
130(11) . . .
125(11) . . .
132(11) . . .
124(11) . . .
140(12) . . .
127(11) . . .
119(11) . . .
124(11) . . .
129(11) . . .
127(11) . . .
138(12) . . .
119(11) . . .
133(12) . . .
108(10) . . .
138(12) . . .
138(12) . . .
140(12) . . .
139(12) . . .
137(12) . . .
138(12) . . .
132(11) . . .
138(12) . . .
130(11) . . .
121(11) . . .
121(11) . . .
140(12) . . .
127(11) . . .
134(12) . . .
151(12) . . .
125(11) . . .
142(12) . . .
138(12) . . .
147(12) . . .
132(11) . . .
120(11) . . .
131(11) . . .
129(11) . . .
130(11) . . .
142(12) . . .
125(11) . . .
139(12) . . .
128(11) . . .
148(12) . . .
137(12) . . .
137(12) . . .
142(12) . . .
142(12) . . .
141(12) . . .
133(12) . . .
154(12) . . .
137(12) . . .
128(11) . . .
148(12) . . .
138(12) . . .
141(12) . . .
141(12) . . .
132(11) . . .
152(12) . . .
129(11) . . .
166(13) . . .
139(12) . . .
130(11) . . .
152(12) . . .
147(12) . . .
157(13) . . .
141(12) . . .
148(12) . . .
151(12) . . .
144(12) . . .
142(12) . . .
146(12) . . .
136(12) . . .
152(12) . . .
147(12) . . .
159(13) . . .
149(12) . . .
172(13) . . .
164(13) . . .
149(12) . . .
154(12) . . .
138(12) . . .
158(13) . . .
170(13) . . .
155(12) . . .
162(13) . . .
155(12) . . .
150(12) . . .
151(12) . . .
179(13) . . .
147(12) . . .
172(13) . . .
176(13) . . .
175(13) . . .
182(13) . . .
177(13) . . .
170(13) . . .
169(13) . . .
179(13) . . .
151(12) . . .
149(12) . . .
168(13) . . .
192(14) . . .
196(14) . . .
166(13) . . .
194(14) . . .
196(14) . . .
188(14) . . .
200(14) . . .
201(14) . . .
198(14) . . .
192(14) . . .
226(15) . . .
208(14) . . .
201(14) . . .
206(14) . . .
219(15) . . .
232(15) . . .
242(16) . . .
219(15) . . .
229(15) . . .
244(16) . . .
240(15) . . .
270(16) . . .
243(16) . . .
255(16) . . .
273(17) . . .
297(17) . . .
295(17) . . .
324(18) . . .
311(18) . . .
363(19) . . .
335(18) . . .
339(18) . . .
362(19) . . .
376(19) . . .
409(20) . . .
439(21) . . .
422(21) . . .
460(21) . . .
514(23) . . .
517(23) . . .
543(23) . . .
562(24) . . .
603(25) . . .
649(25) . . .
681(26) . . .
739(27) . . .
777(28) . . .
808(28) . . .
882(30) . . .
914(30) . . .
961(31) . . .
1049(32) . . .
1087(33) . . .
1158(34) . . .
1270(36) . . .
1303(36) . . .
1311(36) . . .
1416(38) . . .
1458(38) . . .
1457(38) . . .
1511(39) . . .
1516(39) . . .
1549(39) . . .
1635(40) . . .
1598(40) . . .
1610(40) . . .
1601(40) . . .
1484(39) . . .
1561(40) . . .
1480(38) . . .
1449(38) . . .
1442(38) . . .
1340(37) . . .
1318(36) . . .
1223(35) . . .
1193(35) . . .
1172(34) . . .
1041(32) . . .
1025(32) . . .
950(31) . . .
864(29) . . .
876(30) . . .
792(28) . . .
771(28) . . .
701(26) . . .
684(26) . . .
658(26) . . .
621(25) . . .
564(24) . . .
568(24) . . .
510(23) . . .
510(23) . . .
459(21) . . .
431(21) . . .
435(21) . . .
383(20) . . .
384(20) . . .
356(19) . . .
359(19) . . .
336(18) . . .
326(18) . . .
310(18) . . .
307(18) . . .
312(18) . . .
298(17) . . .
266(16) . . .
266(16) . . .
285(17) . . .
270(16) . . .
237(15) . . .
218(15) . . .
241(16) . . .
224(15) . . .
217(15) . . .
198(14) . . .
211(15) . . .
206(14) . . .
201(14) . . .
185(14) . . .
184(14) . . .
203(14) . . .
209(14) . . .
181(13) . . .
200(14) . . .
194(14) . . .
163(13) . . .
164(13) . . .
195(14) . . .
186(14) . . .
195(14) . . .
168(13) . . .
168(13) . . .
154(12) . . .
179(13) . . .
165(13) . . .
186(14) . . .
162(13) . . .
158(13) . . .
158(13) . . .
153(12) . . .
180(13) . . .
159(13) . . .
157(13) . . .
160(13) . . .
163(13) . . .
162(13) . . .
158(13) . . .
156(12) . . .
143(12) . . .
150(12) . . .
144(12) . . .
147(12) . . .
146(12) . . .
129(11) . . .
138(12) . . .
147(12) . . .
138(12) . . .
155(12) . . .
122(11) . . .
153(12) . . .
140(12) . . .
138(12) . . .
154(12) . . .
152(12) . . .
147(12) . . .
156(12) . . .
150(12) . . .
129(11) . . .
140(12) . . .
139(12) . . .
139(12) . . .
149(12) . . .
143(12) . . .
138(12) . . .
144(12) . . .
144(12) . . .
122(11) . . .
136(12) . . .
128(11) . . .
133(12) . . .
135(12) . . .
146(12) . . .
131(11) . . .
124(11) . . .
133(12) . . .
123(11) . . .
139(12) . . .
142(12) . . .
128(11) . . .
138(12) . . .
128(11) . . .
137(12) . . .
124(11) . . .
107(10) . . .
137(12) . . .
134(12) . . .
128(11) . . .
134(12) . . .
121(11) . . .
120(11) . . .
128(11) . . .
125(11) . . .
142(12) . . .
132(11) . . .
131(11) . . .
120(11) . . .
119(11) . . .
128(11) . . .
126(11) . . .
128(11) . . .
131(11) . . .
131(11) . . .
115(11) . . .
127(11) . . .
139(12) . . .
126(11) . . .
130(11) . . .
123(11) . . .
121(11) . . .
140(12) . . .
128(11) . . .
129(11) . . .
122(11) . . .
114(11) . . .
125(11) . . .
127(11) . . .
123(11) . . .
123(11) . . .
127(11) . . .
112(11) . . .
119(11) . . .
123(11) . . .
128(11) . . .
118(11) . . .
128(11) . . .
129(11) . . .
115(11) . . .
138(12) . . .
127(11) . . .
123(11) . . .
129(11) . . .
129(11) . . .
123(11) . . .
120(11) . . .
126(11) . . .
119(11) . . .
114(11) . . .
135(12) . . .
129(11) . . .
123(11) . . .
127(11) . . .
141(12) . . .
129(11) . . .
125(11) . . .
115(11) . . .
125(11) . . .
140(12) . . .
111(11) . . .
99(10) . . .
136(12) . . .
135(12) . . .
118(11) . . .
117(11) . . .
126(11) . . .
124(11) . . .
118(11) . . .
121(11) . . .
113(11) . . .
124(11) . . .
115(11) . . .
134(12) . . .
117(11) . . .
136(12) . . .
129(11) . . .
120(11) . . .
142(12) . . .
129(11) . . .
134(12) . . .
100(10) . . .
118(11) . . .
106(10) . . .
138(12) . . .
107(10) . . .
116(11) . . .
124(11) . . .
117(11) . . .
117(11) . . .
112(11) . . .
117(11) . . .
123(11) . . .
102(10) . . .
108(10) . . .
121(11) . . .
123(11) . . .
115(11) . . .
124(11) . . .
112(11) . . .
119(11) . . .
113(11) . . .
137(12) . . .
110(10) . . .
122(11) . . .
111(11) . . .
119(11) . . .
111(11) . . .
117(11) . . .
128(11) . . .
130(11) . . .
129(11) . . .
126(11) . . .
122(11) . . .
122(11) . . .
109(10) . . .
108(10) . . .
120(11) . . .
124(11) . . .
108(10) . . .
111(11) . . .
125(11) . . .
125(11) . . .
111(11) . . .
114(11) . . .
120(11) . . .
114(11) . . .
113(11) . . .
130(11) . . .
103(10) . . .
130(11) . . .
134(12) . . .
115(11) . . .
128(11) . . .
120(11) . . .
125(11) . . .
123(11) . . .
113(11) . . .
137(12) . . .
132(11) . . .
108(10) . . .
133(12) . . .
135(12) . . .
134(12) . . .
132(11) . . .
128(11) . . .
132(11) . . .
110(10) . . .
117(11) . . .
117(11) . . .
131(11) . . .
111(11) . . .
106(10) . . .
107(10) . . .
114(11) . . .
133(12) . . .
124(11) . . .
109(10) . . .
100(10) . . .
125(11) . . .
130(11) . . .
125(11) . . .
129(11) . . .
115(11) . . .
121(11) . . .
131(11) . . .
118(11) . . .
100(10) . . .
129(11) . . .
119(11) . . .
113(11) . . .
115(11) . . .
133(12) . . .
113(11) . . .
127(11) . . .
109(10) . . .
118(11) . . .
114(11) . . .
111(11) . . .
111(11) . . .
101(10) . . .
107(10) . . .
122(11) . . .
104(10) . . .
116(11) . . .
126(11) . . .
118(11) . . .
133(12) . . .
125(11) . . .
128(11) . . .
127(11) . . .
113(11) . . .
117(11) . . .
135(12) . . .
112(11) . . .
122(11) . . .
111(11) . . .
112(11) . . .
135(12) . . .
118(11) . . .
122(11) . . .
104(10) . . .
122(11) . . .
130(11) . . .
144(12) . . .
105(10) . . .
120(11) . . .
125(11) . . .
134(12) . . .
129(11) . . .
124(11) . . .
112(11) . . .
124(11) . . .
135(12) . . .
115(11) . . .
119(11) . . .
122(11) . . .
129(11) . . .
98(10) . . .
122(11) . . .
136(12) . . .
113(11) . . .
110(10) . . .
122(11) . . .
129(11) . . .
116(11) . . .
106(10) . . .
127(11) . . .
134(12) . . .
118(11) . . .
108(10) . . .
107(10) . . .
123(11) . . .
123(11) . . .
116(11) . . .
123(11) . . .
117(11) . . .
129(11) . . .
127(11) . . .
118(11) . . .
122(11) . . .
134(12) . . .
124(11) . . .
113(11) . . .
124(11) . . .
117(11) . . .
107(10) . . .
138(12) . . .
119(11) . . .
98(10) . . .
124(11) . . .
134(12) . . .
134(12) . . .
113(11) . . .
108(10) . . .
126(11) . . .
123(11) . . .
140(12) . . .
120(11) . . .
122(11) . . .
109(10) . . .
121(11) . . .
119(11) . . .
112(11) . . .
115(11) . . .
105(10) . . .
105(10) . . .
119(11) . . .
127(11) . . .
118(11) . . .
113(11) . . .
114(11) . . .
114(11) . . .
105(10) . . .
124(11) . . .
115(11) . . .
101(10) . . .
117(11) . . .
116(11) . . .
133(12) . . .
118(11) . . .
129(11) . . .
125(11) . . .
129(11) . . .
121(11) . . .
117(11) . . .
116(11) . . .
115(11) . . .
128(11) . . .
124(11) . . .
113(11) . . .
120(11) . . .
120(11) . . .
98(10) . . .
117(11) . . .
109(10) . . .
111(11) . . .
114(11) . . .
115(11) . . .
98(10) . . .
121(11) . . .
111(11) . . .
111(11) . . .
116(11) . . .
110(10) . . .
125(11) . . .
114(11) . . .
111(11) . . .
113(11) . . .
121(11) . . .
118(11) . . .
118(11) . . .
120(11) . . .
112(11) . . .
113(11) . . .
117(11) . . .
103(10) . . .
118(11) . . .
125(11) . . .
111(11) . . .
126(11) . . .
118(11) . . .
133(12) . . .
114(11) . . .
106(10) . . .
112(11) . . .
126(11) . . .
106(10) . . .
115(11) . . .
127(11) . . .
118(11) . . .
126(11) . . .
124(11) . . .
124(11) . . .
128(11) . . .
108(10) . . .
112(11) . . .
104(10) . . .
120(11) . . .
108(10) . . .
112(11) . . .
120(11) . . .
120(11) . . .
117(11) . . .
120(11) . . .
124(11) . . .
110(10) . . .
102(10) . . .
107(10) . . .
125(11) . . .
116(11) . . .
124(11) . . .
111(11) . . .
134(12) . . .
116(11) . . .
121(11) . . .
127(11) . . .
132(11) . . .
122(11) . . .
103(10) . . .
129(11) . . .
117(11) . . .
120(11) . . .
124(11) . . .
119(11) . . .
122(11) . . .
117(11) . . .
113(11) . . .
118(11) . . .
132(11) . . .
128(11) . . .
126(11) . . .
113(11) . . .
108(10) . . .
126(11) . . .
127(11) . . .
122(11) . . .
97(10) . . .
112(11) . . .
116(11) . . .
115(11) . . .
120(11) . . .
101(10) . . .
113(11) . . .
101(10) . . .
116(11) . . .
124(11) . . .
102(10) . . .
113(11) . . .
122(11) . . .
131(11) . . .
114(11) . . .
127(11) . . .
115(11) . . .
125(11) . . .
99(10) . . .
110(10) . . .
107(10) . . .
104(10) . . .
115(11) . . .
137(12) . . .
111(11) . . .
117(11) . . .
113(11) . . .
126(11) . . .
127(11) . . .
105(10) . . .
102(10) . . .
125(11) . . .
107(10) . . .
115(11) . . .
107(10) . . .
113(11) . . .
116(11) . . .
123(11) . . .
114(11) . . .
111(11) . . .
113(11) . . .
126(11) . . .
122(11) . . .
116(11) . . .
146(12) . . .
120(11) . . .
132(11) . . .
107(10) . . .
121(11) . . .
114(11) . . .
128(11) . . .
119(11) . . .
116(11) . . .
113(11) . . .
126(11) . . .
114(11) . . .
113(11) . . .
105(10) . . .
121(11) . . .
123(11) . . .
122(11) . . .
111(11) . . .
115(11) . . .
127(11) . . .
121(11) . . .
105(10) . . .
112(11) . . .
121(11) . . .
108(10) . . .
121(11) . . .
111(11) . . .
118(11) . . .
106(10) . . .
111(11) . . .
112(11) . . .
121(11) . . .
104(10) . . .
133(12) . . .
107(10) . . .
107(10) . . .
110(10) . . .
124(11) . . .
115(11) . . .
122(11) . . .
103(10) . . .
120(11) . . .
130(11) . . .
122(11) . . .
108(10) . . .
119(11) . . .
131(11) . . .
120(11) . . .
123(11) . . .
118(11) . . .
118(11) . . .
112(11) . . .
107(10) . . .
109(10) . . .
125(11) . . .
104(10) . . .
122(11) . . .
112(11) . . .
114(11) . . .
130(11) . . .
121(11) . . .
116(11) . . .
123(11) . . .
124(11) . . .
131(11) . . .
122(11) . . .
111(11) . . .
117(11) . . .
123(11) . . .
122(11) . . .
118(11) . . .
108(10) . . .
106(10) . . .
113(11) . . .
109(10) . . .
120(11) . . .
115(11) . . .
127(11) . . .
116(11) . . .
121(11) . . .
115(11) . . .
103(10) . . .
95(10) . . .
114(11) . . .
118(11) . . .
104(10) . . .
119(11) . . .
115(11) . . .
114(11) . . .
106(10) . . .
101(10) . . .
99(10) . . .
112(11) . . .
122(11) . . .
131(11) . . .
116(11) . . .
112(11) . . .
118(11) . . .
129(11) . . .
111(11) . . .
128(11) . . .
125(11) . . .
127(11) . . .
118(11) . . .
121(11) . . .
125(11) . . .
119(11) . . .
119(11) . . .
122(11) . . .
108(10) . . .
123(11) . . .
122(11) . . .
120(11) . . .
111(11) . . .
116(11) . . .
129(11) . . .
126(11) . . .
105(10) . . .
131(11) . . .
111(11) . . .
109(10) . . .
118(11) . . .
124(11) . . .
114(11) . . .
109(10) . . .
116(11) . . .
125(11) . . .
116(11) . . .
126(11) . . .
121(11) . . .
121(11) . . .
117(11) . . .
125(11) . . .
110(10) . . .
106(10) . . .
120(11) . . .
116(11) . . .
111(11) . . .
115(11) . . .
115(11) . . .
96(10) . . .
96(10) . . .
120(11) . . .
128(11) . . .
117(11) . . .
128(11) . . .
126(11) . . .
101(10) . . .
116(11) . . .
128(11) . . .
133(12) . . .
117(11) . . .
119(11) . . .
124(11) . . .
125(11) . . .
134(12) . . .
126(11) . . .
120(11) . . .
133(12) . . .
120(11) . . .
108(10) . . .
122(11) . . .
134(12) . . .
121(11) . . .
141(12) . . .
119(11) . . .
175(13) . . .
118(11) . . .
120(11) . . .
125(11) . . .
117(11) . . .
123(11) . . .
127(11) . . .
133(12) . . .
136(12) . . .
104(10) . . .
109(10) . . .
108(10) . . .
111(11) . . .
117(11) . . .
123(11) . . .
119(11) . . .
118(11) . . .
114(11) . . .
125(11) . . .
99(10) . . .
110(10) . . .
113(11) . . .
104(10) . . .
102(10) . . .
117(11) . . .
126(11) . . .
104(10) . . .
110(10) . . .
121(11) . . .
120(11) . . .
119(11) . . .
110(10) . . .
123(11) . . .
119(11) . . .
117(11) . . .
130(11) . . .
111(11) . . .
125(11) . . .
118(11) . . .
102(10) . . .
113(11) . . .
122(11) . . .
116(11) . . .
103(10) . . .
121(11) . . .
111(11) . . .
128(11) . . .
126(11) . . .
110(10) . . .
104(10) . . .
133(12) . . .
138(12) . . .
112(11) . . .
132(11) . . .
115(11) . . .
112(11) . . .
105(10) . . .
122(11) . . .
112(11) . . .
135(12) . . .
111(11) . . .
100(10) . . .
106(10) . . .
129(11) . . .
132(11) . . .
114(11) . . .
107(10) . . .
119(11) . . .
119(11) . . .
116(11) . . .
108(10) . . .
127(11) . . .
87(9) . . .
120(11) . . .
122(11) . . .
116(11) . . .
106(10) . . .
123(11) . . .
111(11) . . .
123(11) . . .
122(11) . . .
131(11) . . .
115(11) . . .
133(12) . . .
127(11) . . .
106(10) . . .
121(11) . . .
123(11) . . .
116(11) . . .
116(11) . . .
122(11) . . .
107(10) . . .
124(11) . . .
120(11) . . .
121(11) . . .
109(10) . . .
104(10) . . .
119(11) . . .
132(11) . . .
120(11) . . .
129(11) . . .
118(11) . . .
126(11) . . .
139(12) . . .
120(11) . . .
120(11) . . .
122(11) . . .
116(11) . . .
127(11) . . .
111(11) . . .
118(11) . . .
107(10) . . .
122(11) . . .
117(11) . . .
112(11) . . .
131(11) . . .
107(10) . . .
115(11) . . .
131(11) . . .
117(11) . . .
131(11) . . .
127(11) . . .
115(11) . . .
117(11) . . .
126(11) . . .
128(11) . . .
111(11) . . .
112(11) . . .
131(11) . . .
113(11) . . .
118(11) . . .
112(11) . . .
108(10) . . .
113(11) . . .
101(10) . . .
135(12) . . .
127(11) . . .
124(11) . . .
110(10) . . .
126(11) . . .
111(11) . . .
125(11) . . .
117(11) . . .
123(11) . . .
123(11) . . .
108(10) . . .
131(11) . . .
111(11) . . .
106(10) . . .
121(11) . . .
117(11) . . .
136(12) . . .
119(11) . . .
120(11) . . .
136(12) . . .
113(11) . . .
107(10) . . .
127(11) . . .
123(11) . . .
121(11) . . .
129(11) . . .
132(11) . . .
119(11) . . .
122(11) . . .
122(11) . . .
112(11) . . .
113(11) . . .
120(11) . . .
126(11) . . .
111(11) . . .
116(11) . . .
127(11) . . .
114(11) . . .
123(11) . . .
121(11) . . .
103(10) . . .
116(11) . . .
122(11) . . .
117(11) . . .
122(11) . . .
128(11) . . .
118(11) . . .
104(10) . . .
108(10) . . .
109(10) . . .
125(11) . . .
126(11) . . .
120(11) . . .
123(11) . . .
114(11) . . .
123(11) . . .
128(11) . . .
113(11) . . .
100(10) . . .
128(11) . . .
109(10) . . .
113(11) . . .
106(10) . . .
116(11) . . .
138(12) . . .
116(11) . . .
116(11) . . .
132(11) . . .
130(11) . . .
117(11) . . .
112(11) . . .
111(11) . . .
120(11) . . .
102(10) . . .
115(11) . . .
124(11) . . .
116(11) . . .
134(12) . . .
110(10) . . .
125(11) . . .
107(10) . . .
113(11) . . .
121(11) . . .
112(11) . . .
124(11) . . .
119(11) . . .
121(11) . . .
99(10) . . .
130(11) . . .
104(10) . . .
129(11) . . .
132(11) . . .
122(11) . . .
118(11) . . .
112(11) . . .
110(10) . . .
131(11) . . .
134(12) . . .
119(11) . . .
110(10) . . .
130(11) . . .
135(12) . . .
106(10) . . .
128(11) . . .
118(11) . . .
121(11) . . .
126(11) . . .
104(10) . . .
123(11) . . .
102(10) . . .
105(10) . . .
113(11) . . .
125(11) . . .
116(11) . . .
105(10) . . .
113(11) . . .
113(11) . . .
125(11) . . .
119(11) . . .
131(11) . . .
112(11) . . .
117(11) . . .
113(11) . . .
127(11) . . .
128(11) . . .
111(11) . . .
123(11) . . .
129(11) . . .
118(11) . . .
127(11) . . .
114(11) . . .
135(12) . . .
133(12) . . .
107(10) . . .
119(11) . . .
120(11) . . .
133(12) . . .
126(11) . . .
122(11) . . .
114(11) . . .
134(12) . . .
112(11) . . .
115(11) . . .
111(11) . . .
125(11) . . .
111(11) . . .
114(11) . . .
130(11) . . .
122(11) . . .
121(11) . . .
119(11) . . .
108(10) . . .
122(11) . . .
120(11) . . .
137(12) . . .
114(11) . . .
118(11) . . .
140(12) . . .
128(11) . . .
128(11) . . .
121(11) . . .
121(11) . . .
124(11) . . .
112(11) . . .
126(11) . . .
112(11) . . .
124(11) . . .
117(11) . . .
120(11) . . .
131(11) . . .
131(11) . . .
123(11) . . .
117(11) . . .
121(11) . . .
116(11) . . .
128(11) . . .
124(11) . . .
108(10) . . .
127(11) . . .
140(12) . . .
125(11) . . .
124(11) . . .
124(11) . . .
117(11) . . .
116(11) . . .
137(12) . . .
114(11) . . .
124(11) . . .
118(11) . . .
114(11) . . .
133(12) . . .
120(11) . . .
131(11) . . .
131(11) . . .
129(11) . . .
125(11) . . .
128(11) . . .
120(11) . . .
122(11) . . .
131(11) . . .
117(11) . . .
123(11) . . .
120(11) . . .
125(11) . . .
119(11) . . .
113(11) . . .
126(11) . . .
117(11) . . .
123(11) . . .
125(11) . . .
112(11) . . .
129(11) . . .
118(11) . . .
133(12) . . .
119(11) . . .
113(11) . . .
117(11) . . .
125(11) . . .
108(10) . . .
141(12) . . .
107(10) . . .
115(11) . . .
105(10) . . .
126(11) . . .
116(11) . . .
115(11) . . .
138(12) . . .
143(12) . . .
128(11) . . .
139(12) . . .
125(11) . . .
112(11) . . .
124(11) . . .
127(11) . . .
116(11) . . .
123(11) . . .
126(11) . . .
132(11) . . .
109(10) . . .
121(11) . . .
117(11) . . .
119(11) . . .
143(12) . . .
127(11) . . .
136(12) . . .
132(11) . . .
124(11) . . .
119(11) . . .
123(11) . . .
129(11) . . .
125(11) . . .
113(11) . . .
111(11) . . .
123(11) . . .
130(11) . . .
126(11) . . .
141(12) . . .
119(11) . . .
124(11) . . .
116(11) . . .
118(11) . . .
112(11) . . .
134(12) . . .
119(11) . . .
129(11) . . .
135(12) . . .
134(12) . . .
136(12) . . .
133(12) . . .
120(11) . . .
126(11) . . .
112(11) . . .
123(11) . . .
111(11) . . .
113(11) . . .
140(12) . . .
116(11) . . .
114(11) . . .
132(11) . . .
115(11) . . .
122(11) . . .
137(12) . . .
127(11) . . .
125(11) . . .
129(11) . . .
117(11) . . .
135(12) . . .
136(12) . . .
128(11) . . .
129(11) . . .
108(10) . . .
123(11) . . .
109(10) . . .
135(12) . . .
128(11) . . .
126(11) . . .
117(11) . . .
119(11) . . .
115(11) . . .
125(11) . . .
129(11) . . .
123(11) . . .
140(12) . . .
124(11) . . .
120(11) . . .
131(11) . . .
131(11) . . .
151(12) . . .
114(11) . . .
137(12) . . .
132(11) . . .
115(11) . . .
133(12) . . .
121(11) . . .
130(11) . . .
135(12) . . .
125(11) . . .
121(11) . . .
114(11) . . .
131(11) . . .
113(11) . . .
106(10) . . .
127(11) . . .
138(12) . . .
128(11) . . .
128(11) . . .
126(11) . . .
126(11) . . .
130(11) . . .
135(12) . . .
151(12) . . .
113(11) . . .
114(11) . . .
135(12) . . .
138(12) . . .
120(11) . . .
123(11) . . .
125(11) . . .
152(12) . . .
127(11) . . .
123(11) . . .
117(11) . . .
127(11) . . .
120(11) . . .
133(12) . . .
127(11) . . .
103(10) . . .
138(12) . . .
127(11) . . .
117(11) . . .
151(12) . . .
136(12) . . .
137(12) . . .
112(11) . . .
141(12) . . .
144(12) . . .
139(12) . . .
116(11) . . .
125(11) . . .
122(11) . . .
123(11) . . .
144(12) . . .
106(10) . . .
110(10) . . .
117(11) . . .
141(12) . . .
125(11) . . .
124(11) . . .
111(11) . . .
116(11) . . .
133(12) . . .
146(12) . . .
131(11) . . .
125(11) . . .
146(12) . . .
156(12) . . .
139(12) . . .
143(12) . . .
139(12) . . .
132(11) . . .
135(12) . . .
124(11) . . .
126(11) . . .
144(12) . . .
142(12) . . .
137(12) . . .
141(12) . . .
142(12) . . .
137(12) . . .
136(12) . . .
150(12) . . .
131(11) . . .
136(12) . . .
150(12) . . .
138(12) . . .
140(12) . . .
147(12) . . .
137(12) . . .
137(12) . . .
140(12) . . .
153(12) . . .
146(12) . . .
148(12) . . .
141(12) . . .
152(12) . . .
145(12) . . .
139(12) . . .
142(12) . . .
142(12) . . .
142(12) . . .
148(12) . . .
132(11) . . .
144(12) . . .
141(12) . . .
150(12) . . .
145(12) . . .
168(13) . . .
138(12) . . .
172(13) . . .
158(13) . . .
152(12) . . .
130(11) . . .
142(12) . . .
139(12) . . .
145(12) . . .
148(12) . . .
164(13) . . .
149(12) . . .
155(12) . . .
147(12) . . .
180(13) . . .
174(13) . . .
149(12) . . .
165(13) . . .
152(12) . . .
173(13) . . .
158(13) . . .
177(13) . . .
183(14) . . .
187(14) . . .
183(14) . . .
167(13) . . .
192(14) . . .
160(13) . . .
153(12) . . .
193(14) . . .
194(14) . . .
183(14) . . .
178(13) . . .
190(14) . . .
198(14) . . .
182(13) . . .
223(15) . . .
204(14) . . .
240(15) . . .
210(14) . . .
229(15) . . .
217(15) . . .
249(16) . . .
244(16) . . .
241(16) . . .
227(15) . . .
246(16) . . .
241(16) . . .
248(16) . . .
270(16) . . .
263(16) . . .
247(16) . . .
268(16) . . .
286(17) . . .
287(17) . . .
292(17) . . .
341(18) . . .
314(18) . . .
345(19) . . .
346(19) . . .
348(19) . . .
377(19) . . .
397(20) . . .
373(19) . . .
408(20) . . .
445(21) . . .
422(21) . . .
457(21) . . .
457(21) . . .
516(23) . . .
544(23) . . .
569(24) . . .
555(24) . . .
637(25) . . .
629(25) . . .
687(26) . . .
678(26) . . .
726(27) . . .
797(28) . . .
841(29) . . .
887(30) . . .
899(30) . . .
952(31) . . .
1023(32) . . .
1076(33) . . .
1119(33) . . .
1098(33) . . .
1243(35) . . .
1252(35) . . .
1341(37) . . .
1394(37) . . .
1338(37) . . .
1357(37) . . .
1435(38) . . .
1385(37) . . .
1405(37) . . .
1467(38) . . .
1459(38) . . .
1448(38) . . .
1464(38) . . .
1445(38) . . .
1392(37) . . .
1390(37) . . .
1316(36) . . .
1331(36) . . .
1239(35) . . .
1170(34) . . .
1181(34) . . .
1112(33) . . .
1087(33) . . .
1031(32) . . .
1031(32) . . .
963(31) . . .
902(30) . . .
856(29) . . .
819(29) . . .
741(27) . . .
779(28) . . .
701(26) . . .
645(25) . . .
656(26) . . .
664(26) . . .
560(24) . . .
523(23) . . .
532(23) . . .
496(22) . . .
491(22) . . .
458(21) . . .
470(22) . . .
421(21) . . .
403(20) . . .
404(20) . . .
384(20) . . .
363(19) . . .
345(19) . . .
382(20) . . .
320(18) . . .
324(18) . . .
331(18) . . .
319(18) . . .
319(18) . . .
278(17) . . .
255(16) . . .
263(16) . . .
268(16) . . .
235(15) . . .
245(16) . . .
244(16) . . .
265(16) . . .
241(16) . . .
211(15) . . .
245(16) . . .
223(15) . . .
216(15) . . .
198(14) . . .
228(15) . . .
238(15) . . .
218(15) . . .
218(15) . . .
182(13) . . .
184(14) . . .
197(14) . . .
210(14) . . .
204(14) . . .
177(13) . . .
198(14) . . .
195(14) . . .
179(13) . . .
174(13) . . .
168(13) . . .
182(13) . . .
161(13) . . .
167(13) . . .
163(13) . . .
178(13) . . .
169(13) . . .
164(13) . . .
173(13) . . .
171(13) . . .
168(13) . . .
172(13) . . .
153(12) . . .
168(13) . . .
157(13) . . .
166(13) . . .
167(13) . . .
152(12) . . .
126(11) . . .
151(12) . . .
178(13) . . .
143(12) . . .
148(12) . . .
164(13) . . .
151(12) . . .
155(12) . . .
146(12) . . .
150(12) . . .
181(13) . . .
164(13) . . .
140(12) . . .
152(12) . . .
144(12) . . .
152(12) . . .
156(12) . . .
165(13) . . .
141(12) . . .
152(12) . . .
165(13) . . .
149(12) . . .
126(11) . . .
129(11) . . .
147(12) . . .
143(12) . . .
146(12) . . .
138(12) . . .
120(11) . . .
153(12) . . .
150(12) . . .
145(12) . . .
136(12) . . .
134(12) . . .
130(11) . . .
145(12) . . .
128(11) . . .
131(11) . . .
144(12) . . .
119(11) . . .
125(11) . . .
137(12) . . .
132(11) . . .
129(11) . . .
131(11) . . .
145(12) . . .
148(12) . . .
132(11) . . .
144(12) . . .
141(12) . . .
138(12) . . .
143(12) . . .
139(12) . . .
118(11) . . .
142(12) . . .
129(11) . . .
137(12) . . .
127(11) . . .
123(11) . . .
120(11) . . .
128(11) . . .
149(12) . . .
133(12) . . .
146(12) . . .
143(12) . . .
149(12) . . .
126(11) . . .
138(12) . . .
143(12) . . .
150(12) . . .
144(12) . . .
126(11) . . .
136(12) . . .
134(12) . . .
136(12) . . .
137(12) . . .
133(12) . . .
125(11) . . .
123(11) . . .
129(11) . . .
117(11) . . .
135(12) . . .
117(11) . . .
121(11) . . .
122(11) . . .
124(11) . . .
125(11) . . .
121(11) . . .
120(11) . . .
126(11) . . .
126(11) . . .
132(11) . . .
116(11) . . .
129(11) . . .
127(11) . . .
122(11) . . .
131(11) . . .
119(11) . . .
136(12) . . .
140(12) . . .
135(12) . . .
113(11) . . .
137(12) . . .
160(13) . . .
120(11) . . .
117(11) . . .
118(11) . . .
133(12) . . .
129(11) . . .
128(11) . . .
129(11) . . .
133(12) . . .
134(12) . . .
129(11) . . .
123(11) . . .
129(11) . . .
119(11) . . .
138(12) . . .
131(11) . . .
123(11) . . .
146(12) . . .
150(12) . . .
135(12) . . .
145(12) . . .
105(10) . . .
127(11) . . .
126(11) . . .
124(11) . . .
137(12) . . .
118(11) . . .
114(11) . . .
126(11) . . .
132(11) . . .
112(11) . . .
119(11) . . .
128(11) . . .
120(11) . . .
113(11) . . .
146(12) . . .
124(11) . . .
124(11) . . .
149(12) . . .
115(11) . . .
127(11) . . .
120(11) . . .
113(11) . . .
113(11) . . .
109(10) . . .
121(11) . . .
126(11) . . .
114(11) . . .
125(11) . . .
132(11) . . .
119(11) . . .
129(11) . . .
131(11) . . .
126(11) . . .
142(12) . . .
133(12) . . .
102(10) . . .
131(11) . . .
126(11) . . .
127(11) . . .
131(11) . . .
121(11) . . .
139(12) . . .
133(12) . . .
131(11) . . .
145(12) . . .
116(11) . . .
139(12) . . .
145(12) . . .
108(10) . . .
139(12) . . .
117(11) . . .
138(12) . . .
138(12) . . .
155(12) . . .
136(12) . . .
126(11) . . .
125(11) . . .
124(11) . . .
135(12) . . .
103(10) . . .
126(11) . . .
124(11) . . .
114(11) . . .
126(11) . . .
117(11) . . .
135(12) . . .
114(11) . . .
114(11) . . .
133(12) . . .
136(12) . . .
117(11) . . .
128(11) . . .
117(11) . . .
123(11) . . .
139(12) . . .
134(12) . . .
129(11) . . .
136(12) . . .
128(11) . . .
129(11) . . .
138(12) . . .
120(11) . . .
132(11) . . .
127(11) . . .
120(11) . . .
136(12) . . .
135(12) . . .
123(11) . . .
120(11) . . .
111(11) . . .
143(12) . . .
128(11) . . .
124(11) . . .
127(11) . . .
116(11) . . .
117(11) . . .
132(11) . . .
134(12) . . .
151(12) . . .
124(11) . . .
155(12) . . .
127(11) . . .
130(11) . . .
125(11) . . .
128(11) . . .
126(11) . . .
124(11) . . .
135(12) . . .
130(11) . . .
131(11) . . .
124(11) . . .
133(12) . . .
115(11) . . .
121(11) . . .
118(11) . . .
126(11) . . .
110(10) . . .
127(11) . . .
136(12) . . .
139(12) . . .
108(10) . . .
132(11) . . .
136(12) . . .
118(11) . . .
113(11) . . .
111(11) . . .
113(11) . . .
136(12) . . .
131(11) . . .
112(11) . . .
150(12) . . .
128(11) . . .
132(11) . . .
115(11) . . .
122(11) . . .
128(11) . . .
121(11) . . .
130(11) . . .
117(11) . . .
118(11) . . .
136(12) . . .
99(10) . . .
124(11) . . .
118(11) . . .
156(12) . . .
123(11) . . .
124(11) . . .
116(11) . . .
122(11) . . .
130(11) . . .
125(11) . . .
135(12) . . .
112(11) . . .
120(11) . . .
137(12) . . .
136(12) . . .
125(11) . . .
127(11) . . .
144(12) . . .
121(11) . . .
128(11) . . .
124(11) . . .
118(11) . . .
134(12) . . .
112(11) . . .
104(10) . . .
117(11) . . .
117(11) . . .
100(10) . . .
103(10) . . .
138(12) . . .
113(11) . . .
116(11) . . .
111(11) . . .
122(11) . . .
121(11) . . .
130(11) . . .
115(11) . . .
136(12) . . .
132(11) . . .
124(11) . . .
126(11) . . .
110(10) . . .
129(11) . . .
105(10) . . .
133(12) . . .
123(11) . . .
132(11) . . .
113(11) . . .
121(11) . . .
124(11) . . .
137(12) . . .
131(11) . . .
131(11) . . .
132(11) . . .
108(10) . . .
123(11) . . .
122(11) . . .
113(11) . . .
123(11) . . .
122(11) . . .
131(11) . . .
140(12) . . .
136(12) . . .
110(10) . . .
122(11) . . .
148(12) . . .
123(11) . . .
111(11) . . .
124(11) . . .
141(12) . . .
118(11) . . .
121(11) . . .
126(11) . . .
102(10) . . .
132(11) . . .
116(11) . . .
114(11) . . .
108(10) . . .
127(11) . . .
148(12) . . .
141(12) . . .
140(12) . . .
126(11) . . .
111(11) . . .
89(9) . . .
126(11) . . .
118(11) . . .
122(11) . . .
127(11) . . .
123(11) . . .
126(11) . . .
116(11) . . .
124(11) . . .
109(10) . . .
116(11) . . .
115(11) . . .
128(11) . . .
120(11) . . .
104(10) . . .
122(11) . . .
122(11) . . .
126(11) . . .
144(12) . . .
121(11) . . .
125(11) . . .
125(11) . . .
131(11) . . .
130(11) . . .
126(11) . . .
139(12) . . .
128(11) . . .
139(12) . . .
122(11) . . .
114(11) . . .
133(12) . . .
133(12) . . .
134(12) . . .
119(11) . . .
129(11) . . .
118(11) . . .
133(12) . . .
137(12) . . .
116(11) . . .
109(10) . . .
124(11) . . .
147(12) . . .
127(11) . . .
111(11) . . .
115(11) . . .
128(11) . . .
118(11) . . .
108(10) . . .
129(11) . . .
132(11) . . .
110(10) . . .
124(11) . . .
131(11) . . .
131(11) . . .
141(12) . . .
117(11) . . .
117(11) . . .
141(12) . . .
128(11) . . .
130(11) . . .
135(12) . . .
114(11) . . .
119(11) . . .
125(11) . . .
117(11) . . .
110(10) . . .
122(11) . . .
135(12) . . .
132(11) . . .
121(11) . . .
111(11) . . .
134(12) . . .
134(12) . . .
113(11) . . .
120(11) . . .
133(12) . . .
136(12) . . .
139(12) . . .
142(12) . . .
120(11) . . .
139(12) . . .
113(11) . . .
136(12) . . .
107(10) . . .
125(11) . . .
138(12) . . .
137(12) . . .
144(12) . . .
132(11) . . .
124(11) . . .
117(11) . . .
123(11) . . .
132(11) . . .
107(10) . . .
138(12) . . .
127(11) . . .
134(12) . . .
131(11) . . .
136(12) . . .
121(11) . . .
109(10) . . .
123(11) . . .
124(11) . . .
124(11) . . .
125(11) . . .
116(11) . . .
146(12) . . .
121(11) . . .
139(12) . . .
109(10) . . .
115(11) . . .
127(11) . . .
115(11) . . .
112(11) . . .
127(11) . . .
124(11) . . .
145(12) . . .
135(12) . . .
103(10) . . .
110(10) . . .
146(12) . . .
119(11) . . .
116(11) . . .
130(11) . . .
128(11) . . .
134(12) . . .
142(12) . . .
141(12) . . .
123(11) . . .
123(11) . . .
127(11) . . .
114(11) . . .
137(12) . . .
129(11) . . .
125(11) . . .
122(11) . . .
146(12) . . .
130(11) . . .
129(11) . . .
131(11) . . .
108(10) . . .
130(11) . . .
125(11) . . .
128(11) . . .
144(12) . . .
112(11) . . .
121(11) . . .
123(11) . . .
113(11) . . .
129(11) . . .
128(11) . . .
108(10) . . .
133(12) . . .
127(11) . . .
124(11) . . .
118(11) . . .
120(11) . . .
122(11) . . .
115(11) . . .
131(11) . . .
129(11) . . .
133(12) . . .
123(11) . . .
107(10) . . .
126(11) . . .
117(11) . . .
149(12) . . .
126(11) . . .
127(11) . . .
125(11) . . .
137(12) . . .
134(12) . . .
140(12) . . .
138(12) . . .
148(12) . . .
131(11) . . .
126(11) . . .
118(11) . . .
127(11) . . .
112(11) . . .
125(11) . . .
125(11) . . .
137(12) . . .
117(11) . . .
153(12) . . .
152(12) . . .
115(11) . . .
144(12) . . .
115(11) . . .
131(11) . . .
139(12) . . .
155(12) . . .
126(11) . . .
130(11) . . .
115(11) . . .
105(10) . . .
132(11) . . .
144(12) . . .
119(11) . . .
146(12) . . .
128(11) . . .
147(12) . . .
126(11) . . .
136(12) . . .
129(11) . . .
133(12) . . .
129(11) . . .
120(11) . . .
146(12) . . .
145(12) . . .
123(11) . . .
125(11) . . .
128(11) . . .
116(11) . . .
121(11) . . .
116(11) . . .
133(12) . . .
109(10) . . .
126(11) . . .
124(11) . . .
140(12) . . .
109(10) . . .
125(11) . . .
144(12) . . .
127(11) . . .
128(11) . . .
139(12) . . .
129(11) . . .
137(12) . . .
141(12) . . .
132(11) . . .
107(10) . . .
124(11) . . .
125(11) . . .
148(12) . . .
154(12) . . .
139(12) . . .
136(12) . . .
141(12) . . .
140(12) . . .
162(13) . . .
142(12) . . .
135(12) . . .
132(11) . . .
136(12) . . .
150(12) . . .
149(12) . . .
135(12) . . .
151(12) . . .
142(12) . . .
144(12) . . .
142(12) . . .
134(12) . . .
137(12) . . .
135(12) . . .
151(12) . . .
134(12) . . .
134(12) . . .
129(11) . . .
121(11) . . .
134(12) . . .
137(12) . . .
154(12) . . .
133(12) . . .
134(12) . . .
120(11) . . .
157(13) . . .
125(11) . . .
135(12) . . .
123(11) . . .
134(12) . . .
134(12) . . .
125(11) . . .
117(11) . . .
129(11) . . .
125(11) . . .
128(11) . . .
115(11) . . .
126(11) . . .
128(11) . . .
144(12) . . .
123(11) . . .
130(11) . . .
124(11) . . .
145(12) . . .
131(11) . . .
121(11) . . .
136(12) . . .
127(11) . . .
133(12) . . .
129(11) . . .
126(11) . . .
130(11) . . .
132(11) . . .
144(12) . . .
132(11) . . .
126(11) . . .
137(12) . . .
131(11) . . .
132(11) . . .
140(12) . . .
128(11) . . .
128(11) . . .
128(11) . . .
136(12) . . .
150(12) . . .
137(12) . . .
128(11) . . .
137(12) . . .
127(11) . . .
122(11) . . .
135(12) . . .
118(11) . . .
136(12) . . .
125(11) . . .
128(11) . . .
138(12) . . .
129(11) . . .
126(11) . . .
128(11) . . .
126(11) . . .
121(11) . . .
136(12) . . .
134(12) . . .
132(11) . . .
126(11) . . .
130(11) . . .
141(12) . . .
121(11) . . .
139(12) . . .
150(12) . . .
131(11) . . .
128(11) . . .
123(11) . . .
114(11) . . .
133(12) . . .
124(11) . . .
124(11) . . .
137(12) . . .
132(11) . . .
128(11) . . .
136(12) . . .
109(10) . . .
141(12) . . .
137(12) . . .
136(12) . . .
130(11) . . .
124(11) . . .
129(11) . . .
135(12) . . .
137(12) . . .
121(11) . . .
132(11) . . .
146(12) . . .
130(11) . . .
142(12) . . .
118(11) . . .
113(11) . . .
129(11) . . .
119(11) . . .
123(11) . . .
130(11) . . .
120(11) . . .
133(12) . . .
132(11) . . .
127(11) . . .
131(11) . . .
145(12) . . .
135(12) . . .
151(12) . . .
119(11) . . .
108(10) . . .
135(12) . . .
133(12) . . .
128(11) . . .
139(12) . . .
122(11) . . .
129(11) . . .
130(11) . . .
116(11) . . .
122(11) . . .
123(11) . . .
134(12) . . .
135(12) . . .
145(12) . . .
114(11) . . .
122(11) . . .
111(11) . . .
136(12) . . .
140(12) . . .
137(12) . . .
140(12) . . .
147(12) . . .
140(12) . . .
126(11) . . .
120(11) . . .
145(12) . . .
120(11) . . .
144(12) . . .
121(11) . . .
152(12) . . .
140(12) . . .
139(12) . . .
137(12) . . .
146(12) . . .
124(11) . . .
126(11) . . .
146(12) . . .
150(12) . . .
120(11) . . .
142(12) . . .
136(12) . . .
139(12) . . .
132(11) . . .
135(12) . . .
138(12) . . .
124(11) . . .
135(12) . . .
120(11) . . .
127(11) . . .
146(12) . . .
134(12) . . .
129(11) . . .
133(12) . . .
128(11) . . .
141(12) . . .
145(12) . . .
109(10) . . .
144(12) . . .
125(11) . . .
134(12) . . .
117(11) . . .
143(12) . . .
125(11) . . .
123(11) . . .
132(11) . . .
126(11) . . .
138(12) . . .
135(12) . . .
123(11) . . .
124(11) . . .
136(12) . . .
125(11) . . .
144(12) . . .
139(12) . . .
115(11) . . .
148(12) . . .
131(11) . . .
135(12) . . .
133(12) . . .
119(11) . . .
152(12) . . .
134(12) . . .
135(12) . . .
141(12) . . .
136(12) . . .
130(11) . . .
141(12) . . .
159(13) . . .
140(12) . . .
139(12) . . .
155(12) . . .
132(11) . . .
130(11) . . .
134(12) . . .
144(12) . . .
128(11) . . .
143(12) . . .
145(12) . . .
138(12) . . .
168(13) . . .
163(13) . . .
156(12) . . .
135(12) . . .
142(12) . . .
142(12) . . .
134(12) . . .
158(13) . . .
155(12) . . .
149(12) . . .
143(12) . . .
143(12) . . .
136(12) . . .
158(13) . . .
126(11) . . .
142(12) . . .
138(12) . . .
127(11) . . .
154(12) . . .
155(12) . . .
146(12) . . .
140(12) . . .
126(11) . . .
151(12) . . .
148(12) . . .
146(12) . . .
145(12) . . .
141(12) . . .
158(13) . . .
154(12) . . .
154(12) . . .
125(11) . . .
147(12) . . .
137(12) . . .
171(13) . . .
148(12) . . .
137(12) . . .
136(12) . . .
158(13) . . .
145(12) . . .
160(13) . . .
148(12) . . .
169(13) . . .
164(13) . . .
162(13) . . .
140(12) . . .
141(12) . . .
160(13) . . .
169(13) . . .
172(13) . . .
177(13) . . .
177(13) . . .
163(13) . . .
167(13) . . .
149(12) . . .
182(13) . . .
168(13) . . .
158(13) . . .
160(13) . . .
194(14) . . .
189(14) . . .
156(12) . . .
167(13) . . .
148(12) . . .
168(13) . . .
189(14) . . .
177(13) . . .
184(14) . . .
169(13) . . .
165(13) . . .
178(13) . . .
198(14) . . .
168(13) . . .
166(13) . . .
198(14) . . .
161(13) . . .
192(14) . . .
192(14) . . .
187(14) . . .
207(14) . . .
203(14) . . .
201(14) . . .
210(14) . . .
195(14) . . .
207(14) . . .
180(13) . . .
214(15) . . .
219(15) . . .
227(15) . . .
223(15) . . .
223(15) . . .
239(15) . . .
211(15) . . .
218(15) . . .
210(14) . . .
230(15) . . .
247(16) . . .
269(16) . . .
252(16) . . .
241(16) . . .
249(16) . . .
267(16) . . .
248(16) . . .
263(16) . . .
261(16) . . .
257(16) . . .
259(16) . . .
307(18) . . .
277(17) . . .
310(18) . . .
314(18) . . .
321(18) . . .
326(18) . . .
323(18) . . .
327(18) . . .
344(19) . . .
346(19) . . .
365(19) . . .
367(19) . . .
339(18) . . .
388(20) . . .
401(20) . . .
372(19) . . .
409(20) . . .
426(21) . . .
420(20) . . .
400(20) . . .
452(21) . . .
475(22) . . .
482(22) . . .
497(22) . . .
502(22) . . .
537(23) . . .
613(25) . . .
609(25) . . .
620(25) . . .
667(26) . . .
689(26) . . .
722(27) . . .
741(27) . . .
776(28) . . .
830(29) . . .
907(30) . . .
924(30) . . .
1008(32) . . .
942(31) . . .
992(31) . . .
1127(34) . . .
1189(34) . . .
1196(35) . . .
1296(36) . . .
1386(37) . . .
1439(38) . . .
1518(39) . . .
1516(39) . . .
1592(40) . . .
1692(41) . . .
1750(42) . . .
1804(42) . . .
1922(44) . . .
1957(44) . . .
1975(44) . . .
2000(45) . . .
2057(45) . . .
2101(46) . . .
2205(47) . . .
2198(47) . . .
2146(46) . . .
2187(47) . . .
2197(47) . . .
2188(47) . . .
2161(46) . . .
2110(46) . . .
2072(46) . . .
2060(45) . . .
2030(45) . . .
1954(44) . . .
1902(44) . . .
1843(43) . . .
1769(42) . . .
1749(42) . . .
1690(41) . . .
1612(40) . . .
1510(39) . . .
1475(38) . . .
1338(37) . . .
1357(37) . . .
1259(35) . . .
1271(36) . . .
1261(36) . . .
1196(35) . . .
1051(32) . . .
1029(32) . . .
1058(33) . . .
908(30) . . .
897(30) . . .
874(30) . . .
844(29) . . .
795(28) . . .
731(27) . . .
693(26) . . .
696(26) . . .
647(25) . . .
630(25) . . .
594(24) . . .
575(24) . . .
528(23) . . .
555(24) . . .
512(23) . . .
481(22) . . .
496(22) . . .
485(22) . . .
477(22) . . .
444(21) . . .
414(20) . . .
378(19) . . .
397(20) . . .
403(20) . . .
371(19) . . .
358(19) . . .
371(19) . . .
322(18) . . .
338(18) . . .
332(18) . . .
315(18) . . .
343(19) . . .
285(17) . . .
290(17) . . .
291(17) . . .
293(17) . . .
269(16) . . .
304(17) . . .
272(16) . . .
270(16) . . .
243(16) . . .
234(15) . . .
258(16) . . .
249(16) . . .
241(16) . . .
260(16) . . .
237(15) . . .
218(15) . . .
234(15) . . .
215(15) . . .
217(15) . . .
203(14) . . .
215(15) . . .
207(14) . . .
219(15) . . .
214(15) . . .
222(15) . . .
226(15) . . .
191(14) . . .
216(15) . . .
232(15) . . .
219(15) . . .
208(14) . . .
199(14) . . .
207(14) . . .
185(14) . . .
188(14) . . .
179(13) . . .
209(14) . . .
184(14) . . .
179(13) . . .
176(13) . . .
162(13) . . .
195(14) . . .
166(13) . . .
167(13) . . .
181(13) . . .
179(13) . . .
160(13) . . .
168(13) . . .
183(14) . . .
180(13) . . .
163(13) . . .
159(13) . . .
167(13) . . .
151(12) . . .
175(13) . . .
151(12) . . .
168(13) . . .
162(13) . . .
160(13) . . .
169(13) . . .
153(12) . . .
153(12) . . .
166(13) . . .
173(13) . . .
157(13) . . .
189(14) . . .
180(13) . . .
160(13) . . .
149(12) . . .
143(12) . . .
147(12) . . .
159(13) . . .
142(12) . . .
145(12) . . .
166(13) . . .
151(12) . . .
170(13) . . .
158(13) . . .
163(13) . . .
154(12) . . .
145(12) . . .
167(13) . . .
158(13) . . .
165(13) . . .
155(12) . . .
144(12) . . .
143(12) . . .
158(13) . . .
152(12) . . .
180(13) . . .
148(12) . . .
142(12) . . .
147(12) . . .
141(12) . . .
143(12) . . .
151(12) . . .
174(13) . . .
170(13) . . .
150(12) . . .
139(12) . . .
135(12) . . .
143(12) . . .
133(12) . . .
162(13) . . .
141(12) . . .
146(12) . . .
132(11) . . .
167(13) . . .
175(13) . . .
143(12) . . .
141(12) . . .
159(13) . . .
162(13) . . .
151(12) . . .
137(12) . . .
145(12) . . .
123(11) . . .
149(12) . . .
140(12) . . .
144(12) . . .
130(11) . . .
126(11) . . .
151(12) . . .
136(12) . . .
131(11) . . .
138(12) . . .
137(12) . . .
128(11) . . .
127(11) . . .
136(12) . . .
134(12) . . .
133(12) . . .
136(12) . . .
146(12) . . .
149(12) . . .
131(11) . . .
142(12) . . .
145(12) . . .
133(12) . . .
146(12) . . .
173(13) . . .
149(12) . . .
129(11) . . .
132(11) . . .
132(11) . . .
146(12) . . .
152(12) . . .
145(12) . . .
155(12) . . .
125(11) . . .
123(11) . . .
143(12) . . .
123(11) . . .
155(12) . . .
150(12) . . .
144(12) . . .
145(12) . . .
138(12) . . .
168(13) . . .
139(12) . . .
136(12) . . .
121(11) . . .
146(12) . . .
124(11) . . .
147(12) . . .
123(11) . . .
124(11) . . .
138(12) . . .
146(12) . . .
134(12) . . .
135(12) . . .
137(12) . . .
131(11) . . .
120(11) . . .
133(12) . . .
129(11) . . .
162(13) . . .
148(12) . . .
128(11) . . .
143(12) . . .
131(11) . . .
141(12) . . .
148(12) . . .
148(12) . . .
140(12) . . .
126(11) . . .
137(12) . . .
136(12) . . .
140(12) . . .
146(12) . . .
128(11) . . .
135(12) . . .
135(12) . . .
141(12) . . .
149(12) . . .
167(13) . . .
148(12) . . .
145(12) . . .
125(11) . . .
155(12) . . .
136(12) . . .
153(12) . . .
152(12) . . .
146(12) . . .
154(12) . . .
132(11) . . .
131(11) . . .
142(12) . . .
129(11) . . .
132(11) . . .
158(13) . . .
138(12) . . .
154(12) . . .
142(12) . . .
134(12) . . .
158(13) . . .
133(12) . . .
130(11) . . .
150(12) . . .
140(12) . . .
158(13) . . .
141(12) . . .
137(12) . . .
159(13) . . .
150(12) . . .
146(12) . . .
134(12) . . .
167(13) . . .
151(12) . . .
138(12) . . .
144(12) . . .
166(13) . . .
156(12) . . .
146(12) . . .
167(13) . . .
166(13) . . .
147(12) . . .
150(12) . . .
160(13) . . .
172(13) . . .
149(12) . . .
161(13) . . .
160(13) . . .
163(13) . . .
181(13) . . .
153(12) . . .
168(13) . . .
163(13) . . .
170(13) . . .
174(13) . . .
179(13) . . .
157(13) . . .
175(13) . . .
177(13) . . .
183(14) . . .
199(14) . . .
190(14) . . .
199(14) . . .
198(14) . . .
202(14) . . .
209(14) . . .
203(14) . . .
202(14) . . .
220(15) . . .
191(14) . . .
220(15) . . .
213(15) . . .
218(15) . . .
205(14) . . .
201(14) . . .
239(15) . . .
239(15) . . .
251(16) . . .
258(16) . . .
236(15) . . .
219(15) . . .
255(16) . . .
292(17) . . .
259(16) . . .
271(16) . . .
291(17) . . .
308(18) . . .
297(17) . . .
315(18) . . .
295(17) . . .
303(17) . . .
339(18) . . .
336(18) . . .
339(18) . . .
391(20) . . .
398(20) . . .
425(21) . . .
389(20) . . .
420(20) . . .
460(21) . . .
469(22) . . .
474(22) . . .
518(23) . . .
553(24) . . .
561(24) . . .
580(24) . . .
563(24) . . .
615(25) . . .
580(24) . . .
628(25) . . .
610(25) . . .
633(25) . . .
645(25) . . .
696(26) . . .
695(26) . . .
724(27) . . .
719(27) . . .
742(27) . . .
752(27) . . .
743(27) . . .
737(27) . . .
733(27) . . .
740(27) . . .
697(26) . . .
733(27) . . .
681(26) . . .
691(26) . . .
635(25) . . .
684(26) . . .
662(26) . . .
638(25) . . .
629(25) . . .
584(24) . . .
626(25) . . .
543(23) . . .
584(24) . . .
547(23) . . .
541(23) . . .
545(23) . . .
491(22) . . .
474(22) . . .
455(21) . . .
418(20) . . .
430(21) . . .
402(20) . . .
365(19) . . .
383(20) . . .
346(19) . . .
320(18) . . .
309(18) . . .
303(17) . . .
294(17) . . .
300(17) . . .
258(16) . . .
266(16) . . .
283(17) . . .
274(17) . . .
297(17) . . .
269(16) . . .
250(16) . . .
258(16) . . .
264(16) . . .
249(16) . . .
264(16) . . .
257(16) . . .
230(15) . . .
225(15) . . .
223(15) . . .
216(15) . . .
190(14) . . .
207(14) . . .
206(14) . . .
201(14) . . .
198(14) . . .
201(14) . . .
161(13) . . .
170(13) . . .
187(14) . . .
174(13) . . .
190(14) . . .
177(13) . . .
171(13) . . .
152(12) . . .
183(14) . . .
166(13) . . .
171(13) . . .
170(13) . . .
161(13) . . .
160(13) . . .
155(12) . . .
157(13) . . .
164(13) . . .
172(13) . . .
183(14) . . .
158(13) . . .
168(13) . . .
161(13) . . .
151(12) . . .
152(12) . . .
154(12) . . .
159(13) . . .
154(12) . . .
137(12) . . .
167(13) . . .
170(13) . . .
170(13) . . .
161(13) . . .
144(12) . . .
149(12) . . .
146(12) . . .
147(12) . . .
152(12) . . .
159(13) . . .
143(12) . . .
154(12) . . .
144(12) . . .
143(12) . . .
154(12) . . .
146(12) . . .
129(11) . . .
156(12) . . .
140(12) . . .
133(12) . . .
131(11) . . .
149(12) . . .
134(12) . . .
136(12) . . .
149(12) . . .
149(12) . . .
139(12) . . .
141(12) . . .
129(11) . . .
141(12) . . .
130(11) . . .
138(12) . . .
131(11) . . .
127(11) . . .
135(12) . . .
111(11) . . .
131(11) . . .
127(11) . . .
128(11) . . .
136(12) . . .
120(11) . . .
129(11) . . .
130(11) . . .
117(11) . . .
136(12) . . .
126(11) . . .
147(12) . . .
122(11) . . .
146(12) . . .
120(11) . . .
129(11) . . .
135(12) . . .
106(10) . . .
127(11) . . .
126(11) . . .
118(11) . . .
142(12) . . .
140(12) . . .
124(11) . . .
138(12) . . .
137(12) . . .
129(11) . . .
143(12) . . .
117(11) . . .
125(11) . . .
129(11) . . .
132(11) . . .
126(11) . . .
118(11) . . .
129(11) . . .
127(11) . . .
123(11) . . .
123(11) . . .
115(11) . . .
129(11) . . .
139(12) . . .
129(11) . . .
133(12) . . .
142(12) . . .
135(12) . . .
138(12) . . .
132(11) . . .
150(12) . . .
152(12) . . .
121(11) . . .
121(11) . . .
138(12) . . .
126(11) . . .
115(11) . . .
131(11) . . .
117(11) . . .
127(11) . . .
112(11) . . .
120(11) . . .
109(10) . . .
127(11) . . .
94(10) . . .
125(11) . . .
143(12) . . .
127(11) . . .
113(11) . . .
122(11) . . .
139(12) . . .
135(12) . . .
145(12) . . .
128(11) . . .
113(11) . . .
124(11) . . .
147(12) . . .
129(11) . . .
125(11) . . .
133(12) . . .
127(11) . . .
131(11) . . .
134(12) . . .
128(11) . . .
127(11) . . .
128(11) . . .
133(12) . . .
130(11) . . .
136(12) . . .
114(11) . . .
135(12) . . .
132(11) . . .
118(11) . . .
131(11) . . .
119(11) . . .
137(12) . . .
136(12) . . .
117(11) . . .
129(11) . . .
118(11) . . .
138(12) . . .
124(11) . . .
138(12) . . .
130(11) . . .
123(11) . . .
125(11) . . .
108(10) . . .
126(11) . . .
125(11) . . .
113(11) . . .
122(11) . . .
133(12) . . .
123(11) . . .
119(11) . . .
115(11) . . .
137(12) . . .
136(12) . . .
132(11) . . .
138(12) . . .
117(11) . . .
139(12) . . .
122(11) . . .
119(11) . . .
127(11) . . .
123(11) . . .
132(11) . . .
115(11) . . .
128(11) . . .
127(11) . . .
121(11) . . .
121(11) . . .
128(11) . . .
120(11) . . .
117(11) . . .
111(11) . . .
141(12) . . .
129(11) . . .
128(11) . . .
139(12) . . .
146(12) . . .
118(11) . . .
135(12) . . .
117(11) . . .
101(10) . . .
137(12) . . .
111(11) . . .
123(11) . . .
119(11) . . .
135(12) . . .
109(10) . . .
136(12) . . .
137(12) . . .
140(12) . . .
136(12) . . .
129(11) . . .
143(12) . . .
131(11) . . .
119(11) . . .
145(12) . . .
104(10) . . .
126(11) . . .
113(11) . . .
136(12) . . .
109(10) . . .
126(11) . . .
113(11) . . .
121(11) . . .
120(11) . . .
128(11) . . .
119(11) . . .
118(11) . . .
107(10) . . .
125(11) . . .
116(11) . . .
123(11) . . .
132(11) . . .
116(11) . . .
137(12) . . .
141(12) . . .
129(11) . . .
113(11) . . .
119(11) . . .
129(11) . . .
121(11) . . .
157(13) . . .
124(11) . . .
111(11) . . .
126(11) . . .
120(11) . . .
134(12) . . .
142(12) . . .
130(11) . . .
135(12) . . .
102(10) . . .
110(10) . . .
147(12) . . .
128(11) . . .
123(11) . . .
111(11) . . .
114(11) . . .
114(11) . . .
101(10) . . .
143(12) . . .
116(11) . . .
133(12) . . .
130(11) . . .
131(11) . . .
127(11) . . .
117(11) . . .
132(11) . . .
117(11) . . .
123(11) . . .
111(11) . . .
123(11) . . .
116(11) . . .
127(11) . . .
131(11) . . .
124(11) . . .
124(11) . . .
118(11) . . .
129(11) . . .
132(11) . . .
136(12) . . .
122(11) . . .
116(11) . . .
118(11) . . .
122(11) . . .
121(11) . . .
111(11) . . .
122(11) . . .
108(10) . . .
118(11) . . .
100(10) . . .
135(12) . . .
108(10) . . .
126(11) . . .
95(10) . . .
123(11) . . .
110(10) . . .
128(11) . . .
125(11) . . .
127(11) . . .
114(11) . . .
117(11) . . .
137(12) . . .
124(11) . . .
127(11) . . .
109(10) . . .
113(11) . . .
124(11) . . .
132(11) . . .
129(11) . . .
123(11) . . .
121(11) . . .
132(11) . . .
127(11) . . .
138(12) . . .
139(12) . . .
118(11) . . .
132(11) . . .
114(11) . . .
120(11) . . .
130(11) . . .
115(11) . . .
132(11) . . .
118(11) . . .
128(11) . . .
103(10) . . .
108(10) . . .
118(11) . . .
127(11) . . .
133(12) . . .
143(12) . . .
112(11) . . .
130(11) . . .
128(11) . . .
130(11) . . .
129(11) . . .
129(11) . . .
118(11) . . .
117(11) . . .
112(11) . . .
112(11) . . .
110(10) . . .
131(11) . . .
129(11) . . .
120(11) . . .
116(11) . . .
113(11) . . .
122(11) . . .
129(11) . . .
128(11) . . .
128(11) . . .
113(11) . . .
130(11) . . .
108(10) . . .
112(11) . . .
114(11) . . .
103(10) . . .
111(11) . . .
126(11) . . .
135(12) . . .
126(11) . . .
121(11) . . .
128(11) . . .
117(11) . . .
96(10) . . .
111(11) . . .
132(11) . . .
127(11) . . .
138(12) . . .
140(12) . . .
108(10) . . .
122(11) . . .
109(10) . . .
127(11) . . .
128(11) . . .
130(11) . . .
114(11) . . .
124(11) . . .
113(11) . . .
116(11) . . .
116(11) . . .
117(11) . . .
129(11) . . .
130(11) . . .
115(11) . . .
126(11) . . .
97(10) . . .
120(11) . . .
126(11) . . .
132(11) . . .
116(11) . . .
111(11) . . .
122(11) . . .
120(11) . . .
109(10) . . .
113(11) . . .
103(10) . . .
119(11) . . .
118(11) . . .
108(10) . . .
126(11) . . .
132(11) . . .
126(11) . . .
114(11) . . .
124(11) . . .
120(11) . . .
126(11) . . .
105(10) . . .
114(11) . . .
113(11) . . .
111(11) . . .
124(11) . . .
136(12) . . .
123(11) . . .
127(11) . . .
126(11) . . .
144(12) . . .
120(11) . . .
153(12) . . .
122(11) . . .
98(10) . . .
118(11) . . .
125(11) . . .
116(11) . . .
108(10) . . .
126(11) . . .
116(11) . . .
129(11) . . .
123(11) . . .
110(10) . . .
119(11) . . .
123(11) . . .
112(11) . . .
135(12) . . .
100(10) . . .
106(10) . . .
124(11) . . .
129(11) . . .
104(10) . . .
122(11) . . .
123(11) . . .
105(10) . . .
137(12) . . .
96(10) . . .
114(11) . . .
100(10) . . .
105(10) . . .
121(11) . . .
120(11) . . .
116(11) . . .
124(11) . . .
124(11) . . .
116(11) . . .
94(10) . . .
111(11) . . .
121(11) . . .
136(12) . . .
115(11) . . .
103(10) . . .
133(12) . . .
113(11) . . .
124(11) . . .
111(11) . . .
109(10) . . .
117(11) . . .
119(11) . . .
117(11) . . .
125(11) . . .
118(11) . . .
107(10) . . .
122(11) . . .
122(11) . . .
127(11) . . .
132(11) . . .
122(11) . . .
103(10) . . .
115(11) . . .
117(11) . . .
119(11) . . .
131(11) . . .
119(11) . . .
106(10) . . .
139(12) . . .
119(11) . . .
115(11) . . .
110(10) . . .
100(10) . . .
112(11) . . .
115(11) . . .
127(11) . . .
117(11) . . .
128(11) . . .
123(11) . . .
123(11) . . .
120(11) . . .
114(11) . . .
133(12) . . .
108(10) . . .
118(11) . . .
108(10) . . .
103(10) . . .
122(11) . . .
114(11) . . .
112(11) . . .
117(11) . . .
120(11) . . .
111(11) . . .
124(11) . . .
118(11) . . .
133(12) . . .
122(11) . . .
132(11) . . .
106(10) . . .
117(11) . . .
123(11) . . .
117(11) . . .
110(10) . . .
129(11) . . .
130(11) . . .
117(11) . . .
107(10) . . .
135(12) . . .
127(11) . . .
116(11) . . .
115(11) . . .
120(11) . . .
138(12) . . .
135(12) . . .
125(11) . . .
116(11) . . .
141(12) . . .
135(12) . . .
124(11) . . .
132(11) . . .
135(12) . . .
113(11) . . .
128(11) . . .
132(11) . . .
112(11) . . .
112(11) . . .
96(10) . . .
116(11) . . .
119(11) . . .
116(11) . . .
108(10) . . .
122(11) . . .
115(11) . . .
125(11) . . .
108(10) . . .
120(11) . . .
134(12) . . .
108(10) . . .
102(10) . . .
106(10) . . .
116(11) . . .
119(11) . . .
119(11) . . .
115(11) . . .
118(11) . . .
131(11) . . .
134(12) . . .
105(10) . . .
116(11) . . .
126(11) . . .
127(11) . . .
113(11) . . .
122(11) . . .
141(12) . . .
121(11) . . .
127(11) . . .
133(12) . . .
104(10) . . .
124(11) . . .
111(11) . . .
121(11) . . .
118(11) . . .
122(11) . . .
143(12) . . .
122(11) . . .
127(11) . . .
119(11) . . .
126(11) . . .
118(11) . . .
135(12) . . .
105(10) . . .
96(10) . . .
118(11) . . .
122(11) . . .
118(11) . . .
125(11) . . .
123(11) . . .
116(11) . . .
121(11) . . .
111(11) . . .
126(11) . . .
111(11) . . .
122(11) . . .
116(11) . . .
116(11) . . .
114(11) . . .
125(11) . . .
129(11) . . .
128(11) . . .
132(11) . . .
111(11) . . .
123(11) . . .
112(11) . . .
137(12) . . .
131(11) . . .
113(11) . . .
137(12) . . .
119(11) . . .
119(11) . . .
136(12) . . .
131(11) . . .
132(11) . . .
145(12) . . .
121(11) . . .
122(11) . . .
106(10) . . .
94(10) . . .
115(11) . . .
131(11) . . .
113(11) . . .
108(10) . . .
104(10) . . .
122(11) . . .
124(11) . . .
125(11) . . .
121(11) . . .
120(11) . . .
126(11) . . .
126(11) . . .
129(11) . . .
138(12) . . .
130(11) . . .
116(11) . . .
120(11) . . .
106(10) . . .
136(12) . . .
126(11) . . .
129(11) . . .
136(12) . . .
114(11) . . .
128(11) . . .
123(11) . . .
106(10) . . .
119(11) . . .
110(10) . . .
136(12) . . .
134(12) . . .
120(11) . . .
125(11) . . .
129(11) . . .
109(10) . . .
114(11) . . .
120(11) . . .
117(11) . . .
136(12) . . .
118(11) . . .
139(12) . . .
132(11) . . .
138(12) . . .
136(12) . . .
113(11) . . .
115(11) . . .
117(11) . . .
121(11) . . .
111(11) . . .
110(10) . . .
140(12) . . .
129(11) . . .
140(12) . . .
116(11) . . .
118(11) . . .
142(12) . . .
109(10) . . .
104(10) . . .
134(12) . . .
150(12) . . .
131(11) . . .
111(11) . . .
130(11) . . .
117(11) . . .
120(11) . . .
130(11) . . .
108(10) . . .
112(11) . . .
119(11) . . .
155(12) . . .
114(11) . . .
124(11) . . .
139(12) . . .
133(12) . . .
130(11) . . .
123(11) . . .
139(12) . . .
124(11) . . .
136(12) . . .
111(11) . . .
126(11) . . .
143(12) . . .
132(11) . . .
115(11) . . .
115(11) . . .
131(11) . . .
121(11) . . .
130(11) . . .
110(10) . . .
121(11) . . .
108(10) . . .
115(11) . . .
116(11) . . .
123(11) . . .
102(10) . . .
92(10) . . .
139(12) . . .
125(11) . . .
117(11) . . .
130(11) . . .
137(12) . . .
135(12) . . .
111(11) . . .
125(11) . . .
137(12) . . .
110(10) . . .
117(11) . . .
143(12) . . .
124(11) . . .
117(11) . . .
108(10) . . .
119(11) . . .
131(11) . . .
117(11) . . .
113(11) . . .
117(11) . . .
109(10) . . .
127(11) . . .
114(11) . . .
129(11) . . .
121(11) . . .
138(12) . . .
129(11) . . .
117(11) . . .
114(11) . . .
120(11) . . .
120(11) . . .
138(12) . . .
115(11) . . .
118(11) . . .
119(11) . . .
120(11) . . .
124(11) . . .
126(11) . . .
110(10) . . .
128(11) . . .
137(12) . . .
125(11) . . .
112(11) . . .
113(11) . . .
107(10) . . .
98(10) . . .
120(11) . . .
126(11) . . .
109(10) . . .
127(11) . . .
136(12) . . .
115(11) . . .
122(11) . . .
132(11) . . .
113(11) . . .
115(11) . . .
117(11) . . .
128(11) . . .
126(11) . . .
127(11) . . .
124(11) . . .
115(11) . . .
96(10) . . .
104(10) . . .
140(12) . . .
101(10) . . .
107(10) . . .
114(11) . . .
109(10) . . .
115(11) . . .
119(11) . . .
127(11) . . .
122(11) . . .
124(11) . . .
126(11) . . .
125(11) . . .
118(11) . . .
139(12) . . .
123(11) . . .
130(11) . . .
126(11) . . .
123(11) . . .
110(10) . . .
126(11) . . .
116(11) . . .
114(11) . . .
127(11) . . .
116(11) . . .
114(11) . . .
114(11) . . .
122(11) . . .
117(11) . . .
113(11) . . .
106(10) . . .
126(11) . . .
130(11) . . .
121(11) . . .
131(11) . . .
133(12) . . .
120(11) . . .
106(10) . . .
119(11) . . .
106(10) . . .
117(11) . . .
120(11) . . .
109(10) . . .
115(11) . . .
124(11) . . .
125(11) . . .
123(11) . . .
126(11) . . .
119(11) . . .
106(10) . . .
110(10) . . .
125(11) . . .
90(9) . . .
116(11) . . .
124(11) . . .
129(11) . . .
128(11) . . .
100(10) . . .
115(11) . . .
124(11) . . .
115(11) . . .
124(11) . . .
120(11) . . .
109(10) . . .
102(10) . . .
112(11) . . .
131(11) . . .
148(12) . . .
135(12) . . .
114(11) . . .
118(11) . . .
106(10) . . .
128(11) . . .
125(11) . . .
101(10) . . .
117(11) . . .
116(11) . . .
105(10) . . .
116(11) . . .
137(12) . . .
108(10) . . .
125(11) . . .
115(11) . . .
104(10) . . .
108(10) . . .
106(10) . . .
106(10) . . .
102(10) . . .
127(11) . . .
109(10) . . .
122(11) . . .
119(11) . . .
126(11) . . .
124(11) . . .
134(12) . . .
110(10) . . .
112(11) . . .
127(11) . . .
115(11) . . .
119(11) . . .
117(11) . . .
116(11) . . .
112(11) . . .
112(11) . . .
132(11) . . .
112(11) . . .
104(10) . . .
124(11) . . .
115(11) . . .
131(11) . . .
119(11) . . .
133(12) . . .
126(11) . . .
116(11) . . .
125(11) . . .
129(11) . . .
125(11) . . .
122(11) . . .
130(11) . . .
111(11) . . .
118(11) . . .
123(11) . . .
134(12) . . .
115(11) . . .
105(10) . . .
125(11) . . .
114(11) . . .
99(10) . . .
116(11) . . .
121(11) . . .
118(11) . . .
127(11) . . .
118(11) . . .
106(10) . . .
138(12) . . .
130(11) . . .
127(11) . . .
101(10) . . .
117(11) . . .
120(11) . . .
106(10) . . .
108(10) . . .
120(11) . . .
111(11) . . .
102(10) . . .
107(10) . . .
105(10) . . .
119(11) . . .
107(10) . . .
121(11) . . .
122(11) . . .
108(10) . . .
110(10) . . .
125(11) . . .
107(10) . . .
121(11) . . .
113(11) . . .
101(10) . . .
107(10) . . .
141(12) . . .
119(11) . . .
118(11) . . .
124(11) . . .
123(11) . . .
118(11) . . .
114(11) . . .
119(11) . . .
115(11) . . .
126(11) . . .
113(11) . . .
126(11) . . .
123(11) . . .
138(12) . . .
106(10) . . .
117(11) . . .
99(10) . . .
123(11) . . .
135(12) . . .
128(11) . . .
114(11) . . .
108(10) . . .
126(11) . . .
109(10) . . .
118(11) . . .
103(10) . . .
109(10) . . .
105(10) . . .
121(11) . . .
115(11) . . .
117(11) . . .
107(10) . . .
125(11) . . .
123(11) . . .
101(10) . . .
119(11) . . .
113(11) . . .
97(10) . . .
118(11) . . .
91(10) . . .
108(10) . . .
117(11) . . .
102(10) . . .
124(11) . . .
115(11) . . .
95(10) . . .
124(11) . . .
121(11) . . .
101(10) . . .
114(11) . . .
133(12) . . .
127(11) . . .
112(11) . . .
115(11) . . .
109(10) . . .
117(11) . . .
130(11) . . .
112(11) . . .
116(11) . . .
104(10) . . .
119(11) . . .
119(11) . . .
109(10) . . .
125(11) . . .
117(11) . . .
121(11) . . .
129(11) . . .
124(11) . . .
127(11) . . .
117(11) . . .
105(10) . . .
118(11) . . .
122(11) . . .
129(11) . . .
110(10) . . .
107(10) . . .
108(10) . . .
111(11) . . .
119(11) . . .
133(12) . . .
112(11) . . .
114(11) . . .
125(11) . . .
129(11) . . .
114(11) . . .
128(11) . . .
114(11) . . .
122(11) . . .
111(11) . . .
110(10) . . .
89(9) . . .
111(11) . . .
127(11) . . .
118(11) . . .
111(11) . . .
102(10) . . .
110(10) . . .
129(11) . . .
105(10) . . .
119(11) . . .
129(11) . . .
119(11) . . .
124(11) . . .
122(11) . . .
111(11) . . .
111(11) . . .
131(11) . . .
115(11) . . .
120(11) . . .
118(11) . . .
100(10) . . .
109(10) . . .
126(11) . . .
115(11) . . .
113(11) . . .
113(11) . . .
133(12) . . .
130(11) . . .
103(10) . . .
120(11) . . .
130(11) . . .
111(11) . . .
113(11) . . .
137(12) . . .
120(11) . . .
103(10) . . .
112(11) . . .
117(11) . . .
116(11) . . .
119(11) . . .
121(11) . . .
117(11) . . .
109(10) . . .
113(11) . . .
121(11) . . .
112(11) . . .
112(11) . . .
105(10) . . .
130(11) . . .
123(11) . . .
116(11) . . .
128(11) . . .
114(11) . . .
122(11) . . .
119(11) . . .
105(10) . . .
114(11) . . .
122(11) . . .
123(11) . . .
114(11) . . .
107(10) . . .
104(10) . . .
95(10) . . .
110(10) . . .
113(11) . . .
106(10) . . .
102(10) . . .
101(10) . . .
122(11) . . .
95(10) . . .
101(10) . . .
113(11) . . .
118(11) . . .
109(10) . . .
114(11) . . .
118(11) . . .
120(11) . . .
108(10) . . .
120(11) . . .
108(10) . . .
128(11) . . .
115(11) . . .
115(11) . . .
113(11) . . .
117(11) . . .
128(11) . . .
114(11) . . .
108(10) . . .
115(11) . . .
146(12) . . .
114(11) . . .
98(10) . . .
120(11) . . .
103(10) . . .
118(11) . . .
114(11) . . .
105(10) . . .
115(11) . . .
117(11) . . .
113(11) . . .
123(11) . . .
133(12) . . .
111(11) . . .
124(11) . . .
108(10) . . .
108(10) . . .
115(11) . . .
113(11) . . .
109(10) . . .
128(11) . . .
110(10) . . .
96(10) . . .
119(11) . . .
140(12) . . .
104(10) . . .
101(10) . . .
123(11) . . .
112(11) . . .
104(10) . . .
110(10) . . .
126(11) . . .
99(10) . . .
112(11) . . .
114(11) . . .
122(11) . . .
123(11) . . .
121(11) . . .
117(11) . . .
121(11) . . .
107(10) . . .
116(11) . . .
114(11) . . .
133(12) . . .
112(11) . . .
111(11) . . .
109(10) . . .
108(10) . . .
96(10) . . .
115(11) . . .
126(11) . . .
115(11) . . .
114(11) . . .
124(11) . . .
102(10) . . .
109(10) . . .
125(11) . . .
104(10) . . .
113(11) . . .
115(11) . . .
116(11) . . .
106(10) . . .
129(11) . . .
115(11) . . .
125(11) . . .
111(11) . . .
114(11) . . .
134(12) . . .
109(10) . . .
116(11) . . .
135(12) . . .
128(11) . . .
110(10) . . .
104(10) . . .
129(11) . . .
114(11) . . .
110(10) . . .
107(10) . . .
134(12) . . .
118(11) . . .
117(11) . . .
112(11) . . .
117(11) . . .
101(10) . . .
126(11) . . .
134(12) . . .
112(11) . . .
113(11) . . .
104(10) . . .
124(11) . . .
122(11) . . .
107(10) . . .
120(11) . . .
129(11) . . .
114(11) . . .
116(11) . . .
112(11) . . .
122(11) . . .
113(11) . . .
127(11) . . .
110(10) . . .
111(11) . . .
122(11) . . .
119(11) . . .
115(11) . . .
117(11) . . .
117(11) . . .
110(10) . . .
123(11) . . .
136(12) . . .
113(11) . . .
107(10) . . .
130(11) . . .
125(11) . . .
132(11) . . .
108(10) . . .
103(10) . . .
115(11) . . .
126(11) . . .
118(11) . . .
119(11) . . .
127(11) . . .
120(11) . . .
127(11) . . .
110(10) . . .
115(11) . . .
120(11) . . .
127(11) . . .
106(10) . . .
125(11) . . .
128(11) . . .
125(11) . . .
112(11) . . .
116(11) . . .
107(10) . . .
112(11) . . .
134(12) . . .
116(11) . . .
114(11) . . .
120(11) . . .
106(10) . . .
112(11) . . .
117(11) . . .
118(11) . . .
107(10) . . .
111(11) . . .
120(11) . . .
131(11) . . .
115(11) . . .
127(11) . . .
120(11) . . .
113(11) . . .
130(11) . . .
133(12) . . .
101(10) . . .
127(11) . . .
117(11) . . .
117(11) . . .
120(11) . . .
125(11) . . .
110(10) . . .
119(11) . . .
125(11) . . .
128(11) . . .
112(11) . . .
122(11) . . .
108(10) . . .
112(11) . . .
113(11) . . .
115(11) . . .
121(11) . . .
130(11) . . .
117(11) . . .
119(11) . . .
112(11) . . .
126(11) . . .
121(11) . . .
136(12) . . .
116(11) . . .
120(11) . . .
98(10) . . .
132(11) . . .
112(11) . . .
119(11) . . .
126(11) . . .
113(11) . . .
123(11) . . .
133(12) . . .
115(11) . . .
122(11) . . .
107(10) . . .
120(11) . . .
133(12) . . .
128(11) . . .
132(11) . . .
127(11) . . .
120(11) . . .
116(11) . . .
126(11) . . .
122(11) . . .
123(11) . . .
120(11) . . .
109(10) . . .
125(11) . . .
132(11) . . .
155(12) . . .
104(10) . . .
128(11) . . .
118(11) . . .
112(11) . . .
122(11) . . .
109(10) . . .
107(10) . . .
127(11) . . .
113(11) . . .
120(11) . . .
94(10) . . .
133(12) . . .
118(11) . . .
123(11) . . .
136(12) . . .
127(11) . . .
107(10) . . .
133(12) . . .
115(11) . . .
125(11) . . .
130(11) . . .
117(11) . . .
109(10) . . .
124(11) . . .
116(11) . . .
110(10) . . .
108(10) . . .
116(11) . . .
127(11) . . .
135(12) . . .
116(11) . . .
124(11) . . .
108(10) . . .
117(11) . . .
134(12) . . .
115(11) . . .
129(11) . . .
139(12) . . .
119(11) . . .
131(11) . . .
117(11) . . .
119(11) . . .
132(11) . . .
102(10) . . .
109(10) . . .
111(11) . . .
106(10) . . .
105(10) . . .
136(12) . . .
132(11) . . .
132(11) . . .
125(11) . . .
134(12) . . .
140(12) . . .
133(12) . . .
128(11) . . .
126(11) . . .
132(11) . . .
150(12) . . .
126(11) . . .
122(11) . . .
122(11) . . .
133(12) . . .
131(11) . . .
140(12) . . .
139(12) . . .
138(12) . . .
143(12) . . .
137(12) . . .
126(11) . . .
127(11) . . .
130(11) . . .
144(12) . . .
144(12) . . .
122(11) . . .
122(11) . . .
118(11) . . .
116(11) . . .
132(11) . . .
119(11) . . .
109(10) . . .
128(11) . . .
114(11) . . .
123(11) . . .
131(11) . . .
134(12) . . .
141(12) . . .
147(12) . . .
119(11) . . .
109(10) . . .
133(12) . . .
116(11) . . .
131(11) . . .
126(11) . . .
135(12) . . .
137(12) . . .
154(12) . . .
140(12) . . .
135(12) . . .
161(13) . . .
139(12) . . .
152(12) . . .
146(12) . . .
154(12) . . .
132(11) . . .
128(11) . . .
166(13) . . .
144(12) . . .
157(13) . . .
146(12) . . .
152(12) . . .
155(12) . . .
141(12) . . .
145(12) . . .
142(12) . . .
147(12) . . .
143(12) . . .
150(12) . . .
150(12) . . .
184(14) . . .
153(12) . . .
161(13) . . .
167(13) . . .
169(13) . . .
160(13) . . .
163(13) . . .
173(13) . . .
160(13) . . .
166(13) . . .
155(12) . . .
187(14) . . .
203(14) . . .
183(14) . . .
185(14) . . .
194(14) . . .
189(14) . . .
177(13) . . .
196(14) . . .
194(14) . . .
192(14) . . .
203(14) . . .
223(15) . . .
204(14) . . .
209(14) . . .
223(15) . . .
233(15) . . .
245(16) . . .
254(16) . . .
238(15) . . .
234(15) . . .
259(16) . . .
271(16) . . .
249(16) . . .
258(16) . . .
272(16) . . .
259(16) . . .
281(17) . . .
282(17) . . .
325(18) . . .
320(18) . . .
340(18) . . .
363(19) . . .
388(20) . . .
386(20) . . .
366(19) . . .
348(19) . . .
411(20) . . .
439(21) . . .
438(21) . . .
479(22) . . .
458(21) . . .
456(21) . . .
509(23) . . .
518(23) . . .
528(23) . . .
539(23) . . .
574(24) . . .
582(24) . . .
599(24) . . .
572(24) . . .
644(25) . . .
619(25) . . .
613(25) . . .
659(26) . . .
591(24) . . .
669(26) . . .
620(25) . . .
664(26) . . .
664(26) . . .
668(26) . . .
675(26) . . .
657(26) . . .
647(25) . . .
649(25) . . .
653(26) . . .
664(26) . . .
644(25) . . .
605(25) . . .
629(25) . . .
588(24) . . .
560(24) . . .
574(24) . . .
583(24) . . .
519(23) . . .
534(23) . . .
470(22) . . .
503(22) . . .
479(22) . . .
466(22) . . .
450(21) . . .
440(21) . . .
420(20) . . .
389(20) . . .
407(20) . . .
354(19) . . .
351(19) . . .
343(19) . . .
343(19) . . .
324(18) . . .
344(19) . . .
320(18) . . .
323(18) . . .
273(17) . . .
300(17) . . .
299(17) . . .
269(16) . . .
258(16) . . .
263(16) . . .
269(16) . . .
245(16) . . .
233(15) . . .
240(15) . . .
212(15) . . .
212(15) . . .
207(14) . . .
197(14) . . .
218(15) . . .
191(14) . . .
199(14) . . .
184(14) . . .
182(13) . . .
191(14) . . .
188(14) . . .
174(13) . . .
170(13) . . .
185(14) . . .
174(13) . . .
162(13) . . .
169(13) . . .
166(13) . . .
173(13) . . .
194(14) . . .
183(14) . . .
186(14) . . .
171(13) . . .
152(12) . . .
167(13) . . .
162(13) . . .
156(12) . . .
138(12) . . .
156(12) . . .
164(13) . . .
158(13) . . .
159(13) . . .
154(12) . . .
162(13) . . .
152(12) . . .
137(12) . . .
137(12) . . .
151(12) . . .
148(12) . . .
146(12) . . .
132(11) . . .
135(12) . . .
163(13) . . .
143(12) . . .
146(12) . . .
140(12) . . .
144(12) . . .
145(12) . . .
143(12) . . .
150(12) . . .
117(11) . . .
124(11) . . .
136(12) . . .
135(12) . . .
139(12) . . .
137(12) . . .
130(11) . . .
128(11) . . .
130(11) . . .
162(13) . . .
136(12) . . .
139(12) . . .
124(11) . . .
131(11) . . .
132(11) . . .
113(11) . . .
123(11) . . .
116(11) . . .
121(11) . . .
116(11) . . .
132(11) . . .
131(11) . . .
120(11) . . .
114(11) . . .
125(11) . . .
134(12) . . .
127(11) . . .
130(11) . . .
129(11) . . .
132(11) . . .
118(11) . . .
121(11) . . .
110(10) . . .
123(11) . . .
124(11) . . .
120(11) . . .
131(11) . . .
136(12) . . .
131(11) . . .
112(11) . . .
128(11) . . .
121(11) . . .
124(11) . . .
110(10) . . .
126(11) . . .
131(11) . . .
123(11) . . .
130(11) . . .
125(11) . . .
118(11) . . .
114(11) . . .
124(11) . . .
131(11) . . .
129(11) . . .
104(10) . . .
112(11) . . .
109(10) . . .
105(10) . . .
125(11) . . .
117(11) . . .
108(10) . . .
123(11) . . .
116(11) . . .
129(11) . . .
116(11) . . .
111(11) . . .
136(12) . . .
121(11) . . .
104(10) . . .
114(11) . . .
111(11) . . .
115(11) . . .
116(11) . . .
138(12) . . .
107(10) . . .
105(10) . . .
113(11) . . .
119(11) . . .
140(12) . . .
97(10) . . .
113(11) . . .
125(11) . . .
121(11) . . .
100(10) . . .
125(11) . . .
117(11) . . .
128(11) . . .
120(11) . . .
128(11) . . .
111(11) . . .
105(10) . . .
133(12) . . .
118(11) . . .
126(11) . . .
136(12) . . .
106(10) . . .
108(10) . . .
121(11) . . .
99(10) . . .
126(11) . . .
123(11) . . .
111(11) . . .
113(11) . . .
112(11) . . .
128(11) . . .
104(10) . . .
120(11) . . .
139(12) . . .
126(11) . . .
122(11) . . .
117(11) . . .
124(11) . . .
124(11) . . .
121(11) . . .
122(11) . . .
104(10) . . .
129(11) . . .
121(11) . . .
124(11) . . .
129(11) . . .
99(10) . . .
124(11) . . .
126(11) . . .
112(11) . . .
112(11) . . .
100(10) . . .
125(11) . . .
110(10) . . .
102(10) . . .
113(11) . . .
121(11) . . .
127(11) . . .
123(11) . . .
106(10) . . .
126(11) . . .
121(11) . . .
116(11) . . .
119(11) . . .
134(12) . . .
130(11) . . .
102(10) . . .
116(11) . . .
117(11) . . .
119(11) . . .
99(10) . . .
126(11) . . .
109(10) . . .
125(11) . . .
122(11) . . .
103(10) . . .
97(10) . . .
99(10) . . .
107(10) . . .
118(11) . . .
125(11) . . .
103(10) . . .
107(10) . . .
118(11) . . .
109(10) . . .
118(11) . . .
115(11) . . .
108(10) . . .
109(10) . . .
112(11) . . .
110(10) . . .
128(11) . . .
116(11) . . .
105(10) . . .
132(11) . . .
114(11) . . .
105(10) . . .
119(11) . . .
125(11) . . .
113(11) . . .
132(11) . . .
110(10) . . .
106(10) . . .
96(10) . . .
128(11) . . .
110(10) . . .
110(10) . . .
123(11) . . .
125(11) . . .
126(11) . . .
122(11) . . .
123(11) . . .
122(11) . . .
99(10) . . .
121(11) . . .
116(11) . . .
118(11) . . .
128(11) . . .
126(11) . . .
100(10) . . .
127(11) . . .
98(10) . . .
115(11) . . .
118(11) . . .
123(11) . . .
98(10) . . .
102(10) . . .
121(11) . . .
106(10) . . .
102(10) . . .
111(11) . . .
114(11) . . .
108(10) . . .
115(11) . . .
111(11) . . .
106(10) . . .
106(10) . . .
111(11) . . .
143(12) . . .
117(11) . . .
93(10) . . .
103(10) . . .
114(11) . . .
113(11) . . .
131(11) . . .
133(12) . . .
120(11) . . .
107(10) . . .
112(11) . . .
127(11) . . .
103(10) . . .
128(11) . . .
116(11) . . .
105(10) . . .
114(11) . . .
112(11) . . .
106(10) . . .
110(10) . . .
118(11) . . .
131(11) . . .
122(11) . . .
111(11) . . .
126(11) . . .
132(11) . . .
119(11) . . .
107(10) . . .
130(11) . . .
130(11) . . .
104(10) . . .
112(11) . . .
96(10) . . .
107(10) . . .
107(10) . . .
116(11) . . .
116(11) . . .
97(10) . . .
120(11) . . .
106(10) . . .
121(11) . . .
111(11) . . .
127(11) . . .
115(11) . . .
125(11) . . .
108(10) . . .
120(11) . . .
112(11) . . .
106(10) . . .
121(11) . . .
117(11) . . .
125(11) . . .
122(11) . . .
115(11) . . .
129(11) . . .
124(11) . . .
126(11) . . .
133(12) . . .
121(11) . . .
116(11) . . .
110(10) . . .
108(10) . . .
120(11) . . .
131(11) . . .
132(11) . . .
119(11) . . .
117(11) . . .
120(11) . . .
94(10) . . .
131(11) . . .
123(11) . . .
109(10) . . .
123(11) . . .
130(11) . . .
99(10) . . .
116(11) . . .
123(11) . . .
139(12) . . .
113(11) . . .
137(12) . . .
105(10) . . .
115(11) . . .
104(10) . . .
105(10) . . .
101(10) . . .
126(11) . . .
114(11) . . .
118(11) . . .
134(12) . . .
123(11) . . .
94(10) . . .
120(11) . . .
125(11) . . .
115(11) . . .
107(10) . . .
134(12) . . .
116(11) . . .
124(11) . . .
120(11) . . .
125(11) . . .
119(11) . . .
119(11) . . .
101(10) . . .
116(11) . . .
95(10) . . .
109(10) . . .
110(10) . . .
117(11) . . .
136(12) . . .
110(10) . . .
130(11) . . .
129(11) . . .
106(10) . . .
114(11) . . .
97(10) . . .
126(11) . . .
114(11) . . .
126(11) . . .
140(12) . . .
133(12) . . .
119(11) . . .
102(10) . . .
111(11) . . .
112(11) . . .
122(11) . . .
119(11) . . .
132(11) . . .
91(10) . . .
112(11) . . .
110(10) . . .
103(10) . . .
112(11) . . .
105(10) . . .
98(10) . . .
111(11) . . .
124(11) . . .
128(11) . . .
115(11) . . .
102(10) . . .
116(11) . . .
108(10) . . .
117(11) . . .
122(11) . . .
105(10) . . .
104(10) . . .
110(10) . . .
109(10) . . .
119(11) . . .
114(11) . . .
119(11) . . .
101(10) . . .
111(11) . . .
110(10) . . .
129(11) . . .
113(11) . . .
122(11) . . .
112(11) . . .
111(11) . . .
122(11) . . .
123(11) . . .
123(11) . . .
118(11) . . .
112(11) . . .
104(10) . . .
107(10) . . .
133(12) . . .
111(11) . . .
114(11) . . .
108(10) . . .
112(11) . . .
119(11) . . .
98(10) . . .
117(11) . . .
126(11) . . .
118(11) . . .
113(11) . . .
110(10) . . .
116(11) . . .
114(11) . . .
124(11) . . .
112(11) . . .
136(12) . . .
112(11) . . .
106(10) . . .
110(10) . . .
114(11) . . .
112(11) . . .
121(11) . . .
114(11) . . .
112(11) . . .
112(11) . . .
130(11) . . .
105(10) . . .
93(10) . . .
112(11) . . .
116(11) . . .
99(10) . . .
115(11) . . .
124(11) . . .
109(10) . . .
100(10) . . .
120(11) . . .
108(10) . . .
109(10) . . .
111(11) . . .
106(10) . . .
128(11) . . .
115(11) . . .
124(11) . . .
122(11) . . .
113(11) . . .
123(11) . . .
126(11) . . .
132(11) . . .
113(11) . . .
109(10) . . .
106(10) . . .
111(11) . . .
105(10) . . .
127(11) . . .
122(11) . . .
109(10) . . .
112(11) . . .
111(11) . . .
111(11) . . .
119(11) . . .
119(11) . . .
99(10) . . .
114(11) . . .
126(11) . . .
116(11) . . .
104(10) . . .
114(11) . . .
107(10) . . .
127(11) . . .
122(11) . . .
96(10) . . .
108(10) . . .
118(11) . . .
108(10) . . .
119(11) . . .
116(11) . . .
126(11) . . .
119(11) . . .
93(10) . . .
115(11) . . .
110(10) . . .
110(10) . . .
115(11) . . .
123(11) . . .
110(10) . . .
117(11) . . .
121(11) . . .
121(11) . . .
119(11) . . .
116(11) . . .
130(11) . . .
132(11) . . .
123(11) . . .
111(11) . . .
120(11) . . .
109(10) . . .
130(11) . . .
115(11) . . .
118(11) . . .
116(11) . . .
126(11) . . .
125(11) . . .
102(10) . . .
119(11) . . .
128(11) . . .
108(10) . . .
104(10) . . .
108(10) . . .
111(11) . . .
90(9) . . .
113(11) . . .
123(11) . . .
118(11) . . .
126(11) . . .
119(11) . . .
108(10) . . .
119(11) . . .
125(11) . . .
129(11) . . .
114(11) . . .
126(11) . . .
126(11) . . .
103(10) . . .
109(10) . . .
117(11) . . .
107(10) . . .
104(10) . . .
112(11) . . .
114(11) . . .
121(11) . . .
121(11) . . .
109(10) . . .
113(11) . . .
120(11) . . .
98(10) . . .
107(10) . . .
117(11) . . .
116(11) . . .
116(11) . . .
114(11) . . .
122(11) . . .
121(11) . . .
115(11) . . .
116(11) . . .
125(11) . . .
97(10) . . .
115(11) . . .
107(10) . . .
111(11) . . .
122(11) . . .
117(11) . . .
104(10) . . .
120(11) . . .
127(11) . . .
121(11) . . .
110(10) . . .
120(11) . . .
124(11) . . .
118(11) . . .
130(11) . . .
120(11) . . .
106(10) . . .
116(11) . . .
117(11) . . .
122(11) . . .
102(10) . . .
107(10) . . .
109(10) . . .
103(10) . . .
105(10) . . .
109(10) . . .
117(11) . . .
106(10) . . .
119(11) . . .
135(12) . . .
119(11) . . .
109(10) . . .
117(11) . . .
104(10) . . .
108(10) . . .
107(10) . . .
126(11) . . .
99(10) . . .
113(11) . . .
107(10) . . .
114(11) . . .
118(11) . . .
110(10) . . .
109(10) . . .
104(10) . . .
122(11) . . .
116(11) . . .
122(11) . . .
128(11) . . .
103(10) . . .
135(12) . . .
116(11) . . .
124(11) . . .
131(11) . . .
112(11) . . .
132(11) . . .
97(10) . . .
123(11) . . .
126(11) . . .
111(11) . . .
106(10) . . .
125(11) . . .
137(12) . . .
112(11) . . .
118(11) . . .
108(10) . . .
105(10) . . .
103(10) . . .
121(11) . . .
115(11) . . .
103(10) . . .
112(11) . . .
123(11) . . .
131(11) . . .
120(11) . . .
114(11) . . .
116(11) . . .
123(11) . . .
114(11) . . .
127(11) . . .
103(10) . . .
107(10) . . .
100(10) . . .
94(10) . . .
101(10) . . .
108(10) . . .
125(11) . . .
104(10) . . .
110(10) . . .
102(10) . . .
114(11) . . .
101(10) . . .
122(11) . . .
115(11) . . .
110(10) . . .
114(11) . . .
119(11) . . .
103(10) . . .
117(11) . . .
111(11) . . .
112(11) . . .
99(10) . . .
117(11) . . .
114(11) . . .
131(11) . . .
133(12) . . .
110(10) . . .
107(10) . . .
115(11) . . .
124(11) . . .
122(11) . . .
131(11) . . .
105(10) . . .
116(11) . . .
114(11) . . .
124(11) . . .
113(11) . . .
110(10) . . .
117(11) . . .
119(11) . . .
122(11) . . .
113(11) . . .
112(11) . . .
109(10) . . .
109(10) . . .
121(11) . . .
108(10) . . .
110(10) . . .
92(10) . . .
114(11) . . .
109(10) . . .
127(11) . . .
125(11) . . .
109(10) . . .
129(11) . . .
107(10) . . .
135(12) . . .
118(11) . . .
108(10) . . .
124(11) . . .
122(11) . . .
128(11) . . .
117(11) . . .
118(11) . . .
140(12) . . .
107(10) . . .
121(11) . . .
121(11) . . .
112(11) . . .
119(11) . . .
108(10) . . .
111(11) . . .
112(11) . . .
109(10) . . .
98(10) . . .
114(11) . . .
120(11) . . .
129(11) . . .
118(11) . . .
119(11) . . .
121(11) . . .
119(11) . . .
108(10) . . .
114(11) . . .
119(11) . . .
93(10) . . .
119(11) . . .
105(10) . . .
118(11) . . .
121(11) . . .
118(11) . . .
117(11) . . .
111(11) . . .
116(11) . . .
129(11) . . .
119(11) . . .
129(11) . . .
112(11) . . .
114(11) . . .
107(10) . . .
95(10) . . .
124(11) . . .
116(11) . . .
99(10) . . .
121(11) . . .
115(11) . . .
113(11) . . .
103(10) . . .
122(11) . . .
125(11) . . .
114(11) . . .
123(11) . . .
89(9) . . .
127(11) . . .
137(12) . . .
114(11) . . .
120(11) . . .
124(11) . . .
113(11) . . .
103(10) . . .
108(10) . . .
110(10) . . .
119(11) . . .
117(11) . . .
113(11) . . .
110(10) . . .
114(11) . . .
109(10) . . .
121(11) . . .
103(10) . . .
109(10) . . .
108(10) . . .
122(11) . . .
103(10) . . .
106(10) . . .
96(10) . . .
115(11) . . .
109(10) . . .
129(11) . . .
137(12) . . .
115(11) . . .
106(10) . . .
106(10) . . .
109(10) . . .
113(11) . . .
132(11) . . .
126(11) . . .
109(10) . . .
119(11) . . .
122(11) . . .
113(11) . . .
109(10) . . .
124(11) . . .
114(11) . . .
137(12) . . .
110(10) . . .
118(11) . . .
100(10) . . .
95(10) . . .
122(11) . . .
123(11) . . .
115(11) . . .
101(10) . . .
112(11) . . .
117(11) . . .
116(11) . . .
110(10) . . .
106(10) . . .
113(11) . . .
103(10) . . .
110(10) . . .
119(11) . . .
109(10) . . .
116(11) . . .
115(11) . . .
115(11) . . .
128(11) . . .
108(10) . . .
118(11) . . .
117(11) . . .
126(11) . . .
124(11) . . .
123(11) . . .
108(10) . . .
119(11) . . .
120(11) . . .
108(10) . . .
120(11) . . .
124(11) . . .
114(11) . . .
106(10) . . .
127(11) . . .
127(11) . . .
112(11) . . .
124(11) . . .
122(11) . . .
125(11) . . .
121(11) . . .
133(12) . . .
118(11) . . .
113(11) . . .
107(10) . . .
128(11) . . .
115(11) . . .
112(11) . . .
128(11) . . .
132(11) . . .
118(11) . . .
122(11) . . .
122(11) . . .
114(11) . . .
134(12) . . .
127(11) . . .
119(11) . . .
122(11) . . .
134(12) . . .
114(11) . . .
118(11) . . .
119(11) . . .
138(12) . . .
120(11) . . .
114(11) . . .
111(11) . . .
112(11) . . .
102(10) . . .
113(11) . . .
125(11) . . .
117(11) . . .
100(10) . . .
116(11) . . .
113(11) . . .
110(10) . . .
126(11) . . .
122(11) . . .
125(11) . . .
119(11) . . .
145(12) . . .
116(11) . . .
126(11) . . .
129(11) . . .
117(11) . . .
119(11) . . .
119(11) . . .
108(10) . . .
123(11) . . .
122(11) . . .
114(11) . . .
113(11) . . .
138(12) . . .
106(10) . . .
122(11) . . .
123(11) . . .
145(12) . . .
121(11) . . .
128(11) . . .
111(11) . . .
113(11) . . .
109(10) . . .
132(11) . . .
124(11) . . .
114(11) . . .
107(10) . . .
115(11) . . .
115(11) . . .
121(11) . . .
130(11) . . .
103(10) . . .
117(11) . . .
122(11) . . .
123(11) . . .
121(11) . . .
109(10) . . .
121(11) . . .
103(10) . . .
101(10) . . .
121(11) . . .
109(10) . . .
111(11) . . .
133(12) . . .
112(11) . . .
110(10) . . .
112(11) . . .
119(11) . . .
125(11) . . .
114(11) . . .
126(11) . . .
118(11) . . .
113(11) . . .
123(11) . . .
114(11) . . .
123(11) . . .
131(11) . . .
123(11) . . .
131(11) . . .
115(11) . . .
110(10) . . .
115(11) . . .
120(11) . . .
111(11) . . .
112(11) . . .
105(10) . . .
127(11) . . .
115(11) . . .
124(11) . . .
121(11) . . .
120(11) . . .
105(10) . . .
121(11) . . .
115(11) . . .
106(10) . . .
116(11) . . .
124(11) . . .
128(11) . . .
115(11) . . .
122(11) . . .
123(11) . . .
118(11) . . .
133(12) . . .
123(11) . . .
112(11) . . .
138(12) . . .
115(11) . . .
138(12) . . .
141(12) . . .
118(11) . . .
120(11) . . .
115(11) . . .
125(11) . . .
103(10) . . .
119(11) . . .
112(11) . . .
118(11) . . .
116(11) . . .
119(11) . . .
124(11) . . .
123(11) . . .
119(11) . . .
119(11) . . .
128(11) . . .
113(11) . . .
128(11) . . .
119(11) . . .
130(11) . . .
129(11) . . .
109(10) . . .
151(12) . . .
107(10) . . .
129(11) . . .
127(11) . . .
128(11) . . .
144(12) . . .
122(11) . . .
129(11) . . .
138(12) . . .
110(10) . . .
117(11) . . .
126(11) . . .
101(10) . . .
108(10) . . .
123(11) . . .
118(11) . . .
120(11) . . .
136(12) . . .
140(12) . . .
121(11) . . .
132(11) . . .
114(11) . . .
124(11) . . .
136(12) . . .
106(10) . . .
112(11) . . .
135(12) . . .
127(11) . . .
126(11) . . .
131(11) . . .
115(11) . . .
130(11) . . .
132(11) . . .
116(11) . . .
141(12) . . .
107(10) . . .
106(10) . . .
117(11) . . .
106(10) . . .
106(10) . . .
120(11) . . .
130(11) . . .
132(11) . . .
137(12) . . .
113(11) . . .
127(11) . . .
130(11) . . .
111(11) . . .
115(11) . . .
151(12) . . .
140(12) . . .
131(11) . . .
129(11) . . .
152(12) . . .
118(11) . . .
133(12) . . .
139(12) . . .
138(12) . . .
150(12) . . .
108(10) . . .
129(11) . . .
114(11) . . .
127(11) . . .
109(10) . . .
124(11) . . .
115(11) . . .
140(12) . . .
117(11) . . .
111(11) . . .
124(11) . . .
134(12) . . .
124(11) . . .
120(11) . . .
112(11) . . .
155(12) . . .
137(12) . . .
123(11) . . .
133(12) . . .
134(12) . . .
128(11) . . .
126(11) . . .
115(11) . . .
128(11) . . .
155(12) . . .
139(12) . . .
131(11) . . .
126(11) . . .
142(12) . . .
132(11) . . .
124(11) . . .
146(12) . . .
132(11) . . .
145(12) . . .
132(11) . . .
151(12) . . .
156(12) . . .
153(12) . . .
144(12) . . .
150(12) . . .
120(11) . . .
141(12) . . .
143(12) . . .
133(12) . . .
139(12) . . .
129(11) . . .
139(12) . . .
145(12) . . .
141(12) . . .
144(12) . . .
167(13) . . .
128(11) . . .
137(12) . . .
138(12) . . .
155(12) . . .
111(11) . . .
150(12) . . .
149(12) . . .
159(13) . . .
155(12) . . .
145(12) . . .
153(12) . . .
156(12) . . .
184(14) . . .
169(13) . . .
145(12) . . .
148(12) . . .
171(13) . . .
148(12) . . .
169(13) . . .
142(12) . . .
175(13) . . .
162(13) . . .
153(12) . . .
149(12) . . .
153(12) . . .
154(12) . . .
173(13) . . .
173(13) . . .
184(14) . . .
178(13) . . .
170(13) . . .
181(13) . . .
181(13) . . .
161(13) . . .
158(13) . . .
189(14) . . .
158(13) . . .
159(13) . . .
167(13) . . .
169(13) . . .
168(13) . . .
184(14) . . .
186(14) . . .
209(14) . . .
179(13) . . .
190(14) . . .
178(13) . . .
205(14) . . .
189(14) . . .
197(14) . . .
209(14) . . .
188(14) . . .
207(14) . . .
221(15) . . .
224(15) . . .
226(15) . . .
207(14) . . .
232(15) . . .
220(15) . . .
236(15) . . .
225(15) . . .
219(15) . . .
218(15) . . .
212(15) . . .
250(16) . . .
237(15) . . .
237(15) . . .
248(16) . . .
263(16) . . .
249(16) . . .
288(17) . . .
257(16) . . .
284(17) . . .
288(17) . . .
287(17) . . .
281(17) . . .
300(17) . . .
311(18) . . .
295(17) . . .
305(17) . . .
305(17) . . .
329(18) . . .
321(18) . . .
337(18) . . .
340(18) . . .
342(18) . . .
340(18) . . .
378(19) . . .
362(19) . . .
362(19) . . .
396(20) . . .
393(20) . . .
401(20) . . .
451(21) . . .
417(20) . . .
508(23) . . .
525(23) . . .
509(23) . . .
505(22) . . .
496(22) . . .
550(23) . . .
566(24) . . .
604(25) . . .
609(25) . . .
603(25) . . .
678(26) . . .
682(26) . . .
677(26) . . .
702(26) . . .
727(27) . . .
752(27) . . .
801(28) . . .
784(28) . . .
815(29) . . .
876(30) . . .
915(30) . . .
912(30) . . .
958(31) . . .
980(31) . . .
1014(32) . . .
1055(32) . . .
1056(32) . . .
1079(33) . . .
1178(34) . . .
1158(34) . . .
1173(34) . . .
1165(34) . . .
1298(36) . . .
1286(36) . . .
1275(36) . . .
1266(36) . . .
1302(36) . . .
1362(37) . . .
1316(36) . . .
1291(36) . . .
1350(37) . . .
1346(37) . . .
1376(37) . . .
1397(37) . . .
1382(37) . . .
1421(38) . . .
1353(37) . . .
1406(37) . . .
1305(36) . . .
1333(37) . . .
1301(36) . . .
1314(36) . . .
1311(36) . . .
1237(35) . . .
1264(36) . . .
1258(35) . . .
1219(35) . . .
1171(34) . . .
1190(34) . . .
1089(33) . . .
1194(35) . . .
1125(34) . . .
1037(32) . . .
1030(32) . . .
994(32) . . .
883(30) . . .
956(31) . . .
885(30) . . .
885(30) . . .
875(30) . . .
818(29) . . .
804(28) . . .
747(27) . . .
691(26) . . .
684(26) . . .
671(26) . . .
626(25) . . .
620(25) . . .
594(24) . . .
560(24) . . .
591(24) . . .
570(24) . . .
530(23) . . .
474(22) . . .
510(23) . . .
526(23) . . .
432(21) . . .
466(22) . . .
423(21) . . .
420(20) . . .
426(21) . . .
393(20) . . .
381(20) . . .
395(20) . . .
385(20) . . .
365(19) . . .
361(19) . . .
342(18) . . .
347(19) . . .
341(18) . . .
332(18) . . .
313(18) . . .
330(18) . . .
297(17) . . .
310(18) . . .
255(16) . . .
288(17) . . .
264(16) . . .
244(16) . . .
267(16) . . .
256(16) . . .
269(16) . . .
260(16) . . .
262(16) . . .
263(16) . . .
251(16) . . .
261(16) . . .
247(16) . . .
205(14) . . .
225(15) . . .
240(15) . . .
238(15) . . .
217(15) . . .
231(15) . . .
201(14) . . .
204(14) . . .
204(14) . . .
199(14) . . .
204(14) . . .
204(14) . . .
202(14) . . .
197(14) . . .
193(14) . . .
202(14) . . .
185(14) . . .
184(14) . . .
209(14) . . .
202(14) . . .
179(13) . . .
185(14) . . .
177(13) . . .
161(13) . . .
160(13) . . .
165(13) . . .
174(13) . . .
192(14) . . .
167(13) . . .
196(14) . . .
170(13) . . .
168(13) . . .
161(13) . . .
147(12) . . .
181(13) . . .
174(13) . . .
164(13) . . .
139(12) . . .
161(13) . . .
162(13) . . .
174(13) . . .
152(12) . . .
157(13) . . .
170(13) . . .
167(13) . . .
168(13) . . .
146(12) . . .
157(13) . . .
167(13) . . .
167(13) . . .
159(13) . . .
161(13) . . .
161(13) . . .
150(12) . . .
165(13) . . .
176(13) . . .
157(13) . . .
162(13) . . .
141(12) . . .
146(12) . . .
136(12) . . .
134(12) . . .
151(12) . . .
143(12) . . .
160(13) . . .
152(12) . . .
130(11) . . .
137(12) . . .
141(12) . . .
137(12) . . .
144(12) . . .
149(12) . . .
158(13) . . .
151(12) . . .
130(11) . . .
148(12) . . .
157(13) . . .
139(12) . . .
144(12) . . .
166(13) . . .
145(12) . . .
154(12) . . .
155(12) . . .
124(11) . . .
127(11) . . .
133(12) . . .
147(12) . . .
140(12) . . .
145(12) . . .
156(12) . . .
123(11) . . .
135(12) . . .
141(12) . . .
148(12) . . .
132(11) . . .
130(11) . . .
147(12) . . .
119(11) . . .
138(12) . . .
132(11) . . .
126(11) . . .
141(12) . . .
130(11) . . .
137(12) . . .
139(12) . . .
130(11) . . .
143(12) . . .
143(12) . . .
134(12) . . .
133(12) . . .
127(11) . . .
143(12) . . .
135(12) . . .
130(11) . . .
127(11) . . .
128(11) . . .
135(12) . . .
113(11) . . .
141(12) . . .
136(12) . . .
136(12) . . .
131(11) . . .
144(12) . . .
127(11) . . .
124(11) . . .
134(12) . . .
127(11) . . .
133(12) . . .
141(12) . . .
135(12) . . .
112(11) . . .
143(12) . . .
144(12) . . .
134(12) . . .
156(12) . . .
136(12) . . .
140(12) . . .
126(11) . . .
134(12) . . .
124(11) . . .
126(11) . . .
135(12) . . .
131(11) . . .
138(12) . . .
124(11) . . .
123(11) . . .
122(11) . . .
130(11) . . .
118(11) . . .
125(11) . . .
141(12) . . .
119(11) . . .
130(11) . . .
136(12) . . .
127(11) . . .
136(12) . . .
126(11) . . .
141(12) . . .
141(12) . . .
142(12) . . .
131(11) . . .
127(11) . . .
147(12) . . .
149(12) . . .
128(11) . . .
142(12) . . .
134(12) . . .
122(11) . . .
134(12) . . .
132(11) . . .
130(11) . . .
128(11) . . .
144(12) . . .
121(11) . . .
135(12) . . .
129(11) . . .
143(12) . . .
125(11) . . .
141(12) . . .
139(12) . . .
126(11) . . .
133(12) . . .
133(12) . . .
122(11) . . .
129(11) . . .
144(12) . . .
126(11) . . .
114(11) . . .
117(11) . . .
133(12) . . .
125(11) . . .
147(12) . . .
132(11) . . .
139(12) . . .
127(11) . . .
119(11) . . .
124(11) . . .
146(12) . . .
110(10) . . .
130(11) . . .
126(11) . . .
129(11) . . .
143(12) . . .
138(12) . . .
123(11) . . .
138(12) . . .
124(11) . . .
119(11) . . .
126(11) . . .
112(11) . . .
122(11) . . .
115(11) . . .
150(12) . . .
135(12) . . .
125(11) . . .
145(12) . . .
125(11) . . .
139(12) . . .
140(12) . . .
139(12) . . .
146(12) . . .
127(11) . . .
129(11) . . .
121(11) . . .
145(12) . . .
125(11) . . .
128(11) . . .
130(11) . . .
131(11) . . .
133(12) . . .
136(12) . . .
125(11) . . .
134(12) . . .
138(12) . . .
140(12) . . .
121(11) . . .
135(12) . . .
142(12) . . .
130(11) . . .
134(12) . . .
140(12) . . .
124(11) . . .
146(12) . . .
149(12) . . .
145(12) . . .
121(11) . . .
152(12) . . .
174(13) . . .
166(13) . . .
161(13) . . .
128(11) . . .
136(12) . . .
153(12) . . .
153(12) . . .
147(12) . . .
134(12) . . .
122(11) . . .
139(12) . . .
149(12) . . .
157(13) . . .
128(11) . . .
137(12) . . .
150(12) . . .
141(12) . . .
134(12) . . .
145(12) . . .
147(12) . . .
144(12) . . .
158(13) . . .
145(12) . . .
140(12) . . .
155(12) . . .
154(12) . . .
138(12) . . .
156(12) . . .
160(13) . . .
147(12) . . .
164(13) . . .
160(13) . . .
150(12) . . .
162(13) . . .
138(12) . . .
171(13) . . .
155(12) . . .
144(12) . . .
140(12) . . .
161(13) . . .
175(13) . . .
166(13) . . .
160(13) . . .
168(13) . . .
147(12) . . .
187(14) . . .
166(13) . . .
158(13) . . .
174(13) . . .
171(13) . . .
174(13) . . .
181(13) . . .
165(13) . . .
184(14) . . .
183(14) . . .
176(13) . . .
204(14) . . .
163(13) . . .
171(13) . . .
176(13) . . .
180(13) . . .
179(13) . . .
180(13) . . .
201(14) . . .
192(14) . . .
194(14) . . .
201(14) . . .
209(14) . . .
201(14) . . .
197(14) . . .
204(14) . . .
209(14) . . .
246(16) . . .
214(15) . . .
220(15) . . .
224(15) . . .
231(15) . . .
212(15) . . .
224(15) . . .
235(15) . . .
256(16) . . .
248(16) . . .
239(15) . . .
257(16) . . .
262(16) . . .
283(17) . . .
276(17) . . .
248(16) . . .
287(17) . . .
287(17) . . .
307(18) . . .
302(17) . . .
326(18) . . .
317(18) . . .
338(18) . . .
328(18) . . .
344(19) . . .
347(19) . . .
348(19) . . .
395(20) . . .
367(19) . . .
403(20) . . .
371(19) . . .
429(21) . . .
418(20) . . .
415(20) . . .
430(21) . . .
413(20) . . .
443(21) . . .
510(23) . . .
484(22) . . .
502(22) . . .
533(23) . . .
506(22) . . .
553(24) . . .
551(23) . . .
576(24) . . .
589(24) . . .
618(25) . . .
626(25) . . .
634(25) . . .
598(24) . . .
690(26) . . .
694(26) . . .
713(27) . . .
707(27) . . .
768(28) . . .
765(28) . . .
767(28) . . .
754(27) . . .
793(28) . . .
844(29) . . .
805(28) . . .
837(29) . . .
818(29) . . .
859(29) . . .
872(30) . . .
850(29) . . .
884(30) . . .
883(30) . . .
887(30) . . .
888(30) . . .
885(30) . . .
821(29) . . .
868(29) . . .
866(29) . . .
901(30) . . .
848(29) . . .
836(29) . . .
828(29) . . .
848(29) . . .
770(28) . . .
787(28) . . .
738(27) . . .
738(27) . . .
709(27) . . .
721(27) . . .
690(26) . . .
703(27) . . .
678(26) . . .
654(26) . . .
621(25) . . .
615(25) . . .
570(24) . . .
547(23) . . .
552(23) . . .
568(24) . . .
551(23) . . .
500(22) . . .
471(22) . . .
453(21) . . .
444(21) . . .
470(22) . . .
434(21) . . .
430(21) . . .
385(20) . . .
384(20) . . .
399(20) . . .
383(20) . . .
369(19) . . .
338(18) . . .
349(19) . . .
357(19) . . .
341(18) . . .
317(18) . . .
312(18) . . .
296(17) . . .
294(17) . . .
319(18) . . .
256(16) . . .
284(17) . . .
289(17) . . .
247(16) . . .
276(17) . . .
245(16) . . .
260(16) . . .
241(16) . . .
239(15) . . .
240(15) . . .
232(15) . . .
201(14) . . .
215(15) . . .
214(15) . . .
223(15) . . .
224(15) . . .
194(14) . . .
214(15) . . .
208(14) . . .
212(15) . . .
183(14) . . .
207(14) . . .
197(14) . . .
194(14) . . .
210(14) . . .
193(14) . . .
195(14) . . .
201(14) . . .
174(13) . . .
184(14) . . .
201(14) . . .
190(14) . . .
181(13) . . .
181(13) . . .
167(13) . . .
165(13) . . .
146(12) . . .
168(13) . . .
165(13) . . .
190(14) . . .
163(13) . . .
155(12) . . .
148(12) . . .
167(13) . . .
156(12) . . .
157(13) . . .
149(12) . . .
163(13) . . .
171(13) . . .
157(13) . . .
157(13) . . .
157(13) . . .
144(12) . . .
149(12) . . .
160(13) . . .
142(12) . . .
146(12) . . .
164(13) . . .
148(12) . . .
154(12) . . .
154(12) . . .
145(12) . . .
147(12) . . .
143(12) . . .
156(12) . . .
129(11) . . .
158(13) . . .
154(12) . . .
142(12) . . .
155(12) . . .
149(12) . . .
165(13) . . .
135(12) . . .
131(11) . . .
147(12) . . .
144(12) . . .
138(12) . . .
127(11) . . .
138(12) . . .
144(12) . . .
124(11) . . .
118(11) . . .
154(12) . . .
138(12) . . .
146(12) . . .
131(11) . . .
120(11) . . .
115(11) . . .
135(12) . . .
126(11) . . .
116(11) . . .
140(12) . . .
135(12) . . .
147(12) . . .
122(11) . . .
146(12) . . .
129(11) . . .
151(12) . . .
130(11) . . .
131(11) . . .
153(12) . . .
120(11) . . .
133(12) . . .
131(11) . . .
127(11) . . .
136(12) . . .
129(11) . . .
125(11) . . .
145(12) . . .
139(12) . . .
122(11) . . .
138(12) . . .
111(11) . . .
111(11) . . .
121(11) . . .
124(11) . . .
137(12) . . .
147(12) . . .
117(11) . . .
130(11) . . .
121(11) . . .
131(11) . . .
113(11) . . .
125(11) . . .
110(10) . . .
118(11) . . .
131(11) . . .
138(12) . . .
145(12) . . .
126(11) . . .
127(11) . . .
124(11) . . .
125(11) . . .
131(11) . . .
117(11) . . .
121(11) . . .
137(12) . . .
116(11) . . .
127(11) . . .
125(11) . . .
128(11) . . .
129(11) . . .
132(11) . . .
112(11) . . .
125(11) . . .
128(11) . . .
112(11) . . .
123(11) . . .
109(10) . . .
116(11) . . .
141(12) . . .
144(12) . . .
123(11) . . .
128(11) . . .
128(11) . . .
134(12) . . .
134(12) . . .
132(11) . . .
125(11) . . .
123(11) . . .
108(10) . . .
131(11) . . .
121(11) . . .
122(11) . . .
116(11) . . .
119(11) . . .
113(11) . . .
111(11) . . .
127(11) . . .
123(11) . . .
107(10) . . .
122(11) . . .
107(10) . . .
123(11) . . .
129(11) . . .
114(11) . . .
114(11) . . .
122(11) . . .
119(11) . . .
109(10) . . .
110(10) . . .
118(11) . . .
116(11) . . .
122(11) . . .
99(10) . . .
128(11) . . .
121(11) . . .
111(11) . . .
108(10) . . .
107(10) . . .
117(11) . . .
127(11) . . .
139(12) . . .
124(11) . . .
124(11) . . .
105(10) . . .
106(10) . . .
136(12) . . .
112(11) . . .
113(11) . . .
128(11) . . .
128(11) . . .
100(10) . . .
118(11) . . .
127(11) . . .
111(11) . . .
119(11) . . .
113(11) . . .
121(11) . . .
120(11) . . .
102(10) . . .
112(11) . . .
118(11) . . .
121(11) . . .
122(11) . . .
130(11) . . .
112(11) . . .
107(10) . . .
129(11) . . .
104(10) . . .
101(10) . . .
119(11) . . .
123(11) . . .
115(11) . . .
102(10) . . .
107(10) . . .
111(11) . . .
109(10) . . .
121(11) . . .
117(11) . . .
113(11) . . .
99(10) . . .
121(11) . . .
104(10) . . .
111(11) . . .
122(11) . . .
122(11) . . .
131(11) . . .
112(11) . . .
120(11) . . .
120(11) . . .
109(10) . . .
112(11) . . .
111(11) . . .
113(11) . . .
127(11) . . .
104(10) . . .
105(10) . . .
128(11) . . .
95(10) . . .
110(10) . . .
98(10) . . .
119(11) . . .
121(11) . . .
133(12) . . .
112(11) . . .
126(11) . . .
121(11) . . .
118(11) . . .
118(11) . . .
118(11) . . .
113(11) . . .
101(10) . . .
110(10) . . .
98(10) . . .
118(11) . . .
118(11) . . .
110(10) . . .
113(11) . . .
122(11) . . .
110(10) . . .
109(10) . . .
107(10) . . .
107(10) . . .
114(11) . . .
108(10) . . .
109(10) . . .
102(10) . . .
102(10) . . .
114(11) . . .
106(10) . . .
105(10) . . .
112(11) . . .
99(10) . . .
111(11) . . .
126(11) . . .
95(10) . . .
102(10) . . .
104(10) . . .
93(10) . . .
102(10) . . .
116(11) . . .
111(11) . . .
102(10) . . .
109(10) . . .
136(12) . . .
108(10) . . .
109(10) . . .
114(11) . . .
134(12) . . .
103(10) . . .
121(11) . . .
116(11) . . .
116(11) . . .
120(11) . . .
115(11) . . .
94(10) . . .
107(10) . . .
110(10) . . .
93(10) . . .
102(10) . . .
113(11) . . .
112(11) . . .
121(11) . . .
120(11) . . .
121(11) . . .
113(11) . . .
115(11) . . .
122(11) . . .
105(10) . . .
107(10) . . .
111(11) . . .
108(10) . . .
103(10) . . .
121(11) . . .
116(11) . . .
111(11) . . .
115(11) . . .
103(10) . . .
138(12) . . .
96(10) . . .
95(10) . . .
107(10) . . .
108(10) . . .
101(10) . . .
100(10) . . .
106(10) . . .
109(10) . . .
112(11) . . .
127(11) . . .
120(11) . . .
99(10) . . .
102(10) . . .
112(11) . . .
111(11) . . .
123(11) . . .
104(10) . . .
100(10) . . .
109(10) . . .
105(10) . . .
107(10) . . .
117(11) . . .
91(10) . . .
102(10) . . .
112(11) . . .
121(11) . . .
118(11) . . .
117(11) . . .
100(10) . . .
116(11) . . .
120(11) . . .
103(10) . . .
112(11) . . .
107(10) . . .
103(10) . . .
99(10) . . .
108(10) . . .
106(10) . . .
105(10) . . .
103(10) . . .
103(10) . . .
106(10) . . .
105(10) . . .
110(10) . . .
117(11) . . .
117(11) . . .
119(11) . . .
120(11) . . .
99(10) . . .
128(11) . . .
105(10) . . .
122(11) . . .
108(10) . . .
100(10) . . .
112(11) . . .
118(11) . . .
106(10) . . .
101(10) . . .
102(10) . . .
110(10) . . .
100(10) . . .
118(11) . . .
117(11) . . .
113(11) . . .
109(10) . . .
101(10) . . .
100(10) . . .
121(11) . . .
115(11) . . .
108(10) . . .
117(11) . . .
95(10) . . .
108(10) . . .
115(11) . . .
100(10) . . .
124(11) . . .
96(10) . . .
114(11) . . .
102(10) . . .
102(10) . . .
106(10) . . .
113(11) . . .
108(10) . . .
105(10) . . .
122(11) . . .
103(10) . . .
117(11) . . .
105(10) . . .
127(11) . . .
96(10) . . .
119(11) . . .
112(11) . . .
111(11) . . .
125(11) . . .
108(10) . . .
95(10) . . .
91(10) . . .
123(11) . . .
112(11) . . .
129(11) . . .
115(11) . . .
113(11) . . .
93(10) . . .
108(10) . . .
106(10) . . .
120(11) . . .
126(11) . . .
96(10) . . .
105(10) . . .
119(11) . . .
100(10) . . .
110(10) . . .
121(11) . . .
126(11) . . .
119(11) . . .
119(11) . . .
127(11) . . .
122(11) . . .
96(10) . . .
116(11) . . .
113(11) . . .
105(10) . . .
110(10) . . .
94(10) . . .
100(10) . . .
101(10) . . .
114(11) . . .
98(10) . . .
92(10) . . .
86(9) . . .
114(11) . . .
117(11) . . .
118(11) . . .
124(11) . . .
104(10) . . .
114(11) . . .
121(11) . . .
121(11) . . .
111(11) . . .
109(10) . . .
102(10) . . .
117(11) . . .
128(11) . . .
113(11) . . .
118(11) . . .
111(11) . . .
112(11) . . .
129(11) . . .
111(11) . . .
125(11) . . .
111(11) . . .
106(10) . . .
116(11) . . .
97(10) . . .
112(11) . . .
120(11) . . .
107(10) . . .
115(11) . . .
117(11) . . .
115(11) . . .
113(11) . . .
96(10) . . .
96(10) . . .
128(11) . . .
110(10) . . .
106(10) . . .
117(11) . . .
111(11) . . .
113(11) . . .
116(11) . . .
111(11) . . .
104(10) . . .
116(11) . . .
123(11) . . .
105(10) . . .
106(10) . . .
94(10) . . .
112(11) . . .
117(11) . . .
110(10) . . .
120(11) . . .
98(10) . . .
112(11) . . .
124(11) . . .
126(11) . . .
143(12) . . .
118(11) . . .
117(11) . . .
120(11) . . .
144(12) . . .
116(11) . . .
117(11) . . .
122(11) . . .
112(11) . . .
113(11) . . .
122(11) . . .
126(11) . . .
114(11) . . .
129(11) . . .
121(11) . . .
116(11) . . .
112(11) . . .
115(11) . . .
117(11) . . .
107(10) . . .
122(11) . . .
101(10) . . .
111(11) . . .
110(10) . . .
110(10) . . .
103(10) . . .
118(11) . . .
116(11) . . .
100(10) . . .
91(10) . . .
128(11) . . .
90(9) . . .
108(10) . . .
99(10) . . .
98(10) . . .
108(10) . . .
95(10) . . .
110(10) . . .
108(10) . . .
111(11) . . .
94(10) . . .
112(11) . . .
112(11) . . .
107(10) . . .
99(10) . . .
93(10) . . .
130(11) . . .
109(10) . . .
100(10) . . .
101(10) . . .
106(10) . . .
108(10) . . .
124(11) . . .
120(11) . . .
113(11) . . .
134(12) . . .
111(11) . . .
129(11) . . .
110(10) . . .
101(10) . . .
111(11) . . .
117(11) . . .
115(11) . . .
106(10) . . .
100(10) . . .
125(11) . . .
123(11) . . .
99(10) . . .
119(11) . . .
126(11) . . .
104(10) . . .
115(11) . . .
108(10) . . .
107(10) . . .
106(10) . . .
108(10) . . .
114(11) . . .
103(10) . . .
110(10) . . .
114(11) . . .
92(10) . . .
102(10) . . .
104(10) . . .
97(10) . . .
100(10) . . .
89(9) . . .
97(10) . . .
104(10) . . .
112(11) . . .
116(11) . . .
111(11) . . .
113(11) . . .
109(10) . . .
111(11) . . .
99(10) . . .
114(11) . . .
110(10) . . .
118(11) . . .
108(10) . . .
106(10) . . .
114(11) . . .
106(10) . . .
97(10) . . .
105(10) . . .
111(11) . . .
104(10) . . .
111(11) . . .
122(11) . . .
106(10) . . .
113(11) . . .
107(10) . . .
107(10) . . .
97(10) . . .
97(10) . . .
115(11) . . .
100(10) . . .
86(9) . . .
101(10) . . .
120(11) . . .
99(10) . . .
108(10) . . .
113(11) . . .
103(10) . . .
115(11) . . .
95(10) . . .
90(9) . . .
111(11) . . .
101(10) . . .
120(11) . . .
121(11) . . .
102(10) . . .
101(10) . . .
89(9) . . .
126(11) . . .
124(11) . . .
115(11) . . .
119(11) . . .
118(11) . . .
108(10) . . .
114(11) . . .
106(10) . . .
109(10) . . .
96(10) . . .
105(10) . . .
112(11) . . .
106(10) . . .
117(11) . . .
98(10) . . .
97(10) . . .
102(10) . . .
128(11) . . .
112(11) . . .
112(11) . . .
124(11) . . .
108(10) . . .
104(10) . . .
112(11) . . .
100(10) . . .
94(10) . . .
101(10) . . .
103(10) . . .
112(11) . . .
107(10) . . .
107(10) . . .
104(10) . . .
119(11) . . .
96(10) . . .
114(11) . . .
94(10) . . .
112(11) . . .
118(11) . . .
114(11) . . .
93(10) . . .
104(10) . . .
125(11) . . .
119(11) . . .
105(10) . . .
98(10) . . .
106(10) . . .
94(10) . . .
89(9) . . .
105(10) . . .
104(10) . . .
94(10) . . .
97(10) . . .
100(10) . . .
107(10) . . .
106(10) . . .
99(10) . . .
103(10) . . .
110(10) . . .
105(10) . . .
90(9) . . .
107(10) . . .
101(10) . . .
106(10) . . .
106(10) . . .
123(11) . . .
103(10) . . .
105(10) . . .
96(10) . . .
94(10) . . .
111(11) . . .
110(10) . . .
97(10) . . .
108(10) . . .
111(11) . . .
111(11) . . .
102(10) . . .
93(10) . . .
102(10) . . .
107(10) . . .
94(10) . . .
101(10) . . .
113(11) . . .
117(11) . . .
116(11) . . .
94(10) . . .
107(10) . . .
107(10) . . .
113(11) . . .
117(11) . . .
113(11) . . .
107(10) . . .
111(11) . . .
111(11) . . .
118(11) . . .
125(11) . . .
92(10) . . .
98(10) . . .
105(10) . . .
124(11) . . .
114(11) . . .
104(10) . . .
104(10) . . .
102(10) . . .
96(10) . . .
112(11) . . .
113(11) . . .
101(10) . . .
105(10) . . .
110(10) . . .
108(10) . . .
98(10) . . .
96(10) . . .
100(10) . . .
102(10) . . .
109(10) . . .
108(10) . . .
99(10) . . .
115(11) . . .
106(10) . . .
95(10) . . .
103(10) . . .
107(10) . . .
100(10) . . .
110(10) . . .
93(10) . . .
102(10) . . .
110(10) . . .
108(10) . . .
112(11) . . .
98(10) . . .
111(11) . . .
106(10) . . .
97(10) . . .
100(10) . . .
91(10) . . .
105(10) . . .
104(10) . . .
104(10) . . .
85(9) . . .
97(10) . . .
113(11) . . .
110(10) . . .
100(10) . . .
106(10) . . .
119(11) . . .
108(10) . . .
102(10) . . .
116(11) . . .
114(11) . . .
105(10) . . .
75(9) . . .
114(11) . . .
99(10) . . .
86(9) . . .
110(10) . . .
119(11) . . .
113(11) . . .
97(10) . . .
103(10) . . .
93(10) . . .
121(11) . . .
107(10) . . .
103(10) . . .
95(10) . . .
88(9) . . .
97(10) . . .
113(11) . . .
95(10) . . .
101(10) . . .
107(10) . . .
103(10) . . .
94(10) . . .
118(11) . . .
118(11) . . .
105(10) . . .
100(10) . . .
109(10) . . .
113(11) . . .
105(10) . . .
96(10) . . .
93(10) . . .
99(10) . . .
90(9) . . .
99(10) . . .
107(10) . . .
117(11) . . .
103(10) . . .
91(10) . . .
95(10) . . .
98(10) . . .
105(10) . . .
109(10) . . .
124(11) . . .
107(10) . . .
112(11) . . .
111(11) . . .
124(11) . . .
100(10) . . .
96(10) . . .
112(11) . . .
117(11) . . .
116(11) . . .
104(10) . . .
113(11) . . .
109(10) . . .
89(9) . . .
113(11) . . .
105(10) . . .
110(10) . . .
107(10) . . .
110(10) . . .
107(10) . . .
109(10) . . .
98(10) . . .
103(10) . . .
101(10) . . .
109(10) . . .
94(10) . . .
110(10) . . .
91(10) . . .
88(9) . . .
119(11) . . .
104(10) . . .
81(9) . . .
89(9) . . .
111(11) . . .
110(10) . . .
107(10) . . .
85(9) . . .
101(10) . . .
119(11) . . .
101(10) . . .
109(10) . . .
90(9) . . .
95(10) . . .
100(10) . . .
97(10) . . .
99(10) . . .
96(10) . . .
104(10) . . .
103(10) . . .
103(10) . . .
103(10) . . .
119(11) . . .
99(10) . . .
100(10) . . .
97(10) . . .
107(10) . . .
118(11) . . .
115(11) . . .
104(10) . . .
114(11) . . .
114(11) . . .
110(10) . . .
111(11) . . .
101(10) . . .
94(10) . . .
84(9) . . .
114(11) . . .
108(10) . . .
95(10) . . .
118(11) . . .
124(11) . . .
100(10) . . .
100(10) . . .
114(11) . . .
90(9) . . .
111(11) . . .
99(10) . . .
102(10) . . .
111(11) . . .
104(10) . . .
106(10) . . .
92(10) . . .
110(10) . . .
101(10) . . .
107(10) . . .
107(10) . . .
110(10) . . .
108(10) . . .
104(10) . . .
105(10) . . .
116(11) . . .
103(10) . . .
100(10) . . .
103(10) . . .
100(10) . . .
105(10) . . .
120(11) . . .
119(11) . . .
92(10) . . .
116(11) . . .
117(11) . . .
106(10) . . .
107(10) . . .
111(11) . . .
108(10) . . .
104(10) . . .
120(11) . . .
125(11) . . .
111(11) . . .
109(10) . . .
98(10) . . .
107(10) . . .
119(11) . . .
107(10) . . .
114(11) . . .
90(9) . . .
108(10) . . .
116(11) . . .
112(11) . . .
92(10) . . .
105(10) . . .
103(10) . . .
94(10) . . .
109(10) . . .
108(10) . . .
97(10) . . .
95(10) . . .
101(10) . . .
114(11) . . .
98(10) . . .
111(11) . . .
109(10) . . .
105(10) . . .
89(9) . . .
115(11) . . .
100(10) . . .
94(10) . . .
108(10) . . .
95(10) . . .
106(10) . . .
120(11) . . .
117(11) . . .
95(10) . . .
103(10) . . .
125(11) . . .
102(10) . . .
118(11) . . .
105(10) . . .
102(10) . . .
103(10) . . .
97(10) . . .
92(10) . . .
98(10) . . .
108(10) . . .
111(11) . . .
92(10) . . .
107(10) . . .
105(10) . . .
98(10) . . .
105(10) . . .
97(10) . . .
90(9) . . .
96(10) . . .
105(10) . . .
105(10) . . .
99(10) . . .
99(10) . . .
102(10) . . .
104(10) . . .
124(11) . . .
110(10) . . .
113(11) . . .
95(10) . . .
102(10) . . .
118(11) . . .
127(11) . . .
101(10) . . .
102(10) . . .
106(10) . . .
106(10) . . .
105(10) . . .
105(10) . . .
111(11) . . .
103(10) . . .
111(11) . . .
115(11) . . .
105(10) . . .
112(11) . . .
108(10) . . .
102(10) . . .
81(9) . . .
113(11) . . .
103(10) . . .
101(10) . . .
87(9) . . .
98(10) . . .
91(10) . . .
110(10) . . .
98(10) . . .
106(10) . . .
101(10) . . .
120(11) . . .
96(10) . . .
107(10) . . .
95(10) . . .
94(10) . . .
95(10) . . .
104(10) . . .
119(11) . . .
96(10) . . .
105(10) . . .
100(10) . . .
103(10) . . .
106(10) . . .
106(10) . . .
105(10) . . .
114(11) . . .
117(11) . . .
100(10) . . .
110(10) . . .
106(10) . . .
95(10) . . .
105(10) . . .
120(11) . . .
126(11) . . .
109(10) . . .
110(10) . . .
114(11) . . .
115(11) . . .
112(11) . . .
104(10) . . .
94(10) . . .
111(11) . . .
104(10) . . .
107(10) . . .
97(10) . . .
102(10) . . .
109(10) . . .
108(10) . . .
114(11) . . .
107(10) . . .
89(9) . . .
106(10) . . .
96(10) . . .
109(10) . . .
111(11) . . .
95(10) . . .
101(10) . . .
100(10) . . .
109(10) . . .
95(10) . . .
100(10) . . .
109(10) . . .
106(10) . . .
111(11) . . .
106(10) . . .
99(10) . . .
119(11) . . .
115(11) . . .
117(11) . . .
120(11) . . .
98(10) . . .
120(11) . . .
105(10) . . .
107(10) . . .
98(10) . . .
123(11) . . .
107(10) . . .
117(11) . . .
117(11) . . .
86(9) . . .
102(10) . . .
97(10) . . .
90(9) . . .
112(11) . . .
95(10) . . .
107(10) . . .
110(10) . . .
89(9) . . .
110(10) . . .
111(11) . . .
118(11) . . .
89(9) . . .
95(10) . . .
108(10) . . .
114(11) . . .
104(10) . . .
91(10) . . .
102(10) . . .
107(10) . . .
112(11) . . .
113(11) . . .
91(10) . . .
99(10) . . .
100(10) . . .
111(11) . . .
105(10) . . .
93(10) . . .
91(10) . . .
98(10) . . .
106(10) . . .
93(10) . . .
96(10) . . .
87(9) . . .
109(10) . . .
95(10) . . .
112(11) . . .
110(10) . . .
109(10) . . .
103(10) . . .
118(11) . . .
110(10) . . .
106(10) . . .
92(10) . . .
99(10) . . .
97(10) . . .
98(10) . . .
116(11) . . .
102(10) . . .
97(10) . . .
92(10) . . .
93(10) . . .
93(10) . . .
105(10) . . .
90(9) . . .
97(10) . . .
102(10) . . .
115(11) . . .
94(10) . . .
94(10) . . .
127(11) . . .
109(10) . . .
95(10) . . .
112(11) . . .
109(10) . . .
104(10) . . .
102(10) . . .
102(10) . . .
94(10) . . .
114(11) . . .
109(10) . . .
82(9) . . .
84(9) . . .
83(9) . . .
85(9) . . .
105(10) . . .
85(9) . . .
105(10) . . .
96(10) . . .
118(11) . . .
106(10) . . .
101(10) . . .
95(10) . . .
106(10) . . .
111(11) . . .
95(10) . . .
102(10) . . .
99(10) . . .
98(10) . . .
111(11) . . .
91(10) . . .
86(9) . . .
96(10) . . .
89(9) . . .
105(10) . . .
98(10) . . .
115(11) . . .
109(10) . . .
102(10) . . .
99(10) . . .
94(10) . . .
100(10) . . .
106(10) . . .
117(11) . . .
116(11) . . .
113(11) . . .
78(9) . . .
85(9) . . .
110(10) . . .
111(11) . . .
98(10) . . .
96(10) . . .
87(9) . . .
94(10) . . .
97(10) . . .
103(10) . . .
106(10) . . .
118(11) . . .
98(10) . . .
110(10) . . .
86(9) . . .
119(11) . . .
98(10) . . .
98(10) . . .
106(10) . . .
108(10) . . .
113(11) . . .
86(9) . . .
99(10) . . .
93(10) . . .
90(9) . . .
95(10) . . .
111(11) . . .
116(11) . . .
100(10) . . .
109(10) . . .
95(10) . . .
122(11) . . .
118(11) . . .
84(9) . . .
104(10) . . .
90(9) . . .
93(10) . . .
89(9) . . .
104(10) . . .
106(10) . . .
112(11) . . .
113(11) . . .
105(10) . . .
113(11) . . .
93(10) . . .
109(10) . . .
93(10) . . .
108(10) . . .
96(10) . . .
115(11) . . .
118(11) . . .
98(10) . . .
104(10) . . .
106(10) . . .
101(10) . . .
105(10) . . .
114(11) . . .
101(10) . . .
95(10) . . .
110(10) . . .
94(10) . . .
91(10) . . .
90(9) . . .
107(10) . . .
100(10) . . .
105(10) . . .
101(10) . . .
97(10) . . .
121(11) . . .
98(10) . . .
110(10) . . .
101(10) . . .
107(10) . . .
111(11) . . .
105(10) . . .
92(10) . . .
106(10) . . .
104(10) . . .
85(9) . . .
90(9) . . .
92(10) . . .
88(9) . . .
102(10) . . .
118(11) . . .
91(10) . . .
86(9) . . .
97(10) . . .
84(9) . . .
104(10) . . .
115(11) . . .
102(10) . . .
113(11) . . .
93(10) . . .
105(10) . . .
106(10) . . .
101(10) . . .
87(9) . . .
94(10) . . .
101(10) . . .
85(9) . . .
98(10) . . .
97(10) . . .
110(10) . . .
108(10) . . .
111(11) . . .
103(10) . . .
100(10) . . .
102(10) . . .
100(10) . . .
94(10) . . .
111(11) . . .
109(10) . . .
88(9) . . .
115(11) . . .
109(10) . . .
102(10) . . .
97(10) . . .
98(10) . . .
110(10) . . .
94(10) . . .
108(10) . . .
93(10) . . .
96(10) . . .
90(9) . . .
107(10) . . .
98(10) . . .
94(10) . . .
111(11) . . .
100(10) . . .
114(11) . . .
98(10) . . .
95(10) . . .
103(10) . . .
90(9) . . .
113(11) . . .
116(11) . . .
97(10) . . .
93(10) . . .
101(10) . . .
86(9) . . .
88(9) . . .
94(10) . . .
114(11) . . .
110(10) . . .
108(10) . . .
113(11) . . .
85(9) . . .
93(10) . . .
94(10) . . .
90(9) . . .
89(9) . . .
102(10) . . .
107(10) . . .
102(10) . . .
101(10) . . .
105(10) . . .
86(9) . . .
91(10) . . .
114(11) . . .
100(10) . . .
100(10) . . .
99(10) . . .
109(10) . . .
105(10) . . .
111(11) . . .
104(10) . . .
101(10) . . .
124(11) . . .
93(10) . . .
97(10) . . .
95(10) . . .
99(10) . . .
98(10) . . .
107(10) . . .
86(9) . . .
110(10) . . .
99(10) . . .
98(10) . . .
88(9) . . .
106(10) . . .
91(10) . . .
104(10) . . .
104(10) . . .
104(10) . . .
115(11) . . .
95(10) . . .
100(10) . . .
107(10) . . .
98(10) . . .
103(10) . . .
110(10) . . .
90(9) . . .
113(11) . . .
112(11) . . .
98(10) . . .
95(10) . . .
96(10) . . .
97(10) . . .
99(10) . . .
105(10) . . .
107(10) . . .
108(10) . . .
99(10) . . .
95(10) . . .
92(10) . . .
117(11) . . .
96(10) . . .
96(10) . . .
93(10) . . .
106(10) . . .
112(11) . . .
95(10) . . .
124(11) . . .
106(10) . . .
93(10) . . .
84(9) . . .
95(10) . . .
93(10) . . .
88(9) . . .
117(11) . . .
108(10) . . .
100(10) . . .
110(10) . . .
99(10) . . .
117(11) . . .
94(10) . . .
108(10) . . .
105(10) . . .
94(10) . . .
91(10) . . .
103(10) . . .
98(10) . . .
116(11) . . .
113(11) . . .
108(10) . . .
99(10) . . .
106(10) . . .
106(10) . . .
117(11) . . .
93(10) . . .
87(9) . . .
104(10) . . .
104(10) . . .
87(9) . . .
107(10) . . .
106(10) . . .
92(10) . . .
93(10) . . .
105(10) . . .
94(10) . . .
101(10) . . .
110(10) . . .
108(10) . . .
91(10) . . .
107(10) . . .
105(10) . . .
100(10) . . .
107(10) . . .
83(9) . . .
116(11) . . .
92(10) . . .
111(11) . . .
99(10) . . .
89(9) . . .
87(9) . . .
107(10) . . .
98(10) . . .
101(10) . . .
104(10) . . .
101(10) . . .
106(10) . . .
98(10) . . .
104(10) . . .
106(10) . . .
120(11) . . .
97(10) . . .
95(10) . . .
86(9) . . .
95(10) . . .
103(10) . . .
106(10) . . .
96(10) . . .
100(10) . . .
99(10) . . .
102(10) . . .
89(9) . . .
95(10) . . .
109(10) . . .
98(10) . . .
102(10) . . .
116(11) . . .
92(10) . . .
114(11) . . .
76(9) . . .
97(10) . . .
94(10) . . .
104(10) . . .
111(11) . . .
101(10) . . .
105(10) . . .
89(9) . . .
123(11) . . .
106(10) . . .
111(11) . . .
83(9) . . .
98(10) . . .
83(9) . . .
90(9) . . .
96(10) . . .
101(10) . . .
111(11) . . .
109(10) . . .
118(11) . . .
104(10) . . .
91(10) . . .
99(10) . . .
111(11) . . .
104(10) . . .
83(9) . . .
94(10) . . .
113(11) . . .
97(10) . . .
113(11) . . .
92(10) . . .
107(10) . . .
117(11) . . .
107(10) . . .
89(9) . . .
95(10) . . .
91(10) . . .
95(10) . . .
92(10) . . .
100(10) . . .
113(11) . . .
87(9) . . .
103(10) . . .
89(9) . . .
87(9) . . .
97(10) . . .
98(10) . . .
108(10) . . .
117(11) . . .
109(10) . . .
79(9) . . .
102(10) . . .
96(10) . . .
99(10) . . .
111(11) . . .
105(10) . . .
109(10) . . .
99(10) . . .
94(10) . . .
89(9) . . .
104(10) . . .
92(10) . . .
104(10) . . .
107(10) . . .
104(10) . . .
117(11) . . .
98(10) . . .
90(9) . . .
107(10) . . .
93(10) . . .
114(11) . . .
109(10) . . .
97(10) . . .
123(11) . . .
98(10) . . .
113(11) . . .
113(11) . . .
92(10) . . .
97(10) . . .
109(10) . . .
115(11) . . .
95(10) . . .
99(10) . . .
102(10) . . .
111(11) . . .
118(11) . . .
110(10) . . .
105(10) . . .
96(10) . . .
89(9) . . .
89(9) . . .
92(10) . . .
111(11) . . .
96(10) . . .
89(9) . . .
101(10) . . .
86(9) . . .
97(10) . . .
96(10) . . .
113(11) . . .
113(11) . . .
105(10) . . .
104(10) . . .
87(9) . . .
95(10) . . .
114(11) . . .
106(10) . . .
118(11) . . .
79(9) . . .
89(9) . . .
91(10) . . .
106(10) . . .
93(10) . . .
106(10) . . .
100(10) . . .
95(10) . . .
105(10) . . .
94(10) . . .
108(10) . . .
81(9) . . .
88(9) . . .
108(10) . . .
99(10) . . .
86(9) . . .
97(10) . . .
103(10) . . .
87(9) . . .
103(10) . . .
97(10) . . .
100(10) . . .
102(10) . . .
98(10) . . .
94(10) . . .
102(10) . . .
104(10) . . .
104(10) . . .
105(10) . . .
93(10) . . .
92(10) . . .
90(9) . . .
84(9) . . .
108(10) . . .
104(10) . . .
94(10) . . .
101(10) . . .
104(10) . . .
106(10) . . .
108(10) . . .
102(10) . . .
93(10) . . .
95(10) . . .
90(9) . . .
83(9) . . .
110(10) . . .
111(11) . . .
101(10) . . .
77(9) . . .
104(10) . . .
108(10) . . .
105(10) . . .
97(10) . . .
106(10) . . .
100(10) . . .
106(10) . . .
105(10) . . .
99(10) . . .
104(10) . . .
94(10) . . .
80(9) . . .
97(10) . . .
107(10) . . .
97(10) . . .
87(9) . . .
105(10) . . .
99(10) . . .
111(11) . . .
104(10) . . .
113(11) . . .
106(10) . . .
94(10) . . .
109(10) . . .
91(10) . . .
99(10) . . .
102(10) . . .
107(10) . . .
94(10) . . .
108(10) . . .
108(10) . . .
105(10) . . .
89(9) . . .
106(10) . . .
97(10) . . .
98(10) . . .
112(11) . . .
113(11) . . .
79(9) . . .
85(9) . . .
109(10) . . .
110(10) . . .
116(11) . . .
105(10) . . .
93(10) . . .
84(9) . . .
109(10) . . .
115(11) . . .
94(10) . . .
75(9) . . .
103(10) . . .
89(9) . . .
105(10) . . .
100(10) . . .
110(10) . . .
93(10) . . .
100(10) . . .
93(10) . . .
92(10) . . .
97(10) . . .
95(10) . . .
98(10) . . .
97(10) . . .
102(10) . . .
99(10) . . .
95(10) . . .
101(10) . . .
100(10) . . .
103(10) . . .
115(11) . . .
114(11) . . .
118(11) . . .
97(10) . . .
100(10) . . .
111(11) . . .
90(9) . . .
104(10) . . .
97(10) . . .
95(10) . . .
93(10) . . .
105(10) . . .
100(10) . . .
101(10) . . .
89(9) . . .
106(10) . . .
88(9) . . .
99(10) . . .
108(10) . . .
95(10) . . .
101(10) . . .
115(11) . . .
107(10) . . .
106(10) . . .
116(11) . . .
100(10) . . .
112(11) . . .
97(10) . . .
87(9) . . .
86(9) . . .
111(11) . . .
86(9) . . .
111(11) . . .
110(10) . . .
111(11) . . .
98(10) . . .
99(10) . . .
96(10) . . .
86(9) . . .
108(10) . . .
110(10) . . .
116(11) . . .
106(10) . . .
96(10) . . .
97(10) . . .
113(11) . . .
104(10) . . .
101(10) . . .
102(10) . . .
97(10) . . .
101(10) . . .
105(10) . . .
99(10) . . .
81(9) . . .
111(11) . . .
100(10) . . .
124(11) . . .
111(11) . . .
95(10) . . .
99(10) . . .
102(10) . . .
94(10) . . .
103(10) . . .
112(11) . . .
99(10) . . .
108(10) . . .
103(10) . . .
91(10) . . .
93(10) . . .
95(10) . . .
96(10) . . .
106(10) . . .
103(10) . . .
98(10) . . .
99(10) . . .
95(10) . . .
115(11) . . .
102(10) . . .
97(10) . . .
92(10) . . .
115(11) . . .
117(11) . . .
98(10) . . .
115(11) . . .
110(10) . . .
101(10) . . .
98(10) . . .
122(11) . . .
108(10) . . .
97(10) . . .
114(11) . . .
102(10) . . .
92(10) . . .
91(10) . . .
111(11) . . .
91(10) . . .
103(10) . . .
105(10) . . .
88(9) . . .
101(10) . . .
95(10) . . .
89(9) . . .
91(10) . . .
87(9) . . .
109(10) . . .
116(11) . . .
93(10) . . .
111(11) . . .
96(10) . . .
107(10) . . .
111(11) . . .
92(10) . . .
103(10) . . .
91(10) . . .
118(11) . . .
119(11) . . .
95(10) . . .
88(9) . . .
107(10) . . .
100(10) . . .
108(10) . . .
112(11) . . .
96(10) . . .
104(10) . . .
103(10) . . .
100(10) . . .
96(10) . . .
96(10) . . .
103(10) . . .
110(10) . . .
110(10) . . .
101(10) . . .
107(10) . . .
105(10) . . .
99(10) . . .
103(10) . . .
117(11) . . .
107(10) . . .
102(10) . . .
93(10) . . .
96(10) . . .
104(10) . . .
106(10) . . .
97(10) . . .
89(9) . . .
99(10) . . .
108(10) . . .
92(10) . . .
105(10) . . .
97(10) . . .
101(10) . . .
95(10) . . .
113(11) . . .
105(10) . . .
105(10) . . .
114(11) . . .
108(10) . . .
98(10) . . .
94(10) . . .
118(11) . . .
120(11) . . .
105(10) . . .
100(10) . . .
112(11) . . .
103(10) . . .
101(10) . . .
105(10) . . .
105(10) . . .
90(9) . . .
121(11) . . .
107(10) . . .
113(11) . . .
109(10) . . .
108(10) . . .
100(10) . . .
104(10) . . .
79(9) . . .
102(10) . . .
122(11) . . .
102(10) . . .
111(11) . . .
104(10) . . .
110(10) . . .
105(10) . . .
114(11) . . .
103(10) . . .
113(11) . . .
114(11) . . .
106(10) . . .
110(10) . . .
110(10) . . .
100(10) . . .
110(10) . . .
120(11) . . .
121(11) . . .
115(11) . . .
120(11) . . .
110(10) . . .
113(11) . . .
125(11) . . .
142(12) . . .
135(12) . . .
121(11) . . .
119(11) . . .
115(11) . . .
124(11) . . .
132(11) . . .
121(11) . . .
128(11) . . .
140(12) . . .
114(11) . . .
132(11) . . .
123(11) . . .
114(11) . . .
121(11) . . .
131(11) . . .
125(11) . . .
142(12) . . .
135(12) . . .
119(11) . . .
131(11) . . .
126(11) . . .
139(12) . . .
143(12) . . .
146(12) . . .
155(12) . . .
136(12) . . .
138(12) . . .
154(12) . . .
133(12) . . .
151(12) . . .
143(12) . . .
164(13) . . .
156(12) . . .
170(13) . . .
156(12) . . .
147(12) . . .
163(13) . . .
153(12) . . .
157(13) . . .
150(12) . . .
151(12) . . .
160(13) . . .
157(13) . . .
149(12) . . .
177(13) . . .
177(13) . . .
176(13) . . .
175(13) . . .
170(13) . . .
188(14) . . .
182(13) . . .
179(13) . . .
185(14) . . .
192(14) . . .
209(14) . . .
168(13) . . .
208(14) . . .
213(15) . . .
200(14) . . .
175(13) . . .
197(14) . . .
198(14) . . .
201(14) . . .
197(14) . . .
196(14) . . .
197(14) . . .
201(14) . . .
199(14) . . .
194(14) . . .
178(13) . . .
193(14) . . .
198(14) . . .
196(14) . . .
183(14) . . .
181(13) . . .
210(14) . . .
176(13) . . .
188(14) . . .
178(13) . . .
184(14) . . .
184(14) . . .
172(13) . . .
194(14) . . .
163(13) . . .
174(13) . . .
178(13) . . .
165(13) . . .
169(13) . . .
166(13) . . .
175(13) . . .
153(12) . . .
150(12) . . .
150(12) . . .
139(12) . . .
162(13) . . .
148(12) . . .
169(13) . . .
155(12) . . .
178(13) . . .
143(12) . . .
143(12) . . .
130(11) . . .
142(12) . . .
157(13) . . .
139(12) . . .
125(11) . . .
139(12) . . .
132(11) . . .
136(12) . . .
151(12) . . .
135(12) . . .
128(11) . . .
124(11) . . .
134(12) . . .
125(11) . . .
131(11) . . .
124(11) . . .
129(11) . . .
123(11) . . .
122(11) . . .
127(11) . . .
135(12) . . .
124(11) . . .
129(11) . . .
148(12) . . .
127(11) . . .
125(11) . . .
115(11) . . .
125(11) . . .
140(12) . . .
119(11) . . .
120(11) . . .
107(10) . . .
104(10) . . .
118(11) . . .
118(11) . . .
100(10) . . .
119(11) . . .
110(10) . . .
108(10) . . .
104(10) . . .
134(12) . . .
116(11) . . .
120(11) . . .
112(11) . . .
116(11) . . .
103(10) . . .
113(11) . . .
102(10) . . .
103(10) . . .
115(11) . . .
122(11) . . .
121(11) . . .
128(11) . . .
107(10) . . .
81(9) . . .
102(10) . . .
107(10) . . .
110(10) . . .
96(10) . . .
105(10) . . .
100(10) . . .
109(10) . . .
103(10) . . .
100(10) . . .
117(11) . . .
118(11) . . .
109(10) . . .
95(10) . . .
97(10) . . .
100(10) . . .
116(11) . . .
112(11) . . .
122(11) . . .
109(10) . . .
84(9) . . .
110(10) . . .
105(10) . . .
96(10) . . .
99(10) . . .
108(10) . . .
99(10) . . .
104(10) . . .
115(11) . . .
86(9) . . .
106(10) . . .
100(10) . . .
89(9) . . .
108(10) . . .
113(11) . . .
105(10) . . .
106(10) . . .
93(10) . . .
102(10) . . .
110(10) . . .
101(10) . . .
95(10) . . .
112(11) . . .
95(10) . . .
100(10) . . .
109(10) . . .
115(11) . . .
104(10) . . .
117(11) . . .
82(9) . . .
104(10) . . .
107(10) . . .
111(11) . . .
105(10) . . .
113(11) . . .
100(10) . . .
82(9) . . .
100(10) . . .
101(10) . . .
93(10) . . .
90(9) . . .
96(10) . . .
99(10) . . .
108(10) . . .
109(10) . . .
107(10) . . .
101(10) . . .
107(10) . . .
112(11) . . .
94(10) . . .
86(9) . . .
96(10) . . .
125(11) . . .
98(10) . . .
89(9) . . .
94(10) . . .
95(10) . . .
112(11) . . .
88(9) . . .
113(11) . . .
105(10) . . .
91(10) . . .
113(11) . . .
93(10) . . .
102(10) . . .
91(10) . . .
116(11) . . .
106(10) . . .
98(10) . . .
101(10) . . .
120(11) . . .
104(10) . . .
91(10) . . .
107(10) . . .
102(10) . . .
104(10) . . .
116(11) . . .
101(10) . . .
91(10) . . .
100(10) . . .
112(11) . . .
95(10) . . .
96(10) . . .
101(10) . . .
107(10) . . .
98(10) . . .
81(9) . . .
97(10) . . .
92(10) . . .
95(10) . . .
91(10) . . .
100(10) . . .
99(10) . . .
92(10) . . .
108(10) . . .
99(10) . . .
105(10) . . .
98(10) . . .
109(10) . . .
103(10) . . .
95(10) . . .
111(11) . . .
109(10) . . .
102(10) . . .
93(10) . . .
83(9) . . .
102(10) . . .
93(10) . . .
100(10) . . .
100(10) . . .
104(10) . . .
97(10) . . .
120(11) . . .
107(10) . . .
99(10) . . .
113(11) . . .
112(11) . . .
101(10) . . .
80(9) . . .
103(10) . . .
107(10) . . .
83(9) . . .
96(10) . . .
99(10) . . .
100(10) . . .
93(10) . . .
89(9) . . .
97(10) . . .
92(10) . . .
96(10) . . .
107(10) . . .
94(10) . . .
91(10) . . .
104(10) . . .
88(9) . . .
94(10) . . .
98(10) . . .
83(9) . . .
88(9) . . .
81(9) . . .
90(9) . . .
95(10) . . .
99(10) . . .
96(10) . . .
108(10) . . .
107(10) . . .
108(10) . . .
114(11) . . .
100(10) . . .
101(10) . . .
111(11) . . .
97(10) . . .
101(10) . . .
90(9) . . .
117(11) . . .
100(10) . . .
84(9) . . .
88(9) . . .
109(10) . . .
85(9) . . .
91(10) . . .
86(9) . . .
112(11) . . .
107(10) . . .
97(10) . . .
96(10) . . .
98(10) . . .
105(10) . . .
93(10) . . .
92(10) . . .
103(10) . . .
113(11) . . .
101(10) . . .
94(10) . . .
100(10) . . .
122(11) . . .
108(10) . . .
92(10) . . .
98(10) . . .
92(10) . . .
87(9) . . .
93(10) . . .
110(10) . . .
101(10) . . .
88(9) . . .
124(11) . . .
98(10) . . .
89(9) . . .
100(10) . . .
93(10) . . .
106(10) . . .
99(10) . . .
87(9) . . .
101(10) . . .
101(10) . . .
100(10) . . .
105(10) . . .
90(9) . . .
95(10) . . .
101(10) . . .
88(9) . . .
99(10) . . .
97(10) . . .
93(10) . . .
97(10) . . .
95(10) . . .
98(10) . . .
88(9) . . .
106(10) . . .
102(10) . . .
105(10) . . .
108(10) . . .
100(10) . . .
111(11) . . .
91(10) . . .
108(10) . . .
93(10) . . .
82(9) . . .
86(9) . . .
91(10) . . .
99(10) . . .
101(10) . . .
98(10) . . .
96(10) . . .
111(11) . . .
112(11) . . .
101(10) . . .
87(9) . . .
90(9) . . .
108(10) . . .
100(10) . . .
107(10) . . .
102(10) . . .
104(10) . . .
105(10) . . .
86(9) . . .
111(11) . . .
89(9) . . .
83(9) . . .
89(9) . . .
87(9) . . .
100(10) . . .
100(10) . . .
100(10) . . .
79(9) . . .
111(11) . . .
110(10) . . .
109(10) . . .
93(10) . . .
91(10) . . .
98(10) . . .
93(10) . . .
100(10) . . .
105(10) . . .
100(10) . . .
86(9) . . .
95(10) . . .
95(10) . . .
104(10) . . .
96(10) . . .
104(10) . . .
100(10) . . .
96(10) . . .
95(10) . . .
89(9) . . .
82(9) . . .
105(10) . . .
91(10) . . .
103(10) . . .
87(9) . . .
99(10) . . .
114(11) . . .
89(9) . . .
100(10) . . .
110(10) . . .
97(10) . . .
102(10) . . .
89(9) . . .
99(10) . . .
100(10) . . .
83(9) . . .
101(10) . . .
102(10) . . .
100(10) . . .
90(9) . . .
87(9) . . .
79(9) . . .
96(10) . . .
97(10) . . .
104(10) . . .
99(10) . . .
96(10) . . .
95(10) . . .
97(10) . . .
109(10) . . .
105(10) . . .
93(10) . . .
87(9) . . .
95(10) . . .
92(10) . . .
96(10) . . .
95(10) . . .
91(10) . . .
101(10) . . .
105(10) . . .
96(10) . . .
92(10) . . .
109(10) . . .
94(10) . . .
109(10) . . .
85(9) . . .
98(10) . . .
82(9) . . .
95(10) . . .
96(10) . . .
113(11) . . .
100(10) . . .
102(10) . . .
95(10) . . .
106(10) . . .
94(10) . . .
83(9) . . .
89(9) . . .
102(10) . . .
96(10) . . .
110(10) . . .
97(10) . . .
85(9) . . .
95(10) . . .
97(10) . . .
81(9) . . .
117(11) . . .
104(10) . . .
107(10) . . .
105(10) . . .
99(10) . . .
109(10) . . .
112(11) . . .
92(10) . . .
100(10) . . .
93(10) . . .
111(11) . . .
105(10) . . .
102(10) . . .
99(10) . . .
116(11) . . .
107(10) . . .
108(10) . . .
87(9) . . .
100(10) . . .
100(10) . . .
105(10) . . .
108(10) . . .
111(11) . . .
98(10) . . .
81(9) . . .
90(9) . . .
101(10) . . .
110(10) . . .
21(5) . . .
0.00(10) . . .
0.00(10) . . .
0.00(10) . . .
0.0(10) . . .
loop_
_refln_index_h
_refln_index_k
_refln_index_l
_refln_observed_status
_refln_F_squared_meas
_refln_F_squared_calc
_refln_phase_calc
_refln_d_spacing
_gsas_i100_meas
0 2 0 o 1354.838 1425.379 180.00 8.21782 5.45
0 0 2 o 290.050 188.519 180.00 6.57112 0.75
1 0 1 o 12615.714 12877.429 0.00 5.86633 51.76
0 3 1 o 1218.735 1300.419 180.00 5.05677 3.72
0 2 2 o 31830.938 31651.096 0.00 5.13214 100.00
0 1 3 o 0.035 0.024 180.00 4.23297 0.00
-1 2 1 o 2258.753 2324.099 0.00 4.79189 6.19
1 1 2 o 2736.206 2563.735 0.00 4.45935 6.49
1 2 1 o 1129.290 1190.040 0.00 4.75750 3.05
-1 1 2 o 5406.943 5209.665 0.00 4.47342 12.91
0 4 0 o 2501.340 1186.784 0.00 4.10891 2.52
1 0 3 o 202.194 197.007 180.00 3.64236 0.32
0 0 4 o 263.361 249.777 180.00 3.28556 0.17
-1 4 1 o 814.559 842.846 180.00 3.37759 1.11
-1 2 3 o 2011.293 1831.755 0.00 3.33578 2.68
1 2 3 o 166.749 151.669 0.00 3.32412 0.22
-1 3 2 o 4780.619 5336.549 0.00 3.55176 7.21
0 4 2 o 3.388 22.355 0.00 3.48388 0.00
1 3 2 o 2452.124 2826.694 0.00 3.53072 3.65
0 3 3 o 12343.593 11913.796 0.00 3.42143 17.28
0 5 1 o 61.079 41.689 180.00 3.18889 0.07
0 2 4 o 1518.934 1252.211 0.00 3.05077 1.69
1 4 1 o 1045.978 1023.664 180.00 3.35351 1.41
1 1 4 o 277.915 153.361 0.00 2.88959 0.28
-1 1 4 o 176.424 93.001 0.00 2.89341 0.18
2 0 0 o 2578.184 2393.456 180.00 3.27784 1.66
2 1 1 o 1333.515 1056.735 180.00 3.11769 1.55
0 1 5 o 1806.112 1836.898 180.00 2.59547 1.46
-2 1 1 o 705.397 611.227 180.00 3.12731 0.83
0 6 0 o 1712.095 1627.350 0.00 2.73927 0.77
2 2 0 o 3.128 2.274 0.00 3.03571 0.00
-2 2 0 o 115.474 105.706 0.00 3.05354 0.06
2 0 2 o 413.769 194.517 0.00 2.93317 0.43
1 0 5 o 989.260 784.809 180.00 2.43966 0.71
-1 5 2 o 3513.559 3466.189 180.00 2.69010 3.05
-2 3 1 o 822.928 717.461 0.00 2.76045 0.75
2 2 2 o 3403.391 3112.644 180.00 2.75584 3.10
1 3 4 o 482.719 479.367 180.00 2.58461 0.39
-2 2 2 o 1394.526 1145.576 180.00 2.76916 1.28
-1 3 4 o 809.698 767.055 0.00 2.59283 0.65
2 3 1 o 436.052 416.056 0.00 2.74073 0.39
-1 6 1 o 1410.802 1753.366 0.00 2.48929 1.05
1 4 3 o 4049.811 4117.514 0.00 2.71925 3.59
1 5 2 o 2244.444 2264.527 180.00 2.67486 1.93
-2 1 3 o 895.916 830.626 0.00 2.59441 0.72
-1 4 3 o 7368.375 7413.827 0.00 2.73205 6.59
2 1 3 o 1181.415 1140.604 0.00 2.58891 0.95
-2 4 0 o 1859.418 1941.555 180.00 2.57308 0.74
0 6 2 o 201.078 417.534 0.00 2.52838 0.15
0 4 4 o 10828.636 11704.478 0.00 2.56607 8.56
0 0 6 o 2953.518 2862.350 0.00 2.19037 0.85
0 3 5 o 164.604 109.204 0.00 2.36982 0.11
2 4 0 o 1284.703 1211.409 180.00 2.55182 0.50
1 6 1 o 86.101 118.140 0.00 2.47480 0.06
0 5 3 o 363.082 550.772 180.00 2.62925 0.30
0 2 6 o 310.280 360.903 180.00 2.11648 0.17
2 3 3 o 889.966 484.044 180.00 2.36066 0.60
-2 4 2 o 289.391 288.946 180.00 2.39595 0.20
-2 5 1 o 2.910 0.604 180.00 2.29518 0.00
-1 1 6 o 556.123 488.577 180.00 2.06177 0.29
1 1 6 o 2678.487 2342.077 180.00 2.06039 1.37
2 4 2 o 501.465 457.672 180.00 2.37875 0.34
-2 3 3 o 210.593 167.829 0.00 2.37323 0.14
2 2 4 o 29.503 57.868 0.00 2.22967 0.02
-2 2 4 o 19.207 27.964 180.00 2.23671 0.01
2 5 1 o 432.349 254.081 0.00 2.27631 0.27
0 8 0 o 192.735 165.073 0.00 2.05446 0.05
-2 6 0 o 1064.598 1183.233 180.00 2.11078 0.29
-1 7 2 o 4942.617 4725.950 0.00 2.10019 2.63
1 4 5 o 1539.496 1512.301 180.00 2.09484 0.81
-1 6 3 o 6183.844 5844.952 180.00 2.19424 3.58
0 1 7 o 807.321 664.472 0.00 1.86533 0.34
-1 4 5 o 205.179 194.840 0.00 2.10068 0.11
1 5 4 o 4789.586 4610.479 0.00 2.18613 2.76
1 6 3 o 3779.471 3636.166 180.00 2.18430 2.17
-1 3 6 o 265.403 265.708 0.00 1.94425 0.12
1 3 6 o 2236.020 2238.640 0.00 1.94077 1.02
-1 5 4 o 8774.400 8317.354 0.00 2.19443 5.09
2 6 0 o 5257.083 5327.013 180.00 2.09318 1.39
1 7 2 o 769.553 738.843 0.00 2.09003 0.41
-1 8 1 o 814.568 815.949 180.00 1.94361 0.37
3 0 1 o 3126.804 2579.500 180.00 2.15563 1.75
1 0 7 o 1596.781 1335.626 0.00 1.80490 0.63
0 5 5 o 24245.021 21645.793 0.00 2.05286 12.32
0 4 6 o 2465.487 2461.757 180.00 1.93289 1.11
0 8 2 o 2527.594 2577.079 180.00 1.96085 1.17
0 7 3 o 7309.408 6518.931 0.00 2.06945 3.77
1 8 1 o 498.396 500.534 180.00 1.93440 0.23
3 2 1 o 33.827 20.388 0.00 2.08081 0.02
2 3 5 o 1172.512 1003.968 0.00 1.91712 0.52
-2 5 3 o 76.394 72.055 0.00 2.05782 0.04
3 1 2 o 2260.675 2082.331 180.00 2.05521 1.15
-3 2 1 o 110.846 109.175 0.00 2.08940 0.06
0 6 4 o 7842.162 7396.620 180.00 2.10396 4.18
0 3 7 o 1528.730 1422.615 0.00 1.77607 0.58
-2 7 1 o 208.837 161.312 180.00 1.89645 0.09
-2 3 5 o 611.885 578.834 0.00 1.92384 0.27
2 5 3 o 425.937 252.561 0.00 2.04419 0.21
-3 1 2 o 3929.375 3753.664 180.00 2.05933 2.01
2 6 2 o 1242.108 411.965 180.00 1.99444 0.60
-1 2 7 o 479.005 454.831 180.00 1.76375 0.18
1 2 7 o 2569.282 2452.000 180.00 1.76202 0.97
2 0 6 o 0.520 0.435 180.00 1.82118 0.00
0 9 1 o 4953.336 4092.543 0.00 1.80880 1.96
3 0 3 o 2537.427 2788.527 0.00 1.95544 1.17
0 0 8 o 18.287 19.740 180.00 1.64278 0.00
-2 2 6 o 1293.403 1226.311 180.00 1.77982 0.50
2 2 6 o 1058.266 974.068 180.00 1.77627 0.40
2 7 1 o 1499.952 1442.943 180.00 1.88155 0.64
3 3 2 o 609.340 596.627 0.00 1.93415 0.28
3 2 3 o 4032.358 2930.678 180.00 1.89908 1.76
-3 4 1 o 1281.250 1064.934 180.00 1.91551 0.57
-3 3 2 o 1351.757 1250.888 0.00 1.94452 0.62
-3 2 3 o 7117.440 5671.536 180.00 1.90560 3.12
3 4 1 o 505.999 377.557 180.00 1.90233 0.22
0 2 8 o 1027.854 854.728 180.00 1.61091 0.32
-2 8 0 o 0.316 0.289 0.00 1.74749 0.00
3 1 4 o 3936.904 3227.432 0.00 1.80708 1.56
1 5 6 o 135.029 130.041 0.00 1.75401 0.05
-1 8 3 o 653.109 643.337 0.00 1.79306 0.25
-1 1 8 o 851.478 961.374 0.00 1.58639 0.26
1 1 8 o 1037.330 1193.334 0.00 1.58576 0.32
-3 1 4 o 3968.774 3275.822 0.00 1.80989 1.57
-1 5 6 o 2620.371 2597.503 0.00 1.75829 0.98
1 6 5 o 160.883 129.920 0.00 1.81900 0.06
-1 4 7 o 371.224 350.391 180.00 1.65393 0.12
-1 9 2 o 75.140 78.073 0.00 1.70286 0.03
1 4 7 o 101.071 100.997 180.00 1.65108 0.03
-2 1 7 o 618.874 633.074 0.00 1.62188 0.20
2 1 7 o 132.395 129.797 0.00 1.62053 0.04
1 8 3 o 27.761 29.855 180.00 1.78582 0.01
0 10 0 o 9630.729 10176.321 180.00 1.64357 1.58
-1 7 4 o 760.675 694.288 180.00 1.83744 0.31
2 8 0 o 59.789 71.817 0.00 1.73416 0.01
-1 6 5 o 1543.816 1314.683 0.00 1.82473 0.62
1 7 4 o 321.206 255.049 180.00 1.83062 0.13
1 9 2 o 13.695 15.525 180.00 1.69588 0.00
2 5 5 o 3415.251 3837.810 180.00 1.73567 1.25
-2 7 3 o 1114.529 1133.016 180.00 1.75584 0.42
-2 8 2 o 0.024 0.021 0.00 1.68880 0.00
2 4 6 o 1848.688 1457.153 0.00 1.66206 0.62
3 0 5 o 3184.063 2647.763 180.00 1.68035 1.09
3 3 4 o 7.949 15.036 180.00 1.72314 0.00
3 4 3 o 375.550 363.739 180.00 1.76050 0.14
-3 5 2 o 110.727 107.919 0.00 1.76021 0.04
0 5 7 o 6.751 9.812 0.00 1.63029 0.00
0 6 6 o 5469.215 5358.135 0.00 1.71071 1.94
-2 4 6 o 2944.983 2495.149 0.00 1.66789 1.00
2 6 4 o 1261.448 1130.218 0.00 1.76536 0.48
0 9 3 o 247.524 203.812 180.00 1.68559 0.09
-2 5 5 o 1005.030 907.996 180.00 1.74399 0.37
-2 6 4 o 926.438 753.776 0.00 1.77588 0.35
-3 6 1 o 1786.969 1904.059 180.00 1.70096 0.63
-3 4 3 o 82.161 79.406 180.00 1.77093 0.03
-1 10 1 o 833.763 959.049 180.00 1.58576 0.26
-3 3 4 o 509.003 786.857 180.00 1.73046 0.18
3 5 2 o 743.964 639.439 0.00 1.74743 0.28
2 7 3 o 1624.389 1461.457 180.00 1.74399 0.60
0 8 4 o 1052.076 986.317 0.00 1.74194 0.39
-1 3 8 o 34.766 55.558 0.00 1.53095 0.01
1 3 8 o 73.810 127.140 0.00 1.52925 0.02
3 2 5 o 93.065 95.558 0.00 1.64418 0.03
0 1 9 o 1703.706 1622.149 0.00 1.45452 0.44
0 4 8 o 43.522 89.983 180.00 1.52538 0.01
0 10 2 o 1093.320 1031.150 0.00 1.59445 0.34
2 8 2 o 335.446 313.554 180.00 1.67675 0.11
-2 9 1 o 5.237 5.309 180.00 1.58936 0.00
-2 3 7 o 2878.609 3432.893 180.00 1.56338 0.86
0 7 5 o 1175.216 972.404 180.00 1.75105 0.44
-3 2 5 o 160.810 171.028 0.00 1.64841 0.05
2 3 7 o 769.444 920.721 180.00 1.55977 0.23
1 10 1 o 48.504 74.639 180.00 1.57950 0.01
3 6 1 o 2077.333 1728.073 180.00 1.68714 0.72
2 0 8 o 588.417 790.725 180.00 1.46865 0.16
3 1 6 o 26.008 30.940 180.00 1.53933 0.01
2 9 1 o 31.174 53.207 180.00 1.57806 0.01
2 2 8 o 201.170 128.449 0.00 1.44479 0.05
0 11 1 o 4135.573 4906.542 180.00 1.48459 1.11
-3 1 6 o 88.122 100.557 180.00 1.54106 0.03
0 3 9 o 308.317 104.810 0.00 1.41099 0.08
-1 2 9 o 133.036 50.868 0.00 1.40479 0.03
1 2 9 o 1455.063 581.681 180.00 1.40391 0.35
-2 2 8 o 3647.344 2526.472 0.00 1.44670 0.93
-3 7 2 o 2017.706 2373.872 180.00 1.56050 0.60
3 5 4 o 143.221 151.117 180.00 1.58717 0.04
3 4 5 o 3.139 3.655 180.00 1.55177 0.00
-2 10 0 o 17.431 24.088 180.00 1.47425 0.00
4 0 0 o 3002.650 3649.863 0.00 1.63892 0.49
-3 6 3 o 291.112 263.226 0.00 1.59730 0.09
1 6 7 o 11.775 22.977 0.00 1.50553 0.00
4 1 1 o 1968.885 1742.246 0.00 1.61708 0.63
3 6 3 o 320.203 361.245 0.00 1.58583 0.10
-1 10 3 o 1.377 2.544 0.00 1.50077 0.00
-1 9 4 o 749.157 911.703 0.00 1.55354 0.22
-4 1 1 o 1167.744 986.448 0.00 1.61976 0.37
4 2 0 o 351.291 240.045 180.00 1.60465 0.06
-3 8 1 o 28.476 61.286 0.00 1.49348 0.01
-1 6 7 o 989.200 1668.408 0.00 1.50878 0.27
-3 4 5 o 152.695 185.622 180.00 1.55890 0.05
-4 2 0 o 256.533 168.394 180.00 1.60990 0.04
-3 5 4 o 309.754 292.455 180.00 1.59672 0.10
3 3 6 o 35.400 41.942 0.00 1.48645 0.01
1 7 6 o 57.128 70.181 0.00 1.55380 0.02
-2 9 3 o 147.127 310.116 0.00 1.50381 0.04
4 0 2 o 194.547 167.465 180.00 1.59021 0.06
1 9 4 o 23.736 24.052 180.00 1.54824 0.01
3 7 2 o 1145.318 1158.476 180.00 1.54805 0.33
2 6 6 o 2444.796 3973.854 180.00 1.51330 0.68
1 10 3 o 37.466 79.130 180.00 1.49546 0.01
-1 7 6 o 905.644 1134.861 0.00 1.55797 0.27
-2 8 4 o 1760.825 1897.642 180.00 1.54284 0.51
2 5 7 o 1526.539 1636.063 0.00 1.45726 0.40
0 0 10 o 2541.117 5087.706 180.00 1.31422 0.27
-3 3 6 o 0.201 0.362 180.00 1.49114 0.00
-1 8 5 o 476.584 768.529 180.00 1.57393 0.14
4 2 2 o 2637.104 3230.034 0.00 1.55885 0.78
2 10 0 o 319.164 388.269 0.00 1.46423 0.04
-2 5 7 o 2242.851 2647.196 0.00 1.46217 0.59
4 3 1 o 661.516 824.789 180.00 1.55550 0.20
2 7 5 o 1488.157 1631.225 0.00 1.54043 0.43
2 4 8 o 1028.169 962.577 180.00 1.38130 0.24
-2 6 6 o 471.819 1087.827 180.00 1.51991 0.13
1 8 5 o 158.346 212.837 180.00 1.56903 0.05
0 2 10 o 3.981 6.452 0.00 1.29773 0.00
4 1 3 o 243.322 557.439 180.00 1.52724 0.07
-4 2 2 o 1139.852 1254.452 0.00 1.56365 0.34
-4 3 1 o 468.958 521.232 180.00 1.56268 0.14
-2 7 5 o 1328.419 1297.533 0.00 1.54857 0.39
2 9 3 o 18.812 48.742 180.00 1.49424 0.01
0 6 8 o 14.486 4.255 0.00 1.40885 0.00
0 12 0 o 2914.092 2835.425 0.00 1.36964 0.34
-2 1 9 o 1724.249 2208.195 180.00 1.32987 0.38
2 8 4 o 1512.888 2022.320 180.00 1.53364 0.43
2 1 9 o 347.270 458.838 180.00 1.32913 0.08
-1 4 9 o 3.054 3.113 0.00 1.34737 0.00
-3 2 7 o 41.573 14.402 0.00 1.40445 0.01
-4 1 3 o 247.892 452.216 180.00 1.52949 0.07
-2 4 8 o 3283.685 2941.856 180.00 1.38464 0.77
1 4 9 o 40.072 39.839 0.00 1.34583 0.01
3 2 7 o 1.664 0.711 0.00 1.40184 0.00
-1 1 10 o 75.984 98.985 180.00 1.28481 0.02
0 10 4 o 64.862 107.784 180.00 1.46991 0.02
-4 4 0 o 420.410 1055.621 0.00 1.52677 0.06
1 1 10 o 617.280 798.432 0.00 1.28448 0.13
0 7 7 o 2465.438 3167.541 0.00 1.46633 0.65
3 8 1 o 3.395 3.755 180.00 1.48101 0.00
4 4 0 o 904.750 1772.579 0.00 1.51785 0.13
0 5 9 o 19.331 21.224 180.00 1.33450 0.00
-2 11 1 o 14.464 16.587 0.00 1.35666 0.00
4 0 4 o 672.872 866.117 0.00 1.46658 0.18
-1 12 1 o 3.163 3.352 180.00 1.33602 0.00
4 4 2 o 838.360 912.691 180.00 1.47891 0.22
0 9 5 o 399.187 557.680 0.00 1.49974 0.11
4 3 3 o 2646.429 3588.854 0.00 1.47504 0.70
0 8 6 o 460.345 602.482 180.00 1.49847 0.13
2 3 9 o 189.763 280.403 0.00 1.29498 0.04
4 2 4 o 1399.257 614.733 180.00 1.44187 0.36
-4 4 2 o 1036.344 1026.992 180.00 1.48716 0.28
0 12 2 o 3265.595 3167.086 180.00 1.34082 0.72
-4 5 1 o 1765.168 2074.950 0.00 1.46259 0.46
-4 3 3 o 1182.899 1267.661 0.00 1.48116 0.32
-2 3 9 o 1254.994 1982.370 0.00 1.29705 0.26
4 5 1 o 1859.909 1797.126 0.00 1.45281 0.48
1 12 1 o 19.878 23.437 180.00 1.33152 0.00
3 5 6 o 350.004 230.895 180.00 1.39650 0.08
-3 1 8 o 371.287 850.267 180.00 1.30947 0.08
-3 9 2 o 18.540 20.479 180.00 1.37599 0.00
-1 3 10 o 90.908 106.891 0.00 1.25482 0.02
3 4 7 o 407.864 380.335 0.00 1.34323 0.09
-4 2 4 o 899.637 539.625 180.00 1.44568 0.23
3 1 8 o 264.412 603.184 180.00 1.30841 0.06
1 3 10 o 219.854 263.873 180.00 1.25389 0.04
-3 7 4 o 3.511 1.605 180.00 1.44318 0.00
0 4 10 o 3.653 4.620 0.00 1.25175 0.00
0 1 11 o 797.571 1024.970 180.00 1.19161 0.14
2 11 1 o 634.200 640.394 0.00 1.34807 0.14
-3 5 6 o 1233.443 464.573 180.00 1.40300 0.30
-4 1 5 o 871.774 766.448 0.00 1.38661 0.21
4 1 5 o 989.099 851.138 0.00 1.38493 0.23
-3 4 7 o 41.747 41.500 0.00 1.34785 0.01
4 6 0 o 3625.996 1657.600 180.00 1.40117 0.44
-3 10 1 o 36.667 82.073 0.00 1.31232 0.01
3 3 8 o 126.858 115.426 180.00 1.27547 0.03
3 9 2 o 141.891 132.187 180.00 1.36501 0.03
4 4 4 o 1713.985 1825.052 0.00 1.37792 0.40
-1 11 4 o 11.145 12.087 0.00 1.33381 0.00
4 5 3 o 299.173 255.340 180.00 1.38661 0.07
-2 11 3 o 507.023 1123.706 180.00 1.30229 0.11
1 7 8 o 11.846 25.920 0.00 1.31726 0.00
-2 10 4 o 1496.776 1362.087 0.00 1.34505 0.33
-2 12 0 o 107.277 86.152 180.00 1.26759 0.01
-4 6 2 o 906.176 873.752 0.00 1.38022 0.21
1 6 9 o 79.498 67.335 180.00 1.26344 0.02
-3 3 8 o 0.366 0.394 180.00 1.27843 0.00
2 6 8 o 1456.538 2035.511 0.00 1.29231 0.30
2 7 7 o 4353.605 4568.948 180.00 1.33586 0.96
1 0 11 o 1668.281 1252.595 180.00 1.17539 0.29
-4 5 3 o 435.703 304.119 180.00 1.39511 0.10
0 13 1 o 1927.379 2103.245 0.00 1.25847 0.38
-1 7 8 o 531.091 1084.362 0.00 1.31979 0.11
-2 2 10 o 1056.994 1310.135 180.00 1.20716 0.19
4 3 5 o 27.173 24.770 180.00 1.34565 0.01
4 6 2 o 998.722 960.073 0.00 1.37036 0.23
2 2 10 o 481.884 623.874 180.00 1.20605 0.09
1 11 4 o 374.404 470.739 180.00 1.32971 0.08
-2 9 5 o 3687.899 3127.904 180.00 1.36739 0.85
-4 7 1 o 3476.498 3144.263 180.00 1.34225 0.77
1 8 7 o 13.761 21.606 0.00 1.35438 0.00
-1 12 3 o 403.986 549.241 180.00 1.28400 0.08
-1 10 5 o 741.046 692.524 0.00 1.36510 0.17
4 0 6 o 293.681 665.401 180.00 1.31225 0.06
2 5 9 o 848.751 1100.038 180.00 1.23450 0.16
0 3 11 o 105.957 74.871 0.00 1.16731 0.02
-2 6 8 o 2214.436 3279.652 0.00 1.29642 0.46
-4 4 4 o 389.644 325.046 0.00 1.38458 0.09
-4 3 5 o 129.107 143.910 180.00 1.35029 0.03
-1 6 9 o 30.114 23.567 180.00 1.26536 0.01
-1 2 11 o 228.906 169.422 180.00 1.16380 0.04
-1 8 7 o 724.659 806.446 0.00 1.35753 0.16
1 2 11 o 455.847 340.393 0.00 1.16330 0.08
-2 12 2 o 198.158 315.793 0.00 1.24465 0.04
-2 7 7 o 1746.511 1616.453 180.00 1.34116 0.39
1 10 5 o 1.166 1.058 0.00 1.36110 0.00
2 10 4 o 97.655 98.679 0.00 1.33743 0.02
2 8 6 o 2924.136 2642.539 0.00 1.35963 0.66
-2 5 9 o 2465.626 3095.202 180.00 1.23748 0.47
4 2 6 o 39.717 54.727 0.00 1.29446 0.01
-2 8 6 o 2540.282 2247.150 0.00 1.36602 0.58
1 12 3 o 279.422 338.424 0.00 1.28000 0.06
-1 5 10 o 25.551 40.873 180.00 1.20038 0.00
1 9 6 o 257.962 232.889 180.00 1.36976 0.06
2 9 5 o 3733.760 3271.673 180.00 1.36018 0.85
1 5 10 o 93.686 150.291 0.00 1.19902 0.02
3 10 1 o 24.500 57.801 0.00 1.30174 0.01
2 12 0 o 940.809 987.850 180.00 1.25994 0.09
-1 9 6 o 394.994 524.399 180.00 1.37343 0.09
-4 2 6 o 196.593 299.701 0.00 1.29721 0.04
0 7 9 o 493.039 655.388 0.00 1.24000 0.09
4 7 1 o 966.612 1040.375 180.00 1.33168 0.21
2 11 3 o 566.850 780.055 180.00 1.29468 0.12
0 12 4 o 77.607 59.410 180.00 1.26419 0.02
-3 2 9 o 275.869 435.372 180.00 1.20190 0.05
-4 8 0 o 1603.502 2263.332 0.00 1.28654 0.16
3 2 9 o 44.531 72.164 180.00 1.20026 0.01
2 4 10 o 633.027 433.022 0.00 1.16838 0.11
0 8 8 o 192.590 269.149 0.00 1.28303 0.04
-3 9 4 o 210.367 283.045 180.00 1.29354 0.04
-3 10 3 o 229.653 193.338 180.00 1.26292 0.05
0 11 5 o 228.470 428.633 0.00 1.29895 0.05
3 6 7 o 309.181 319.764 180.00 1.26066 0.06
0 0 12 o 1.234 2.095 0.00 1.09519 0.00
4 1 7 o 10.835 15.284 180.00 1.23061 0.00
-2 4 10 o 2891.428 2001.806 0.00 1.17040 0.49
0 6 10 o 537.730 499.331 180.00 1.18491 0.09
4 5 5 o 1326.966 1375.468 0.00 1.27750 0.27
3 7 6 o 232.521 334.086 0.00 1.28825 0.05
-2 1 11 o 342.566 498.541 0.00 1.12012 0.05
2 12 2 o 1056.632 1288.784 0.00 1.23740 0.20
2 1 11 o 1011.787 1487.837 0.00 1.11968 0.16
-4 8 2 o 2630.157 2277.235 180.00 1.26257 0.52
-3 8 5 o 80.068 170.865 180.00 1.30489 0.02
4 4 6 o 1.092 1.796 0.00 1.24758 0.00
-2 13 1 o 500.487 372.615 180.00 1.17820 0.09
0 2 12 o 744.893 1083.125 180.00 1.08559 0.11
-4 1 7 o 208.770 298.793 180.00 1.23179 0.04
-1 4 11 o 232.755 310.643 0.00 1.13052 0.04
1 4 11 o 327.610 441.114 180.00 1.12961 0.05
0 9 7 o 27.417 91.825 0.00 1.30906 0.01
-4 7 3 o 294.337 434.601 0.00 1.28952 0.06
0 14 0 o 2236.333 1633.804 180.00 1.17397 0.19
4 6 4 o 108.875 159.179 180.00 1.28886 0.02
-3 6 7 o 994.178 661.840 180.00 1.26639 0.20
0 10 6 o 59.836 138.974 180.00 1.31463 0.01
4 8 0 o 1215.605 1015.219 0.00 1.27591 0.12
3 8 5 o 119.258 164.418 180.00 1.29655 0.02
-3 7 6 o 51.520 68.416 0.00 1.29540 0.01
3 9 4 o 1.815 2.575 0.00 1.28441 0.00
-1 14 1 o 47.744 40.465 180.00 1.15284 0.01
0 5 11 o 160.911 222.995 0.00 1.12288 0.03
4 7 3 o 603.501 795.628 0.00 1.28014 0.12
-4 6 4 o 143.363 198.554 180.00 1.29705 0.03
5 0 1 o 1328.545 2738.083 0.00 1.30466 0.28
3 10 3 o 570.992 674.183 180.00 1.25348 0.11
-4 5 5 o 179.487 254.914 0.00 1.28414 0.04
-4 4 6 o 278.055 329.482 180.00 1.25252 0.05
4 3 7 o 0.179 0.292 180.00 1.20281 0.00
2 3 11 o 369.770 645.839 180.00 1.09903 0.06
5 2 1 o 754.931 1071.192 0.00 1.28684 0.15
0 14 2 o 469.892 379.578 0.00 1.15568 0.08
-3 1 10 o 366.115 500.893 0.00 1.12394 0.06
4 8 2 o 780.561 917.574 180.00 1.25252 0.15
5 1 2 o 268.526 386.514 0.00 1.28104 0.05
3 1 10 o 97.420 134.150 0.00 1.12326 0.02
1 14 1 o 562.793 496.443 0.00 1.14947 0.09
-5 2 1 o 246.743 384.402 0.00 1.29021 0.05
-5 1 2 o 590.790 890.601 0.00 1.28271 0.12
-3 12 1 o 116.934 87.843 180.00 1.16044 0.02
2 13 1 o 2484.768 1719.254 180.00 1.17154 0.42
3 11 2 o 550.014 561.246 0.00 1.20761 0.10
-2 3 11 o 620.216 1090.778 180.00 1.10029 0.09
-4 3 7 o 599.926 694.547 0.00 1.20612 0.11
5 0 3 o 0.714 0.869 0.00 1.25608 0.00
5 3 2 o 896.177 1214.406 0.00 1.24946 0.17
5 2 3 o 252.168 331.206 0.00 1.24015 0.05
4 0 8 o 2.178 1.630 180.00 1.16025 0.00
2 7 9 o 51.673 39.642 0.00 1.15806 0.01
-2 12 4 o 0.644 0.521 180.00 1.18263 0.00
1 8 9 o 3.740 2.432 180.00 1.17007 0.00
3 3 10 o 25.412 45.313 180.00 1.10221 0.00
2 8 8 o 312.285 480.490 180.00 1.19262 0.06
1 7 10 o 0.656 0.914 0.00 1.12885 0.00
-2 13 3 o 115.568 112.635 180.00 1.14206 0.02
2 6 10 o 0.255 0.500 0.00 1.11303 0.00
5 4 1 o 30.399 41.173 180.00 1.24046 0.01
-5 4 1 o 0.047 0.109 180.00 1.24653 0.00
-5 3 2 o 343.229 403.475 0.00 1.25411 0.07
-4 2 8 o 982.132 854.872 180.00 1.14982 0.16
-1 12 5 o 11.524 20.873 180.00 1.19592 0.00
4 2 8 o 18.326 16.506 0.00 1.14790 0.00
-5 2 3 o 307.944 576.479 0.00 1.24318 0.06
-1 8 9 o 2071.769 1452.311 0.00 1.17210 0.35
-2 14 0 o 311.678 646.398 0.00 1.10822 0.02
-1 7 10 o 168.482 235.231 180.00 1.13044 0.03
-3 3 10 o 49.862 91.871 180.00 1.10412 0.01
1 9 8 o 5.660 9.934 0.00 1.19944 0.00
-2 6 10 o 4.768 8.211 180.00 1.11565 0.00
-2 8 8 o 90.796 165.922 0.00 1.19693 0.02
1 12 5 o 84.762 132.339 180.00 1.19269 0.01
1 13 4 o 77.579 57.135 0.00 1.15967 0.01
-1 9 8 o 147.806 302.571 0.00 1.20190 0.03
4 6 6 o 400.353 278.226 0.00 1.18033 0.07
-4 9 3 o 930.368 643.983 180.00 1.17968 0.16
-1 6 11 o 32.302 50.800 0.00 1.08075 0.00
-4 8 4 o 10.793 18.276 180.00 1.19797 0.00
-1 14 3 o 36.985 54.371 180.00 1.11892 0.01
2 12 4 o 603.810 443.380 0.00 1.17641 0.10
0 15 1 o 232.965 389.351 180.00 1.09192 0.03
4 5 7 o 354.562 297.231 0.00 1.15340 0.06
2 11 5 o 888.672 1246.583 180.00 1.20454 0.16
3 12 1 o 401.851 345.005 180.00 1.15166 0.07
4 7 5 o 52.343 82.714 0.00 1.19280 0.01
-3 12 3 o 2356.747 3162.541 0.00 1.12586 0.37
-3 11 4 o 3839.115 2844.926 180.00 1.15875 0.64
-4 10 2 o 463.023 416.267 0.00 1.14759 0.08
5 4 3 o 1562.591 2572.573 0.00 1.19848 0.28
2 13 3 o 189.617 215.519 180.00 1.13599 0.03
-3 10 5 o 866.537 595.905 0.00 1.17883 0.15
5 3 4 o 14.383 15.012 0.00 1.18676 0.00
3 7 8 o 1303.194 1284.340 180.00 1.14357 0.21
5 5 2 o 503.353 862.812 180.00 1.19407 0.09
3 6 9 o 622.149 1342.057 0.00 1.10804 0.10
-5 5 2 o 89.754 200.531 180.00 1.20085 0.02
5 0 5 o 17.426 12.832 180.00 1.17327 0.00
-4 7 5 o 43.195 87.115 0.00 1.20038 0.01
-2 14 2 o 18.540 31.627 0.00 1.09279 0.00
4 8 4 o 8.884 11.750 0.00 1.18938 0.00
1 14 3 o 70.562 120.795 180.00 1.11583 0.01
4 4 8 o 98.981 183.629 180.00 1.11484 0.02
-5 4 3 o 685.380 1105.566 0.00 1.20396 0.12
2 14 0 o 1398.887 2480.774 0.00 1.10225 0.11
-4 5 7 o 24.569 18.231 0.00 1.15827 0.00
-4 6 6 o 88.522 91.247 180.00 1.18661 0.02
-4 1 9 o 155.870 223.531 0.00 1.08829 0.02
4 1 9 o 39.343 54.584 180.00 1.08747 0.01
4 10 0 o 2393.547 1888.540 180.00 1.15562 0.20
-5 3 4 o 23.375 35.825 0.00 1.19074 0.00
-5 6 1 o 231.111 170.931 0.00 1.18178 0.04
4 9 3 o 23.118 14.565 180.00 1.17046 0.00
0 8 10 o 52.282 110.781 0.00 1.10709 0.01
0 9 9 o 483.391 457.794 0.00 1.14048 0.08
-4 4 8 o 6.544 9.538 0.00 1.11835 0.00
0 13 5 o 11.172 10.785 180.00 1.13933 0.00
0 14 4 o 177.077 347.250 180.00 1.10552 0.03
3 9 6 o 1976.326 1444.161 180.00 1.17691 0.34
-3 7 8 o 2586.668 2247.302 180.00 1.14856 0.43
-4 11 1 o 101.714 192.589 180.00 1.10495 0.02
-3 9 6 o 2766.181 2377.737 180.00 1.18392 0.48
5 6 1 o 838.999 625.452 0.00 1.17403 0.14
-3 8 7 o 2029.460 1512.275 0.00 1.17343 0.35
-3 6 9 o 463.094 986.850 0.00 1.11193 0.07
3 10 5 o 1322.062 870.838 0.00 1.17114 0.23
3 11 4 o 2865.714 2443.309 180.00 1.15072 0.47
-3 13 2 o 1796.816 2614.320 180.00 1.08335 0.26
5 1 6 o 69.630 97.423 180.00 1.12180 0.01
2 14 2 o 42.780 57.157 0.00 1.08707 0.01
4 10 2 o 168.506 167.199 0.00 1.13816 0.03
3 12 3 o 1564.892 2281.589 0.00 1.11784 0.24
-5 1 6 o 185.099 251.543 180.00 1.12292 0.03
5 5 4 o 2731.765 2576.324 0.00 1.13898 0.44
5 4 5 o 1.664 2.157 0.00 1.12591 0.00
0 11 7 o 22.291 12.527 180.00 1.16911 0.00
-5 7 2 o 518.233 763.259 0.00 1.13175 0.08
5 6 3 o 1248.684 1208.129 180.00 1.13826 0.20
-5 6 3 o 856.650 854.310 180.00 1.14531 0.14
5 3 6 o 40.796 73.757 0.00 1.10041 0.01
5 7 2 o 757.185 1005.669 0.00 1.12382 0.12
-5 8 1 o 117.502 237.946 180.00 1.10560 0.02
4 11 1 o 319.322 594.647 180.00 1.09569 0.05
-5 4 5 o 95.452 149.344 180.00 1.13045 0.02
-5 5 4 o 2084.949 2190.891 0.00 1.14486 0.34
4 7 7 o 323.712 549.720 0.00 1.08992 0.05
-4 10 4 o 225.474 380.604 180.00 1.09844 0.03
-5 3 6 o 714.562 1186.171 0.00 1.10358 0.11
4 8 6 o 2.303 3.934 0.00 1.10250 0.00
-4 9 5 o 28.974 67.320 180.00 1.11029 0.00
-2 12 6 o 191.601 345.706 0.00 1.09712 0.03
4 9 5 o 32.020 53.771 0.00 1.10258 0.00
-1 13 6 o 10.728 18.229 180.00 1.08131 0.00
5 8 1 o 32.760 59.003 180.00 1.09716 0.00
-4 7 7 o 24.305 49.136 180.00 1.09569 0.00
-4 8 6 o 28.179 65.771 0.00 1.10934 0.00
2 10 8 o 462.821 759.127 0.00 1.09306 0.07
4 10 4 o 11.746 21.998 180.00 1.09016 0.00
-2 11 7 o 393.166 592.275 180.00 1.10349 0.06
2 12 6 o 20.700 37.186 180.00 1.09215 0.00
-2 10 8 o 123.435 219.663 0.00 1.09721 0.02
2 11 7 o 711.295 1101.404 180.00 1.09885 0.11
-1 12 7 o 312.313 544.828 0.00 1.09229 0.05
-5 7 4 o 0.546 0.815 180.00 1.08452 0.00
1 11 8 o 79.331 113.370 180.00 1.08883 0.01
6 0 0 o 1829.377 2956.331 0.00 1.09261 0.14
-1 11 8 o 73.143 171.628 180.00 1.09108 0.01
1 12 7 o 18.646 35.623 180.00 1.08983 0.00
6 2 0 o 65.541 107.411 0.00 1.08188 0.00
-5 6 5 o 103.377 182.527 0.00 1.08149 0.02
6 1 1 o 293.323 323.518 0.00 1.08587 0.04
-6 1 1 o 943.218 952.556 0.00 1.08708 0.14
-6 2 0 o 42.537 66.450 180.00 1.08429 0.00
