#------------------------------------------------------------------------------
#$Date: 2019-10-29 23:12:50 +0200 (Tue, 29 Oct 2019) $
#$Revision: 220392 $
#$URL: file:///home/coder/svn-repositories/cod/cif/4/00/29/4002968.cif $
#------------------------------------------------------------------------------
#
# This file is available in the Crystallography Open Database (COD),
# http://www.crystallography.net/
#
# All data on this site have been placed in the public domain by the
# contributors.
#
data_4002968
loop_
_publ_author_name
'Takenaka, Hiroyuki'
'Ogaki, Takuya'
'Wang, Chengyuan'
'Kawabata, Kohsuke'
'Takimiya, Kazuo'
_publ_section_title
;
 Selenium-Substituted \b-Methylthiobenzo[1,2-b:4,5-b&#x2032;]dithiophenes:
 Synthesis, Packing Structure, and Transport Properties
;
_journal_issue                   17
_journal_name_full               'Chemistry of Materials'
_journal_page_first              6696
_journal_paper_doi               10.1021/acs.chemmater.9b01187
_journal_volume                  31
_journal_year                    2019
_chemical_formula_moiety         'C12 H10 Se4'
_chemical_formula_sum            'C12 H10 Se4'
_chemical_formula_weight         470.05
_space_group_crystal_system      monoclinic
_space_group_IT_number           14
_space_group_name_Hall           '-P 2ybc'
_space_group_name_H-M_alt        'P 1 21/c 1'
_symmetry_space_group_name_Hall  '-P 2ybc'
_symmetry_space_group_name_H-M   'P 1 21/c 1'
_atom_sites_solution_hydrogens   geom
_atom_sites_solution_primary     direct
_atom_sites_solution_secondary   difmap
_cell_angle_alpha                90.0000
_cell_angle_beta                 100.6510(7)
_cell_angle_gamma                90.0000
_cell_formula_units_Z            2
_cell_length_a                   8.60863(16)
_cell_length_b                   14.2697(3)
_cell_length_c                   5.32468(10)
_cell_measurement_reflns_used    6137
_cell_measurement_temperature    100
_cell_measurement_theta_max      68.24
_cell_measurement_theta_min      3.10
_cell_volume                     642.83(2)
_computing_cell_refinement       'RAPID AUTO'
_computing_data_collection       'RAPID AUTO (Rigaku, ????)'
_computing_data_reduction        'RAPID AUTO'
_computing_molecular_graphics    'CrystalStructure 4.2.5'
_computing_publication_material  'CrystalStructure 4.2.5 (Rigaku, 2017)'
_computing_structure_refinement  'SHELXL97 (Sheldrick, 2008)'
_computing_structure_solution    'SIR2011 (Burla, et al., 2012)'
_diffrn_ambient_temperature      100
_diffrn_detector_area_resol_mean 10.000
_diffrn_measured_fraction_theta_full 1.000
_diffrn_measured_fraction_theta_max 1.000
_diffrn_measurement_device_type  'Rigaku R-AXIS RAPID'
_diffrn_measurement_method       \w
_diffrn_radiation_type           'Cu K\a'
_diffrn_radiation_wavelength     1.54187
_diffrn_reflns_av_R_equivalents  0.1102
_diffrn_reflns_Laue_measured_fraction_full 1.000
_diffrn_reflns_Laue_measured_fraction_max 1.000
_diffrn_reflns_limit_h_max       10
_diffrn_reflns_limit_h_min       -10
_diffrn_reflns_limit_k_max       17
_diffrn_reflns_limit_k_min       -17
_diffrn_reflns_limit_l_max       6
_diffrn_reflns_limit_l_min       -6
_diffrn_reflns_number            10744
_diffrn_reflns_point_group_measured_fraction_full 1.000
_diffrn_reflns_point_group_measured_fraction_max 1.000
_diffrn_reflns_theta_full        67.687
_diffrn_reflns_theta_max         68.239
_diffrn_reflns_theta_min         5.228
_diffrn_standards_number         0
_exptl_absorpt_coefficient_mu    13.391
_exptl_absorpt_correction_T_max  0.765
_exptl_absorpt_correction_T_min  0.103
_exptl_absorpt_correction_type   numerical
_exptl_absorpt_process_details   'NUMABS (Rigaku, 1999)'
_exptl_crystal_colour            colorless
_exptl_crystal_density_diffrn    2.428
_exptl_crystal_density_method    'not measured'
_exptl_crystal_description       platelet
_exptl_crystal_F_000             436.00
_exptl_crystal_size_max          0.280
_exptl_crystal_size_mid          0.100
_exptl_crystal_size_min          0.020
_refine_diff_density_max         1.04
_refine_diff_density_min         -0.68
_refine_ls_extinction_coef       0.0017(2)
_refine_ls_extinction_method     SHELXL
_refine_ls_goodness_of_fit_ref   1.097
_refine_ls_hydrogen_treatment    constr
_refine_ls_number_parameters     74
_refine_ls_number_reflns         1179
_refine_ls_number_restraints     0
_refine_ls_R_factor_all          0.0347
_refine_ls_R_factor_gt           0.0328
_refine_ls_shift/su_max          0.000
_refine_ls_structure_factor_coef Fsqd
_refine_ls_weighting_details
'w = 1/[\s^2^(Fo^2^)+0.6554P] where P=(Fo^2^+2Fc^2^)/3'
_refine_ls_weighting_scheme      calc
_refine_ls_wR_factor_gt          0.0767
_refine_ls_wR_factor_ref         0.0779
_reflns_Friedel_coverage         0.000
_reflns_number_gt                1124
_reflns_number_total             1179
_reflns_threshold_expression     F^2^>2.0\s(F^2^)
_cod_data_source_file            cm9b01187_si_004.cif
_cod_data_source_block           BDS-SeMe_plate_CF_Hex
_cod_database_code               4002968
_shelx_res_file
;

    shelxl.res created by SHELXL-2014/7

TITL BDS-SeMe_plate_CF_Hex
CELL  1.54187 8.60863 14.26968 5.32468 90.00000 100.65100 90.00000
ZERR  2 0.00016 0.00026 0.00010 0.00000 0.00070 0.00000
LATT 1
SYMM    -X, .50+Y, .50-Z
SFAC C H SE
UNIT 24 20 8
L.S. 5
FMAP 2
PLAN 20
WPDB -2
HTAB
BOND $H
CONF
LIST 4
TEMP -173.0
ACTA
SIZE 0.280 0.100 0.020
WGHT    0.000000    0.655400
EXTI    0.001696
FVAR       0.74122
SE1   3    0.364659    0.162036    0.586062    11.00000    0.01122    0.01339 =
         0.01451    0.00129    0.00353    0.00087
SE2   3    0.882224    0.073494    0.649805    11.00000    0.01138    0.01655 =
         0.01642    0.00263    0.00627    0.00129
C1    1    0.661030   -0.024359    1.012985    11.00000    0.01092    0.01843 =
         0.01168   -0.00322    0.00273   -0.00043
AFIX  43
H1    2    0.768589   -0.041414    1.021974    11.00000   -1.20000
AFIX   0
C2    1    0.430870    0.067957    0.832066    11.00000    0.01271    0.00909 =
         0.01158   -0.00100    0.00007   -0.00021
C3    1    0.591770    0.044850    0.844410    11.00000    0.01106    0.01259 =
         0.01046   -0.00425    0.00336   -0.00279
C4    1    0.667093    0.098604    0.667947    11.00000    0.01430    0.00961 =
         0.01377   -0.00146    0.00453   -0.00201
C5    1    0.572279    0.161182    0.522639    11.00000    0.01525    0.01295 =
         0.01687    0.00083    0.00925    0.00084
AFIX  43
H5    2    0.607139    0.200753    0.400699    11.00000   -1.20000
AFIX   0
C6    1    0.903523    0.159093    0.375134    11.00000    0.01453    0.01766 =
         0.01726    0.00195    0.00642   -0.00119
AFIX  33
H6A   2    1.011026    0.155102    0.339560    11.00000   -1.20000
H6B   2    0.827422    0.142163    0.221265    11.00000   -1.20000
H6C   2    0.882879    0.223253    0.425830    11.00000   -1.20000
AFIX   0
HKLF 4

REM  BDS-SeMe_plate_CF_Hex
REM R1 =  0.0328 for    1124 Fo > 4sig(Fo)  and  0.0347 for all    1179 data
REM     74 parameters refined using      0 restraints

END

WGHT      0.0000      0.6553

REM Instructions for potential hydrogen bonds
EQIV $1 x, -y+1/2, z-1/2
HTAB C5 Se1_$1
EQIV $2 x+1, y, z
HTAB C6 Se1_$2

REM Highest difference peak  1.040,  deepest hole -0.680,  1-sigma level  0.159
Q1    1   0.9971  0.0746  0.7214  11.00000  0.05    1.04
Q2    1   0.2513  0.1635  0.5167  11.00000  0.05    0.91
Q3    1   0.7436  0.0752  0.5983  11.00000  0.05    0.90
Q4    1   0.5021  0.1630  0.6411  11.00000  0.05    0.86
Q5    1   0.8858  0.0003  0.6394  11.00000  0.05    0.71
Q6    1   0.3607  0.0870  0.5861  11.00000  0.05    0.65
Q7    1   0.9123  0.1394  0.6447  11.00000  0.05    0.62
Q8    1   0.8789  0.1030  0.4701  11.00000  0.05    0.58
Q9    1   0.4477  0.1617  0.4296  11.00000  0.05    0.56
Q10   1   0.6421  0.0753  0.8500  11.00000  0.05    0.54
Q11   1   0.8093  0.0777  0.7962  11.00000  0.05    0.53
Q12   1   0.9366  0.0837  0.4946  11.00000  0.05    0.53
Q13   1   0.5860  0.1635  0.3609  11.00000  0.05    0.52
Q14   1   0.5675  0.2246  0.4722  11.00000  0.05    0.51
Q15   1   0.3553  0.2370  0.5618  11.00000  0.05    0.49
Q16   1   1.1771  0.2571  0.4643  11.00000  0.05    0.47
Q17   1   0.6238  0.1176  0.5047  11.00000  0.05    0.46
Q18   1   0.2875  0.1581  0.7505  11.00000  0.05    0.46
Q19   1   0.6139 -0.0058  0.8611  11.00000  0.05    0.43
Q20   1   1.0707  0.0783  0.3021  11.00000  0.05    0.41
;
_shelx_res_checksum              91124
_shelx_hkl_file
;
   0   0   1    0.08    1.38
   0   0   1    5.98    1.28
   0   0   1   -0.19    1.31
   0   0  -1    1.49    1.32
   0   0  -1    1.57    1.37
   0   0  -1    1.80    1.96
   0   0  -2  342.46   34.71
   0   0  -2  358.43   42.09
   0   0   2  354.27   37.17
   0   0   2  339.48   37.59
   0   0   2  332.70   40.56
   0   0   2  375.79   39.00
   0   0   2  333.12   35.40
   0   0  -2  391.83   38.67
   0   0   2  346.58   33.02
   0   0   3   22.60    5.13
   0   0  -3    8.77    6.99
   0   0  -3    4.30    5.62
   0   0  -3    0.83    4.90
   0   0  -3    1.31    3.02
   0   0  -3    2.04    3.61
   0   0   3    0.41    2.43
   0   0   3    6.37    4.28
   0   0   3    0.87    3.86
   0   0   3    7.11    3.65
   0   0   3    3.33    5.15
   0   0   4 4833.59  947.30
   0   0   4 2652.00  737.04
   0   0  -4 5469.74 1191.32
   0   0   4 5269.95 1030.49
   0   0   4 4973.70  990.69
   0   0   5   26.70   11.65
   0   0  -5   -0.55   25.72
   0   0   5   32.52   12.67
   0   0   5    1.99    9.56
   0   0   6   55.93   23.39
   0   0  -6   93.83   44.18
   0   0   6   56.01   17.51
   0   1   0    1.21    0.82
   0   1   0    1.62    0.42
   0   1   0    2.39    0.28
   0   1   0    1.37    0.21
   0   1   0    0.93    0.45
   0   1   0    3.67    1.10
   0  -1   0    1.74    1.20
   0  -1   0    0.00    0.41
   0  -1   0    0.01    0.52
   0  -1   0    2.26    0.21
   0  -1   0    0.10    0.50
   0   1   1 5646.09  995.92
   0   1  -1 5220.56  905.40
   0   1   1 5213.47  866.23
   0   1  -1 5302.76  951.44
   0   1   1 6005.80 1044.93
   0   1  -1 5411.28  930.81
   0   1   1 5602.57  973.94
   0   1   1 6244.24 1103.04
   0   1  -1 5338.10  973.31
   0   1  -1 5716.91 1010.42
   0   1   1 5732.97 1030.60
   0   1   1 3773.49  813.44
   0   1   1 5749.60  916.50
   0  -1   1 5354.51  899.50
   0  -1  -1 5617.23  993.82
   0  -1   1 5351.16  949.04
   0  -1   1 5246.95  932.61
   0  -1   1 5364.26  944.92
   0  -1  -1 6064.20 1089.95
   0  -1   1 5242.69  921.83
   0  -1   1 4875.96  869.79
   0  -1  -1 6148.57 1067.41
   0   1   2 5739.78 1120.78
   0   1   2 6376.68 1227.08
   0   1  -2 5672.58 1103.87
   0   1   2 5457.81 1107.32
   0   1  -2 5477.43 1067.00
   0   1   2 5577.70 1026.16
   0   1   2 6150.25 1215.67
   0   1  -2 5592.39 1123.66
   0   1  -2 6475.71 1226.98
   0   1  -2 5867.33 1122.22
   0   1  -2 5446.57 1124.14
   0   1   2 5923.84 1150.64
   0   1  -2 5969.54 1167.73
   0  -1   2 5717.08 1096.43
   0  -1   2 5938.26 1156.96
   0  -1   2 5922.86 1140.72
   0  -1  -2 6228.44 1252.31
   0  -1   2 5721.15 1128.49
   0  -1  -2 6630.60 1271.78
   0  -1   2 5986.32 1154.05
   0  -1  -2 6402.98 1234.25
   0  -1   2 6699.53 1289.70
   0  -1   2 5595.70  961.35
   0   1   3 2520.89  482.87
   0   1   3 2744.20  457.93
   0   1  -3 2721.63  432.76
   0   1  -3 3026.50  484.12
   0   1   3 2724.36  454.88
   0   1  -3 2883.59  503.08
   0   1  -3 2506.44  415.40
   0   1   3 2645.97  472.44
   0   1  -3 2749.00  505.16
   0   1   3 2541.51  426.57
   0   1  -3 2360.32  389.76
   0   1  -3 3022.32  501.92
   0   1   3 5873.53  944.02
   0  -1  -3 3151.21  511.75
   0  -1   3 2084.05  359.21
   0  -1   3 2511.22  406.07
   0  -1  -3 2808.90  454.72
   0  -1  -3 2725.37  456.58
   0  -1  -3 2919.53  517.63
   0  -1   3 3813.57  622.50
   0  -1   3 2715.91  468.03
   0  -1   3 2529.02  429.94
   0  -1   3 2454.80  412.07
   0   1   4  546.07   83.93
   0   1  -4  597.98  116.32
   0   1   4  336.49  104.66
   0   1   4  579.48   87.73
   0   1   4  610.42   91.85
   0  -1   4  478.03  114.42
   0  -1  -4  712.38  135.47
   0  -1   4  572.49   89.58
   0  -1   4  554.24   79.69
   0  -1   4  580.79   88.13
   0   1   5  567.42   95.72
   0   1  -5  612.94  142.93
   0   1   5  560.66   94.67
   0   1   5  549.26  105.76
   0  -1  -5  716.25  164.88
   0  -1   5  506.70   81.70
   0  -1   5  553.51   97.67
   0  -1   5  572.12   91.95
   0   1   6   29.45   12.86
   0   1  -6   30.05   48.62
   0   1   6   32.20   12.65
   0  -1   6   39.67   20.03
   0  -1  -6   36.64   37.44
   0  -1   6   48.15   23.38
   0   2   0 1791.25  245.49
   0   2   0 1784.77  188.17
   0   2   0 1953.56  225.76
   0   2   0 1755.93  210.70
   0   2   0 1727.92  188.47
   0   2   0 1853.78  214.92
   0   2   0 1900.14  211.78
   0   2   0 1713.86  204.88
   0  -2   0 1836.22  214.78
   0  -2   0 1909.73  227.24
   0  -2   0 1800.00  213.55
   0  -2   0 1942.54  244.26
   0   2   111171.82 2545.90
   0   2  -111467.78 2560.38
   0   2   111137.14 2553.60
   0   2  -111695.03 2728.27
   0   2   112047.46 2702.85
   0   2   1 6130.54 1694.36
   0   2  -110508.00 2417.18
   0   2  -111279.40 2467.43
   0   2  -1 9645.39 2237.83
   0   2   111221.89 2456.87
   0   2   111720.95 2721.74
   0   2  -111575.38 2638.27
   0   2  -112488.16 2862.63
   0   2   111698.86 2592.98
   0  -2   111652.54 2659.80
   0  -2   110056.08 2264.64
   0  -2   1 9873.91 2264.56
   0  -2   110744.99 2476.92
   0  -2   1 9766.49 2231.24
   0  -2   110519.24 2398.20
   0  -2  -110621.86 2420.39
   0  -2  -112843.32 3008.57
   0   2   2  931.29  135.40
   0   2   2  923.40  114.25
   0   2   2  934.95  111.70
   0   2  -2 1030.34  116.60
   0   2  -2  957.11  121.55
   0   2   2  928.00  113.71
   0   2  -2 1014.35  122.50
   0   2   2  927.66  121.15
   0   2  -2 1056.80  115.25
   0   2  -2  891.62  121.93
   0   2   2  809.26   81.59
   0   2  -2  930.99  111.79
   0   2  -2  912.77  112.34
   0  -2   2  904.04  113.43
   0  -2   2  953.89  115.78
   0  -2   2  911.99  102.34
   0  -2   2  904.30  118.13
   0  -2   2 1016.69  121.32
   0  -2  -2 1040.05  121.88
   0  -2   2  937.47   94.50
   0  -2  -2 1045.16  138.28
   0  -2   2  956.80  115.91
   0  -2   2  942.10  110.26
   0  -2  -2 1019.81  122.13
   0   2  -3 5786.87 1052.66
   0   2  -3 4276.40  880.93
   0   2  -3 4336.77  826.26
   0   2  -3 4125.05  784.15
   0   2   3 4268.52  805.29
   0   2   3 4569.12  868.94
   0   2   3 2349.07  595.54
   0   2  -3 4981.68  947.20
   0   2   3 4802.04  898.94
   0   2   3 4448.20  888.98
   0   2  -3 4485.56  808.26
   0   2  -3 4716.77  920.25
   0  -2  -3 4744.21  872.99
   0  -2  -3 5397.59 1004.17
   0  -2   3 4076.87  753.02
   0  -2   3 5750.38 1076.86
   0  -2  -3 3756.63  720.56
   0  -2   3 4406.38  861.57
   0  -2  -3 5049.06 1015.04
   0  -2   3 4453.94  860.03
   0  -2   3 4325.71  821.38
   0  -2   3 4524.40  846.82
   0   2   4  137.90   28.19
   0   2  -4  130.75   61.12
   0   2   4  132.34   25.87
   0   2   4  147.27   29.88
   0  -2   4  114.42   37.06
   0  -2   4  140.53   29.89
   0  -2  -4  168.57   52.63
   0  -2   4  132.34   26.16
   0  -2   4  136.60   22.69
   0   2   5  369.20   79.92
   0   2  -5  345.72   89.85
   0   2   5  318.86   55.48
   0   2   5  348.94   63.18
   0  -2   5  135.81   75.18
   0  -2   5  315.67   55.51
   0  -2   5  325.87   61.65
   0  -2  -5  506.08  125.45
   0   2   6  801.52  142.37
   0   2   6 1231.27  186.29
   0   2  -6 1028.10  210.54
   0  -2   6 1385.99  209.83
   0  -2   6 1161.23  181.23
   0  -2  -6 2278.88  431.36
   0   3   0    0.52    0.94
   0   3   0    0.96    1.16
   0   3   0    0.04    0.87
   0   3   0    1.80    3.35
   0   3   0    0.83    0.91
   0   3   0   -0.13    1.18
   0  -3   0   -0.14    1.26
   0   3  -111437.94 2476.46
   0   3   111762.13 2699.11
   0   3  -111300.26 2651.81
   0   3   111486.80 2768.19
   0   3   111432.80 2675.01
   0   3  -111326.02 2590.54
   0   3  -112363.43 2970.65
   0   3  -1 9251.75 2218.40
   0   3   111057.61 2461.79
   0   3  -110448.37 2438.20
   0   3   110330.97 2411.86
   0   3   110756.53 2456.66
   0   3   110465.63 2490.20
   0   3  -110742.09 2499.41
   0  -3   110940.90 2551.33
   0  -3   111009.21 2571.16
   0  -3   110345.63 2461.69
   0  -3   1 9701.77 2272.76
   0  -3   112428.27 2911.38
   0  -3   110236.43 2385.68
   0   3   2 4122.41  590.72
   0   3  -2 4119.07  729.70
   0   3   2 4144.20  699.66
   0   3   2 3807.83  687.19
   0   3   2 3689.37  612.88
   0   3   2 3947.80  681.40
   0   3  -2 3533.17  665.81
   0   3  -2 4109.82  707.27
   0   3  -2 4039.25  664.65
   0   3  -2 3972.45  629.12
   0   3   2 2577.87  602.93
   0   3  -2 3839.78  674.49
   0   3   2 2775.35  622.66
   0   3  -2 3856.49  663.96
   0  -3   2 4007.60  668.18
   0  -3   2 3982.59  639.08
   0  -3   2 3808.88  659.49
   0  -3   2 4049.16  702.74
   0  -3   2 3784.52  660.75
   0  -3   2 4166.48  711.80
   0  -3   2 3877.21  679.48
   0  -3  -2 4416.34  750.79
   0   3   3   80.81   15.29
   0   3   3   31.89    7.98
   0   3  -3   36.06    8.48
   0   3  -3   37.08   12.33
   0   3   3   19.46   20.60
   0   3   3   38.68   10.81
   0   3  -3   72.38   12.03
   0   3  -3   38.69    6.51
   0   3   3   45.04   11.14
   0   3  -3   53.74   12.40
   0   3  -3   38.58    8.28
   0   3  -3   34.21   21.93
   0  -3  -3   47.24   17.48
   0  -3   3   31.68    6.54
   0  -3   3   79.33   12.91
   0  -3  -3   19.02    6.32
   0  -3   3   54.86   12.04
   0  -3   3   41.02   11.99
   0  -3   3   38.70   11.34
   0  -3   3   36.77    9.07
   0   3   4  449.17   70.27
   0   3  -4  459.20   80.20
   0   3   4  441.34   84.26
   0   3  -4  406.20   90.26
   0   3   4  400.18   60.92
   0   3   4  452.02   73.93
   0  -3   4  412.43   83.02
   0  -3   4  450.21   75.93
   0  -3   4  470.18   68.13
   0   3   5  997.65  165.96
   0   3  -5  780.16  180.65
   0   3   5  947.37  155.24
   0  -3   5  483.88  170.23
   0  -3   5  839.63  133.49
   0  -3  -5 1576.47  326.50
   0  -3   5  881.49  150.52
   0   3   6  256.85   43.69
   0   3   6  254.38   45.81
   0   3  -6  194.90   56.20
   0  -3  -6  407.42   98.06
   0  -3   6  275.02   49.34
   0   4   0 6834.70 1347.37
   0   4   0 6900.48 1336.03
   0   4   0 6624.22 1289.82
   0   4   0 6039.74 1241.21
   0   4   0 6700.95 1225.76
   0   4   0 5517.12 1325.17
   0   4   0 7333.55 1444.37
   0  -4   0 7319.99 1432.62
   0  -4   0 7569.73 1487.21
   0   4  -1 3745.83  634.87
   0   4   1 3741.96  636.19
   0   4  -1 4064.43  666.90
   0   4  -1 4241.18  717.44
   0   4   1 3748.39  624.08
   0   4   1 3828.62  694.30
   0   4  -1 3782.30  671.22
   0   4   1 4075.52  673.88
   0   4   1 3954.03  647.31
   0   4  -1 3779.95  637.43
   0   4  -1 3926.51  676.20
   0   4   1 4091.39  607.90
   0   4   1 4059.25  654.79
   0  -4   1 4098.86  704.29
   0  -4   1 4163.25  692.80
   0  -4   1 4288.68  730.14
   0  -4   1 4339.69  722.77
   0  -4   1 3778.36  623.85
   0   4   2   26.96    7.47
   0   4   2   27.10    4.06
   0   4   2   35.94   13.90
   0   4  -2   37.63    9.61
   0   4  -2   32.76   11.21
   0   4   2   27.85    6.65
   0   4  -2   37.88    5.53
   0   4   2   27.24    9.02
   0   4  -2   31.76    5.15
   0   4  -2   30.29    8.09
   0   4  -2   29.33    6.95
   0   4   2   27.58    2.84
   0   4  -2   33.40    3.13
   0   4  -2   27.70    6.89
   0   4   2   23.00    7.14
   0  -4   2   27.77    6.79
   0  -4   2   34.37    8.04
   0  -4   2   29.06    7.22
   0  -4   2   29.42    7.91
   0  -4   2   26.65    7.00
   0  -4   2   34.73    4.97
   0  -4   2   40.40    5.33
   0   4   3  605.72   95.01
   0   4  -3  566.58   83.57
   0   4   3  543.54  105.28
   0   4   3  651.53   91.24
   0   4  -3  682.81   93.89
   0   4  -3  646.62   94.52
   0   4   3  641.64   99.90
   0   4  -3  666.09   82.68
   0   4  -3  572.20   78.32
   0   4   3  571.96   72.83
   0   4  -3  543.49   93.93
   0  -4   3  751.21  101.90
   0  -4  -3  646.96   86.24
   0  -4   3  633.86   91.72
   0  -4   3  604.44   78.14
   0  -4   3  590.34   83.81
   0  -4   3  663.37   91.94
   0   4  -4  827.93  149.67
   0   4  -4  712.57  150.19
   0   4   4  857.42  155.39
   0   4   4  831.24  136.71
   0   4   4  899.00  138.61
   0  -4   4  827.67  150.77
   0  -4   4  869.17  140.94
   0  -4   4  823.37  123.34
   0   4   5 3681.40  723.41
   0   4   5 3805.16  709.01
   0   4  -5 2713.04  631.96
   0  -4   5 3480.08  665.96
   0  -4  -5 7456.33 1586.68
   0  -4   5 1597.39  518.49
   0  -4   5 3086.85  579.40
   0   4   6  109.48   28.05
   0   4   6  143.57   33.18
   0   4  -6  387.99   54.76
   0  -4   6  123.42   30.31
   0  -4  -6  135.85   53.10
   0   5   0    1.40    2.49
   0   5   0   -0.21    4.45
   0   5   0    2.71    0.64
   0   5   0    2.31    1.84
   0   5   0    0.87    2.42
   0   5   0    0.85   11.79
   0   5   0    2.14    1.72
   0  -5   0   -0.15    2.58
   0  -5   0    0.03    3.81
   0   5   1   76.23    8.45
   0   5  -1   74.55   14.41
   0   5   1   69.48   10.18
   0   5   1   77.01    7.76
   0   5  -1   73.70   10.99
   0   5  -1   75.20   10.43
   0   5  -1   74.97   11.52
   0   5   1   71.63   15.38
   0   5  -1   66.71    9.70
   0   5   1   72.44    8.83
   0   5  -1   69.01    7.75
   0   5   1   70.00    7.67
   0  -5   1   87.40   12.39
   0  -5   1   71.49   15.66
   0  -5   1   82.13   10.90
   0  -5   1   82.03   13.82
   0   5   2  321.46   39.01
   0   5   2  307.12   33.58
   0   5   2  290.10   27.07
   0   5  -2  316.93   39.79
   0   5   2  283.91   25.83
   0   5  -2  366.45   55.92
   0   5  -2  305.73   34.64
   0   5  -2  416.62   53.82
   0   5   2  298.99   34.19
   0   5  -2  336.72   40.76
   0   5   2  300.31   44.29
   0   5   2  317.24   46.21
   0  -5   2  330.54   43.08
   0  -5   2  328.27   40.17
   0  -5   2  344.60   43.86
   0  -5   2  303.84   31.14
   0  -5   2  318.33   38.31
   0  -5   2  332.90   41.31
   0  -5   2  350.07   36.74
   0   5  -3 1057.96  166.13
   0   5   3 1079.68  152.26
   0   5   3 1149.63  184.29
   0   5  -3 1198.87  212.39
   0   5  -3  988.76  157.72
   0   5   3 1086.27  173.95
   0  -5   3  990.11  167.43
   0  -5   3 1017.67  138.69
   0  -5   3  997.67  150.94
   0  -5   3  986.95  147.05
   0   5   4 2718.48  500.25
   0   5   4 2616.88  520.91
   0   5  -4 2062.23  455.47
   0   5   4 2798.48  501.35
   0   5  -4 2523.65  501.23
   0  -5   4 2588.05  512.89
   0  -5   4 2432.83  432.22
   0  -5   4 2614.18  489.73
   0   5   5  309.10   68.89
   0   5   5  337.65   57.09
   0   5  -5  178.16   53.51
   0  -5   5  302.26   55.46
   0  -5   5  173.84   84.83
   0  -5   5  229.05   39.30
   0  -5  -5  717.65  163.18
   0   5   6  245.36   40.48
   0   5  -6  204.96   46.34
   0   5   6  200.69   39.96
   0  -5   6  217.48   38.13
   0  -5  -6  276.17   63.39
   0   6   0  161.12   20.68
   0   6   0  149.53   16.05
   0   6   0  184.29   21.41
   0   6   0  143.61   65.05
   0   6   0  163.04   10.72
   0   6   0  168.72   20.47
   0   6   0  138.54   15.81
   0  -6   0  161.41   19.68
   0  -6   0  175.19   21.65
   0   6  -1  636.27   64.07
   0   6   1  598.46   64.30
   0   6  -1  646.21  109.87
   0   6  -1  637.74   85.55
   0   6  -1  584.29   72.46
   0   6   1  581.81   86.12
   0   6  -1  590.76   77.52
   0   6  -1  569.90   67.34
   0   6   1  529.10   58.31
   0   6   1  573.56   59.33
   0   6   1  586.18   67.25
   0   6   1  588.27   70.35
   0  -6   1  650.97   80.25
   0  -6   1  609.12   71.73
   0   6   2 3735.14  644.81
   0   6  -2 6289.90 1177.10
   0   6  -2 4432.85  835.60
   0   6  -2 3927.19  713.10
   0   6   2 3897.13  765.63
   0   6  -2 3934.33  738.94
   0   6   2 3888.25  760.18
   0   6  -2 3710.97  759.31
   0   6   2 3723.28  656.22
   0   6   2 4199.26  766.64
   0   6  -2 3877.84  712.43
   0   6   2 4120.59  734.83
   0  -6   2 3555.34  653.78
   0  -6   2 4292.19  812.68
   0  -6   2 4115.50  782.39
   0  -6   2 4192.47  781.25
   0  -6   2 4153.90  745.60
   0  -6   2 4438.23  814.00
   0   6  -3    3.70    7.66
   0   6  -3   -0.59    5.77
   0   6   3    8.20    6.46
   0   6   3    1.54    4.97
   0   6   3    1.97    4.27
   0   6  -3    6.02    4.55
   0  -6   3    2.72    5.20
   0  -6   3    0.30    4.64
   0   6   4  185.08   38.75
   0   6   4  174.82   45.07
   0   6  -4  181.99   54.97
   0   6  -4  116.48   37.01
   0   6   4  183.40   38.80
   0  -6   4  196.26   45.33
   0  -6   4  213.89   39.28
   0   6  -5  183.29   58.49
   0   6  -5  394.19   65.34
   0   6   5  368.36   60.96
   0   6   5  378.11   64.37
   0  -6   5  261.33   97.48
   0  -6   5  385.87   64.79
   0  -6  -5  714.94  157.03
   0   7   0   12.90    3.70
   0   7   0    0.93    3.66
   0   7   0   -0.14   14.02
   0   7   0    1.82    2.42
   0   7   0    0.85    2.55
   0  -7   0    4.09    3.83
   0  -7   0    3.75    3.46
   0   7  -1   74.30   13.71
   0   7   1   83.29   12.50
   0   7   1   85.60   10.30
   0   7   1   87.05   20.70
   0   7  -1   78.56   13.68
   0   7  -1   75.96   15.37
   0   7   1   75.14    9.16
   0   7   1   80.39    9.79
   0   7   1   83.02   13.68
   0   7  -1   72.23   23.85
   0   7  -1   85.24    9.10
   0  -7   1   96.19   16.87
   0  -7   1   84.74   14.24
   0   7   2  311.28   37.00
   0   7   2  294.62   47.60
   0   7   2  345.87   52.00
   0   7  -2  558.44   82.32
   0   7  -2  317.30   43.46
   0   7  -2  326.70   40.44
   0   7   2  306.69   35.34
   0   7  -2  315.21   63.66
   0   7  -2  551.56   67.71
   0   7  -2  322.54   47.48
   0   7   2  306.86   52.32
   0  -7   2  440.32   60.51
   0  -7   2  330.93   43.31
   0  -7   2  348.99   51.83
   0  -7   2  372.18   51.96
   0  -7   2  295.02   37.98
   0  -7   2  345.03   47.43
   0   7  -3 1376.66  223.81
   0   7  -3 1412.44  244.39
   0   7   3 1397.07  226.61
   0   7  -3 1258.63  259.96
   0   7   3 1386.04  244.76
   0   7   3 1496.61  228.80
   0  -7   3 1394.40  220.15
   0  -7   3 1500.77  240.66
   0   7  -4 1148.55  272.13
   0   7   4 1388.41  226.64
   0   7   4 1011.88  172.74
   0   7   4 1348.13  242.93
   0   7  -4 1334.68  226.70
   0  -7   4 1002.15  180.67
   0  -7   4 1382.52  222.79
   0   7  -5  445.66   71.95
   0   7   5  422.35   68.40
   0   7   5  430.35   70.44
   0   7  -5  191.07   56.35
   0  -7   5  256.54   98.68
   0  -7  -5  746.78  149.25
   0  -7   5  423.12   68.22
   0   8   0 3918.66 1116.90
   0   8   0 6012.69 1233.96
   0   8   0 6641.97 1364.31
   0   8   0 5767.96 1155.47
   0   8   0 5857.04 1169.69
   0  -8   0 6383.13 1323.57
   0  -8   0 6676.38 1355.49
   0   8  -1    9.98    6.29
   0   8   1    8.70    8.76
   0   8   1    4.28    4.84
   0   8   1    5.92    3.03
   0   8   1    8.55    3.50
   0   8  -1    5.29   14.40
   0   8  -1   31.44   10.44
   0   8  -1   10.51    6.17
   0   8   1    8.24    5.82
   0  -8   1   13.97    7.04
   0  -8   1   13.42    6.99
   0  -8   1   12.26    6.15
   0   8  -2  105.66   20.08
   0   8   2  104.19   16.28
   0   8   2  101.87   17.16
   0   8  -2  111.18   22.70
   0   8   2  103.75   23.30
   0   8  -2  118.86   17.37
   0   8   2  122.84   27.00
   0   8  -2  230.96   31.14
   0   8  -2   76.58   47.74
   0  -8   2  126.69   24.78
   0  -8   2  111.16   19.74
   0  -8   2   94.13   15.32
   0   8   3 1671.10  275.84
   0   8  -3 1785.31  305.96
   0   8   3 1853.22  306.20
   0   8  -3 1821.67  326.64
   0   8   3 1710.42  319.26
   0   8  -3 1561.23  362.69
   0  -8   3 1930.31  329.87
   0  -8   3 1739.19  286.88
   0   8   4 1455.26  247.98
   0   8   4 1596.78  269.36
   0   8  -4 1267.09  334.73
   0   8  -4 1615.43  282.80
   0   8   4 1511.22  284.75
   0  -8   4 1215.06  226.49
   0  -8   4 1471.04  243.84
   0   8   5 1274.74  228.62
   0   8   5 1460.45  237.38
   0   8  -5 1259.93  276.25
   0  -8  -5 2451.55  462.13
   0  -8   5  958.12  254.88
   0  -8   5 1482.51  235.56
   0   9   0    0.35    4.76
   0   9   0    1.63   11.46
   0   9   0    1.68    5.16
   0   9   0    6.50    3.44
   0   9   0    2.55    3.40
   0   9  -1 4389.90  842.20
   0   9   1 4145.17  797.44
   0   9   1 3723.98  792.19
   0   9   1 3630.00  661.76
   0   9  -1 3989.64  765.31
   0   9   1 3803.01  722.05
   0   9  -1 4345.09  825.12
   0   9  -1 2529.41  819.90
   0  -9   1 6326.21 1169.93
   0   9   2 1103.60  191.79
   0   9  -2 1087.82  181.39
   0   9  -2 1182.70  183.63
   0   9   2 1131.59  190.30
   0   9  -2 1294.67  218.54
   0   9  -2  912.51  223.51
   0   9   2 1050.17  154.59
   0  -9   2 1464.20  224.60
   0   9  -3  110.61   53.73
   0   9   3  133.65   35.33
   0   9  -3  153.89   41.46
   0   9   3  144.47   27.41
   0   9  -3  141.71   37.43
   0  -9   3  135.18   24.39
   0  -9   3  155.74   34.96
   0   9  -4  840.50  146.69
   0   9   4  745.87  139.42
   0   9   4  739.44  129.04
   0   9   4  809.13  143.71
   0   9  -4  560.79  170.76
   0  -9   4  800.47  121.89
   0  -9   4  697.28  124.41
   0   9  -5  982.73  189.72
   0   9   5  504.28  112.90
   0   9   5 1094.56  159.95
   0  -9  -5 1760.81  305.82
   0  -9   5 1032.34  156.27
   0  -9   5 1111.47  169.53
   0  10   0 3328.75  600.07
   0  10   0 2633.85  607.16
   0  10   0 3044.20  546.18
   0  10   0 2599.52  454.29
   0  10   1 3652.08  701.18
   0  10   1 3208.00  706.71
   0  10  -1 3845.19  750.58
   0  10  -1 3532.42  691.79
   0  10   1 3898.51  764.63
   0  10  -1 2764.40  883.58
   0  10  -1 4027.22  790.87
   0 -10   1 6425.24 1205.82
   0  10  -2  262.94  110.28
   0  10  -2  402.38   69.00
   0  10  -2  397.26   70.32
   0  10   2  379.29   71.75
   0  10   2  364.72   87.38
   0  10  -2  414.94   81.24
   0 -10   2  484.76   81.59
   0  10   3 1547.81  254.88
   0  10  -3 1036.83  310.50
   0  10  -3 1602.35  307.98
   0  10   3 1460.45  276.45
   0  10  -3 1579.14  274.24
   0 -10   3 1816.72  314.63
   0  10  -4  449.08   81.24
   0  10   4  375.63   72.29
   0  10  -4  334.80   60.74
   0  10  -4  357.34  103.94
   0  10   4  410.05   63.34
   0 -10   4  378.81   71.43
   0  10  -5  361.80   74.10
   0  10   5  487.89   61.29
   0 -10   5  453.08   62.22
   0 -10   5  184.48   46.12
   0  11   0   -0.16    5.57
   0  11   0    2.85    9.24
   0  11   0    4.55    5.58
   0 -11   0   -1.30   13.49
   0  11  -1  548.17   90.73
   0  11  -1  641.91  108.89
   0  11  -1  528.81  177.11
   0  11   1  598.13   94.31
   0  11   1  610.45  115.83
   0  11  -1  647.66  105.98
   0  11   1  633.81  106.53
   0 -11   1 1098.25  168.83
   0  11  -2 3941.66 1224.14
   0  11   2 4034.36  941.93
   0  11  -2 5233.33 1123.48
   0  11  -2 4732.15 1033.89
   0  11   2 4372.66 1027.32
   0  11  -2 5118.40 1092.77
   0 -11   2 6525.52 1380.18
   0  11  -3  475.98   83.53
   0  11  -3  358.52  126.80
   0  11  -3  468.67   81.88
   0  11   3  394.91   79.67
   0  11  -3  459.31   88.11
   0 -11   3  555.18   99.16
   0  11   4  367.84   56.09
   0  11  -4  327.37   93.65
   0  11  -4  406.21   77.81
   0  11   4  289.81   57.45
   0 -11   4  365.40   68.13
   0  12   0 6650.47 1571.35
   0  12   0 5290.28 1416.43
   0  12   0 6427.95 1515.71
   0 -12   021435.74 4913.31
   0  12  -1 1000.18  171.09
   0  12   1  955.98  165.78
   0  12  -1  833.10  138.79
   0  12  -1  962.39  161.49
   0  12   1  860.11  159.17
   0  12  -1  709.01  203.29
   0  12   1  785.30  155.95
   0 -12   1 1951.84  311.64
   0  12   2   96.51   31.56
   0  12   2   96.14   38.42
   0  12  -2  145.35   35.53
   0  12  -2  138.41   33.55
   0  12  -2  118.80   33.75
   0  12  -2   90.72   75.90
   0 -12   2  200.25   46.28
   0  12   3  350.46   71.49
   0  12  -3  373.23  150.47
   0  12  -3  450.55   87.78
   0  12  -3  449.71   77.89
   0 -12   3  567.73  102.01
   0  12   4  930.20  134.60
   0  12  -4 1330.45  211.91
   0  12  -4  981.29  240.01
   0 -12   4 1253.02  207.35
   0  13   0   -0.68    7.73
   0  13   0    5.46    7.23
   0  13   0    1.28    6.79
   0  13   1 3226.81  677.42
   0  13  -1 2853.28  708.24
   0  13  -1 3435.69  706.48
   0  13  -1 3241.07  645.07
   0  13  -1 3706.50  750.27
   0  13   1 3435.56  682.20
   0 -13   1 8811.14 1747.96
   0  13  -2  340.61   67.32
   0  13  -2  351.85   70.88
   0  13  -2  338.25   82.16
   0  13   2  297.86   81.68
   0  13  -2  236.70   92.98
   0 -13   2  592.97  107.25
   0  13  -3  546.85  159.96
   0  13  -3  900.33  144.59
   0  13  -3  840.49  127.19
   0 -13   3 1289.01  198.71
   0 -13   3  568.82   91.93
   0 -13   4  173.26   34.91
   0 -13   4  189.23   40.84
   0  14   0  888.32  162.42
   0  14   0  929.61  160.78
   0  14   1  534.00   91.67
   0  14   1  512.42  100.93
   0  14  -1  544.25  103.09
   0  14  -1  531.18  101.47
   0 -14   1 1482.99  245.00
   0  14  -2  210.63   46.16
   0  14  -2  195.90   43.35
   0  14  -2  193.63   41.82
   0  14   2  154.70   73.85
   0 -14   2  414.71   84.23
   0  14  -3 1017.54  150.42
   0 -14   3 1114.92  170.35
   0 -14   3  638.43  101.66
   0 -14   3 1822.55  273.75
   0  15   0   21.91   15.53
   0  15   0    1.61    9.86
   0  15  -1  331.50   64.17
   0  15   1  288.66   54.66
   0  15   1  297.80   65.28
   0  15  -1  300.40   61.62
   0 -15   1  576.49  110.20
   0  15  -2 1004.55  178.86
   0 -15   2 2207.71  383.85
   0 -15   3  167.66   38.77
   0 -15   3  327.58   59.61
   0  16   0  620.95   99.73
   0  16   0  552.58   97.37
   0  16  -1  131.13   46.22
   0  16  -1  142.59   33.24
   0  16   1  102.29   35.81
   0 -16  -1  145.19   30.06
   0  16  -2  435.86   66.49
   0 -16   2  373.61   55.95
   0  17   0   -1.26    4.21
   0 -17   0    0.46    3.57
  -1   0   6 1065.42  164.96
   1   0  -6 2136.25  407.68
  -1   0   6 1051.38  167.08
  -1   0   5    5.12    5.45
  -1   0   5   -1.65   16.03
   1   0  -5   -1.70   12.28
  -1   0   5    0.60    5.22
  -1   0   5   -0.40    4.46
  -1   0   4 1468.69  298.05
  -1   0   4 1435.05  227.11
  -1   0   4 1379.99  246.57
  -1   0   4 1456.56  234.82
   1   0  -4 1950.40  355.97
   1   0  -3    2.21    3.50
  -1   0   3    2.22    2.18
  -1   0   3   -0.30    4.42
   1   0  -3    1.72    5.83
   1   0  -3    5.95    3.15
  -1   0   3    0.81    3.22
  -1   0   3    2.43    2.96
  -1   0   3    2.51    3.40
  -1   0   2 3075.70  389.17
   1   0  -2 2339.42  333.31
   1   0  -2 2544.96  390.97
  -1   0   2 1949.03  257.34
  -1   0   2 2098.10  294.94
  -1   0   2 2095.84  306.37
  -1   0   2 2240.98  317.30
  -1   0   2 2041.91  294.42
   1   0  -2 2282.06  327.82
  -1   0   2 2332.88  341.74
   1   0  -2 2263.98  331.21
  -1   0   1    2.12    3.76
   1   0  -1    1.73    2.24
  -1   0   1    3.48    1.89
   1   0  -1    0.08    1.82
  -1   0   1    6.16    1.61
   1   0  -1    0.64    2.44
   1   0  -1    4.46    1.53
  -1   0   1    0.04    2.14
  -1   0   1    2.71    1.27
  -1   0   1    1.66    1.43
   1   0   0 1138.14  137.78
  -1   0   0 1197.38  151.97
   1   0   0 1462.41  167.64
  -1   0   0 1292.90  160.83
  -1   0   0 1455.53  184.62
  -1   0   0 1361.29  168.41
  -1   0   0 1338.48  156.93
   1   0   0 1153.00  148.29
   1   0   0 1268.29  160.50
   1   0   0 1426.08  185.92
  -1   0   0 1279.15  142.77
   1   0   0 1272.45  163.47
  -1   0   0 1392.32  170.68
   1   0   0 1444.02  180.07
   1   0   1    8.84    2.19
  -1   0  -1    1.72    5.39
  -1   0  -1   -0.02    1.96
   1   0   1   12.09    3.02
   1   0   1   10.19    2.44
   1   0   1    0.56    2.36
  -1   0  -1    7.48    2.17
   1   0   1    6.50    1.22
  -1   0  -1   -0.19    5.93
   1   0   1    1.06    1.11
   1   0   1    2.55    3.17
  -1   0  -1   12.19    2.63
  -1   0  -2 1681.80  266.42
  -1   0  -2 1956.28  264.13
   1   0   2 2530.32  330.41
  -1   0  -2 1652.70  229.04
   1   0   2 1823.79  246.33
   1   0   2 1579.95  248.29
  -1   0  -2 1805.93  244.79
   1   0   2 1781.12  249.80
   1   0   2 1710.84  246.64
   1   0   2 1740.29  242.78
  -1   0  -2 1874.99  272.44
   1   0   2 1804.09  254.00
   1   0   3    5.25    4.24
  -1   0  -3    2.46    6.98
  -1   0  -3   28.99    4.62
   1   0   3    8.91    6.49
   1   0   3    0.01    9.39
   1   0   3    1.45    7.86
  -1   0  -3    5.23    4.91
   1   0   3    1.68    7.33
  -1   0  -3   15.68    4.96
  -1   0  -3   49.30   12.63
   1   0   3    4.54    6.21
   1   0   3    0.99    5.57
   1   0   4 3647.88  703.07
  -1   0  -4 3076.34  723.38
   1   0   4 3905.54  764.50
   1   0   4 3746.93  739.27
   1   0   5    1.55    8.91
  -1   0  -5  220.57   36.35
   1   0   5   -1.16   16.75
   1   0   5    2.69   15.81
  -1   0  -6  944.53  174.82
   1   0   6  487.58   83.35
   1   0   6  418.91   82.34
   1   1  -6  905.16  176.75
  -1   1   6  662.03   98.95
  -1   1   6  635.12   97.33
   1  -1  -6 1530.19  288.11
  -1  -1   6  660.96  101.19
  -1  -1   6  613.91   91.88
  -1   1   5 2293.14  418.11
   1   1  -5 3130.13  656.40
  -1   1   5 2340.53  422.96
  -1   1   5 2226.33  401.06
   1  -1  -5 3797.32  802.66
  -1  -1   5 1295.35  459.73
  -1  -1   5 2175.40  381.54
  -1  -1   5 2356.60  434.32
  -1  -1   5 2305.28  407.68
  -1   1   4 1101.31  171.34
   1   1  -4 1398.38  255.12
  -1   1   4 1002.92  245.87
  -1   1   4 1116.35  175.25
  -1   1   4 1095.43  171.81
  -1  -1   4 1180.36  193.80
  -1  -1   4 1020.64  154.95
  -1  -1   4 1169.99  186.87
   1  -1  -4 1610.14  289.54
  -1  -1   4 1254.80  226.00
   1   1  -3 1217.10  184.69
   1   1  -3 1077.28  146.54
  -1   1   3 1183.16  164.29
   1   1  -3 1141.05  155.32
   1   1  -3 1214.58  200.73
  -1   1   3 1138.95  161.12
  -1   1   3 1108.69  156.26
   1   1  -3 1228.47  165.13
  -1   1   3 1297.55  203.72
   1   1  -3 1390.11  216.49
  -1  -1   3 1137.03  164.24
  -1  -1   3 1130.47  153.75
  -1  -1   3 1080.45  147.62
   1  -1  -3 1545.54  239.54
   1  -1  -3 1235.73  172.96
   1  -1  -3 1324.05  181.89
  -1  -1   3 1393.31  198.78
  -1  -1   3 1174.15  159.59
  -1  -1   3 1240.21  179.18
   1   1  -2 2590.05  391.07
  -1   1   2 3065.77  482.41
  -1   1   2 2543.25  387.34
  -1   1   2 2559.57  363.87
  -1   1   2 2664.24  353.07
  -1   1   2 2446.43  325.22
   1   1  -2 2932.55  474.83
   1   1  -2 2879.45  428.00
   1   1  -2 2579.57  413.75
  -1   1   2 2476.68  389.62
   1   1  -2 2897.02  429.26
  -1   1   2 2751.74  412.84
   1   1  -2 2800.15  432.22
  -1   1   2 2562.42  390.20
   1   1  -2 2826.32  428.15
  -1  -1   2 2676.95  396.36
   1  -1  -2 2916.94  441.93
   1  -1  -2 2885.35  441.19
  -1  -1   2 2573.83  396.43
  -1  -1   2 2692.47  407.59
  -1  -1   2 2665.56  394.77
  -1  -1   2 2636.50  365.91
  -1  -1   2 2701.29  413.79
   1   1  -1   52.76    6.72
  -1   1   1   37.79    3.30
   1   1  -1   49.33    6.13
   1   1  -1   51.31    4.56
  -1   1   1   52.07    5.00
  -1   1   1   50.08    5.01
  -1   1   1   47.32    4.01
   1   1  -1   42.95    5.41
  -1   1   1   48.07    5.46
   1   1  -1   60.85   10.64
  -1   1   1   55.62    6.76
  -1   1   1   48.85    4.13
  -1   1   1   68.50    9.12
   1   1  -1   49.47    5.96
  -1   1   1   76.89    5.98
   1  -1  -1   53.12    5.72
  -1  -1   1   45.99    5.64
  -1  -1   1   63.15    6.28
  -1  -1   1   56.79    8.57
  -1  -1   1   57.36    4.09
   1  -1  -1   50.33    5.81
  -1  -1   1   44.65    4.34
  -1  -1   1   53.75    5.11
   1  -1  -1   54.88    7.25
  -1   1   0   78.27   10.05
  -1   1   0   68.71   11.97
   1   1   0  109.42    7.85
   1   1   0   78.16   14.49
   1   1   0   85.56    9.06
  -1   1   0   62.76    6.55
  -1   1   0   67.90    3.18
   1   1   0  101.44    8.45
   1   1   0   65.36    3.51
   1   1   0   59.38    6.21
  -1   1   0   65.03    6.15
   1   1   0   62.08    5.60
  -1   1   0   59.83    7.42
   1   1   0   72.49    6.73
  -1  -1   0   62.00    5.65
   1  -1   0   66.65    7.11
  -1  -1   0   50.78   10.99
  -1  -1   0   67.93    6.31
   1  -1   0   64.08   11.01
   1  -1   0   62.47    6.11
  -1  -1   0   74.04   11.77
   1  -1   0   58.71    5.10
  -1  -1   0   68.44    6.33
  -1  -1   0   99.66    7.79
  -1  -1   0   77.74    8.92
   1  -1   0   63.39    5.85
   1  -1   0   62.50    6.86
   1  -1   0   51.31   10.25
  -1   1  -1 2617.96  382.33
  -1   1  -1 2587.51  398.30
   1   1   1 3913.87  507.99
   1   1   1 2467.47  388.35
   1   1   1 2955.66  418.22
   1   1   1 2739.11  365.17
   1   1   1 2391.55  355.30
   1   1   1 2391.32  422.75
  -1   1  -1 2534.75  356.39
  -1   1  -1 2834.66  396.48
  -1   1  -1 2749.70  394.43
   1   1   1 2718.28  387.40
  -1   1  -1 2733.24  392.65
   1   1   1 2774.55  400.52
   1  -1   1 2614.48  402.74
  -1  -1  -1 2877.24  431.13
   1  -1   1 2700.45  384.96
   1  -1   1 2683.15  371.74
   1  -1   1 2792.98  377.48
   1  -1   1 2504.65  372.79
  -1  -1  -1 2870.07  398.52
  -1  -1  -1 2883.57  406.75
  -1  -1  -1 2274.12  384.45
   1  -1   1 2787.85  399.82
   1  -1   1 2702.87  393.40
   1   1   2   78.45    9.13
   1   1   2   80.93   16.06
  -1   1  -2   81.15   12.78
   1   1   2   95.31   15.82
   1   1   2  101.52   12.37
   1   1   2   86.00   12.16
  -1   1  -2   79.25   11.53
  -1   1  -2   84.16   10.17
   1   1   2   90.36   12.30
  -1   1  -2   81.62   11.23
  -1   1  -2   82.10   14.17
  -1   1  -2   90.15    9.89
   1  -1   2   77.77   14.75
   1  -1   2   86.21   12.83
  -1  -1  -2   91.60   14.95
   1  -1   2  107.58   12.04
   1  -1   2   78.35   10.71
   1  -1   2   67.97    6.76
   1  -1   2   84.92   10.69
  -1  -1  -2   86.99   20.79
   1  -1   2   83.72   10.71
  -1  -1  -2   85.55   10.87
  -1  -1  -2   88.96   10.90
   1  -1   2   80.87   12.03
  -1   1  -3 2550.77  536.64
  -1   1  -3 3183.19  573.63
  -1   1  -3 3805.16  704.62
   1   1   3 3175.50  644.33
   1   1   3 3635.52  657.66
   1   1   3 2138.38  457.87
  -1   1  -3 3907.96  668.83
   1   1   3 3373.24  617.21
   1   1   3 3501.66  634.33
   1   1   3 6525.34 1123.67
  -1   1  -3 3733.60  644.04
  -1   1  -3 3429.99  644.54
  -1  -1  -3 3879.51  674.18
   1  -1   3 6409.60 1107.52
  -1  -1  -3 3949.67  684.74
  -1  -1  -3 3921.41  739.18
  -1  -1  -3 4397.34  856.17
   1  -1   3 3412.96  606.41
   1  -1   3 3472.29  642.02
   1  -1   3 3548.09  641.92
   1  -1   3 2840.02  567.25
   1  -1   3 3564.74  636.29
  -1   1  -4 1062.54  233.39
   1   1   4 1459.83  239.53
   1   1   4 1384.31  227.47
   1   1   4 1369.01  239.24
   1  -1   4 1432.88  235.09
   1  -1   4 1379.60  231.86
  -1  -1  -4 1304.45  275.76
   1  -1   4 1330.76  210.26
   1   1   5  368.15   69.75
   1   1   5  360.46   65.69
   1   1   5  352.18   64.96
  -1   1  -5  333.66  106.78
   1  -1   5  397.71   72.34
   1  -1   5  421.21   75.86
  -1  -1  -5  346.91  113.11
  -1   1  -6 1409.48  288.04
   1   1   6  918.30  160.24
  -1  -1  -6 1671.60  310.51
   1  -1   6  935.55  156.67
   1  -1   6  842.45  154.73
   1   2  -6    6.66   17.92
  -1   2   6    7.75    8.71
  -1   2   6    3.50    8.21
  -1   2   6   22.22    7.91
   1  -2  -6   32.18   33.14
  -1  -2   6    9.41    9.10
  -1  -2   6   16.91    6.68
   1   2  -5    3.01   14.60
  -1   2   5    3.32    7.31
  -1   2   5   -0.16    7.99
  -1   2   5    5.19    6.84
  -1  -2   5    4.26    6.18
  -1  -2   5    0.05   16.23
   1  -2  -5    9.12   19.83
  -1  -2   5    9.02    8.41
  -1   2   4  554.03   83.21
  -1   2   4  575.24   89.07
   1   2  -4  711.78  132.63
  -1   2   4  367.40  166.31
  -1   2   4  597.56   89.00
   1  -2  -4  933.26  167.60
  -1  -2   4  586.75   92.87
  -1  -2   4  642.47  132.76
  -1  -2   4  587.90   84.66
  -1  -2   4  539.49   75.52
  -1   2   3 4045.05  770.35
   1   2  -3 4152.10  825.71
   1   2  -3 4574.73  865.90
   1   2  -3 4230.39  773.87
  -1   2   3 4210.33  798.86
  -1   2   3 4230.23  925.53
  -1   2   3 3985.53  778.03
  -1   2   3 4040.73  764.40
   1   2  -3 4421.20  800.32
   1   2  -3 4594.58  927.07
   1   2  -3 3903.86  745.63
  -1  -2   3 4008.88  734.62
  -1  -2   3 4126.55  775.11
  -1  -2   3 4098.27  790.02
   1  -2  -3 4541.51  854.40
  -1  -2   3 4112.38  785.34
   1  -2  -3 4862.95  898.41
  -1  -2   3 4612.93  877.78
  -1  -2   3 4029.37  741.73
  -1   2   2 2710.81  404.01
   1   2  -2 2411.25  375.66
  -1   2   2 2562.99  372.93
   1   2  -2 2479.32  371.10
  -1   2   2 2392.61  308.75
   1   2  -2 2758.79  389.91
   1   2  -2 1859.71  292.84
   1   2  -2 2756.39  412.13
  -1   2   2 2989.73  490.47
   1   2  -2 2972.16  428.19
  -1   2   2 2398.01  357.82
  -1   2   2 2443.38  319.05
  -1   2   2 2425.81  368.33
   1   2  -2 2677.20  423.68
  -1  -2   2 2472.86  352.76
  -1  -2   2 1774.58  250.66
  -1  -2   2 2428.09  364.84
  -1  -2   2 2510.40  347.71
  -1  -2   2 2609.59  391.81
   1  -2  -2 2795.00  407.77
   1  -2  -2 2824.51  418.02
  -1  -2   2 2549.38  361.04
  -1  -2   2 2174.97  327.73
  -1  -2   2 2740.03  406.16
   1   2  -1  337.84   35.44
   1   2  -1  310.10   28.42
  -1   2   1  449.49   32.59
  -1   2   1  274.61   25.52
   1   2  -1  276.13   21.91
   1   2  -1  292.28   26.89
   1   2  -1  315.56   23.78
  -1   2   1  296.29   25.09
  -1   2   1  267.29   21.70
   1   2  -1  279.10   27.53
  -1   2   1  296.54   25.74
  -1   2   1  287.28   21.77
  -1   2   1  298.42   24.95
  -1   2   1  359.60   58.42
  -1   2   1  305.31   26.82
  -1  -2   1  298.97   26.92
   1  -2  -1  299.71   27.10
   1  -2  -1  307.09   27.72
  -1  -2   1  303.08   25.93
  -1  -2   1  289.61   28.92
   1  -2  -1  387.88   43.11
  -1  -2   1  313.66   28.06
  -1  -2   1  303.30   26.59
  -1  -2   1  310.76   34.25
   1   2   0 1466.84  167.13
   1   2   0 1446.11  165.36
  -1   2   0 1413.42  156.45
  -1   2   0 1309.50  151.99
  -1   2   0 1406.10  163.33
   1   2   0 1779.39  254.40
   1   2   0 1669.75  182.31
   1   2   0 1549.59  171.92
  -1   2   0 1331.89  155.87
  -1   2   0 1131.85  139.20
  -1   2   0 1389.61  167.03
  -1   2   0 1462.52  168.07
   1   2   0 1642.19  161.13
  -1   2   0 1378.32  182.63
   1  -2   0 1376.46  158.93
   1  -2   0 1562.93  176.18
   1  -2   0 1382.94  158.49
  -1  -2   0 1460.15  166.58
  -1  -2   0 1466.35  170.64
  -1  -2   0 1286.90  198.04
   1  -2   0 1522.41  179.22
   1  -2   0 1376.70  166.98
   1   2   1  183.75   16.56
   1   2   1  182.46   18.22
   1   2   1  170.89   14.20
  -1   2  -1  135.63   15.79
   1   2   1  197.48   19.16
   1   2   1  161.40   26.42
  -1   2  -1  177.11   16.43
   1   2   1  218.51   34.21
  -1   2  -1  194.75   15.10
  -1   2  -1  182.33   20.94
  -1   2  -1  170.42   18.90
   1   2   1  174.17   19.06
  -1   2  -1  174.08   16.97
  -1   2  -1  191.78   18.08
  -1   2  -1  203.32   18.48
   1  -2   1  189.13   16.89
   1  -2   1  179.31   22.14
   1  -2   1  188.18   15.36
   1  -2   1  185.48   17.57
  -1  -2  -1  188.76   26.08
   1  -2   1  194.08   20.32
  -1  -2  -1  193.46   17.64
   1  -2   1  185.93   18.46
  -1   2  -2 3522.02  587.22
  -1   2  -2 3613.77  593.20
  -1   2  -2 3475.14  597.56
  -1   2  -2 3852.01  598.92
  -1   2  -2 2486.65  454.87
   1   2   2 3344.95  581.42
  -1   2  -2 3480.84  558.87
   1   2   2 3106.17  570.35
   1   2   2 3229.07  531.26
   1   2   2 7143.93 1078.06
   1   2   2 3546.45  591.66
   1   2   2 3549.06  582.29
   1   2   2 2480.22  438.27
  -1   2  -2 3288.75  565.54
   1  -2   2 3538.86  595.18
   1  -2   2 3444.43  567.57
   1  -2   2 3521.62  523.77
   1  -2   2 3575.24  588.90
   1  -2   2 2669.07  451.61
  -1  -2  -2 2675.27  492.56
   1  -2   2 3399.17  542.62
  -1  -2  -2 3724.75  600.26
  -1  -2  -2 3743.42  655.67
   1  -2   2 3388.00  543.71
  -1   2  -3    1.01    5.61
   1   2   3   16.75    4.47
  -1   2  -3    1.83    2.90
  -1   2  -3    8.04    5.11
   1   2   3    3.75    5.18
   1   2   3    1.49    7.80
  -1   2  -3    9.23    6.60
  -1   2  -3    2.86    4.35
   1   2   3    4.19    4.93
  -1   2  -3    4.98    4.05
   1  -2   3    3.29    5.43
  -1  -2  -3    0.11    7.39
   1  -2   3    1.68    4.78
   1  -2   3    2.13    5.47
  -1  -2  -3   -0.04    4.26
   1  -2   3    4.77    3.96
  -1  -2  -3    0.52    4.37
   1  -2   3    1.95    5.58
  -1  -2  -3   -2.36    6.57
   1  -2   3   10.12    3.63
   1   2   4  270.75   59.31
  -1   2  -4  186.08   56.60
   1   2   4  284.27   49.59
   1   2   4  253.01   43.12
  -1  -2  -4  262.88   77.41
   1  -2   4  248.10   38.05
   1  -2   4  285.77   47.35
   1  -2   4  298.09   50.90
   1  -2   4  140.27   53.97
   1   2   5 2670.52  512.20
   1   2   5 2430.80  464.93
  -1   2  -5 1970.38  484.46
   1   2   5 2673.78  505.64
   1  -2   5 2744.43  518.16
  -1  -2  -5 2982.51  714.66
   1  -2   5 2776.09  537.15
   1   2   6   78.71   28.55
  -1   2  -6  182.68   42.14
  -1  -2  -6  200.99   53.43
   1  -2   6  103.55   25.41
   1  -2   6  110.09   31.53
  -1   3   6   52.85   21.55
  -1   3   6   81.60   18.97
   1   3  -6   48.01   28.04
  -1  -3   6   51.39   16.84
  -1  -3   6    2.89   25.46
   1  -3  -6  147.48   54.70
  -1   3   5  364.49   74.52
  -1   3   5  413.69   72.17
   1   3  -5  524.29  122.21
  -1   3   5  487.34   80.95
  -1  -3   5  390.18  115.02
   1  -3  -5  953.10  203.09
  -1  -3   5  449.55   80.01
  -1  -3   5  392.52   64.86
  -1   3   4 3142.81  568.40
  -1   3   4 3063.37  567.86
  -1   3   4 2902.00  524.10
  -1   3   4 1492.79  513.77
   1   3  -4 3500.94  715.95
   1   3  -4 2929.85  532.66
  -1  -3   4 3000.48  533.61
   1  -3  -4 5634.90 1129.03
  -1  -3   4 3134.39  584.67
  -1  -3   4 3036.89  595.89
  -1   3   3 2475.95  401.78
  -1   3   3 2632.95  431.33
   1   3  -3 2479.21  420.40
   1   3  -3 2682.90  434.90
  -1   3   3 2552.14  428.77
  -1   3   3 2498.34  433.36
   1   3  -3 2685.62  475.96
  -1   3   3 1975.94  516.79
   1   3  -3 2718.66  459.98
   1   3  -3 2802.51  433.07
   1   3  -3 2991.38  541.30
  -1  -3   3 2593.09  438.51
  -1  -3   3 2616.35  439.75
  -1  -3   3 2286.54  359.56
  -1  -3   3 2534.82  405.59
  -1  -3   3 2615.04  443.56
  -1  -3   3 2891.27  485.18
   1  -3  -3 2941.54  486.53
   1  -3  -3 2957.98  484.91
  -1   3   2  704.05   76.89
   1   3  -2  884.78  113.81
  -1   3   2  416.13   75.55
   1   3  -2  772.41   97.36
  -1   3   2  709.48   83.60
   1   3  -2  763.60   78.17
   1   3  -2  722.81   87.65
  -1   3   2  792.08   88.23
   1   3  -2  766.22   91.53
   1   3  -2  710.66   77.64
  -1   3   2  699.73   67.89
  -1   3   2  789.21  149.61
   1   3  -2  792.74   82.61
  -1   3   2  711.22   85.49
  -1  -3   2  689.79   83.66
  -1  -3   2  729.83   78.32
   1  -3  -2  789.82   89.93
  -1  -3   2  704.96   74.41
  -1  -3   2  784.88   94.87
  -1  -3   2  758.71   88.30
   1  -3  -2  806.83   94.56
  -1  -3   2  803.07   92.78
  -1  -3   2  730.21   85.68
   1   3  -1  648.22   53.12
   1   3  -1  584.18   51.13
   1   3  -1  602.17   65.94
  -1   3   1  591.47   58.95
   1   3  -1  599.88   59.78
  -1   3   1  591.64   57.83
   1   3  -1  580.20   58.23
   1   3  -1  581.10   66.11
  -1   3   1  592.09   54.05
  -1   3   1  556.99   55.93
  -1   3   1  571.89   46.94
   1   3  -1  578.06   62.23
  -1   3   1  662.38   64.04
  -1   3   1  476.16   79.43
  -1   3   1  620.97   58.67
  -1  -3   1  643.10   76.04
  -1  -3   1  590.02   60.71
  -1  -3   1  574.38   62.78
  -1  -3   1  590.82   57.89
  -1  -3   1  645.89   65.30
  -1  -3   1  611.84   61.32
  -1   3   0 3389.08  519.03
  -1   3   0 3179.06  496.27
   1   3   0 3048.06  401.74
  -1   3   0 3393.55  516.56
  -1   3   0 3183.25  484.67
   1   3   0 4165.40  766.30
   1   3   0 3425.84  496.43
  -1   3   0 3219.72  463.64
   1   3   0 3137.69  475.50
  -1   3   0 2785.56  458.57
  -1   3   0 3074.27  541.19
   1   3   0 3273.02  499.07
   1   3   0 3335.30  506.48
   1   3   0 3336.82  468.58
  -1  -3   0 3120.73  481.34
   1  -3   0 3744.11  576.16
  -1  -3   0 3301.28  608.04
   1  -3   0 3656.10  547.69
  -1  -3   0 3517.42  540.76
   1   3   110854.63 2551.27
  -1   3  -111316.13 2795.51
  -1   3  -111521.81 2885.34
   1   3   111755.02 2846.21
   1   3   111529.50 2742.36
   1   3   112336.90 2898.43
   1   3   110168.49 2770.84
   1   3   111583.10 2600.96
  -1   3  -112845.66 3073.98
   1   3   111424.64 2822.61
  -1   3  -111604.69 2811.85
  -1   3  -110593.48 2593.15
   1   3   1 8794.63 2057.60
  -1   3  -115502.45 3730.86
  -1   3  -111300.70 2781.87
  -1   3  -111789.68 2827.32
   1  -3   112490.62 2989.10
   1  -3   111970.39 2897.19
  -1  -3  -112324.74 3244.00
   1  -3   112508.97 3057.60
   1  -3   111490.24 2738.54
   1  -3   112574.84 3006.76
   1  -3   111774.28 2876.17
   1   3   2 5024.10  991.60
   1   3   2 5309.49 1007.06
  -1   3  -2 5675.00 1105.16
  -1   3  -2 5814.21 1056.76
  -1   3  -2 3582.76  765.62
   1   3   2 5313.64 1126.52
   1   3   2 5698.04 1105.25
  -1   3  -2 5519.00 1090.31
  -1   3  -2 5729.42 1092.51
  -1   3  -2 5453.92 1092.10
   1   3   2 5853.97 1141.82
  -1   3  -2 6032.44 1157.33
   1   3   2 4802.94 1087.67
   1  -3   2 5609.82 1116.42
   1  -3   2 5847.93 1108.70
  -1  -3  -2 6144.24 1164.69
  -1  -3  -2 6051.32 1266.06
   1  -3   2 4591.98  898.84
   1  -3   2 5729.17 1109.74
   1  -3   2 5979.61 1079.84
   1  -3   2 6000.15 1148.92
   1  -3   2 5285.74 1079.31
   1   3   3 1624.23  295.42
   1   3   3 1529.03  229.13
  -1   3  -3 1096.62  210.22
   1   3   3 1807.20  273.94
   1   3   3 1752.96  272.60
  -1   3  -3 1681.02  266.54
  -1   3  -3 1833.55  284.82
  -1   3  -3 1851.75  280.25
  -1   3  -3 1890.64  274.33
  -1   3  -3 1689.47  264.65
  -1   3  -3 1739.58  238.41
   1  -3   3 1547.51  222.46
   1  -3   3 1749.54  264.47
  -1  -3  -3  932.69  170.87
  -1  -3  -3 1930.60  335.18
   1  -3   3 1745.52  264.01
  -1  -3  -3 1936.98  283.87
   1  -3   3 1742.58  274.42
   1  -3   3 1668.99  270.29
   1  -3   3 2618.00  381.55
  -1   3  -4    4.68   10.57
   1   3   4    6.91   11.76
  -1   3  -4    4.19    6.61
   1   3   4    3.70    7.86
   1   3   4    9.85   12.95
   1   3   4    5.94    6.20
   1  -3   4    4.53    6.80
   1  -3   4    5.33    8.08
   1  -3   4    0.75   11.33
   1   3   5  148.73   42.67
   1   3   5  170.72   38.94
  -1   3  -5  127.13   52.29
   1  -3   5  154.74   35.68
   1  -3   5  176.28   41.54
  -1  -3  -5  207.18   90.47
   1   3   6  713.95  136.40
  -1   3  -6 1297.54  213.31
   1  -3   6  889.41  154.87
  -1  -3  -6 1198.81  217.88
   1   4  -6  305.57   71.67
  -1   4   6  363.31   55.95
  -1   4   6  336.31   60.34
  -1  -4   6  321.46   50.33
   1  -4  -6  786.09  148.36
  -1  -4   6   98.32   68.55
  -1   4   5  959.20  184.02
   1   4  -5  790.03  164.79
  -1   4   5  912.47  148.98
  -1  -4   5  900.63  154.69
   1  -4  -5 2464.69  470.81
  -1  -4   5  740.47  118.30
  -1  -4   5  861.25  196.40
  -1   4   4  834.37  129.93
  -1   4   4  819.30  132.90
   1   4  -4  792.79  126.97
   1   4  -4  875.14  170.04
  -1  -4   4  869.24  146.93
   1  -4  -4 2030.98  354.14
  -1  -4   4  691.04  114.64
  -1  -4   4  859.04  158.05
  -1   4   3   59.22   39.19
  -1   4   3   96.48   18.70
  -1   4   3   95.59   18.98
   1   4  -3   92.72   13.55
   1   4  -3  120.76   20.36
  -1   4   3   95.86   17.25
   1   4  -3  101.48   24.11
   1   4  -3  101.80   20.10
  -1   4   3  169.39   17.49
   1   4  -3  101.21   13.88
   1   4  -3  123.08   28.89
  -1  -4   3  101.33   19.90
  -1  -4   3   68.75   23.19
  -1  -4   3   97.84   13.58
  -1  -4   3  104.06   18.98
  -1  -4   3  108.08   26.70
  -1  -4   3  115.44   20.66
   1  -4  -3  118.74   20.50
  -1   4   2   75.15    8.33
  -1   4   2   77.66   11.27
   1   4  -2   94.81   18.87
  -1   4   2   56.91   26.59
  -1   4   2   81.01    7.58
  -1   4   2   69.07   15.60
   1   4  -2   75.22   10.03
  -1   4   2   73.61   11.60
   1   4  -2   79.75    6.68
   1   4  -2  100.20   11.24
   1   4  -2   85.85   12.39
   1   4  -2   85.96   15.47
   1   4  -2   70.65   12.76
  -1   4   2   84.43   11.21
   1   4  -2   74.98    7.83
  -1  -4   2   76.43   12.12
  -1  -4   2   88.09   10.20
  -1  -4   2   75.64   11.79
  -1  -4   2   79.99   13.98
  -1  -4   2   76.55   10.91
  -1  -4   2   86.76   12.46
  -1   4   112390.21 3038.66
   1   4  -113062.86 3239.99
   1   4  -115468.82 3895.34
   1   4  -1 6684.17 1575.28
  -1   4   1 9314.52 2487.32
   1   4  -113005.13 3246.97
  -1   4   112358.78 2896.99
   1   4  -114296.00 3289.95
  -1   4   112106.06 3020.11
  -1   4   113765.54 3337.61
   1   4  -115486.10 3787.28
   1   4  -113836.40 3369.84
  -1   4   112855.27 3170.74
  -1   4   113905.22 3424.30
  -1   4   114486.62 3537.81
  -1  -4   116402.79 4019.44
  -1  -4   114222.95 3541.29
  -1  -4   115186.49 3658.80
  -1  -4   114949.41 3666.20
  -1  -4   113594.54 3367.27
  -1  -4   116804.00 4244.41
   1   4   0  124.07    9.98
   1   4   0  125.36    7.52
  -1   4   0  129.30   14.22
  -1   4   0  117.36   12.25
   1   4   0  112.29   11.42
  -1   4   0  128.17   14.23
   1   4   0  123.46   13.16
   1   4   0  185.31   36.70
  -1   4   0  128.77   19.77
   1   4   0  129.05   14.55
   1   4   0  125.79    9.61
  -1   4   0  115.01   21.60
  -1   4   0  120.31    8.71
  -1   4   0  119.97   18.14
  -1  -4   0  133.21   27.84
   1  -4   0  149.90   16.57
  -1  -4   0  120.42   13.63
   1  -4   0  137.89   14.20
  -1  -4   0  123.57   14.81
   1   4   1  285.59   23.03
   1   4   1  245.65   55.83
  -1   4  -1  309.74   35.29
   1   4   1  263.31   24.94
  -1   4  -1  313.56   30.98
  -1   4  -1  307.24   35.58
   1   4   1  298.55   21.60
   1   4   1  310.66   34.25
  -1   4  -1  501.54   49.57
  -1   4  -1  307.72   40.75
  -1   4  -1  293.84   31.02
  -1   4  -1  285.93   32.17
   1   4   1  293.41   27.52
   1   4   1  298.10   31.13
   1  -4   1  320.70   35.22
   1  -4   1  322.09   36.03
  -1  -4  -1  393.01   67.76
   1  -4   1  294.94   30.57
   1  -4   1  304.20   34.57
   1  -4   1  320.58   30.98
   1  -4   1  326.42   32.97
   1   4   2  791.70   96.07
   1   4   2  778.38   79.18
   1   4   2  722.90   82.31
   1   4   2  711.76  118.63
   1   4   2 1201.33  173.29
  -1   4  -2  779.97  114.89
  -1   4  -2  772.91   89.51
   1   4   2  818.19  105.12
  -1   4  -2  785.65   98.61
  -1   4  -2  781.84  105.65
  -1   4  -2  509.47   80.27
  -1   4  -2  815.12  101.91
  -1   4  -2  904.91  101.37
   1  -4   2  772.31   99.80
   1  -4   2  814.16  108.75
   1  -4   2  859.70   94.01
   1  -4   2  683.38   88.82
  -1  -4  -2  833.52  140.46
   1  -4   2  854.24  102.96
  -1  -4  -2  869.47  104.22
   1  -4   2  826.47  100.52
   1  -4   2  798.41  102.30
   1   4   3 5633.39 1254.58
  -1   4  -3 5826.31 1197.24
   1   4   3 6366.00 1262.49
  -1   4  -3 6287.00 1270.13
  -1   4  -3 3479.50  813.07
   1   4   3 5399.05 1054.24
   1   4   3 6120.22 1240.47
  -1   4  -3 6011.64 1232.61
   1  -4   3 6144.38 1252.18
   1  -4   3 6347.03 1265.29
   1  -4   3 6294.12 1230.39
  -1  -4  -3 3437.36  750.31
   1  -4   3 5955.04 1182.92
   1  -4   3 3907.42  820.05
  -1   4  -4  595.87   98.73
   1   4   4  626.66  136.50
   1   4   4  761.53  133.10
  -1   4  -4  374.59   97.10
  -1   4  -4  652.59  104.26
   1   4   4  693.61  109.93
   1  -4   4  454.94  122.79
   1  -4   4  663.12  100.56
   1  -4   4  687.43  112.03
  -1   4  -5   94.37   34.13
   1   4   5   50.25   22.79
   1   4   5   49.78   23.50
   1  -4   5   54.89   23.62
   1  -4   5   55.60   27.43
  -1  -4  -5   79.98   62.49
  -1   5   6  622.77   86.87
  -1   5   6  576.89   82.33
   1   5  -6  483.90   97.68
  -1  -5   6  250.70  102.21
  -1  -5   6  587.58   83.46
   1   5  -5   41.34   24.74
  -1   5   5   42.62   16.82
  -1   5   5   43.67   18.96
  -1  -5   5   82.41   30.13
   1  -5  -5  179.01   81.00
  -1  -5   5   45.39   18.84
   1   5  -4 1086.04  242.50
  -1   5   4 1204.54  199.29
  -1   5   4 1230.24  196.44
   1   5  -4 1165.02  192.19
  -1   5   4 1113.28  192.10
  -1  -5   4 1080.23  180.52
  -1  -5   4 1209.31  206.96
   1   5  -3 2738.36  462.56
   1   5  -3 2555.71  447.11
   1   5  -3 2338.57  385.74
  -1   5   3 2501.26  434.70
  -1   5   3 2571.76  435.56
   1   5  -3 2502.28  409.87
  -1   5   3 2700.26  444.83
   1   5  -3 3079.65  569.43
  -1   5   3 2057.91  407.57
  -1  -5   3 2236.33  353.16
  -1  -5   3 2722.88  463.18
  -1  -5   3 2120.29  399.00
  -1  -5   3 2680.99  465.96
  -1  -5   3 2598.00  438.56
  -1   5   2 8763.52 2018.78
   1   5  -2 8139.15 1817.86
  -1   5   2 6963.87 1733.56
  -1   5   2 8823.75 1998.88
   1   5  -2 8931.44 2021.66
   1   5  -210363.41 2426.34
   1   5  -2 8373.07 1911.90
  -1   5   2 8154.73 1776.43
  -1   5   2 8174.42 1803.04
  -1   5   2 9723.24 2168.45
  -1   5   2 7778.53 1854.00
   1   5  -2 8561.23 1951.72
   1   5  -2 8319.22 1943.74
   1   5  -2 8902.47 2115.72
  -1  -5   2 8578.22 1960.85
  -1  -5   2 9106.00 2045.34
  -1  -5   2 9039.61 2080.34
  -1  -5   2 7889.01 1821.00
  -1  -5   2 8905.29 2010.30
  -1  -5   2 9570.46 2219.26
   1   5  -1  144.74   17.16
   1   5  -1  148.83   21.51
   1   5  -1  157.74   24.24
  -1   5   1  144.60   18.62
  -1   5   1  129.95    9.65
   1   5  -1  150.06   17.94
  -1   5   1  142.45   14.41
  -1   5   1  134.75   15.37
  -1   5   1  143.87   16.42
  -1   5   1  126.24   10.36
   1   5  -1  145.51   13.67
  -1   5   1  140.17   13.68
  -1   5   1  140.18   15.66
  -1  -5   1  166.66   18.26
  -1  -5   1  145.17   17.77
  -1  -5   1  168.76   33.73
  -1  -5   1  139.94   17.21
  -1   5   0 5662.39 1080.34
  -1   5   0 4767.16  990.51
  -1   5   0 5401.77  947.15
  -1   5   0 5317.44 1005.82
   1   5   0 5235.67  946.63
  -1   5   0 5419.44 1040.59
   1   5   0 5247.55  999.72
   1   5   0 6011.08 1364.28
  -1   5   0 5526.09 1055.20
   1   5   0 5140.31  964.78
   1   5   0 5885.90 1120.23
   1   5   0 5202.36  857.72
  -1   5   0 6273.08 1315.37
   1   5   0 5580.31  997.27
  -1  -5   0 5634.73 1199.43
   1  -5   0 6247.08 1169.93
  -1  -5   0 5500.48 1060.36
  -1  -5   0 5933.97 1120.33
  -1   5  -1 6166.99 1240.88
  -1   5  -1 5666.30 1133.25
  -1   5  -1 5437.91 1106.67
  -1   5  -1 4339.23  968.55
   1   5   1 5555.39 1040.57
   1   5   1 5244.84  952.84
  -1   5  -112800.54 2480.14
  -1   5  -1 6670.62 1279.89
   1   5   1 6219.51 1208.61
   1   5   1 4490.57 1145.10
   1   5   1 6004.01 1156.02
   1   5   1 6276.89 1270.16
  -1   5  -1 5790.57 1149.86
   1  -5   1 6361.22 1237.49
   1  -5   1 6459.42 1261.16
   1  -5   115593.83 2985.06
  -1  -5  -1 5999.87 1334.69
   1  -5   1 5933.93 1195.63
   1  -5   1 6214.35 1238.93
   1  -5   1 5937.50 1151.74
  -1   5  -211281.88 2367.08
   1   5   2 4480.68  884.77
   1   5   2 7504.43 1743.03
   1   5   2 5862.99 1395.94
  -1   5  -2 6406.14 1391.95
  -1   5  -2 5936.22 1414.44
   1   5   2 6498.97 1373.11
  -1   5  -2 6647.72 1431.11
   1   5   2 6477.59 1338.27
  -1   5  -2 6499.16 1341.35
   1   5   2 5775.84 1136.28
  -1   5  -2 7175.98 1486.89
   1  -5   2 6686.93 1406.21
  -1  -5  -2 7167.87 1777.04
   1  -5   2 6856.27 1448.91
   1  -5   2 6956.50 1436.52
   1  -5   2 6968.55 1488.93
   1  -5   2 6834.47 1378.46
   1  -5   2 6116.24 1297.36
   1  -5   2 6990.37 1434.43
  -1   5  -3    4.24    6.45
  -1   5  -3    3.08   11.25
   1   5   3    5.43    5.96
   1   5   3    2.83   10.54
   1   5   3    6.64    6.60
  -1   5  -3    2.68    7.36
  -1  -5  -3    3.69    5.04
   1  -5   3    5.26    5.54
   1  -5   3    7.92    6.82
   1  -5   3   11.58    5.18
   1   5   4 1960.82  324.70
   1   5   4 1908.62  326.55
  -1   5  -4 1882.65  323.08
  -1   5  -4  916.71  223.76
   1   5   4 1721.67  364.71
  -1   5  -4 1706.66  317.92
   1  -5   4 1806.40  295.59
   1  -5   4 1927.64  329.27
  -1   5  -5  305.10   67.00
   1   5   5  428.95   76.23
   1   5   5  459.92   77.19
   1  -5   5  339.04   57.05
   1  -5   5  412.89   91.77
   1  -5   5  276.99   72.17
  -1  -5  -5  541.11  146.32
  -1   6   5   71.66   22.33
   1   6  -5   55.18   28.11
  -1   6   5   75.70   20.72
  -1  -6   5   72.79   32.98
  -1  -6   5   71.65   22.22
   1  -6  -5  261.17   85.49
  -1  -6   5   61.58   18.92
  -1   6   4 1120.55  199.89
   1   6  -4 1235.47  214.68
  -1   6   4 1202.56  191.52
   1   6  -4 1232.27  244.26
  -1   6   4 1313.23  216.67
  -1  -6   4 1224.81  203.90
  -1  -6   4 1290.04  225.93
  -1   6   3   54.82   14.54
  -1   6   3   65.65   15.28
   1   6  -3   63.41   21.25
   1   6  -3   50.44   11.93
  -1   6   3   60.09   14.00
   1   6  -3   65.74   17.33
  -1   6   3   50.13   14.48
  -1  -6   3   45.46   16.20
  -1  -6   3   53.21   13.57
  -1  -6   3   65.74   16.17
   1   6  -2 4645.48  894.08
  -1   6   2 4248.45  786.37
   1   6  -2 4229.85  795.26
  -1   6   2 4020.75  726.32
  -1   6   2 4124.57  786.68
   1   6  -2 4480.69  900.95
  -1   6   2 3823.53  750.44
   1   6  -2 4384.34  810.24
   1   6  -2 4470.68  832.89
   1   6  -2 5410.99 1060.04
  -1   6   2 4039.54  797.54
  -1   6   2 4207.34  765.59
  -1  -6   2 4663.42  876.09
  -1  -6   2 4388.46  815.76
  -1  -6   2 4157.27  766.84
  -1  -6   2 4621.94  892.45
  -1  -6   2 4263.14  820.78
   1   6  -1 1179.80  176.60
  -1   6   1 1115.61  134.11
   1   6  -1 1166.10  152.77
  -1   6   1 1154.59  152.33
  -1   6   1 1240.44  151.44
  -1   6   1 1169.88  151.91
  -1   6   1  957.92  106.17
   1   6  -1 1100.93  129.00
  -1   6   1 1104.09  146.81
   1   6  -1 1180.09  154.06
  -1   6   1 1149.56  148.24
   1   6  -1 1116.39  151.79
  -1  -6   1 1189.72  160.72
  -1  -6   1 1160.24  153.39
  -1  -6   1 1516.29  188.82
  -1   6   0 6836.84 1528.01
   1   6   0 7762.71 1626.61
  -1   6   0 6749.10 1405.79
   1   6   0 6863.20 1343.49
  -1   6   0 6554.20 1570.49
  -1   6   0 7416.61 1560.61
  -1   6   0 6819.56 1439.61
  -1   6   0 6784.39 1317.97
  -1   6   0 6938.76 1464.91
   1   6   0 6845.80 1410.33
   1   6   0 6395.45 1288.17
   1   6   0 7233.96 1508.45
   1   6   0 5877.27 1505.40
   1  -6   0 8098.94 1672.75
  -1  -6   0 7657.43 1617.44
  -1   6  -1   70.53   12.37
   1   6   1   49.89   34.12
   1   6   1   77.66    7.63
  -1   6  -1   47.98   19.80
  -1   6  -1   73.16   12.33
   1   6   1   76.72    9.91
  -1   6  -1   74.71   13.76
  -1   6  -1   72.12   13.34
   1   6   1   73.33   10.07
   1   6   1   80.07   13.18
   1   6   1   59.33    5.56
   1  -6   1  143.60   17.37
   1  -6   1   76.89   13.85
   1  -6   1   66.89   11.48
   1  -6   1   80.73   12.67
   1  -6   1   82.06   11.96
  -1   6  -220304.31 4924.70
   1   6   2 8468.22 2338.53
   1   6   2 9764.41 2569.61
  -1   6  -2 6569.46 1864.67
  -1   6  -2 9445.17 2274.15
   1   6   2 9455.03 2313.76
  -1   6  -211223.17 2685.04
   1   6   2 9426.91 2256.39
  -1   6  -210021.98 2504.56
  -1   6  -210286.94 2551.46
   1  -6   2 9661.58 2404.19
   1  -6   2 9835.40 2343.39
   1  -6   2 9593.95 2356.49
   1  -6   210173.02 2409.20
   1  -6   2 9792.18 2413.48
   1  -6   210874.42 2609.38
   1  -6   2 9388.14 2289.83
   1   6   3  178.73   28.00
   1   6   3  161.45   46.88
  -1   6  -3  175.58   32.29
  -1   6  -3  164.66   85.54
   1   6   3  191.20   32.90
  -1   6  -3  166.47   32.98
   1  -6   3  178.87   31.44
   1  -6   3  166.24   29.00
   1  -6   3  158.54   24.97
  -1  -6  -3  100.28   22.79
  -1   6  -4  241.45   59.57
   1   6   4  452.28  107.26
  -1   6  -4  548.56   86.02
  -1   6  -4  459.78   73.64
   1   6   4  540.31   81.01
   1   6   4  524.91   83.39
   1  -6   4  543.08   82.79
   1  -6   4  465.57   67.03
   1  -6   4  206.78   51.18
   1   6   5    5.31    7.09
  -1   6  -5    2.16    6.81
  -1   6  -5   -0.47    6.79
   1   6   5    8.26   10.79
   1  -6   5    2.03    6.80
   1  -6   5   -1.91    7.36
  -1  -6  -5    4.49   13.96
   1   7  -5   34.78   31.90
  -1   7   5   44.94   19.15
  -1   7   5   46.04   17.05
  -1  -7   5   53.85   17.25
   1  -7  -5  115.52   54.34
  -1  -7   5   47.56   26.25
  -1  -7   5   33.20   17.47
   1   7  -4   67.01   26.88
  -1   7   4   82.29   31.47
  -1   7   4   75.72   20.13
  -1   7   4   65.85   22.42
   1   7  -4   66.85   35.07
  -1  -7   4   78.99   26.82
  -1  -7   4   84.47   21.13
   1   7  -3 5080.88 1095.02
  -1   7   3 4956.24 1069.99
  -1   7   3 5259.83 1071.97
   1   7  -3 4762.92  993.27
  -1   7   3 5202.47 1086.77
   1   7  -3 5452.54 1250.44
  -1  -7   3 5560.51 1178.41
  -1  -7   3 4925.33 1016.84
   1   7  -2 2408.25  383.45
  -1   7   2 1584.48  228.75
   1   7  -2 1615.38  259.15
   1   7  -2 1538.00  246.93
  -1   7   2 1595.05  234.43
  -1   7   2 1470.96  236.62
   1   7  -2 1609.03  245.43
  -1   7   2 1530.42  236.96
   1   7  -2 1791.60  307.32
  -1   7   2 1452.23  222.78
   1   7  -2 1615.27  235.68
  -1   7   2 1546.61  221.96
  -1  -7   2 1977.23  294.32
  -1  -7   2 1680.17  263.10
  -1  -7   2 1645.02  256.61
  -1  -7   2 1471.24  211.43
  -1  -7   2 1762.77  276.50
  -1   7   1    2.40    2.36
  -1   7   1    4.27    3.43
  -1   7   1   20.26    4.78
  -1   7   1    2.71    4.30
   1   7  -1    2.77    8.62
   1   7  -1    4.18    4.62
   1   7  -1    2.95    4.70
   1   7  -1    1.84    4.75
  -1   7   1   31.82    4.78
  -1   7   1    2.02    6.05
  -1  -7   1    9.50    5.14
  -1  -7   1   13.71    5.46
  -1  -7   1    7.04    4.99
   1   7   0 1701.47  354.57
  -1   7   0 1965.05  289.29
  -1   7   0 2065.31  314.38
  -1   7   0 2054.86  314.88
  -1   7   0 1660.77  285.02
   1   7   0 2035.04  305.38
   1   7   0 2360.21  363.05
   1   7   0 1814.03  254.23
  -1   7   0 1903.94  344.40
   1   7   0 2059.48  296.33
   1   7   0 1901.48  246.43
  -1   7   0 2104.04  313.70
  -1  -7   0 2117.76  326.86
   1  -7   0 2397.70  361.23
  -1   7  -111765.03 2882.64
   1   7   111400.76 2822.34
  -1   7  -110853.48 2672.79
   1   7   1 8749.43 2027.83
   1   7   110832.40 2621.12
   1   7   110935.81 2606.48
  -1   7  -1 7114.28 1996.10
  -1   7  -110196.97 2553.08
   1   7   1 9207.26 2167.48
   1   7   1 7955.84 2442.22
  -1   7  -111439.84 2838.05
   1  -7   112342.52 3034.19
   1  -7   110184.99 2412.36
   1  -7   114720.29 3448.02
   1  -7   113034.95 3155.27
   1  -7   110865.16 2662.71
   1   7   2   82.43   15.60
  -1   7  -2   80.78   15.11
  -1   7  -2   54.25   28.86
   1   7   2   94.45   23.03
  -1   7  -2  199.80   50.33
   1   7   2   88.11   13.21
  -1   7  -2   88.03   19.68
  -1   7  -2   85.21   20.64
   1   7   2   62.44   31.46
  -1   7  -2   94.50   15.39
   1  -7   2  103.68   18.27
   1  -7   2   83.90   14.13
   1  -7   2   74.80   26.16
   1  -7   2   74.11   12.15
   1  -7   2   89.09   18.80
   1  -7   2   78.95   18.74
   1  -7   2   77.69   14.39
   1   7   3   11.97    5.79
  -1   7  -3    5.30    8.23
  -1   7  -3    0.67    7.14
   1   7   3   10.46    6.94
  -1   7  -3    2.00   12.79
   1   7   3    4.39   11.89
  -1  -7  -3   -0.80    5.14
   1  -7   3    4.64    6.23
   1  -7   3    3.29    6.70
   1   7   4  960.71  145.38
  -1   7  -4  949.64  151.14
   1   7   4  955.31  147.85
  -1   7  -4  839.55  131.86
   1   7   4  842.66  177.10
  -1   7  -4  454.65   97.04
   1  -7   4  410.57   87.51
   1  -7   4  980.86  146.19
   1   7   5  435.91   87.92
   1   7   5  612.45  111.53
  -1   7  -5  457.74   82.67
  -1   7  -5  656.41  101.01
  -1  -7  -5  656.39  135.09
   1  -7   5  626.65   93.32
   1  -7   5  324.30   62.51
  -1   8   5  647.51  105.85
   1   8  -5  546.76  135.93
  -1   8   5  673.08  108.58
  -1  -8   5  682.07  122.88
  -1  -8   5  584.31  100.52
  -1  -8   5  627.99  129.81
   1  -8  -5 1152.49  223.97
   1   8  -4   30.63   32.68
  -1   8   4   37.28   17.18
  -1   8   4   61.28   16.97
  -1   8   4   53.96   17.20
   1   8  -4   38.98   23.22
  -1  -8   4   50.92   21.42
  -1  -8   4   46.11   15.95
  -1   8   3  172.84   31.35
  -1   8   3  172.39   28.66
   1   8  -3  165.04   31.93
   1   8  -3  169.67   50.17
  -1   8   3  155.60   30.96
   1   8  -3  168.46   37.11
   1   8  -3  153.78   28.88
  -1  -8   3  203.13   38.28
  -1  -8   3  160.29   26.72
   1   8  -2  845.00  127.99
   1   8  -2  786.46  100.93
  -1   8   2  834.92  122.86
  -1   8   2  717.04  107.45
  -1   8   2  696.99   97.36
  -1   8   2  724.36   96.99
  -1   8   2  862.51  113.09
   1   8  -2  811.34  116.20
   1   8  -2  846.44  146.86
   1   8  -2  893.26  124.63
  -1   8   2  761.57  103.17
  -1  -8   2  754.36   95.97
  -1  -8   2 1023.32  142.37
  -1   8   1 6334.73 1325.11
  -1   8   1 6444.47 1439.54
   1   8  -1 6826.13 1519.36
  -1   8   1 6765.51 1533.32
  -1   8   1 7215.58 1635.73
  -1   8   1 5834.98 1353.06
   1   8  -1 7735.46 1712.36
   1   8  -1 7391.32 1643.05
   1   8  -1 7462.05 1884.88
  -1   8   1 7004.37 1557.03
  -1  -8   111314.73 2433.34
  -1  -8   1 7616.12 1690.26
  -1  -8   1 8028.11 1803.29
  -1   8   0  221.17   33.94
  -1   8   0  221.63   39.40
   1   8   0  219.80   27.94
   1   8   0  250.78   34.51
  -1   8   0  228.42   43.70
  -1   8   0  298.23   38.90
  -1   8   0  237.86   35.51
   1   8   0  190.20   58.95
   1   8   0  234.56   34.01
  -1  -8   0  534.09   66.69
   1  -8   0  269.74   35.42
  -1  -8   0  255.21   38.59
   1   8   1    5.45    3.14
  -1   8  -1    5.48    5.24
  -1   8  -1    2.34    6.04
  -1   8  -1    2.32    5.21
   1   8   1    2.51   15.07
   1   8   1    6.41    6.54
  -1   8  -1   -0.42    7.98
   1   8   1    9.24    5.69
  -1   8  -1   22.29    5.81
   1  -8   1    1.24    5.80
   1  -8   1    2.52    4.94
  -1   8  -2   37.64   11.70
  -1   8  -2   41.65   15.11
  -1   8  -2   16.59   33.42
   1   8   2   45.84   11.19
  -1   8  -2   42.08   22.08
   1   8   2   42.67   17.03
  -1   8  -2   81.83   24.48
   1   8   2   27.26   25.30
   1  -8   2   40.52   15.04
   1  -8   2   33.74   13.41
  -1   8  -3 3521.83  863.94
   1   8   3 3926.24  923.06
   1   8   3 4231.73  838.04
   1   8   3 4075.55  845.24
  -1   8  -3 4026.81  848.36
   1   8   3 3303.89  806.69
  -1   8  -3 4342.23  883.86
   1  -8   3 3713.94  767.10
   1  -8   3 4074.24  802.10
   1   8   4  972.68  151.67
   1   8   4  831.30  181.49
  -1   8  -4  889.45  181.49
   1   8   4  769.60  135.24
  -1   8  -4  834.87  138.60
  -1   8  -4  963.52  161.36
   1  -8   4  972.10  147.44
   1  -8   4  429.61   96.51
   1   8   5  330.25   52.83
  -1   8  -5  363.96   58.15
   1   8   5  144.94   42.89
  -1   8  -5  215.92   39.29
   1  -8   5  335.31   50.67
   1  -8   5  183.06   38.68
  -1  -8  -5  298.79   69.72
  -1   9   5  988.83  167.68
   1   9  -5  938.56  231.09
  -1   9   5 1227.99  185.85
  -1  -9   5 1152.66  212.94
  -1  -9   5 1054.37  154.11
  -1  -9   5 1105.08  174.51
  -1   9   4  570.45  102.22
  -1   9   4  680.47  108.00
   1   9  -4  716.11  132.92
  -1   9   4  680.88  111.93
   1   9  -4  642.56  154.42
  -1  -9   4  674.23  103.25
  -1  -9   4  681.88  119.38
   1   9  -3    5.06    8.48
   1   9  -3    5.16    9.45
  -1   9   3   10.47    8.91
  -1   9   3    7.68    7.65
   1   9  -3   42.75   13.36
  -1   9   3    6.23    8.39
   1   9  -3    7.75   16.59
  -1  -9   3    0.09    6.78
  -1  -9   3   96.68   13.43
  -1   9   2 1339.23  198.06
   1   9  -2 1524.42  305.00
  -1   9   2 1308.82  227.30
  -1   9   2 1329.75  202.12
  -1   9   2 1447.39  222.49
   1   9  -2 1567.75  248.64
   1   9  -2 1596.58  252.82
  -1   9   2 1343.34  206.26
  -1   9   2 1354.09  221.53
   1   9  -2 1503.98  246.76
  -1  -9   2 1988.61  307.91
   1   9  -1   30.92   11.92
  -1   9   1   38.45   10.54
  -1   9   1   27.45    9.82
   1   9  -1   29.33   10.32
  -1   9   1   30.13   10.80
   1   9  -1   20.24   31.58
  -1   9   1   31.78    9.20
   1   9  -1   29.39   11.54
  -1  -9   1   55.15   15.03
  -1   9   0 2282.74  378.45
   1   9   0 2208.92  364.81
   1   9   0 2229.62  366.09
  -1   9   0 2061.23  337.27
  -1   9   0 1987.89  371.43
   1   9   0 1653.28  387.62
  -1   9   0 2240.55  375.97
  -1   9   0 1832.11  296.79
   1   9   0 2029.50  322.50
   1  -9   0 2255.21  365.72
  -1  -9   0 6472.84  982.36
  -1  -9   0 2316.02  391.73
  -1   9  -1  631.86   98.28
  -1   9  -1  639.48  110.94
  -1   9  -1 1664.18  229.26
  -1   9  -1  681.09  138.39
   1   9   1  613.84   85.42
   1   9   1  656.07   99.15
  -1   9  -1  593.43   88.62
  -1   9  -1  555.50   85.30
   1   9   1  497.34  138.67
  -1   9  -2 1194.06  239.80
   1   9   2 1202.47  262.36
  -1   9  -2 1450.59  241.89
   1   9   2 1424.46  251.76
  -1   9  -2 1295.70  221.98
  -1   9  -2 1345.55  216.06
   1   9   2 1186.56  184.52
   1  -9   2 1605.83  258.32
  -1   9  -3 2419.28  532.74
  -1   9  -3 2836.97  553.93
   1   9   3 2744.37  501.33
   1   9   3 2600.87  583.28
  -1   9  -3 2974.47  561.48
   1   9   3 2092.96  507.59
   1  -9   3 2584.66  500.34
   1  -9   3 2705.11  484.47
  -1   9  -4   58.36   25.96
  -1   9  -4   57.85   19.25
   1   9   4   64.54   33.78
   1   9   4   76.02   21.45
  -1   9  -4   72.79   24.63
   1  -9   4   57.00   17.79
   1  -9   4   30.55   19.32
  -1   9  -5    0.12    5.34
  -1   9  -5    0.58    3.83
   1   9   5   -0.27    4.53
  -1  -9  -5    0.65    6.21
   1  -9   5    1.57    3.82
  -1  10   5  140.99   24.89
   1  10  -5  124.28   55.88
  -1 -10   5  147.42   31.94
  -1 -10   5  147.75   37.39
   1  10  -4  289.30   97.12
  -1  10   4  257.88   55.00
  -1  10   4  306.07   51.33
   1  10  -4  341.66   66.20
  -1 -10   4  355.31   65.89
   1  10  -3 1689.00  414.70
  -1  10   3 1781.38  302.64
   1  10  -3 1870.45  330.70
   1  10  -3 1894.13  373.89
  -1 -10   3 2416.37  429.37
   1  10  -2  168.62   69.19
   1  10  -2  178.84   35.80
   1  10  -2  187.94   36.46
   1  10  -2  194.11   38.41
  -1  10   2  152.46   26.94
  -1  10   2  158.24   37.29
  -1 -10   2  244.32   44.93
  -1  10   1  104.25   21.58
  -1  10   1   84.30   24.02
  -1  10   1   87.43   19.78
  -1  10   1   91.50   21.91
   1  10  -1   95.59   20.91
   1  10  -1  101.43   24.49
   1  10  -1   72.41   57.33
   1  10  -1  110.53   24.31
  -1 -10   1  178.38   35.08
  -1  10   0  595.12   85.82
  -1  10   0  558.89   97.68
  -1  10   0  542.48   76.58
  -1  10   0  601.47  107.94
   1  10   0  449.10  128.47
   1  10   0  643.24  110.98
   1  10   0  654.87   98.87
  -1  10   0  653.79  101.80
  -1 -10   0 1489.65  192.46
  -1  10  -1  293.08   47.39
  -1  10  -1  293.73   50.96
  -1  10  -1  264.24   43.21
   1  10   1  289.44   42.48
   1  10   1  310.89   64.42
  -1  10  -1  249.02   74.60
   1  10   1  219.17   78.76
   1 -10   1  138.89   47.11
  -1  10  -2 1532.90  260.76
  -1  10  -2 1495.06  266.64
   1  10   2 1567.67  295.52
   1  10   2 1290.64  295.48
  -1  10  -2 1337.87  288.08
  -1  10  -2 1579.55  281.25
   1 -10   2 1795.81  311.00
  -1  10  -3  348.65   71.62
   1  10   3  244.36   78.47
  -1  10  -3  381.41   88.31
   1  10   3  312.02   84.34
   1  10   3  337.10   56.04
  -1  10  -3  299.86   77.18
   1 -10   3  338.30   68.38
  -1  10  -4   77.49   24.74
  -1  10  -4   45.24   24.11
   1  10   4   83.64   27.81
   1  10   4   57.61   30.99
  -1  10  -4   64.23   19.34
   1 -10   4   60.48   16.33
   1 -10   4   33.28   19.91
   1  11  -4 1483.63  268.86
  -1  11   4 1443.39  228.26
   1  11  -4 1076.62  327.59
  -1 -11   4 1707.65  296.83
   1  11  -3    2.99   25.77
   1  11  -3   23.38    9.67
   1  11  -3    3.18   12.91
  -1 -11   3   28.22   13.96
  -1 -11   3    0.21    7.67
   1  11  -2  244.46   50.56
   1  11  -2  262.48   50.99
  -1  11   2  185.28   51.71
   1  11  -2  222.88  122.79
   1  11  -2  289.51   59.12
  -1 -11   2  368.65   68.87
   1  11  -1  109.95   26.59
   1  11  -1   77.39   56.42
  -1  11   1   96.28   19.89
  -1  11   1  106.80   24.49
   1  11  -1  118.81   28.43
  -1  11   1  118.08   27.02
   1  11  -1   98.02   24.99
  -1 -11   1  257.15   49.89
  -1  11   0    7.35    6.80
   1  11   0   11.65    8.88
  -1  11   0    6.56    8.60
  -1  11   0   12.30    9.56
   1  11   0    3.85   18.39
   1  11   0    5.32    8.73
  -1  11  -1   20.33   14.13
  -1  11  -1   20.51   15.23
   1  11   1   42.89   12.28
  -1  11  -1   27.45   12.31
   1  11   1   16.53   27.44
   1  11   1   16.76   13.70
   1 -11   1   41.09   20.49
   1  11   2  310.56   88.53
  -1  11  -2  360.89   70.91
   1  11   2  337.00   78.63
  -1  11  -2  366.31   66.02
  -1  11  -2  331.22   66.31
   1 -11   2  434.99   83.05
   1  11   3   74.33   35.22
  -1  11  -3   82.88   27.34
  -1  11  -3   86.71   43.77
   1 -11   3   84.85   29.85
   1  11   4 1109.89  215.90
  -1  11  -4 1408.86  233.13
  -1  11  -4 1326.90  209.20
   1  11   4 1319.83  197.63
   1 -11   4  760.72  155.72
   1  12  -4  461.73  173.04
  -1 -12   4  674.01  114.33
  -1 -12   4  829.60  140.11
   1  12  -3  427.73   76.83
   1  12  -3  391.05   61.50
   1  12  -3  294.59  149.97
  -1 -12   3  341.39   78.68
  -1 -12   3  309.64   51.94
   1  12  -2  173.40  121.13
   1  12  -2  303.38   58.08
   1  12  -2  329.75   62.80
   1  12  -2  331.30   64.78
  -1 -12   2  593.65  103.43
   1  12  -1   26.78   37.91
  -1  12   1   53.91   17.19
   1  12  -1   53.01   19.19
   1  12  -1   50.21   20.07
  -1  12   1   33.57   12.45
   1  12  -1   37.72   16.53
  -1  12   1   59.50   19.59
  -1 -12   1  118.27   34.70
   1  12   0   11.65   11.23
  -1  12   0   14.40   18.04
   1  12   0    9.15   22.90
  -1  12   0   11.74    8.82
  -1  12   0   15.57   11.82
   1  12   0   20.89   12.06
   1  12   1   92.33   27.52
  -1  12  -1   91.43   29.94
  -1  12  -1   95.20   27.71
  -1  12  -1   73.18   31.81
   1  12   1   88.02   23.12
   1  12   1   67.22   42.60
   1 -12   1  150.44   45.48
  -1  12  -2  761.10  156.29
   1  12   2  879.12  230.07
  -1  12  -2  739.61  139.65
   1  12   2  627.73  155.34
  -1  12  -2  734.44  158.81
   1 -12   2 1067.18  217.55
  -1  12  -3  175.62   43.87
   1  12   3  167.68   49.58
  -1  12  -3  191.55   42.62
   1 -12   3  177.05   48.00
  -1  12  -4 1341.59  188.88
   1  12   4  633.01   95.55
   1  12   4  888.91  153.30
   1 -12   4  771.95  135.27
   1  13  -4    5.95   25.16
  -1 -13   4   37.18   15.69
  -1 -13   4   61.85   20.52
   1  13  -3   78.06   64.23
   1  13  -3  161.87   30.14
  -1 -13   3  312.19   57.89
  -1 -13   3  175.90   40.38
  -1 -13   3  120.04   26.44
   1  13  -2 1761.43  304.25
   1  13  -2  702.04  269.56
   1  13  -2 1523.67  264.44
   1  13  -2 1587.84  277.62
  -1 -13   2 3534.76  584.71
  -1  13   1   54.43   24.68
   1  13  -1   68.39   25.64
  -1  13   1   65.68   21.32
   1  13  -1   66.02   24.28
   1  13  -1   27.70   43.29
  -1 -13   1  135.23   39.96
  -1  13   0  694.86  122.94
  -1  13   0  638.46  121.15
   1  13   0  477.61  160.45
   1  13   0  718.20  123.82
   1  13   0  706.26  127.62
   1 -13   0 1626.30  271.90
  -1  13  -1    7.43   12.24
   1  13   1    8.17   11.06
   1  13   1    6.81    9.16
  -1  13  -1   15.00   11.14
   1  13   1    4.16   15.95
  -1  13  -1    0.81    8.67
   1 -13   1   56.78   20.97
   1  13   2  250.64   74.02
  -1  13  -2  298.59   61.76
   1  13   2  381.09  102.07
  -1  13  -2  335.76   65.74
  -1  13  -2  348.57   70.21
   1 -13   2  501.63   98.03
  -1  13  -3 1720.67  303.04
   1  13   3 1187.31  253.76
  -1  13  -3 1757.41  307.14
   1 -13   3 2069.84  371.17
   1  14  -3  509.42  184.33
   1  14  -3  790.68  112.87
  -1 -14   3 1627.24  236.79
  -1 -14   3  839.92  129.38
  -1 -14   3  554.35   86.59
   1  14  -2  544.92  188.49
   1  14  -2  981.39  161.29
  -1 -14   2 2181.14  349.95
  -1 -14   2  958.96  156.24
   1  14  -1  668.07  112.66
  -1  14   1  566.21  108.58
   1  14  -1  678.49  118.05
   1  14  -1  431.37  143.49
  -1  14   1  622.98  103.40
  -1  14   0 1071.04  199.79
   1  14   0  837.15  218.06
   1  14   0 1079.37  192.08
   1  14   0 1174.17  202.85
  -1  14   0 1127.06  226.44
   1 -14   0 2287.90  398.38
   1  14   1   25.36   23.78
  -1  14  -1   34.21   19.08
   1  14   1   37.36   15.46
   1  14   1   36.85   20.15
  -1  14  -1   43.75   19.44
   1 -14   1   77.96   36.85
  -1  14  -2  409.44   71.71
  -1  14  -2  350.02   68.35
   1  14   2  318.43   99.68
  -1  14  -2  341.60   63.62
   1  14   2  256.88   67.24
   1 -14   2  654.44  116.61
   1  14   3  268.89   56.54
  -1  14  -3  430.92   66.02
  -1  14  -3  439.99   70.99
   1 -14   3  540.01  118.25
  -1 -15   3 2304.95  393.73
   1  15  -2  107.65   25.40
   1  15  -2   69.58   32.68
  -1 -15   2  106.04   23.58
  -1  15   1   76.72   21.90
   1  15  -1   84.48   25.87
   1  15  -1   51.28   31.51
  -1  15   1   86.20   28.24
   1  15  -1   88.01   38.44
   1  15   0   -0.03    7.59
  -1  15   0   -1.01    8.58
   1  15   0    9.16    7.92
  -1  15   0    1.92    7.83
   1  15   0    9.86    9.63
   1 -15   0    1.46   10.68
  -1  15  -1 3058.13  604.88
   1  15   1 1974.04  455.40
   1  15   1 3109.35  640.55
  -1  15  -1 3038.65  598.86
  -1 -15  -1 3673.60  668.97
   1 -15   1 5656.33 1077.11
   1  15   2   80.19   25.03
  -1  15  -2  139.84   31.59
   1  15   2   67.83   37.76
  -1  15  -2  158.54   33.85
   1 -15   2  263.22   52.02
   1  16  -2  248.93   39.56
  -1 -16   2  243.93   39.50
   1  16  -1 1181.46  266.71
  -1  16   1 1687.66  345.77
   1  16  -1 2387.95  386.00
  -1  16   1 2421.40  379.15
  -1 -16   1 2475.14  394.02
  -1  16   0  785.16  143.09
  -1  16   0  924.74  149.69
   1  16   0  909.62  153.83
  -1 -16   0  996.12  154.35
   1  16   1    3.13   11.86
  -1  16  -1    6.37    7.77
  -1  16  -1    1.25    8.14
  -1  16  -2 1256.68  188.70
   1 -16   2  919.43  138.15
   1  17   0 1102.90  181.72
  -1  17   0  870.47  163.63
  -1 -17   0 1362.50  195.05
  -2   0   6 1092.15  174.52
  -2   0   6 1058.91  163.73
   2   0  -6 2426.31  444.93
  -2   0   5   -1.65   28.23
  -2   0   5    1.51   10.40
  -2   0   5    5.67    8.71
  -2   0   5   30.16   10.94
   2   0  -5   35.76   27.00
   2   0  -4  502.49   95.34
  -2   0   4  322.17   70.01
  -2   0   4  267.08   42.30
  -2   0   4  284.91   43.05
  -2   0   4  277.12   46.61
   2   0  -3    2.05    3.28
  -2   0   3    1.36    4.91
  -2   0   3    2.53    2.86
   2   0  -3    2.51    6.31
  -2   0   3    2.94    3.30
  -2   0   3    3.32    2.75
   2   0  -3    0.74    3.31
  -2   0   3    0.63    2.37
  -2   0   215263.81 4072.73
   2   0  -215435.72 4129.59
   2   0  -218983.40 5213.17
   2   0  -215683.56 4224.52
  -2   0   215795.56 4152.44
  -2   0   214606.59 3888.97
   2   0  -215702.35 4173.89
  -2   0   2 8680.19 2568.42
  -2   0   230448.54 8102.91
  -2   0   215748.96 4202.23
   2   0  -215156.20 4117.41
  -2   0   216887.78 4572.95
  -2   0   213277.45 3526.08
  -2   0   1    3.99    2.93
  -2   0   1    1.21    3.86
  -2   0   1    0.78    2.52
  -2   0   1    1.08    1.98
  -2   0   1    1.82    0.41
  -2   0   1    2.90    1.51
   2   0  -1   14.22    3.25
  -2   0   1    0.38    1.81
  -2   0   1    1.84    2.80
  -2   0   1    4.20    0.72
   2   0  -1    3.95    2.20
   2   0  -1    1.20    2.65
   2   0  -1    1.08    3.55
   2   0   0  172.24   26.66
  -2   0   0  165.25   21.55
  -2   0   0  140.42   17.40
  -2   0   0  139.44   19.01
   2   0   0  134.20   16.79
   2   0   0  135.50   20.46
   2   0   0  148.24   15.86
  -2   0   0  158.93   17.38
  -2   0   0  130.69   12.74
  -2   0   0  181.60   32.15
   2   0   0  156.70   19.71
   2   0   0  133.28   19.97
  -2   0   0  150.31   22.45
   2   0   0  151.84   21.98
   2   0   1   10.15    4.19
  -2   0  -1   -0.04    5.61
  -2   0  -1    0.32    4.96
  -2   0  -1   15.40    2.71
  -2   0  -1   10.96    2.55
  -2   0  -1    1.10    2.71
   2   0   1    4.18    3.52
   2   0   1    2.67    1.78
   2   0   1    1.74    2.70
   2   0   1    1.53    2.66
  -2   0  -1   -0.06    3.00
   2   0   1    0.94    2.49
   2   0   1    0.47    2.81
   2   0   1    1.88    3.18
   2   0   210734.45 2526.32
  -2   0  -2 7946.30 2062.68
   2   0   2 9975.65 2378.42
  -2   0  -210510.66 2414.51
   2   0   2 9383.14 2242.58
  -2   0  -210491.89 2416.24
   2   0   2 7357.51 1954.44
   2   0   2 9159.71 2037.66
  -2   0  -2 9735.90 2312.16
  -2   0  -210349.74 2478.28
   2   0   210401.57 2477.96
   2   0   3    6.74   12.48
   2   0   3    0.27    8.97
   2   0   3    2.04    6.88
   2   0   3    4.60   10.28
   2   0   3   17.55    6.68
  -2   0  -3   13.41    9.96
  -2   0  -3    1.79    4.83
  -2   0  -3    7.08    7.32
   2   0   4   75.28   24.70
  -2   0  -4   70.27   33.77
  -2   0  -4   58.70   28.09
   2   0   4   69.94   33.03
   2   0   4   67.60   20.72
  -2   0  -5    5.57   14.43
   2   0   5    0.91    9.01
   2   0   5    3.37    7.10
   2   0   5    1.69    8.40
   2   1  -6  524.07  109.15
  -2   1   6  269.72   43.42
  -2   1   6  267.82   44.02
  -2  -1   6  266.20   44.10
   2  -1  -6  668.90  170.86
  -2  -1   6  238.65   36.94
  -2  -1   6   68.21   68.70
  -2   1   5  688.27  130.81
   2   1  -5 1111.70  225.39
  -2   1   5  597.83  100.92
  -2   1   5  652.60  123.22
  -2   1   5  395.34  199.02
  -2  -1   5  588.59   94.14
  -2  -1   5  665.83  232.25
  -2  -1   5  629.69  114.34
  -2  -1   5  626.90  111.04
   2  -1  -5 1392.48  274.18
  -2   1   4 2427.02  572.35
  -2   1   4 2145.99  376.70
  -2   1   4 2227.84  395.16
  -2   1   4 2277.07  393.01
   2   1  -4 3360.52  656.80
  -2  -1   4 2177.00  371.01
  -2  -1   4 2123.25  366.01
  -2  -1   4 2281.34  406.18
   2  -1  -4 3985.30  768.19
  -2  -1   4 2419.39  473.04
  -2   1   3 1290.05  180.87
  -2   1   3 1179.69  170.47
  -2   1   3 1538.71  246.31
   2   1  -3 1873.20  292.49
   2   1  -3 1317.22  184.56
   2   1  -3 1337.67  201.08
   2   1  -3 1405.51  197.19
   2   1  -3 1330.01  188.75
  -2   1   3 1238.77  179.98
  -2  -1   3 1239.20  182.18
  -2  -1   3 1233.99  177.08
  -2  -1   3 1455.91  234.11
   2  -1  -3 1398.01  199.95
   2  -1  -3 1358.94  198.07
  -2  -1   3 1223.08  171.67
  -2  -1   3 1249.26  171.19
   2  -1  -3 2137.76  328.97
  -2   1   2    4.95    2.19
   2   1  -2   14.16    2.77
   2   1  -2    0.02    2.84
  -2   1   2    3.15    2.73
  -2   1   2    3.51    2.43
  -2   1   2    2.26    1.69
  -2   1   2    5.49    2.83
   2   1  -2    5.76    3.94
   2   1  -2    3.23    3.62
   2   1  -2    4.45    2.80
   2   1  -2    3.56    3.84
  -2  -1   2    3.49    2.19
   2  -1  -2    9.23    4.39
  -2  -1   2    6.09    3.63
  -2  -1   2    2.57    5.35
  -2  -1   2   -0.02    5.87
  -2  -1   2    3.10    3.12
  -2  -1   2    9.89    2.64
   2  -1  -2    8.01    3.15
   2  -1  -2   10.24    5.24
  -2  -1   2    3.79    3.15
   2  -1  -2    4.18    3.32
   2   1  -1 4117.68  712.84
  -2   1   1 3972.67  593.13
  -2   1   1 4401.95  724.79
  -2   1   1 4441.03  744.89
  -2   1   1 5012.20  918.53
   2   1  -1 3992.99  676.85
  -2   1   1 7624.60 1336.74
  -2   1   1 4416.87  742.70
   2   1  -1 4412.54  719.18
   2   1  -1 4123.10  703.69
  -2   1   1 3188.79  602.11
   2   1  -1 4583.17  776.42
  -2   1   1 3993.11  767.68
  -2  -1   1 3660.41  666.36
   2  -1  -1 4259.86  714.32
  -2  -1   1 4015.05  675.27
  -2  -1   1 4512.26  764.07
   2  -1  -1 4127.35  703.40
  -2  -1   1 6079.62 1065.15
  -2  -1   1 4277.32  716.68
  -2  -1   1 4315.24  681.47
   2  -1  -1 4188.27  785.48
  -2  -1   1 4787.30  872.29
  -2  -1   1 4001.30  710.09
  -2  -1   1 4528.53  758.76
  -2   1   0 8480.53 2068.33
  -2   1   0 9114.51 2268.47
   2   1   0 8449.09 1989.44
  -2   1   010946.12 2377.86
  -2   1   0 9232.46 2229.59
  -2   1   011385.78 2664.29
   2   1   0 9507.76 2309.17
   2   1   010083.13 2406.74
   2   1   0 9740.11 2413.30
   2   1   013462.27 3208.53
   2   1   010458.24 2418.75
  -2   1   013448.26 3187.57
  -2   1   010675.10 2543.07
   2   1   010090.61 2293.75
  -2  -1   012800.91 3041.55
   2  -1   012078.01 2884.14
   2  -1   010737.63 2523.51
  -2  -1   012412.36 2966.60
  -2  -1   013468.96 3143.60
   2  -1   0 9357.04 2351.47
   2  -1   011836.28 2820.46
  -2  -1   0 9534.60 2337.55
  -2  -1   011105.50 2576.92
   2  -1   0 9206.74 2225.73
   2  -1   010065.53 2415.56
  -2  -1   011545.30 2860.66
   2  -1   011058.27 2674.73
  -2   1  -1 4787.15  840.41
  -2   1  -1 4896.37  888.90
   2   1   1 4634.70  732.32
   2   1   1 4497.06  814.03
   2   1   1 4324.06  772.74
   2   1   1 4925.67  966.18
   2   1   1 4758.15  834.46
  -2   1  -1 3570.53  748.22
   2   1   1 4961.61  887.19
  -2   1  -1 4297.73  863.78
   2   1   1 4651.18  906.31
  -2   1  -1 5576.96  994.27
   2   1   1 4045.17  819.50
   2   1   1 4069.84  651.47
  -2  -1  -1 4517.72  837.68
   2  -1   1 4861.25  870.60
   2  -1   1 5080.16  914.56
   2  -1   1 4922.31  871.10
   2  -1   1 4908.64  865.66
  -2  -1  -1 5119.71  889.71
  -2  -1  -1 4812.82  904.91
   2  -1   1 3839.83  722.58
   2  -1   1 5122.21  854.88
   2  -1   1 4506.95  821.71
   2  -1   1 4716.59  832.49
  -2  -1  -1 4034.37  781.85
   2   1   2  551.65  100.66
   2   1   2 1119.27  106.04
  -2   1  -2  653.78   83.99
   2   1   2  455.81   55.11
   2   1   2  609.15   91.40
   2   1   2  709.27   90.02
  -2   1  -2  750.68   86.36
  -2   1  -2  616.91  108.23
  -2   1  -2  743.49   83.52
   2   1   2  701.67   87.90
  -2   1  -2  776.23   93.51
  -2   1  -2  738.66   90.48
   2   1   2  686.65   87.00
   2  -1   2  669.65   88.77
   2  -1   2  568.24   92.76
   2  -1   2  513.75   57.64
   2  -1   2  712.42   86.01
  -2  -1  -2  732.18   98.23
   2  -1   2  658.51   68.78
  -2  -1  -2  756.79  108.74
  -2  -1  -2  605.49   79.04
   2  -1   2  739.71   93.55
  -2  -1  -2  724.34   82.81
   2  -1   2  700.15   84.95
  -2   1  -3 2737.57  424.31
   2   1   3 2569.12  448.01
  -2   1  -3 2745.21  461.95
  -2   1  -3 2338.10  482.06
   2   1   3 2059.42  455.00
   2   1   3 2586.20  435.13
  -2   1  -3 1263.71  279.22
   2   1   3 2445.37  413.47
  -2   1  -3 2322.66  388.34
   2  -1   3 2330.40  392.64
  -2  -1  -3 2782.86  432.56
   2  -1   3 2529.77  429.68
   2  -1   3 4209.87  643.76
   2  -1   3 1463.54  287.20
   2  -1   3 2559.16  437.13
  -2  -1  -3 2436.14  479.32
   2  -1   3 2399.24  394.14
   2   1   4 1623.41  281.66
  -2   1  -4 1252.91  276.36
   2   1   4 1482.75  262.69
   2   1   4 1602.63  287.40
  -2   1  -4 1397.55  279.95
   2  -1   4 1671.41  324.79
  -2  -1  -4 1384.69  316.52
   2  -1   4 1568.54  279.62
  -2  -1  -4 1855.75  386.58
   2  -1   4 1529.61  260.86
   2   1   5  260.60   86.12
  -2   1  -5  324.83   92.22
   2   1   5  239.99   56.61
   2   1   5  237.26   53.75
   2  -1   5  263.89   59.89
   2  -1   5  274.64   61.45
  -2  -1  -5  410.48  107.86
  -2   2   6  147.83   29.17
   2   2  -6  287.27   70.28
  -2   2   6  178.15   31.13
  -2   2   6  157.01   27.24
  -2  -2   6  157.31   30.50
   2  -2  -6  495.40  114.72
  -2  -2   6    2.88   56.24
  -2   2   5  938.37  350.68
  -2   2   5 1795.58  312.01
   2   2  -5 3293.05  676.35
  -2   2   5 1836.90  315.42
  -2   2   5 1991.32  345.06
   2  -2  -5 5041.77  984.14
  -2  -2   5 2047.46  363.87
  -2  -2   5 1992.17  443.09
  -2  -2   5 1892.05  319.03
  -2   2   4  748.14  112.93
   2   2  -4 1093.64  195.05
  -2   2   4  697.54  108.17
  -2   2   4  721.41  196.24
  -2   2   4  738.40  112.17
  -2  -2   4  824.58  142.26
  -2  -2   4  699.82  100.07
  -2  -2   4  701.26  101.67
  -2  -2   4  709.07  114.53
   2  -2  -4 1553.90  269.45
  -2   2   3 3405.64  630.05
  -2   2   3 3365.56  602.17
   2   2  -3 3349.09  604.59
   2   2  -3 3199.13  571.79
   2   2  -3 3619.59  667.22
   2   2  -3 3516.87  618.37
  -2   2   3 3977.44  819.93
  -2   2   3 3414.53  605.31
   2   2  -3 4645.96  889.44
   2  -2  -3 6321.02 1194.82
  -2  -2   3 3307.83  600.50
  -2  -2   3 3346.55  610.93
   2  -2  -3 3667.13  665.85
  -2  -2   3 3202.03  553.58
  -2  -2   3 3258.40  570.20
   2  -2  -3 3663.64  658.12
  -2  -2   3 3487.30  642.79
   2   2  -2  740.49   87.66
   2   2  -2  833.12  104.25
  -2   2   2  646.76   67.87
   2   2  -2  776.14   94.10
   2   2  -2  758.84   82.00
   2   2  -2  712.54   79.98
  -2   2   2  924.95  134.10
   2   2  -2  712.73   87.87
  -2   2   2  680.42   73.69
  -2   2   2  731.94   83.86
  -2   2   2  680.47   77.18
  -2   2   2  753.99   85.21
  -2   2   2  675.43   85.43
   2  -2  -2  725.37   86.81
  -2  -2   2  698.25   78.31
  -2  -2   2  737.14   81.31
  -2  -2   2  678.95   72.82
  -2  -2   2  706.20   73.78
  -2  -2   2  772.09   90.19
  -2  -2   2  697.66   86.25
  -2  -2   2  691.84   81.85
   2  -2  -2  747.36   87.86
   2   2  -1 8020.66 1666.67
   2   2  -1 7851.21 1651.33
   2   2  -1 8322.47 1762.38
  -2   2   1 8196.71 1702.97
   2   2  -1 7690.36 1538.59
   2   2  -1 7700.06 1628.07
  -2   2   1 8735.53 1828.89
  -2   2   1 8480.08 1747.16
  -2   2   1 5973.83 1366.24
  -2   2   1 7665.49 1510.21
  -2   2   1 7819.62 1663.57
  -2   2   1 8117.58 1864.76
   2   2  -1 8180.30 1734.44
  -2  -2   1 8008.03 1636.05
   2  -2  -1 7193.96 1655.40
  -2  -2   1 7377.50 1663.14
  -2  -2   1 7955.21 1686.85
   2  -2  -1 7995.77 1671.01
  -2  -2   1 7585.30 1601.35
  -2  -2   1 7922.08 1638.09
  -2  -2   1 8999.08 1873.25
   2  -2  -1 7620.16 1601.08
  -2  -2   1 8233.66 1748.25
  -2  -2   1 8003.06 1708.75
   2   2   0   15.29    1.71
  -2   2   0   16.76    4.50
  -2   2   0   21.16    7.63
   2   2   0   10.53    3.01
  -2   2   0   11.98    6.02
   2   2   0    9.44    5.83
  -2   2   0   26.46    4.87
  -2   2   0   15.89    8.26
   2   2   0   11.37    7.57
   2   2   0   13.01    4.40
   2   2   0   16.20    6.11
   2   2   0    9.99    3.01
  -2   2   0   13.48    5.01
   2  -2   0   15.68    5.10
  -2  -2   0   12.14    4.27
  -2  -2   0    0.56    4.81
  -2  -2   0   10.28    5.24
   2  -2   0   14.82    6.37
  -2  -2   0   16.63    6.29
  -2  -2   0   16.50    5.04
   2  -2   0   27.17    6.72
   2  -2   0   13.49    5.10
  -2   2  -1 7206.58 1465.22
  -2   2  -1 5571.24 1207.94
   2   2   1 7608.61 1652.65
   2   2   1 7999.76 1595.75
   2   2   1 7450.80 1477.61
  -2   2  -1 3345.44  713.17
  -2   2  -1 7132.26 1483.01
   2   2   1 5927.46 1175.94
   2   2   1 6459.95 1440.66
   2   2   1 7558.27 1481.88
  -2   2  -1 6942.09 1389.47
   2   2   1 5395.39 1146.34
  -2   2  -1 7353.11 1419.44
  -2   2  -1 7402.37 1449.06
   2  -2   1 7656.24 1494.37
  -2  -2  -1 6249.77 1386.00
   2  -2   1 7436.14 1453.61
   2  -2   1 7106.32 1458.18
   2  -2   1 7873.78 1577.86
   2  -2   1 6772.66 1407.55
  -2  -2  -1 7434.90 1595.32
   2  -2   1 7640.74 1505.29
   2  -2   1 7258.89 1449.90
  -2  -2  -1 7879.09 1534.66
   2  -2   1 6524.27 1328.87
   2  -2   1 7745.03 1488.49
   2   2   2   32.50    6.31
  -2   2  -2   38.16    9.09
  -2   2  -2   17.26    8.55
   2   2   2   42.50    8.34
  -2   2  -2   20.93    7.97
   2   2   2   37.41    8.28
   2   2   2   95.88   19.91
  -2   2  -2   28.93   13.19
  -2   2  -2   33.44    9.30
  -2   2  -2   36.58    7.98
   2   2   2   31.57    9.52
  -2   2  -2   38.87    6.78
   2   2   2   44.76    9.06
   2  -2   2   22.79    5.62
  -2  -2  -2   38.27    7.46
   2  -2   2   39.64    6.98
  -2  -2  -2   55.02   16.79
   2  -2   2   37.80    8.15
  -2  -2  -2   38.21   12.59
   2  -2   2   47.35    5.98
   2  -2   2   38.35    9.92
   2  -2   2   30.42    7.25
   2  -2   2   35.26    9.67
   2   2   3 1693.89  262.92
  -2   2  -3 1699.88  242.86
   2   2   3 1658.36  274.07
   2   2   3 1536.28  239.27
  -2   2  -3  738.42  162.22
   2   2   3 1566.17  227.96
   2   2   3 1322.37  294.69
  -2   2  -3 1700.34  281.06
  -2   2  -3 1501.95  239.51
  -2   2  -3 1514.09  268.67
   2  -2   3 1598.90  244.20
   2  -2   3 1697.44  265.42
   2  -2   3 1597.53  258.06
  -2  -2  -3 2083.42  371.00
   2  -2   3 1469.24  207.07
   2  -2   3 1517.87  226.47
   2   2   4 1346.47  222.40
   2   2   4 1540.89  253.89
   2   2   4 1498.28  252.76
  -2   2  -4 1153.27  236.09
  -2   2  -4 1288.63  240.56
   2  -2   4 1586.16  285.02
   2  -2   4 1522.86  259.78
  -2  -2  -4  484.60  196.16
  -2  -2  -4 1447.57  318.76
   2   2   5 1059.65  193.08
   2   2   5  966.41  191.89
  -2   2  -5 1397.34  272.09
   2   2   5  855.26  169.92
   2  -2   5 1087.96  204.82
   2  -2   5 1047.15  196.38
  -2  -2  -5 1887.83  383.71
  -2   3   6  390.02   57.80
  -2   3   6  406.72   60.46
   2   3  -6  626.25  127.26
   2  -3  -6 1155.61  217.71
  -2  -3   6  132.61  100.15
  -2  -3   6  399.13   62.55
  -2   3   5  116.35   83.57
  -2   3   5  276.18   48.24
  -2   3   5  324.76   56.77
   2   3  -5  391.60   90.63
  -2   3   5  308.92   52.52
  -2  -3   5  330.02   60.89
  -2  -3   5  372.45   89.06
   2  -3  -5  951.78  199.89
  -2  -3   5  307.66   59.15
  -2   3   4  929.53  258.86
   2   3  -4 1567.17  285.25
  -2   3   4 1067.75  171.78
  -2   3   4 1205.70  186.19
  -2   3   4 1111.48  188.41
  -2  -3   4 1133.56  200.83
   2  -3  -4 2909.82  504.77
  -2  -3   4 1019.02  152.82
  -2  -3   4 1088.42  179.00
   2   3  -3 2675.33  437.31
   2   3  -3 2620.63  445.88
   2   3  -3 2768.74  479.63
  -2   3   3 2626.85  435.03
   2   3  -3 2927.99  531.41
  -2   3   3 2739.00  452.23
  -2   3   3 2581.16  439.62
   2   3  -3 2395.60  390.45
  -2   3   3 2534.02  568.73
   2  -3  -3 2784.23  470.06
  -2  -3   3 2554.25  410.74
  -2  -3   3 2757.06  470.58
   2  -3  -3 6177.54 1088.98
  -2  -3   3 2530.70  442.06
   2  -3  -3 2823.35  481.27
  -2  -3   3 2508.07  426.56
  -2  -3   3 2563.85  445.20
  -2  -3   3 2337.02  373.21
  -2   3   2  370.53   37.49
  -2   3   2  565.63   49.07
   2   3  -2  462.63   58.68
  -2   3   2  311.89   33.90
  -2   3   2  424.71   52.62
   2   3  -2  382.18   45.64
   2   3  -2  391.43   46.26
  -2   3   2  422.20   45.61
  -2   3   2  358.30   37.88
  -2   3   2  429.66   78.12
  -2   3   2  346.45   37.48
   2   3  -2  366.05   37.67
   2   3  -2  415.75   39.94
  -2  -3   2  400.76   43.38
  -2  -3   2  419.31   46.29
  -2  -3   2  309.76   34.20
  -2  -3   2  394.68   48.11
  -2  -3   2  360.52   36.49
   2  -3  -2  407.45   46.43
   2  -3  -2  410.00   47.66
  -2  -3   2  385.64   43.16
  -2  -3   2  353.88   37.24
  -2   3   1  452.63   45.50
   2   3  -1  459.91   50.61
  -2   3   1  478.91   48.22
  -2   3   1  444.84   39.98
  -2   3   1  411.57   43.10
   2   3  -1  447.55   45.77
   2   3  -1  501.81   56.92
   2   3  -1  457.61   35.80
  -2   3   1  471.67   53.33
  -2   3   1  534.41   67.43
  -2   3   1  416.87   34.78
   2   3  -1  458.23   47.70
   2   3  -1  437.37   42.76
  -2   3   1  467.51   49.86
   2  -3  -1  471.36   65.59
  -2  -3   1  463.79   66.96
  -2  -3   1  470.06   45.55
  -2  -3   1  476.73   47.41
  -2  -3   1  399.85   46.51
  -2  -3   1  474.43   51.10
  -2  -3   1  430.53   49.21
   2  -3  -1  454.98   47.49
   2   3   0 7482.73 1394.90
  -2   3   0 6142.09 1273.68
  -2   3   0 6404.53 1358.24
  -2   3   016306.47 2867.42
   2   3   0 7513.21 1503.42
  -2   3   0 6512.77 1331.76
  -2   3   0 6725.09 1369.83
   2   3   0 6143.80 1244.33
   2   3   0 6447.47 1322.20
  -2   3   0 5870.16 1277.62
   2   3   0 6270.86 1415.36
  -2   3   0 6626.09 1217.80
   2  -3   0 7163.49 1429.30
   2  -3   0 8720.68 1840.08
  -2  -3   0 6286.62 1367.65
   2  -3   0 6293.46 1378.76
   2  -3   0 6948.52 1439.86
  -2  -3   0 6669.26 1344.11
  -2  -3   0 7212.04 1475.90
  -2   3  -1  273.76   38.64
   2   3   1  304.86   34.87
   2   3   1  391.84   54.20
   2   3   1  297.94   30.01
   2   3   1  307.16   34.04
  -2   3  -1  313.47   35.98
  -2   3  -1  279.04   26.29
   2   3   1  324.28   48.97
  -2   3  -1  284.03   30.46
  -2   3  -1  328.03   36.01
  -2   3  -1  281.15   35.55
   2  -3   1  280.26   35.36
   2  -3   1  309.36   31.45
  -2  -3  -1  288.82   42.24
   2  -3   1  325.06   36.63
   2  -3   1  304.75   30.80
  -2  -3  -1  377.88   62.30
   2  -3   1  294.65   34.36
   2  -3   1  282.44   38.44
   2   3   2   43.61    6.98
   2   3   2   53.71   23.48
  -2   3  -2   53.22    9.77
  -2   3  -2  110.76   13.00
  -2   3  -2   52.03   12.24
  -2   3  -2   44.42    8.84
  -2   3  -2   16.22    9.27
   2   3   2   75.71   17.61
   2   3   2   51.94    8.78
   2   3   2   24.87    7.92
  -2   3  -2   53.48   15.11
   2   3   2   54.49    9.85
   2   3   2   52.07   11.74
   2  -3   2   52.40   12.04
  -2  -3  -2   52.72    9.30
   2  -3   2   47.38    7.39
   2  -3   2   54.65    7.64
   2  -3   2   51.87    7.99
   2  -3   2   52.34   11.11
   2  -3   2   52.25   11.94
  -2  -3  -2   80.02   19.00
   2  -3   2   32.91    7.97
  -2   3  -3 1703.79  278.27
   2   3   3 1740.39  275.76
   2   3   3 1555.47  231.77
   2   3   3 1778.75  286.46
  -2   3  -3  836.34  179.23
   2   3   3 1593.48  250.86
   2   3   3 1487.71  339.06
  -2   3  -3 1886.81  283.82
  -2   3  -3 1690.53  295.14
   2  -3   3 1592.51  235.81
   2  -3   3 1780.81  291.48
   2  -3   3 1802.51  287.11
   2  -3   3 1703.66  247.57
  -2  -3  -3 2091.76  356.67
  -2   3  -4 1033.08  215.66
   2   3   4 1324.88  230.45
   2   3   4 1106.54  190.71
   2   3   4 1283.96  312.50
   2   3   4 1293.09  228.07
  -2   3  -4 1107.11  213.97
  -2   3  -4 1140.63  201.25
   2  -3   4 1355.82  230.06
   2  -3   4 1282.73  260.52
   2   3   5  473.01  104.01
   2   3   5  531.04  103.71
  -2   3  -5  693.01  139.00
   2  -3   5  543.23  109.88
  -2  -3  -5  981.27  221.96
   2  -3   5  525.68  100.71
   2   4  -6   64.45   32.69
  -2   4   6   60.29   16.05
  -2   4   6   49.93   15.06
  -2  -4   6    3.94   37.97
  -2  -4   6   57.86   16.37
   2   4  -5  530.75  117.45
  -2   4   5  424.28   73.23
  -2   4   5  443.30   79.15
  -2  -4   5  483.48  109.47
  -2  -4   5  460.83   85.00
   2  -4  -5 1383.99  290.17
  -2   4   4  152.83   95.73
  -2   4   4  271.02   57.28
  -2   4   4  248.92   42.22
  -2   4   4  207.96   33.73
   2   4  -4  306.23   86.97
   2   4  -4  244.33   43.75
  -2  -4   4  234.61   43.18
  -2  -4   4  266.93   50.00
   2  -4  -4  700.78  137.50
  -2   4   3 1118.84  158.75
   2   4  -3 1396.17  210.52
   2   4  -3 1339.61  181.22
   2   4  -3 1292.76  195.18
  -2   4   3 1384.12  197.45
   2   4  -3 1521.34  247.35
  -2   4   3 1150.54  171.64
  -2   4   3 1328.58  195.64
  -2   4   3 1308.97  256.79
   2   4  -3 1166.19  192.82
  -2  -4   3 1188.22  178.87
   2  -4  -3 1387.25  218.53
  -2  -4   3 1375.01  203.64
  -2  -4   3 1303.25  201.53
   2  -4  -3 1392.76  204.38
  -2  -4   3 1140.79  150.43
  -2  -4   3 1236.65  190.10
  -2   4   2  966.37  122.21
   2   4  -2  959.80  136.53
   2   4  -2 1009.80  134.24
   2   4  -2 1030.69  112.57
  -2   4   2 1073.38  187.64
   2   4  -2 1047.44  144.42
   2   4  -2  971.10  110.10
   2   4  -2 1105.14  140.62
  -2   4   2  955.92  116.25
  -2   4   2  982.49  130.56
   2   4  -2  988.65  116.32
  -2   4   2 1038.94  126.59
  -2   4   2 1011.35  122.21
  -2   4   2  742.13   94.63
  -2  -4   2 1043.04  137.04
  -2  -4   2  862.37  108.39
  -2  -4   2 1020.10  127.38
  -2  -4   2 1116.73  139.24
  -2  -4   2 1076.84  134.72
  -2  -4   2 1064.13  143.51
   2  -4  -2 1078.70  136.92
   2   4  -1    9.07    2.28
  -2   4   1   11.24    2.95
   2   4  -1   11.33    3.44
  -2   4   1   12.41    1.83
   2   4  -1   13.82    2.58
  -2   4   1   12.74    8.73
   2   4  -1   10.76    4.76
  -2   4   1   15.65    3.46
  -2   4   1   11.14    4.16
   2   4  -1   22.69    4.91
   2   4  -1   17.07    8.77
   2   4  -1   11.22    3.64
  -2   4   1   23.15    5.72
  -2   4   1   13.60    2.90
  -2   4   1   14.25    4.10
  -2  -4   1   14.19    4.29
  -2  -4   1   10.17    3.25
  -2  -4   1   33.12   10.35
  -2  -4   1   22.81    4.38
   2  -4  -1    0.73    8.80
  -2  -4   1   18.07    5.48
  -2  -4   1   16.11    5.09
  -2   4   0    8.62    5.20
   2   4   0   13.03    2.96
  -2   4   0    9.34    5.60
  -2   4   0    6.17    4.00
  -2   4   0   10.17    2.15
   2   4   0   11.14    3.74
   2   4   0    5.94    8.86
   2   4   0    7.16    0.96
  -2   4   0   11.20    3.78
  -2   4   0   18.79    2.35
  -2   4   0   13.00    3.89
   2   4   0   11.09    3.86
   2   4   0    6.44    2.04
  -2  -4   0    6.96    4.40
  -2  -4   0   -0.01    2.97
   2  -4   0   10.19    5.69
   2  -4   0    7.26    5.00
   2  -4   0    7.24    3.88
  -2  -4   0    6.27    7.20
   2   4   1  893.79  110.20
   2   4   1  767.06   93.28
   2   4   1 1457.24  162.21
  -2   4  -1 1685.82  187.22
   2   4   1  895.63  120.68
  -2   4  -1  814.73  109.94
  -2   4  -1  538.46   89.69
   2   4   1  883.36  134.25
   2   4   1  851.63   94.92
  -2   4  -1  888.64  108.17
  -2   4  -1  871.44  117.88
  -2   4  -1  797.17  106.75
  -2  -4  -1  782.13   88.65
   2  -4   1  908.89  113.89
  -2  -4  -1  938.84  140.03
   2  -4   1  914.31  108.56
   2  -4   1  872.52  131.61
  -2  -4  -1  945.05  128.59
   2  -4   1  986.70  119.91
   2  -4   1  817.43  106.28
   2  -4   1  842.94  105.44
   2   4   2 1461.37  210.23
   2   4   2 1126.91  157.19
  -2   4  -2 1514.69  210.70
  -2   4  -2 1839.02  263.71
  -2   4  -2 1634.07  261.69
  -2   4  -2 1795.42  266.90
  -2   4  -2 1653.87  255.48
   2   4   2 1465.04  268.61
  -2   4  -2 1622.74  228.90
   2   4   2 1688.05  253.13
   2   4   2 1626.95  354.43
   2   4   2 1634.48  233.74
   2  -4   2 1654.87  222.12
  -2  -4  -2 1752.92  243.14
   2  -4   2 1681.43  252.35
  -2  -4  -2 1721.88  322.25
   2  -4   2 1793.21  264.34
   2  -4   2 1081.78  169.60
   2  -4   2 1736.23  275.24
   2  -4   2 1744.73  239.75
   2  -4   2 1751.66  258.56
   2   4   3 1897.94  429.30
   2   4   3 2055.51  343.84
  -2   4  -3 2040.57  346.74
  -2   4  -3 1096.63  225.82
  -2   4  -3 2270.09  410.48
   2   4   3 2090.78  338.29
   2   4   3 1620.27  249.63
   2   4   3 1828.37  292.24
   2  -4   3 2116.80  344.96
   2  -4   3 2051.54  344.53
  -2  -4  -3 2181.85  378.26
  -2   4  -4  417.77   86.56
  -2   4  -4  462.50   84.41
   2   4   4  491.30  137.99
  -2   4  -4  468.79   80.15
   2   4   4  525.12   88.62
   2   4   4  530.35   89.74
   2  -4   4  227.46   49.03
   2  -4   4  483.45   85.75
   2  -4   4  510.07   83.14
   2   4   5  768.12  165.67
  -2   4  -5 1007.43  183.51
   2   4   5  926.55  172.19
   2  -4   5  860.82  156.85
  -2  -4  -5 1478.02  302.52
   2  -4   5  969.51  179.95
   2   5  -6 2372.84  450.73
  -2   5   6 2047.09  327.53
  -2   5   6 2132.35  352.62
  -2  -5   6 2072.74  336.82
  -2  -5   6 1336.74  364.59
  -2   5   5  722.62  122.52
   2   5  -5  780.65  167.05
  -2   5   5  696.78  116.11
   2  -5  -5 2158.54  495.19
  -2  -5   5  745.22  126.39
  -2  -5   5  747.47  156.54
  -2   5   4  152.15   28.85
  -2   5   4   81.54   47.22
   2   5  -4  148.35   39.76
  -2   5   4  140.98   30.36
   2   5  -4  153.13   32.82
   2  -5  -4  429.74  103.17
  -2  -5   4  152.57   31.30
  -2  -5   4  156.45   35.80
  -2   5   3   49.35   11.07
  -2   5   3   52.37   11.79
  -2   5   3   51.55   18.70
  -2   5   3   45.42   23.66
   2   5  -3   54.80   14.65
   2   5  -3   54.00   17.27
  -2  -5   3   52.58   12.60
  -2  -5   3   48.98   10.10
  -2  -5   3   43.00    8.19
  -2  -5   3   49.32   14.12
   2   5  -2  591.25   82.88
  -2   5   2  536.77   64.58
   2   5  -2  553.87   63.21
   2   5  -2  539.12   52.39
  -2   5   2  499.67   62.50
  -2   5   2  544.41   65.04
   2   5  -2  570.84   74.35
   2   5  -2  568.34   70.44
  -2   5   2  522.53   91.02
  -2   5   2  573.49   66.91
  -2   5   2  373.94   55.40
   2   5  -2  637.65   77.82
  -2   5   2  530.19   61.40
  -2  -5   2  560.85   65.68
  -2  -5   2  592.01   93.16
  -2  -5   2  575.75   71.41
  -2  -5   2  575.06   70.36
  -2  -5   2  603.72   72.31
  -2  -5   2  600.81   81.22
  -2   5   1  812.49   99.16
  -2   5   1  789.52   93.25
  -2   5   1  689.43   92.00
   2   5  -1  770.39   86.81
   2   5  -1  995.67  106.14
  -2   5   1  770.43   79.17
  -2   5   1  747.38   82.39
   2   5  -1  849.07  116.57
   2   5  -1  821.93   92.67
   2   5  -1  908.30  108.99
  -2   5   1  739.37   86.82
   2   5  -1  829.61   98.23
   2   5  -1  778.37   97.51
  -2   5   1  808.57   90.62
  -2   5   1  636.25  108.24
  -2  -5   1  764.46   86.15
  -2  -5   1  894.37  144.64
  -2  -5   1  835.97  102.91
  -2  -5   1  820.93  103.06
  -2  -5   1  739.50   81.22
   2   5   0  165.85   20.13
  -2   5   0  175.98   17.28
  -2   5   0  169.75   21.55
   2   5   0  171.98   17.24
   2   5   0  165.48   19.76
  -2   5   0  172.15   23.38
   2   5   0  147.43   35.14
  -2   5   0  180.22   21.70
   2   5   0  147.45   12.13
  -2   5   0  149.17   19.23
  -2   5   0  141.02   24.56
  -2  -5   0  144.07   16.19
   2  -5   0  168.70   25.60
  -2  -5   0  129.34   31.42
  -2  -5   0  169.34   22.81
   2  -5   0  182.49   21.16
   2   5   1  304.07   42.55
   2   5   1  287.10   28.30
  -2   5  -1  244.63   35.05
  -2   5  -1  297.97   42.90
  -2   5  -1  565.92   57.25
   2   5   1  599.86   54.96
  -2   5  -1  296.31   41.26
  -2   5  -1  293.22   41.10
  -2   5  -1  292.78   37.57
   2   5   1  319.22   54.61
   2   5   1  299.46   42.24
  -2  -5  -1  324.30   45.50
   2  -5   1  319.86   38.25
   2  -5   1  324.58   40.65
   2  -5   1  310.54   55.27
   2  -5   1  299.51   46.91
   2  -5   1  359.27   41.67
  -2  -5  -1  332.23   53.01
   2  -5   1  351.69   39.44
  -2   5  -2 1195.57  190.82
  -2   5  -2 1183.33  161.89
   2   5   2 1325.29  191.63
  -2   5  -2 1170.62  184.33
   2   5   2 1137.38  230.67
   2   5   2 1106.71  211.51
   2   5   2 1184.50  163.75
  -2   5  -2 1123.19  157.58
   2  -5   2 1247.98  162.99
   2  -5   2  824.09  130.65
   2  -5   2 1208.86  190.16
  -2  -5  -2 1570.20  283.35
   2  -5   2 1209.08  178.91
   2  -5   2 1350.98  192.55
   2  -5   2 1327.93  192.80
   2  -5   2 1353.72  182.23
  -2   5  -3   98.36   23.95
  -2   5  -3   59.09   20.79
   2   5   3   96.91   49.43
  -2   5  -3   98.03   25.54
   2   5   3  117.35   24.16
   2   5   3   93.05   19.94
   2  -5   3   89.12   23.14
   2  -5   3   90.17   20.46
   2  -5   3   46.47   15.73
  -2  -5  -3   83.49   23.12
  -2   5  -4    6.55    9.55
   2   5   4    0.15    9.45
  -2   5  -4   21.99    9.84
   2   5   4    4.49   20.87
   2   5   4    5.13   10.26
   2  -5   4    2.83    6.32
   2  -5   4    4.98    9.55
   2  -5   4    0.47   13.02
   2   5   5  925.09  168.60
   2   5   5  661.36  156.69
  -2   5  -5  952.56  169.95
  -2  -5  -5 1281.98  252.95
   2  -5   5  804.20  145.00
   2  -5   5  979.97  174.45
  -2   6   6  132.56   23.46
  -2   6   6  127.32   22.96
   2   6  -6  118.21   35.93
  -2  -6   6   60.28   45.97
  -2  -6   6  120.77   23.32
  -2   6   5   17.67   10.53
   2   6  -5   10.00   16.76
  -2   6   5   10.45   11.37
  -2  -6   5   33.78   16.18
  -2  -6   5   21.21   17.45
   2  -6  -5   34.73   47.95
  -2  -6   5    7.29    9.76
  -2   6   4 1449.75  335.90
  -2   6   4 2329.38  403.56
  -2   6   4 2242.21  401.79
   2   6  -4 2404.03  439.32
   2   6  -4 2370.58  471.45
  -2  -6   4 2308.88  411.21
  -2  -6   4 2332.72  434.17
   2  -6  -4 7092.67 1360.70
  -2   6   3  475.56   66.52
   2   6  -3  593.62   96.39
   2   6  -3  561.85   83.59
  -2   6   3  541.56   73.78
  -2   6   3  587.30   75.79
  -2   6   3  393.79   89.55
  -2  -6   3  543.73   70.11
  -2  -6   3  362.12   51.18
  -2  -6   3  582.14   80.77
  -2  -6   3  549.87   74.40
   2   6  -2    5.50    7.51
  -2   6   2    7.45    3.18
  -2   6   2    6.93    3.97
  -2   6   2    6.31    8.57
   2   6  -2    9.11    3.96
  -2   6   2    4.06    3.76
  -2   6   2    3.73    4.24
   2   6  -2   10.22    5.73
   2   6  -2   14.82    5.23
   2   6  -2    5.84    4.35
  -2  -6   2    8.31    4.62
  -2  -6   2    5.78    5.18
  -2  -6   2   -0.07    6.76
  -2  -6   2    6.70    3.69
  -2  -6   2    2.11    4.71
  -2  -6   2    7.16    9.44
   2   6  -1  161.65   13.28
  -2   6   1  151.50   15.83
  -2   6   1  168.12   18.11
   2   6  -1  202.60   25.33
  -2   6   1  155.18   15.26
   2   6  -1  186.75   18.30
  -2   6   1  166.04   20.45
   2   6  -1  190.89   23.48
   2   6  -1  203.16   34.89
   2   6  -1  179.60   23.85
   2   6  -1  170.95   16.14
  -2   6   1  184.69   30.47
  -2   6   1  176.17   23.28
  -2   6   1  179.28   22.59
  -2  -6   1  179.59   25.40
  -2  -6   1  194.44   44.52
  -2  -6   1  241.19   26.56
  -2  -6   1  159.97   23.78
  -2   6   0   92.14   14.11
   2   6   0  104.37   15.45
  -2   6   0  107.80   12.81
   2   6   0   91.85    6.73
   2   6   0  117.47   15.70
   2   6   0   85.35   27.28
  -2   6   0   99.50   18.39
  -2   6   0   99.66   15.79
  -2   6   0   99.46   16.36
  -2   6   0  119.77   17.53
   2   6   0  110.61   11.29
  -2  -6   0   92.50   11.72
  -2  -6   0  110.60   17.94
   2  -6   0  112.03   20.66
   2  -6   0  108.00   15.44
  -2  -6   0   75.49   28.45
   2   6   1   43.29   16.50
   2   6   1   51.37    8.80
  -2   6  -1   37.46    9.85
  -2   6  -1   32.75   12.88
   2   6   1   36.66   11.02
  -2   6  -1   35.28   11.26
   2   6   1   42.18    8.40
  -2   6  -1   67.87   14.42
   2   6   1   32.05    4.69
  -2   6  -1   33.42   11.62
  -2   6  -1   43.01   12.09
   2  -6   1   47.10   11.70
   2  -6   1   45.00    9.31
   2  -6   1   56.07   10.95
  -2  -6  -1   42.19   14.64
  -2  -6  -1   46.46   12.75
   2  -6   1   57.82   13.74
   2  -6   1   43.12    8.29
  -2   6  -2   -0.36    5.16
   2   6   2    3.15    9.58
  -2   6  -2    0.67    5.06
  -2   6  -2    0.92    4.84
  -2   6  -2    0.40    3.46
  -2   6  -2   12.24    5.15
   2   6   2   -0.03    3.03
   2   6   2   -1.12    8.30
   2   6   2    2.83    4.12
   2  -6   2    5.00    4.51
  -2  -6  -2    6.21    7.63
   2  -6   2    1.85    3.70
   2  -6   2    1.36    4.01
   2  -6   2    2.26    6.05
   2  -6   2    1.80    5.01
   2  -6   2    1.46    3.86
   2  -6   2   -0.04    2.82
  -2   6  -3  562.46   92.19
  -2   6  -3  604.02   95.14
   2   6   3  512.34   88.12
   2   6   3  596.47   88.67
   2   6   3  527.38  139.66
  -2   6  -3  316.83   69.62
   2  -6   3  556.44   78.90
   2  -6   3  236.70   51.04
  -2  -6  -3  531.05   83.28
   2  -6   3  579.95   86.72
  -2   6  -4 2770.92  503.32
  -2   6  -4 2576.40  510.31
   2   6   4 2466.42  468.99
  -2   6  -4 1963.23  379.34
   2   6   4 2629.36  609.21
   2   6   4 2723.88  516.44
   2  -6   4 2786.58  494.49
   2  -6   4 1234.38  262.11
   2  -6   4 2477.48  436.20
   2   6   5   72.93   26.11
   2   6   5    0.72   36.34
  -2   6  -5   60.83   21.02
  -2  -6  -5   73.62   34.16
   2  -6   5   86.98   38.16
  -2   7   5 1831.36  310.03
   2   7  -5 1847.14  417.07
  -2   7   5 1842.38  308.47
  -2  -7   5 1512.14  265.11
  -2  -7   5 1537.96  263.03
  -2  -7   5 1840.95  352.68
   2   7  -4  368.39   69.04
  -2   7   4  346.64   60.42
   2   7  -4  388.88   87.14
  -2   7   4  358.05   59.54
  -2  -7   4  360.05   68.83
  -2  -7   4  340.06   58.77
   2   7  -3  203.16   41.15
  -2   7   3  218.47   33.31
  -2   7   3  159.80   39.13
   2   7  -3  242.06   51.44
  -2   7   3  207.54   32.49
  -2  -7   3  221.03   35.98
  -2  -7   3  150.45   24.98
  -2  -7   3  208.71   31.95
  -2   7   2  257.92   31.83
   2   7  -2  295.04   38.78
   2   7  -2  309.87   44.16
  -2   7   2  231.35   45.84
  -2   7   2  312.77   40.14
   2   7  -2  288.16   44.82
   2   7  -2  307.63   52.55
   2   7  -2  278.01   35.97
  -2   7   2  263.79   34.45
  -2   7   2  268.38   35.83
  -2  -7   2  299.65   35.92
  -2  -7   2  306.59   39.37
  -2  -7   2  305.98   43.11
  -2  -7   2  277.90   47.24
  -2  -7   2  303.01   61.95
  -2  -7   2  289.08   44.52
  -2   7   1 1035.46  134.21
  -2   7   1 1265.02  180.78
  -2   7   1 1255.23  177.23
  -2   7   1 1148.24  147.71
   2   7  -1 1473.31  246.50
   2   7  -1 1399.75  197.12
   2   7  -1 1189.67  147.93
  -2   7   1 1101.11  175.74
  -2   7   1 1222.12  181.57
   2   7  -1 1239.31  178.97
   2   7  -1 1207.77  179.50
  -2   7   1 1211.34  161.53
  -2  -7   1 1427.79  258.30
  -2  -7   1 2008.54  262.17
  -2  -7   1 1328.95  194.03
  -2  -7   1 1283.08  187.35
   2   7   0 2384.97  369.73
  -2   7   0 2016.34  338.90
  -2   7   0 2282.80  364.42
   2   7   0 2257.81  350.35
  -2   7   0 2150.28  345.78
  -2   7   0 2235.69  355.70
  -2   7   0 2146.27  344.52
  -2   7   0 1995.23  314.08
   2   7   0 2064.50  297.17
   2   7   0 2097.14  397.09
   2  -7   0 2475.23  377.10
  -2  -7   0 2280.35  368.65
  -2  -7   0 1474.30  334.98
  -2  -7   0 1955.31  293.88
   2  -7   0 2362.18  418.09
  -2   7  -1 1675.71  211.64
  -2   7  -1  870.03  125.91
   2   7   1  978.83  172.75
   2   7   1  988.76  133.53
   2   7   1  963.70  142.84
  -2   7  -1  951.16  142.82
  -2   7  -1  959.76  147.79
   2   7   1  908.92  124.68
  -2   7  -1  888.53  139.91
  -2   7  -1  962.45  140.65
  -2  -7  -1 1015.42  154.69
   2  -7   1 1078.89  146.08
   2  -7   1 1063.66  154.54
   2  -7   1 1398.50  200.78
   2  -7   1 1075.41  153.63
  -2  -7  -1  894.26  172.10
   2  -7   1  867.54  117.95
   2   7   2  932.27  169.87
  -2   7  -2  722.78  119.11
  -2   7  -2  687.49  114.13
   2   7   2  644.68  147.38
  -2   7  -2  711.49  103.19
  -2   7  -2  655.11  107.99
   2   7   2  716.00  103.93
  -2   7  -2 1089.52  148.67
   2  -7   2  676.38   98.58
   2  -7   2  536.13   91.65
   2  -7   2  707.26   94.80
   2  -7   2  721.76  102.41
  -2   7  -3  191.67   43.99
   2   7   3  189.96   80.54
   2   7   3  222.37   40.11
  -2   7  -3  227.72   47.65
  -2   7  -3  219.84   47.08
   2   7   3  214.78   42.72
   2  -7   3  225.37   41.42
   2  -7   3  228.60   36.54
  -2  -7  -3  180.72   38.72
   2  -7   3   94.18   31.32
  -2   7  -4  135.22   33.22
  -2   7  -4  206.73   45.57
   2   7   4  201.96   42.27
  -2   7  -4  196.08   42.35
   2   7   4  146.10   42.89
   2   7   4  171.92   74.31
   2  -7   4  190.02   40.59
   2  -7   4  146.48   31.13
   2  -7   4   90.84   29.49
   2   7   5 1157.69  206.81
  -2   7  -5 1122.49  252.03
   2   7   5 1928.90  322.77
   2  -7   5 1181.91  240.40
  -2  -7  -5 2241.99  379.28
   2  -7   5 1847.28  302.29
  -2   8   5 1285.38  209.17
  -2   8   5 1495.76  235.84
   2   8  -5 1284.88  260.18
  -2  -8   5 1221.74  205.53
  -2  -8   5 1222.95  193.64
  -2  -8   5 1414.98  259.91
   2   8  -4   53.85   23.00
  -2   8   4   52.90   17.60
  -2   8   4   44.74   17.22
   2   8  -4   61.99   26.26
  -2  -8   4   43.35   16.52
  -2  -8   4   46.41   19.97
  -2   8   3   25.06   11.34
  -2   8   3   21.16    9.49
   2   8  -3   26.94   13.24
   2   8  -3   16.81   16.18
  -2   8   3   24.43   10.02
  -2  -8   3   23.47    8.88
  -2  -8   3   20.13   10.54
  -2  -8   3   12.56    8.06
  -2   8   2 3670.97  675.13
   2   8  -2 3757.83  724.79
   2   8  -2 4012.76  832.62
  -2   8   2 2865.78  591.94
  -2   8   2 3477.45  632.15
   2   8  -2 3754.19  720.75
  -2   8   2 3266.44  615.54
   2   8  -2 3730.96  694.35
  -2  -8   2 5346.23  983.09
   2   8  -1  656.70   92.00
  -2   8   1  657.57  102.25
  -2   8   1  673.26  109.99
  -2   8   1  591.17   70.93
   2   8  -1  716.88  102.94
   2   8  -1  774.12  178.86
  -2   8   1  663.25   96.22
  -2   8   1  693.70   97.31
   2   8  -1  693.50   98.47
  -2  -8   1  702.44  105.40
  -2  -8   1  759.74  148.32
  -2  -8   1  686.74  101.99
  -2  -8   1 1329.01  163.37
  -2   8   0  130.65   24.08
   2   8   0  135.84   22.28
  -2   8   0  120.86   19.36
   2   8   0  143.71   23.33
   2   8   0  140.17   35.91
  -2   8   0  125.10   23.40
  -2   8   0  122.66   24.82
  -2  -8   0  112.27   15.93
   2  -8   0  142.99   22.71
  -2  -8   0   91.67   64.32
  -2  -8   0  153.39   27.43
  -2   8  -1 1078.54  169.75
  -2   8  -1 1091.01  175.83
   2   8   1 1091.59  202.44
  -2   8  -1 1047.05  170.09
   2   8   1  976.26  147.37
  -2   8  -1 1139.31  174.44
   2   8   1 1137.01  175.78
   2   8   1 1123.58  161.33
   2  -8   1  973.01  135.03
   2  -8   1 1417.69  206.25
   2  -8   1 1275.29  180.23
   2  -8   1 1221.34  180.00
  -2  -8  -1 1097.07  199.19
  -2   8  -2 2497.91  470.10
   2   8   2 2226.52  515.53
   2   8   2 3150.56  637.12
  -2   8  -2 2562.73  472.16
  -2   8  -2 2595.88  484.64
   2   8   2 2561.54  445.09
   2  -8   2 2035.54  391.73
   2  -8   2 2313.41  403.31
   2  -8   2 2426.28  417.31
  -2   8  -3  127.62   30.44
  -2   8  -3   84.14   28.30
   2   8   3   76.54   51.46
   2   8   3   83.64   24.85
  -2  -8  -3   71.61   23.19
   2  -8   3   84.63   21.44
   2  -8   3   41.37   21.88
   2   8   4  102.76   56.46
  -2   8  -4  135.29   37.28
  -2   8  -4  130.26   33.69
   2   8   4  131.72   33.18
   2  -8   4   60.37   25.20
   2  -8   4  125.22   30.26
   2   8   5  788.94  134.69
  -2  -8  -5  965.87  156.74
   2  -8   5  856.66  135.05
   2  -8   5  535.29  105.04
  -2   9   5   65.71   20.38
  -2   9   5   68.70   17.33
   2   9  -5   68.56   34.10
  -2  -9   5   86.62   23.21
  -2  -9   5   77.51   26.65
   2   9  -4  586.28  117.01
  -2   9   4  548.48   82.31
  -2   9   4  579.57   85.48
  -2  -9   4  487.70   69.91
  -2  -9   4  600.31   93.98
  -2  -9   4  223.03   63.85
  -2   9   3 2054.68  347.43
   2   9  -3 2250.90  458.67
   2   9  -3 2218.04  405.39
   2   9  -3 1896.47  337.82
  -2   9   3 2094.14  361.08
  -2  -9   3 1600.34  284.34
  -2  -9   3 2910.39  502.49
   2   9  -2  580.61  113.26
  -2   9   2  402.79   84.20
   2   9  -2  498.74   85.69
  -2   9   2  449.82   70.78
   2   9  -2  449.00   76.92
   2   9  -2  500.46   78.15
  -2   9   2  402.49   62.28
  -2   9   2  403.50   57.20
  -2  -9   2  714.62  103.18
  -2   9   1 2396.31  431.49
  -2   9   1 2166.08  404.19
  -2   9   1 2406.64  428.88
   2   9  -1 2579.83  448.96
   2   9  -1 2806.78  639.47
   2   9  -1 2452.20  427.04
  -2   9   1 2048.32  405.16
   2   9  -1 2780.85  481.15
  -2  -9   1 5163.67  854.05
  -2   9   0  741.51  127.66
   2   9   0  761.09  109.14
  -2   9   0  642.74   93.56
  -2   9   0  802.40  118.38
  -2   9   0  734.06  128.24
   2   9   0  812.06  116.40
   2   9   0  753.63  168.78
  -2  -9   0  619.34   83.04
  -2   9  -1 1838.80  335.88
   2   9   1 2172.05  354.62
  -2   9  -1 1919.67  340.84
   2   9   1 2141.49  369.59
   2   9   1 1897.76  390.18
  -2   9  -1 1977.21  357.09
  -2   9  -1 2121.66  366.66
   2   9   2  809.54  162.31
   2   9   2  624.85   95.55
  -2   9  -2  669.37  119.45
  -2   9  -2  660.21  116.62
  -2   9  -2  642.91  102.77
   2   9   2  559.51  144.35
   2  -9   2  567.74  105.71
  -2   9  -3 2078.77  375.57
  -2   9  -3 2103.24  376.52
   2   9   3 1540.89  397.68
   2   9   3 2090.37  345.95
   2  -9   3 1082.11  232.43
  -2  -9  -3 1647.85  297.32
   2  -9   3 1840.47  307.18
   2   9   4  440.97   77.41
  -2   9  -4  476.19   88.36
  -2   9  -4  441.26   80.40
   2   9   4  342.25  106.28
   2  -9   4  236.77   58.65
   2  -9   4  451.00   72.77
   2   9   5   -0.51    4.64
  -2  -9  -5    1.15    4.26
   2  10  -5  518.82  121.68
  -2  10   5  465.27   90.48
  -2  10   5  558.55   76.84
  -2 -10   5  577.71   88.63
  -2 -10   5  612.74  101.57
  -2  10   4  293.75   57.95
   2  10  -4  333.94   93.99
  -2  10   4  323.99   66.10
  -2 -10   4  330.19   60.82
  -2 -10   4  318.16   61.01
  -2  10   3 1419.19  255.72
   2  10  -3 1625.61  298.78
   2  10  -3 1651.40  356.61
   2  10  -3 1348.91  223.99
  -2  10   3 1559.02  247.98
  -2 -10   3 2333.47  386.68
  -2 -10   3 1175.52  203.48
   2  10  -2 1592.91  272.23
  -2  10   2 1317.71  258.04
   2  10  -2 1621.85  357.10
   2  10  -2 1640.52  279.87
  -2  10   2 1305.81  216.32
  -2  10   2 1250.54  221.82
   2  10  -2 1486.88  242.76
  -2 -10   2 2878.47  453.88
   2  10  -1 3957.76  776.10
  -2  10   1 3301.10  699.29
   2  10  -1 3447.57  869.81
  -2  10   1 3368.27  693.37
   2  10  -1 4120.40  816.50
  -2  10   1 3748.53  752.60
  -2 -10   1 8578.51 1610.38
  -2  10   0   19.86    9.45
   2  10   0   34.32   12.94
  -2  10   0   30.44   14.52
  -2  10   0   31.77   14.10
   2  10   0   46.36   14.29
  -2  10   0   29.33   13.22
   2  10   0   29.37   21.09
  -2  10  -1 3017.33  595.84
  -2  10  -1 2842.52  563.62
   2  10   1 2719.59  655.48
   2  10   1 3064.87  591.46
  -2  10  -1 2775.69  551.16
  -2  10  -1 3053.29  588.72
   2  10   1 3019.65  561.31
   2  10   2 1218.37  251.80
  -2  10  -2  938.89  169.17
  -2  10  -2  978.79  163.38
   2  10   2  728.92  199.04
  -2  10  -2 1026.88  184.71
   2 -10   2  946.98  176.48
   2  10   3  730.85  201.59
   2  10   3  901.08  143.98
  -2  10  -3 1058.03  179.89
  -2  10  -3 1034.68  179.27
   2 -10   3  573.63  124.95
  -2 -10  -3  797.89  137.82
   2  10   4  160.53   62.07
  -2  10  -4  201.07   46.00
   2  10   4  231.78   44.98
  -2  10  -4  236.73   51.95
   2 -10   4  147.84   39.83
  -2  11   4 2407.51  575.35
   2  11  -4 3365.96  819.06
  -2  11   4 3212.14  583.16
  -2 -11   4 3544.15  692.55
  -2 -11   4 5267.51 1016.81
   2  11  -3  172.15   62.68
   2  11  -3  133.23   24.84
  -2 -11   3    2.38   25.48
  -2 -11   3  284.66   48.69
  -2 -11   3  131.67   24.48
  -2  11   2   31.27   13.50
  -2  11   2   34.56   13.45
   2  11  -2   36.96   44.85
   2  11  -2   44.76   18.85
   2  11  -2   42.81   18.69
   2  11  -2   35.15   15.07
  -2 -11   2   85.63   28.21
  -2  11   1  358.00   65.51
   2  11  -1  432.60   73.67
   2  11  -1  358.18  101.34
  -2  11   1  397.85   84.97
  -2  11   1  331.40   74.74
   2  11  -1  401.02   67.58
  -2 -11   1  394.83   60.68
  -2  11   0 7988.13 2015.66
  -2  11   0 8411.18 2087.55
   2  11   0 7105.05 1973.29
   2  11   0 8707.98 2123.66
  -2  11   0 7040.88 1784.09
   2  11   0 8677.52 2134.21
  -2  11  -1  374.63   71.77
   2  11   1  431.97   72.74
   2  11   1  310.80   84.98
  -2  11  -1  340.89   60.15
  -2  11  -1  363.22   65.74
   2  11   1  404.33   63.31
   2 -11   1  132.66   71.16
  -2  11  -2   13.74   15.51
   2  11   2    8.78   25.76
  -2  11  -2   36.24   14.50
   2  11   2   29.99   26.45
  -2  11  -2   16.33   27.01
   2 -11   2   14.45   19.19
   2  11   3   75.26   21.50
   2  11   3   79.22   45.49
  -2  11  -3   93.91   31.09
  -2  11  -3   93.49   29.73
   2 -11   3   57.78   27.88
  -2 -11  -3   67.53   22.85
  -2  11  -4 2017.37  359.39
   2  11   4 1456.84  332.04
   2  11   4 1642.95  296.91
  -2  11  -4 2180.25  390.34
   2 -11   4 1846.66  337.97
   2  12  -4  103.74   99.67
  -2 -12   4 1183.20  153.65
   2  12  -3  564.00  180.53
   2  12  -3  567.48   87.74
  -2 -12   3  633.74  106.12
  -2 -12   3 1177.56  185.34
  -2 -12   3  450.69   77.76
  -2  12   2 2411.58  462.22
   2  12  -2 2877.40  540.26
   2  12  -2 2215.82  604.25
  -2 -12   2 2853.36  542.21
  -2 -12   2 5965.69 1154.45
  -2  12   1 1275.20  230.42
   2  12  -1 1788.89  306.78
   2  12  -1 1707.27  287.89
  -2  12   1 1427.83  267.70
   2  12  -1 1391.78  316.21
  -2  12   1 1523.23  264.37
  -2 -12   1 1485.76  245.68
   2  12   0    5.77    7.61
  -2  12   0    1.29    8.66
  -2  12   0    1.77    7.78
   2  12   0    3.15    7.36
  -2  12   0    3.12    7.30
   2  12   0    5.60   11.46
  -2  12  -1  789.60  140.17
   2  12   1  929.43  170.30
   2  12   1  676.34  175.77
  -2  12  -1  875.59  168.73
  -2  12  -1  880.74  158.08
   2 -12   1 1391.39  258.05
  -2 -12  -1 1013.16  157.32
  -2  12  -2 2589.59  493.79
  -2  12  -2 2324.46  461.48
  -2  12  -2 2518.98  505.22
   2  12   2 1632.88  454.45
   2  12   2 2808.09  631.55
   2 -12   2 2859.30  580.93
   2  12   3  245.22   88.78
  -2  12  -3  394.64   93.43
  -2  12  -3  399.87   74.96
  -2 -12  -3  338.61   58.58
   2 -12   3  264.23   68.47
   2  12   4  147.64   44.58
  -2  12  -4  241.48   52.78
   2 -12   4  267.63   49.87
   2  13  -4    4.69   11.70
  -2 -13   4    5.56    8.75
  -2 -13   4   11.75   12.07
   2  13  -3 1323.53  208.69
   2  13  -3 1015.69  265.25
  -2 -13   3 1488.29  248.04
  -2 -13   3 1089.84  182.00
  -2 -13   3 2787.98  443.74
  -2  13   2  179.25   35.90
   2  13  -2  148.40   64.99
   2  13  -2  210.01   41.81
  -2 -13   2  321.14   61.36
  -2 -13   2  219.10   43.38
  -2 -13   2  189.63   40.59
  -2  13   1 2048.50  417.80
   2  13  -1 2796.98  504.96
   2  13  -1 2519.25  456.70
  -2  13   1 1843.43  349.10
  -2  13   1 2270.74  418.27
   2  13  -1 1911.82  451.98
   2  13   0  144.30   57.86
   2  13   0  220.64   44.43
  -2  13   0  212.87   44.33
   2  13   0  245.04   45.03
  -2  13   0  181.35   44.93
   2 -13   0    1.95   51.22
  -2  13  -1 2362.06  470.12
  -2  13  -1 2335.35  448.17
  -2  13  -1 1880.02  383.93
   2  13   1 1497.04  403.19
   2  13   1 2459.40  480.68
   2 -13   1 4043.95  785.00
  -2 -13  -1 2682.46  471.83
   2  13   2  182.68   80.63
   2  13   2  279.86   85.76
  -2  13  -2  313.77   68.40
  -2  13  -2  307.68   61.71
  -2  13  -2  276.79   56.97
   2 -13   2  423.86  115.70
  -2  13  -3  911.86  147.79
  -2  13  -3  885.64  147.07
   2  13   3  493.01  134.42
   2 -13   3  626.61  134.98
   2  14  -3  151.48   71.62
  -2 -14   3  168.58   30.40
  -2 -14   3  263.73   45.48
   2  14  -2  799.50  143.74
   2  14  -2  500.93  139.62
  -2 -14   2  767.52  122.20
  -2 -14   2  743.61  118.17
   2  14  -1  630.28  109.18
  -2  14   1  637.98  110.94
   2  14  -1  454.55  129.39
  -2  14   1  628.72  164.84
   2 -14  -1 1058.36  185.87
  -2 -14   1  719.84  118.34
  -2  14   0   60.43   27.37
   2  14   0   78.34   25.40
   2  14   0   43.93   33.89
  -2  14   0   64.80   25.85
  -2 -14   0   66.83   23.09
   2 -14   0   87.87   33.66
   2  14   1  732.44  212.85
   2  14   1 1307.83  251.15
  -2  14  -1 1279.56  279.61
  -2  14  -1 1236.32  227.05
  -2 -14  -1 1546.17  250.01
   2 -14   1 2095.32  380.20
   2  14   2  415.00  103.77
  -2  14  -2  467.04   80.46
   2  14   2  215.45   87.60
  -2  14  -2  510.59   96.61
  -2  14  -2  517.02   91.01
   2 -14   2  685.82  127.11
   2  14   3    1.46   12.62
  -2  14  -3    6.15   13.04
  -2  14  -3   40.18   12.70
   2 -14   3   12.05   24.23
   2  15  -3   66.11   20.78
   2  15  -2   -2.26   10.22
   2  15  -2    9.64    6.61
  -2 -15   2    2.85    7.27
   2  15  -1  140.00   31.07
  -2  15   1   76.14   38.83
   2  15  -1   71.57   39.95
  -2  15   1  136.79   29.85
  -2 -15   1  159.72   33.19
  -2  15   0 1636.77  318.33
   2  15   0  917.30  243.73
   2  15   0 1820.19  317.51
  -2  15   0 1445.92  289.25
   2 -15   0 2428.95  421.83
  -2 -15   0 2048.06  331.78
  -2  15  -1  184.78   45.05
   2  15   1   91.06   71.20
  -2  15  -1  164.46   46.94
   2  15   1  215.85   62.93
   2 -15   1  225.89   71.28
  -2 -15  -1  252.21   46.40
  -2  15  -2   -0.09    4.56
  -2  15  -2    0.50    3.49
  -2  15  -2   -1.35    4.46
   2  15   2   -0.00    4.38
   2  15   2    0.19    4.07
   2 -15   2   -0.40    4.84
   2  16  -2   37.65   12.13
  -2 -16   2   36.68   13.72
   2  16  -1    3.10    6.03
  -2  16   1    3.25    5.53
  -2  16   1    0.06    5.36
   2  16  -1    0.57    6.92
  -2 -16   1    2.18    6.21
   2  16   0   50.25   18.37
   2  16   0    4.25   18.21
  -2  16   0   44.14   16.99
  -2  16   0    6.59   29.97
  -2 -16   0   49.55   17.17
  -2  16  -1   46.44   17.43
  -2  16  -1   37.80   19.43
   2  16   1   56.36   23.03
   2  16   1    0.75   15.38
   2 -16   1   41.74   14.80
  -3   0   6  525.81  123.77
   3   0  -6  580.65   89.95
  -3   0   6  960.79  134.80
   3   0  -6 1407.80  222.93
  -3   0   6 1005.91  140.38
  -3   0   5    0.25    5.71
   3   0  -5   25.78   21.46
  -3   0   5    7.40    5.52
  -3   0   5   -0.13    6.73
  -3   0   5   11.22   17.33
   3   0  -4 5447.91 1061.60
  -3   0   4 2701.07  568.64
  -3   0   4 2381.26  428.42
  -3   0   4 2591.56  493.86
  -3   0   4 2174.46  378.22
   3   0  -3    0.03    5.45
  -3   0   3    1.53    5.60
  -3   0   3    0.00    8.84
   3   0  -3    1.47    7.77
   3   0  -3    5.17   12.78
  -3   0   3    3.35    6.16
  -3   0   3   35.55    6.36
   3   0  -3    5.52    5.77
  -3   0   3    1.41    6.75
  -3   0   3   18.05    5.15
  -3   0   2 1087.89  153.57
  -3   0   2 1028.79  129.92
   3   0  -2 1199.28  152.57
   3   0  -2 1054.06  142.13
  -3   0   2 1272.18  175.69
  -3   0   2 1105.57  132.12
  -3   0   2 1031.90  133.35
   3   0  -2 1154.47  153.61
   3   0  -2 1124.60  148.66
   3   0  -2 1166.58  173.05
  -3   0   2  940.79  134.28
  -3   0   2 1029.86  137.68
  -3   0   2  953.25  145.84
   3   0  -1    5.04    2.73
  -3   0   1    5.54    1.78
  -3   0   1    1.70    5.87
  -3   0   1   19.91    5.99
  -3   0   1    0.06    1.69
   3   0  -1    1.99    3.68
  -3   0   1    2.83    3.00
  -3   0   1    0.76    3.17
   3   0  -1    3.44    3.70
  -3   0   1    1.44    2.10
  -3   0   1    1.33    4.39
   3   0  -1    1.13    3.33
  -3   0   1    1.93    3.68
  -3   0   1    0.54    2.93
   3   0   0 1224.21  161.93
  -3   0   0 1347.71  175.71
  -3   0   0 1204.33  166.65
  -3   0   0 1197.09  139.23
   3   0   0 1229.69  152.85
   3   0   0 1172.72  158.66
   3   0   0 1117.74  140.56
   3   0   0 1211.76  158.24
  -3   0   0 1261.16  167.51
   3   0   0 1200.11  144.44
   3   0   0 1233.37  161.64
  -3   0   0 1211.56  158.15
  -3   0   0 1118.30  145.85
   3   0   0 1223.49  169.21
   3   0   1    5.09    4.94
  -3   0  -1   14.25    5.33
   3   0   1    5.52    2.65
   3   0   1   14.71    5.82
   3   0   1   13.67    7.53
  -3   0  -1    1.37    5.76
   3   0   1    0.70    3.09
   3   0   1    1.65    4.92
  -3   0  -1    0.92    4.75
  -3   0  -1    0.14    6.74
   3   0   1    1.08    5.32
  -3   0  -1    1.52    6.77
   3   0   1    2.86    5.76
   3   0   1    9.42    4.03
  -3   0  -2 2221.27  394.81
  -3   0  -2 2161.72  370.55
   3   0   2 2115.77  373.00
   3   0   2 2531.82  399.90
  -3   0  -2 1990.73  346.34
  -3   0  -2 2297.06  381.69
   3   0   2 2169.18  385.78
   3   0   2 2353.67  377.76
   3   0   2 2185.37  368.29
  -3   0  -2 2241.77  376.54
   3   0   2 1992.66  389.16
   3   0   2 2170.10  376.13
   3   0   3    0.59    5.94
   3   0   3    0.43    6.13
   3   0   3    6.02    8.14
   3   0   3    0.53    5.68
  -3   0  -3    0.05    5.88
   3   0   3    0.18    4.69
  -3   0  -3    1.50    6.51
  -3   0  -4 1808.60  337.10
   3   0   4 1233.82  235.26
   3   0   4  988.02  215.26
   3   0   4 1169.52  215.69
  -3   0  -4 1002.46  211.91
   3   0   5    3.25   13.37
  -3   0  -5    5.02   19.11
   3   0   5    5.67   11.45
   3   0   5    2.74   15.03
   3   1  -6 1137.77  207.41
  -3   1   6  792.64  142.30
  -3   1   6  777.64  126.43
  -3  -1   6  761.12  120.57
  -3  -1   6  557.93  167.59
   3  -1  -6 1019.20  193.19
  -3   1   5  207.90   38.64
  -3   1   5  224.14   42.63
  -3   1   5  240.13   88.41
   3   1  -5  594.71  191.13
  -3   1   5  220.64   37.86
  -3  -1   5  266.31   86.59
   3  -1  -5  473.75  112.58
  -3  -1   5  224.65   42.74
  -3  -1   5  220.51   37.86
  -3  -1   5  209.82   34.94
  -3   1   4  940.67  141.18
  -3   1   4 1198.07  254.51
  -3   1   4 1029.97  160.94
  -3   1   4  921.51  146.12
   3   1  -4 2305.48  399.23
  -3  -1   4  916.37  138.79
  -3  -1   4 1060.97  170.42
   3  -1  -4 2357.23  402.91
  -3  -1   4 1191.71  215.05
  -3  -1   4  919.04  134.23
   3   1  -3  831.78  119.56
   3   1  -3  415.74   54.31
   3   1  -3  421.44   65.86
   3   1  -3  409.78   55.66
  -3   1   3  353.73   51.03
  -3   1   3  411.95   55.03
   3   1  -3  428.12   74.87
  -3   1   3  386.81   50.95
  -3   1   3  386.32   47.98
  -3   1   3  458.02  100.69
   3  -1  -3  421.16   57.52
  -3  -1   3  384.93   60.92
  -3  -1   3  475.64   69.67
   3  -1  -3  903.77  125.43
  -3  -1   3  366.84   50.15
  -3  -1   3  319.27   43.70
   3  -1  -3  441.26   68.48
  -3  -1   3  419.53   61.93
  -3  -1   3  425.01   57.91
   3  -1  -3  421.57   59.51
   3   1  -2  310.31   37.29
   3   1  -2  292.75   32.94
   3   1  -2  311.17   40.35
   3   1  -2  362.02   48.42
  -3   1   2  300.26   32.45
  -3   1   2  187.40   44.79
  -3   1   2  289.10   34.23
  -3   1   2  311.35   36.36
   3   1  -2  338.04   40.40
  -3   1   2  208.38   38.31
  -3   1   2  574.67   69.73
  -3   1   2  359.41   53.65
  -3  -1   2  255.34   32.35
  -3  -1   2  281.15   33.50
  -3  -1   2  361.91   43.90
   3  -1  -2  306.39   36.35
  -3  -1   2  286.83   29.03
  -3  -1   2  293.03   33.17
   3  -1  -2  636.74   69.84
  -3  -1   2  316.95   43.77
   3  -1  -2  345.55   55.10
  -3  -1   2  402.64   50.93
   3  -1  -2  308.83   38.50
  -3  -1   2  290.99   36.95
   3   1  -1 1156.97  154.59
   3   1  -1 1048.98  143.47
   3   1  -1  968.83  136.96
  -3   1   1  893.59  103.10
  -3   1   1 1131.96  135.20
  -3   1   1 1144.55  141.20
   3   1  -1 1138.50  134.36
  -3   1   1 1076.75  152.16
  -3   1   1 1200.48  158.68
  -3   1   1 1199.64  173.03
   3   1  -1 1188.40  152.93
  -3   1   1 1036.99  155.61
  -3  -1   1  895.06  146.15
  -3  -1   1 1085.07  124.81
  -3  -1   1 1379.18  183.36
   3  -1  -1 1028.38  138.25
  -3  -1   1  588.20  104.77
   3  -1  -1 1275.28  168.98
  -3  -1   1 1269.56  173.19
   3  -1  -1 1164.48  148.71
  -3  -1   1 1155.81  145.38
  -3  -1   1 1143.55  167.64
  -3  -1   1 1142.50  132.85
  -3  -1   1 1287.12  159.12
   3  -1  -1 1169.65  150.81
   3   1   0  101.02   19.04
   3   1   0  132.67   17.49
   3   1   0  100.20   10.35
   3   1   0  108.90   15.85
  -3   1   0  129.64   22.22
   3   1   0  107.49   12.73
  -3   1   0  114.36    8.36
  -3   1   0  130.86   15.87
   3   1   0  131.31   19.80
  -3   1   0  174.98   22.41
   3   1   0  111.93   12.63
  -3   1   0  128.66   18.64
  -3   1   0  118.63   21.45
  -3   1   0  160.90   21.63
   3   1   0  116.43   16.84
  -3   1   0  115.66   13.67
   3  -1   0  160.89   26.18
   3  -1   0  141.21   15.92
  -3  -1   0  110.30   17.48
   3  -1   0  119.21   23.23
  -3  -1   0  157.12   18.73
   3  -1   0  144.31   17.26
  -3  -1   0  133.07   20.38
   3  -1   0  161.85   24.89
   3  -1   0  127.34   22.41
  -3  -1   0  131.76   14.23
   3   1   1  534.69   75.16
  -3   1  -1  604.05   83.28
   3   1   1  702.45   85.19
  -3   1  -1  690.89  100.81
   3   1   1  636.88   53.32
  -3   1  -1  648.57   81.58
   3   1   1  630.42   96.89
   3   1   1  752.58   98.61
   3   1   1  594.84   84.97
  -3   1  -1  751.08  104.85
   3   1   1  652.01   84.05
   3   1   1  568.77   85.05
  -3   1  -1  687.79  101.46
  -3   1  -1  587.56   87.90
   3  -1   1  424.01   79.97
   3  -1   1  741.52   98.09
   3  -1   1  596.21   88.05
   3  -1   1  635.75   97.05
   3  -1   1  613.54  108.40
  -3  -1  -1  729.27   82.76
   3  -1   1  703.64   93.77
  -3  -1  -1  778.41  112.96
   3  -1   1  625.38   91.76
  -3  -1  -1  768.59   99.10
  -3  -1  -1  633.46   82.94
   3  -1   1  613.31   68.35
  -3  -1  -1  661.29   96.41
  -3  -1  -1  673.36   89.77
   3   1   2 1841.64  299.50
  -3   1  -2 1750.66  319.65
  -3   1  -2 1893.48  293.11
  -3   1  -2 1511.56  266.26
  -3   1  -2 2021.52  330.50
  -3   1  -2 1664.62  257.03
   3   1   2 1610.53  246.70
   3   1   2 1643.78  267.94
   3   1   2 1591.59  272.26
   3   1   2 1597.74  263.77
   3   1   2 1664.81  268.05
   3  -1   2 1649.49  220.67
   3  -1   2 1620.54  274.68
  -3  -1  -2 1514.08  247.61
   3  -1   2 1886.57  286.52
   3  -1   2 1338.41  253.15
   3  -1   2 1637.81  273.43
  -3  -1  -2 1709.65  280.01
   3  -1   2 1558.35  271.54
  -3  -1  -2 1848.93  274.15
  -3  -1  -2 1669.21  279.26
   3  -1   2 1615.53  256.53
   3  -1   2 1748.10  268.67
  -3   1  -3  143.52   64.51
   3   1   3  106.45   27.71
  -3   1  -3  116.19   31.89
   3   1   3  112.00   32.07
   3   1   3  111.72   28.37
   3   1   3  121.60   31.26
  -3   1  -3  107.09   35.88
   3  -1   3  107.28   42.36
   3  -1   3  109.66   25.03
   3  -1   3  111.31   33.00
  -3  -1  -3  113.11   34.18
  -3   1  -4  972.62  229.71
   3   1   4  800.83  159.18
   3   1   4  806.07  156.76
   3   1   4  731.21  163.51
  -3   1  -4 1105.09  212.62
   3  -1   4  782.15  169.03
  -3  -1  -4  809.59  171.15
   3  -1   4  824.17  167.67
  -3  -1  -4 1399.46  270.78
   3  -1   4  760.81  144.17
   3   1   5 1048.66  225.43
   3   1   5  870.46  205.61
  -3   1  -5 3444.62  527.70
   3   1   5  897.41  224.99
   3  -1   5 1065.74  238.11
  -3  -1  -5 3519.60  598.78
   3  -1   5  966.25  233.50
  -3   2   6  334.37   46.93
   3   2  -6  552.41   99.53
  -3   2   6  299.43   50.69
  -3   2   6   74.04   47.16
  -3   2   6  342.75   58.70
  -3  -2   6  343.58   51.36
  -3  -2   6  270.12   72.68
   3   2  -5 4715.48  956.54
  -3   2   5 2191.60  524.46
  -3   2   5 2358.44  421.21
  -3   2   5 2199.11  422.09
  -3   2   5 2257.20  417.49
   3  -2  -5 4502.83  915.38
  -3  -2   5 2244.82  420.66
  -3  -2   5 2780.70  678.50
  -3  -2   5 2051.73  362.58
  -3   2   4 1149.65  269.48
  -3   2   4 1026.51  162.14
   3   2  -4 2296.15  405.39
  -3   2   4 1131.23  178.47
  -3   2   4 1063.06  161.89
   3  -2  -4 2334.95  401.15
  -3  -2   4 1139.92  186.16
  -3  -2   4  950.04  139.69
  -3  -2   4  962.73  148.42
  -3  -2   4 1262.24  221.82
  -3   2   3    1.81    4.19
   3   2  -3    2.25    5.67
  -3   2   3    2.02   10.65
   3   2  -3   10.07    5.47
  -3   2   3    2.24    3.53
  -3   2   3    0.51    3.66
   3   2  -3    4.89    6.04
   3   2  -3   -0.16    3.74
   3   2  -3    2.72    3.78
  -3  -2   3    3.96    4.60
  -3  -2   3   -0.02    3.13
  -3  -2   3    1.41    4.58
  -3  -2   3    1.50    2.55
  -3  -2   3    5.47    3.27
   3  -2  -3    3.03    4.73
  -3  -2   3    6.58    5.68
  -3  -2   3    2.43    3.65
  -3  -2   3    7.93    2.64
   3  -2  -3   12.87    9.24
   3  -2  -3    5.90    5.00
   3   2  -2 2006.56  280.74
   3   2  -2 2086.16  305.94
  -3   2   2 2265.43  402.44
  -3   2   2 2799.47  413.17
   3   2  -2 1916.49  289.29
  -3   2   2 1770.46  278.27
  -3   2   2 1667.26  266.48
   3   2  -2 2130.96  323.79
  -3   2   2 2071.05  303.53
  -3   2   2 2094.12  296.44
   3   2  -2 2071.61  329.48
  -3   2   2 1992.31  294.15
  -3  -2   2 2337.00  352.99
  -3  -2   2 1830.64  270.00
  -3  -2   2 3420.95  528.25
   3  -2  -2 1996.41  303.73
  -3  -2   2 1961.20  263.60
   3  -2  -2 2077.12  362.59
  -3  -2   2 1380.99  188.79
  -3  -2   2 2010.33  341.30
  -3  -2   2 2036.42  295.69
  -3  -2   2 1945.15  291.11
  -3  -2   2 1957.62  318.03
   3  -2  -2 2071.78  308.58
  -3   2   1  442.46   42.31
  -3   2   1  342.66   34.43
  -3   2   1  403.94   63.03
  -3   2   1  516.39   56.29
  -3   2   1  483.33   69.23
   3   2  -1  482.88   58.35
   3   2  -1  540.12   70.59
   3   2  -1  509.08   56.90
  -3   2   1  538.67   77.32
  -3   2   1  583.46   69.14
   3   2  -1  526.99   54.74
  -3   2   1  507.41   55.59
   3   2  -1  364.84   54.04
   3   2  -1  564.96   69.90
  -3  -2   1  505.80   73.32
  -3  -2   1  526.71   58.97
  -3  -2   1  567.63   58.85
  -3  -2   1  547.34   64.60
  -3  -2   1  497.88   51.97
  -3  -2   1  272.90   73.58
   3  -2  -1  512.36   59.88
  -3  -2   1  582.25   76.12
   3  -2  -1  544.10   64.46
  -3  -2   1  606.32   80.08
   3  -2  -1  524.84   65.64
   3   2   0 1693.95  240.92
   3   2   0 1420.29  206.76
   3   2   0 1979.28  287.23
  -3   2   0 1408.83  236.50
  -3   2   0 1064.44  176.18
   3   2   0 1787.64  245.65
   3   2   0 1390.40  175.39
  -3   2   0 1793.67  236.63
   3   2   0 1541.48  191.93
  -3   2   0 1888.75  249.30
   3   2   0  950.11  131.24
  -3   2   0 1685.10  245.16
  -3   2   0 1803.05  252.71
   3   2   0 1349.53  192.49
  -3   2   0 1386.04  217.01
  -3  -2   0 1604.20  256.67
   3  -2   0 1987.11  283.81
   3  -2   0 2320.16  313.03
   3  -2   0 1592.94  222.73
  -3  -2   0 1231.75  201.72
  -3  -2   0 1759.46  260.14
   3  -2   0 1655.46  269.00
   3  -2   0 1643.21  240.79
  -3  -2   0 1701.41  228.23
  -3  -2   0 1823.57  241.76
   3   2   1   17.50    5.51
   3   2   1    8.71    6.07
   3   2   1    8.68    7.75
  -3   2  -1    8.13    5.55
  -3   2  -1    0.19    7.17
   3   2   1    9.31    7.64
   3   2   1   12.38    3.93
  -3   2  -1   19.46    5.25
   3   2   1    7.37    5.21
  -3   2  -1    9.35    9.57
  -3   2  -1    3.55    3.51
   3   2   1    6.15    5.04
  -3   2  -1    8.79    2.87
   3   2   1    7.62   14.32
  -3   2  -1    6.76    9.08
  -3   2  -1   -0.37    6.16
   3  -2   1    5.36    8.94
   3  -2   1    7.61    6.34
   3  -2   1    8.29    7.02
  -3  -2  -1    0.22    6.65
   3  -2   1   20.46    3.89
   3  -2   1    4.33    6.30
  -3  -2  -1   11.85    6.22
  -3  -2  -1   33.07    7.49
   3  -2   1   15.20    6.32
   3  -2   1    8.51    7.85
   3  -2   1    7.00    6.61
  -3  -2  -1   25.31    8.69
  -3  -2  -1   -0.07    4.38
   3   2   2 1959.41  337.14
  -3   2  -2 2680.21  467.32
   3   2   2 1770.83  281.20
   3   2   2 1951.17  337.74
   3   2   2 1929.53  315.90
  -3   2  -2 1904.67  325.88
   3   2   2 1994.00  329.64
   3   2   2 1641.48  261.75
  -3   2  -2 2082.63  352.39
  -3   2  -2 1467.88  253.11
  -3   2  -2 1707.37  344.79
  -3   2  -2 1936.66  300.59
  -3  -2  -2 1927.04  351.62
   3  -2   2 2073.08  346.83
  -3  -2  -2 1793.14  298.34
   3  -2   2 1926.44  315.54
  -3  -2  -2 2280.69  344.64
   3  -2   2 1707.97  258.66
   3  -2   2 1996.07  285.11
   3  -2   2 2001.11  326.37
   3  -2   2 1824.67  330.02
   3  -2   2 2186.41  339.39
  -3  -2  -2 2395.70  391.79
   3  -2   2 1951.92  307.76
   3   2   3 3298.37  679.65
  -3   2  -3 3056.61  646.01
   3   2   3 3171.50  642.16
  -3   2  -3 3386.54  684.66
   3   2   3 3552.08  746.29
   3   2   3 3579.21  722.18
  -3   2  -3 3527.80  825.08
   3  -2   3 3250.02  681.94
  -3  -2  -3 4369.25  880.25
   3  -2   3 3303.19  643.45
   3  -2   3 3479.84  741.72
   3   2   4  440.43   95.07
   3   2   4  398.55   83.74
  -3   2  -4  593.34  149.23
  -3   2  -4  462.05  124.66
   3   2   4  399.85  100.13
   3  -2   4  424.51  101.19
  -3  -2  -4  895.00  182.55
  -3  -2  -4  486.34  136.87
   3  -2   4  432.13   99.30
   3   2   5    5.78   19.18
   3   2   5   46.34   26.69
  -3   2  -5   85.35   32.71
   3   2   5   19.09   24.82
  -3  -2  -5  114.83   36.17
   3  -2   5   38.14   29.16
   3  -2   5   29.13   29.19
  -3   3   6 1019.45  152.64
   3   3  -6 1747.52  312.12
  -3   3   6  987.75  143.93
  -3  -3   6  813.06  202.11
  -3  -3   6 1061.60  162.57
  -3   3   5 1018.28  187.51
  -3   3   5  738.09  178.21
   3   3  -5 1744.85  336.65
  -3   3   5  939.44  150.69
  -3   3   5  840.65  143.94
   3  -3  -5 1587.79  312.09
  -3  -3   5  994.34  213.23
  -3  -3   5  865.87  148.28
  -3   3   4  244.21   38.63
  -3   3   4  219.71   36.74
  -3   3   4  255.14   71.23
  -3   3   4  255.26   42.21
   3   3  -4  236.71   46.45
   3  -3  -4  464.14  111.43
  -3  -3   4  236.98   43.74
  -3  -3   4  199.90   34.84
  -3  -3   4  278.35   54.60
  -3  -3   4  199.31   28.56
  -3   3   3  965.66  135.34
   3   3  -3  947.97  132.03
   3   3  -3 1061.67  159.15
  -3   3   3 1074.97  206.07
  -3   3   3 1016.24  145.11
   3   3  -3  997.47  150.85
   3   3  -3  907.46  128.56
  -3   3   3 1032.69  139.23
  -3  -3   3  899.53  131.28
  -3  -3   3  948.76  129.97
   3  -3  -3 1809.67  260.43
  -3  -3   3 1043.35  154.27
  -3  -3   3 1048.75  150.49
  -3  -3   3 1005.11  152.70
  -3  -3   3  879.41  110.49
  -3  -3   3  896.94  125.54
  -3   3   2 1844.92  265.94
   3   3  -2 1792.72  252.05
   3   3  -2 1776.85  264.11
   3   3  -2 1768.58  272.81
  -3   3   2 1085.67  183.39
  -3   3   2 1672.45  256.59
  -3   3   2 2787.64  391.39
  -3   3   2 1851.46  262.17
  -3   3   2 2063.63  340.00
   3   3  -2 1782.63  234.14
   3   3  -2 1851.56  273.63
  -3   3   2 1918.51  264.37
   3  -3  -2 1831.45  266.71
  -3  -3   2 1566.30  214.73
  -3  -3   2 1654.62  234.79
  -3  -3   2 1633.42  244.91
   3  -3  -2 1572.66  283.39
  -3  -3   2 1690.87  249.38
  -3  -3   2 1257.18  202.18
  -3  -3   2 1851.03  263.02
   3  -3  -2 1816.36  266.00
  -3  -3   2 1764.51  270.70
  -3  -3   2 1731.86  254.27
   3   3  -111386.86 2688.39
  -3   3   110383.97 2397.89
   3   3  -111348.19 2738.42
   3   3  -1 9541.18 2267.21
  -3   3   1 8867.01 2161.04
   3   3  -110800.65 2526.59
   3   3  -110113.75 2308.25
  -3   3   1 9350.63 2121.18
  -3   3   1 5876.59 1582.33
  -3   3   110651.83 2475.30
   3   3  -112625.67 3028.10
  -3   3   111876.62 2805.97
  -3   3   1 8741.69 2182.08
   3   3  -1 9897.75 2176.55
   3  -3  -111006.85 2643.85
  -3  -3   110242.58 2462.20
  -3  -3   110030.70 2425.27
  -3  -3   110147.72 2363.98
  -3  -3   111366.38 2629.94
  -3  -3   1 5848.91 1654.13
   3  -3  -110687.40 2532.69
  -3  -3   111146.65 2621.39
  -3  -3   111090.09 2510.58
  -3  -3   111325.09 2654.23
   3   3   0 2407.06  334.28
  -3   3   0 2965.95  444.98
   3   3   0 2950.88  451.44
  -3   3   0 2327.00  380.60
   3   3   0 1935.17  345.77
  -3   3   0 3189.97  489.43
   3   3   0 1947.44  286.46
   3   3   0 1776.54  304.66
  -3   3   0 2282.31  382.49
   3   3   0 2691.67  432.28
  -3   3   0 2443.64  391.96
   3  -3   0 2884.49  480.18
   3  -3   0 1448.20  254.09
   3  -3   0 3736.35  568.46
   3  -3   0 2830.52  436.14
   3  -3   0 2323.63  384.98
  -3  -3   0 3219.30  536.48
  -3  -3   0 2867.93  441.27
  -3  -3   0 2965.30  438.48
  -3  -3   0 3144.30  475.34
  -3  -3   0 2771.23  460.08
  -3   3  -1  474.06   85.39
   3   3   1  675.91   88.45
  -3   3  -1  603.13   84.56
   3   3   1  639.56   73.56
  -3   3  -1  592.10   73.94
  -3   3  -1  620.44  104.94
   3   3   1  552.42   60.55
  -3   3  -1  727.08  102.92
  -3   3  -1  593.00   59.59
   3   3   1  620.83   83.86
   3   3   1  655.50   84.29
   3   3   1  617.26   75.03
  -3   3  -1  368.41   44.76
   3   3   1  539.43   92.83
   3  -3   1  580.40   82.22
   3  -3   1  596.02   79.07
   3  -3   1  511.94   91.35
   3  -3   1  669.24   75.19
  -3  -3  -1  702.01   93.14
   3  -3   1  522.22   73.36
  -3  -3  -1  730.93   89.54
  -3  -3  -1  499.76   86.91
   3  -3   1  626.36   76.99
  -3  -3  -1  651.46   79.62
  -3  -3  -1  346.39   49.78
   3  -3   1  623.20   80.58
  -3   3  -2   98.30   15.05
   3   3   2  101.75   19.34
  -3   3  -2  140.10   23.60
  -3   3  -2  134.74   34.72
   3   3   2   93.13   17.84
   3   3   2  109.65   23.68
   3   3   2   64.97   14.23
  -3   3  -2  101.72   23.29
   3   3   2  128.50   25.44
   3   3   2   55.86   12.23
  -3   3  -2   88.49   14.12
  -3   3  -2   65.88   15.62
  -3   3  -2  100.73   35.50
   3  -3   2  185.95   31.76
   3  -3   2  104.05   16.21
   3  -3   2  120.98   24.37
  -3  -3  -2   90.73   17.67
   3  -3   2  129.80   15.40
   3  -3   2  131.54   20.79
  -3  -3  -2  108.96   18.73
   3  -3   2  130.24   21.94
  -3  -3  -2  107.09   34.79
   3  -3   2   92.06   19.15
  -3  -3  -2  138.55   29.99
   3   3   3 1296.06  228.12
  -3   3  -3 1417.62  257.06
   3   3   3 1551.91  288.02
  -3   3  -3 1369.86  306.23
   3   3   3 1414.51  255.29
   3   3   3 1551.61  273.96
  -3   3  -3 1299.61  237.81
   3  -3   3 1403.86  293.73
   3  -3   3 1478.51  267.58
  -3  -3  -3 1918.66  332.38
   3   3   4 1006.33  200.48
  -3   3  -4 1235.49  277.67
   3   3   4 1046.90  231.85
  -3   3  -4 1138.64  225.64
   3   3   4 1281.19  250.51
  -3   3  -4 1549.20  287.85
   3   3   4 1303.28  250.30
   3  -3   4 1285.28  255.99
   3  -3   4 1172.76  242.35
  -3  -3  -4 1662.71  325.94
  -3   3  -5  754.80  152.72
   3   3   5  244.69   69.19
   3   3   5  291.08   86.28
   3  -3   5  260.23   85.12
  -3  -3  -5  715.73  123.04
   3  -3   5  321.17   92.21
   3   4  -6  657.98  120.24
  -3   4   6  415.76   60.21
  -3   4   6  447.45   65.61
  -3  -4   6  435.77   67.86
  -3  -4   6  330.93  106.56
  -3   4   5   21.04   10.60
  -3   4   5   13.61   17.74
   3   4  -5   19.28   26.67
  -3   4   5    5.96   16.50
  -3  -4   5   11.51   10.75
  -3  -4   5   16.69   17.79
   3   4  -4   50.51   21.68
  -3   4   4   52.46   15.26
  -3   4   4   60.24   16.30
  -3   4   4   57.13   26.87
  -3   4   4   56.91   18.00
  -3  -4   4   46.78   15.76
  -3  -4   4   56.53   18.52
  -3  -4   4   56.60   22.93
  -3   4   3 8542.08 2230.42
  -3   4   3 8408.98 1932.72
  -3   4   3 8305.29 1937.30
  -3   4   3 7744.45 1827.99
   3   4  -3 7886.63 1923.94
  -3  -4   3 8287.05 1962.76
  -3  -4   3 8348.26 1957.05
  -3  -4   3 6995.16 1666.42
   3  -4  -312323.15 3027.09
  -3  -4   3 7555.51 1789.57
  -3  -4   3 7074.59 1706.80
  -3   4   2  187.83   23.79
  -3   4   2  186.47   23.97
  -3   4   2  167.19   23.32
  -3   4   2  181.55   25.97
  -3   4   2  200.63   34.21
  -3   4   2  175.35   23.07
   3   4  -2  170.09   24.93
   3   4  -2  172.15   20.16
   3   4  -2  183.61   29.06
  -3   4   2  119.38   15.94
  -3  -4   2  188.19   23.51
  -3  -4   2  133.45   43.16
   3  -4  -2  172.72   25.31
   3  -4  -2  169.48   37.08
  -3  -4   2  170.55   21.43
  -3  -4   2  161.75   20.84
  -3  -4   2  179.06   29.19
  -3  -4   2  200.95   27.41
  -3  -4   2  238.72   26.45
  -3  -4   2  185.51   25.88
   3   4  -1  121.60   13.82
   3   4  -1  116.90   15.95
  -3   4   1   94.97   15.10
  -3   4   1   83.56   14.69
   3   4  -1   97.80   16.85
  -3   4   1  166.21   18.94
  -3   4   1  120.98   18.69
  -3   4   1   70.14   12.73
  -3   4   1   84.76   11.59
  -3   4   1   80.09    9.95
   3   4  -1   92.16   18.13
   3   4  -1  107.07   16.03
   3   4  -1   72.43    5.40
  -3  -4   1   62.46   28.15
  -3  -4   1   98.01   10.49
  -3  -4   1   81.72   15.66
   3  -4  -1   99.19   19.82
  -3  -4   1  141.47   14.80
   3  -4  -1   90.37   15.77
  -3  -4   1   94.53   14.67
  -3  -4   1   94.65   14.72
  -3  -4   1   87.55   13.14
  -3  -4   1  101.72   16.62
   3   4   0  450.15   54.35
  -3   4   0  412.22   54.95
   3   4   0  418.17   61.89
   3   4   0  388.33   55.42
   3   4   0  430.25   38.82
  -3   4   0  389.74   52.81
  -3   4   0  460.83   55.71
  -3   4   0  378.28   53.70
   3   4   0  444.50   56.20
  -3   4   0  481.40   67.64
  -3  -4   0  443.06   62.41
   3  -4   0  391.93   46.92
   3  -4   0  466.04   55.15
   3  -4   0  446.19   68.75
  -3  -4   0  427.26   57.35
  -3  -4   0  468.37   55.32
   3  -4   0  278.25   45.99
  -3  -4   0  531.27   70.99
  -3  -4   0  546.78   56.74
   3   4   1 7128.11 1599.64
  -3   4  -1 7813.84 1619.35
   3   4   1 8980.06 2023.69
  -3   4  -1 8041.59 1784.84
  -3   4  -1 6718.40 1627.26
   3   4   1 8417.64 1897.44
   3   4   1 9738.05 2305.50
   3   4   1 7937.78 1712.09
  -3   4  -1 6205.89 1322.33
  -3   4  -1 7374.98 1781.70
   3   4   1 6278.97 1343.47
   3   4   1 7865.07 1699.69
  -3   4  -1 7963.09 1826.02
   3  -4   1 8890.14 1927.77
   3  -4   1 8501.08 1915.17
   3  -4   1 5158.68 1237.74
  -3  -4  -1 7361.86 1823.59
   3  -4   1 8661.03 1922.70
   3  -4   1 6799.55 1536.91
  -3  -4  -1 8660.79 1901.85
   3  -4   1 9461.87 2035.72
  -3  -4  -1 6495.14 1436.10
  -3  -4  -1 9408.77 2118.66
   3   4   2   29.36   13.54
  -3   4  -2   31.17   13.27
  -3   4  -2   21.46    8.24
   3   4   2   28.02    8.21
  -3   4  -2   25.76    7.79
   3   4   2   27.59   12.84
   3   4   2   12.89    5.70
  -3   4  -2   22.57   16.76
  -3   4  -2   31.24    7.01
   3   4   2   27.95    9.41
  -3  -4  -2   36.15    9.73
   3  -4   2   40.08   12.63
   3  -4   2   29.67    7.19
  -3  -4  -2   35.96   20.43
   3  -4   2   11.40    7.74
  -3  -4  -2   41.78   18.40
   3  -4   2   23.87   16.08
   3  -4   2   27.00    9.56
   3  -4   2   32.01   10.82
   3  -4   2   38.05    7.82
   3   4   3   26.61   16.46
   3   4   3   23.86   13.16
  -3   4  -3   35.52   20.81
   3   4   3   33.66   14.89
  -3   4  -3   18.77   14.48
  -3   4  -3    6.18   11.80
   3  -4   3   20.21   23.71
   3  -4   3    3.66    7.99
  -3  -4  -3  101.19   20.83
   3  -4   3   16.90   14.99
  -3   4  -4  861.38  162.33
  -3   4  -4  709.50  165.23
   3   4   4  764.84  151.09
  -3   4  -4  690.30  140.17
   3   4   4  561.91  140.17
   3   4   4  728.40  148.05
  -3  -4  -4 1067.68  206.98
   3  -4   4  650.70  143.00
   3  -4   4  737.69  155.73
   3   4   5  349.65   72.59
   3   4   5  328.49   95.97
  -3   4  -5  587.16  102.98
   3  -4   5  294.89   87.88
  -3  -4  -5  763.99  124.83
   3  -4   5  346.57   99.64
  -3   5   6   68.10   16.77
   3   5  -6   79.36   31.87
  -3   5   6   56.60   14.91
  -3  -5   6   61.36   17.42
  -3  -5   6    7.44   32.13
  -3   5   5  485.61  151.71
   3   5  -5 1042.25  194.14
  -3   5   5  948.14  167.92
  -3   5   5 1081.47  164.26
  -3  -5   5 1146.11  210.54
  -3  -5   5  977.44  154.45
   3   5  -4 3188.53  658.86
  -3   5   4 3223.59  615.29
  -3   5   4 2777.91  626.60
  -3   5   4 3236.47  604.96
  -3  -5   4 2796.77  548.13
  -3  -5   4 3315.33  663.79
  -3  -5   4 3234.07  621.77
  -3   5   3    2.48    5.39
  -3   5   3    3.40    8.69
   3   5  -3    0.70    7.65
  -3   5   3    1.55    5.39
  -3   5   3    3.78    5.47
  -3  -5   3    6.76    5.98
  -3  -5   3   17.71    4.93
  -3  -5   3    4.24    5.34
  -3  -5   3    4.59    6.01
  -3  -5   3    1.38    4.06
  -3   5   2 5373.11  977.95
   3   5  -2 4533.38  803.05
   3   5  -2 2463.27  475.50
  -3   5   2 4480.09  839.62
   3   5  -2 4885.17  911.57
  -3   5   2 5186.05 1022.11
  -3   5   2 4429.44  925.18
   3   5  -2 5564.74 1074.11
  -3   5   2 4981.91  913.68
   3   5  -2 4431.63  790.90
  -3  -5   2 4604.97  839.17
  -3  -5   2 4159.43  784.50
  -3  -5   2 4804.37  916.45
  -3  -5   2 3655.95  884.56
  -3  -5   2 4721.47  889.54
  -3  -5   2 4969.56  902.66
  -3  -5   2 4973.67  967.82
   3   5  -1 3293.77  573.33
   3   5  -1 1556.73  291.80
  -3   5   1 3342.10  564.78
   3   5  -1 2930.93  460.99
  -3   5   1 2716.69  454.95
  -3   5   1 2554.99  417.45
   3   5  -1 3000.69  470.01
  -3   5   1 2993.96  495.86
  -3   5   1 2459.95  394.72
  -3   5   1 2883.43  470.75
   3   5  -1 3089.70  509.11
  -3   5   1 2890.17  450.42
  -3  -5   1 2997.06  502.08
  -3  -5   1 2902.67  469.01
  -3  -5   1 1927.26  442.23
   3  -5  -1 3343.20  576.51
  -3  -5   1 2860.79  482.67
  -3  -5   1 3042.06  491.73
  -3  -5   1 2813.88  422.37
  -3  -5   1 2924.40  474.05
   3   5   0 3795.52  666.88
  -3   5   0 4321.49  859.90
   3   5   0 3587.90  638.34
  -3   5   0 3940.06  689.97
   3   5   0 3677.32  707.09
   3   5   0 3533.59  606.38
  -3   5   0 3641.05  658.84
  -3   5   0 3168.76  589.89
  -3   5   0 3317.92  613.01
  -3  -5   0 3736.50  712.91
   3  -5   0 4063.62  705.66
   3  -5   0 2971.62  512.91
  -3  -5   0 3701.23  687.15
   3  -5   0 3927.00  757.38
   3  -5   0 3082.12  577.79
  -3  -5   0 3411.14  614.39
  -3  -5   0 4101.85  706.36
  -3   5  -1  160.56   22.70
   3   5   1  114.82   13.88
  -3   5  -1  121.80   24.29
  -3   5  -1  120.71   31.09
   3   5   1  170.28   34.30
   3   5   1  137.07   21.38
   3   5   1   91.04   12.75
  -3   5  -1  111.57   26.30
   3   5   1   91.80   10.49
   3   5   1  131.30   17.09
   3   5   1  137.59   25.10
   3  -5   1   75.49   24.68
   3  -5   1  148.74   22.76
   3  -5   1  138.96   19.16
  -3  -5  -1  138.33   24.55
   3  -5   1  124.30   20.90
  -3  -5  -1  115.32   15.67
  -3  -5  -1  134.29   18.22
  -3  -5  -1  132.49   32.58
   3  -5   1  140.98   21.05
  -3   5  -2 3473.96  653.42
   3   5   2 3713.79  754.81
  -3   5  -2 3349.72  731.08
  -3   5  -2 3751.54  758.34
   3   5   2 3729.66  790.86
   3   5   2 3827.34  751.38
   3   5   2 3255.35  627.12
   3  -5   2 3608.09  674.73
   3  -5   2 4124.64  745.13
   3  -5   2 3752.32  736.71
   3  -5   2 3334.54  713.90
   3   5   3 1209.85  217.68
  -3   5  -3 1074.95  218.92
   3   5   3 1201.60  203.89
  -3   5  -3 1127.64  202.96
   3   5   3  976.63  178.09
   3  -5   3 1126.82  225.82
   3  -5   3  626.62  118.85
  -3  -5  -3 1891.49  305.30
   3  -5   3 1173.25  201.09
   3   5   4  170.38   50.87
  -3   5  -4  161.30   48.65
   3   5   4  188.20   51.72
   3   5   4  107.46   67.47
  -3   5  -4  169.84   57.19
   3  -5   4  165.58   74.92
   3  -5   4  158.16   48.32
  -3  -5  -4  229.74   62.23
  -3   5  -5    0.14    4.80
   3   5   5    3.85    8.60
   3   5   5   -0.10    4.16
   3  -5   5    1.16    8.89
   3  -5   5   -1.45    6.98
  -3  -5  -5    4.00    7.26
  -3   6   5   31.20   13.15
  -3   6   5   39.24   22.57
   3   6  -5   39.64   32.75
  -3  -6   5   32.41   21.76
  -3  -6   5   28.15   13.58
  -3  -6   5   27.70   13.57
  -3   6   4 1819.26  303.67
   3   6  -4 1890.83  359.74
  -3   6   4 1270.17  300.66
  -3   6   4 1787.22  305.16
  -3  -6   4 1565.47  267.91
  -3  -6   4 1905.89  367.71
  -3  -6   4 1631.12  287.38
  -3   6   3  486.78   68.65
  -3   6   3  538.12   71.39
   3   6  -3  541.24   89.37
  -3   6   3  492.15   88.75
  -3  -6   3  273.22   46.02
  -3  -6   3  528.05   73.48
  -3  -6   3  420.74   68.38
  -3   6   2 9115.07 2117.48
  -3   6   2 9018.23 2259.89
  -3   6   2 8995.64 2091.19
   3   6  -2 9286.62 2270.31
   3   6  -2 8154.84 1876.08
   3   6  -2 8596.11 2032.09
  -3   6   2 7953.17 1901.74
  -3  -6   2 8787.14 2032.23
  -3  -6   2 7043.19 2054.84
  -3  -6   2 7722.61 1840.13
  -3  -6   2 8797.99 2154.16
  -3  -6   2 8458.97 2058.62
  -3  -6   2 8979.37 2153.32
  -3  -6   2 8511.54 1963.64
  -3   6   1   51.95    9.62
  -3   6   1   63.94   15.93
  -3   6   1   55.09   10.28
   3   6  -1   54.86    8.79
   3   6  -1   51.28    9.58
   3   6  -1   62.74   21.53
  -3   6   1   66.87   19.64
  -3   6   1   63.57   13.95
   3   6  -1   54.44    9.24
   3   6  -1   62.20   10.90
  -3   6   1   60.14    9.36
  -3  -6   1   54.46   10.68
  -3  -6   1   64.32   12.22
  -3  -6   1   62.11   14.89
  -3  -6   1   59.51   12.50
   3  -6  -1   64.07   19.58
  -3  -6   1   56.12    7.55
   3  -6  -1   33.00    8.21
  -3  -6   1   63.30   13.77
  -3  -6   1   27.23   28.27
   3   6   0 6904.81 1486.15
  -3   6   0 6245.37 1396.39
   3   6   0 6937.58 1494.09
  -3   6   0 6445.74 1427.43
  -3   6   0 6806.31 1501.12
   3   6   0 5916.75 1207.13
  -3   6   0 7347.06 1566.80
   3   6   0 6853.58 1585.76
  -3   6   0 7164.46 1705.15
   3   6   0 4886.46 1064.27
  -3  -6   0 7531.25 1590.51
  -3  -6   0 7159.27 1606.58
   3  -6   0 7740.94 1681.90
   3  -6   0 7668.44 1623.25
   3  -6   0 7242.43 1688.16
  -3  -6   0 6186.38 1344.68
  -3  -6   0 6626.49 1506.38
   3   6   1  847.70  120.01
  -3   6  -1  889.80  127.65
  -3   6  -1  813.43  133.37
   3   6   1  974.54  147.89
   3   6   1  915.62  141.08
  -3   6  -1  858.89  132.34
  -3   6  -1  832.75  148.48
  -3  -6  -1  821.01  108.25
   3  -6   1  919.46  135.79
   3  -6   1  896.54  120.39
  -3  -6  -1  868.60  147.66
  -3  -6  -1  825.11  111.42
  -3  -6  -1  863.56  131.14
   3  -6   1  973.14  135.54
   3  -6   1  541.97   94.34
  -3   6  -2 2655.91  479.85
   3   6   2 2943.70  541.16
  -3   6  -2 2797.57  568.31
   3   6   2 2566.24  550.64
  -3   6  -2 2408.76  507.16
   3   6   2 2802.08  545.81
   3  -6   2 2768.70  513.81
   3  -6   2 2680.61  474.20
   3  -6   2 2505.10  507.98
   3   6   3    9.29    9.81
  -3   6  -3    2.88   11.11
  -3   6  -3    1.46    9.41
   3   6   3    2.68    7.79
   3   6   3    0.22    8.20
   3  -6   3    1.27    5.68
   3  -6   3    1.21    8.13
   3  -6   3   12.61   12.75
  -3  -6  -3    2.72   10.85
  -3   6  -4  830.26  156.67
   3   6   4  341.19  103.01
   3   6   4  795.63  149.10
  -3   6  -4  749.81  160.11
   3   6   4  807.01  152.64
   3  -6   4  741.60  141.28
  -3  -6  -4 1032.70  191.18
   3  -6   4  643.20  129.85
   3   6   5   56.90   13.54
   3   6   5   68.02   33.12
  -3  -6  -5  127.01   29.44
   3  -6   5   97.49   36.67
   3   7  -5 2000.24  392.13
  -3   7   5 1957.75  333.73
  -3   7   5 2013.94  344.40
  -3  -7   5 1917.94  330.47
  -3  -7   5 1753.52  316.53
  -3  -7   5 2179.03  419.24
  -3   7   4 1019.88  162.11
   3   7  -4  959.78  205.79
  -3   7   4 1072.06  184.59
  -3   7   4  556.09  157.73
  -3  -7   4  873.32  139.00
  -3  -7   4 1096.60  200.66
  -3  -7   4  947.27  158.44
  -3   7   3    5.85    6.09
  -3   7   3    4.81    9.31
   3   7  -3    6.87    9.20
  -3   7   3    5.92   10.83
  -3  -7   3    6.73    5.01
  -3  -7   3    5.42    6.56
  -3  -7   3    1.54    7.19
  -3  -7   3    3.57    5.03
  -3   7   2  453.54   66.24
   3   7  -2  382.14   53.33
   3   7  -2  445.57   78.34
  -3   7   2  413.44   79.42
   3   7  -2  387.03   51.26
  -3   7   2  378.79   55.61
  -3   7   2  427.59   60.02
  -3  -7   2  404.13   52.80
  -3  -7   2  383.76   56.12
  -3  -7   2  377.78   48.89
  -3  -7   2  407.09   64.85
  -3   7   1 6251.49 1395.97
  -3   7   1 7623.21 1738.83
   3   7  -110202.22 2509.61
  -3   7   1 7354.68 1782.13
  -3   7   1 6715.23 1530.71
  -3   7   1 7327.03 1603.12
   3   7  -1 8174.05 1802.75
  -3   7   1 7017.63 1740.99
  -3  -7   1 7499.28 1582.41
  -3  -7   1 8070.86 1856.23
  -3  -7   1 5018.21 1471.11
  -3  -7   1 8109.62 1851.49
  -3  -7   1 7993.68 1781.70
  -3   7   0  202.19   51.24
  -3   7   0  228.13   34.83
   3   7   0  214.68   28.20
  -3   7   0  209.62   35.86
   3   7   0  323.33   56.46
  -3   7   0  232.61   37.97
   3   7   0  246.62   35.46
   3   7   0  165.66   21.53
  -3  -7   0  227.50   38.29
   3  -7   0  255.35   35.47
  -3  -7   0  243.19   42.78
  -3  -7   0  220.03   42.83
  -3  -7   0  266.64   34.78
   3  -7   0  315.51   41.04
   3  -7   0  255.72   55.10
   3  -7   0  191.14   33.68
   3   7   1   13.77   12.16
  -3   7  -1   45.25   10.42
   3   7   1   19.05   12.04
  -3   7  -1   46.42   13.03
   3   7   1   18.60    8.15
  -3   7  -1   12.86   15.49
  -3   7  -1   15.06   10.87
  -3  -7  -1   16.67    6.92
   3  -7   1   10.88    9.93
   3  -7   1   12.09    7.62
   3  -7   1   14.77   10.63
   3  -7   1   12.03    8.12
   3   7   2  914.26  193.21
  -3   7  -2  939.93  169.36
  -3   7  -2  900.82  146.91
   3   7   2 1001.57  161.84
   3   7   2  975.35  174.92
  -3   7  -2  874.69  171.44
   3  -7   2  965.55  172.44
   3  -7   2  870.20  159.36
   3   7   3 2625.56  506.47
  -3   7  -3 2425.78  521.50
  -3   7  -3 2659.31  532.76
   3   7   3 2701.37  541.66
   3  -7   3 1502.94  323.49
  -3  -7  -3 3838.18  715.86
   3  -7   3 2595.28  495.29
   3  -7   3 2401.92  468.98
   3   7   4  112.46   38.64
   3   7   4  117.02   39.49
  -3   7  -4  110.93   43.38
  -3   7  -4  122.49   41.92
  -3  -7  -4  141.84   42.60
   3  -7   4   92.56   44.96
   3  -7   4  106.98   36.53
   3  -7   4   98.41   26.33
   3   7   5    2.50    8.50
   3  -7   5    2.03    8.58
  -3  -7  -5    2.87    7.10
   3   8  -5  383.13   83.02
  -3   8   5  393.15   63.18
  -3   8   5  372.99   58.22
  -3  -8   5  397.84   77.38
  -3  -8   5  353.08   56.55
  -3  -8   5  338.05   60.93
  -3   8   4 1243.43  212.40
   3   8  -4 1161.40  222.81
  -3   8   4  640.52  152.15
  -3   8   4 1101.71  176.47
  -3  -8   4 1037.64  162.00
  -3  -8   4 1128.79  190.13
  -3  -8   4 1147.20  191.08
   3   8  -3 4975.06 1070.94
  -3   8   3 4681.88  919.63
  -3   8   3 4840.14  935.80
  -3   8   3 2836.78  723.41
  -3  -8   3 4540.11  898.68
  -3  -8   3 4256.70  822.80
  -3  -8   3 3212.32  665.37
  -3  -8   3 4718.38  952.90
  -3   8   2  207.21   42.76
   3   8  -2  220.82   53.66
  -3   8   2  160.68   48.75
  -3   8   2  205.94   35.95
   3   8  -2  194.28   29.30
  -3   8   2  178.52   26.05
  -3  -8   2  195.86   28.19
  -3  -8   2  195.15   33.04
  -3  -8   2  190.41   35.08
  -3   8   1    0.37    5.80
   3   8  -1    5.02    4.75
  -3   8   1    3.63   15.53
   3   8  -1   -0.99   13.35
  -3   8   1    0.27    7.00
  -3   8   1    5.98    5.01
  -3  -8   1    1.51    6.37
  -3  -8   1   -0.50    5.18
  -3  -8   1   10.66    5.00
  -3  -8   1    1.57    5.42
   3   8   0  421.45   59.89
  -3   8   0  376.22   79.30
  -3   8   0  386.17   57.58
  -3   8   0  401.20   63.90
   3   8   0  458.30   80.36
  -3   8   0  428.83   66.41
  -3  -8   0  363.91   51.24
   3  -8   0  430.84   58.41
  -3  -8   0  302.27   49.23
   3   8   1 3804.33  740.43
   3   8   1 4391.04  890.55
   3   8   1 4512.92  902.52
  -3   8  -1 3833.46  781.31
  -3   8  -1 3714.45  828.31
  -3   8  -1 4004.19  800.40
  -3   8  -1 3776.68  790.98
   3  -8   1 3895.89  735.40
   3  -8   1 2624.56  609.08
  -3  -8  -1 4315.46  800.41
   3   8   2 1171.76  201.10
  -3   8  -2 1194.14  201.70
  -3   8  -2 1083.74  199.82
   3   8   2 1102.05  173.62
  -3   8  -2 1092.96  176.06
   3   8   2 1038.13  219.52
   3  -8   2  469.33  114.10
   3  -8   2 1029.28  175.33
   3  -8   2 1108.07  169.57
   3   8   3  262.64   64.56
   3   8   3  277.19   57.46
  -3   8  -3  242.17   68.79
  -3   8  -3  268.17   65.74
   3  -8   3  253.77   53.61
   3  -8   3  216.67   48.11
  -3  -8  -3  353.71   70.94
   3  -8   3  157.65   44.69
   3   8   4   95.24   34.35
  -3   8  -4   93.53   38.40
   3   8   4   96.00   32.28
  -3   8  -4   88.22   36.53
   3  -8   4   96.70   24.54
   3  -8   4   83.34   30.13
   3  -8   4   53.43   23.21
  -3  -8  -4  101.44   33.02
   3   9  -5   48.07   27.13
  -3   9   5   49.86   18.59
  -3   9   5   51.88   14.41
  -3  -9   5   47.01   20.83
  -3  -9   5   45.46   26.30
  -3   9   4  295.68   55.41
  -3   9   4  290.30   47.97
   3   9  -4  341.52   81.62
  -3  -9   4  316.07   75.29
  -3  -9   4  269.74   45.91
  -3  -9   4  292.70   60.36
   3   9  -3 1218.22  230.99
  -3   9   3  689.83  153.66
  -3   9   3  971.06  144.10
  -3   9   3 1082.42  173.93
  -3  -9   3  771.77  129.34
  -3  -9   3 1084.53  165.35
  -3  -9   3 1049.92  176.94
  -3   9   2 1058.30  169.17
  -3   9   2  799.62  174.45
   3   9  -2 1105.33  166.37
  -3   9   2 1094.35  194.50
  -3   9   2 1009.94  147.95
   3   9  -2 1361.76  264.66
  -3  -9   2 1164.28  185.41
  -3  -9   2 1123.02  163.25
  -3  -9   2 1099.03  172.02
  -3   9   1  522.80   84.11
  -3   9   1  502.91   80.02
  -3   9   1  473.85   80.45
   3   9  -1  596.06   84.66
  -3   9   1  427.94   95.84
   3   9  -1  493.32  121.41
  -3  -9   1  519.60   76.75
   3   9   0 1157.37  171.84
  -3   9   0 1084.25  174.22
   3   9   0 1088.63  194.05
  -3   9   0  937.57  183.17
  -3   9   0  891.42  142.56
  -3   9   0  990.24  166.90
   3  -9   0  831.51  125.60
  -3  -9   0 1166.82  169.31
  -3  -9   0  844.77  129.44
  -3   9  -1  539.53   91.95
  -3   9  -1  467.49  107.39
   3   9   1  581.13  127.24
   3   9   1  607.01  104.37
  -3   9  -1  528.91   91.76
  -3   9  -1  484.86   96.34
   3  -9   1  391.35   83.83
  -3  -9  -1  557.98   80.22
  -3   9  -2  408.38   82.46
  -3   9  -2  421.66   93.34
   3   9   2  442.91   86.91
   3   9   2  394.00   66.75
  -3   9  -2  376.74   86.39
   3   9   2  404.62  102.88
   3  -9   2  207.68   62.97
   3  -9   2  417.24   80.52
  -3   9  -3   14.56   17.95
   3   9   3   15.52   15.87
   3   9   3    6.39   13.10
  -3   9  -3   20.14   16.46
  -3  -9  -3   13.21   14.97
   3  -9   3   15.79   12.68
   3  -9   3    8.95   11.07
   3   9   4  267.56   68.55
  -3   9  -4  310.70   79.58
   3   9   4  321.34   65.85
  -3   9  -4  327.15   81.83
   3  -9   4  356.58   62.46
   3  -9   4  305.00   64.84
  -3  10   5 1372.88  205.74
   3  10  -5 1493.55  311.22
  -3  10   5 1178.29  225.61
  -3 -10   5 1446.28  237.96
  -3 -10   5 1433.41  246.39
  -3  10   4    5.52   10.43
  -3  10   4   10.58    7.06
   3  10  -4   -0.44   16.84
  -3 -10   4    5.32    9.22
  -3 -10   4    5.12   10.11
  -3  10   3  349.52   52.79
  -3  10   3  266.12   64.35
   3  10  -3  445.51  109.48
  -3  10   3  367.03   74.72
  -3 -10   3  387.00   60.77
  -3 -10   3  295.79   52.77
  -3 -10   3  410.80   72.83
  -3  10   2  898.15  193.24
  -3  10   2 1000.78  170.64
   3  10  -2 1168.97  180.83
  -3  10   2  825.51  180.36
   3  10  -2 1367.22  315.95
  -3 -10   2 1188.81  195.15
  -3 -10   2 1060.56  176.95
  -3 -10   2 1971.26  308.70
   3  10  -1   14.30   19.79
  -3  10   1   10.96    9.10
  -3  10   1   16.04   12.45
   3  10  -1   15.28   10.56
  -3  10   1   19.43   15.80
  -3  10   1   12.75   11.91
  -3 -10   1   18.05    9.52
  -3 -10   1   24.73   11.54
  -3  10   0  410.34   70.26
   3  10   0  398.83   62.83
   3  10   0  418.34   78.77
  -3  10   0  336.99   54.18
  -3  10   0  364.65   66.70
  -3  10   0  355.15   76.92
  -3 -10   0  443.82   63.49
   3 -10   0  196.25   36.08
  -3  10  -1  449.86   85.69
   3  10   1  482.33   97.16
  -3  10  -1  481.79   91.07
  -3  10  -1  444.12   94.44
   3  10   1  538.62   99.11
  -3  10  -1  404.75  102.28
  -3 -10  -1  514.27   79.23
   3  10   2    3.49   10.99
   3  10   2    8.15   15.04
  -3  10  -2    5.96   10.69
  -3  10  -2    7.11   12.13
   3  10   2    2.95    7.25
  -3  10  -2    5.71    8.87
   3 -10   2    0.61   11.25
  -3  10  -3 1663.86  362.25
   3  10   3 1760.79  354.57
   3  10   3 1676.52  319.33
  -3  10  -3 1749.23  356.74
  -3 -10  -3 2391.43  430.98
   3 -10   3 1490.83  311.30
  -3  10  -4  234.76   63.83
   3  10   4  154.61   49.23
   3  10   4  247.39   49.42
  -3  10  -4  267.08   95.66
   3 -10   4  335.61   55.47
  -3  11   4  731.84  108.19
  -3  11   4  581.62  129.22
   3  11  -4  936.27  217.11
  -3 -11   4  821.93  140.97
  -3 -11   4  851.30  133.81
   3  11  -3   80.02   43.59
  -3  11   3   28.48   23.94
  -3  11   3   25.52   15.82
  -3 -11   3   96.01   28.25
  -3 -11   3   43.74   19.93
  -3 -11   3   35.21   14.64
   3  11  -2   43.22   37.22
  -3  11   2   37.42   23.61
   3  11  -2   45.24   15.37
  -3  11   2   24.88   19.35
  -3  11   2   32.53   16.51
  -3 -11   2   40.88   16.72
  -3 -11   2   35.93   17.74
  -3 -11   2   47.30   18.70
  -3  11   1    2.49    8.31
  -3  11   1    0.98    8.03
   3  11  -1    2.18   11.13
  -3  11   1    0.41    9.42
   3  11  -1    5.84   11.83
  -3 -11   1    6.73    6.22
  -3 -11   1    3.38    7.73
  -3  11   0  122.25   39.11
   3  11   0  154.08   43.14
   3  11   0  159.99   35.70
  -3  11   0  113.45   43.86
  -3  11   0  144.66   38.61
  -3 -11   0  163.42   34.49
  -3  11  -1   56.26   25.18
  -3  11  -1   46.38   21.35
  -3  11  -1   62.81   42.98
   3  11   1   56.87   26.81
   3  11   1   58.18   27.19
  -3  11  -1   59.06   32.27
  -3 -11  -1   65.79   19.75
  -3  11  -2  471.18  105.01
   3  11   2  501.59  127.83
  -3  11  -2  472.96   91.39
   3  11   2  447.85  117.70
  -3  11  -2  440.67   92.97
   3 -11   2  318.07   92.60
   3  11   3    6.79    7.68
   3  11   3    1.30    6.20
  -3  11  -3   -3.39   15.33
  -3  11  -3    3.57    8.84
   3 -11   3   -2.69    7.96
  -3 -11  -3   -0.42    7.44
  -3  11  -4 1635.78  279.59
   3  11   4  703.15  133.94
   3  11   4 1273.75  203.57
  -3  11  -4 1476.65  250.38
   3 -11   4 2091.37  303.76
   3  12  -4  480.99  118.67
  -3 -12   4  552.12   88.67
  -3 -12   4  608.04   99.66
   3  12  -3  254.96   85.59
  -3 -12   3  297.48   57.82
  -3 -12   3  199.95   42.34
  -3 -12   3  382.62   67.99
  -3  12   2  130.87   30.82
  -3  12   2  100.57   48.51
   3  12  -2  157.73   41.77
   3  12  -2  139.11   56.35
  -3 -12   2  169.66   37.68
  -3 -12   2  175.89   37.57
   3  12  -1    6.94    8.89
  -3  12   1    0.38   12.71
   3  12  -1    0.45   15.35
  -3  12   1    4.59   11.34
  -3  12   1    8.06   16.61
  -3 -12   1    3.81    8.20
  -3 -12   1   25.41   10.55
   3  12   0  169.58   49.48
  -3  12   0  182.00   47.63
  -3  12   0  146.56   48.86
  -3  12   0  167.45   49.22
   3  12   0  196.43   44.19
  -3 -12   0  190.56   41.39
  -3  12  -1  415.57   87.79
   3  12   1  432.18   94.25
   3  12   1  482.88  101.84
  -3  12  -1  389.33   78.20
  -3  12  -1  404.94   97.93
   3 -12   1  474.52  126.57
  -3 -12  -1  543.33   89.03
   3  12   2  448.94   93.62
  -3  12  -2  432.09   89.58
   3  12   2  432.40  111.54
  -3  12  -2  454.64   92.68
  -3  12  -2  442.83  102.70
   3 -12   2  361.66  104.21
  -3  12  -3  480.61  107.42
   3  12   3  455.30   91.94
  -3  12  -3  477.26  112.23
  -3 -12  -3  680.08  117.54
   3 -12   3  630.11  120.64
   3  13  -4  307.59   65.36
  -3 -13   4  451.53   73.87
   3  13  -3  682.83  144.09
  -3 -13   3  833.44  132.30
  -3 -13   3  556.41   95.10
   3  13  -2  514.54   80.45
  -3  13   2  357.87   72.53
  -3  13   2  482.98   79.68
   3  13  -2  501.88  112.55
  -3 -13   2  550.68   91.74
  -3 -13   2  549.05   90.81
   3  13  -1   34.49   13.67
  -3  13   1    8.45   14.40
  -3  13   1    4.26   19.70
  -3  13   1    8.16   14.46
   3  13  -1   77.66   23.43
  -3 -13   1   16.63   14.60
  -3  13   0  284.84   72.15
   3  13   0  379.04   73.46
  -3  13   0  335.40   72.77
  -3  13   0  292.52   82.04
   3  13   0  326.73   78.62
  -3 -13   0  440.37   75.58
  -3  13  -1  305.92   68.35
   3  13   1  400.97   96.60
   3  13   1  296.83   68.19
  -3  13  -1  245.77   54.93
  -3  13  -1  274.06   76.51
  -3 -13  -1  376.09   69.44
   3 -13   1  292.91   90.73
  -3  13  -2  758.39  174.06
   3  13   2  703.40  148.72
  -3  13  -2  645.68  125.51
  -3  13  -2  665.55  147.28
   3  13   2  675.34  131.64
   3 -13   2  684.10  194.63
   3  13   3   47.60   18.83
  -3  13  -3   43.87   28.48
  -3  13  -3   52.78   26.64
   3 -13   3   89.35   26.61
   3  14  -3  462.95   86.99
  -3 -14   3  343.72   61.16
  -3 -14   3  639.07   95.80
  -3  14   2  620.74  110.67
  -3  14   2  349.83   75.35
   3  14  -2  663.56  127.57
   3  14  -2  734.46  104.71
  -3 -14   2  787.04  122.71
  -3 -14   2  763.17  115.95
   3  14  -1   68.20   27.38
  -3  14   1   54.11   21.06
   3  14  -1   60.12   22.15
  -3  14   1   70.01   23.43
  -3 -14   1   70.70   24.84
  -3  14   0  879.48  164.22
   3  14   0 1031.87  178.36
  -3  14   0  619.01  155.27
   3  14   0  871.31  168.07
   3 -14   0  833.80  164.00
  -3 -14   0 1233.55  193.48
   3  14   1  631.09  137.43
  -3  14  -1  437.51  110.55
   3  14   1  435.78   92.24
  -3  14  -1  487.70   98.20
   3 -14   1  411.40   98.61
  -3 -14  -1  642.40  132.77
  -3  14  -2 1306.59  228.29
   3  14   2 1066.93  196.70
   3  14   2  975.41  175.19
  -3  14  -2  853.37  163.73
  -3  14  -2  984.20  206.15
   3 -14   2 1021.45  194.06
   3  15  -2   32.35   16.52
  -3  15   2   26.03   10.85
   3  15  -2   39.54   12.65
  -3 -15   2   35.54   15.49
   3  15  -1 2224.73  467.12
   3  15  -1 2766.96  514.90
  -3  15   1 2405.70  462.74
  -3 -15   1 3109.38  571.86
   3 -15  -1 2716.69  532.79
  -3  15   0   59.08   24.88
   3  15   0   49.27   22.91
  -3  15   0   47.77   26.29
   3  15   0   72.99   39.42
  -3 -15   0   95.30   26.03
   3 -15   0   53.39   21.50
  -3  15  -1   41.99   23.93
   3  15   1   50.63   27.36
   3  15   1   35.79   18.31
  -3  15  -1   56.88   23.22
   3 -15   1   40.55   18.78
  -3  15  -2   53.45   20.47
   3  15   2   32.58   15.00
  -3 -15  -2   64.18   19.44
   3 -15   2   40.38   15.95
   3  16  -1    2.19   10.42
  -3  16   1    0.05    5.16
  -3 -16   1    4.16    9.66
  -3  16   0 1059.65  164.47
   3  16   0  926.85  172.37
   3  16   0 1465.40  257.94
  -3  16   0 1154.21  200.36
  -3 -16   0 1532.93  237.09
   3  16   1 1215.79  200.04
   3  16   1 1570.87  272.60
  -3  16  -1 1829.23  270.49
  -3  16  -1 1724.60  285.22
   3 -16   1  989.13  166.93
  -4   0   6    2.80    5.27
   4   0  -6   -1.06    4.13
  -4   0   6    3.92    5.68
   4   0  -5   -2.01    8.74
  -4   0   5    4.36    6.62
  -4   0   5   -1.07    7.35
  -4   0   5    5.67    5.48
  -4   0   5   17.34   15.50
  -4   0   4 8482.29 2335.51
  -4   0   4 7024.26 1701.49
  -4   0   4 7437.84 1744.10
   4   0  -4 8830.62 2277.76
  -4   0   4 7561.93 1837.61
   4   0  -3    3.18    6.03
  -4   0   3   10.74    7.81
  -4   0   3   19.81    5.92
  -4   0   3    0.18    5.40
  -4   0   3    1.95    5.08
  -4   0   3   14.57    4.41
  -4   0   3    4.01   11.27
  -4   0   3    1.48    5.90
  -4   0   3   -0.15    8.27
   4   0  -3    0.32    4.44
  -4   0   2   49.23   11.38
  -4   0   2   34.56   14.43
  -4   0   2   49.34   19.14
   4   0  -2   33.61   14.97
   4   0  -2   74.21   14.85
   4   0  -2   49.78   11.28
  -4   0   2   44.32   11.81
  -4   0   2   46.49    8.36
  -4   0   2   36.17   14.53
  -4   0   2   50.47   20.35
   4   0  -2   46.47   12.76
  -4   0   2  112.15   23.28
  -4   0   1    1.42    4.49
  -4   0   1    1.42    5.16
  -4   0   1    5.02    2.66
   4   0  -1    0.68    6.85
  -4   0   1    1.16    6.81
   4   0  -1   -0.72    4.83
  -4   0   1    4.61    2.85
   4   0  -1    1.61    3.00
   4   0  -1    1.89    6.06
   4   0  -1   -0.13    6.57
  -4   0   1    0.13    4.57
  -4   0   1    2.65    7.52
   4   0  -1    1.78    7.71
  -4   0   021090.39 6962.92
  -4   0   020391.81 6529.63
   4   0   025234.68 8289.02
   4   0   023295.52 7610.23
   4   0   022408.28 7401.34
   4   0   024178.62 8012.13
   4   0   022045.83 7123.06
  -4   0   025062.07 8336.36
  -4   0   027912.61 9129.81
  -4   0   024813.50 8182.48
   4   0   025137.47 8171.33
   4   0   023623.07 7910.26
  -4   0   021890.10 7247.82
   4   0   024101.49 7935.82
   4   0   1    1.28    2.50
   4   0   1    0.59    3.62
   4   0   1    1.04    5.24
  -4   0  -1    8.26    3.34
   4   0   1   -0.49    4.29
   4   0   1   17.35    5.72
  -4   0  -1   -0.06    3.58
   4   0   1    0.34    6.71
  -4   0  -1    6.42    5.64
   4   0   1   -0.24    3.07
  -4   0  -1   -2.26    4.88
   4   0   1    3.07    5.59
  -4   0  -1   -0.86    4.85
  -4   0  -1    1.91    4.95
   4   0   2  233.18   58.00
   4   0   2  187.86   78.09
   4   0   2  277.93   48.38
  -4   0  -2  319.03   57.63
   4   0   2  192.03   53.48
   4   0   2  211.34   33.71
  -4   0  -2  207.67   45.55
  -4   0  -2  235.61   54.23
  -4   0  -2  249.21   60.23
   4   0   3    5.80    9.68
   4   0   3   -0.76   10.92
   4   0   3   -2.85   11.75
  -4   0  -3    2.17    8.30
  -4   0  -3    5.73   11.28
  -4   0  -4 3180.56  548.13
   4   0   4  931.98  263.04
  -4   0  -4 1497.41  268.91
   4   0   4 1006.98  254.16
   4   0   4 1008.29  301.30
   4   0   5    1.06    5.70
  -4   0  -5    2.46    7.05
  -4   1   6  305.54   55.34
  -4   1   6  281.44   40.15
  -4   1   6  249.16   48.23
   4  -1  -6  261.89   45.15
  -4  -1   6  315.31   52.95
  -4  -1   6  274.48   56.10
  -4   1   5 1174.22  184.25
  -4   1   5 1188.03  262.05
  -4   1   5 1155.62  192.29
  -4   1   5 1202.64  204.70
   4   1  -5 1321.68  246.09
  -4  -1   5 1109.38  190.72
  -4  -1   5 1173.85  203.13
  -4  -1   5 1089.32  171.99
  -4  -1   5 1234.50  302.34
   4   1  -4  818.04  142.26
  -4   1   4  597.52   98.16
  -4   1   4  616.45   90.34
  -4   1   4  589.94   93.19
  -4   1   4  601.63  163.27
  -4  -1   4  770.81  194.06
  -4  -1   4  604.78   99.04
  -4  -1   4  586.61   92.45
   4  -1  -4  817.01  144.49
  -4  -1   4  579.77   83.40
  -4   1   3 1897.24  374.24
   4   1  -3 3380.03  609.85
  -4   1   3 2641.26  539.73
  -4   1   3 3701.34  658.47
  -4   1   3 3824.04  647.83
  -4   1   3 4166.53  854.39
  -4   1   3 3607.94  631.97
  -4   1   3 3130.60  574.32
  -4   1   3 2183.96  469.74
   4   1  -3 3783.52  683.59
  -4  -1   3 3657.89  642.41
  -4  -1   3 4319.17  808.43
  -4  -1   3 3643.76  682.35
   4  -1  -3 5210.87  933.82
  -4  -1   3 3407.28  632.02
  -4  -1   3 3657.24  611.94
  -4  -1   3 2986.32  569.56
  -4  -1   3 3606.18  640.35
  -4  -1   3 2852.31  535.73
   4   1  -2 7384.10 1538.46
  -4   1   2 7503.46 1531.77
   4   1  -2 7200.15 1509.81
  -4   1   2 7838.24 1695.30
  -4   1   2 7215.30 1631.19
   4   1  -2 7230.28 1564.88
  -4   1   2 7453.35 1742.16
   4   1  -2 4766.13 1146.99
  -4   1   2 6608.78 1513.14
   4   1  -2 7530.02 1637.22
  -4   1   2 6681.69 1483.26
  -4   1   2 7363.57 1549.26
   4  -1  -2 7714.81 1647.24
  -4  -1   2 6892.66 1537.99
  -4  -1   2 7063.27 1531.21
   4  -1  -2 6941.79 1529.87
  -4  -1   2 6261.78 1407.35
  -4  -1   2 7617.92 1611.22
   4  -1  -2 6003.09 1362.74
  -4  -1   2 7155.61 1453.63
  -4  -1   2 8079.25 1763.54
  -4  -1   2 3327.11  833.57
  -4  -1   2 7261.95 1562.00
  -4   1   1 4365.19  923.79
  -4   1   1 5553.07 1079.93
   4   1  -1 4667.94 1000.56
  -4   1   1 4514.24  824.71
   4   1  -1 6187.34 1258.55
  -4   1   1 5013.19  990.44
   4   1  -1 5621.16 1123.65
   4   1  -1 3987.79  791.19
  -4   1   1 5227.99 1076.26
  -4   1   1 5363.10 1028.70
   4   1  -1 5687.10 1208.53
  -4  -1   1 5474.06 1104.36
   4  -1  -1 4938.66 1045.85
   4  -1  -1 5829.44 1221.98
  -4  -1   1 3324.99  794.93
  -4  -1   1 5797.27 1128.57
  -4  -1   1 4617.98  896.85
   4  -1  -1 5038.31 1092.52
   4  -1  -1 5568.49 1082.09
  -4  -1   1 8387.65 1530.77
  -4  -1   1 5227.03 1103.34
  -4  -1   1 3288.10  704.31
   4  -1  -1 4915.27  938.59
  -4  -1   1 4828.76 1062.83
  -4  -1   1 4911.45  995.53
   4  -1  -1 5484.89 1136.02
  -4  -1   1 4385.04  851.22
   4   1   0   70.26   12.53
   4   1   0   61.59   14.59
  -4   1   0   50.71   16.91
   4   1   0   64.29    9.23
   4   1   0   59.17   11.73
   4   1   0   51.62    6.30
  -4   1   0   62.86   12.96
  -4   1   0   75.32   16.06
   4   1   0   60.93   12.66
  -4   1   0   68.70    9.10
  -4   1   0   69.71   25.10
  -4   1   0   61.70   13.08
  -4   1   0   60.20    4.93
   4   1   0   62.23   12.15
   4  -1   0   64.63   10.96
   4  -1   0   65.93   11.85
   4  -1   0   66.71   15.83
   4  -1   0   87.69   24.19
  -4  -1   0   55.64    8.28
   4  -1   0   63.66   10.69
  -4  -1   0   71.32   12.53
   4  -1   0   65.49    9.79
   4  -1   0   68.20   12.68
  -4  -1   0   77.30   19.87
  -4  -1   0   67.73   14.90
  -4  -1   0   55.73   14.59
  -4  -1   0   53.14   11.38
   4   1   1 2013.62  394.67
  -4   1  -1 2738.35  461.97
  -4   1  -1 2658.18  456.31
   4   1   1 2414.63  385.29
   4   1   1 2586.44  429.99
   4   1   1 1670.80  314.72
   4   1   1 1943.62  336.70
  -4   1  -1 2965.16  486.26
  -4   1  -1 2753.72  511.20
   4   1   1 1749.90  344.23
   4   1   1 2526.91  431.27
  -4   1  -1 2402.46  402.44
  -4  -1  -1 2613.40  412.73
   4  -1   1 3124.48  558.42
  -4  -1  -1 2717.70  465.36
   4  -1   1 2340.52  399.86
   4  -1   1 2580.00  473.51
   4  -1   1 2162.12  361.39
  -4  -1  -1 2513.16  421.33
   4  -1   1 2557.32  542.16
   4  -1   1 2561.68  412.65
   4  -1   1 2389.22  429.90
  -4  -1  -1 2397.01  412.95
   4  -1   1 2936.42  453.62
  -4  -1  -1 2986.01  525.04
  -4  -1  -1 2621.04  426.54
  -4   1  -2 2122.08  409.88
   4   1   2 2222.14  378.54
  -4   1  -2 2206.24  387.13
   4   1   2 2094.14  342.70
   4   1   2 1548.86  297.55
   4   1   2 1185.35  274.66
   4   1   2 2021.06  346.99
  -4   1  -2 1837.79  325.73
   4   1   2 1704.18  389.74
   4   1   2 1693.40  348.09
  -4   1  -2 2456.78  429.20
   4  -1   2 1865.50  305.23
  -4  -1  -2 2516.12  440.92
   4  -1   2 2590.14  472.75
   4  -1   2 1785.33  415.96
  -4  -1  -2 2365.36  436.96
   4  -1   2 1512.23  333.88
   4  -1   2 1677.12  339.51
  -4  -1  -2 2388.30  460.64
  -4   1  -3 1517.03  253.49
   4   1   3  884.22  189.83
   4   1   3 1020.07  163.27
   4   1   3  871.73  222.50
  -4   1  -3 1188.55  211.27
   4   1   3  529.14  157.78
  -4   1  -3 1017.77  199.37
   4  -1   3  859.28  174.65
  -4  -1  -3 1123.37  189.00
   4  -1   3  867.54  196.98
   4  -1   3  581.73  174.34
  -4   1  -4  199.99   55.70
   4   1   4  126.00   53.58
   4   1   4  125.55   64.36
   4   1   4   98.45   63.50
  -4   1  -4  363.45  107.50
   4  -1   4  123.68   73.19
   4  -1   4  139.12   64.71
  -4  -1  -4  392.96   86.25
   4  -1   4  116.76   55.06
  -4  -1  -4  183.32   47.94
   4   1   5   47.23   28.41
   4   1   5   37.74   15.39
  -4   1  -5  100.71   23.75
   4  -1   5   47.64   21.22
  -4  -1  -5   69.85   23.92
   4  -1   5   49.33   21.06
  -4   2   6  891.80  155.20
  -4   2   6  650.40  122.23
  -4   2   6  915.48  127.70
  -4  -2   6 1008.61  152.58
   4  -2  -6  907.03  139.20
  -4  -2   6  983.05  172.99
  -4   2   5  527.89   88.99
  -4   2   5  526.08  115.72
  -4   2   5  544.19  116.86
   4   2  -5  648.78  126.18
  -4   2   5  568.71   88.35
  -4  -2   5  538.92   95.26
  -4  -2   5  592.97  157.25
  -4   2   4   55.12   18.20
  -4   2   4   60.83   16.32
   4   2  -4   46.70   18.52
  -4   2   4   72.87   36.61
  -4   2   4   55.36   17.19
  -4  -2   4   78.96   29.80
  -4  -2   4   66.95   17.21
  -4  -2   4   61.19   18.37
  -4  -2   4   71.30   13.10
  -4  -2   4   41.71   16.07
   4   2  -3 5553.54 1155.96
   4   2  -3 5617.81 1186.25
  -4   2   3 5973.20 1210.19
  -4   2   3 5900.31 1240.12
   4   2  -3 5454.65 1169.23
  -4   2   3 5325.10 1109.77
  -4   2   3 5710.84 1376.79
  -4  -2   3 5494.67 1096.30
  -4  -2   3 4582.78  994.85
  -4  -2   3 6449.77 1392.39
  -4  -2   3 5432.04 1140.15
  -4  -2   3 5285.44 1126.26
  -4  -2   3 5292.80 1164.41
  -4  -2   3 5373.34 1183.85
  -4  -2   3 4666.48 1026.67
   4   2  -2   21.91   14.89
  -4   2   2   25.42   10.41
   4   2  -2   43.50   10.49
  -4   2   2   38.95   10.07
  -4   2   2   43.84    9.11
   4   2  -2   37.82    8.26
   4   2  -2   49.85   10.14
  -4   2   2   25.21   15.59
  -4   2   2   39.14   17.58
   4   2  -2   39.70   12.45
  -4   2   2   32.72    9.94
  -4   2   2   41.89   12.81
   4   2  -2   37.99   11.36
   4  -2  -2   39.61   12.97
  -4  -2   2   76.34   16.27
  -4  -2   2   48.58   12.41
   4  -2  -2   51.42   13.21
   4  -2  -2   39.28   12.57
  -4  -2   2   37.93   19.52
  -4  -2   2   38.68   10.43
  -4  -2   2   34.00   14.01
  -4  -2   2   36.16   13.38
  -4  -2   2   36.60    6.88
   4   2  -1 4587.93 1026.23
   4   2  -1 7159.01 1627.38
  -4   2   1 4307.04  964.37
  -4   2   1 6579.24 1440.39
  -4   2   1 7243.48 1612.04
   4   2  -1 6322.05 1448.06
   4   2  -1 8649.54 1885.51
  -4   2   1 8162.03 1628.61
  -4   2   1 8143.78 1691.97
  -4   2   1 6905.15 1489.62
   4   2  -110085.53 2159.53
   4   2  -1 7125.65 1507.90
  -4   2   1 6887.44 1543.50
  -4  -2   1 5622.51 1263.97
  -4  -2   1 6181.76 1347.69
   4  -2  -1 7292.00 1608.49
   4  -2  -1 8090.96 1846.70
  -4  -2   1 8463.53 1794.13
  -4  -2   1 4914.40 1191.51
  -4  -2   1 6894.92 1395.19
  -4  -2   1 8278.66 1889.69
   4  -2  -1 7751.70 1688.82
   4  -2  -1 6774.81 1433.07
  -4  -2   1 5975.71 1443.62
  -4  -2   1 7408.37 1671.06
  -4  -2   1 6663.57 1516.24
   4   2   0  313.05   40.47
   4   2   0  335.30   41.51
  -4   2   0  341.41   52.16
   4   2   0  217.14   25.83
  -4   2   0  370.84   49.45
   4   2   0  283.38   36.19
  -4   2   0  331.34   36.97
  -4   2   0  329.09   51.89
   4   2   0  299.22   45.30
   4   2   0  227.25   30.88
  -4   2   0  273.07   44.22
   4   2   0  331.22   38.18
   4   2   0  312.27   32.67
   4  -2   0  361.28   43.42
  -4  -2   0  345.12   41.33
  -4  -2   0  258.54   39.23
   4  -2   0  340.43   39.59
   4  -2   0  332.51   42.15
  -4  -2   0  305.33   35.55
   4  -2   0  380.04   55.68
   4  -2   0  337.64   45.69
   4  -2   0  324.99   39.52
  -4  -2   0  342.58   47.74
  -4  -2   0  319.07   45.87
   4  -2   0  385.24   57.15
   4  -2   0  328.22   39.45
   4   2   1 4073.25  745.21
   4   2   1 3970.35  722.46
  -4   2  -1 3859.67  692.83
   4   2   1 3402.48  668.76
  -4   2  -1 4224.63  908.36
   4   2   1 3799.21  709.08
   4   2   1 2803.44  631.21
   4   2   1 2447.65  534.42
  -4   2  -1 4591.74  873.08
  -4   2  -1 3929.32  774.54
  -4   2  -1 3795.38  782.50
   4   2   1 2303.74  510.79
   4  -2   1 4169.99  906.76
  -4  -2  -1 4418.94  823.18
  -4  -2  -1 4382.05  797.54
   4  -2   1 4308.75  801.17
  -4  -2  -1 4029.19  758.40
   4  -2   1 4076.46  745.30
   4  -2   1 4080.64  771.23
   4  -2   1 4389.84  818.77
  -4  -2  -1 4153.40  776.24
   4  -2   1 4254.02  864.38
  -4  -2  -1 4191.57  747.48
   4  -2   1 3919.80  768.73
   4  -2   1 4248.22  896.19
  -4  -2  -1 4470.43  904.16
   4   2   2 1136.90  225.87
   4   2   2  866.65  184.74
   4   2   2 1181.06  180.70
   4   2   2 1282.65  198.94
  -4   2  -2 1372.91  238.84
   4   2   2 1412.22  223.17
  -4   2  -2 1538.84  232.73
   4   2   2 1063.63  212.33
   4   2   2 1044.39  183.92
  -4   2  -2 1288.39  248.45
   4  -2   2 1073.25  205.39
   4  -2   2 1064.74  224.64
  -4  -2  -2 1635.97  301.26
  -4  -2  -2 1390.25  220.30
  -4  -2  -2 1679.97  284.01
   4  -2   2 1175.97  240.85
   4   2   3  724.60  193.77
  -4   2  -3 1633.64  296.85
  -4   2  -3 1407.86  277.77
   4   2   3 1054.76  227.13
   4   2   3 1441.90  236.31
   4   2   3 1244.74  259.30
  -4  -2  -3 1646.44  273.93
   4  -2   3 1161.18  224.64
   4  -2   3 1230.92  268.71
   4  -2   3  930.04  309.99
  -4   2  -4  126.55   43.93
   4   2   4   30.25   64.97
   4   2   4   77.31   55.00
  -4   2  -4  196.96   55.28
   4   2   4   79.90   40.71
   4  -2   4   63.36   62.48
   4  -2   4   91.53   53.89
  -4  -2  -4  223.70   60.40
  -4  -2  -4  111.28   36.38
   4   2   5   60.49   17.33
   4   2   5   49.01   14.94
  -4   2  -5   45.88   13.90
   4   2   5   34.26    9.48
   4  -2   5   55.02   21.71
  -4  -2  -5   80.11   22.46
   4  -2   5   45.44   19.61
  -4   3   6  653.66   85.01
  -4   3   6  283.36   68.27
  -4  -3   6  677.57   96.23
   4  -3  -6  633.49   91.35
  -4  -3   6  661.07  114.57
   4   3  -5 1726.01  326.51
  -4   3   5 1324.85  261.17
  -4   3   5 1239.98  232.86
  -4   3   5 1426.06  253.76
  -4   3   5 1308.63  224.35
  -4  -3   5 1348.20  237.51
  -4  -3   5 1595.52  345.45
  -4   3   4  188.95   73.80
  -4   3   4  158.18   31.93
  -4   3   4  154.51   34.04
   4   3  -4  149.95   36.70
  -4   3   4  182.33   32.49
  -4  -3   4  166.30   33.93
  -4  -3   4  129.50   43.70
  -4  -3   4  207.02   49.60
  -4   3   3  216.56   49.63
  -4   3   3  304.24   49.09
   4   3  -3  200.81   30.52
  -4   3   3  211.50   31.50
   4   3  -3  119.60   23.03
  -4   3   3  182.43   29.73
   4   3  -3  204.35   34.73
  -4  -3   3  151.83   35.87
  -4  -3   3  222.14   40.09
  -4  -3   3  177.36   32.06
  -4  -3   3  184.76   30.69
  -4  -3   3  183.94   31.79
  -4   3   2 3375.13  720.58
   4   3  -2 5088.00  976.48
  -4   3   2 3747.20  812.07
  -4   3   2 5368.47  999.82
  -4   3   2 5190.65 1068.31
   4   3  -2 5434.26 1069.05
  -4   3   2 5762.07 1128.51
  -4   3   2 5106.74  965.88
   4   3  -2 3469.31  769.36
   4   3  -2 2748.13  588.53
  -4   3   2 5096.58 1011.57
   4   3  -2 5238.54 1014.10
   4   3  -2 4886.29  887.90
  -4  -3   2 5449.70 1032.81
   4  -3  -2 5557.24 1088.70
   4  -3  -2 5174.51 1017.68
  -4  -3   2 5663.88 1075.55
  -4  -3   2 4856.74 1003.26
  -4  -3   2 5072.27 1022.41
   4  -3  -2 4793.88  961.36
  -4  -3   2 5351.73 1045.59
  -4  -3   2 3717.20  787.00
  -4   3   1 1811.32  301.03
   4   3  -1 2785.38  481.49
  -4   3   1 2555.27  468.37
  -4   3   1 2793.91  453.83
   4   3  -1 3519.16  561.64
  -4   3   1 2453.67  378.68
   4   3  -1 3211.45  568.30
  -4   3   1 2922.18  460.47
   4   3  -1 2271.29  408.70
   4   3  -1 3017.34  434.83
   4   3  -1 1444.98  267.23
  -4   3   1 2535.77  438.93
   4   3  -1 2893.97  481.07
   4   3  -1 2595.80  392.74
  -4   3   1 1715.78  354.62
  -4  -3   1 2172.66  425.51
  -4  -3   1 2264.08  393.56
   4  -3  -1 2892.95  531.72
  -4  -3   1 2835.44  441.44
  -4  -3   1 3116.13  541.56
   4  -3  -1 2774.68  447.57
  -4  -3   1 2730.54  490.71
  -4  -3   1 2459.92  422.34
   4  -3  -1 2456.22  415.18
  -4  -3   1 2507.16  463.66
  -4  -3   1 2582.67  461.41
  -4   3   0  204.29   44.71
  -4   3   0  295.63   56.65
  -4   3   0  279.21   47.91
   4   3   0  283.46   28.72
   4   3   0  272.18   49.98
   4   3   0  297.81   42.54
  -4   3   0  327.67   39.25
  -4   3   0  253.29   52.17
   4   3   0  317.74   40.86
   4   3   0  278.97   38.56
   4   3   0  333.33   42.52
   4  -3   0  315.38   44.50
  -4  -3   0  347.97   65.56
   4  -3   0  402.73   47.95
   4  -3   0  294.72   53.24
  -4  -3   0  272.63   50.69
   4  -3   0  389.85   63.03
   4  -3   0  315.93   40.32
  -4  -3   0  247.85   46.84
  -4  -3   0  318.32   38.60
  -4  -3   0  305.47   37.92
   4   3   1 2952.47  679.03
   4   3   1 4215.90  772.47
  -4   3  -1 3771.07  766.80
  -4   3  -1 4117.31  842.70
   4   3   1 4158.03  745.74
   4   3   1 4250.95  832.38
  -4   3  -1 4041.84  818.41
   4   3   1 2873.43  596.52
  -4   3  -1 4435.55  801.60
  -4   3  -1 3967.59  854.03
   4   3   1 3307.45  642.24
   4   3   1 2037.47  441.05
  -4  -3  -1 4361.23  799.32
  -4  -3  -1 4233.03  872.00
  -4  -3  -1 4053.74  777.48
   4  -3   1 4440.64  821.38
   4  -3   1 4043.69  789.71
  -4  -3  -1 4486.34  820.32
   4  -3   1 4192.13  801.69
   4  -3   1 4367.40  784.08
  -4  -3  -1 4580.92  840.44
   4  -3   1 4421.62  867.95
   4  -3   1 4026.06  842.88
   4  -3   1 3915.73  869.04
  -4   3  -2 1658.81  325.31
   4   3   2 1447.42  290.64
   4   3   2 1359.89  265.30
  -4   3  -2 1909.55  351.76
   4   3   2 1659.79  272.64
   4   3   2 1663.30  271.68
   4   3   2 1166.94  239.25
   4  -3   2 1474.83  307.65
   4  -3   2 1547.15  312.56
   4  -3   2 1398.88  260.54
  -4  -3  -2 2205.14  404.96
  -4  -3  -2 1940.42  316.16
   4   3   3  367.48   62.34
  -4   3  -3  332.03   83.24
   4   3   3  241.22   66.44
   4   3   3  293.72   81.62
  -4   3  -3  392.63   87.70
   4   3   3  174.06   66.44
  -4  -3  -3  433.97   77.10
   4  -3   3  213.90   95.07
   4  -3   3  304.93  116.77
   4   3   4  447.90  109.91
   4   3   4  467.83  149.34
  -4   3  -4  745.77  150.03
   4  -3   4  475.61  159.32
  -4  -3  -4  765.68  156.14
  -4  -3  -4 1166.20  204.80
   4  -3   4  488.97  148.08
   4   3   5  424.90   66.59
   4   3   5  465.99   78.50
  -4  -3  -5  680.97  122.52
   4  -3   5  471.91   84.45
   4  -3   5  488.30   91.71
  -4   4   6  145.61   25.22
  -4  -4   6  132.18   38.92
  -4  -4   6  156.85   29.30
   4  -4  -6   90.11   26.65
  -4   4   5 2419.66  504.12
  -4   4   5 2603.15  471.47
  -4   4   5 2595.32  485.34
   4   4  -5 2650.44  545.85
  -4  -4   5 3052.80  726.86
  -4  -4   5 2699.90  507.91
  -4   4   4 1381.50  231.93
  -4   4   4 1530.64  248.80
  -4   4   4 1502.29  282.02
  -4   4   4 1317.98  244.33
   4   4  -4 1482.47  268.71
  -4  -4   4 1407.07  237.71
  -4  -4   4 1226.70  218.94
  -4  -4   4 1627.17  297.29
   4   4  -3  393.55   62.79
  -4   4   3  349.75   61.20
  -4   4   3  353.14   51.42
  -4   4   3  382.37   54.94
  -4   4   3  382.14   68.26
   4   4  -3  328.72   48.73
  -4  -4   3  326.65   54.62
  -4  -4   3  418.74   64.10
  -4  -4   3  255.17   44.03
  -4  -4   3  354.52   52.66
  -4   4   2    2.20    5.58
  -4   4   2    1.75    5.88
   4   4  -2    0.79    3.88
  -4   4   2    4.57    4.59
  -4   4   2    2.60    6.13
   4   4  -2    6.21    5.32
   4   4  -2    3.13    4.21
   4   4  -2    3.55    5.39
  -4   4   2    4.21    7.60
  -4   4   2    7.60    4.40
  -4   4   2    0.82    5.78
  -4  -4   2    3.32    7.04
   4  -4  -2    2.18    5.98
  -4  -4   2    5.11    8.53
  -4  -4   2    5.77    6.24
  -4  -4   2    5.27    4.53
  -4  -4   2    3.57    5.75
  -4  -4   2    3.58    4.44
   4  -4  -2    6.31    6.42
  -4  -4   2   10.56    5.94
  -4   4   1   44.94   19.19
   4   4  -1   90.17   17.27
   4   4  -1   88.92   24.64
   4   4  -1   68.23   12.12
   4   4  -1   48.37   12.09
   4   4  -1   77.11   13.14
  -4   4   1   86.69   22.10
  -4   4   1   80.86   14.14
  -4   4   1   91.32   23.43
  -4   4   1   50.37   10.55
  -4   4   1   60.39   11.48
  -4   4   1   98.63   22.83
   4  -4  -1   97.60   17.53
   4  -4  -1   85.81   25.38
  -4  -4   1   96.50   21.56
   4  -4  -1   71.77   14.18
  -4  -4   1   79.51   18.72
  -4  -4   1   70.07   16.62
  -4  -4   1   81.00   11.25
  -4  -4   1  124.10   32.39
  -4  -4   1   81.47   21.05
  -4  -4   1   71.16   21.02
  -4  -4   1   71.35   22.00
   4   4   0 2993.51  513.37
  -4   4   0 2308.83  481.52
   4   4   0 2172.18  398.84
   4   4   0 2373.72  361.85
  -4   4   0 3241.01  532.68
   4   4   0 3675.15  661.65
  -4   4   0 1854.53  392.83
  -4   4   0 2527.37  491.77
  -4   4   0 3462.56  614.31
   4   4   0 2269.57  426.74
   4   4   0 3598.54  597.70
   4  -4   0 3070.49  550.00
   4  -4   0 2581.13  457.51
   4  -4   0 3703.86  651.49
   4  -4   0 4423.03  719.97
  -4  -4   0 3117.85  578.51
  -4  -4   0 3000.08  483.53
  -4  -4   0 3268.81  586.03
   4  -4   0 2994.25  498.47
  -4  -4   0 2875.73  486.80
  -4  -4   0 2023.28  432.22
   4   4   1 2447.57  402.12
  -4   4  -1 2612.73  519.35
  -4   4  -1 2111.79  455.49
   4   4   1 2169.84  397.31
   4   4   1 2794.93  480.20
  -4   4  -1 2958.28  506.35
  -4   4  -1 2469.38  501.35
   4   4   1 2598.38  509.50
   4   4   1 2292.42  479.55
   4   4   1 2233.37  381.12
  -4   4  -1 2463.55  464.25
   4  -4   1 2969.24  559.82
   4  -4   1 2617.68  547.14
   4  -4   1 2794.77  461.78
   4  -4   1 2447.65  465.95
   4  -4   1 2929.45  519.87
  -4  -4  -1 2690.95  509.58
   4  -4   1 2597.96  475.20
  -4  -4  -1 2763.54  466.45
   4  -4   1 2759.25  475.83
  -4  -4  -1 2936.63  515.91
  -4  -4  -1 2919.16  494.91
  -4   4  -2  207.04   55.62
   4   4   2  268.68   41.93
   4   4   2  161.75   40.10
   4   4   2  237.36   44.96
  -4   4  -2  222.44   61.33
   4   4   2  218.01   55.05
   4   4   2  155.82   41.62
   4  -4   2  209.28   34.49
   4  -4   2  186.64   35.25
   4  -4   2  199.27   54.26
   4  -4   2  192.64   59.44
  -4  -4  -2  241.96   47.80
   4   4   3  415.55  107.45
  -4   4  -3  455.14  109.41
  -4   4  -3  590.19  125.24
   4   4   3  206.06   74.59
   4   4   3  518.71   85.20
   4  -4   3  397.51  104.51
   4  -4   3  358.41  128.31
  -4  -4  -3  660.78  132.69
   4   4   4  152.06   36.98
  -4   4  -4  194.80   55.48
   4   4   4  107.81   37.62
   4   4   4  107.16   63.68
  -4   4  -4  178.31   66.48
   4  -4   4  105.87   71.06
   4  -4   4  114.03   62.80
  -4  -4  -4  193.97   45.06
   4   4   5 1456.67  246.57
   4   4   5 1657.36  286.16
  -4  -4  -5 2488.47  404.17
   4  -4   5 1634.75  297.98
   4  -4   5 1861.47  325.23
  -4   5   5   77.38   27.37
  -4   5   5   77.90   22.05
   4   5  -5   76.79   26.24
  -4   5   5   85.11   23.18
  -4  -5   5   99.07   38.64
  -4  -5   5   81.38   23.67
  -4   5   4 2055.40  397.26
   4   5  -4 2140.99  415.45
  -4   5   4 2021.41  368.86
  -4   5   4 1886.92  336.43
  -4  -5   4 1764.19  332.46
  -4  -5   4 2191.69  416.86
  -4  -5   4 1955.44  348.73
   4   5  -3  515.62  102.45
  -4   5   3  515.26   75.82
  -4   5   3  570.84   96.57
  -4   5   3  526.86   77.87
  -4   5   3  467.05  101.67
  -4  -5   3  549.09   87.28
  -4  -5   3  502.40   76.15
  -4  -5   3  590.27   91.06
   4   5  -2  159.45   28.27
  -4   5   2  191.36   32.90
  -4   5   2  161.67   24.67
  -4   5   2  146.41   28.45
   4   5  -2  165.52   32.16
  -4   5   2  170.07   27.95
  -4   5   2  176.17   37.75
   4   5  -2  139.41   22.18
   4   5  -2  131.31   19.82
  -4  -5   2  166.86   30.61
  -4  -5   2  160.97   33.31
  -4  -5   2  153.84   23.76
  -4  -5   2  163.50   25.63
  -4  -5   2  141.50   38.87
  -4  -5   2  147.95   41.34
  -4   5   1  673.87  107.26
  -4   5   1  525.43   92.54
   4   5  -1  576.75   80.60
  -4   5   1  719.14  119.97
  -4   5   1  865.44  113.16
  -4   5   1  549.76   79.37
   4   5  -1  898.74  151.72
   4   5  -1  451.90   71.30
   4   5  -1  724.20   98.30
   4   5  -1  779.35   98.62
  -4   5   1  769.64   99.25
  -4  -5   1  840.78  131.73
   4  -5  -1  807.66  129.24
   4  -5  -1  555.29   79.58
  -4  -5   1  719.55  114.07
  -4  -5   1  784.05  120.14
  -4  -5   1  625.03  102.22
  -4  -5   1  703.64  106.74
   4  -5  -1  860.07  119.50
  -4  -5   1  841.95  119.29
  -4  -5   1  749.05   87.03
  -4   5   0  367.50   73.19
   4   5   0  311.48   65.62
  -4   5   0  629.66   84.08
   4   5   0  561.33   80.38
   4   5   0  548.59   80.46
  -4   5   0  458.95   81.00
   4   5   0  717.77  121.11
   4   5   0  378.13   64.36
  -4   5   0  458.61   83.28
   4   5   0  771.36   98.77
   4  -5   0  665.35  105.60
  -4  -5   0  531.85   74.56
  -4  -5   0  643.84   90.44
   4  -5   0  739.43   89.22
  -4  -5   0  553.17   99.91
   4  -5   0  585.87   85.66
   4  -5   0  655.46   82.64
   4  -5   0  386.61   62.45
  -4  -5   0  430.26   89.77
   4   5   1  103.39   16.08
  -4   5  -1  125.81   30.90
  -4   5  -1  156.20   28.46
  -4   5  -1  266.94   46.99
  -4   5  -1  154.98   38.48
   4   5   1  130.92   41.42
  -4   5  -1   97.36   40.67
   4   5   1  163.55   28.00
   4   5   1  138.90   35.28
   4  -5   1  136.88   32.76
   4  -5   1  154.18   31.69
  -4  -5  -1  104.54   24.22
   4  -5   1  141.07   28.93
   4  -5   1  135.30   28.47
   4  -5   1  120.15   35.54
  -4  -5  -1  151.94   22.68
  -4  -5  -1  124.83   38.84
  -4  -5  -1  146.60   33.54
   4  -5   1  135.19   25.01
   4   5   2    0.01   17.01
  -4   5  -2    6.61   10.61
  -4   5  -2   19.72   20.15
   4   5   2   28.40   10.93
   4   5   2   15.12   15.21
  -4   5  -2   12.84   16.72
  -4  -5  -2   15.37   14.17
   4  -5   2   11.57   15.28
   4  -5   2   16.55   18.71
   4  -5   2   11.82    9.89
   4   5   3  933.84  207.15
   4   5   3 1063.30  202.17
  -4   5  -3 1057.82  221.01
   4   5   3  543.41  140.14
  -4   5  -3 1149.85  241.67
   4  -5   3  920.73  200.29
  -4  -5  -3 1337.94  219.88
   4  -5   3  793.19  237.97
  -4   5  -4 2527.52  531.94
   4   5   4 1286.10  261.55
   4   5   4 2115.50  371.34
   4   5   4 1276.74  347.43
  -4   5  -4 2407.41  472.04
   4  -5   4 1569.97  383.03
   4  -5   4 1585.51  401.52
  -4  -5  -4 2583.02  463.73
   4   5   5  296.94   51.79
  -4  -5  -5  616.03   80.27
   4  -5   5  338.53   60.22
   4  -5   5  278.79   51.39
   4   6  -5  301.42   65.06
  -4   6   5  338.62   54.81
  -4   6   5  202.93   57.71
  -4   6   5  323.00   54.61
  -4  -6   5  346.73   76.06
  -4  -6   5  306.58   53.95
  -4  -6   5  253.61   54.53
  -4   6   4   26.27   11.53
  -4   6   4   15.09   11.19
   4   6  -4    8.85   14.63
  -4   6   4    8.34   14.89
  -4  -6   4    9.90   11.03
  -4  -6   4   18.52   13.16
  -4  -6   4   39.21   15.34
  -4   6   3   22.13   13.50
   4   6  -3   23.14   13.49
  -4   6   3   18.02    9.17
  -4   6   3   28.40   10.49
  -4  -6   3    6.27    9.27
  -4  -6   3   19.79   11.81
  -4  -6   3   17.62    9.30
  -4  -6   3   19.15   11.05
  -4   6   2  290.25   54.52
  -4   6   2  387.23   53.14
  -4   6   2  439.28   64.75
   4   6  -2  393.54   57.38
   4   6  -2  446.26   75.20
  -4   6   2  420.77   55.81
  -4   6   2  156.55   45.76
  -4  -6   2  420.21   68.04
  -4  -6   2  451.45   67.23
  -4  -6   2  427.52   54.18
  -4  -6   2  372.18   59.22
  -4   6   1   51.11   16.90
  -4   6   1   47.79   15.01
  -4   6   1   44.52   18.12
  -4   6   1   32.65   12.00
   4   6  -1   67.57   12.04
  -4   6   1   48.62   13.18
   4   6  -1   70.31   26.28
   4   6  -1   66.10   13.92
   4   6  -1   46.45   11.46
   4   6  -1   31.01   12.50
   4  -6  -1   61.07   17.48
   4  -6  -1   73.80   18.04
  -4  -6   1   43.56   12.10
  -4  -6   1   39.99   19.39
  -4  -6   1   48.04   25.47
  -4  -6   1   49.19   15.88
   4  -6  -1   29.27    9.63
  -4  -6   1   49.73   15.16
  -4  -6   1   50.22   19.35
   4   6   0   60.07   14.69
   4   6   0   48.73   16.67
  -4   6   0   62.94   26.48
   4   6   0   51.49   15.68
  -4   6   0   37.41   17.53
   4   6   0   37.88   17.92
  -4   6   0   36.60   16.40
  -4   6   0   54.04   16.19
  -4  -6   0   60.00   14.98
   4  -6   0   41.03   15.41
  -4  -6   0   40.73   15.95
  -4  -6   0   57.65   15.87
   4  -6   0   43.65    9.59
   4  -6   0   59.48   23.86
   4  -6   0   60.61   14.77
  -4  -6   0   44.94   24.11
   4  -6   0   32.70   19.49
   4   6   1  446.06   94.96
  -4   6  -1  468.54   74.56
  -4   6  -1  392.52   79.30
   4   6   1  411.79   74.61
  -4   6  -1  398.84   72.79
   4   6   1  447.92   69.86
  -4   6  -1  313.28   82.32
   4  -6   1  399.91   73.99
  -4  -6  -1  337.40   57.92
   4  -6   1  420.89   62.96
  -4  -6  -1  396.92   55.96
  -4   6  -2 3471.75  740.88
   4   6   2 3579.84  798.91
  -4   6  -2 3133.99  784.33
  -4   6  -2 3601.23  823.36
   4   6   2 3895.93  793.87
   4  -6   2 3497.23  736.34
   4  -6   2 3646.80  801.74
  -4  -6  -2 4967.33 1024.96
   4  -6   2 3551.52  847.95
   4   6   3   10.62   11.06
  -4   6  -3    6.52   18.07
  -4   6  -3    7.40   20.01
   4   6   3    7.91   17.11
   4  -6   3    1.77   34.14
  -4  -6  -3   15.97   13.86
   4  -6   3    5.00    9.63
   4  -6   3    7.87   16.01
  -4   6  -4  150.92   47.03
   4   6   4  133.13   30.62
   4   6   4   65.76   21.81
  -4   6  -4  155.26   57.41
   4   6   4   67.60   51.49
   4  -6   4   97.90   48.11
   4  -6   4   96.63   51.78
  -4  -6  -4  195.58   40.00
  -4   7   5  260.23   45.84
  -4   7   5   92.60   41.22
   4   7  -5  266.11   58.08
  -4   7   5  270.66   45.08
  -4  -7   5  264.33   45.27
  -4  -7   5  270.42   59.85
  -4  -7   5  220.85   47.93
  -4   7   4  816.74  158.58
  -4   7   4  859.13  143.78
  -4   7   4  828.37  135.82
   4   7  -4  898.74  174.59
  -4  -7   4  861.31  152.66
  -4  -7   4  939.82  165.57
  -4  -7   4  844.98  139.27
   4   7  -3  720.18  128.75
  -4   7   3  664.05  105.53
  -4   7   3  727.93  120.32
  -4   7   3  638.91   95.13
  -4  -7   3  723.45  125.55
  -4  -7   3  677.65  114.75
  -4  -7   3  617.87   95.47
  -4  -7   3  357.25   74.72
  -4   7   2  934.89  151.41
  -4   7   2  821.95  122.29
  -4   7   2  761.21  128.38
   4   7  -2  959.24  176.15
  -4   7   2  897.83  150.09
  -4  -7   2  798.22  115.70
  -4  -7   2  790.79  126.37
  -4  -7   2 1146.94  168.94
  -4  -7   2  785.07  128.51
  -4   7   1  338.50   56.08
  -4   7   1  399.04   70.95
  -4   7   1  420.35   70.85
   4   7  -1  434.10   60.70
  -4   7   1  475.79   74.60
   4   7  -1  403.21   90.73
  -4  -7   1  404.29   77.23
  -4  -7   1  424.54   67.57
  -4  -7   1  466.63   71.94
  -4   7   0  770.20  119.76
   4   7   0  714.38  113.59
  -4   7   0  491.39  118.75
  -4   7   0  652.33  112.68
   4   7   0  748.65  111.79
   4   7   0  605.57  100.93
  -4   7   0  618.42  104.97
   4   7   0  715.14   99.29
  -4  -7   0  773.96  112.76
   4  -7   0 1025.91  137.30
  -4  -7   0  417.95   80.48
   4  -7   0  485.66   82.36
  -4   7  -1  345.10   72.68
   4   7   1  409.30   67.74
  -4   7  -1  421.01   72.99
   4   7   1  448.93   95.86
   4   7   1  375.55   70.08
  -4   7  -1  359.87   69.29
  -4   7  -1  262.52   78.49
   4  -7   1  345.30   64.88
  -4  -7  -1  324.45   58.13
   4  -7   1  352.04   56.89
  -4   7  -2  133.35   64.27
   4   7   2  182.82   48.59
   4   7   2  176.66   48.99
  -4   7  -2  142.91   41.74
  -4   7  -2  158.91   53.44
   4   7   2  189.64   56.44
   4  -7   2  164.08   44.92
   4  -7   2  158.37   58.68
   4  -7   2  168.27   42.23
  -4   7  -3 1935.08  436.24
  -4   7  -3 2039.51  467.18
   4   7   3 1587.38  373.85
   4   7   3 2005.20  375.73
  -4  -7  -3 2909.56  529.98
   4  -7   3 2093.94  392.03
   4  -7   3 1296.83  360.54
   4  -7   3 1720.69  377.40
  -4   7  -4  840.84  166.59
   4   7   4  741.21  127.03
  -4   7  -4  918.71  195.23
   4   7   4  441.47  174.70
   4  -7   4  546.59  177.67
  -4  -7  -4  951.16  164.56
   4  -7   4  636.21  156.55
   4   8  -5  817.42  161.63
  -4   8   5  800.87  134.91
  -4   8   5  821.39  127.12
  -4  -8   5  761.09  137.48
  -4  -8   5  765.15  122.63
  -4  -8   5  882.02  158.48
  -4   8   4 1249.73  272.45
  -4   8   4 1609.66  272.44
  -4   8   4 1656.51  295.72
   4   8  -4 1781.15  355.41
  -4  -8   4 1681.88  305.19
  -4  -8   4 1581.08  273.84
  -4  -8   4 1717.34  311.76
  -4   8   3 1152.34  207.49
   4   8  -3 1282.87  242.23
  -4   8   3 1157.74  177.33
  -4   8   3 1167.89  197.37
  -4  -8   3 1083.51  192.46
  -4  -8   3  657.91  133.36
  -4  -8   3 1225.41  211.22
  -4  -8   3 1196.71  204.38
  -4   8   2   97.40   42.71
  -4   8   2   62.33   23.93
   4   8  -2   63.14   14.69
   4   8  -2  118.85   61.27
  -4   8   2   79.66   17.27
  -4   8   2   66.13   20.44
  -4  -8   2   70.69   20.63
  -4  -8   2   73.14   22.12
  -4  -8   2   53.75   13.81
   4   8  -1  201.00   34.71
  -4   8   1  245.70   49.80
   4   8  -1  198.47   56.78
  -4   8   1  219.40   39.24
  -4   8   1  184.86   42.96
  -4  -8   1  204.78   39.26
  -4  -8   1  225.41   42.22
   4   8   0 3692.59  703.03
  -4   8   0 3208.35  652.89
  -4   8   0 3003.00  606.09
  -4   8   0 2590.60  570.57
   4   8   0 3741.59  728.37
  -4   8   0 4008.35  778.38
   4  -8   0 5773.04 1026.96
  -4  -8   0 1996.65  432.02
  -4  -8   0 4266.46  780.04
   4   8   1  149.76   48.38
  -4   8  -1  107.20   34.28
   4   8   1  113.49   30.74
  -4   8  -1   96.26   33.18
  -4   8  -1  130.19   34.33
   4   8   1   95.85   27.81
  -4   8  -1   79.45   41.53
  -4  -8  -1  110.60   26.70
   4  -8   1  106.44   25.75
   4  -8   1   97.10   26.52
  -4   8  -2   58.44   30.61
   4   8   2   55.10   25.62
  -4   8  -2   50.37   38.83
   4   8   2   75.34   33.82
  -4   8  -2   51.60   24.80
   4   8   2   54.25   28.06
   4  -8   2   46.88   22.13
   4  -8   2   65.31   25.77
   4  -8   2   28.67   18.28
  -4   8  -3 1123.45  260.07
   4   8   3  900.12  211.72
  -4   8  -3 1139.59  262.53
   4   8   3 1139.77  206.50
   4  -8   3  953.48  207.52
   4  -8   3  679.85  197.80
  -4  -8  -3 1801.05  304.73
   4  -8   3 1418.42  244.21
  -4   8  -4  790.45  150.69
   4   8   4  449.82  112.61
   4   8   4  717.34  116.62
  -4   8  -4  874.60  169.76
   4  -8   4  674.01  140.88
  -4  -8  -4  868.40  149.60
  -4   9   5  976.83  191.70
   4   9  -5 1398.64  278.43
  -4   9   5 1241.42  191.47
  -4  -9   5 1317.34  252.60
  -4  -9   5 1184.25  210.35
  -4   9   4  556.95  104.28
   4   9  -4  589.49  130.79
  -4   9   4  564.10   87.48
  -4   9   4  298.18   86.63
  -4  -9   4  599.56  102.03
  -4  -9   4  597.69  104.65
  -4   9   3 1003.12  157.12
   4   9  -3 1086.20  230.65
  -4   9   3 1008.45  191.41
  -4   9   3  908.27  182.40
  -4  -9   3  700.28  135.45
  -4  -9   3 1113.01  193.06
  -4  -9   3 1113.99  192.38
  -4   9   2  832.09  146.46
   4   9  -2  857.02  132.17
  -4   9   2  822.35  169.40
  -4   9   2  918.64  171.80
   4   9  -2 1100.04  251.18
  -4  -9   2  983.85  165.94
  -4  -9   2  890.07  151.48
   4   9  -1 2255.70  482.21
  -4   9   1 2151.03  428.71
   4   9  -1 2342.12  422.49
  -4   9   1 2349.62  421.22
  -4   9   1 2443.85  492.36
  -4  -9   1 2677.83  490.15
  -4  -9   1 2312.73  453.13
  -4   9   0  621.83  115.95
  -4   9   0  419.86   98.67
   4   9   0  606.94  105.84
  -4   9   0  476.10   86.76
   4   9   0  588.18   99.26
  -4   9   0  544.40  102.11
  -4  -9   0  641.21  101.47
  -4  -9   0  310.23   66.91
   4  -9   0  877.78  123.69
  -4   9  -1 3408.33  726.80
   4   9   1 4326.01  954.98
  -4   9  -1 3880.47  800.96
   4   9   1 2922.67  617.79
  -4   9  -1 2517.43  629.74
   4   9   1 3672.00  740.26
  -4   9  -1 3101.14  677.18
  -4  -9  -1 3401.05  689.31
   4  -9   1 3028.60  634.10
   4   9   2  632.53  121.18
  -4   9  -2  539.42  148.65
   4   9   2  720.66  145.19
  -4   9  -2  683.37  142.93
   4   9   2  717.25  141.67
  -4   9  -2  668.44  135.90
   4  -9   2  608.82  109.41
   4  -9   2  901.27  154.03
   4  -9   2  300.02   78.71
   4   9   3   34.88   15.83
  -4   9  -3   27.76   26.42
   4   9   3    7.99   22.33
  -4   9  -3   21.27   26.68
   4  -9   3   29.24   18.65
   4  -9   3   14.79   27.49
  -4  -9  -3   26.54   21.57
   4  -9   3    6.03   19.46
   4   9   4  686.24  105.13
  -4   9  -4  816.11  143.65
   4   9   4  496.97   96.72
  -4   9  -4  793.75  135.94
  -4  10   4  290.57   82.80
  -4  10   4  606.73   92.42
  -4  10   4  581.27  119.91
   4  10  -4  750.10  164.22
  -4 -10   4  687.13  118.44
  -4 -10   4  630.90  101.07
  -4  10   3 1840.06  320.85
  -4  10   3 1495.67  333.72
   4  10  -3 2594.27  561.81
  -4  10   3 1834.05  381.84
  -4 -10   3 2313.08  410.97
  -4 -10   3 1417.70  275.64
  -4 -10   3 1983.17  339.66
   4  10  -2   28.07    9.34
  -4  10   2    2.43   11.95
  -4  10   2    4.65   17.42
   4  10  -2    5.03   22.93
  -4  10   2   16.51   12.13
  -4 -10   2    6.38   12.50
  -4 -10   2   13.40   12.93
   4  10  -1 3666.59  741.25
  -4  10   1 3653.36  828.16
  -4  10   1 3359.18  735.58
   4  10  -1 3640.21  821.69
  -4 -10   1 3573.73  755.00
   4 -10  -1 3511.92  695.11
  -4 -10   1 4316.66  871.04
  -4  10   0 1683.03  335.83
  -4  10   0 1564.32  311.74
   4  10   0 1748.20  327.08
   4  10   0 1792.75  325.16
  -4  10   0 1290.48  253.67
  -4  10   0 1130.98  318.44
   4 -10   0 1879.39  321.24
  -4 -10   0 2030.18  349.77
   4  10   1 1579.65  280.61
  -4  10  -1 1181.62  246.63
  -4  10  -1 1324.63  270.07
   4  10   1 1745.83  362.70
  -4  10  -1 1072.64  267.05
  -4  10  -1 1647.88  306.84
  -4 -10  -1 1600.67  283.45
   4 -10   1 1095.88  230.36
   4  10   2  655.76  118.74
   4  10   2  658.59  138.40
  -4  10  -2  507.68  147.59
   4  10   2  481.04  111.02
  -4  10  -2  541.62  135.58
  -4  10  -2  619.10  135.23
   4 -10   2  873.26  163.84
   4  10   3  334.75  101.82
   4  10   3  646.55  112.80
  -4  10  -3  710.05  157.75
  -4  10  -3  610.47  153.34
  -4 -10  -3  999.22  165.89
   4 -10   3 1048.40  173.30
   4  10   4  171.77   28.49
  -4  10  -4  180.43   34.95
  -4  10  -4  192.77   37.02
   4  10   4  122.26   25.97
  -4  11   4  208.99   35.04
   4  11  -4  194.86   58.73
  -4  11   4   66.86   27.13
  -4 -11   4  214.39   37.67
  -4 -11   4  261.98   49.61
  -4  11   3  195.57   64.42
   4  11  -3  354.67   96.83
  -4  11   3  317.61   58.88
  -4 -11   3  224.18   51.19
  -4 -11   3  390.55   70.21
  -4 -11   3  292.33   50.56
  -4  11   2 4119.94 1072.28
   4  11  -2 5286.58 1324.18
  -4  11   2 4962.34 1093.05
  -4  11   2 4722.33 1084.29
   4  11  -2 5250.08 1125.88
  -4 -11   2 5958.75 1320.54
  -4 -11   2 5519.90 1228.44
  -4  11   1  636.87  144.32
   4  11  -1  711.53  141.69
  -4  11   1  602.95  121.54
   4  11  -1  698.68  116.64
   4 -11  -1  598.35   94.97
  -4 -11   1  767.90  134.55
  -4 -11   1  611.55  115.80
  -4  11   0    0.77   16.03
   4  11   0   -1.41   11.89
  -4  11   0    1.94   15.38
  -4  11   0   43.73   14.42
  -4 -11   0    0.87   11.39
  -4  11  -1   97.56   35.66
   4  11   1  151.17   53.89
   4  11   1  119.94   33.77
  -4  11  -1   70.43   49.41
  -4  11  -1  121.14   40.49
   4 -11   1    1.58   44.16
  -4 -11  -1  113.22   35.03
  -4  11  -2 2722.08  615.96
  -4  11  -2 2371.43  579.10
  -4  11  -2 2231.60  520.77
   4  11   2 2839.80  613.66
   4  11   2 2765.91  556.55
   4 -11   2 4196.92  842.59
   4  11   3   77.54   34.94
  -4  11  -3  254.57   86.75
   4  11   3  237.06   57.22
  -4  11  -3  212.86   67.32
  -4 -11  -3  318.51   57.43
   4 -11   3  341.30   61.54
   4  12  -4 1613.49  329.99
  -4 -12   4 2327.42  417.68
  -4  12   3  251.91   65.69
  -4  12   3  368.21   56.49
   4  12  -3  431.28   93.34
  -4 -12   3  648.02  122.57
  -4 -12   3  296.79   60.81
  -4  12   2    3.43   10.78
   4  12  -2    6.15   10.72
   4  12  -2    5.68    6.12
  -4  12   2   -0.42    7.20
  -4 -12   2    3.02    8.38
  -4 -12   2   -1.65    9.14
   4  12  -1 1160.81  205.43
   4  12  -1 5759.05  705.64
  -4  12   1  962.44  218.87
  -4  12   1 1032.54  206.76
  -4 -12   1 1315.66  234.89
  -4 -12   1  853.75  177.86
  -4  12   0 2617.95  712.21
   4  12   0 5216.91 1104.10
  -4  12   0 4189.04  979.52
  -4  12   0 3813.42  887.60
   4  12   0 4725.17 1023.17
  -4 -12   0 5527.96 1147.08
   4  12   1  326.60   66.02
  -4  12  -1  212.70   58.82
  -4  12  -1  255.92   70.43
  -4  12  -1  214.15   76.60
   4  12   1  298.37   88.85
   4 -12   1  336.44   81.03
  -4 -12  -1  284.01   66.40
  -4  12  -2  271.04   72.13
  -4  12  -2  251.48   74.21
   4  12   2  257.58   56.64
  -4  12  -2  201.81   67.78
   4 -12   2  388.49   83.67
  -4 -12  -2  337.04   79.65
  -4  12  -3  202.51   60.55
  -4  12  -3  234.20   52.42
   4  12   3  203.65   39.66
   4 -12   3  297.78   53.05
  -4 -12  -3  260.38   47.13
   4  13  -3 1450.18  252.43
  -4  13   3  597.28  132.67
  -4 -13   3 1820.55  266.37
  -4 -13   3  954.00  162.08
  -4  13   2  244.91   71.71
   4  13  -2  395.43   82.24
   4  13  -2  374.68   62.49
  -4  13   2  322.85   62.48
  -4 -13   2  420.54   98.24
  -4 -13   2  420.22   81.05
   4  13  -1 2865.62  540.45
   4  13  -1 2698.26  542.48
  -4  13   1 2275.35  469.84
  -4  13   1 1976.61  461.12
  -4 -13   1 3173.54  606.91
  -4  13   0   75.15   36.17
  -4  13   0   72.87   33.82
   4  13   0   90.56   39.64
   4  13   0   67.06   28.22
  -4  13   0   73.21   33.47
  -4 -13   0   92.51   32.89
  -4  13  -1 1580.74  325.70
   4  13   1 1840.02  319.37
  -4  13  -1 1718.13  342.64
   4  13   1 1679.58  360.68
  -4  13  -1 1135.28  249.31
   4 -13   1 1907.59  347.52
  -4 -13  -1 1362.82  275.77
  -4  13  -2    3.94   16.01
  -4  13  -2   13.87   18.61
  -4  13  -2   11.19   15.07
   4  13   2    7.08   10.26
  -4 -13  -2   14.00   14.52
   4 -13   2   19.58   13.01
   4  14  -3 1030.30  178.54
  -4 -14   3 1111.71  197.09
  -4 -14   3 1194.09  194.98
  -4  14   2  112.57   28.21
  -4  14   2   72.17   29.41
   4  14  -2  149.13   34.33
  -4 -14   2  127.04   36.32
  -4 -14   2  149.65   37.95
   4  14  -1  687.77  121.33
   4  14  -1  773.67  149.96
  -4  14   1  474.69  111.03
  -4  14   1  594.01  116.80
  -4 -14   1  887.31  178.07
   4  14   0  792.04  153.69
  -4  14   0  533.03   95.82
  -4  14   0  527.06  115.91
   4  14   0  619.49  107.09
   4 -14   0  446.52   90.65
  -4 -14   0  787.97  136.28
  -4  14  -1  188.43   58.63
   4  14   1  190.77   54.66
   4  14   1  197.93   40.64
  -4  14  -1  223.57   50.07
   4 -14   1  186.46   44.05
   4  14   2   67.94   18.65
  -4  14  -2   68.99   21.09
  -4  14  -2   82.12   24.43
  -4 -14  -2   90.89   23.73
   4 -14   2   85.42   21.31
   4  15  -2 1181.28  194.52
  -4 -15   2 1218.51  214.76
   4  15  -1   15.57   10.05
   4  15  -1    3.31    7.04
  -4  15   1    1.13    8.77
  -4 -15   1    3.23    9.85
   4 -15  -1    0.75    5.85
  -4  15   0    0.21    3.43
  -4  15   0   -1.07    7.46
   4  15   0    0.15    7.42
   4  15   0    2.44    4.64
   4 -15   0    1.09    4.32
  -4 -15   0    0.25    5.45
  -4  15  -1  413.13   62.28
  -4  15  -1  448.28   81.57
   4  15   1  377.00   61.31
   4  15   1  396.55   73.17
   4 -15   1  387.12   74.63
  -5   0   6 1560.55  248.62
  -5   0   6 1346.38  244.50
   5   0  -5    2.89    6.20
  -5   0   5    0.58    4.47
  -5   0   5    0.29    9.81
  -5   0   5    3.71    7.01
  -5   0   4  749.18  130.71
  -5   0   4  762.76  181.19
  -5   0   4  804.20  161.60
  -5   0   4  702.56  106.37
  -5   0   3    2.10    6.16
  -5   0   3    1.90    5.93
  -5   0   3    1.07    5.59
  -5   0   3    0.38    3.97
  -5   0   3   15.20   10.51
  -5   0   3    3.21    8.47
  -5   0   2  227.21   31.62
  -5   0   2  160.67   36.32
   5   0  -2  124.53   24.03
   5   0  -2  156.48   36.68
   5   0  -2  145.01   37.43
   5   0  -2  164.16   41.88
  -5   0   2  129.48   28.68
  -5   0   2   55.31   28.37
  -5   0   2  149.82   27.18
  -5   0   2  142.44   30.68
  -5   0   2  200.98   40.78
   5   0  -2  243.80   49.66
   5   0  -1    7.31    5.51
   5   0  -1    2.62    5.25
  -5   0   1    0.88    4.83
  -5   0   1   -0.69    4.95
   5   0  -1    1.75    5.22
   5   0  -1    4.82    2.95
  -5   0   1    3.98    3.80
  -5   0   1    1.12    5.17
  -5   0   1    3.66    4.59
  -5   0   1    0.56    2.72
  -5   0   1    1.07    3.28
  -5   0   1    6.09    5.29
   5   0   0  391.59   51.24
   5   0   0  406.07   58.58
  -5   0   0  441.30   57.31
   5   0   0  389.09   46.32
  -5   0   0  410.61   60.79
   5   0   0  365.47   50.88
  -5   0   0  413.95   56.54
   5   0   0  371.53   46.02
   5   0   0  363.82   49.41
   5   0   0  407.31   57.64
   5   0   0  341.86   37.82
  -5   0   0  388.31   50.77
   5   0   1    5.08    7.22
  -5   0  -1   -0.00    6.51
   5   0   1    3.62    5.77
   5   0   1    2.61    3.98
  -5   0  -1    7.09    5.69
  -5   0  -1   -0.24    6.72
  -5   0  -1    7.04    4.91
   5   0   1    0.39    5.63
   5   0   1   10.75    6.04
   5   0   1    2.92    4.84
   5   0   2 1237.75  311.15
  -5   0  -2 1518.56  285.58
  -5   0  -2 1445.72  254.26
   5   0   2 1259.86  228.43
   5   0   2 1222.33  253.43
   5   0   3    4.66   20.35
  -5   0  -3   89.22   27.43
   5   0   3    1.97   21.17
   5   0   3    1.86   13.84
   5   0   4 2539.92  539.57
  -5   0  -4 2933.42  580.81
   5   0   4 2605.16  516.02
   5   0   4 2471.52  517.59
  -5   1   6  558.99   87.44
  -5   1   6  620.88   91.91
  -5  -1   6  649.97  117.96
   5  -1  -6  567.34   94.87
  -5  -1   6  644.52   96.29
  -5   1   5 1560.97  280.05
   5   1  -5  926.62  186.46
  -5   1   5 1516.94  280.12
  -5   1   5 1438.28  227.80
  -5  -1   5 1550.85  324.62
   5  -1  -5 1352.92  238.65
  -5  -1   5 1570.89  272.20
  -5   1   4  513.79   94.26
   5   1  -4  421.74   78.06
  -5   1   4  548.89  124.49
  -5   1   4  498.34   75.10
  -5   1   4  541.64   90.90
  -5  -1   4  451.11   68.55
  -5  -1   4  584.44  136.92
  -5  -1   4  540.96   94.26
  -5   1   3  946.78  155.07
   5   1  -3  975.40  165.41
  -5   1   3 1194.96  196.58
  -5   1   3 1210.80  188.27
  -5   1   3 1125.35  163.20
  -5   1   3 1260.62  229.72
  -5   1   3  894.27  165.87
  -5  -1   3 1048.44  165.62
  -5  -1   3 1337.03  246.14
  -5  -1   3  744.87  147.18
  -5  -1   3 1059.06  152.84
  -5   1   2 1093.71  167.53
   5   1  -2  990.00  165.54
  -5   1   2 1008.68  153.29
  -5   1   2 1146.67  171.48
   5   1  -2 1103.25  202.31
  -5   1   2 1039.38  157.13
   5   1  -2  858.88  133.93
   5   1  -2  890.76  171.87
   5   1  -2 1058.97  196.55
  -5   1   2 1160.81  183.26
  -5   1   2 1011.45  192.32
  -5  -1   2  773.58  132.37
   5  -1  -2  933.47  142.83
   5  -1  -2 1054.05  187.45
  -5  -1   2 1083.85  160.07
  -5  -1   2 1055.50  187.69
  -5  -1   2 1078.90  182.19
  -5  -1   2  679.77  153.21
  -5  -1   2 1006.56  186.40
   5  -1  -2 1212.77  210.71
  -5  -1   2  957.20  168.57
   5  -1  -2 1154.42  192.14
   5   1  -1   30.88    7.40
   5   1  -1   31.05    9.46
  -5   1   1   31.12    9.87
   5   1  -1   38.30   11.24
  -5   1   1   48.17   12.08
  -5   1   1   27.54   12.10
   5   1  -1   30.75   12.32
  -5   1   1   47.09   12.49
  -5   1   1   39.50    8.88
  -5   1   1   41.10   16.84
   5   1  -1   32.99   13.26
  -5  -1   1   36.38   13.01
   5  -1  -1   44.65    8.51
   5  -1  -1   34.87   14.46
  -5  -1   1  102.06   16.49
  -5  -1   1   30.98   11.94
  -5  -1   1   37.21   12.85
  -5  -1   1   30.48   13.33
   5  -1  -1   39.76   13.94
  -5  -1   1   34.42    7.71
   5  -1  -1   31.44   13.38
   5  -1  -1   36.26   11.20
   5  -1  -1   45.39   11.45
  -5  -1   1   33.49    8.44
  -5  -1   1   32.35    7.35
  -5  -1   1   28.92    8.26
  -5   1   0  976.73  134.51
   5   1   0  941.45  135.52
   5   1   0 1048.43  152.69
   5   1   0 1006.72  141.93
  -5   1   0 1127.42  168.63
  -5   1   0 1183.15  168.47
   5   1   0  975.26  148.14
  -5   1   0  950.15  121.22
   5   1   0  992.91  139.62
  -5   1   0  990.81  144.58
   5   1   0  927.23  122.00
   5   1   0  978.94  128.30
   5  -1   0 1067.52  147.59
   5  -1   0 1053.82  153.17
   5  -1   0 1014.09  136.75
   5  -1   0  941.33  121.73
  -5  -1   0 1031.73  143.97
  -5  -1   0 1027.84  153.73
  -5  -1   0  944.97  135.70
  -5  -1   0 1120.53  158.11
   5  -1   0  990.74  142.84
   5  -1   0 1074.39  160.42
   5  -1   0 1134.39  164.69
   5  -1   0 1038.27  137.84
   5   1   1  995.56  163.29
   5   1   1  992.55  159.95
  -5   1  -1 1084.95  172.98
   5   1   1 1056.08  156.97
  -5   1  -1 1022.71  155.16
   5   1   1  889.79  128.85
   5   1   1  845.66  132.01
  -5   1  -1 1097.19  163.02
  -5   1  -1 1147.05  191.89
   5   1   1 1036.46  158.13
  -5  -1  -1 1060.58  160.90
   5  -1   1 1024.86  146.28
  -5  -1  -1 1068.43  160.94
   5  -1   1 1010.18  158.29
  -5  -1  -1 1094.33  156.37
   5  -1   1  949.13  140.47
   5  -1   1 1082.50  161.52
  -5  -1  -1 1086.74  169.68
   5  -1   1 1139.72  188.48
  -5   1  -2  870.20  170.65
   5   1   2  678.71  124.91
   5   1   2  685.49  148.32
   5   1   2  671.16  148.79
  -5   1  -2  800.01  143.30
  -5  -1  -2  848.71  153.37
   5  -1   2  750.21  208.55
  -5  -1  -2  882.99  148.39
   5  -1   2  738.55  150.80
   5  -1   2  755.75  134.36
  -5   1  -3 3773.65  857.52
   5   1   3 2742.49  599.13
  -5   1  -3 3701.15  756.54
   5   1   3 2746.19  683.63
   5   1   3 2458.91  682.69
  -5  -1  -3 4494.96  935.21
   5  -1   3 2824.17  690.84
   5  -1   3 2835.12  716.40
   5  -1   3 2945.54  635.65
  -5  -1  -3 3413.85  691.24
   5   1   4  724.10  144.22
   5   1   4  742.65  130.95
  -5   1  -4  893.47  163.52
   5   1   4  692.07  139.12
   5  -1   4  736.67  155.72
  -5  -1  -4  858.99  156.19
   5  -1   4  789.11  168.67
  -5  -1  -4 1013.10  179.05
   5  -1   4  673.93  130.66
  -5   2   6   98.05   20.54
  -5  -2   6  106.32   33.87
  -5  -2   6  108.95   24.30
   5  -2  -6  129.62   31.69
  -5   2   5   17.42    9.69
   5   2  -5    3.25    9.44
  -5   2   5   14.42   12.45
  -5   2   5   17.10   13.81
  -5   2   5   56.45   17.16
  -5  -2   5    7.81   12.94
  -5  -2   5    8.60   22.42
   5   2  -4  571.46   97.79
  -5   2   4  862.95  176.70
  -5   2   4  677.69  106.51
  -5   2   4  623.49   91.63
  -5   2   4  660.28  116.96
   5   2  -4  381.34   76.69
  -5  -2   4  334.13   80.19
  -5  -2   4  684.95  110.53
  -5  -2   4  759.63  158.32
  -5   2   3 1402.01  243.35
  -5   2   3 1384.62  204.70
  -5   2   3  730.07  168.35
  -5   2   3 1657.54  278.02
   5   2  -3 1193.99  188.98
   5   2  -3  855.03  160.14
  -5   2   3 1401.46  220.38
  -5  -2   3 1326.01  205.72
  -5  -2   3 1423.76  227.70
  -5  -2   3 1646.09  285.13
  -5  -2   3 1009.67  191.96
  -5   2   2 1368.94  211.14
  -5   2   2 1453.15  229.82
  -5   2   2 1211.61  236.91
   5   2  -2 1151.35  189.87
  -5   2   2 1554.41  241.27
   5   2  -2 1393.73  218.64
   5   2  -2 1932.04  324.20
  -5   2   2 1389.69  234.13
   5   2  -2 1372.31  221.97
   5   2  -2 1503.47  281.37
   5  -2  -2 1314.57  219.67
   5  -2  -2 1662.06  272.56
   5  -2  -2 1683.44  307.07
  -5  -2   2 1330.68  276.95
  -5  -2   2 1826.30  299.63
  -5  -2   2 1515.80  235.74
  -5  -2   2 1488.98  289.52
  -5  -2   2  784.86  157.87
  -5  -2   2 1166.14  189.47
  -5  -2   2 1481.44  251.71
  -5   2   1  196.00   31.83
   5   2  -1  194.76   32.24
   5   2  -1  161.60   25.01
  -5   2   1  207.92   33.83
   5   2  -1  202.16   30.85
   5   2  -1  156.16   21.96
   5   2  -1  237.86   29.44
  -5   2   1  212.47   36.50
  -5   2   1  203.07   32.45
  -5   2   1  209.89   28.53
   5   2  -1  237.56   27.29
   5   2  -1  287.86   43.10
  -5  -2   1  192.76   28.72
   5  -2  -1  184.38   32.57
   5  -2  -1  215.11   40.70
   5  -2  -1  191.65   26.59
  -5  -2   1  170.38   24.75
  -5  -2   1  212.41   46.79
  -5  -2   1  228.82   44.75
  -5  -2   1  220.72   29.56
  -5  -2   1  184.34   45.99
  -5  -2   1  221.24   45.16
  -5  -2   1  188.68   35.89
   5  -2  -1  206.33   33.79
  -5  -2   1  132.63   25.98
  -5   2   0 1362.51  200.87
   5   2   0 1226.20  174.20
   5   2   0 1260.91  178.63
   5   2   0 1354.97  201.86
  -5   2   0 1272.85  214.59
   5   2   0 1329.34  205.08
   5   2   0 1234.58  171.21
   5   2   0 1264.35  200.05
   5   2   0 1487.74  223.15
  -5   2   0 1424.04  231.15
  -5   2   0 1537.12  239.04
  -5   2   0 1353.89  188.00
  -5  -2   0 1491.68  226.11
   5  -2   0 1485.43  228.99
  -5  -2   0 1244.10  192.73
   5  -2   0 1491.88  234.13
   5  -2   0 1405.79  200.66
   5  -2   0 1370.44  198.66
   5  -2   0 1446.57  209.73
   5  -2   0 1358.92  205.22
  -5  -2   0 1422.88  211.68
   5  -2   0 1489.51  231.06
  -5  -2   0 1493.76  213.80
   5  -2   0 1428.20  202.15
  -5  -2   0 1418.04  221.68
   5   2   1 1460.78  250.33
   5   2   1 1465.90  224.57
  -5   2  -1 1845.29  302.01
   5   2   1 1431.48  223.22
   5   2   1 1434.14  254.44
  -5   2  -1 1627.45  276.39
  -5   2  -1 1837.66  329.86
   5   2   1 1385.27  233.90
   5   2   1 1467.17  242.09
   5   2   1 1636.31  252.86
  -5  -2  -1 1732.94  282.53
   5  -2   1 1605.58  261.79
  -5  -2  -1 1761.23  281.02
   5  -2   1 1544.71  246.34
  -5  -2  -1 1717.54  260.33
   5  -2   1 1771.66  279.07
   5  -2   1 1775.16  313.92
  -5  -2  -1 1617.78  265.33
  -5   2  -2 1493.28  308.10
   5   2   2 1018.60  226.53
   5   2   2 4312.28  602.79
   5   2   2  998.16  196.88
   5   2   2 1128.25  201.09
  -5   2  -2 1395.90  250.53
  -5  -2  -2 1331.29  244.20
   5  -2   2 1302.29  233.94
   5  -2   2 1278.52  282.35
  -5  -2  -2 1533.21  258.25
   5  -2   2 1142.36  236.70
  -5   2  -3   24.74   29.10
  -5   2  -3   17.27   22.60
   5   2   3   18.23   23.38
   5   2   3   14.54   17.30
   5   2   3   13.67   28.32
   5   2   3   58.01   13.50
   5  -2   3   24.41   32.50
  -5  -2  -3   20.23   21.23
   5  -2   3   10.91   23.12
   5  -2   3   33.68   20.30
   5   2   4   16.00   12.46
  -5   2  -4   24.84   15.49
   5   2   4   13.41   12.42
   5   2   4   20.59   16.96
  -5  -2  -4   20.85   16.36
   5  -2   4   19.94   20.11
   5  -2   4   29.38   15.50
  -5  -2  -4   23.53   15.62
  -5   3   5  569.81   88.64
  -5   3   5  621.64  105.26
   5   3  -5  353.44   84.26
  -5   3   5  587.73  101.02
  -5   3   5  481.58  115.82
  -5  -3   5  584.79  100.97
  -5  -3   5  618.67  145.74
  -5   3   4 2752.33  456.76
   5   3  -4 1314.58  272.04
  -5   3   4 2369.83  478.99
  -5   3   4 2661.89  463.46
   5   3  -4 2209.59  408.94
  -5   3   4 2830.21  513.59
  -5  -3   4 3100.18  604.39
  -5  -3   4 2760.41  485.47
  -5  -3   4 1563.45  334.06
  -5   3   3 2967.03  519.09
   5   3  -3 1880.56  382.79
  -5   3   3 1698.55  397.45
   5   3  -3 2800.17  513.15
  -5   3   3 2866.82  594.19
  -5   3   3 3244.82  595.05
  -5   3   3 3046.26  544.20
  -5  -3   3 2746.22  502.50
  -5  -3   3 3125.90  565.20
  -5  -3   3 2542.55  511.90
  -5  -3   3 3418.16  639.41
   5   3  -2 1983.94  306.36
  -5   3   2 1044.76  191.43
   5   3  -2 1148.53  221.21
  -5   3   2 1128.12  184.35
   5   3  -2  830.37  143.47
  -5   3   2 1016.98  177.90
   5   3  -2 1144.17  186.09
  -5   3   2 1234.54  189.23
  -5   3   2 1014.59  163.76
  -5  -3   2 1229.37  199.26
  -5  -3   2 1136.54  196.20
   5  -3  -2 1210.32  200.02
  -5  -3   2 1273.23  233.62
  -5  -3   2 1182.53  197.96
   5   3  -1    6.43    8.41
   5   3  -1    2.81    5.74
   5   3  -1    4.34    3.51
  -5   3   1    5.33    5.49
   5   3  -1    5.91    5.38
  -5   3   1    8.66    7.59
  -5   3   1    7.17    8.10
   5   3  -1    9.13    5.67
  -5   3   1    6.50    6.48
  -5   3   1    5.69    6.66
  -5  -3   1    5.68    6.42
   5  -3  -1   12.07    7.11
  -5  -3   1    6.59    5.00
  -5  -3   1    5.82    8.62
   5  -3  -1    6.58    4.99
   5  -3  -1    6.10    7.24
  -5  -3   1   -0.00   11.43
  -5  -3   1   15.23   11.54
  -5  -3   1    1.78    5.66
   5  -3  -1   13.27    9.05
  -5  -3   1   -0.13    4.97
  -5  -3   1    1.04    6.44
  -5  -3   1    6.40    8.37
   5   3   0 1083.20  161.27
   5   3   0 1029.45  144.26
   5   3   0  693.51   99.82
  -5   3   0 1030.82  173.03
  -5   3   0 1161.94  184.49
  -5   3   0 1079.06  154.42
   5   3   0 1072.23  153.43
   5   3   0 1137.73  163.60
  -5   3   0  972.46  158.95
  -5   3   0 1047.79  152.72
   5   3   0  899.76  117.40
   5   3   0 1007.91  149.59
  -5  -3   0 1126.75  170.71
   5  -3   0 1103.92  154.14
  -5  -3   0 1217.61  180.38
  -5  -3   0 1010.17  152.42
   5  -3   0 1268.01  168.57
   5  -3   0 1168.80  162.82
  -5  -3   0 1004.33  156.69
   5  -3   0 1161.95  162.37
  -5  -3   0 1225.23  185.13
   5  -3   0 1248.20  193.08
   5  -3   0 1152.38  171.88
   5   3   1 2965.64  538.23
  -5   3  -1 3417.67  669.62
  -5   3  -1 3274.38  639.36
   5   3   1 2554.22  498.76
   5   3   1 3031.30  533.10
   5   3   1 3056.38  621.18
   5   3   1 2290.53  454.94
  -5   3  -1 3541.38  734.65
  -5   3  -1 2873.06  508.71
   5   3   1 2944.75  528.25
   5  -3   1 3288.73  598.27
  -5  -3  -1 3330.37  616.30
   5  -3   1 3359.26  621.80
   5  -3   1 3469.13  628.16
   5  -3   1 3083.70  575.11
  -5  -3  -1 3291.46  587.47
   5  -3   1 3281.39  658.81
  -5  -3  -1 3387.61  626.20
  -5  -3  -1 3394.46  614.71
   5   3   2 2393.57  516.26
   5   3   2 2357.24  564.39
  -5   3  -2 3865.09  767.74
   5   3   2 2856.49  692.47
  -5   3  -2 4237.15  930.10
   5   3   2 3177.61  602.48
  -5  -3  -2 3679.67  698.54
   5  -3   2 2950.40  651.24
   5  -3   2 3527.82  803.27
   5  -3   2 3592.83  712.55
   5   3   3  849.60  167.51
  -5   3  -3 1287.55  227.24
   5   3   3 1003.82  168.31
   5   3   3  622.36  161.92
  -5   3  -3 1305.76  279.04
   5   3   3  865.24  213.03
   5  -3   3 1059.58  311.15
   5  -3   3 1064.83  234.42
  -5  -3  -3 1285.37  216.07
   5   3   4   38.60   15.69
  -5   3  -4   50.98   21.75
   5   3   4   42.64   23.19
   5  -3   4   38.25   27.20
   5  -3   4   41.25   21.62
  -5  -3  -4   50.96   21.66
  -5  -3  -4   50.96   20.16
  -5   4   5 1847.56  309.30
  -5   4   5 1813.33  321.26
  -5   4   5 1873.97  325.48
  -5   4   5 1314.61  255.67
   5   4  -5 1403.46  277.44
  -5  -4   5 1839.79  324.98
  -5  -4   5 1966.93  417.91
  -5   4   4  366.62   70.15
   5   4  -4  271.42   60.33
  -5   4   4  261.83   78.33
  -5   4   4  327.43   61.53
  -5   4   4  361.54   59.93
  -5  -4   4  366.35  109.37
  -5  -4   4  259.04   63.18
  -5  -4   4  341.43   64.55
   5   4  -3  145.16   32.49
  -5   4   3  146.85   31.05
  -5   4   3  148.05   31.94
  -5   4   3  121.72   39.26
  -5   4   3  168.69   36.88
  -5   4   3   97.20   32.95
   5   4  -3  126.97   27.55
  -5  -4   3  169.97   36.65
  -5  -4   3  141.32   39.90
  -5  -4   3  182.88   38.29
  -5  -4   3  156.29   44.75
  -5   4   2    1.92   11.10
   5   4  -2    5.82   10.34
  -5   4   2    1.79    6.60
  -5   4   2    7.31    6.99
   5   4  -2   15.44    9.10
  -5   4   2    4.16    8.75
  -5   4   2    2.82    6.90
   5   4  -2    2.57    8.42
  -5   4   2   15.89    7.18
  -5  -4   2    7.52   11.49
  -5  -4   2    6.37    9.00
  -5  -4   2    4.66   11.65
   5  -4  -2    0.62    7.96
  -5  -4   2    3.45    6.99
  -5   4   112236.99 2931.76
  -5   4   1 9815.72 2536.49
  -5   4   110837.92 2692.70
  -5   4   111292.40 2746.93
  -5   4   110252.21 2730.18
   5   4  -1 7119.83 2009.27
   5   4  -1 9639.47 2500.12
   5   4  -1 8840.12 2222.14
   5   4  -1 8135.05 2162.61
   5   4  -1 9564.53 2352.06
  -5  -4   1 9570.49 2558.90
   5  -4  -111818.17 3058.97
   5  -4  -111460.21 2798.36
  -5  -4   1 8078.65 2353.70
  -5  -4   1 5972.95 1707.10
  -5  -4   1 9949.38 2507.34
  -5  -4   111394.65 2805.72
  -5  -4   110332.18 2857.03
   5  -4  -112436.21 3169.60
   5   4   0    9.95    6.42
   5   4   0    6.88    9.29
  -5   4   0    4.55    8.05
  -5   4   0    6.82    5.86
  -5   4   0    8.01   11.63
   5   4   0    2.07    7.14
  -5   4   0    6.41    8.82
   5   4   0    3.99    6.10
  -5   4   0   53.89   12.19
   5   4   0    3.48    6.01
  -5  -4   0    4.45    8.05
   5  -4   0    4.88    7.27
   5  -4   0    4.33    6.92
  -5  -4   0    3.05    8.06
  -5  -4   0   10.45   11.16
   5  -4   0   18.50    6.52
   5  -4   0    5.64    6.03
   5  -4   0   13.50   11.47
  -5  -4   0   41.47    9.67
  -5   4  -1  172.46   25.89
   5   4   1  118.71   25.75
  -5   4  -1  198.92   56.66
  -5   4  -1  180.22   41.27
  -5   4  -1  167.55   43.89
   5   4   1  145.64   41.47
   5   4   1  154.25   27.49
   5   4   1  146.76   22.78
  -5  -4  -1  167.11   34.88
   5  -4   1  170.09   40.50
   5  -4   1  179.12   30.12
   5  -4   1  210.17   37.70
   5  -4   1  187.53   32.19
  -5  -4  -1  168.30   28.29
  -5  -4  -1  186.16   31.17
   5   4   2  835.41  131.50
   5   4   2  504.59  108.46
   5   4   2  684.96  167.18
  -5   4  -2 1086.75  233.88
  -5   4  -2  932.92  171.86
  -5  -4  -2  972.06  155.82
   5  -4   2  880.07  201.21
   5  -4   2  961.17  162.21
   5   4   3 1486.67  366.66
   5   4   3 1782.79  324.68
  -5   4  -3 2364.07  515.27
  -5   4  -3 2229.62  464.16
   5   4   3 1345.77  274.24
  -5  -4  -3 2303.80  414.97
   5  -4   3 1956.75  425.14
   5  -4   3 1844.45  435.67
  -5   4  -4  705.88  132.80
  -5   4  -4  876.07  153.72
   5   4   4  744.72  145.12
   5   4   4  637.85  111.66
  -5  -4  -4  910.20  151.64
   5  -4   4  814.02  162.28
   5  -4   4  774.02  141.69
  -5  -4  -4  978.67  165.47
  -5   5   5  109.05   29.02
   5   5  -5   69.13   29.23
  -5   5   5  112.88   27.64
  -5   5   5   96.17   25.20
  -5  -5   5   89.34   33.19
  -5  -5   5   94.64   29.09
  -5  -5   5  107.66   46.13
  -5   5   4 1578.62  278.14
  -5   5   4 1572.68  276.54
  -5   5   4 1611.82  292.18
   5   5  -4 1516.60  295.01
  -5  -5   4 1299.67  268.85
  -5  -5   4 1673.70  327.70
  -5  -5   4 1564.32  311.42
  -5   5   3 2629.86  493.35
  -5   5   3 2149.02  429.56
  -5   5   3 2472.31  460.40
  -5   5   3 2531.99  475.95
   5   5  -3 2511.55  500.45
  -5  -5   3 2563.58  520.45
  -5  -5   3 2496.92  472.66
  -5  -5   3 2400.33  476.26
  -5  -5   3 2682.14  513.07
   5   5  -2 7997.79 1760.06
  -5   5   2 3896.96 1039.10
   5   5  -2 6640.55 1593.04
  -5   5   2 5743.83 1262.98
  -5   5   2 5860.16 1377.78
  -5   5   2 6614.66 1434.83
   5  -5  -2 5755.74 1300.26
  -5  -5   2 7299.98 1698.11
  -5  -5   2 5920.37 1407.60
  -5  -5   2 4872.09 1225.30
  -5  -5   2 6210.59 1367.37
  -5   5   1    8.12    8.17
  -5   5   1    7.84   14.09
  -5   5   1    7.03    6.89
   5   5  -1   10.04    9.64
  -5   5   1    6.36   11.02
   5   5  -1   14.23   10.63
   5   5  -1   10.87    9.36
   5   5  -1    4.99    6.12
   5   5  -1    5.04    5.93
  -5  -5   1    9.97   14.54
  -5  -5   1    2.32   10.40
  -5  -5   1    8.76    6.47
   5  -5  -1   11.57    8.53
   5  -5  -1   16.42    9.53
  -5  -5   1    7.88   12.95
  -5   5   0 4918.43 1154.50
   5   5   0 5415.75 1098.04
   5   5   0 4086.16  888.99
  -5   5   0 4564.29 1015.73
  -5   5   0 3894.51  905.67
  -5   5   0 4778.12 1111.90
   5   5   0 3465.24  758.77
   5   5   0 5007.12 1031.08
   5   5   0 4428.26 1030.29
  -5   5   0 5523.52 1099.03
   5  -5   0 6856.76 1358.54
   5  -5   0 4401.57  929.06
  -5  -5   0 5048.34 1064.42
  -5  -5   0 5114.50 1132.30
  -5  -5   0 5785.45 1192.55
   5  -5   0 5527.53 1089.92
  -5   5  -1 3217.83  585.90
  -5   5  -1 2284.16  544.85
  -5   5  -1 3483.14  849.42
   5   5   1 3226.18  600.93
  -5   5  -1 3141.70  651.05
   5   5   1 2517.11  564.86
   5  -5   1 2816.43  584.26
   5  -5   1 2829.42  536.02
   5  -5   1 3549.32  646.22
  -5  -5  -1 4662.18  856.48
  -5  -5  -1 3033.19  596.69
  -5  -5  -1 3254.90  605.56
   5   5   2 1765.20  316.28
  -5   5  -2 2108.24  486.15
  -5   5  -2 1965.93  425.83
   5   5   2 1249.98  326.44
  -5  -5  -2 1963.13  358.05
   5  -5   2 1984.88  372.02
   5  -5   2 1864.62  437.80
  -5   5  -3   24.90   19.45
   5   5   3   11.15   24.14
  -5   5  -3   26.75   28.04
   5   5   3   20.74   12.36
   5  -5   3   14.45   27.15
   5  -5   3   22.93   27.32
  -5  -5  -3   16.39   16.78
  -5   5  -4  698.91  115.40
   5   5   4  341.22   61.31
   5   5   4  565.99  104.94
  -5   5  -4  592.13  101.72
  -5  -5  -4  697.69  127.96
   5  -5   4  622.72  144.44
  -5  -5  -4  740.24  114.98
   5  -5   4  601.11  101.57
  -5   6   5   80.77   24.27
  -5   6   5   67.87   20.07
  -5   6   5   71.26   24.48
   5   6  -5   69.45   26.98
  -5  -6   5   77.07   35.73
  -5  -6   5   66.10   29.50
  -5  -6   5   82.58   25.18
  -5   6   4 2493.10  483.46
   5   6  -4 2480.05  517.44
  -5   6   4 2517.05  479.93
  -5  -6   4 2365.72  499.90
  -5  -6   4 2424.12  473.86
  -5  -6   4 2704.98  554.17
  -5   6   3   46.97   29.83
  -5   6   3   54.76   18.75
  -5   6   3   48.18   22.21
   5   6  -3   47.97   24.89
  -5  -6   3   52.49   19.85
  -5  -6   3   57.28   25.81
  -5  -6   3   44.40   19.50
  -5  -6   3   37.82   20.44
  -5   6   2 4272.28  940.14
   5   6  -2 4815.95 1076.35
  -5   6   2 4494.81  877.23
  -5   6   2 3478.73  691.04
  -5   6   2 2899.41  686.78
  -5  -6   2 3489.27  793.64
  -5  -6   2 4040.86  795.16
  -5  -6   2 3871.05  869.91
   5  -6  -2 3597.43  741.93
  -5  -6   2 5035.78 1062.72
  -5   6   1  684.00  101.59
  -5   6   1  435.68  114.87
  -5   6   1  708.78  100.72
   5   6  -1  487.96   80.94
   5   6  -1  490.73  115.92
   5   6  -1  598.92  107.29
  -5   6   1  365.58   97.26
   5   6  -1  720.60  124.01
  -5  -6   1  623.25   86.25
   5  -6  -1  712.40  108.98
  -5  -6   1  677.52  135.84
  -5  -6   1  713.04  131.94
   5  -6  -1  793.39  119.15
  -5   6   0 2972.52  664.53
   5   6   0 2965.42  646.66
  -5   6   0 4046.20  761.00
  -5   6   0 2782.37  680.64
   5   6   0 3968.90  764.72
   5   6   0 3552.51  784.74
  -5   6   0 3065.13  721.45
  -5  -6   0 3788.46  751.35
   5  -6   0 3187.66  643.38
   5  -6   0 4341.22  792.03
   5  -6   0 5417.12  995.17
  -5  -6   0 3461.09  753.44
  -5   6  -1   61.20   34.40
  -5   6  -1   62.90   41.68
   5   6   1   46.44   29.27
   5   6   1   69.11   29.33
  -5   6  -1   81.46   18.18
  -5   6  -1   66.13   29.34
   5   6   1   67.93   19.43
   5  -6   1   46.80   21.84
  -5  -6  -1   56.25   16.34
  -5  -6  -1   92.65   26.38
   5  -6   1   67.67   19.37
   5   6   2 1972.86  546.05
   5   6   2 3052.59  612.30
  -5   6  -2 3397.68  845.13
  -5   6  -2 3282.66  713.34
  -5  -6  -2 3456.23  695.30
   5  -6   2 3167.22  775.16
   5  -6   2 3368.38  698.57
   5  -6   2 4570.82  916.31
   5   6   3   65.77   37.15
   5   6   3   77.97   23.31
  -5   6  -3   85.17   34.41
  -5   6  -3   88.97   48.12
   5  -6   3   73.70   45.13
   5  -6   3   59.36   28.35
  -5  -6  -3   88.61   29.66
   5   6   4   50.49   23.15
  -5   6  -4   63.12   21.85
  -5   6  -4   69.53   21.55
  -5  -6  -4   79.21   22.27
  -5  -6  -4   71.22   28.33
   5  -6   4   61.36   30.31
   5  -6   4   57.97   23.85
   5   7  -5   28.31   32.95
  -5   7   5   54.19   20.57
  -5   7   5   31.15   13.32
  -5  -7   5   16.98   25.18
   5  -7  -5   38.10   19.83
  -5  -7   5   60.98   20.10
  -5  -7   5   51.68   23.67
  -5   7   4   15.11   11.77
  -5   7   4   19.41   12.08
   5   7  -4   12.71   16.62
  -5   7   4   17.89   14.39
  -5  -7   4    7.61   12.63
  -5  -7   4   14.52   16.51
  -5  -7   4    5.00   14.38
   5   7  -3 5238.59 1269.75
  -5   7   3 4934.11 1151.21
  -5   7   3 5049.93 1113.22
  -5   7   3 5140.43 1128.22
  -5  -7   3 5098.41 1135.71
  -5  -7   3 3954.82  946.91
  -5  -7   3 4660.87 1094.75
  -5  -7   3 5859.70 1340.23
  -5   7   2 1522.36  242.23
   5   7  -2 1557.43  315.30
  -5   7   2 1281.30  252.38
  -5   7   2 1092.02  223.15
   5  -7  -2 1022.26  184.09
  -5  -7   2 1275.26  246.70
  -5  -7   2 1071.74  201.23
  -5  -7   2 1741.02  306.54
   5   7  -1    3.24    8.81
  -5   7   1    0.49   11.83
  -5   7   1   -0.03    6.66
  -5   7   1    3.53    6.35
  -5   7   1   -0.13    9.05
   5   7  -1    6.63    8.57
  -5  -7   1    4.01   11.41
   5  -7  -1    1.16    7.74
  -5  -7   1    7.52   11.02
   5  -7  -1    9.12    6.05
   5   7   0 2270.29  387.70
  -5   7   0 1818.70  403.30
   5   7   0 2335.58  456.61
  -5   7   0 2364.40  390.85
   5   7   0 1220.49  283.14
  -5   7   0 1651.02  377.36
  -5   7   0 1642.29  380.30
   5  -7   0 1542.90  287.83
  -5  -7   0 2136.34  376.91
   5  -7   0 2586.56  407.62
  -5  -7   0 2318.02  437.45
  -5   7  -1 5557.67 1310.21
  -5   7  -1 5961.07 1255.37
   5   7   1 3419.33 1000.79
  -5   7  -1 5468.49 1358.95
   5   7   1 5964.67 1403.11
   5   7   1 5997.99 1284.11
  -5   7  -1 5176.39 1355.82
   5  -7   1 3418.41  844.38
  -5  -7  -1 7099.24 1568.05
   5  -7   1 5941.75 1250.69
  -5   7  -2    0.28   16.83
   5   7   2   -0.50   18.90
  -5   7  -2   10.95   25.01
   5   7   2   40.83   11.31
   5  -7   2    8.59   14.90
   5  -7   2    2.62   20.91
   5  -7   2    1.93   10.55
  -5  -7  -2    1.90   13.06
   5   7   3    3.55   15.74
   5   7   3   22.79   10.18
  -5   7  -3    4.42   21.87
  -5   7  -3    2.58   15.57
   5  -7   3   18.32   18.27
  -5  -7  -3    5.31   20.26
   5  -7   3    0.85   12.70
  -5   7  -4  398.48   67.18
  -5   7  -4  386.80   66.39
   5   7   4  341.59   59.23
   5  -7   4  313.60   55.59
  -5  -7  -4  408.87   75.41
   5  -7   4  380.30   64.02
  -5  -7  -4  438.85   70.61
   5   8  -5 1508.79  292.05
  -5   8   5 1285.31  232.31
  -5   8   5  899.85  183.31
   5  -8  -5 1536.51  253.90
  -5  -8   5 1665.74  295.78
  -5  -8   5 1388.90  265.47
  -5   8   4   15.06   16.77
   5   8  -4    8.82   29.09
  -5   8   4   17.25   12.14
  -5   8   4   12.59   11.14
  -5  -8   4   11.02   13.17
  -5  -8   4   13.02   14.10
  -5  -8   4    9.19   16.89
  -5   8   3  158.20   56.71
   5   8  -3  199.19   68.22
  -5   8   3  167.17   37.36
  -5  -8   3  197.98   53.20
  -5  -8   3  122.17   38.94
  -5  -8   3  164.76   36.02
   5  -8  -3  111.04   32.83
   5   8  -2  314.30   84.02
  -5   8   2  249.51   64.41
  -5   8   2  328.18   65.49
  -5   8   2  339.97   58.70
   5  -8  -2  198.68   45.18
  -5  -8   2  303.50   70.92
  -5  -8   2  383.15   79.91
  -5   8   1 6659.21 1533.95
   5   8  -1 6292.49 1575.57
  -5   8   1 6520.01 1456.68
  -5   8   1 4800.48 1296.23
   5   8  -1 7158.50 1764.02
  -5  -8   1 7359.83 1791.13
  -5  -8   1 5410.77 1409.70
  -5   8   0  280.31   84.85
   5   8   0  161.26   62.41
   5   8   0  485.14  103.77
  -5   8   0  431.46   72.35
  -5   8   0  306.85   78.68
   5   8   0  502.63   86.27
  -5   8   0  357.80   99.59
  -5  -8   0  544.00   95.03
   5  -8   0  525.89   74.73
  -5  -8   0  456.58   93.99
  -5   8  -1   56.16   47.75
   5   8   1   27.70   28.84
  -5   8  -1   60.53   36.32
  -5   8  -1   48.60   40.21
   5   8   1   80.12   33.45
  -5   8  -1   74.71   20.24
   5   8   1   62.81   21.39
   5  -8   1   62.63   18.78
  -5  -8  -1   75.77   26.82
   5  -8   1   38.51   19.05
  -5   8  -2   22.22   23.78
   5   8   2   47.66   17.25
  -5   8  -2   30.72   26.03
  -5   8  -2   32.30   36.84
   5   8   2   16.83   26.68
  -5  -8  -2   32.07   19.90
   5  -8   2   25.75   27.92
   5  -8   2   22.35   16.21
   5  -8   2   60.34   24.79
   5   8   3 1288.44  219.26
  -5   8  -3 1408.05  258.33
  -5   8  -3 1570.71  321.06
   5   8   3  900.55  202.22
   5  -8   3 1274.98  261.87
  -5  -8  -3 1426.64  267.70
   5  -8   3 1170.89  223.13
  -5   8  -4  652.29  100.83
   5   8   4  538.50   83.46
  -5   8  -4  622.17   95.48
  -5  -8  -4  823.67  116.81
   5  -8   4  605.06   88.00
  -5   9   5  795.76  113.70
   5   9  -5  666.25  123.69
   5  -9  -5  667.52  112.42
  -5  -9   5 1005.46  154.43
  -5   9   4  726.20  145.01
  -5   9   4  733.32  150.85
   5   9  -4  923.70  201.34
  -5  -9   4  764.93  143.66
   5  -9  -4  771.24  136.56
  -5  -9   4  940.95  179.69
  -5   9   3   77.01   32.13
   5   9  -3   86.44   46.34
   5  -9  -3   80.78   23.17
  -5  -9   3   50.47   27.18
  -5  -9   3   60.00   21.97
  -5  -9   3   95.10   36.12
  -5   9   2 1454.67  256.34
  -5   9   2 1523.29  270.19
   5   9  -2 1332.14  292.96
  -5   9   2 1140.25  243.48
  -5  -9   2 1720.04  332.07
  -5  -9   2 1379.18  281.35
   5   9  -1   90.57   50.44
  -5   9   1   68.13   38.06
  -5   9   1   89.22   28.49
   5  -9  -1  135.61   35.34
  -5  -9   1   62.28   36.26
  -5  -9   1  101.93   40.22
  -5   9   0 1732.71  335.81
  -5   9   0 1353.81  332.50
   5   9   0 1894.86  400.55
  -5   9   0 1333.51  294.24
  -5   9   0 1118.76  319.06
   5   9   0 1804.56  330.28
  -5  -9   0 1876.60  375.26
   5  -9   0 2080.82  347.02
  -5  -9   0 2015.42  372.64
  -5   9  -1  178.19   37.55
  -5   9  -1  211.54   67.83
   5   9   1  200.82   41.38
   5   9   1   63.76   44.58
  -5   9  -1  146.61   63.89
   5   9   1  171.91   57.37
  -5   9  -1  179.99   54.39
   5  -9   1  162.72   34.73
  -5  -9  -1  193.51   49.09
   5   9   2  453.84  139.32
  -5   9  -2  990.06  189.16
   5   9   2  921.38  156.70
  -5   9  -2  989.39  189.21
  -5   9  -2  920.43  228.44
  -5  -9  -2 1112.88  188.14
   5  -9   2 1503.30  244.56
   5  -9   2  730.80  169.97
   5  -9   2  723.49  133.26
   5   9   3 2069.09  369.66
   5   9   3 1571.21  330.55
  -5   9  -3 2352.36  470.25
  -5   9  -3 2242.08  422.16
   5  -9   3 1932.45  380.67
   5  -9   3 2385.35  426.83
   5  -9   3 1720.75  349.72
  -5  -9  -3 2462.70  454.12
  -5  10   4  309.44   57.83
  -5  10   4  370.04   59.82
   5  10  -4  366.37   82.37
  -5 -10   4  271.87   59.96
  -5 -10   4  454.90   92.56
   5 -10  -4  268.24   59.90
  -5  10   3  584.25  102.51
  -5  10   3  561.15   98.48
   5  10  -3  528.13  129.25
  -5 -10   3  684.39  137.49
  -5 -10   3  420.65   98.75
  -5  10   2  406.72   66.63
   5  10  -2  350.50   87.41
  -5  10   2  416.32   78.13
  -5  10   2  294.37   78.01
  -5 -10   2  433.26   99.34
  -5 -10   2  373.80   91.52
   5  10  -1   14.65   14.16
  -5  10   1    3.28   16.41
  -5  10   1    7.57   11.55
  -5 -10   1   11.54   16.81
  -5 -10   1    3.77   14.30
   5 -10  -1    9.69   11.79
  -5  10   0  263.57   89.63
  -5  10   0  303.28   60.98
   5  10   0  341.31   88.98
  -5  10   0  246.36   86.78
  -5  10   0  173.59   66.18
   5  10   0  319.82   63.12
  -5 -10   0  326.90   78.36
   5 -10   0  446.97   93.37
  -5  10  -1 1181.71  201.44
  -5  10  -1 1101.18  259.16
   5  10   1 1067.87  236.54
  -5  10  -1  849.96  228.91
  -5  10  -1 1143.13  230.87
   5  10   1 1214.50  209.66
  -5 -10  -1 1218.69  224.34
   5 -10   1 1015.86  178.37
   5  10   2  720.66  118.74
  -5  10  -2  738.44  129.91
  -5  10  -2  781.80  142.89
   5  10   2  295.99   97.48
  -5  10  -2  746.32  172.02
   5 -10   2 1138.44  175.36
  -5 -10  -2  855.01  140.55
   5 -10   2  478.42   91.87
   5  10   3  134.95   27.30
   5  10   3   79.33   24.46
  -5  10  -3  139.31   36.54
  -5  10  -3  144.48   40.64
   5 -10   3  140.65   26.41
  -5 -10  -3  171.74   33.53
   5  11  -4  526.97   98.44
  -5  11   4  573.92   77.26
  -5  11   4  461.14   97.02
  -5 -11   4  670.88  132.34
  -5  11   3   12.27   15.31
   5  11  -3   20.66   20.34
  -5  11   3   35.60   11.75
  -5 -11   3   30.03   19.39
  -5 -11   3   28.38   25.44
  -5  11   2  142.66   38.33
  -5  11   2  105.27   42.50
   5  11  -2  143.16   64.27
  -5 -11   2  139.74   50.04
   5 -11  -2  184.05   36.20
  -5 -11   2  152.02   51.98
  -5  11   1   18.22   26.34
   5  11  -1   19.93   17.74
  -5  11   1   17.84   24.09
   5  11  -1   18.71   20.81
  -5 -11   1   38.67   21.26
   5 -11  -1   23.43   15.43
  -5 -11   1   25.97   24.22
  -5  11   0  171.21   71.78
   5  11   0  209.47   65.12
   5  11   0  212.53   69.70
  -5  11   0  215.68   47.05
  -5  11   0  159.20   46.56
   5 -11   0  245.20   54.16
  -5 -11   0  205.36   60.68
  -5  11  -1   41.60   33.78
  -5  11  -1   17.49   32.98
   5  11   1   40.08   28.63
  -5  11  -1   47.48   25.03
   5  11   1   51.09   19.92
   5 -11   1   67.51   26.72
   5 -11   1   37.20   19.10
  -5  11  -2  784.94  179.63
  -5  11  -2  760.35  138.95
   5  11   2  808.50  140.71
  -5  11  -2  878.16  165.47
   5 -11   2 1187.99  193.64
  -5 -11  -2  956.10  164.13
  -5  11  -3  146.00   33.90
   5  11   3  130.97   25.41
  -5  11  -3  156.03   30.54
   5 -11   3  143.15   22.38
  -5 -11  -3  161.27   30.50
   5  12  -3  105.05   48.56
  -5  12   3   95.12   27.29
  -5 -12   3  121.14   38.21
   5 -12  -3  131.14   26.54
  -5 -12   3  136.00   46.94
   5  12  -2   10.09   12.92
  -5  12   2    0.50   14.02
  -5  12   2    5.84   17.82
  -5 -12   2    7.14   16.38
   5 -12  -2   16.79    9.06
  -5 -12   2   12.83   16.58
  -5  12   1    4.46   12.51
  -5  12   1    3.64    8.27
   5  12  -1    2.38   11.35
   5  12  -1    4.05    8.40
  -5 -12   1    8.53   12.18
  -5 -12   1    1.77   15.79
   5 -12  -1    0.81    6.63
  -5  12   0  133.74   33.16
   5  12   0  110.62   49.01
   5  12   0  130.14   34.47
  -5  12   0  103.42   31.12
  -5  12   0   99.77   56.64
  -5 -12   0  126.55   43.90
   5  12   1  283.75   70.41
   5  12   1  275.36   56.19
  -5  12  -1  297.85   61.32
  -5  12  -1  309.89   77.02
  -5  12  -1  194.10   65.99
   5 -12   1  363.91   66.47
  -5  12  -2 1091.38  185.76
   5  12   2  954.21  163.08
  -5  12  -2  999.08  193.06
  -5 -12  -2 1170.02  191.75
   5 -12   2 1279.11  202.40
  -5  13   3   34.65   14.33
   5  13  -3   55.49   17.56
  -5 -13   3   74.26   21.94
  -5 -13   3   75.84   25.99
  -5  13   2  622.13  137.49
   5  13  -2 1020.41  167.28
  -5  13   2  901.65  149.64
  -5 -13   2  871.36  177.00
  -5 -13   2 1086.27  189.42
   5  13  -1    5.67    9.89
  -5  13   1    5.44    9.50
   5  13  -1    9.46   13.12
  -5  13   1    5.77   14.87
  -5 -13   1   11.90   14.23
  -5  13   0  666.23  150.04
  -5  13   0  831.55  132.54
   5  13   0  670.80  151.64
  -5  13   0  619.78  101.46
   5  13   0  858.20  133.91
  -5 -13   0  653.09  124.79
   5  13   1   65.33   27.21
  -5  13  -1   47.28   20.36
  -5  13  -1   70.84   24.36
  -5  13  -1   65.12   18.33
  -5 -13  -1    2.50   18.60
   5 -13   1   70.61   20.24
  -5  13  -2   43.19   15.80
   5  13   2   46.21   13.56
  -5  13  -2   46.88   14.91
   5 -13   2   52.88   13.69
  -5 -13  -2   41.38   14.54
   5  14  -2  394.52   61.79
  -5  14   2  345.10   56.58
  -5  14   2  266.07   55.12
  -5 -14   2  439.46   76.44
  -5  14   1  433.37  102.89
  -5  14   1  575.04   93.64
   5  14  -1  514.49  105.05
   5  14  -1 1130.29  145.79
  -5 -14   1  540.28  102.63
   5  14   0  676.42  125.59
  -5  14   0  491.31   76.01
   5  14   0 1142.72  150.44
  -5  14   0  691.19  131.99
  -5 -14   0  666.15  103.44
   5 -14   0  712.60  107.10
  -5  14  -1  473.15   74.02
   5  14   1  394.62   62.32
  -5  14  -1  389.70   55.13
   5 -14   1  451.35   66.23
  -5 -14  -1  430.55   68.50
   5  15  -1   -0.72    4.25
  -5  15   1    0.58    4.98
  -5 -15   1    1.41    3.97
   5 -15  -1    1.50    3.11
  -6   0   5    0.31   11.49
   6   0  -5    2.47    9.97
  -6   0   5    2.63    7.12
  -6   0   4  169.05   57.03
  -6   0   4  191.60   50.94
   6   0  -4  142.61   48.40
  -6   0   4  137.24   36.82
  -6   0   3    2.27    6.16
   6   0  -3    0.32   11.75
  -6   0   3    2.58    8.34
  -6   0   3   -0.49    5.90
  -6   0   3    6.56    7.91
  -6   0   3    6.24   12.09
   6   0  -212909.17 3634.43
  -6   0   210639.24 2951.07
  -6   0   212534.96 3418.13
  -6   0   211544.31 3147.66
  -6   0   210281.69 2812.47
  -6   0   210908.91 3073.57
  -6   0   1    3.08    6.33
   6   0  -1   -0.08    4.13
   6   0  -1    4.07    5.89
  -6   0   1    1.06    6.63
   6   0  -1    1.08    3.79
  -6   0   1   57.32    8.17
  -6   0   1    1.60    3.93
  -6   0   0   19.11   10.10
  -6   0   0    8.78    8.64
   6   0   0    0.41   10.14
   6   0   0   14.44    9.03
   6   0   0   18.47    8.55
  -6   0   0    9.15   10.22
  -6   0  -1   -2.72    5.17
   6   0   1    1.41    3.29
  -6   0  -1   -0.73    4.81
  -6   0  -1    0.48    3.74
   6   0   1   -2.28    3.86
   6   0   2 4416.47  993.99
  -6   0  -2 4642.50 1021.21
   6   0   2 4161.05  916.27
   6   0   2 4472.57 1015.46
  -6   0  -2 4680.41 1046.35
   6   0   3   -0.25    4.87
  -6   0  -3  -19.45    7.88
   6   0   3    2.25    9.31
   6   0   3    8.51    5.89
   6   0   4    3.92    5.39
   6   0   4    1.79    8.30
  -6   0  -4    3.04    7.02
   6   1  -5 1030.75  180.32
  -6   1   5  598.15  143.61
  -6   1   5  739.75  126.12
  -6   1   5  616.09  132.23
  -6  -1   5  729.20  161.77
  -6  -1   5  709.57  129.35
   6  -1  -5  683.48  148.12
   6   1  -4 1643.29  348.13
  -6   1   4 1852.99  348.59
  -6   1   4 1765.39  396.62
  -6   1   4 1600.34  305.06
  -6  -1   4 1725.42  368.15
   6  -1  -4 1634.24  347.47
  -6  -1   4 1888.02  387.81
  -6   1   3  935.04  162.38
  -6   1   3  765.90  179.34
  -6   1   3  738.74  127.46
   6   1  -3 1170.14  228.54
  -6   1   3  846.19  183.65
  -6   1   3  801.76  144.25
  -6  -1   3  946.98  183.40
  -6  -1   3  904.46  199.00
   6  -1  -3  927.10  199.80
  -6  -1   3  883.56  147.89
  -6  -1   3 1462.55  264.66
  -6   1   2    7.73    7.16
  -6   1   2   10.42    9.59
   6   1  -2    8.77   10.09
  -6   1   2   10.20    7.83
  -6   1   2    5.76    9.24
  -6   1   2    6.09    7.11
  -6  -1   2   14.51    8.98
  -6  -1   2    3.23   10.17
   6  -1  -2    6.04   11.18
  -6  -1   2    2.55    5.19
  -6  -1   2    0.04   11.11
  -6  -1   2    1.48    9.65
  -6   1   1 2197.04  395.79
  -6   1   1 2433.67  427.36
   6   1  -1 1860.78  317.33
   6   1  -1 2276.40  387.97
  -6   1   1 2210.47  359.93
   6   1  -1 2166.88  345.24
  -6   1   1 2415.64  413.24
   6  -1  -1 2275.41  392.46
   6  -1  -1 2275.27  369.50
   6  -1  -1 2018.86  349.32
  -6  -1   1 2466.83  421.72
  -6  -1   1 2315.02  413.37
  -6  -1   1 2279.02  400.76
  -6   1   0 4856.93 1028.02
   6   1   0 4975.66 1018.54
   6   1   0 4918.33 1015.35
  -6   1   0 4269.30  894.58
  -6   1   0 4894.78 1012.79
   6   1   0 4264.30  854.15
   6  -1   0 4391.92  874.85
  -6  -1   0 4609.16  955.03
  -6  -1   0 4748.57  972.23
   6  -1   0 4498.73  936.08
  -6  -1   0 4902.04 1032.72
   6  -1   0 4939.61 1026.21
  -6   1  -1 1996.47  364.25
   6   1   1 1969.13  361.80
  -6   1  -1 2099.91  394.74
   6   1   1 1850.65  328.20
   6   1   1 2525.78  446.09
  -6   1  -1 1889.04  353.56
  -6  -1  -1 2029.56  349.15
   6  -1   1 1909.46  332.48
   6  -1   1 2125.99  391.24
  -6  -1  -1 1955.66  355.79
  -6  -1  -1 2067.73  371.11
   6  -1   1 1893.08  336.24
   6   1   2  790.97  147.76
   6   1   2  714.64  139.12
   6   1   2  765.38  132.53
  -6   1  -2  848.10  190.42
  -6   1  -2  873.87  155.97
  -6  -1  -2  795.82  145.61
   6  -1   2  792.49  137.90
  -6  -1  -2  873.41  159.17
   6  -1   2  829.90  158.40
   6  -1   2  771.00  141.16
   6   1   3 1148.17  203.39
   6   1   3 1148.28  215.79
  -6   1  -3 1108.78  247.47
   6   1   3 1193.48  226.44
  -6   1  -3 1281.11  237.84
   6  -1   3 1267.31  271.15
   6  -1   3 1180.90  209.88
   6  -1   3 1157.85  218.34
  -6  -1  -3 1358.93  241.06
   6   1   4  327.22   52.12
   6   1   4  305.12   48.88
  -6   1  -4  354.37   60.72
   6   1   4  286.46   46.31
   6  -1   4  334.63   51.99
   6  -1   4  342.25   56.99
  -6  -1  -4  354.02   61.73
  -6   2   5 1082.62  203.54
   6   2  -5 1569.92  272.55
  -6   2   5 1119.35  239.45
  -6   2   5 1388.88  230.75
   6  -2  -5 1181.08  248.29
  -6  -2   5 1391.03  260.42
  -6  -2   5 1311.65  269.20
  -6   2   4  215.09   67.86
  -6   2   4  225.86   52.10
   6   2  -4  274.77   65.59
  -6   2   4  267.70   57.18
  -6  -2   4  248.51   69.01
   6  -2  -4  270.59   69.55
  -6  -2   4  235.05   74.86
  -6  -2   4  280.67   70.22
  -6   2   3 3289.15  640.23
   6   2  -3 4950.62 1007.64
  -6   2   3 2847.55  602.99
  -6   2   3 2593.54  577.86
  -6   2   3 2467.94  554.38
  -6  -2   3 2798.00  550.47
  -6  -2   3 4065.73  953.90
   6  -2  -3 3236.54  715.49
  -6  -2   3 3052.84  689.51
  -6  -2   3 2933.28  660.97
  -6   2   2  463.09   82.96
  -6   2   2  515.86   78.60
  -6   2   2  494.14   84.82
  -6   2   2  463.25   76.23
   6   2  -2  611.25   96.15
  -6   2   2  507.55   86.66
   6  -2  -2  507.38  103.60
  -6  -2   2  468.45   84.04
  -6  -2   2  512.20   82.77
  -6  -2   2  409.90   87.17
  -6  -2   2  481.71   91.61
  -6   2   1 4703.14  995.57
   6   2  -1 4591.57  941.94
  -6   2   1 4546.80  907.62
  -6   2   1 4675.83  965.02
  -6   2   1 4603.09  978.37
  -6  -2   1 4674.98  967.38
   6  -2  -1 4729.32  986.32
  -6  -2   1 4606.04  992.36
  -6  -2   1 4833.94 1007.46
   6   2   0  193.97   34.03
   6   2   0  229.50   36.30
  -6   2   0  191.45   34.28
   6   2   0  161.19   22.86
  -6   2   0  225.49   40.06
   6   2   0  154.02   24.00
  -6   2   0  215.41   41.76
  -6  -2   0  192.59   47.28
  -6  -2   0  200.32   38.41
   6  -2   0  190.36   28.94
   6  -2   0  218.53   38.36
  -6  -2   0  171.25   29.23
   6  -2   0  204.01   31.03
  -6   2  -1 4254.98  915.85
   6   2   1 4244.95  897.22
  -6   2  -1 4120.07  859.68
  -6   2  -1 4125.50  848.26
   6   2   1 3495.16  721.75
   6   2   1 3817.66  796.03
  -6  -2  -1 3958.14  793.01
   6  -2   1 4240.35  894.48
   6  -2   1 3968.78  799.48
   6  -2   1 3854.07  787.68
  -6  -2  -1 3994.63  828.11
  -6  -2  -1 4063.37  840.61
  -6   2  -2   17.19   15.34
  -6   2  -2   20.06   17.31
   6   2   2   11.11   17.24
   6   2   2   18.63   13.07
   6   2   2   14.74   10.87
  -6  -2  -2   19.85   15.27
  -6  -2  -2   17.86   12.83
   6  -2   2   16.82   13.25
   6  -2   2   17.75   13.10
   6  -2   2   29.31   17.47
  -6   2  -3  400.81   79.59
   6   2   3  389.25   80.50
   6   2   3  331.17   62.88
  -6   2  -3  441.51   84.19
   6   2   3  312.44   67.44
   6  -2   3  330.87   67.93
   6  -2   3  397.39  107.31
  -6  -2  -3  404.64   76.53
   6  -2   3  419.80   74.05
   6   2   4 1253.49  195.76
   6   2   4  923.60  148.07
   6   2   4 1076.08  168.56
  -6   2  -4 1350.02  215.14
  -6  -2  -4 1350.84  215.54
   6  -2   4 1250.18  192.38
   6  -2   4 1334.62  210.30
  -6   3   5  124.01   29.20
  -6   3   5  168.73   31.38
  -6   3   5  124.57   52.86
  -6  -3   5  138.42   48.94
  -6  -3   5  126.28   40.88
   6  -3  -5  139.75   49.59
  -6   3   4 1032.45  180.28
   6   3  -4 1037.87  216.42
  -6   3   4  828.78  166.01
  -6   3   4  947.06  176.11
  -6  -3   4  905.81  217.18
   6  -3  -4 1031.33  209.48
  -6  -3   4  977.72  202.66
  -6  -3   4 1115.25  259.64
  -6   3   3 1669.72  340.95
   6   3  -3 2801.21  534.50
  -6   3   3 1328.53  289.16
  -6   3   3 1924.44  335.80
  -6   3   3 1611.11  324.06
  -6  -3   3 1643.82  361.81
   6  -3  -3 1867.68  387.31
  -6  -3   3 2110.71  458.11
  -6  -3   3 1681.39  365.22
  -6  -3   3 1685.75  298.75
  -6   3   2   95.17   29.69
  -6   3   2  103.02   28.80
  -6   3   2   89.39   22.99
  -6   3   2  113.74   25.48
   6   3  -2  137.08   28.84
  -6   3   2   96.28   23.16
  -6  -3   2  107.53   38.20
   6  -3  -2  117.27   39.56
  -6  -3   2   87.27   30.95
  -6  -3   2  119.20   27.40
  -6  -3   2   88.50   27.75
  -6   3   1 1010.31  169.71
   6   3  -1  919.17  140.94
  -6   3   1  949.81  141.18
  -6   3   1  958.01  159.62
  -6   3   1  970.83  151.11
  -6   3   1 1018.03  151.06
   6  -3  -1 1053.47  164.96
  -6  -3   1  973.69  151.91
  -6  -3   1  974.27  169.66
  -6  -3   1 1081.84  173.38
  -6   3   0 2801.16  521.00
  -6   3   0 2444.36  422.52
  -6   3   0 2261.29  430.45
  -6   3   0 2850.34  543.76
   6   3   0 2628.99  471.84
   6   3   0 2556.76  465.02
  -6  -3   0 2886.31  511.81
   6  -3   0 2691.97  492.35
  -6  -3   0 2334.81  426.40
   6  -3   0 2512.18  441.94
  -6  -3   0 2659.94  488.06
   6  -3   0 2657.25  454.59
  -6   3  -1   31.56   13.56
   6   3   1   21.52   11.95
   6   3   1   30.33   15.15
  -6   3  -1   26.13   18.18
  -6   3  -1   15.35   15.85
   6  -3   1   31.40   12.09
   6  -3   1   19.30   15.83
   6  -3   1   23.98   10.71
  -6  -3  -1   28.37   12.31
  -6  -3  -1   28.06   12.45
  -6  -3  -1   19.21   15.20
  -6   3  -2   90.24   33.56
   6   3   2   90.67   44.30
  -6   3  -2   98.19   29.33
   6   3   2   54.09   21.67
   6   3   2   60.72   19.40
   6  -3   2   87.91   32.64
   6  -3   2   80.91   25.41
   6  -3   2   62.48   23.17
  -6  -3  -2   91.08   27.39
  -6   3  -3  943.88  175.53
  -6   3  -3 1025.37  175.40
   6   3   3  911.78  167.20
   6   3   3  695.35  122.13
   6   3   3  657.76  125.09
  -6  -3  -3  949.07  165.00
   6  -3   3  940.14  158.50
   6  -3   3  953.69  177.02
   6   3   4  428.31   67.48
   6   3   4  591.21   88.74
  -6   3  -4  629.93   96.88
  -6  -3  -4  607.19   94.77
   6  -3   4  616.50  111.13
   6  -3   4  575.13   84.85
  -6   4   5  118.33   37.77
  -6   4   5  129.33   36.30
  -6   4   5  104.88   21.48
  -6  -4   5  130.37   44.86
  -6  -4   5  129.56   38.46
   6  -4  -5  128.06   44.10
  -6   4   4   50.25   15.98
  -6   4   4   27.39   16.07
  -6   4   4   21.59   19.39
  -6  -4   4   23.39   23.34
   6  -4  -4   18.82   23.89
  -6  -4   4   22.93   26.43
  -6  -4   4   18.97   28.03
   6   4  -3  933.61  159.35
  -6   4   3  611.17  106.21
  -6   4   3  613.85  164.86
  -6   4   3  673.70  110.46
  -6   4   3  416.71  108.90
  -6  -4   3  616.37  136.36
  -6  -4   3  578.61  100.63
  -6  -4   3  622.47  160.43
   6  -4  -3  645.57  138.79
  -6  -4   3  618.70  141.90
   6   4  -2 1409.61  214.36
  -6   4   2  742.36  132.61
  -6   4   2  910.08  157.28
  -6   4   2 1076.87  195.93
  -6   4   2 1122.41  173.46
  -6   4   2 1077.69  188.10
   6  -4  -2 1119.31  217.95
  -6  -4   2  939.99  171.89
  -6  -4   2 1178.60  192.55
  -6  -4   2 1067.15  232.46
  -6   4   1  372.00   81.90
  -6   4   1  373.00   57.41
   6   4  -1  385.99   60.32
  -6   4   1  406.08   61.15
  -6   4   1  420.80   77.50
   6  -4  -1  455.43   71.16
   6  -4  -1  432.34   68.95
  -6  -4   1  414.51   91.15
  -6  -4   1  394.02   76.69
  -6  -4   1  376.32   59.28
  -6   4   0   27.30    8.37
   6   4   0   25.82    9.70
   6   4   0   23.34   11.00
  -6   4   0   15.92   15.11
  -6   4   0   10.87   17.06
  -6   4   0   20.38   14.47
   6  -4   0   23.92    9.14
  -6  -4   0   19.36   12.05
   6  -4   0   21.54    9.15
   6  -4   0   22.30   11.77
  -6  -4   0   17.59   11.76
  -6  -4   0   18.42   10.04
  -6   4  -1  863.08  148.79
  -6   4  -1  913.40  152.53
   6   4   1  678.67  115.86
   6   4   1  858.59  150.71
  -6   4  -1  885.04  170.08
  -6  -4  -1  784.86  122.86
  -6  -4  -1  860.50  138.28
   6  -4   1  768.45  121.97
   6  -4   1  892.47  153.66
  -6  -4  -1  833.69  137.32
   6  -4   1  881.33  136.81
   6   4   2 1039.97  204.40
   6   4   2  835.73  164.50
  -6   4  -2 1110.96  228.28
  -6   4  -2 1143.37  209.05
   6  -4   2 1128.98  198.12
  -6  -4  -2 1261.87  214.62
   6  -4   2 1104.95  217.00
   6   4   3 2245.20  451.77
  -6   4  -3 2493.64  498.06
  -6   4  -3 2508.78  479.44
   6   4   3 1756.33  352.17
   6  -4   3 2388.31  474.25
   6  -4   3 2393.56  449.48
  -6  -4  -3 2607.66  485.01
   6   4   4  275.05   45.95
  -6   4  -4  293.65   49.32
   6  -4   4  273.09   46.17
   6  -4   4  286.13   43.01
  -6  -4  -4  304.46   48.90
  -6   5   5  330.30   51.38
  -6   5   5  305.77   67.77
  -6  -5   5  348.23   63.31
  -6  -5   5  323.55   70.53
   6  -5  -5  328.45   78.02
  -6  -5   5  296.01   73.39
   6   5  -4   79.52   54.67
  -6   5   4   85.33   52.12
  -6   5   4   78.84   20.78
  -6   5   4   90.22   36.78
   6  -5  -4  100.21   38.12
  -6  -5   4  116.82   47.03
  -6  -5   4   71.04   41.18
  -6  -5   4   99.44   40.65
  -6   5   3    6.73   18.44
   6   5  -3    2.87   17.17
  -6   5   3    4.41   23.52
  -6   5   3    1.03   16.47
  -6   5   3    9.79    9.03
  -6  -5   3    2.95   18.58
  -6  -5   3   93.21   19.12
   6  -5  -3    0.54   16.27
  -6  -5   3    0.73   15.68
  -6  -5   3   19.92   23.35
  -6   5   2   90.66   34.14
   6   5  -2   92.17   24.05
  -6   5   2   87.11   20.68
  -6   5   2   95.11   29.31
   6   5  -2   67.78   27.59
  -6   5   2  110.22   23.87
  -6  -5   2  104.52   48.32
  -6  -5   2  103.76   35.39
   6  -5  -2   87.04   35.79
  -6  -5   2   91.15   38.83
  -6   5   1  247.01   51.33
  -6   5   1  243.72   57.22
   6   5  -1  217.36   40.40
   6   5  -1  229.63   39.53
  -6   5   1  235.28   39.21
   6  -5  -1  262.53   45.49
  -6  -5   1  223.48   36.91
  -6  -5   1  237.44   51.99
   6  -5  -1  298.72   50.39
  -6  -5   1  241.18   55.22
  -6   5   0  183.05   31.89
   6   5   0  185.02   32.27
   6   5   0  180.41   32.11
   6   5   0  180.34   35.60
  -6   5   0  210.00   49.83
  -6   5   0  238.36   50.56
  -6   5   0  169.85   36.95
   6  -5   0  203.56   33.41
  -6  -5   0  180.85   35.20
   6  -5   0  223.82   47.21
  -6  -5   0  213.00   39.50
   6  -5   0  202.78   52.96
  -6  -5   0  207.14   40.00
  -6   5  -1  294.92   60.65
  -6   5  -1  281.85   57.04
  -6   5  -1  301.75   74.68
   6   5   1  275.52   57.52
   6   5   1  257.45   56.09
  -6  -5  -1  264.61   47.90
   6  -5   1  297.70   49.94
   6  -5   1  267.59   56.36
  -6  -5  -1  273.56   51.73
  -6  -5  -1  255.34   44.13
  -6   5  -2 2023.05  408.48
  -6   5  -2 1792.86  342.51
   6   5   2 1623.56  331.27
   6   5   2 1475.88  269.77
  -6  -5  -2 1721.98  313.18
   6  -5   2 1878.47  341.54
   6  -5   2 1846.68  367.78
  -6   5  -3  126.65   35.80
   6   5   3   88.55   22.36
   6   5   3  112.42   33.93
  -6   5  -3  134.46   38.36
  -6  -5  -3  139.83   33.50
   6  -5   3  123.89   37.02
   6  -5   3  123.24   31.12
  -6   5  -4  109.96   29.73
   6   5   4   91.76   19.92
   6  -5   4   92.58   18.14
   6  -5   4   84.91   19.93
  -6  -5  -4   96.00   20.50
  -6   6   5   47.37   19.60
  -6   6   5   44.01   13.00
   6  -6  -5   39.83   23.64
  -6  -6   5   43.37   20.27
  -6  -6   5   52.60   16.27
  -6  -6   5   41.25   18.22
  -6   6   4 1535.88  262.99
   6   6  -4 1421.18  321.29
  -6   6   4 1488.13  311.11
  -6  -6   4 1543.20  350.88
   6  -6  -4 1600.79  320.63
  -6  -6   4 1423.75  314.21
  -6  -6   4 1374.05  303.34
  -6   6   3   88.84   48.66
  -6   6   3  153.31   54.99
   6   6  -3  137.79   56.59
  -6   6   3  184.97   37.95
  -6  -6   3  195.57   72.36
  -6  -6   3  134.82   48.66
   6  -6  -3  160.73   48.92
  -6  -6   3  139.70   46.33
  -6  -6   3  281.27   61.67
  -6   6   2   18.41   12.72
  -6   6   2   13.70   10.34
   6   6  -2   21.42   13.60
  -6   6   2    4.58   17.46
  -6  -6   2    7.11   10.20
   6  -6  -2   12.62   15.98
  -6  -6   2   12.15   17.83
   6  -6  -2   14.30   15.33
  -6  -6   2   35.16   24.02
   6   6  -1  188.04   47.49
  -6   6   1  239.02   57.17
  -6   6   1  283.72   57.79
  -6   6   1  298.21   67.19
   6   6  -1  252.33   47.54
   6   6  -1  227.73   41.18
   6  -6  -1  298.98   48.38
  -6  -6   1  236.69   38.04
   6  -6  -1  280.67   48.55
  -6  -6   1  317.77   70.56
   6  -6  -1  375.26   61.17
  -6  -6   1  247.58   80.78
   6   6   0  627.07  111.71
  -6   6   0  586.76  105.38
   6   6   0  634.75  102.28
  -6   6   0  658.65  100.74
  -6   6   0  618.05  129.03
  -6   6   0  712.56  162.68
  -6  -6   0  592.62  102.51
   6  -6   0  680.02  100.92
   6  -6   0  737.23  113.32
   6  -6   0  638.45  107.87
  -6  -6   0  695.87  112.16
  -6  -6   0  728.58  123.23
   6   6   1   68.84   19.19
  -6   6  -1   90.04   36.56
  -6   6  -1   88.30   28.84
  -6   6  -1   61.56   16.53
   6   6   1   71.78   26.76
  -6   6  -1   76.32   25.88
   6  -6   1   78.21   21.10
   6  -6   1   68.67   24.33
  -6  -6  -1   72.90   20.81
  -6  -6  -1   66.08   23.09
  -6   6  -2   55.06   23.26
  -6   6  -2   54.99   29.99
   6   6   2   41.08   15.72
   6   6   2   49.61   23.72
   6  -6   2   46.34   19.60
  -6  -6  -2   44.04   19.57
   6  -6   2   38.94   25.65
  -6   6  -3  339.51   71.06
  -6   6  -3  341.99   66.47
   6   6   3  262.24   47.26
   6   6   3  299.72   61.23
  -6  -6  -3  354.24   63.19
   6  -6   3  317.85   65.08
   6  -6   3  327.79   57.69
  -6   7   5  746.25  111.94
  -6   7   5  664.75   95.22
  -6  -7   5  646.78  114.27
  -6  -7   5  829.32  117.80
   6  -7  -5  711.06  121.47
  -6   7   4  257.54   65.94
  -6   7   4  315.34   50.90
   6   7  -4  243.91   71.48
   6  -7  -4  281.10   70.53
  -6  -7   4  325.32   91.01
  -6  -7   4  227.33   67.41
  -6  -7   4  226.37   55.05
  -6   7   3   32.15   13.49
   6   7  -3   18.27   21.21
  -6   7   3    1.44   20.36
  -6   7   3   26.74   18.73
  -6  -7   3   19.43   13.84
   6  -7  -3   12.81   19.03
  -6  -7   3   34.53   29.70
   6   7  -2   21.51   18.27
  -6   7   2   30.16   13.92
  -6   7   2   37.91   16.40
  -6   7   2   15.99   26.29
  -6  -7   2   27.56   25.70
  -6  -7   2   24.30   32.73
   6  -7  -2   38.32   20.28
  -6   7   1  180.04   35.34
   6   7  -1  105.48   37.15
  -6   7   1  132.75   46.94
  -6   7   1  181.26   56.95
   6   7  -1  159.28   36.38
   6  -7  -1  159.65   34.09
   6  -7  -1  225.60   43.10
  -6  -7   1  140.52   71.25
   6  -7  -1  189.97   36.00
  -6  -7   1  152.85   48.00
  -6   7   0  984.75  193.09
   6   7   0  754.18  142.73
  -6   7   0  913.33  188.39
   6   7   0  898.94  146.28
  -6   7   0  765.92  138.11
   6   7   0  860.80  166.68
  -6   7   0  859.82  138.79
   6  -7   0  760.97  134.39
   6  -7   0  956.56  143.29
  -6  -7   0  884.55  148.14
  -6  -7   0 1009.40  174.13
  -6   7  -1  737.52  123.64
  -6   7  -1  670.18  144.21
   6   7   1  506.81  106.80
  -6   7  -1  515.00   85.04
   6   7   1  566.88   95.32
  -6   7  -1  640.18  123.94
   6  -7   1  605.91   97.11
  -6  -7  -1  597.33  104.55
  -6  -7  -1  622.81  104.81
   6  -7   1  491.94   96.56
  -6   7  -2  891.44  185.92
   6   7   2  749.12  151.36
  -6   7  -2  926.71  165.81
   6   7   2  761.31  130.40
   6  -7   2  844.09  165.52
   6  -7   2  844.61  144.37
  -6  -7  -2  891.98  150.79
   6   7   3  210.41   38.39
   6   7   3  244.03   47.23
  -6   7  -3  260.73   70.39
  -6   7  -3  264.43   57.97
   6  -7   3  258.24   45.67
   6  -7   3  250.62   50.93
  -6  -7  -3  281.40   51.08
  -6   8   4   25.75   11.22
   6   8  -4   16.07   16.94
  -6   8   4   27.64   14.90
  -6  -8   4   10.52   17.05
   6  -8  -4   19.59   18.08
  -6  -8   4   28.09   26.41
  -6   8   3   27.60    9.74
  -6   8   3   -1.42   11.62
   6   8  -3    1.10   14.18
   6  -8  -3   -1.42   13.43
  -6  -8   3    8.93   22.06
  -6  -8   3    5.26   24.78
  -6   8   2 2923.58  578.25
  -6   8   2 2833.95  531.46
  -6   8   2 1965.34  496.71
   6   8  -2 2414.53  521.01
   6  -8  -2 3552.67  698.00
  -6  -8   2 2531.55  618.22
  -6  -8   2 3098.31  667.27
   6   8  -1  167.12   40.34
  -6   8   1  221.85   64.72
  -6   8   1  179.72   38.13
   6   8  -1  117.27   43.67
  -6  -8   1  207.36   79.27
   6  -8  -1  227.35   39.88
  -6  -8   1  168.07   50.98
  -6   8   0  276.97   70.68
   6   8   0  148.72   43.33
  -6   8   0  224.86   46.10
  -6   8   0  180.72   38.65
   6   8   0  241.95   57.74
  -6   8   0  255.22   68.85
   6   8   0  246.09   45.96
  -6  -8   0  239.65   43.64
   6  -8   0  268.53   42.68
  -6  -8   0  263.82   53.68
   6  -8   0  189.58   40.37
   6   8   1  767.14  159.26
   6   8   1  972.84  161.95
  -6   8  -1 1023.33  178.63
  -6   8  -1  945.57  150.11
  -6   8  -1 1045.34  218.76
  -6   8  -1 1082.29  233.30
   6  -8   1 1004.58  159.28
  -6  -8  -1  968.47  169.43
   6  -8   1  752.66  142.59
  -6   8  -2 1266.12  226.00
   6   8   2 1051.59  205.99
   6   8   2 1127.67  194.53
  -6   8  -2 1331.54  265.83
  -6  -8  -2 1353.51  226.91
   6  -8   2 1164.74  220.92
   6  -8   2 1207.05  205.85
   6  -8   2 1225.18  211.62
  -6   8  -3  787.70  125.13
  -6   8  -3  811.85  162.39
   6   8   3  649.28  101.32
   6   8   3  687.83  112.49
   6  -8   3  700.13  111.58
  -6  -8  -3  857.73  128.92
   6  -8   3  728.03  116.70
  -6   9   4  389.74   60.93
  -6   9   4  374.32   58.98
   6   9  -4  299.66   66.96
  -6  -9   4  399.06   92.51
   6  -9  -4  429.43   73.32
   6   9  -3 1492.41  320.93
  -6   9   3 1795.51  319.19
  -6   9   3 1798.51  319.92
   6  -9  -3 1995.30  378.98
  -6  -9   3 1716.93  410.07
  -6  -9   3 2661.99  538.97
  -6   9   2   32.07   14.01
  -6   9   2   36.57   16.65
  -6   9   2   14.59   27.16
   6   9  -2   28.98   19.63
  -6  -9   2   40.13   26.63
  -6  -9   2   32.52   31.41
   6   9  -1 1621.97  300.14
  -6   9   1 1496.21  345.03
  -6   9   1 1693.80  294.64
   6   9  -1 1230.62  273.54
  -6  -9   1 1393.59  300.79
   6  -9  -1 2101.71  341.99
  -6  -9   1 1939.05  377.59
   6   9   0  417.17   96.81
  -6   9   0  388.97  137.95
   6   9   0  438.56   80.32
  -6   9   0  438.91   75.37
  -6   9   0  486.93  114.81
  -6  -9   0  427.94   87.95
   6  -9   0  532.78   85.07
  -6  -9   0  498.34   93.22
   6   9   1  347.26   93.16
  -6   9  -1  578.51  102.58
  -6   9  -1  589.89  130.12
  -6   9  -1  621.17  118.80
   6   9   1  632.68  100.40
   6  -9   1  525.33   86.53
  -6  -9  -1  585.51  102.40
   6   9   2  417.29   83.02
  -6   9  -2  591.96   98.96
  -6   9  -2  592.92  115.27
   6   9   2  516.62   83.63
   6  -9   2  466.97   88.23
   6  -9   2  481.06   81.15
   6  -9   2  564.74   90.04
  -6  -9  -2  562.98   92.56
  -6   9  -3 1177.34  183.10
   6   9   3 1008.20  157.90
  -6   9  -3 1131.71  180.69
   6   9   3 1026.03  156.34
  -6  -9  -3 1251.90  189.17
   6  10  -4  237.46   59.78
  -6  10   4  261.80   41.03
  -6  10   4  298.28   40.55
  -6 -10   4  287.85   60.94
  -6  10   3 1707.81  278.82
  -6  10   3 1635.06  283.40
   6  10  -3 1450.53  282.54
  -6 -10   3 1564.79  351.45
  -6 -10   3 2413.53  470.50
  -6  10   2  701.00  191.63
   6  10  -2 1053.40  201.43
  -6  10   2 1135.87  192.10
  -6 -10   2 1166.34  237.49
  -6 -10   2 1135.04  248.21
   6 -10  -2 1663.92  258.11
  -6  10   1 2459.74  565.84
   6  10  -1 2661.84  520.65
  -6  10   1 2640.93  498.76
   6  10  -1 1885.23  436.38
  -6 -10   1 3154.50  633.54
   6 -10  -1 3315.27  589.32
  -6 -10   1 2370.77  511.09
   6  10   0    3.83   16.32
  -6  10   0   22.47   20.17
  -6  10   0   11.31   17.86
   6  10   0    4.71   12.02
  -6  10   0   32.91   11.69
  -6 -10   0    9.08   13.74
   6 -10   0   20.22   11.13
   6  10   1 1588.29  283.52
  -6  10  -1 1647.22  338.72
  -6  10  -1 1578.44  290.03
  -6  10  -1 1747.92  333.71
  -6 -10  -1 1440.79  270.47
   6 -10   1 1676.42  316.58
   6 -10   1 1903.86  326.49
  -6  10  -2  364.56   59.11
   6  10   2  202.97   42.78
   6  10   2  310.70   49.93
  -6  10  -2  368.83   71.01
   6 -10   2  333.22   49.13
   6 -10   2  258.06   45.55
  -6 -10  -2  330.17   54.26
  -6  11   3  155.65   31.79
   6  11  -3  149.71   37.74
   6 -11  -3  254.36   42.34
  -6 -11   3  223.84   46.50
  -6 -11   3  166.54   50.03
   6  11  -2    0.95    9.26
  -6  11   2    3.65    8.38
  -6  11   2   -0.69   13.16
  -6 -11   2    2.89   12.57
   6 -11  -2   15.31    8.78
  -6 -11   2   10.05   12.42
  -6  11   1  203.65   40.88
   6  11  -1  214.01   43.81
   6  11  -1  140.20   47.17
  -6  11   1  175.51   63.84
   6 -11  -1  246.00   42.15
  -6 -11   1  182.71   50.42
  -6 -11   1  236.69   49.11
   6  11   0 4173.41  972.20
  -6  11   0 4318.57  899.04
   6  11   0 4378.40  934.02
  -6  11   0 4611.38 1065.06
  -6 -11   0 4277.35  929.45
   6 -11   0 4418.40  931.90
  -6  11  -1  279.19   56.30
  -6  11  -1  224.23   43.50
  -6  11  -1  247.17   57.83
   6  11   1  251.81   45.45
   6 -11   1  225.78   42.42
   6 -11   1  286.38   49.32
  -6 -11  -1  244.86   46.62
  -6  11  -2  215.32   37.09
   6  11   2  197.01   33.40
  -6  11  -2  210.84   40.85
   6 -11   2  211.97   32.09
  -6 -11  -2  210.47   36.24
  -6  12   3  479.25   71.23
   6  12  -3  504.42   81.24
  -6 -12   3  522.88   85.33
  -6 -12   3  654.08   92.88
  -6  12   2 2101.88  450.49
  -6  12   2 2475.62  451.01
   6  12  -2 2581.10  489.07
  -6 -12   2 2656.21  505.85
  -6 -12   2 2950.95  559.82
   6 -12  -2 3341.53  583.89
  -6  12   1 1073.30  213.76
   6  12  -1 1101.93  202.89
   6  12  -1  823.43  164.08
  -6  12   1 1058.03  169.95
   6 -12  -1 1306.34  206.20
  -6 -12   1 1052.86  185.08
  -6  12   0   12.71   13.91
   6  12   0   35.22   11.75
  -6  12   0    8.19    8.49
  -6 -12   0    6.85    8.88
  -6 -12   0    2.51    8.78
  -6  12  -1  306.00   51.81
  -6  12  -1  273.94   43.55
   6  12   1  283.59   47.26
  -6  12  -1  264.95   48.96
   6 -12   1  336.32   50.88
  -6 -12  -1  270.75   47.65
   6  13  -2    6.66    6.28
  -6  13   2    1.79    6.98
  -6  13   2    4.34    5.68
  -6 -13   2    8.41    7.65
  -6  13   1 1161.47  191.33
  -6  13   1 1114.23  167.45
   6  13  -1 1231.26  186.31
  -6 -13   1 1228.92  185.55
  -6 -13   1  792.54  122.31
  -6  13   0  230.21   43.60
   6  13   0  276.17   44.04
  -6 -13   0  190.14   33.62
  -6 -13   0  203.12   32.63
   6 -13   0  214.32   36.49
   6  13   1  934.22  142.65
  -6  13  -1 1039.35  149.22
  -6 -13  -1 1004.75  146.10
   6 -13   1 1097.80  153.40
  -7   0   5   -0.17    4.59
  -7   0   5    1.82    4.00
   7   0  -5    0.24    3.95
  -7   0   4 2141.78  280.35
   7   0  -4  637.17  135.68
  -7   0   4  511.65  103.24
  -7   0   3    5.15    6.20
  -7   0   3    3.41    4.92
  -7   0   3    6.49    8.70
   7   0  -3    0.91    8.68
  -7   0   3    0.38    5.90
  -7   0   3   -0.20    6.40
   7   0  -2  205.87   39.73
  -7   0   2  202.17   41.04
  -7   0   2  174.72   32.16
   7   0  -2  173.02   28.33
  -7   0   2  186.22   38.51
  -7   0   2  206.35   40.80
   7   0  -1    1.88    3.67
   7   0  -1    0.24    6.37
   7   0  -1    5.25    5.40
  -7   0   1    3.32    6.91
  -7   0   1    2.61    7.19
  -7   0   0  412.46   72.58
   7   0   0  437.04   68.07
   7   0   0  366.98   55.57
  -7   0   0  430.25   68.30
   7   0   0  392.85   66.41
  -7   0   0  324.08   55.89
   7   0   1    1.33    9.66
  -7   0  -1   31.37    8.15
  -7   0  -1    3.94   10.27
  -7   0  -1   -1.92    9.13
   7   0   1    1.99    7.82
   7   0   1    2.62    9.78
   7   0   2 1350.08  269.74
   7   0   2 1319.23  241.65
   7   0   2 1242.43  215.88
  -7   0  -2 1393.87  255.58
  -7   0  -2 1283.45  240.00
   7   0   3    2.93    6.21
   7   0   3    8.20    7.49
  -7   0  -3    6.36    9.05
   7   1  -5  164.37   27.70
  -7   1   5  170.51   30.73
  -7   1   5  155.84   30.84
  -7  -1   5  161.87   31.54
   7  -1  -5  192.78   46.14
  -7  -1   5  163.68   36.66
  -7   1   4  276.47   54.21
  -7   1   4  219.18   46.15
   7   1  -4  349.35   69.66
  -7  -1   4  304.82   57.63
  -7  -1   4  255.20   62.38
   7  -1  -4  352.20   73.72
  -7   1   3   -0.09    7.29
  -7   1   3    5.21    6.83
  -7   1   3    1.84    7.21
  -7   1   3    4.52    6.74
  -7   1   3    9.55    9.46
   7   1  -3    5.69    9.05
  -7  -1   3    3.14    7.38
  -7  -1   3   10.87    7.62
  -7  -1   3    1.83    7.34
  -7  -1   3    8.10   10.54
   7  -1  -3    4.24   10.74
  -7   1   2  252.00   41.65
   7   1  -2  269.65   48.19
  -7   1   2  243.06   47.99
  -7   1   2  254.34   50.19
  -7   1   2  262.20   49.75
  -7  -1   2  266.08   51.96
  -7  -1   2  284.24   51.75
  -7  -1   2  267.07   50.29
   7  -1  -2  259.91   48.55
  -7  -1   2  208.55   38.61
  -7   1   1  385.13   66.76
   7   1  -1  285.23   42.41
  -7   1   1  391.01   66.33
   7   1  -1  362.77   58.34
   7  -1  -1  362.60   50.62
  -7  -1   1  395.58   66.79
   7  -1  -1  371.29   58.74
  -7  -1   1  378.20   61.24
   7  -1  -1  397.08   67.28
  -7  -1   1  415.98   89.26
   7   1   0   67.99   16.28
   7   1   0   93.43   23.36
   7   1   0   89.19   23.43
  -7   1   0   92.15   26.70
  -7   1   0   79.08   21.17
  -7   1   0   84.79   24.45
  -7  -1   0   91.71   25.84
   7  -1   0  133.02   23.74
  -7  -1   0   93.19   24.40
   7  -1   0   92.96   24.79
   7  -1   0   95.89   19.82
  -7  -1   0   88.77   20.70
   7   1   1 1147.94  194.59
  -7   1  -1 1086.55  188.47
   7   1   1  964.14  162.30
   7   1   1 1028.03  179.34
  -7   1  -1 1127.66  202.67
  -7   1  -1 1014.26  173.14
   7  -1   1 1121.59  205.26
  -7  -1  -1 1076.19  193.82
  -7  -1  -1  944.48  159.58
  -7  -1  -1 1014.18  175.62
   7  -1   1 1080.29  190.66
   7  -1   1 1138.86  191.74
  -7   1  -2 1054.69  193.15
   7   1   2  933.10  167.31
   7   1   2 1022.84  179.05
   7   1   2  848.21  145.48
  -7   1  -2 1035.20  187.38
   7  -1   2  972.10  192.74
   7  -1   2 1024.04  181.39
  -7  -1  -2  961.56  169.32
   7  -1   2  941.19  161.12
  -7  -1  -2  916.50  169.52
   7   1   3   11.37    7.72
   7   1   3   13.05    8.82
  -7   1  -3   13.01   11.47
   7   1   3    9.21    9.55
   7  -1   3   11.59    8.83
   7  -1   3   11.39   10.24
  -7  -1  -3   12.11   12.42
   7   2  -5  529.34   93.87
  -7   2   5  925.11  133.07
  -7   2   5  881.34  124.67
  -7  -2   5  939.66  143.63
   7  -2  -5 1077.73  158.75
  -7  -2   5  878.87  133.03
  -7   2   4  869.08  159.90
  -7   2   4 1007.57  171.45
   7   2  -4 1251.78  209.99
  -7   2   4 1177.47  197.65
   7  -2  -4 1150.81  217.60
  -7  -2   4  920.76  169.41
  -7  -2   4 1141.84  212.63
  -7  -2   4  865.33  175.38
   7   2  -3    3.62    9.06
  -7   2   3    8.58    8.90
  -7   2   3   14.05    8.19
  -7   2   3    3.85    8.14
  -7   2   3    3.71    9.20
  -7  -2   3    6.04    9.05
   7  -2  -3    8.00   11.74
  -7  -2   3   15.32   18.00
  -7  -2   3    1.57    7.92
  -7  -2   3    4.08    8.04
  -7   2   2  696.89  108.68
  -7   2   2  709.34  109.80
  -7   2   2  736.08  124.32
  -7   2   2  706.83  118.40
   7   2  -2  738.27  119.59
  -7   2   2  646.00  113.89
   7  -2  -2  757.15  124.61
  -7  -2   2  764.69  123.02
  -7  -2   2  738.17  124.60
  -7  -2   2  719.73  126.21
  -7   2   1  118.56   22.00
  -7   2   1  153.75   34.70
   7   2  -1  161.21   42.89
  -7   2   1  125.82   32.94
   7  -2  -1  156.95   33.97
   7  -2  -1  143.18   24.73
   7  -2  -1  145.45   28.65
  -7  -2   1  146.61   33.40
  -7  -2   1  144.49   29.53
  -7  -2   1  151.64   34.24
  -7   2   0 1173.07  209.29
   7   2   0 1071.45  178.96
   7   2   0 1123.77  184.99
  -7   2   0 1258.84  231.18
   7  -2   0 1156.45  186.41
   7  -2   0 1139.83  178.90
  -7  -2   0 1178.34  192.59
  -7  -2   0  985.82  168.53
  -7  -2   0 1152.39  198.84
   7  -2   0 1089.06  186.85
  -7   2  -1   29.32    9.79
  -7   2  -1   17.51   10.70
   7   2   1    5.07    7.48
  -7   2  -1   11.52   12.92
   7   2   1   14.19   11.38
   7   2   1   13.69    9.95
  -7  -2  -1    5.61    8.23
  -7  -2  -1    8.43   10.46
   7  -2   1   10.36    8.42
   7  -2   1    7.14    9.92
   7  -2   1   13.51   11.76
  -7  -2  -1    5.27   10.95
   7   2   2  596.65  106.21
  -7   2  -2  609.55  111.67
   7   2   2  428.94   76.19
  -7   2  -2  578.73  106.68
   7   2   2  529.47   94.29
   7  -2   2  557.78   98.47
   7  -2   2  577.66   96.47
  -7  -2  -2  486.39  111.88
  -7  -2  -2  617.21  105.76
   7  -2   2  612.42  110.10
  -7   2  -3 1986.23  362.03
  -7   2  -3 1585.39  287.66
   7   2   3 1340.12  232.84
   7   2   3 1917.53  345.51
   7   2   3 1500.54  262.99
  -7  -2  -3 2049.04  346.42
   7  -2   3 1878.52  324.03
   7  -2   3 1833.76  305.85
  -7   3   5 1168.34  173.15
  -7   3   5 1254.25  191.41
  -7   3   5 1158.32  174.88
   7  -3  -5 1503.30  232.21
  -7  -3   5 1210.60  193.96
  -7  -3   5 1257.14  204.28
   7   3  -4  485.18   83.67
  -7   3   4  424.80   73.21
  -7   3   4  513.26   81.31
  -7   3   4  414.28   77.27
  -7  -3   4  389.38   76.96
  -7  -3   4  380.35   85.50
   7  -3  -4  468.55   99.85
  -7  -3   4  550.91  102.19
  -7   3   3  244.13   44.80
   7   3  -3  275.49   51.03
  -7   3   3  237.32   45.62
  -7   3   3  229.15   46.71
  -7   3   3  197.86   46.59
  -7  -3   3  207.72   75.04
  -7  -3   3  202.62   55.08
   7  -3  -3  240.62   59.07
  -7  -3   3  244.52   59.26
  -7  -3   3  178.19   42.95
   7   3  -2  483.09   79.35
  -7   3   2  468.54   86.27
  -7   3   2  466.50   74.17
  -7   3   2  388.32   73.97
  -7   3   2  484.27   79.21
  -7   3   2  498.45   76.33
  -7  -3   2  457.04   80.11
  -7  -3   2  470.03   87.92
   7  -3  -2  491.49   83.84
  -7  -3   2  482.37   82.45
  -7   3   1 3156.02  620.79
  -7   3   1 3940.51  805.75
  -7   3   1 3555.54  737.27
   7   3  -1 3722.61  745.66
   7  -3  -1 3559.73  685.05
  -7  -3   1 3641.77  754.84
   7  -3  -1 3942.61  791.80
   7  -3  -1 3794.27  750.66
  -7  -3   1 3839.62  771.75
  -7   3   0 1762.78  331.13
   7   3   0 1611.18  285.64
  -7   3   0 1816.95  324.55
   7   3   0 1578.61  278.04
   7  -3   0 1818.98  301.51
   7  -3   0 1717.56  293.58
  -7  -3   0 1658.47  290.98
  -7  -3   0 1712.05  310.23
   7  -3   0 1685.50  301.48
  -7  -3   0 1755.85  301.75
  -7   3  -1  323.77   59.07
  -7   3  -1  357.41   73.44
   7   3   1  361.52   66.97
   7   3   1  308.76   56.35
  -7   3  -1  329.85   62.79
   7  -3   1  322.23   54.68
   7  -3   1  336.25   66.59
  -7  -3  -1  338.16   63.06
  -7  -3  -1  322.38   75.84
  -7  -3  -1  296.40   53.30
   7  -3   1  338.99   59.76
  -7   3  -2    5.51   12.60
  -7   3  -2   10.62   13.93
   7   3   2    1.82    9.74
   7   3   2    0.77   12.53
  -7  -3  -2    4.42   11.92
   7  -3   2   68.35   11.63
   7  -3   2   12.03   11.08
   7  -3   2    4.45   13.56
  -7   3  -3  466.85   72.97
  -7   3  -3  370.20   63.28
   7   3   3  411.48   80.80
   7   3   3  220.26   39.56
  -7  -3  -3  467.33   73.71
   7  -3   3  437.28   63.26
   7  -3   3  435.27   69.30
  -7   4   5    1.67    4.11
  -7   4   5    0.25    3.78
  -7  -4   5    5.13    5.13
   7  -4  -5    2.57    5.36
  -7  -4   5    1.76    4.23
  -7   4   4   29.65   14.10
  -7   4   4   34.30   16.07
  -7   4   4   30.46   11.70
  -7  -4   4   24.95   17.74
  -7  -4   4   42.33   19.63
  -7  -4   4   12.86   22.35
   7  -4  -4   26.13   20.46
  -7   4   3 4494.64  909.35
  -7   4   3 3660.58  811.32
  -7   4   3 4239.44  887.65
   7   4  -3 4514.67  936.56
  -7   4   3 4178.05  853.27
  -7  -4   3 4715.92 1033.88
   7  -4  -3 4575.65 1007.47
  -7  -4   3 3929.74  821.49
  -7  -4   3 2829.99  671.48
  -7  -4   3 4383.43  942.92
  -7   4   2   70.10   23.67
  -7   4   2   78.55   17.80
  -7   4   2   48.51   19.41
  -7   4   2   60.93   18.02
   7   4  -2   56.45   24.76
   7  -4  -2   -0.25   19.97
   7  -4  -2   65.07   20.53
  -7  -4   2   59.55   25.00
  -7  -4   2   68.41   21.22
  -7   4   1  135.33   36.25
   7   4  -1  136.45   28.75
  -7   4   1  167.55   37.43
  -7   4   1  131.06   35.29
   7   4  -1  142.49   31.30
  -7  -4   1  144.36   34.14
   7  -4  -1  152.32   29.76
  -7  -4   1  138.45   36.05
   7  -4  -1  143.52   27.13
   7  -4  -1  141.87   32.92
   7   4   0  323.54   56.15
  -7   4   0  373.97   71.23
  -7   4   0  473.19   82.72
   7   4   0  359.32   60.68
  -7  -4   0  370.17   67.53
   7  -4   0  379.29   61.21
   7  -4   0  359.64   58.45
  -7  -4   0  285.88   52.61
  -7  -4   0  377.52   64.28
   7  -4   0  384.68   70.38
  -7   4  -1 3718.03  822.03
  -7   4  -1 3302.62  673.55
   7   4   1 2752.77  567.01
  -7   4  -1 3497.04  702.59
   7   4   1 3530.35  718.33
  -7  -4  -1 3140.68  642.71
  -7  -4  -1 3100.51  610.91
  -7  -4  -1 3591.70  717.42
   7  -4   1 3375.62  657.90
   7  -4   1 3226.55  652.56
   7  -4   1 3552.60  721.50
  -7   4  -2   62.63   24.67
  -7   4  -2   49.37   21.65
   7   4   2   56.84   22.20
   7  -4   2   47.57   19.77
  -7  -4  -2   66.62   21.50
   7  -4   2   36.44   22.80
   7   4   3   47.64   16.50
  -7   4  -3   45.76   16.98
  -7   4  -3   47.80   17.56
  -7  -4  -3   49.08   18.24
   7  -4   3   53.91   17.64
   7  -4   3   49.73   15.74
  -7   5   5  906.75  128.03
  -7   5   5  921.42  127.90
   7  -5  -5 1071.58  154.86
  -7  -5   5  986.75  139.85
  -7   5   4 2038.67  368.94
  -7   5   4 1657.09  295.13
  -7   5   4 2245.16  381.55
  -7  -5   4 1807.35  377.55
  -7  -5   4 2118.05  389.78
  -7  -5   4 2566.99  468.10
   7  -5  -4 2275.27  430.53
  -7   5   3    2.14    9.59
  -7   5   3   -0.35   10.29
  -7   5   3   29.44    7.63
  -7   5   3    1.70    8.45
  -7  -5   3    3.30   13.25
  -7  -5   3    2.34    8.36
  -7  -5   3    0.03    9.62
   7  -5  -3    5.68   12.12
  -7   5   2 2038.67  360.56
   7   5  -2 1870.15  349.66
  -7   5   2 1986.43  349.34
  -7   5   2 1988.19  386.82
  -7  -5   2 2099.51  386.42
   7  -5  -2 2241.28  408.84
  -7  -5   2 1969.87  389.83
  -7  -5   2 1901.71  344.07
   7  -5  -2 2109.57  390.53
   7   5  -1 1347.31  237.85
   7   5  -1 1502.02  256.70
  -7   5   1 1407.01  265.37
  -7   5   1 1463.29  241.54
  -7   5   1 1567.44  286.63
  -7  -5   1 1553.70  273.76
   7  -5  -1 1520.89  262.46
  -7  -5   1 1539.35  277.04
   7  -5  -1 1488.37  243.41
   7  -5  -1 1544.59  260.56
  -7   5   0 2076.84  396.04
  -7   5   0 2136.72  389.63
   7   5   0 1981.37  365.17
  -7   5   0 1608.58  302.55
   7   5   0 1645.83  314.23
   7  -5   0 1932.67  339.97
   7  -5   0 2185.16  370.54
  -7  -5   0 2067.76  374.35
  -7  -5   0 1710.75  309.16
   7  -5   0 2013.68  366.06
  -7  -5   0 2052.10  362.89
  -7   5  -1   36.87   17.63
  -7   5  -1   40.97   17.99
  -7   5  -1   49.29   23.78
   7   5   1   44.87   18.34
   7  -5   1   43.75   18.16
  -7  -5  -1   39.82   23.60
  -7  -5  -1   35.50   14.30
   7  -5   1   31.11   15.74
   7   5   2 1118.07  204.13
  -7   5  -2 1234.72  231.63
  -7   5  -2 1159.13  207.90
   7  -5   2 1208.55  204.84
  -7  -5  -2 1224.84  213.18
   7  -5   2 1162.29  209.86
  -7   5  -3  372.73   64.56
   7   5   3  368.28   59.50
  -7   5  -3  408.89   65.61
   7  -5   3  386.83   59.08
   7  -5   3  373.35   62.41
  -7  -5  -3  430.47   78.20
  -7   6   4 1586.49  264.69
  -7   6   4 1636.28  277.43
  -7  -6   4 1725.04  314.45
   7  -6  -4 1699.67  307.72
  -7  -6   4 1557.89  267.86
  -7   6   3  449.19   75.10
  -7   6   3  476.82   81.45
  -7   6   3  353.31   81.30
  -7  -6   3  527.27   91.85
   7  -6  -3  500.27   95.40
   7  -6  -3  550.48   93.94
  -7  -6   3  424.07   73.54
  -7  -6   3  444.07   96.84
  -7   6   2 3223.26  634.82
  -7   6   2 3276.87  727.87
   7  -6  -2 3689.19  740.85
  -7  -6   2 3251.45  698.99
   7  -6  -2 3545.27  718.98
  -7  -6   2 2862.17  570.83
  -7  -6   2 3584.85  729.90
   7   6  -1   47.40   17.72
  -7   6   1   73.12   19.22
  -7   6   1   87.38   28.07
  -7   6   1   67.43   24.73
   7  -6  -1   75.59   19.37
   7  -6  -1   75.90   19.55
   7  -6  -1   62.68   20.25
  -7  -6   1   71.12   24.43
  -7  -6   1   72.40   24.94
   7   6   0 3301.46  686.08
  -7   6   0 3644.70  779.54
  -7   6   0 3113.31  611.09
  -7   6   0 3776.06  779.72
   7  -6   0 3365.26  686.16
  -7  -6   0 2916.91  600.24
  -7  -6   0 3626.83  723.81
  -7  -6   0 3490.89  718.34
   7  -6   0 3835.03  736.91
  -7   6  -1  372.35   78.71
   7   6   1  315.44   80.66
  -7   6  -1  324.70   61.82
  -7   6  -1  345.78   65.22
   7  -6   1  346.34   65.10
   7  -6   1  333.10   57.52
  -7  -6  -1  324.97   58.18
  -7   6  -2  902.40  171.64
   7   6   2 1013.32  176.08
  -7   6  -2  929.19  161.20
   7  -6   2  949.02  157.05
   7  -6   2  926.28  163.64
  -7  -6  -2  993.52  166.06
  -7   6  -3    5.84    6.22
  -7   6  -3    2.19    9.36
   7   6   3    4.71    5.79
  -7  -6  -3    1.86    5.92
   7  -6   3    4.41    5.35
   7  -6   3    3.72    6.09
  -7   7   4  413.20   60.61
  -7   7   4  383.71   57.34
   7  -7  -4  450.51   70.74
  -7  -7   4  363.46   54.28
  -7  -7   4  264.66   59.06
  -7  -7   4  448.91   73.76
  -7   7   3   10.26   11.06
  -7   7   3   -0.36   14.74
  -7   7   3   12.29   12.19
   7  -7  -3   16.61   14.25
  -7  -7   3   11.43   14.17
  -7  -7   3   57.97   10.66
  -7  -7   3   12.69   17.16
  -7   7   2  500.06   84.69
  -7   7   2  491.79  103.12
  -7  -7   2  490.28  101.88
   7  -7  -2  560.34   93.14
   7  -7  -2  519.25   84.48
  -7  -7   2  545.90  101.20
  -7   7   1 3543.45  793.46
  -7   7   1 4422.80  943.39
   7   7  -1 3072.38  666.67
  -7   7   1 4061.55  808.49
   7  -7  -1 3494.74  722.86
  -7  -7   1 4316.21  885.55
  -7  -7   1 4105.40  860.01
   7  -7  -1 3813.81  802.95
   7  -7  -1 4242.07  825.25
  -7   7   0   15.34   12.74
  -7   7   0    5.86    7.20
   7   7   0   10.62    9.18
  -7   7   0   17.14   12.72
  -7  -7   0    7.63    8.30
  -7  -7   0   13.08    9.33
  -7  -7   0    7.96    8.83
   7  -7   0    5.47    9.05
   7  -7   0    8.62    9.03
   7   7   1   41.21   14.25
  -7   7  -1   60.93   20.04
  -7   7  -1   59.72   25.24
  -7   7  -1   65.49   27.29
   7   7   1   55.71   19.59
  -7  -7  -1   51.68   17.63
   7  -7   1   49.75   18.58
   7  -7   1   43.47   16.77
  -7   7  -2  640.31  117.48
  -7   7  -2  636.01  122.52
   7   7   2  582.25  104.81
   7  -7   2  593.19  100.39
   7  -7   2  644.41  101.11
  -7  -7  -2  695.92  109.73
   7   7   3  706.81  101.59
  -7   7  -3  776.47  109.91
  -7   7  -3  733.70  107.33
   7  -7   3  768.79  106.17
  -7  -7  -3  766.86  108.67
   7  -7   3  725.87  101.12
  -7   8   4  547.58   77.97
  -7   8   4  554.30   76.28
   7  -8  -4  538.11   77.15
  -7  -8   4  553.68   89.35
  -7   8   3 2142.50  347.62
  -7   8   3 1494.49  300.16
  -7   8   3 2075.30  347.62
   7   8  -3 1271.08  288.03
   7  -8  -3 2177.06  368.26
  -7  -8   3 2420.41  411.23
  -7  -8   3 2003.39  372.95
  -7   8   2  169.13   45.63
  -7   8   2  185.64   35.40
   7   8  -2  120.22   32.60
   7  -8  -2  165.80   32.63
  -7  -8   2  178.24   44.61
   7  -8  -2  186.03   34.55
  -7   8   1    9.40    7.91
   7   8  -1    4.78   11.39
  -7   8   1    0.69   12.33
  -7  -8   1    1.90   10.00
   7  -8  -1   11.99    7.66
   7   8   0   99.49   31.74
  -7   8   0  136.90   26.73
  -7   8   0  162.04   40.42
  -7   8   0  156.33   40.88
   7   8   0  124.19   27.51
  -7  -8   0  139.65   29.57
  -7  -8   0  219.21   35.62
  -7  -8   0  126.94   28.44
   7  -8   0  166.46   31.52
   7  -8   0  132.62   30.35
   7   8   1 1531.47  271.32
  -7   8  -1 1541.62  266.08
   7   8   1 1337.62  232.00
  -7   8  -1 1705.34  294.90
  -7   8  -1 1696.31  341.15
  -7  -8  -1 1557.51  263.66
   7  -8   1 1571.16  274.34
   7  -8   1 1518.20  254.41
   7  -8   1 1403.09  247.88
   7   8   2  642.63  104.86
  -7   8  -2  763.82  129.13
  -7   8  -2  721.01  112.13
  -7  -8  -2  771.29  118.45
   7  -8   2  730.94  109.62
   7  -8   2  651.13  107.17
  -7   9   4  389.69   53.39
   7  -9  -4  442.82   57.18
  -7  -9   4  438.78   63.30
  -7   9   3   35.48   17.58
   7   9  -3   47.89   15.15
  -7   9   3   55.07   16.07
  -7  -9   3   59.48   18.80
   7  -9  -3   60.54   15.94
  -7  -9   3   49.21   20.94
   7   9  -2  621.74  110.57
  -7   9   2  701.52  134.21
  -7   9   2  741.25  119.01
   7  -9  -2  851.42  124.26
  -7  -9   2  846.45  139.48
  -7  -9   2  755.12  134.71
  -7   9   1  193.62   49.22
   7   9  -1  156.02   34.85
  -7   9   1  181.77   35.72
   7  -9  -1  201.01   33.91
  -7  -9   1  215.52   42.02
  -7  -9   1  205.47   42.16
  -7   9   0  511.43   77.47
  -7   9   0  491.84   96.47
   7   9   0  488.79   79.50
  -7   9   0  585.56  126.20
  -7  -9   0  456.10   76.66
  -7  -9   0  544.34   87.36
   7  -9   0  566.51   86.58
  -7   9  -1  902.90  144.29
   7   9   1  670.72  123.80
   7   9   1  814.79  134.03
  -7   9  -1 1033.53  173.33
  -7   9  -1 1033.07  163.33
  -7  -9  -1  893.04  141.14
   7  -9   1  925.40  138.34
   7  -9   1 1051.82  158.73
   7   9   2   49.47   13.20
  -7   9  -2   65.34   15.70
  -7   9  -2   65.92   19.77
  -7  -9  -2   67.64   17.06
   7  -9   2   62.32   20.79
  -7  10   3  138.35   24.89
  -7  10   3   87.46   21.32
   7 -10  -3  161.66   24.46
  -7 -10   3  144.16   30.34
  -7 -10   3  163.41   28.59
   7  10  -2  292.44   53.10
  -7  10   2  346.77   68.00
  -7  10   2  345.67   56.38
   7 -10  -2  397.18   56.75
  -7 -10   2  409.33   66.94
  -7 -10   2  346.20   62.92
   7  10  -1  113.77   25.90
  -7  10   1  129.35   36.96
  -7  10   1  127.84   26.33
   7 -10  -1  156.82   38.27
  -7 -10   1  133.71   30.87
  -7 -10   1  117.80   28.06
  -7  10   0  218.89   46.09
  -7  10   0  236.93   38.12
  -7  10   0  278.02   53.86
   7  10   0  229.82   39.53
  -7 -10   0  245.16   42.16
  -7 -10   0  211.06   37.69
   7 -10   0  250.91   39.84
  -7  10  -1  285.36   52.57
   7  10   1  250.39   40.52
  -7  10  -1  312.41   49.75
  -7  10  -1  234.88   38.91
   7 -10   1  279.05   44.83
   7 -10   1  295.47   42.12
  -7 -10  -1  285.72   44.36
  -7  10  -2   26.33    8.11
  -7  10  -2   28.44   10.36
  -7 -10  -2   23.93    9.54
  -7  11   3   31.57   13.49
   7 -11  -3   26.65    8.01
  -7 -11   3   26.47    9.37
  -7 -11   3   33.62   10.83
  -7  11   2    4.70    5.75
   7  11  -2   -0.10    8.48
  -7  11   2    7.43    7.70
   7 -11  -2    7.36    5.00
  -7 -11   2    4.11    6.42
  -7 -11   2    2.22    7.30
  -7  11   1    2.66    6.54
  -7  11   1    4.74   10.42
   7  11  -1   -0.13    6.93
   7 -11  -1   29.61    6.96
  -7 -11   1    0.16    8.32
   7  11   0  299.18   46.08
  -7  11   0  370.29   61.20
  -7 -11   0  283.04   43.12
  -7 -11   0  325.24   48.10
   7 -11   0  301.38   44.14
  -7  11  -1   21.77    8.67
  -7  11  -1   23.17    9.25
  -7 -11  -1   23.23    8.54
   7 -11   1   22.99    7.49
  -7  12   2    1.74    4.14
  -7  12   2    3.27    4.61
  -7 -12   2    3.99    5.01
  -7  12   1   30.28   13.51
   7  12  -1   26.42    9.33
  -7  12   1   27.56    9.23
  -7 -12   1   29.66   11.17
   7  12   0  260.02   37.81
  -7  12   0  317.28   60.78
   7 -12   0  307.20   40.92
  -7 -12   0  243.43   34.16
   8   0  -4 5543.20 1207.39
  -8   0   4 5032.63 1114.30
  -8   0   4 5605.51 1209.03
  -8   0   3    4.05    5.32
   8   0  -3    0.81    5.62
  -8   0   3    3.92    6.78
  -8   0   3   -0.45    6.11
  -8   0   3   -0.15    6.13
  -8   0   2   11.97   11.31
  -8   0   2    9.56   10.26
   8   0  -2    4.56    9.14
  -8   0   2   46.61   17.03
   8   0  -1    7.34   12.63
  -8   0   1   81.91   19.52
  -8   0   1    3.22   13.59
   8   0  -1   23.81    8.43
   8   0  -1    8.07   12.83
   8   0   0 4454.31  933.08
   8   0   0 3480.45  728.85
   8   0   0 4887.97 1019.74
  -8   0   0 4376.42  925.19
  -8   0   0 4799.40 1031.60
  -8   0  -1    3.12    7.87
  -8   0  -1   -0.27    5.75
  -8   0  -1   17.80    7.45
   8   0   1    3.82    6.87
   8   0   1    0.37    7.14
   8   0   1   -0.07    5.43
   8   0   2   33.63   11.48
  -8   0  -2   31.49   14.52
  -8   0  -2   26.13   18.24
   8   0   2   38.76   14.02
   8   0   2   45.34   14.79
   8   0   3   -0.08    2.10
   8   0   3    1.53    2.74
  -8   0  -3   -7.75    3.99
  -8   1   4  145.43   28.07
  -8   1   4  157.39   31.04
   8   1  -4  150.60   29.18
   8  -1  -4  166.89   31.24
  -8  -1   4  149.24   28.44
  -8  -1   4  173.82   32.73
  -8   1   3 1757.86  323.58
  -8   1   3 2066.68  377.81
  -8   1   3 2312.61  401.14
   8   1  -3 2248.48  392.40
  -8   1   3 2017.28  348.85
  -8  -1   3 2321.47  406.32
  -8  -1   3 1717.98  317.02
  -8  -1   3 2125.53  378.11
   8  -1  -3 2320.53  403.39
   8  -1  -3 1737.58  293.80
  -8  -1   3 2063.49  377.83
  -8   1   2 3049.07  604.21
   8   1  -2 3279.15  616.08
  -8   1   2 3534.26  667.51
  -8  -1   2 3424.70  662.30
   8  -1  -2 1825.58  410.29
  -8  -1   2 3370.62  633.18
   8  -1  -2 2815.84  509.79
   8  -1  -2 3373.89  632.24
  -8  -1   2 3649.04  686.56
  -8   1   1 1870.60  353.43
   8   1  -1 2016.58  359.34
  -8   1   1 1974.24  363.27
   8   1  -1 1958.66  355.03
   8  -1  -1 1999.05  362.03
   8  -1  -1 1768.61  306.19
  -8  -1   1 1934.32  362.29
  -8  -1   1 2040.11  375.22
   8  -1  -1 2054.51  366.64
  -8   1   0  100.46   30.14
   8   1   0   87.67   23.81
   8   1   0   84.16   26.24
  -8   1   0   86.74   25.58
  -8  -1   0   75.67   26.34
   8  -1   0   88.95   24.36
  -8  -1   0  118.39   29.59
   8  -1   0  129.09   29.37
   8  -1   0   77.38   19.08
  -8   1  -1 1043.90  183.97
  -8   1  -1  879.16  149.51
  -8   1  -1  981.36  166.64
   8   1   1 1024.86  168.66
   8   1   1 1081.46  178.55
   8   1   1  794.34  132.83
   8  -1   1 1079.58  178.58
   8  -1   1 1109.46  178.74
  -8  -1  -1  808.60  143.40
   8  -1   1 1002.47  160.66
  -8  -1  -1 1004.17  169.58
  -8  -1  -1 1089.47  184.38
  -8   1  -2  605.59  100.81
  -8   1  -2  613.45  100.48
   8   1   2  574.67   92.83
   8   1   2  634.59  100.78
   8   1   2  456.85   72.49
  -8  -1  -2  539.37   92.38
   8  -1   2  630.85  101.65
  -8  -1  -2  653.71  105.38
   8  -1   2  598.37   94.08
   8  -1   2  584.65   87.53
   8   1   3  270.93   37.68
  -8   1  -3  323.48   45.74
   8  -1   3  218.46   31.43
  -8  -1  -3  342.01   46.61
   8  -1   3  304.35   41.21
  -8   2   4   37.40   12.30
   8   2  -4   28.99   10.42
  -8   2   4   37.57   11.49
  -8  -2   4   29.54   12.25
  -8  -2   4   62.66   14.98
  -8  -2   4   24.70   10.87
   8  -2  -4   25.85    7.97
   8  -2  -4   45.47   13.27
   8   2  -3 3144.97  592.55
  -8   2   3 2879.57  564.96
  -8   2   3 2857.81  535.54
  -8  -2   3 3014.61  583.23
   8  -2  -3 3083.42  591.38
   8  -2  -3 2658.64  485.84
  -8  -2   3 3174.16  602.95
  -8  -2   3 2831.04  580.63
   8   2  -2  105.27   32.68
  -8   2   2  105.13   26.79
  -8   2   2   79.88   19.52
  -8   2   2  114.29   30.76
   8  -2  -2  110.44   28.56
   8  -2  -2  101.77   24.91
  -8  -2   2  101.63   26.13
  -8  -2   2  108.20   33.04
   8  -2  -2   95.05   19.44
  -8  -2   2  114.31   44.33
   8   2  -1 1910.68  344.46
  -8   2   1 2214.43  437.25
   8   2  -1 1940.43  349.13
  -8   2   1 2007.98  369.41
  -8  -2   1 1945.52  367.40
   8  -2  -1 2089.91  367.33
  -8  -2   1 2024.76  372.61
   8  -2  -1 1941.97  353.55
   8  -2  -1 1657.28  300.15
  -8   2   0   27.82   12.59
  -8   2   0   14.85   15.01
   8   2   0   18.52   11.72
   8   2   0   19.37   12.45
  -8  -2   0   19.18   13.16
   8  -2   0   29.21   13.56
   8  -2   0   21.50    9.64
   8  -2   0   10.21   10.46
  -8  -2   0   14.13   12.13
  -8   2  -1  910.68  160.80
   8   2   1  842.33  139.61
  -8   2  -1  744.89  129.90
  -8   2  -1  810.79  140.41
   8   2   1  922.42  153.52
  -8  -2  -1  858.70  150.69
  -8  -2  -1  868.81  160.85
   8  -2   1  906.63  153.29
   8  -2   1  900.87  147.81
   8  -2   1  910.49  147.05
  -8   2  -2  839.16  143.02
  -8   2  -2  829.71  135.58
   8   2   2  870.14  140.31
   8   2   2  742.42  121.41
  -8  -2  -2  887.88  144.35
   8  -2   2  764.21  125.43
   8  -2   2  890.87  149.55
   8  -2   2  912.38  146.70
   8   2   3  279.22   38.24
  -8   2  -3  293.84   42.58
   8  -2   3  287.89   40.99
  -8  -2  -3  301.81   44.46
   8  -2   3  280.77   37.66
   8   3  -4   34.56   12.24
  -8   3   4   47.38   13.12
  -8   3   4   57.67   13.84
  -8  -3   4   51.99   15.39
  -8  -3   4   60.39   16.32
   8  -3  -4   48.38   10.71
   8  -3  -4   57.59   15.34
  -8   3   3  390.94   61.90
  -8   3   3  365.39   68.37
  -8   3   3  532.54   76.18
   8   3  -3  372.34   72.91
  -8  -3   3  378.25   67.28
   8  -3  -3  402.35   68.36
  -8  -3   3  416.09   68.93
   8  -3  -3  375.92   55.03
  -8  -3   3  397.99   68.50
  -8   3   2 2421.71  476.51
  -8   3   2 2133.46  395.73
  -8   3   2 2595.47  497.21
   8   3  -2 2640.10  489.52
  -8  -3   2 2784.29  521.86
  -8  -3   2 2497.32  465.26
   8  -3  -2 2602.74  477.52
   8  -3  -2 2428.10  426.93
   8  -3  -2 2750.23  510.98
  -8  -3   2 2433.16  473.46
   8   3  -1  112.71   26.13
  -8   3   1  111.67   31.83
   8   3  -1  113.68   27.10
  -8   3   1  115.58   32.22
  -8  -3   1  133.02   33.41
   8  -3  -1  105.05   21.53
  -8  -3   1  111.81   31.75
   8  -3  -1  108.71   28.90
   8  -3  -1  121.66   26.83
  -8   3   0  170.72   41.79
   8   3   0  179.21   38.55
  -8   3   0  174.47   37.66
   8   3   0  166.42   34.97
  -8  -3   0  177.74   34.94
   8  -3   0  154.50   31.66
   8  -3   0  190.13   40.28
   8  -3   0  165.27   31.99
  -8  -3   0  155.13   37.08
  -8   3  -1  889.90  152.15
   8   3   1  877.90  147.50
  -8   3  -1  903.19  154.32
  -8   3  -1 1072.80  190.36
   8   3   1 1082.81  177.91
   8  -3   1 1116.14  176.47
  -8  -3  -1  973.78  167.51
  -8  -3  -1  935.29  158.02
   8  -3   1 1052.70  176.32
   8  -3   1  962.45  158.15
  -8   3  -2  687.38  113.60
   8   3   2  480.56   80.86
  -8   3  -2  647.90  102.59
   8   3   2  688.42  107.49
  -8  -3  -2  686.46  108.73
   8  -3   2  676.53  102.44
   8  -3   2  694.02  110.26
  -8   4   4  914.05  126.37
  -8  -4   4  853.48  141.58
  -8  -4   4  914.83  129.66
   8  -4  -4 1000.07  137.15
   8  -4  -4  829.52  107.83
   8  -4  -4  937.08  132.44
  -8  -4   4  446.72   95.98
  -8   4   3    0.98    7.52
  -8   4   3    2.63    6.08
   8   4  -3    3.58    5.92
  -8  -4   3    8.89    7.26
  -8  -4   3   19.18    8.58
  -8  -4   3    2.92    7.04
   8  -4  -3    2.19    7.08
   8  -4  -3    5.92    5.76
   8  -4  -3    4.77    7.51
  -8   4   2    7.21    9.30
  -8   4   2   12.99   11.49
  -8   4   2   12.63    7.47
   8   4  -2    0.72    8.97
   8   4  -2   14.92    8.60
  -8  -4   2   10.51   10.08
   8  -4  -2    5.73    8.39
   8  -4  -2   12.86    7.29
  -8  -4   2    9.97   10.91
   8  -4  -2   14.91    9.82
   8   4  -1  224.94   41.20
   8   4  -1  224.51   43.85
  -8   4   1  258.51   50.43
  -8   4   1  213.26   48.00
  -8  -4   1  253.52   47.56
   8  -4  -1  219.06   35.95
   8  -4  -1  241.29   42.92
  -8  -4   1  233.51   49.79
   8  -4  -1  221.71   45.31
  -8   4   0  815.00  137.35
   8   4   0  729.11  121.93
  -8   4   0  818.59  146.57
   8   4   0  831.23  139.81
  -8  -4   0  820.52  133.39
  -8  -4   0  766.02  131.99
   8  -4   0  831.41  139.41
   8  -4   0  809.01  124.72
   8  -4   0  708.34  115.47
   8   4   1 1137.82  191.48
   8   4   1  917.08  156.49
  -8   4  -1 1037.19  175.00
  -8   4  -1 1022.44  175.10
  -8   4  -1 1262.37  217.56
  -8  -4  -1 1092.85  180.52
   8  -4   1 1305.51  211.70
   8  -4   1  922.21  159.61
   8  -4   1 1301.93  203.53
  -8  -4  -1 1045.88  180.95
  -8   4  -2  186.44   36.87
   8   4   2  206.32   39.52
  -8   4  -2  363.16   54.27
   8  -4   2  196.50   36.98
  -8  -4  -2  198.35   49.47
   8  -4   2  205.77   40.14
  -8   5   4  641.88   82.82
  -8  -5   4  614.12   86.86
  -8  -5   4  324.40   54.61
   8  -5  -4  614.75   74.75
  -8  -5   4  655.13   84.28
   8  -5  -4  670.57   87.27
  -8   5   3  119.79   23.66
  -8   5   3  111.42   26.83
   8  -5  -3  113.55   25.26
  -8  -5   3  112.61   26.43
  -8  -5   3  137.27   30.53
   8  -5  -3  106.28   21.89
  -8  -5   3  122.20   24.04
   8  -5  -3  125.78   25.72
  -8   5   2    6.65   11.37
   8   5  -2    3.72    7.76
  -8   5   2   18.17    8.20
   8   5  -2   40.07    9.51
  -8  -5   2    6.37   11.36
   8  -5  -2    3.19    8.31
   8  -5  -2   11.84    9.52
   8  -5  -2    9.52    7.71
  -8   5   1  474.30   82.95
   8   5  -1  405.40   65.88
  -8   5   1  368.39   59.30
  -8   5   1  425.83   79.60
   8   5  -1  398.56   79.79
   8  -5  -1  468.63   94.97
   8  -5  -1  465.73   72.91
  -8  -5   1  492.77   84.51
   8  -5  -1  435.01   64.19
  -8  -5   1  494.95   80.56
  -8   5   0  503.26   90.57
   8   5   0  465.30   77.98
  -8   5   0  503.96   84.55
   8  -5   0  478.17   72.67
  -8  -5   0  356.95   65.20
  -8  -5   0  439.21   76.55
   8  -5   0  363.74   61.85
  -8  -5   0  478.78   77.27
   8  -5   0  473.29   79.61
  -8   5  -1  171.18   39.84
  -8   5  -1  150.13   31.29
  -8   5  -1  176.01   32.37
  -8  -5  -1  126.07   29.96
  -8  -5  -1  162.90   32.26
   8  -5   1  166.99   36.06
   8  -5   1  176.45   34.40
   8   5   2   38.27   14.93
  -8   5  -2  143.41   22.17
  -8   5  -2   32.02   13.51
  -8  -5  -2   38.28   14.12
   8  -5   2   35.82   15.10
   8  -5   2   40.01   13.95
  -8   6   4    4.86    9.62
  -8  -6   4    3.40    6.50
   8  -6  -4    6.24    5.81
   8  -6  -4   15.78    5.28
  -8   6   3    1.09    6.08
  -8   6   3    2.09    8.46
  -8  -6   3    1.86    6.97
  -8  -6   3   10.87    4.66
  -8  -6   3   -1.24    9.22
   8  -6  -3    2.16    5.32
   8  -6  -3    0.10    5.00
   8   6  -2  147.17   43.89
  -8   6   2  236.34   46.45
   8   6  -2  190.26   34.59
  -8   6   2  205.29   35.87
  -8  -6   2  228.87   42.76
   8  -6  -2  222.13   34.90
   8  -6  -2  206.00   36.52
   8  -6  -2  195.12   34.58
  -8  -6   2  225.17   43.95
   8   6  -1    1.90    6.98
  -8   6   1    7.32    9.65
  -8   6   1    6.96    5.73
  -8   6   1    5.67    8.81
   8  -6  -1    3.05    6.13
   8  -6  -1   10.66    7.81
  -8  -6   1    9.56    8.13
   8  -6  -1    5.80    6.32
  -8  -6   1    5.97    8.57
  -8   6   0    4.74    8.34
  -8   6   0   14.73    7.66
   8   6   0    0.08    6.44
  -8  -6   0   -0.38    6.13
   8  -6   0    1.45    6.56
   8  -6   0    4.59    5.79
  -8  -6   0    4.00    6.23
  -8  -6   0    2.88    5.46
  -8   6  -1  249.80   50.78
  -8   6  -1  178.02   34.78
  -8   6  -1  212.86   39.09
   8   6   1  248.62   46.90
   8  -6   1  237.67   43.58
   8  -6   1  324.69   47.64
  -8  -6  -1  218.82   39.85
  -8   6  -2 2011.28  345.20
  -8   6  -2 1832.10  307.98
   8   6   2 1937.61  330.16
   8  -6   2 1897.91  314.29
  -8  -6  -2 1897.20  317.66
   8  -6   2 1975.69  341.85
  -8   7   3  151.00   31.08
  -8   7   3  200.25   31.49
   8   7  -3  164.49   26.01
  -8  -7   3  181.95   36.01
   8  -7  -3  195.01   28.83
  -8  -7   3  187.35   45.01
   8  -7  -3  175.46   28.90
  -8   7   2  695.33  105.55
  -8   7   2  701.61  120.79
  -8  -7   2  780.85  124.81
  -8  -7   2  787.22  122.75
   8  -7  -2  610.04   95.47
   8  -7  -2  745.67  105.83
   8   7  -1  410.98   80.22
  -8   7   1  689.14  113.36
  -8   7   1  577.06   95.75
  -8   7   1  516.00   96.06
   8  -7  -1  728.76  116.47
   8  -7  -1  563.34   92.83
  -8  -7   1  701.36  104.39
  -8  -7   1  682.68  108.02
   8   7   0  516.37  101.00
  -8   7   0  567.48   98.64
  -8   7   0  622.31   99.58
  -8  -7   0  555.28   98.13
  -8  -7   0  513.70   83.71
   8  -7   0  591.76   87.31
  -8  -7   0  464.68   78.05
   8  -7   0  558.81   89.05
  -8   7  -1  151.83   28.82
  -8   7  -1  188.47   33.98
   8   7   1  196.44   35.50
  -8   7  -1  242.91   60.21
  -8  -7  -1  188.68   33.55
   8  -7   1  200.55   35.09
   8  -7   1  225.71   36.43
   8   7   2  130.22   21.51
  -8   7  -2  119.22   20.02
  -8   7  -2  135.66   25.71
   8  -7   2  117.01   20.90
  -8  -7  -2  131.68   22.31
   8  -7   2  130.32   21.05
  -8   8   3  217.25   33.59
  -8   8   3  180.15   31.97
   8  -8  -3  225.02   31.18
  -8  -8   3  217.27   47.40
  -8  -8   3  261.39   40.58
  -8   8   2    2.56    6.31
  -8   8   2    5.96    8.76
   8  -8  -2   12.79    6.31
  -8  -8   2    5.74    8.04
  -8  -8   2    8.82    7.81
  -8   8   1  281.25   43.91
  -8   8   1  326.53   61.07
  -8  -8   1  330.11   55.87
   8  -8  -1  347.98   52.19
  -8  -8   1  316.19   52.89
  -8   8   0 1107.14  200.51
   8   8   0  763.72  130.77
  -8   8   0 1235.00  186.68
   8  -8   0  936.55  151.77
   8  -8   0 1118.08  162.34
  -8  -8   0  906.48  144.35
  -8  -8   0 1074.13  172.80
   8   8   1   82.75   17.87
  -8   8  -1  115.61   24.31
  -8   8  -1   61.88   14.20
   8  -8   1  114.98   21.22
  -8  -8  -1  108.56   19.62
  -8   9   3 1475.62  224.08
  -8  -9   3 1781.90  279.13
   8  -9  -3 1579.04  225.67
  -8  -9   3 1586.64  244.81
  -8   9   2  353.61   52.31
  -8   9   2  374.61   60.40
   8  -9  -2  377.24   50.84
  -8  -9   2  410.16   59.76
  -8  -9   2  374.26   57.93
  -8   9   1  521.72   74.30
  -8   9   1  379.60   75.07
  -8  -9   1  601.87   88.33
  -8  -9   1  668.08   91.06
   8  -9  -1  635.53   86.91
  -8   9   0  540.47   78.51
  -8   9   0  461.52   71.74
   8  -9   0  421.20   57.85
  -8  -9   0  497.75   87.57
  -8  -9   0  353.72   57.71
   8  -9   0  474.48   65.62
  -8   9  -1 1670.09  270.20
   8  -9   1 1684.77  262.90
  -8  -9  -1 1597.85  252.98
  -8  10   2   33.34    9.71
  -8  10   2   39.03   12.24
  -8 -10   2   39.31   11.55
   8 -10  -2   38.76   10.30
  -8 -10   2   41.70   17.00
  -8  10   1 1304.85  198.58
  -8  10   1 1509.07  238.98
   8 -10  -1 1476.01  219.05
  -8 -10   1 1478.81  224.17
  -8  10   0  504.39   71.75
   8 -10   0  500.29   67.72
   8 -10   0  431.01   55.70
   9   0  -4  192.68   27.72
   9   0  -4  201.25   30.10
   9   0  -3    2.17    3.89
  -9   0   3   -0.33    3.23
   9   0  -3    1.17    4.85
  -9   0   3   -0.42    3.83
   9   0  -2   29.12   11.74
   9   0  -2   32.12   12.81
  -9   0   2   23.26   14.19
  -9   0   2   20.62   12.84
  -9   0   1    5.30   10.01
   9   0  -1    7.02    7.68
  -9   0   1   24.52    9.72
   9   0  -1    0.14    8.01
  -9   0   0 1508.60  270.24
   9   0   0 1614.39  276.31
  -9   0   0 1615.56  290.37
   9   0   0 1727.34  293.79
  -9   0  -1    0.20    5.20
   9   0   1    0.11    2.70
   9   0   1    1.13    4.13
   9   0   1    2.02    4.36
  -9   0  -1    2.79    4.98
   9   0   2  527.39   70.91
   9   0   2  512.18   71.20
  -9   0  -2  543.00   74.86
   9   1  -4   17.64    4.73
   9   1  -4    5.30    6.01
   9  -1  -4    3.75    5.80
   9  -1  -4    2.73    4.88
   9   1  -3  432.11   61.80
  -9   1   3  314.15   54.98
  -9   1   3  379.90   60.56
   9   1  -3  444.44   65.50
   9  -1  -3  421.07   63.95
  -9  -1   3  351.53   57.93
  -9  -1   3  397.13   61.71
   9  -1  -3  385.36   56.54
  -9   1   2  108.14   28.70
  -9   1   2  126.02   29.62
   9   1  -2  109.42   25.93
   9   1  -2  123.58   24.75
   9  -1  -2  121.72   25.56
  -9  -1   2  112.02   27.05
  -9  -1   2  114.90   27.41
   9  -1  -2  106.96   25.82
   9   1  -1  228.42   39.17
   9   1  -1  211.43   38.42
  -9   1   1  231.35   43.45
  -9   1   1  238.74   46.47
   9  -1  -1  221.34   40.18
   9  -1  -1  168.49   28.44
  -9  -1   1  215.22   41.44
   9  -1  -1  227.80   38.79
  -9  -1   1  209.84   42.00
   9   1   0  916.53  146.79
   9   1   0  986.33  157.89
  -9   1   0  879.79  147.71
  -9   1   0  928.60  159.13
   9  -1   0  962.06  153.07
  -9  -1   0  968.49  161.84
   9  -1   0  933.28  151.80
  -9  -1   0  920.50  152.24
   9  -1   0  754.94  120.98
   9   1   1  175.47   31.83
  -9   1  -1  354.43   46.75
  -9   1  -1  115.63   24.77
   9   1   1  201.80   33.10
   9  -1   1  179.06   33.36
   9  -1   1  128.47   24.16
  -9  -1  -1  173.54   43.88
  -9  -1  -1  135.77   27.14
   9  -1   1  177.90   30.83
   9   1   2  521.45   69.12
   9   1   2  461.16   60.70
  -9   1  -2  490.97   65.60
   9  -1   2  529.82   70.04
  -9  -1  -2  465.35   68.62
   9   2  -4  495.11   63.88
   9  -2  -4  421.86   56.62
   9  -2  -4  481.72   61.01
   9   2  -3   67.65   14.75
   9   2  -3   66.71   16.40
  -9   2   3   56.08   15.83
   9  -2  -3   65.68   14.44
  -9  -2   3   54.60   21.41
   9  -2  -3   36.43    8.72
   9  -2  -3   65.15   15.99
  -9  -2   3   50.73   15.36
   9   2  -2  713.34  109.90
  -9   2   2  725.86  117.10
  -9   2   2  649.12  111.54
   9   2  -2  717.55  110.46
  -9  -2   2  700.66  114.93
   9  -2  -2  729.91  113.20
   9  -2  -2  592.19   87.78
  -9  -2   2  755.34  118.31
   9  -2  -2  766.89  115.32
   9   2  -1   11.09    9.31
  -9   2   1   18.20   11.68
  -9   2   1   17.90   11.50
   9   2  -1   25.21    9.44
   9  -2  -1   21.50   17.24
   9  -2  -1    9.27    7.08
  -9  -2   1   13.76   11.11
  -9  -2   1   13.84   11.10
   9  -2  -1   11.86    9.36
   9   2   0  779.79  126.06
  -9   2   0  751.81  131.00
  -9   2   0  718.38  118.91
   9   2   0  735.54  118.06
   9  -2   0  783.93  123.65
  -9  -2   0  825.84  145.12
  -9  -2   0  783.15  132.01
   9  -2   0  752.69  123.96
   9  -2   0  734.44  111.56
   9   2   1 2023.27  340.64
   9   2   1 1775.45  283.70
  -9   2  -1 1912.41  322.79
  -9   2  -1 1092.58  210.45
   9  -2   1 1770.02  286.63
  -9  -2  -1 1881.33  308.93
   9  -2   1 2013.52  322.69
   9  -2   1 1724.92  271.32
  -9  -2  -1 1392.00  244.16
   9   2   2  302.58   41.35
  -9  -2  -2  286.62   39.10
   9  -2   2  245.98   33.85
   9  -2   2  298.08   40.33
   9   3  -3 1462.24  240.94
   9   3  -3 1811.46  280.89
  -9   3   3 1638.08  286.77
  -9  -3   3 1683.00  268.28
  -9  -3   3 1704.71  279.05
   9  -3  -3 1790.21  278.35
   9  -3  -3 1698.78  268.45
   9  -3  -3 1412.34  212.47
  -9   3   2  789.47  124.68
  -9   3   2  653.90  111.73
   9   3  -2  739.63  113.88
   9   3  -2  761.93  115.68
  -9  -3   2  762.67  124.79
   9  -3  -2  778.33  118.28
  -9  -3   2  817.67  126.77
   9  -3  -2  813.26  121.04
   9  -3  -2  686.80   99.01
   9   3  -1  229.41   38.93
  -9   3   1  267.00   49.81
  -9   3   1  226.00   46.81
   9   3  -1  226.00   51.45
   9  -3  -1  266.80   46.73
   9  -3  -1  254.93   41.36
  -9  -3   1  219.76   46.05
  -9  -3   1  244.25   46.85
   9  -3  -1  229.50   36.54
   9   3   0   78.07   20.90
  -9   3   0   76.29   24.54
  -9   3   0   88.08   30.48
   9   3   0   90.79   22.32
   9  -3   0   84.42   22.48
   9  -3   0   99.27   28.76
   9  -3   0   90.49   20.40
  -9  -3   0   81.09   19.16
  -9  -3   0   83.52   23.62
   9   3   1  412.50   58.86
   9   3   1  331.32   47.08
  -9   3  -1  180.06   37.25
  -9   3  -1  415.57   63.35
   9  -3   1  415.66   60.25
  -9  -3  -1  311.16   47.09
  -9  -3  -1  331.04   51.36
   9  -3   1  320.18   59.08
   9  -3   1  385.24   52.13
  -9   4   3   23.34    6.19
   9   4  -3    6.96    7.31
   9   4  -3   14.62    5.69
  -9   4   3    2.89    8.02
   9  -4  -3   13.09    5.17
  -9  -4   3    5.70    8.34
   9  -4  -3    8.43    7.20
   9  -4  -3   10.16    7.06
  -9  -4   3   23.73    8.10
   9   4  -2   55.09   14.82
   9   4  -2   49.66   13.63
  -9   4   2   57.24   18.21
  -9   4   2   42.67   14.79
  -9  -4   2   52.30   18.97
   9  -4  -2   61.02   15.49
   9  -4  -2   65.60   19.69
   9  -4  -2   57.52   15.74
  -9  -4   2   62.16   18.73
  -9   4   1 4721.84 1052.78
   9   4  -1 4785.42 1025.74
   9   4  -1 5225.55 1123.36
  -9   4   1 5177.21 1103.22
  -9  -4   1 4853.04 1064.46
   9  -4  -1 4693.05 1016.28
   9  -4  -1 4750.42  989.80
   9  -4  -1 5115.76 1091.28
  -9  -4   1 5182.68 1107.32
  -9   4   0   88.60   20.80
   9   4   0   84.51   20.58
   9   4   0   70.75   16.86
  -9   4   0   82.15   24.08
  -9  -4   0   80.93   21.57
   9  -4   0   79.90   17.41
   9  -4   0   82.74   21.36
  -9  -4   0   72.91   17.73
   9  -4   0   72.88   17.69
  -9   4  -1    9.73    7.57
   9   4   1    7.79    6.65
  -9  -4  -1   -0.03    4.99
   9  -4   1    6.31    5.56
   9  -4   1    8.47    6.81
   9   5  -3 1175.22  161.13
  -9   5   3 1036.97  160.35
  -9   5   3 1017.34  149.76
  -9  -5   3 1199.70  179.18
  -9  -5   3 1149.23  168.65
   9  -5  -3 1130.22  160.15
   9  -5  -3 1102.72  147.11
  -9   5   2 1197.61  247.97
   9   5  -2 1703.37  275.97
   9   5  -2 1540.85  269.53
  -9   5   2 2020.93  334.06
   9  -5  -2 1927.72  316.82
   9  -5  -2 1988.33  322.51
  -9  -5   2 1997.38  332.17
  -9  -5   2 2134.47  344.61
   9  -5  -2 2088.49  332.86
  -9   5   1   19.30    9.94
   9   5  -1    6.44    6.63
   9   5  -1   22.18    7.82
   9  -5  -1    5.02    6.55
  -9  -5   1    6.50    9.41
   9  -5  -1    9.63    8.57
  -9  -5   1   10.19    9.19
   9  -5  -1    9.41    7.20
  -9   5   0 2024.45  358.23
   9   5   0 1954.37  339.38
  -9   5   0 2010.68  348.65
  -9  -5   0 2313.06  400.79
   9  -5   0 2088.78  370.14
   9  -5   0 1846.96  307.44
  -9  -5   0 1769.09  317.64
   9   5   1  896.38  134.24
  -9   5  -1  891.43  135.78
   9  -5   1  905.91  126.47
   9  -5   1  901.65  128.57
  -9  -5  -1  677.72  104.39
  -9   6   3   -0.14    2.50
  -9   6   3    1.81    2.75
   9  -6  -3    0.23    2.68
  -9  -6   3    0.66    3.59
   9  -6  -3    1.29    2.28
   9   6  -2 1250.21  253.61
  -9   6   2 2376.69  389.02
   9   6  -2 1760.43  299.63
   9  -6  -2 2495.87  382.81
  -9  -6   2 2484.94  403.13
  -9  -6   2 2732.25  429.18
   9  -6  -2 2129.71  362.12
   9   6  -1  278.04   47.46
  -9   6   1  318.71   55.22
  -9   6   1  408.84   62.26
  -9  -6   1  399.59   57.97
   9  -6  -1  358.80   54.81
  -9  -6   1  359.38   56.58
   9  -6  -1  369.66   52.56
  -9   6   0 1242.68  188.52
   9   6   0 1136.68  177.09
  -9   6   0 1183.00  189.35
   9  -6   0 1126.93  178.33
  -9  -6   0 1050.24  169.76
   9  -6   0 1219.62  185.49
  -9  -6   0 1067.66  171.43
  -9   6  -1    4.37    5.76
   9   6   1    0.93    4.64
   9  -6   1    5.73    4.84
   9  -6   1    6.30    4.73
  -9   7   2  560.82   81.76
   9  -7  -2  559.00   74.92
  -9  -7   2  586.43   83.29
  -9  -7   2  546.41   81.48
  -9   7   1    3.55    3.40
   9   7  -1    0.29    2.67
  -9   7   1    2.54    4.85
  -9  -7   1   -0.09    3.98
  -9  -7   1    0.22    4.13
   9  -7  -1    3.10    3.85
  -9   7   0  991.93  151.64
   9   7   0  723.58  112.54
  -9   7   0  875.34  145.84
   9  -7   0 1033.75  141.53
  -9   8   2  144.82   23.51
  -9  -8   2  138.83   23.61
   9  -8  -2  140.41   20.86
  -9  -8   2  140.34   22.52
  -9   8   1 2803.89  481.32
   9  -8  -1 2575.38  434.19
  -9  -8   1 2696.75  465.54
  -9   8   0  259.82   37.04
  -9   8   0  477.37   56.99
   9  -8   0  489.84   57.75
  10   0  -2 5261.50 1116.98
  10   0  -2 5765.44 1218.91
 -10   0   2 5641.45 1179.40
 -10   0   2 5176.28 1141.38
  10   0  -1    2.67    3.08
  10   0  -1    1.11    3.04
 -10   0   1   -9.77    4.21
 -10   0   1    0.81    3.25
  10   0   0   37.80   16.08
  10   0   0   28.63   10.07
  10   1  -2   32.66   16.60
 -10   1   2   77.21   18.35
 -10   1   2   19.07   10.52
  10   1  -2   21.06    9.55
  10  -1  -2   26.79   12.10
 -10  -1   2   93.33   15.99
  10  -1  -2   23.05    9.79
 -10  -1   2   70.07   17.02
 -10   1   1  894.72  137.01
  10   1  -1  955.83  141.51
  10   1  -1  912.09  133.06
 -10   1   1  876.45  136.35
  10  -1  -1  955.65  140.33
 -10  -1   1  916.18  140.07
 -10  -1   1  904.46  141.04
  10  -1  -1  918.46  136.75
  10   1   0 1411.28  216.71
  10   1   0 1425.41  219.14
 -10   1   0 1467.79  234.74
  10  -1   0 1513.75  228.20
 -10  -1   0 1372.82  221.17
  10  -1   0 1429.65  221.03
 -10   2   2   98.31   21.05
  10   2  -2   89.14   17.85
 -10   2   2   76.74   16.81
  10   2  -2   98.56   19.01
  10  -2  -2   88.96   16.16
  10  -2  -2  102.27   19.93
 -10  -2   2  100.69   20.43
 -10  -2   2  103.18   20.77
  10   2  -1 1396.76  211.24
 -10   2   1 1380.04  214.85
 -10   2   1 1276.87  213.15
  10   2  -1 1410.96  220.91
  10  -2  -1 1427.41  217.64
 -10  -2   1 1393.68  218.61
 -10  -2   1 1417.90  226.48
  10  -2  -1 1472.49  228.09
 -10   2   0  214.49   35.41
  10   2   0  198.99   29.03
  10   2   0  215.71   31.69
  10  -2   0  228.50   33.80
 -10  -2   0  205.81   32.55
  10  -2   0  195.32   29.79
  10   3  -2    1.91    3.59
 -10   3   2    3.67    4.32
  10   3  -2    0.74    3.56
  10  -3  -2    7.60    3.48
 -10  -3   2   -0.28    4.45
  10  -3  -2   -0.11    4.12
 -10  -3   2    1.14    4.43
 -10   3   1  790.99  117.67
  10   3  -1  756.43  103.88
 -10   3   1  816.81  116.09
  10   3  -1  804.75  114.55
  10  -3  -1  676.78   89.81
  10  -3  -1  817.74  112.73
 -10  -3   1  836.30  123.38
 -10  -3   1  878.42  120.73
  10  -3  -1  807.00  115.19
 -10   3   0  896.75  130.99
  10   3   0  949.45  144.67
  10  -3   0  935.07  128.76
 -10  -3   0  846.72  123.57
  10   4  -1  377.75   52.40
 -10   4   1  393.90   55.92
 -10   4   1  414.79   56.83
 -10  -4   1  421.99   56.31
 -10  -4   1  426.98   61.94
  10  -4  -1  373.41   47.07
  10  -4  -1  402.91   53.22
;
_shelx_hkl_checksum              71761
loop_
_space_group_symop_id
_space_group_symop_operation_xyz
1 +X,+Y,+Z
2 -X,1/2+Y,1/2-Z
3 -X,-Y,-Z
4 +X,-1/2-Y,-1/2+Z
loop_
_atom_site_label
_atom_site_type_symbol
_atom_site_fract_x
_atom_site_fract_y
_atom_site_fract_z
_atom_site_U_iso_or_equiv
_atom_site_adp_type
_atom_site_occupancy
_atom_site_site_symmetry_order
_atom_site_calc_flag
_atom_site_refinement_flags_posn
_atom_site_refinement_flags_adp
Se1 Se 0.36466(4) 0.16204(3) 0.58606(8) 0.01290(18) Uani 1 1 d . .
Se2 Se 0.88222(4) 0.07349(3) 0.64981(8) 0.01431(18) Uani 1 1 d . .
C1 C 0.6610(4) -0.0244(3) 1.0130(7) 0.0136(8) Uani 1 1 d . .
H1 H 0.7686 -0.0414 1.0220 0.016 Uiso 1 1 calc R U
C2 C 0.4309(4) 0.0680(2) 0.8321(7) 0.0114(8) Uani 1 1 d . .
C3 C 0.5918(4) 0.0449(3) 0.8444(7) 0.0112(8) Uani 1 1 d . .
C4 C 0.6671(4) 0.0986(3) 0.6679(7) 0.0123(8) Uani 1 1 d . .
C5 C 0.5723(4) 0.1612(2) 0.5226(7) 0.0142(9) Uani 1 1 d . .
H5 H 0.6071 0.2008 0.4007 0.017 Uiso 1 1 calc R U
C6 C 0.9035(4) 0.1591(3) 0.3751(7) 0.0160(9) Uani 1 1 d . .
H6A H 1.0110 0.1551 0.3396 0.019 Uiso 1 1 calc R U
H6B H 0.8274 0.1422 0.2213 0.019 Uiso 1 1 calc R U
H6C H 0.8829 0.2233 0.4258 0.019 Uiso 1 1 calc R U
loop_
_atom_site_aniso_label
_atom_site_aniso_U_11
_atom_site_aniso_U_22
_atom_site_aniso_U_33
_atom_site_aniso_U_23
_atom_site_aniso_U_13
_atom_site_aniso_U_12
Se1 0.0112(2) 0.0134(3) 0.0145(3) 0.00129(16) 0.00353(18) 0.00087(13)
Se2 0.0114(2) 0.0166(3) 0.0164(3) 0.00263(17) 0.00627(19) 0.00129(14)
C1 0.0109(15) 0.018(2) 0.012(2) -0.0032(16) 0.0027(14) -0.0004(14)
C2 0.0127(17) 0.009(2) 0.012(2) -0.0010(14) 0.0001(15) -0.0002(13)
C3 0.0111(15) 0.013(2) 0.010(2) -0.0043(15) 0.0034(14) -0.0028(14)
C4 0.0143(17) 0.010(2) 0.014(2) -0.0015(16) 0.0045(15) -0.0020(14)
C5 0.0153(18) 0.013(2) 0.017(2) 0.0008(15) 0.0093(16) 0.0008(14)
C6 0.0145(17) 0.018(2) 0.017(2) 0.0020(16) 0.0064(16) -0.0012(14)
loop_
_atom_type_symbol
_atom_type_description
_atom_type_scat_dispersion_real
_atom_type_scat_dispersion_imag
_atom_type_scat_source
C C 0.0181 0.0091
;
International Tables for Crystallography
(Vol. C, Tables 4.2.6.8 and 6.1.1.4)
;
H H 0.0000 0.0000
;
International Tables for Crystallography
(Vol. C, Table 6.1.1.4)
;
Se Se -0.7943 1.1372
;
International Tables for Crystallography
(Vol. C, Tables 4.2.6.8 and 6.1.1.4)
;
loop_
_geom_angle_atom_site_label_1
_geom_angle_atom_site_label_2
_geom_angle_atom_site_label_3
_geom_angle
_geom_angle_site_symmetry_1
C5 Se1 C2 86.84(15) .
C4 Se2 C6 98.51(15) .
C2 C1 C3 118.5(3) 3_657
C2 C1 H1 120.8 3_657
C3 C1 H1 120.8 .
C1 C2 C3 121.9(3) 3_657
C1 C2 Se1 126.7(3) 3_657
C3 C2 Se1 111.4(3) .
C1 C3 C2 119.6(3) .
C1 C3 C4 127.0(3) .
C2 C3 C4 113.4(3) .
C5 C4 C3 115.1(3) .
C5 C4 Se2 125.8(3) .
C3 C4 Se2 119.1(3) .
C4 C5 Se1 113.3(3) .
C4 C5 H5 123.4 .
Se1 C5 H5 123.4 .
Se2 C6 H6A 109.5 .
Se2 C6 H6B 109.5 .
H6A C6 H6B 109.5 .
Se2 C6 H6C 109.5 .
H6A C6 H6C 109.5 .
H6B C6 H6C 109.5 .
loop_
_geom_bond_atom_site_label_1
_geom_bond_atom_site_label_2
_geom_bond_distance
_geom_bond_site_symmetry_2
Se1 C5 1.879(3) .
Se1 C2 1.889(4) .
Se2 C4 1.906(3) .
Se2 C6 1.940(4) .
C1 C2 1.391(5) 3_657
C1 C3 1.392(5) .
C1 H1 0.9500 .
C2 C1 1.391(5) 3_657
C2 C3 1.413(4) .
C3 C4 1.455(5) .
C4 C5 1.352(5) .
C5 H5 0.9500 .
C6 H6A 0.9800 .
C6 H6B 0.9800 .
C6 H6C 0.9800 .
loop_
_geom_torsion_atom_site_label_1
_geom_torsion_atom_site_label_2
_geom_torsion_atom_site_label_3
_geom_torsion_atom_site_label_4
_geom_torsion
_geom_torsion_site_symmetry_1
_geom_torsion_site_symmetry_4
C5 Se1 C2 C1 179.6(4) . 3_657
C5 Se1 C2 C3 -0.3(3) . .
C2 C1 C3 C2 -0.9(6) 3_657 .
C2 C1 C3 C4 179.8(3) 3_657 .
C1 C2 C3 C1 1.0(6) 3_657 .
Se1 C2 C3 C1 -179.1(3) . .
C1 C2 C3 C4 -179.7(3) 3_657 .
Se1 C2 C3 C4 0.3(4) . .
C1 C3 C4 C5 179.3(4) . .
C2 C3 C4 C5 0.0(5) . .
C1 C3 C4 Se2 1.5(5) . .
C2 C3 C4 Se2 -177.8(3) . .
C3 C4 C5 Se1 -0.3(5) . .
Se2 C4 C5 Se1 177.32(19) . .
C2 Se1 C5 C4 0.4(3) . .
