#------------------------------------------------------------------------------
#$Date: 2019-10-29 23:13:30 +0200 (Tue, 29 Oct 2019) $
#$Revision: 220395 $
#$URL: file:///home/coder/svn-repositories/cod/cif/4/00/29/4002971.cif $
#------------------------------------------------------------------------------
#
# This file is available in the Crystallography Open Database (COD),
# http://www.crystallography.net/
#
# All data on this site have been placed in the public domain by the
# contributors.
#
data_4002971
loop_
_publ_author_name
'Takenaka, Hiroyuki'
'Ogaki, Takuya'
'Wang, Chengyuan'
'Kawabata, Kohsuke'
'Takimiya, Kazuo'
_publ_section_title
;
 Selenium-Substituted \b-Methylthiobenzo[1,2-b:4,5-b&#x2032;]dithiophenes:
 Synthesis, Packing Structure, and Transport Properties
;
_journal_issue                   17
_journal_name_full               'Chemistry of Materials'
_journal_page_first              6696
_journal_paper_doi               10.1021/acs.chemmater.9b01187
_journal_volume                  31
_journal_year                    2019
_chemical_formula_moiety         'C12 H10 Se4'
_chemical_formula_sum            'C12 H10 Se4'
_chemical_formula_weight         470.05
_space_group_crystal_system      monoclinic
_space_group_IT_number           14
_space_group_name_Hall           '-P 2ybc'
_space_group_name_H-M_alt        'P 1 21/c 1'
_symmetry_space_group_name_Hall  '-P 2ybc'
_symmetry_space_group_name_H-M   'P 1 21/c 1'
_atom_sites_solution_hydrogens   geom
_atom_sites_solution_primary     direct
_atom_sites_solution_secondary   difmap
_cell_angle_alpha                90.0000
_cell_angle_beta                 99.7583(16)
_cell_angle_gamma                90.0000
_cell_formula_units_Z            2
_cell_length_a                   8.4327(2)
_cell_length_b                   13.6718(3)
_cell_length_c                   5.46391(14)
_cell_measurement_reflns_used    2222
_cell_measurement_temperature    100
_cell_measurement_theta_max      68.02
_cell_measurement_theta_min      3.23
_cell_volume                     620.82(3)
_computing_cell_refinement       'RAPID AUTO'
_computing_data_collection       'RAPID AUTO (Rigaku, ????)'
_computing_data_reduction        'RAPID AUTO'
_computing_molecular_graphics    'CrystalStructure 4.2.5'
_computing_publication_material  'CrystalStructure 4.2.5 (Rigaku, 2017)'
_computing_structure_refinement  'SHELXL97 (Sheldrick, 2008)'
_computing_structure_solution    'SIR2011 (Burla, et al., 2012)'
_diffrn_ambient_temperature      100
_diffrn_detector_area_resol_mean 10.000
_diffrn_measured_fraction_theta_full 1.000
_diffrn_measured_fraction_theta_max 1.000
_diffrn_measurement_device_type  'Rigaku R-AXIS RAPID'
_diffrn_measurement_method       \w
_diffrn_radiation_type           'Cu K\a'
_diffrn_radiation_wavelength     1.54187
_diffrn_reflns_av_R_equivalents  0.1490
_diffrn_reflns_Laue_measured_fraction_full 1.000
_diffrn_reflns_Laue_measured_fraction_max 1.000
_diffrn_reflns_limit_h_max       10
_diffrn_reflns_limit_h_min       -10
_diffrn_reflns_limit_k_max       16
_diffrn_reflns_limit_k_min       -16
_diffrn_reflns_limit_l_max       6
_diffrn_reflns_limit_l_min       -6
_diffrn_reflns_number            10448
_diffrn_reflns_point_group_measured_fraction_full 1.000
_diffrn_reflns_point_group_measured_fraction_max 1.000
_diffrn_reflns_theta_full        67.687
_diffrn_reflns_theta_max         68.152
_diffrn_reflns_theta_min         5.323
_diffrn_standards_number         0
_exptl_absorpt_coefficient_mu    13.865
_exptl_absorpt_correction_T_max  0.330
_exptl_absorpt_correction_T_min  0.057
_exptl_absorpt_correction_type   numerical
_exptl_absorpt_process_details   'NUMABS (Rigaku, 1999)'
_exptl_crystal_colour            colorless
_exptl_crystal_density_diffrn    2.514
_exptl_crystal_density_method    'not measured'
_exptl_crystal_description       block
_exptl_crystal_F_000             436.00
_exptl_crystal_size_max          0.520
_exptl_crystal_size_mid          0.130
_exptl_crystal_size_min          0.080
_refine_diff_density_max         1.27
_refine_diff_density_min         -1.24
_refine_ls_extinction_coef       0.0097(6)
_refine_ls_extinction_method     SHELXL
_refine_ls_goodness_of_fit_ref   1.070
_refine_ls_hydrogen_treatment    constr
_refine_ls_number_parameters     32
_refine_ls_number_reflns         1139
_refine_ls_number_restraints     0
_refine_ls_R_factor_all          0.0563
_refine_ls_R_factor_gt           0.0504
_refine_ls_shift/su_max          0.000
_refine_ls_structure_factor_coef Fsqd
_refine_ls_weighting_details
'w = 1/[\s^2^(Fo^2^)+(0.0485P)^2^+2.1484P] where P=(Fo^2^+2Fc^2^)/3'
_refine_ls_weighting_scheme      calc
_refine_ls_wR_factor_gt          0.1132
_refine_ls_wR_factor_ref         0.1162
_reflns_Friedel_coverage         0.000
_reflns_number_gt                1088
_reflns_number_total             1139
_reflns_threshold_expression     F^2^>2.0\s(F^2^)
_cod_data_source_file            cm9b01187_si_005.cif
_cod_data_source_block           BDS-SeMe_block
_cod_database_code               4002971
_shelx_res_file
;

    shelxl.res created by SHELXL-2014/7

TITL BDS-SeMe_block
CELL  1.54187 8.43269 13.67180 5.46391 90.00000 99.75830 90.00000
ZERR  2 0.00023 0.00028 0.00014 0.00000 0.00160 0.00000
LATT 1
SYMM    -X, .50+Y, .50-Z
SFAC C H SE
UNIT 24 20 8
L.S. 4
FMAP 2
PLAN 20
WPDB -2
HTAB
BOND $H
CONF
LIST 4
TEMP -173.0
ACTA
SIZE 0.520 0.130 0.080
EADP Se1 Se2 C1 C2 C3 C4 C5 C6
WGHT    0.048500    2.148400
EXTI    0.009680
FVAR       0.89563
SE1   3    0.856190    0.337851    0.584253    11.00000    0.01069    0.01728 =
         0.02011   -0.00070    0.00167    0.00015
SE2   3    0.674533    0.653378    0.470496    11.00000    0.01069    0.01728 =
         0.02011   -0.00070    0.00167    0.00015
C1    1    0.938703    0.596964    0.957276    11.00000    0.01069    0.01728 =
         0.02011   -0.00070    0.00167    0.00015
AFIX  43
H1    2    0.897776    0.661517    0.930297    11.00000   -1.20000
AFIX   0
C2    1    0.946625    0.425344    0.837731    11.00000    0.01069    0.01728 =
         0.02011   -0.00070    0.00167    0.00015
C3    1    0.884913    0.521338    0.790863    11.00000    0.01069    0.01728 =
         0.02011   -0.00070    0.00167    0.00015
C4    1    0.769641    0.529519    0.561021    11.00000    0.01069    0.01728 =
         0.02011   -0.00070    0.00167    0.00015
C5    1    0.741484    0.445237    0.430802    11.00000    0.01069    0.01728 =
         0.02011   -0.00070    0.00167    0.00015
AFIX  43
H5    2    0.670422    0.440895    0.276458    11.00000   -1.20000
AFIX   0
C6    1    0.533348    0.616502    0.167818    11.00000    0.01069    0.01728 =
         0.02011   -0.00070    0.00167    0.00015
AFIX  33
H6A   2    0.473746    0.674098    0.095824    11.00000   -1.20000
H6B   2    0.597361    0.590074    0.049225    11.00000   -1.20000
H6C   2    0.457383    0.566645    0.205011    11.00000   -1.20000
AFIX   0
HKLF 4

REM  BDS-SeMe_block
REM R1 =  0.0504 for    1088 Fo > 4sig(Fo)  and  0.0563 for all    1139 data
REM     32 parameters refined using      0 restraints

END

WGHT      0.0485      2.1484

REM Instructions for potential hydrogen bonds
EQIV $1 x, -y+3/2, z-1/2
HTAB C6 Se2_$1

REM Highest difference peak  1.272,  deepest hole -1.239,  1-sigma level  0.247
Q1    1   0.9439  0.3407  0.6767  11.00000  0.05    1.27
Q2    1   0.4732  0.6615  0.2175  11.00000  0.05    1.20
Q3    1   0.7193  0.6563  0.3314  11.00000  0.05    1.14
Q4    1   0.8840  0.3224  0.6218  11.00000  0.05    1.09
Q5    1   0.5840  0.6440  0.3663  11.00000  0.05    1.04
Q6    1   0.6251  0.6565  0.5917  11.00000  0.05    1.02
Q7    1   0.9277  0.3415  0.4417  11.00000  0.05    0.99
Q8    1   0.7687  0.3403  0.4883  11.00000  0.05    0.96
Q9    1   0.3427  0.6621 -0.1160  11.00000  0.05    0.92
Q10   1   0.7738  0.3329  0.7166  11.00000  0.05    0.89
Q11   1   0.9434  0.6605  1.1845  11.00000  0.05    0.87
Q12   1   0.7679  0.6556  0.5648  11.00000  0.05    0.85
Q13   1   0.5416  0.6583  0.5723  11.00000  0.05    0.84
Q14   1   0.5057  0.6531  0.4749  11.00000  0.05    0.76
Q15   1   0.8453  0.6554  0.4450  11.00000  0.05    0.74
Q16   1   0.7005  0.3318  0.5571  11.00000  0.05    0.68
Q17   1   0.6934  0.6920  0.4902  11.00000  0.05    0.67
Q18   1   0.6453  0.3360  0.3314  11.00000  0.05    0.66
Q19   1   1.0294  0.3372  0.5942  11.00000  0.05    0.64
Q20   1   0.8676  0.4774  1.1302  11.00000  0.05    0.62
;
_shelx_res_checksum              44220
_shelx_hkl_file
;
   0   0  -1    4.12    5.36
   0   0   1    0.07   14.68
   0   0   1   36.44   10.29
   0   0  -1   14.42    9.43
   0   0  -1    7.42    2.03
   0   0  -1    5.49    2.11
   0   0  -1    3.94    8.64
   0   0  -1    4.30    5.16
   0   0  -1    2.91    8.29
   0   0  -1    1.16    4.49
   0   0  -1    2.86    2.19
   0   0  -2 9616.91 1437.23
   0   0  -213371.78 2008.46
   0   0   210925.27 1669.18
   0   0   215023.20 2253.98
   0   0  -2 8342.51 1275.85
   0   0  -2 7647.00 1175.43
   0   0  -211237.86 1686.12
   0   0  -2 9592.66 1461.01
   0   0  -214271.00 2145.59
   0   0  -3  194.53   41.38
   0   0  -3   15.26    9.04
   0   0  -4  129.94   28.94
   0   0  -4   85.52   20.54
   0   0  -4  137.33   34.08
   0   0  -4  197.21   42.08
   0   0  -5    6.80   18.10
   0   0  -5    9.78   12.08
   0   0  -5   13.11    6.90
   0   0  -6  401.57   75.84
   0   0  -6  371.60   74.60
   0   1   0    1.97    1.76
   0   1   0    2.59    2.21
   0   1   0    2.12    1.81
   0   1   0    1.78    2.21
   0   1   0   18.58    5.47
   0   1   0    9.95    3.32
   0  -1   0    0.61    2.16
   0  -1   0    2.18    3.36
   0  -1   0    2.72    2.28
   0  -1   0    2.30    2.62
   0  -1   0    2.33    1.72
   0   1  -1 6010.97  903.78
   0   1  -1 5564.66  832.75
   0   1  -1 6737.03 1009.87
   0   1  -1 5171.68  777.22
   0   1   1 6438.83  965.87
   0   1   1 8171.32 1222.60
   0   1  -1 6283.60  954.42
   0   1   1 7359.63 1103.48
   0   1  -1 5129.47  776.16
   0   1  -1 4564.63  682.56
   0   1   1 6906.73 1043.20
   0  -1  -1 5927.15  889.20
   0  -1  -1 5406.34  808.80
   0  -1  -1 6409.44  968.17
   0  -1  -1 7659.83 1147.60
   0  -1   1 5739.04  863.06
   0  -1  -1 5017.78  760.10
   0  -1  -1 5532.85  827.57
   0  -1  -1 6440.05  966.72
   0  -1  -1 6216.88  936.37
   0   1  -2 4878.62  744.62
   0   1  -2 4269.66  657.15
   0   1  -2 5677.25  863.50
   0   1   2 6543.98  993.74
   0   1  -2 5299.48  798.85
   0   1  -2 5231.06  821.14
   0   1  -2 5233.41  809.59
   0   1   2 6037.30  936.43
   0   1  -2 5136.97  775.02
   0  -1  -2 5321.46  808.80
   0  -1  -2 4747.28  713.27
   0  -1  -2 5106.93  787.71
   0  -1  -2 3556.19  552.62
   0  -1  -2 5074.02  757.04
   0  -1  -2 6675.23 1015.17
   0  -1  -2 3546.69  553.55
   0  -1  -2 5863.55  879.89
   0  -1  -2 5584.81  851.49
   0   1  -3 2955.16  463.85
   0   1  -3 3104.20  495.88
   0   1  -3 3318.92  520.00
   0   1   3 3400.14  545.12
   0   1  -3 2815.26  448.08
   0   1   3 4026.80  629.41
   0   1  -3 2681.21  412.79
   0   1  -3 2378.06  380.18
   0   1  -3 2688.83  415.52
   0  -1  -3 2832.07  454.77
   0  -1  -3 3315.22  524.21
   0  -1  -3 2379.53  385.75
   0  -1  -3 2968.71  465.09
   0  -1  -3 3552.11  557.24
   0  -1  -3 1968.37  318.51
   0   1  -4 4266.98  678.14
   0   1  -4 6334.56  986.58
   0   1  -4 3619.09  580.47
   0   1  -4 5152.53  820.08
   0  -1  -4 6464.37 1009.66
   0  -1  -4 5542.82  880.78
   0  -1  -4 6369.13  995.97
   0   1  -5  353.67   72.78
   0   1  -5  414.65   83.28
   0  -1  -5  364.59   75.28
   0  -1  -5  405.90   86.93
   0  -1  -5  267.44   52.98
   0   1  -6  565.40  107.70
   0   1  -6  698.69  121.53
   0  -1  -6  595.39  113.27
   0  -1  -6  638.00  114.98
   0   2   0  241.99   41.12
   0   2   0  238.59   42.86
   0   2   0  234.23   39.86
   0   2   0  340.89   58.90
   0   2   0  211.16   33.75
   0   2   0  380.82   64.12
   0   2   0  246.27   41.57
   0   2   0  205.12   34.34
   0   2   0  230.37   37.99
   0  -2   0  257.73   44.25
   0  -2   0  215.66   36.96
   0  -2   0  225.66   37.88
   0  -2   0  231.33   39.75
   0   2  -1 3766.53  562.48
   0   2  -1 5152.74  774.11
   0   2  -1 3406.31  508.65
   0   2   1 7275.66 1093.26
   0   2   1 5207.33  785.57
   0   2  -1 4544.50  685.32
   0   2   1 5324.77  803.08
   0   2  -1 4928.61  743.44
   0   2   1 4962.31  754.11
   0   2  -1 5404.09  815.69
   0   2  -1 4578.13  706.95
   0   2  -1 5110.71  777.11
   0  -2  -1 5846.65  882.50
   0  -2  -1 5021.98  755.90
   0  -2   1 5240.50  789.77
   0  -2  -1 4529.75  689.45
   0  -2  -1 6109.01  920.78
   0  -2  -1 5342.35  803.59
   0  -2  -1 4674.70  706.62
   0  -2   1 5335.23  804.64
   0  -2  -1 4292.59  649.43
   0   2   2 2405.96  375.38
   0   2   2 1471.06  235.05
   0   2   2 2544.52  403.42
   0   2   2 2771.35  430.06
   0   2  -2 2091.49  323.46
   0   2  -2 2189.91  345.29
   0   2  -2 2176.49  338.56
   0   2  -2 2099.66  327.20
   0   2  -2 2283.30  365.11
   0   2  -2 2037.36  319.78
   0   2  -2 1926.90  293.07
   0  -2  -2 2000.27  312.49
   0  -2  -2 2212.14  349.61
   0  -2  -2 2061.43  326.74
   0  -2  -2 2414.66  371.55
   0  -2  -2 2112.32  324.76
   0  -2  -2 2139.30  335.79
   0  -2  -2 1706.83  275.70
   0   2  -3 5815.10  910.63
   0   2   3 9604.38 1467.71
   0   2  -3 6357.25  995.70
   0   2  -3 5842.23  909.65
   0   2   3 3934.07  624.84
   0   2  -3 5984.93  917.08
   0   2  -3 7493.97 1148.48
   0   2   3 7696.24 1198.26
   0   2  -3 4748.68  734.87
   0  -2  -3 8676.65 1331.61
   0  -2  -3 5068.94  808.37
   0  -2  -3 7008.38 1081.04
   0  -2  -3 6910.98 1062.48
   0  -2  -3 6382.55  993.42
   0   2  -4   19.25    9.33
   0   2  -4    2.37    9.34
   0   2  -4    3.03    6.11
   0  -2  -4    4.24   10.36
   0  -2  -4    3.98   12.01
   0  -2  -4    2.26    8.07
   0  -2  -4    3.69    6.89
   0   2  -5 1355.67  225.14
   0   2  -5 1455.64  253.74
   0  -2  -5 1498.33  256.79
   0  -2  -5 1320.75  229.95
   0  -2  -5 1324.33  228.95
   0   2  -6   69.38   17.25
   0   2  -6   62.43   17.86
   0  -2  -6   65.60   19.90
   0  -2  -6   65.34   22.45
   0  -2  -6   54.58   14.96
   0   3   0    2.11    7.78
   0   3   0    2.37    5.34
   0   3   0    4.64    1.83
   0   3   0    2.18   15.49
   0   3   0    2.29    5.21
   0   3   0    6.19    6.03
   0   3   0   24.54    9.03
   0   3   0    4.45    3.80
   0  -3   0    0.48    6.21
   0  -3   0   10.89    6.82
   0  -3   0    2.54    5.21
   0  -3   0    0.52    4.19
   0   3  -112649.66 1895.14
   0   3  -110594.08 1587.51
   0   3   111674.22 1749.40
   0   3  -1 8787.07 1315.26
   0   3   111592.32 1736.55
   0   3  -110200.92 1552.47
   0   3  -113152.31 2000.82
   0   3   115686.81 2347.46
   0   3   111998.32 1805.95
   0   3  -110352.76 1558.88
   0  -3  -110941.13 1640.07
   0  -3  -113626.99 2048.23
   0  -3   111441.90 1714.98
   0  -3  -113080.67 1968.90
   0  -3  -115241.06 2289.22
   0  -3   112505.18 1871.32
   0  -3  -111131.26 1668.40
   0  -3  -111433.36 1714.80
   0  -3  -114597.56 2186.64
   0  -3  -110394.75 1560.69
   0  -3  -1 6694.38  998.05
   0   3  -2  133.18   30.32
   0   3  -2  114.59   21.75
   0   3   2  130.56   27.00
   0   3  -2  115.11   23.09
   0   3  -2  113.41   27.28
   0   3   2  146.17   29.55
   0   3  -2  126.93   24.66
   0   3   2  149.46   33.22
   0   3  -2  118.77   23.09
   0   3   2  163.83   32.33
   0  -3  -2  109.71   25.87
   0  -3  -2  129.92   28.75
   0  -3  -2  123.40   23.47
   0  -3  -2  119.16   26.07
   0  -3  -2  128.29   24.60
   0  -3  -2  152.42   33.90
   0  -3  -2   84.69   19.64
   0   3   3 1999.49  322.42
   0   3  -3 2079.85  327.13
   0   3  -3 2189.05  350.70
   0   3   3 2880.84  465.87
   0   3  -3 2477.47  393.12
   0   3  -3 1903.71  302.41
   0   3  -3 2095.94  334.91
   0   3  -3 2394.08  388.58
   0   3   3 2993.95  473.58
   0  -3  -3 1773.77  293.39
   0  -3  -3 2597.92  406.43
   0  -3  -3 2304.32  368.20
   0  -3  -3 2346.64  379.25
   0  -3  -3 2299.21  366.32
   0  -3  -3 2657.62  424.98
   0   3  -4  263.62   51.65
   0   3  -4  326.94   61.42
   0   3  -4  363.16   72.36
   0  -3  -4  325.57   63.96
   0  -3  -4  353.27   69.10
   0  -3  -4  323.08   62.76
   0  -3  -4  343.71   71.01
   0   3  -5   65.24   17.00
   0   3  -5   80.40   23.55
   0  -3  -5   64.32   21.90
   0  -3  -5   86.53   24.45
   0  -3  -5   68.54   22.91
   0   3  -6   93.04   22.18
   0  -3  -6   84.81   23.13
   0  -3  -6   84.49   24.27
   0  -3  -6   57.82   16.48
   0   4   018661.00 2817.94
   0   4   010289.97 1545.44
   0   4   0 9954.49 1492.47
   0   4   010022.65 1501.91
   0   4   015314.57 2303.74
   0   4   010955.57 1643.53
   0  -4   011706.31 1756.28
   0  -4   011370.92 1703.79
   0  -4   013993.86 2101.74
   0  -4   011590.02 1738.21
   0  -4   011264.41 1688.75
   0   4   1 4181.66  640.66
   0   4  -1 3012.28  465.10
   0   4   1 3053.95  466.93
   0   4  -1 3004.76  450.73
   0   4  -1 2843.47  437.35
   0   4   1 3100.08  479.97
   0   4   1 3298.68  509.80
   0   4  -1 2774.04  429.70
   0   4  -1 2537.11  405.98
   0   4   1 3073.76  472.70
   0   4  -1 2731.69  412.04
   0  -4  -1 3275.78  507.52
   0  -4  -1 2580.66  398.75
   0  -4  -1 2603.38  405.81
   0  -4  -1 2976.30  459.86
   0  -4  -1 3691.15  566.72
   0  -4  -1 2342.02  375.40
   0  -4   1 2996.21  464.80
   0  -4  -1 2853.90  439.38
   0  -4  -1 2973.96  449.79
   0  -4  -1 2611.80  403.02
   0  -4   1 3024.30  465.41
   0  -4  -1 2585.51  397.38
   0   4  -2 4171.67  651.96
   0   4  -2 6241.71  976.11
   0   4  -2 6091.55  924.94
   0   4  -2 6516.60  991.09
   0   4  -2 6050.16  931.86
   0   4   2 7560.35 1148.67
   0   4   2 9697.93 1470.56
   0   4   2 7225.13 1110.21
   0   4   2 6101.00  943.16
   0   4   2 6873.75 1051.32
   0   4  -2 6821.96 1042.63
   0  -4  -210464.32 1586.34
   0  -4  -2 6141.81  947.21
   0  -4  -2 5518.29  845.20
   0  -4  -2 6716.42 1026.74
   0  -4  -2 7044.37 1077.83
   0  -4  -2 6071.12  928.62
   0  -4  -2 5801.13  908.01
   0  -4  -2 6938.17 1061.77
   0   4  -3 6542.36 1001.33
   0   4   3 5372.21  847.53
   0   4  -3 6497.38 1015.83
   0   4  -3 6516.47 1004.32
   0   4  -3 7094.89 1098.16
   0   4   3 8650.18 1347.66
   0   4  -3 7285.11 1150.07
   0   4   311579.45 1767.32
   0   4   3 9866.41 1509.92
   0  -4  -3 7296.88 1127.32
   0  -4  -3 9205.82 1437.32
   0  -4  -3 6797.64 1050.50
   0  -4  -3 5091.91  812.06
   0  -4  -3 8991.80 1386.74
   0  -4  -3 6959.80 1084.48
   0   4  -4   97.40   26.07
   0   4  -4   76.95   20.51
   0   4  -4  119.29   25.64
   0  -4  -4   81.47   22.79
   0  -4  -4  138.42   33.29
   0  -4  -4   97.46   33.77
   0  -4  -4   76.11   23.03
   0   4  -5 2596.57  426.14
   0  -4  -5 2947.98  483.39
   0  -4  -5 2378.42  396.78
   0  -4  -5 2460.41  403.85
   0   4   6   13.94   18.35
   0   4  -6    4.50    3.87
   0  -4  -6    7.53    9.37
   0  -4  -6    6.74    8.00
   0   5   0    6.84    6.13
   0   5   0    2.05    6.90
   0   5   0    3.53    7.23
   0   5   0    0.73    3.98
   0   5   0    1.11    0.91
   0   5   0    0.22    3.43
   0   5   0    2.77    1.52
   0  -5   0   10.25    7.12
   0  -5   0    2.08    7.79
   0  -5   0    0.46    6.00
   0  -5   0    2.64    4.57
   0  -5   0    2.19    5.51
   0   5   1 4081.26  625.94
   0   5  -1 3301.81  526.42
   0   5   1 4180.97  638.69
   0   5   1 3923.83  605.40
   0   5  -1 3941.19  607.34
   0   5  -1 3761.71  577.31
   0   5  -1 3445.90  530.63
   0   5  -1 2388.34  363.71
   0   5   1 4134.22  636.92
   0   5  -1 3817.08  575.65
   0   5   1 4095.69  623.14
   0  -5  -1 3733.96  567.87
   0  -5   1 4013.37  617.48
   0  -5  -1 3796.05  583.56
   0  -5   1 4325.21  664.23
   0  -5  -1 3856.87  596.76
   0  -5  -1 3395.69  523.39
   0  -5  -1 4862.46  745.54
   0  -5  -1 3448.88  531.43
   0  -5  -1 3153.37  501.93
   0  -5   1 4120.65  635.87
   0  -5  -1 3310.29  516.61
   0  -5  -1 4083.22  632.43
   0   5   211187.61 1692.67
   0   5  -2 8661.45 1325.02
   0   5   2 8483.53 1305.22
   0   5  -2 7312.04 1143.99
   0   5  -2 8410.40 1314.85
   0   5   210468.97 1592.40
   0   5   215713.54 2374.98
   0   5  -210041.18 1528.25
   0   5  -210021.78 1520.92
   0   5   210019.12 1532.36
   0   5  -2 7988.61 1205.17
   0  -5  -2 9620.19 1464.79
   0  -5  -216874.98 2562.43
   0  -5  -210274.85 1566.31
   0  -5  -2 8190.92 1250.45
   0  -5  -210100.76 1541.24
   0  -5  -2 9704.65 1504.36
   0  -5  -2 8843.11 1347.91
   0  -5  -2 7275.47 1118.52
   0   5  -3   23.97    8.79
   0   5  -3   55.87   16.26
   0   5  -3   23.92   10.99
   0   5   3   30.74   11.86
   0   5   3   24.35    8.73
   0   5  -3   23.35    7.09
   0  -5  -3   23.51   11.08
   0  -5  -3   35.52   12.82
   0  -5  -3   21.92    8.22
   0  -5  -3   24.24   13.90
   0  -5  -3   24.95   11.52
   0  -5  -3   17.02    9.98
   0  -5  -3   24.18    7.51
   0  -5  -3   32.62   10.25
   0   5  -4 5838.83  928.17
   0   5  -4 6565.36 1031.03
   0   5  -4 5105.19  798.34
   0  -5  -4 8722.92 1366.34
   0  -5  -4 6936.44 1094.38
   0  -5  -4 5517.71  880.15
   0  -5  -4 6919.28 1088.81
   0   5  -5   45.92   15.92
   0   5  -5  115.02   26.99
   0  -5  -5  123.50   32.15
   0  -5  -5  120.78   30.27
   0  -5  -5  126.44   33.48
   0  -5  -5  112.56   26.40
   0   5   6 1609.71  274.96
   0  -5  -6  561.28  102.30
   0  -5  -6  340.03   67.78
   0   6   013923.72 2097.57
   0   6   013308.60 2015.21
   0   6   014937.24 2239.24
   0   6   025812.08 3923.25
   0   6   014619.73 2193.62
   0  -6   019372.50 2917.32
   0  -6   013625.04 2050.10
   0  -6   015315.12 2305.17
   0  -6   015349.87 2309.48
   0  -6   015647.55 2373.92
   0  -6   014967.45 2264.16
   0  -6   016716.81 2521.42
   0   6  -1 1093.88  177.02
   0   6   1 1276.44  205.90
   0   6   1 1216.13  196.14
   0   6   1 1280.98  205.75
   0   6   1 1128.52  177.93
   0   6  -1 1126.05  175.29
   0   6  -1 1000.93  168.88
   0   6   1 1263.06  204.23
   0   6   1  916.54  149.62
   0   6  -1 1137.87  183.94
   0   6  -1 1225.18  199.51
   0  -6   1 1248.22  202.52
   0  -6  -1  900.73  149.06
   0  -6   1 1349.75  218.47
   0  -6   1 1278.59  206.00
   0  -6  -1 1126.54  181.90
   0  -6  -1 1058.06  172.32
   0  -6  -1 1186.30  192.11
   0  -6  -1 1055.82  171.61
   0  -6  -1 1137.72  185.55
   0  -6  -1 1149.35  181.79
   0  -6  -1 1004.15  172.09
   0   6   2 7742.04 1191.75
   0   6  -2 6423.62 1012.95
   0   6   2 8349.12 1276.74
   0   6   2 7766.01 1196.37
   0   6  -2 6869.07 1055.32
   0   6  -2 8094.56 1242.42
   0   6   2 9161.47 1394.81
   0   6  -2 6978.51 1065.25
   0   6   2 8916.64 1356.60
   0  -6  -2 7659.11 1179.67
   0  -6  -2 6604.05 1024.40
   0  -6   2 8885.81 1358.47
   0  -6  -2 7110.59 1091.95
   0  -6  -2 8020.40 1229.12
   0  -6  -2 7756.12 1218.63
   0  -6  -214001.30 2151.46
   0  -6  -2 5972.66  929.96
   0  -6   2 8815.04 1350.41
   0  -6  -2 7654.07 1174.55
   0   6  -3  950.74  157.43
   0   6  -3  991.71  164.59
   0   6  -3  976.83  168.02
   0   6  -3  998.72  170.19
   0  -6  -3 1016.13  172.50
   0  -6  -3  848.18  147.47
   0  -6  -3 1012.18  168.81
   0  -6  -3  599.30  114.76
   0  -6  -3 1051.06  181.71
   0  -6  -3 1590.72  265.80
   0  -6  -3  970.45  165.66
   0  -6  -3  850.53  144.98
   0   6  -4   75.94   21.37
   0   6  -4   85.16   19.75
   0  -6  -4   94.03   28.45
   0  -6  -4   88.93   24.63
   0  -6  -4   89.62   25.46
   0  -6  -4   75.66   21.70
   0   6   5    0.16   13.52
   0  -6  -5  457.36   89.58
   0  -6  -5  428.38   81.34
   0  -6  -5  452.87   85.80
   0   6   6 1235.36  212.91
   0  -6  -6  395.74   74.01
   0  -6  -6  159.72   36.86
   0   7   0   16.87    7.30
   0   7   0    2.83    3.55
   0   7   0    2.86    5.74
   0   7   0    0.59    3.38
   0   7   0    7.82    6.42
   0  -7   0   12.09    5.05
   0  -7   0    5.12    5.14
   0  -7   0    1.90    5.85
   0  -7   0    1.38   10.29
   0  -7   0    0.72    3.23
   0  -7   0    0.91    6.48
   0  -7   0    0.74    8.13
   0   7   112781.11 1917.62
   0   7  -1 9641.94 1500.72
   0   7   111203.60 1705.18
   0   7  -111427.82 1737.40
   0   7   114303.61 2175.23
   0   7   110867.36 1656.81
   0   7   1 6661.83 1021.56
   0   7  -110341.96 1567.62
   0   7  -1 9571.94 1456.60
   0   7   112497.12 1890.85
   0   7  -115960.53 2447.67
   0  -7   113175.42 2001.15
   0  -7  -111229.58 1706.99
   0  -7   113152.21 1993.38
   0  -7  -1 9286.18 1420.14
   0  -7  -112112.25 1838.60
   0  -7  -112126.23 1840.33
   0  -7  -1 8579.34 1344.88
   0  -7  -110726.09 1629.95
   0  -7   112453.79 1898.34
   0  -7  -110923.91 1674.32
   0  -7  -110543.47 1603.87
   0   7   2 3598.15  563.59
   0   7   2 3345.36  526.43
   0   7   2 2428.80  387.86
   0   7   2 3128.43  492.28
   0   7   2 3276.88  518.63
   0   7  -2 3131.85  496.68
   0   7  -2 2777.95  436.91
   0   7  -2 2836.69  458.16
   0   7  -2 2771.97  437.78
   0   7   2 3406.24  530.02
   0  -7  -2 2901.33  462.75
   0  -7   2 3538.79  557.64
   0  -7  -2 3269.14  516.62
   0  -7  -2 2897.45  459.69
   0  -7  -2 2680.70  444.80
   0  -7  -2 2805.74  444.86
   0  -7  -2 2300.34  370.73
   0  -7  -2 5469.86  870.35
   0  -7   2 3499.18  553.14
   0   7  -3 1973.75  324.00
   0   7  -3 1809.39  293.19
   0   7  -3 2046.76  329.40
   0  -7  -3 1076.74  199.37
   0  -7  -3 1707.89  284.70
   0  -7  -3 2097.41  342.28
   0  -7  -3 2138.60  352.80
   0  -7  -3 1615.40  268.26
   0  -7  -3 1674.02  277.72
   0   7  -4  733.95  124.91
   0   7  -4  660.47  118.76
   0  -7  -4  711.06  128.67
   0  -7  -4  904.80  164.16
   0  -7  -4  603.94  109.64
   0  -7  -4  771.66  136.47
   0   7  -5   -0.01    6.67
   0   7   5   11.83   15.25
   0  -7  -5    8.18    7.02
   0  -7  -5    4.06   11.17
   0  -7  -5    4.08    6.65
   0   8   0  308.99   57.54
   0   8   0  375.18   67.37
   0   8   0  232.80   42.29
   0   8   0  210.54   40.10
   0   8   0  279.67   50.72
   0  -8   0  280.33   53.43
   0  -8   0  216.61   39.58
   0  -8   0  293.18   54.85
   0  -8   0  314.07   59.42
   0  -8   0  298.86   58.00
   0  -8   0  219.98   40.50
   0  -8   0  268.75   49.77
   0   8  -1 1120.80  186.83
   0   8  -1  941.83  155.47
   0   8  -1 1165.94  192.05
   0   8   1 1031.37  170.38
   0   8   1 1077.45  177.59
   0   8  -1  848.88  145.03
   0   8   1 1266.72  207.73
   0   8   1  661.84  111.62
   0  -8  -1  924.50  160.30
   0  -8  -1  961.50  161.17
   0  -8   1 1172.77  194.58
   0  -8  -1  795.36  135.76
   0  -8  -1  907.90  150.79
   0  -8  -1 1025.65  169.66
   0  -8   1 1239.89  204.53
   0  -8   1 1565.96  261.78
   0  -8  -1 1110.34  183.84
   0  -8  -1  941.97  157.81
   0  -8   1 1168.75  193.21
   0   8  -2   27.18    9.69
   0   8  -2   25.89   10.57
   0   8   2   23.08    9.45
   0   8  -2   37.73   14.61
   0   8   2   37.62   11.29
   0  -8  -2   23.92   10.51
   0  -8  -2   23.84   11.07
   0  -8  -2   23.72   10.83
   0  -8  -2   18.00   13.19
   0   8  -3 6439.86 1000.51
   0   8  -3 6241.65  979.25
   0   8   3 6601.92 1034.20
   0  -8   316832.71 2685.73
   0  -8  -3 6635.24 1045.79
   0  -8  -3 4286.73  695.77
   0  -8  -3 2968.71  515.46
   0  -8  -3 5322.10  857.30
   0  -8  -3 5767.43  904.88
   0   8   4  384.36   76.86
   0   8  -4  241.91   46.88
   0   8  -4  212.46   45.21
   0  -8  -4  259.32   53.11
   0  -8  -4  195.12   40.74
   0  -8  -4  265.94   64.68
   0   8   5 4100.61  657.55
   0  -8  -5 1417.32  248.42
   0  -8  -5 1689.07  286.91
   0  -8  -5 1645.68  276.98
   0   9   0    5.42    7.81
   0   9   0    3.61    3.79
   0   9   0    1.15    3.74
   0   9   0   12.82    5.51
   0   9   0    2.40    4.24
   0  -9   0   19.24   12.38
   0  -9   0   15.68    7.62
   0  -9   0    2.86    3.79
   0  -9   0    4.02   12.63
   0  -9   0   68.12   19.19
   0   9  -110366.09 1582.28
   0   9  -111836.68 1814.36
   0   9   1 7770.62 1204.56
   0   9   111192.87 1713.40
   0   9   110601.69 1617.90
   0  -9   113756.75 2126.98
   0  -9  -110071.01 1551.39
   0  -9  -1 8949.42 1384.44
   0  -9  -112054.63 1845.73
   0  -9   115288.13 2364.40
   0  -9  -1 9916.86 1551.69
   0  -9  -1 8354.12 1309.57
   0   9  -2  918.63  159.78
   0   9   2  803.96  136.69
   0   9  -2  837.83  143.10
   0   9   2  835.66  143.81
   0  -9  -2  765.45  133.09
   0  -9   2 1432.11  248.68
   0  -9  -2  592.63  114.44
   0  -9  -2  724.41  129.56
   0  -9  -2  804.71  140.08
   0   9  -3 1054.25  182.40
   0   9  -3 1135.87  192.59
   0   9   3 1279.87  216.52
   0  -9  -3  949.90  165.66
   0  -9  -3 1014.13  177.55
   0  -9  -3  799.90  140.49
   0  -9   3 2817.67  488.90
   0   9  -4  294.25   55.77
   0   9   4  474.14   89.90
   0   9  -4  228.89   47.47
   0  -9  -4  283.88   57.39
   0  -9  -4  245.70   52.12
   0  -9  -4  156.28   34.81
   0   9   5  463.68   89.47
   0  -9  -5  157.88   33.27
   0  -9  -5  157.73   35.92
   0  10   0 8343.09 1279.58
   0  10   010337.38 1591.02
   0 -10   010955.42 1688.31
   0 -10   0 9979.24 1548.50
   0  10  -1 1183.82  200.18
   0  10   1 1339.62  222.12
   0  10  -1 1102.73  184.04
   0  10   1  752.53  126.72
   0 -10   1 1392.29  238.51
   0 -10  -1 1131.19  192.91
   0 -10   1 1291.72  219.23
   0 -10  -1  944.51  161.02
   0 -10  -1  805.92  141.00
   0 -10  -1  887.65  152.66
   0  10   2 4435.37  699.51
   0  10  -2 5018.05  786.78
   0  10  -2 5293.85  836.35
   0  10   2 4123.79  656.81
   0 -10   2 7411.20 1189.11
   0 -10  -2 4633.06  731.85
   0 -10  -2 4968.03  786.51
   0 -10  -2 4707.13  756.44
   0 -10  -2 3802.39  625.14
   0  10   3 2099.67  343.26
   0  10  -3 1452.51  242.42
   0  10  -3 1564.14  262.99
   0 -10  -3 1435.43  245.15
   0 -10   3 2855.77  486.28
   0 -10  -3 1147.97  198.57
   0 -10  -3 1500.57  251.45
   0 -10  -3  818.87  156.48
   0  10   4  245.54   51.17
   0  10  -4   99.93   24.93
   0  10  -4  128.92   28.86
   0 -10  -4  125.75   30.29
   0 -10  -4  102.08   26.08
   0  10   5  481.01   84.71
   0 -10  -5  189.11   39.07
   0 -10  -5  192.23   37.99
   0  11   0   38.02   13.63
   0  11   0    4.41    4.11
   0 -11   0    6.48    9.07
   0 -11   0   11.36   10.83
   0  11  -1  602.72  105.86
   0  11  -1  656.95  118.02
   0  11   1  669.49  117.56
   0 -11  -1  625.58  113.43
   0 -11  -1  408.01   77.62
   0 -11   1  683.09  124.98
   0 -11  -1  512.25   92.50
   0 -11   1  687.80  124.01
   0  11  -2 3610.62  573.91
   0  11   2 2996.66  486.02
   0  11  -2 3697.99  594.70
   0 -11  -2 1900.93  324.52
   0 -11  -2 3150.69  510.47
   0 -11  -2 3007.09  495.70
   0 -11   2 4606.19  751.16
   0 -11  -2 3457.70  556.83
   0  11   3  377.48   70.26
   0  11  -3  330.42   62.80
   0  11  -3  353.96   69.74
   0 -11  -3  181.19   42.55
   0 -11  -3  256.69   51.72
   0 -11   3  464.97   91.20
   0 -11  -3  301.76   61.00
   0 -11  -3  319.97   62.90
   0  11  -4 2906.96  460.45
   0  11  -4 2431.11  390.59
   0  11   4 4341.57  685.29
   0 -11  -4 2495.75  403.56
   0 -11  -4 2473.03  404.86
   0  12   0 6007.86  946.33
   0 -12   0 6205.95  980.44
   0 -12   0 4952.33  788.75
   0  12  -1  544.21  100.64
   0  12  -1  417.11   75.70
   0  12   1  529.02   95.60
   0 -12   1  522.32   97.54
   0 -12  -1  320.53   60.23
   0 -12  -1  502.68   94.43
   0 -12  -1  322.97   64.34
   0 -12   1  522.20  102.48
   0  12  -2 2211.15  365.47
   0  12  -2 1773.35  289.60
   0 -12   2 2437.46  408.29
   0 -12  -2 1745.10  295.99
   0 -12  -2 1261.66  217.74
   0 -12  -2 1595.46  272.56
   0 -12  -2 2009.63  332.69
   0  12  -3 1048.57  180.46
   0  12   3 1002.18  174.17
   0  12  -3  944.42  160.41
   0 -12  -3  789.40  138.63
   0 -12   3 1189.59  213.10
   0 -12  -3  712.30  126.00
   0 -12  -3  721.62  128.26
   0  12   4   25.59    9.20
   0  12  -4    8.61    7.31
   0  12  -4   10.65    8.58
   0 -12  -4   10.08    8.82
   0 -12  -4   10.58    6.44
   0  13   0   43.48   14.89
   0 -13   0    1.20    8.68
   0 -13   0    0.89   10.07
   0  13  -1 3835.06  603.28
   0  13   1 5196.40  819.38
   0  13  -1 5259.05  832.48
   0 -13   1 4858.88  791.31
   0 -13  -1 3422.85  554.90
   0 -13   1 4888.05  785.77
   0 -13  -1 5359.95  851.19
   0  13  -2  841.58  146.60
   0  13  -2  791.40  135.68
   0 -13  -2  589.90  111.04
   0 -13  -2  603.75  108.47
   0 -13   2  946.34  167.78
   0 -13  -2  765.56  135.56
   0  13  -3  845.62  143.54
   0  13  -3  911.26  156.73
   0 -13  -3  666.66  116.84
   0 -13  -3  715.71  125.44
   0 -13  -3  574.64  101.85
   0  14   0  350.83   65.86
   0 -14   0  211.35   43.67
   0 -14   0  171.81   38.26
   0  14  -1  595.81  107.21
   0  14  -1  348.09   62.22
   0  14   1  498.76   88.24
   0 -14   1  490.08   91.03
   0 -14  -1  505.28   92.59
   0 -14   1  443.17   83.89
   0 -14  -1  471.60   89.97
   0  14  -2  262.64   51.75
   0  14  -2  230.95   44.38
   0 -14  -2  234.05   47.50
   0 -14  -2  174.20   39.51
   0 -14  -2  156.20   31.90
   0 -14   2  259.19   52.49
   0  14  -3 1854.56  295.08
   0  14  -3 2093.50  338.51
   0 -14  -3 1870.32  310.40
   0 -14   3   -0.00   12.11
   0 -14  -3 1959.05  322.63
   0  15   0    0.12    5.57
   0 -15   0    2.78   10.47
   0 -15   0    0.58    6.93
   0  15  -1 1395.74  228.56
   0 -15  -1 1530.98  253.38
   0 -15  -1 1560.78  260.27
   0 -15   1  562.26   99.58
   0 -15   1 1491.29  248.84
   0  15   2  717.01  119.46
   0  15  -2  678.59  116.13
   0 -15   2  862.42  147.96
   0 -15  -2  748.92  131.97
   0 -15  -2  748.05  128.87
   0 -15   2  764.31  132.43
   0 -16   0 4298.74  689.97
   0 -16   0 3689.34  585.73
   0  16  -1   67.95   15.75
   0 -16   1   94.36   24.17
   0 -16  -1   79.29   21.75
   0 -16  -1   83.69   20.22
   1   0  -6    2.84    6.94
   1   0  -6   10.24   14.46
   1   0  -5   85.75   23.29
   1   0  -5    2.67    6.27
   1   0  -4 2044.55  332.01
   1   0  -4 1975.31  324.94
   1   0  -4 1954.88  321.69
   1   0  -3    1.24    5.46
   1   0  -3   16.21    8.73
   1   0  -3    2.05    2.96
   1   0  -3    3.57    6.76
   1   0  -3    1.15    5.55
   1   0  -3    2.60    2.23
   1   0  -3    1.44    1.39
   1   0  -2  735.00  120.14
   1   0  -2  693.22  112.20
   1   0  -2  812.18  133.14
   1   0  -2  809.41  132.50
   1   0  -2  753.19  119.21
   1   0  -2  563.86   91.19
   1   0  -2  753.44  120.02
   1   0  -2  666.53  114.35
   1   0  -1    4.18    4.30
   1   0  -1    7.93    3.82
  -1   0   1    0.01    4.86
   1   0  -1    3.73    4.65
  -1   0   1    1.53    5.81
   1   0  -1    4.62    8.29
  -1   0   1    2.75    8.65
   1   0  -1    2.66    4.98
   1   0  -1    0.60    4.48
   1   0  -1    7.58    4.13
   1   0  -1    1.42    5.41
  -1   0   0 1452.87  224.73
   1   0   0 1451.44  223.30
  -1   0   0 1490.91  230.77
   1   0   0 1330.93  206.87
   1   0   0 1082.36  173.94
  -1   0   0 1270.74  196.31
  -1   0   0 1620.57  248.39
   1   0   0 1291.39  200.40
   1   0   0 1301.33  201.44
  -1   0   0 1796.01  281.90
   1   0   0 1296.30  201.86
  -1   0   0 1602.62  245.55
  -1   0   0 1433.57  219.86
  -1   0   0 1495.00  229.96
   1   0   0 1560.86  239.31
   1   0   1    8.77   10.92
  -1   0  -1    9.40    8.11
  -1   0  -1    6.17    7.77
  -1   0  -1    5.23    3.32
  -1   0  -1    2.51    4.47
   1   0   1    3.30    6.52
  -1   0  -1   -0.01    3.18
  -1   0  -1    0.82    7.61
   1   0   1    3.36    6.69
  -1   0  -1    3.05   10.94
  -1   0  -2  262.84   49.59
   1   0   2  319.79   61.30
  -1   0  -2  244.45   45.79
  -1   0  -2  273.78   44.30
  -1   0  -2  278.58   50.00
  -1   0  -2  243.12   41.21
  -1   0  -2  275.90   52.15
  -1   0  -2  261.57   52.61
   1   0   2  307.26   55.26
  -1   0  -3    4.41    6.12
  -1   0  -3   13.67    5.50
   1   0   3   18.30   12.56
  -1   0  -3    2.77   10.03
  -1   0  -3    6.71    5.39
  -1   0  -3    0.17    7.53
  -1   0  -4  625.70  110.06
  -1   0  -4  624.00  113.10
  -1   0  -4  738.47  135.35
  -1   0  -4  733.08  142.57
  -1   0  -5    3.21   10.76
  -1   0  -5    0.81   13.00
  -1   0  -6 2873.53  464.98
  -1   0  -6 2181.08  375.70
   1   1  -6 1862.02  323.46
   1   1  -6 2075.29  337.31
   1  -1  -6 2079.26  355.49
   1  -1  -6 1816.62  305.29
   1  -1  -6 2281.99  370.80
   1   1  -5  305.03   62.85
   1   1  -5  317.39   61.06
   1   1  -5  269.16   53.22
   1  -1  -5  312.73   62.14
   1  -1  -5  321.16   62.52
   1  -1  -5  315.19   64.39
   1   1  -4 1657.31  275.47
   1   1  -4 1411.52  232.08
   1   1  -4 1888.75  307.08
   1  -1  -4 1720.39  286.59
   1  -1  -4 1781.05  292.95
   1  -1  -4 1766.67  289.71
   1   1  -3  603.42   99.01
   1   1  -3  658.70  111.95
   1   1  -3  585.82  103.52
  -1   1   3  752.91  133.16
   1   1  -3  478.26   82.46
   1   1  -3  615.84  104.43
   1   1  -3  612.05  107.37
   1  -1  -3  531.90   95.96
   1  -1  -3  433.19   74.17
   1  -1  -3  639.07  109.33
   1  -1  -3  645.05  111.62
   1  -1  -3  593.98   98.58
   1  -1  -3  640.08  109.53
   1   1  -2   34.55    8.86
   1   1  -2   38.85   10.38
   1   1  -2   33.15    8.76
  -1   1   2   41.02   12.18
   1   1  -2   37.67    9.49
   1   1  -2   37.32    7.61
   1   1  -2   27.43   10.75
   1   1  -2   37.84   11.26
   1   1  -2   43.09   12.02
  -1   1   2   41.10   12.84
   1  -1  -2   36.08   11.11
   1  -1  -2   26.63    6.99
   1  -1  -2   33.83    8.76
   1  -1  -2   35.08    7.35
   1  -1  -2   51.21   16.57
   1  -1  -2   36.52   11.77
   1  -1  -2   34.86    8.44
   1  -1  -2   43.23   13.05
   1   1  -1 1275.74  199.42
   1   1  -1 1411.14  218.06
  -1   1   1 1304.22  206.15
   1   1  -1  950.26  153.57
  -1   1   1 1457.28  233.98
   1   1  -1 1362.74  212.24
  -1   1   1 1208.81  191.78
  -1   1   1 1155.15  181.10
   1   1  -1  935.83  148.08
   1   1  -1 1329.16  208.10
   1   1  -1 1419.63  218.68
  -1  -1   1 1093.65  177.75
   1  -1  -1 1349.31  211.32
   1  -1  -1 1277.41  198.51
   1  -1  -1 1236.22  193.71
   1  -1  -1 1207.54  191.44
   1  -1  -1 1306.06  202.35
   1  -1  -1 1324.01  209.30
   1  -1  -1 1327.68  212.68
  -1  -1   1 1365.89  214.00
   1   1   0  149.28   26.18
   1   1   0  120.95   28.09
  -1   1   0  131.72   25.12
  -1   1   0  131.60   26.79
   1   1   0  117.98   23.47
  -1   1   0  114.03   21.03
  -1   1   0  127.67   22.99
  -1   1   0  118.15   21.96
  -1   1   0  112.92   25.13
   1   1   0  129.79   26.96
   1   1   0  115.75   23.53
   1   1   0  106.94   22.16
  -1   1   0  125.06   21.47
   1   1   0  115.72   24.51
   1  -1   0  119.47   21.86
   1  -1   0  115.54   20.77
  -1  -1   0  144.16   27.25
   1  -1   0  114.00   24.98
  -1  -1   0  104.52   23.46
  -1  -1   0  125.59   25.73
  -1  -1   0  110.12   22.55
  -1  -1   0  113.55   22.84
   1  -1   0   54.35   14.56
   1  -1   0  115.87   21.67
   1  -1   0  122.77   21.72
  -1  -1   0  114.71   23.28
  -1   1  -1  165.91   37.81
   1   1   1  205.55   38.87
  -1   1  -1  166.93   28.75
  -1   1  -1  164.83   32.83
  -1   1  -1  227.91   43.39
   1   1   1  161.40   32.98
  -1   1  -1  183.58   34.44
   1   1   1  220.66   43.19
  -1   1  -1  175.81   31.37
  -1   1  -1  188.68   30.98
  -1   1  -1  163.04   26.26
   1   1   1  197.03   36.45
  -1  -1  -1  188.86   38.12
  -1  -1  -1  210.00   39.35
   1  -1   1  205.47   42.74
  -1  -1  -1  188.76   40.56
  -1  -1  -1  173.54   38.14
  -1  -1  -1  198.25   31.57
  -1  -1  -1  179.71   32.48
  -1  -1  -1  158.66   31.74
   1  -1   1  175.00   33.18
   1  -1   1  242.91   44.78
  -1  -1  -1  144.63   24.39
  -1   1  -2 4881.77  745.87
  -1   1  -2 4856.72  749.33
  -1   1  -2 4142.89  640.46
   1   1   2 5185.01  803.90
  -1   1  -2 4796.59  723.38
  -1   1  -2 4611.90  699.95
  -1   1  -2 5399.92  829.72
   1   1   2 4774.09  733.63
  -1   1  -2 3982.34  626.81
  -1  -1  -2 3917.88  610.98
  -1  -1  -2 3826.06  586.48
  -1  -1  -2 6464.63  964.04
   1  -1   2 4704.53  734.08
  -1  -1  -2 4069.14  624.93
  -1  -1  -2 5157.36  793.51
  -1  -1  -2 5853.87  885.36
  -1  -1  -2 3597.32  560.80
  -1  -1  -2 4783.19  737.19
  -1  -1  -2 5016.47  769.12
  -1   1  -3   42.98   10.32
  -1   1  -3   36.59   13.30
  -1   1  -3   35.34   12.71
  -1   1  -3   28.76    8.61
  -1   1  -3   27.01    6.91
   1   1   3   43.97   16.55
   1   1   3   48.42   14.74
  -1   1  -3   33.94   15.83
  -1  -1  -3   28.24   10.37
  -1  -1  -3   35.81   14.10
  -1  -1  -3   35.90   11.88
  -1  -1  -3   34.01   15.04
  -1  -1  -3   32.85    9.95
  -1   1  -4 4273.33  680.26
   1   1   4 3259.15  534.78
  -1   1  -4 3956.79  647.82
  -1   1  -4 3230.28  524.53
  -1  -1  -4 3243.32  529.49
  -1  -1  -4 3787.31  611.20
  -1  -1  -4 4269.64  681.36
  -1   1  -5 1115.61  195.08
  -1   1  -5  843.36  159.00
  -1  -1  -5  797.42  148.39
  -1  -1  -5 1068.42  189.81
  -1   1  -6  389.64   80.34
  -1   1  -6  568.05  101.40
  -1  -1  -6  431.04   84.45
  -1  -1  -6  430.55   82.35
   1   2  -6   21.62    8.92
   1   2  -6   23.80    8.78
  -1   2   6   10.23   20.03
   1  -2  -6   29.70   19.60
   1  -2  -6   22.01   15.91
   1   2  -5 3432.42  566.55
   1   2  -5 3185.31  506.41
   1  -2  -5 3291.79  529.97
   1  -2  -5 3213.28  527.32
   1  -2  -5 3330.44  535.57
   1   2  -4  292.27   57.30
   1   2  -4  388.47   71.03
   1   2  -4  269.93   51.74
   1  -2  -4  345.70   73.70
   1  -2  -4  414.65   78.80
   1  -2  -4  314.83   61.47
  -1   2   3 1168.73  194.79
   1   2  -3  893.08  147.52
   1   2  -3  938.37  153.15
   1   2  -3  962.42  157.77
   1   2  -3  845.70  143.10
   1   2  -3 1075.93  179.45
   1   2  -3  840.78  142.75
   1  -2  -3 1003.79  167.75
   1  -2  -3  930.00  152.53
   1  -2  -3  996.27  166.05
   1  -2  -3 1052.97  176.73
   1  -2  -3  761.20  133.93
   1   2  -2  336.78   57.26
   1   2  -2  353.98   61.30
   1   2  -2  338.95   58.68
   1   2  -2  353.71   57.44
   1   2  -2  376.88   64.55
  -1   2   2  436.40   79.93
  -1   2   2  375.52   65.51
   1   2  -2  278.70   53.55
  -1   2   2  388.52   68.58
   1   2  -2  389.46   67.32
   1  -2  -2  335.96   57.83
   1  -2  -2  339.78   59.96
   1  -2  -2  303.06   57.78
   1  -2  -2  389.89   69.41
   1  -2  -2  304.32   47.81
   1  -2  -2  275.66   43.23
   1  -2  -2  348.66   58.87
   1  -2  -2  383.75   67.90
   1  -2  -2  394.66   66.05
  -1   2   1    7.11    8.43
   1   2  -1    8.91    8.30
   1   2  -1    7.78    5.57
   1   2  -1   10.11    6.19
  -1   2   1   10.10    6.94
  -1   2   1    6.87    6.31
  -1   2   1   21.51    8.13
   1   2  -1    7.71    3.51
  -1   2   1   12.21    6.36
   1   2  -1    6.82    5.68
   1   2  -1   10.96    6.88
   1   2  -1    9.28    7.13
  -1  -2   1   10.82    7.91
   1  -2  -1    7.82    6.65
   1  -2  -1    6.78    5.70
   1  -2  -1   10.82    8.96
   1  -2  -1    5.16    4.50
  -1  -2   1   11.90   22.39
   1  -2  -1   13.89    5.33
   1  -2  -1    9.04    7.25
   1  -2  -1    9.45    6.17
   1  -2  -1    8.20    6.10
   1   2   0  167.31   29.73
  -1   2   0  210.76   41.50
  -1   2   0  164.40   29.42
   1   2   0  175.51   33.30
   1   2   0  184.08   35.46
  -1   2   0  256.17   45.04
  -1   2   0  148.58   28.58
   1   2   0  188.48   34.26
  -1   2   0  168.69   30.10
  -1   2   0  152.51   27.76
  -1   2   0  159.72   26.83
   1   2   0  194.33   32.08
  -1  -2   0  185.08   34.14
  -1  -2   0  176.36   33.20
   1  -2   0  182.18   31.69
   1  -2   0  174.02   31.09
  -1  -2   0  173.87   35.51
   1  -2   0  143.42   25.65
   1  -2   0  195.32   34.45
   1  -2   0  192.36   39.47
   1  -2   0  166.27   29.78
  -1  -2   0  232.36   44.24
  -1  -2   0  144.03   30.43
  -1  -2   0  177.55   32.93
  -1   2  -1  375.77   66.35
   1   2   1  268.02   57.04
  -1   2  -1  330.80   53.45
  -1   2  -1  208.83   38.92
  -1   2  -1  276.33   44.80
  -1   2  -1  235.70   49.93
   1   2   1  271.26   51.35
   1   2   1  307.41   55.70
   1   2   1  383.43   71.39
  -1   2  -1  279.38   47.75
   1   2   1  372.90   65.15
  -1   2  -1  294.18   46.65
   1   2   1  338.22   60.26
  -1   2  -1  306.54   53.83
  -1  -2  -1  330.27   58.88
  -1  -2  -1  323.16   57.29
  -1  -2  -1  204.56   35.44
  -1  -2  -1  381.23   68.09
   1  -2   1  240.88   45.94
   1  -2   1  322.31   56.13
  -1  -2  -1  322.20   57.64
  -1  -2  -1  312.33   50.71
  -1  -2  -1  334.66   57.29
  -1  -2  -1  264.38   44.24
  -1   2  -2  709.24  127.49
  -1   2  -2  691.17  115.76
  -1   2  -2  782.50  130.80
  -1   2  -2  742.20  121.42
  -1   2  -2  647.45  104.46
  -1   2  -2  665.14  107.75
  -1   2  -2  672.99  106.31
   1   2   2  964.94  159.02
   1   2   2  909.07  153.75
  -1  -2  -2  693.48  117.47
  -1  -2  -2  775.84  125.05
  -1  -2  -2  579.21   96.35
  -1  -2  -2  782.79  123.38
  -1  -2  -2  691.23  115.88
  -1  -2  -2  746.47  125.48
  -1  -2  -2  724.87  117.84
  -1  -2  -2  652.28  112.62
   1   2   3 5280.48  816.90
  -1   2  -3 3133.55  489.64
  -1   2  -3 3644.16  563.80
  -1   2  -3 3669.09  577.95
  -1   2  -3 4619.00  721.91
   1   2   3 3377.95  541.07
   1   2   3 4844.07  764.80
  -1   2  -3 4031.68  649.84
  -1  -2  -3 3670.75  584.43
  -1  -2  -3 4397.45  690.92
  -1  -2  -3 4740.38  742.14
  -1  -2  -3 4169.23  655.43
  -1   2  -4  211.88   44.27
   1   2   4  252.60   52.74
  -1   2  -4  237.68   55.51
  -1   2  -4  248.31   53.42
  -1  -2  -4  234.40   50.66
  -1  -2  -4  223.71   49.67
  -1  -2  -4  210.63   42.73
  -1  -2  -4  208.62   46.54
  -1   2  -5 1597.68  283.35
  -1   2  -5 2286.51  375.34
  -1  -2  -5 1424.67  243.70
  -1  -2  -5 1682.53  289.90
   1  -2   5 1269.15  219.11
  -1  -2  -5 1978.08  334.66
  -1   2  -6  284.67   60.61
  -1   2  -6  396.63   71.91
  -1  -2  -6  301.89   61.46
  -1  -2  -6  350.60   69.34
  -1   3   6   79.29   32.92
   1  -3  -6   24.15   17.30
   1  -3  -6   23.79   11.35
   1   3  -5  310.40   60.26
   1   3  -5  288.51   54.54
   1  -3  -5  324.87   66.87
   1  -3  -5  286.94   62.46
   1  -3  -5  306.78   63.08
   1   3  -4  139.77   30.19
   1   3  -4   96.14   22.25
   1   3  -4  129.26   26.44
   1   3  -4  116.77   25.39
   1  -3  -4  146.27   34.10
   1  -3  -4  138.71   28.67
   1  -3  -4  131.20   34.16
   1  -3  -4  141.57   33.38
  -1   3   3 4915.68  767.40
   1   3  -3 3891.35  603.06
   1   3  -3 3884.93  611.54
  -1   3   3 4623.57  734.26
   1   3  -3 3458.22  552.29
   1   3  -3 4118.35  649.82
   1   3  -3 3679.66  579.91
  -1   3   3 5701.59  882.72
   1   3  -3 3776.30  588.04
   1  -3  -3 4812.63  750.76
   1  -3  -3 3843.18  598.82
   1  -3  -3 4306.90  664.37
   1  -3  -3 2789.62  457.10
   1  -3  -3 4004.32  625.59
   1  -3  -3 3472.22  549.87
   1  -3  -3 3826.33  593.21
   1   3  -2   80.64   19.05
   1   3  -2  106.00   22.46
   1   3  -2  101.24   18.36
   1   3  -2   97.57   20.17
   1   3  -2   98.33   21.18
  -1   3   2  108.71   23.60
   1   3  -2   95.39   18.35
   1   3  -2   89.49   21.47
  -1   3   2   97.45   21.94
  -1   3   2  105.51   25.64
   1  -3  -2   90.57   18.55
   1  -3  -2   97.84   22.38
   1  -3  -2   90.03   19.49
   1  -3  -2   90.96   20.44
   1  -3  -2  102.09   20.62
   1  -3  -2   85.92   20.13
   1  -3  -2   94.61   24.37
  -1   3   1   10.09    6.59
  -1   3   1    4.88    5.58
   1   3  -1   12.28    6.05
   1   3  -1    6.75   10.28
   1   3  -1    7.39    7.17
  -1   3   1    8.28    5.92
   1   3  -1   17.84    5.75
  -1   3   1    5.82    8.53
   1   3  -1   14.16    9.08
   1   3  -1   13.17    7.66
  -1   3   1    9.25    7.63
   1   3  -1    5.89    2.47
   1  -3  -1    5.50    7.18
   1  -3  -1    8.67    7.94
   1  -3  -1   46.58   12.40
   1  -3  -1   18.91    8.90
   1  -3  -1    7.17    2.91
   1  -3  -1    7.51    5.89
   1  -3  -1    8.45    6.54
  -1  -3   1    5.20   11.02
   1  -3  -1    6.95    3.11
   1  -3  -1    3.87    5.84
  -1  -3   1   23.51   10.24
   1   3   0  336.79   57.89
  -1   3   0  334.27   56.53
  -1   3   0  348.96   56.02
   1   3   0  297.61   53.10
   1   3   0  279.61   50.17
   1   3   0  348.01   63.19
  -1   3   0  270.05   46.26
  -1   3   0  369.58   68.65
  -1   3   0  272.68   46.89
   1   3   0  174.57   29.14
   1   3   0  312.09   50.74
  -1   3   0  276.61   47.28
   1   3   0  245.42   40.99
   1   3   0  293.68   51.40
   1  -3   0  314.29   54.29
  -1  -3   0  340.88   61.33
   1  -3   0  273.57   47.04
   1  -3   0  373.10   64.52
   1  -3   0  299.47   50.93
  -1  -3   0  335.88   58.64
  -1  -3   0  272.05   51.03
   1  -3   0  344.44   64.10
  -1  -3   0  304.32   53.92
   1  -3   0  236.56   41.18
   1  -3   0  287.55   49.14
  -1  -3   0  316.43   56.33
  -1   3  -1  678.67  111.62
   1   3   1  745.56  121.06
  -1   3  -1  779.04  127.73
   1   3   1  818.87  142.56
   1   3   1  794.05  130.46
  -1   3  -1 1094.49  175.88
  -1   3  -1  485.54   82.47
   1   3   1  752.81  123.84
  -1   3  -1  440.29   84.99
   1   3   1  683.79  112.65
  -1   3  -1  596.65   95.31
  -1   3  -1  590.37   96.17
   1   3   1  814.67  134.02
  -1  -3  -1  667.18  111.07
  -1  -3  -1  677.82  111.04
  -1  -3  -1  748.00  125.82
  -1  -3  -1  579.88   96.71
  -1  -3  -1  639.03  105.48
   1  -3   1  722.36  118.20
  -1  -3  -1  627.35  100.45
  -1  -3  -1  505.67   82.67
  -1  -3  -1  541.59   88.83
   1  -3   1  613.31  100.41
  -1   3  -2  398.71   64.87
   1   3   2  562.61   99.12
   1   3   2  674.58  117.01
   1   3   2  688.83  116.24
   1   3   2  758.34  126.86
  -1   3  -2  487.64   81.35
  -1   3  -2  501.44   81.00
  -1   3  -2  534.00  101.44
  -1   3  -2  538.68   89.58
  -1   3  -2  576.43   97.91
  -1   3  -2  520.09   89.52
  -1   3  -2  550.97   89.70
   1  -3   2  575.16   98.01
  -1  -3  -2  548.94   91.82
  -1  -3  -2  638.57  103.34
  -1  -3  -2  435.40   77.45
  -1  -3  -2  388.48   68.56
  -1  -3  -2  503.98   87.41
  -1  -3  -2  555.83   92.81
  -1  -3  -2  550.74   96.44
  -1  -3  -2  495.53   86.43
   1   3   3  168.77   36.55
   1   3   3  194.88   44.09
   1   3   3  177.84   36.26
  -1   3  -3  155.32   33.00
  -1   3  -3  169.73   41.33
  -1   3  -3  154.87   32.10
  -1   3  -3  151.34   28.87
  -1  -3  -3  142.57   30.65
  -1  -3  -3  165.72   37.22
  -1  -3  -3  129.11   31.07
  -1  -3  -3  148.91   33.42
  -1   3  -4  227.40   46.29
   1   3   4  298.30   62.90
  -1   3  -4  194.82   44.51
  -1   3  -4  221.88   52.44
  -1  -3  -4  222.41   48.52
  -1  -3  -4  205.14   42.74
  -1  -3  -4  270.20   57.08
  -1  -3  -4  201.62   44.84
  -1   3  -5 1793.81  313.88
  -1   3  -5 2500.32  404.75
  -1   3  -5 1373.26  236.92
  -1  -3  -5 1691.78  288.22
  -1  -3  -5 1611.63  274.22
  -1  -3  -5 2158.29  363.23
  -1   3  -6   42.82   15.18
  -1  -3  -6   36.67   14.41
  -1  -3  -6   49.00   16.40
  -1   4   6    5.77   19.55
   1  -4  -6    3.20    9.96
   1  -4  -6    9.99    9.72
   1  -4  -5 1291.30  222.45
   1  -4  -5 1236.14  216.07
   1  -4  -5 1134.05  195.53
   1   4  -4  149.22   31.29
   1   4  -4  121.45   27.48
   1   4  -4  145.68   29.34
   1  -4  -4  159.47   36.38
   1  -4  -4  182.21   40.94
   1  -4  -4  171.65   36.05
   1  -4  -4  179.26   40.20
  -1   4   3  191.07   44.94
   1   4  -3  140.55   26.92
  -1   4   3  186.34   38.15
   1   4  -3  151.05   30.53
   1   4  -3  163.33   32.92
  -1   4   3  182.29   42.06
   1   4  -3  115.10   23.91
   1   4  -3  140.41   29.69
   1   4  -3  137.39   28.42
   1  -4  -3  182.70   34.66
   1  -4  -3  161.10   35.03
   1  -4  -3  136.74   26.88
   1  -4  -3   92.56   25.32
   1  -4  -3  149.58   32.88
   1  -4  -3  146.87   30.54
   1  -4  -3  172.00   37.23
   1   4  -2   57.06   15.57
   1   4  -2   46.62   10.20
   1   4  -2   46.97   12.72
   1   4  -2   41.45   10.87
  -1   4   2   61.19   15.96
  -1   4   2   65.36   16.91
   1   4  -2   59.27   15.50
   1   4  -2   56.04   11.42
   1   4  -2   60.25   13.85
  -1   4   2   69.55   19.61
   1  -4  -2   54.32   15.73
   1  -4  -2   53.87   18.25
   1  -4  -2   57.37   14.14
   1  -4  -2   55.99   15.56
   1  -4  -2   64.63   16.94
   1  -4  -2   58.27   14.14
   1  -4  -2   51.43   16.06
   1   4  -1   72.51   20.82
  -1   4   1   87.98   18.91
  -1   4   1   86.28   20.80
   1   4  -1   75.86   17.92
  -1   4   1   68.27   15.78
   1   4  -1   72.62   17.47
   1   4  -1   71.03   17.87
   1   4  -1   56.05   10.67
   1   4  -1   87.20   17.26
   1   4  -1   62.99   15.29
  -1   4   1   69.09   15.14
  -1   4   1  112.13   24.36
  -1   4   1   77.97   19.54
   1  -4  -1   51.79   10.63
   1  -4  -1   78.49   18.07
   1  -4  -1   70.72   16.42
  -1  -4   1   80.14   23.60
   1  -4  -1   67.11   15.12
   1  -4  -1   68.05   13.88
   1  -4  -1   85.68   21.17
   1  -4  -1   72.36   17.94
   1  -4  -1   76.81   17.54
  -1  -4   1   78.21   22.24
   1  -4  -1   79.24   17.07
  -1   4   0   95.43   17.47
   1   4   0   90.77   25.00
   1   4   0   91.23   17.12
   1   4   0  103.07   20.84
  -1   4   0  101.46   25.93
   1   4   0  113.64   25.68
  -1   4   0   73.91   15.43
  -1   4   0   89.52   18.67
   1   4   0   88.27   15.73
   1   4   0   76.66   18.04
   1   4   0   81.19   17.71
  -1   4   0   94.44   17.83
  -1   4   0   79.97   16.72
   1  -4   0   87.54   19.07
  -1  -4   0   85.49   18.83
  -1  -4   0   73.10   15.51
   1  -4   0  130.38   28.31
  -1  -4   0   86.70   20.04
   1  -4   0  103.21   21.41
  -1  -4   0   85.03   19.53
   1  -4   0   79.42   17.60
  -1  -4   0   93.62   22.32
   1  -4   0   87.08   17.97
   1  -4   0   90.56   21.29
  -1  -4   0   94.92   28.83
  -1   4  -1  626.90  100.70
   1   4   1  802.25  131.77
  -1   4  -1  833.46  134.88
  -1   4  -1  388.65   79.89
   1   4   1  786.37  129.18
   1   4   1  727.52  118.20
  -1   4  -1  631.76  103.34
   1   4   1  632.62  107.11
   1   4   1  728.13  120.63
   1   4   1  817.46  133.35
  -1   4  -1  709.62  117.17
  -1   4  -1  660.77  106.45
  -1  -4  -1  703.19  116.61
  -1  -4  -1  671.87  108.91
  -1  -4  -1  718.42  118.25
  -1  -4  -1  659.97  107.06
  -1  -4  -1  602.29   99.02
  -1  -4  -1  506.91   85.18
  -1  -4  -1  628.06  104.82
   1  -4   1  694.64  114.12
  -1  -4  -1  756.77  128.01
   1  -4   1  711.64  117.12
  -1   4  -2  230.70   44.18
   1   4   2  297.46   56.91
  -1   4  -2  204.90   47.67
   1   4   2  309.08   58.93
  -1   4  -2  212.94   37.10
  -1   4  -2  215.66   39.63
  -1   4  -2  288.95   48.37
  -1   4  -2  236.35   43.27
  -1   4  -2  224.98   39.10
   1   4   2  277.52   52.85
   1   4   2  255.93   46.78
   1   4   2  275.45   56.70
  -1  -4  -2  145.13   29.87
  -1  -4  -2  323.59   56.38
  -1  -4  -2  236.28   43.22
  -1  -4  -2  215.08   41.52
  -1  -4  -2  214.36   41.92
  -1  -4  -2  189.57   37.84
  -1  -4  -2  234.06   47.06
   1  -4   2  263.94   53.19
  -1  -4  -2  200.64   37.54
  -1   4  -3 3536.39  560.51
  -1   4  -3 3083.33  482.02
   1   4   3 4075.28  636.23
   1   4   3 3849.96  620.98
  -1   4  -3 3216.60  529.69
   1   4   3 4027.48  639.87
  -1   4  -3 3192.74  506.31
  -1  -4  -3 3354.04  537.55
  -1  -4  -3 2901.38  465.07
  -1  -4  -3 3807.90  610.72
  -1  -4  -3 3244.80  516.77
  -1   4  -4  913.93  158.91
  -1   4  -4 1015.35  173.54
  -1   4  -4  991.72  181.73
  -1  -4  -4 1110.20  195.84
  -1  -4  -4  994.55  174.43
  -1  -4  -4 1014.54  177.92
  -1  -4  -4  998.40  175.59
  -1   4  -5 1257.37  218.48
  -1   4  -5 1585.66  277.85
  -1  -4  -5 1647.63  282.09
  -1  -4  -5 1560.05  265.25
  -1  -4  -5 1901.04  328.16
  -1   4  -6  880.66  167.96
   1   4   6 3017.88  492.99
  -1  -4  -6  908.53  159.87
  -1   5   6 5512.04  888.05
   1  -5  -6 2076.53  345.77
   1  -5  -6 2372.55  391.07
   1  -5  -5  329.23   68.48
   1  -5  -5  307.57   61.85
   1  -5  -5  335.27   68.01
   1   5  -4 1742.86  286.75
   1   5  -4 1407.73  239.49
   1  -5  -4 2039.87  337.44
   1  -5  -4 1779.40  293.53
   1  -5  -4 1890.29  312.23
   1  -5  -4 1961.80  328.53
  -1   5   3  144.29   31.68
   1   5  -3  121.73   25.93
   1   5  -3  133.84   28.52
   1   5  -3  116.11   24.02
   1   5  -3  118.57   27.11
   1  -5  -3  147.85   29.85
   1  -5  -3  124.34   29.78
   1  -5  -3  179.93   39.02
   1  -5  -3   82.87   25.02
   1  -5  -3  176.63   36.06
   1  -5  -3  124.57   27.53
   1  -5  -3  118.59   24.75
   1  -5  -3  109.34   24.84
   1   5  -2    9.76    8.93
   1   5  -2   16.54    7.85
  -1   5   2   11.84    9.74
  -1   5   2   12.65    7.45
   1   5  -2    9.55    8.09
  -1   5   2    9.12    6.47
  -1   5   2   10.08    9.57
   1   5  -2   12.31    5.03
   1   5  -2    6.88    4.50
   1   5  -2    9.50    2.68
   1  -5  -2    8.30    9.32
   1  -5  -2   13.59    7.26
   1  -5  -2   15.93   15.82
   1  -5  -2    8.91    8.40
   1  -5  -2   18.77    8.66
   1  -5  -2   13.49    7.58
   1  -5  -2   11.05    7.99
   1  -5  -2    8.77    5.89
  -1   5   1    2.80    6.59
   1   5  -1    3.62    2.84
  -1   5   1    1.19    6.48
  -1   5   1    4.22    5.55
  -1   5   1    3.45    4.51
   1   5  -1    2.17    6.22
   1   5  -1    4.56   12.18
   1   5  -1    3.41    6.33
   1   5  -1    1.23    4.46
  -1   5   1   11.52    4.89
   1   5  -1    4.97    3.49
   1  -5  -1    8.45    8.11
  -1  -5   1    5.78    5.85
   1  -5  -1    2.90    4.11
   1  -5  -1    2.70    6.17
   1  -5  -1    4.06    7.31
  -1  -5   1    2.92    7.18
  -1  -5   1    3.59   10.50
   1  -5  -1    6.82    3.12
   1  -5  -1    4.56    5.70
  -1  -5   1    5.45    6.90
   1  -5  -1    1.15    5.68
   1  -5  -1    3.30    4.32
  -1   5   0  294.39   51.03
   1   5   0  359.44   61.50
   1   5   0  301.96   54.34
  -1   5   0  375.33   70.53
   1   5   0  334.02   55.59
  -1   5   0  597.06  106.11
   1   5   0  324.17   56.61
   1   5   0  334.73   60.01
  -1   5   0  303.62   50.23
   1   5   0  363.71   65.62
  -1   5   0  308.43   52.17
  -1   5   0  294.83   50.75
  -1   5   0  354.67   61.31
  -1  -5   0  278.91   48.58
   1  -5   0  309.66   55.06
   1  -5   0  320.64   57.48
   1  -5   0  334.94   58.98
  -1  -5   0  336.77   59.21
   1  -5   0  323.19   56.17
  -1  -5   0  331.44   59.48
  -1  -5   0  337.28   59.91
   1  -5   0  365.35   63.95
   1  -5   0  471.45   83.08
  -1  -5   0  366.81   66.26
  -1  -5   0  363.65   65.67
  -1   5  -1 1869.95  291.56
   1   5   1 1813.34  288.05
  -1   5  -1  984.93  154.90
  -1   5  -1 1533.94  237.78
  -1   5  -1 1611.85  253.59
   1   5   1 1918.03  302.56
  -1   5  -1  791.40  150.16
  -1   5  -1 1812.58  286.84
   1   5   1 1515.60  246.20
   1   5   1 2074.87  326.93
   1   5   1 1833.23  284.48
   1   5   1 1906.72  301.17
   1  -5   1 1718.73  269.43
   1  -5   1 1866.61  294.65
   1  -5   1 1800.79  285.00
  -1  -5  -1 1854.41  297.46
  -1  -5  -1 1583.26  250.21
  -1  -5  -1 1672.53  263.90
  -1  -5  -1 1572.01  250.40
  -1  -5  -1 1792.12  283.75
  -1  -5  -1 1220.06  197.77
   1  -5   1 3757.99  592.47
  -1  -5  -1 1296.64  208.68
   1   5   2 5977.03  917.09
  -1   5  -2 4321.16  661.81
   1   5   2 5540.90  856.60
   1   5   2 4319.07  680.33
  -1   5  -2 4329.04  666.59
   1   5   2 5187.87  806.31
   1   5   2 5214.93  797.96
  -1   5  -2 3496.75  574.12
  -1   5  -2 4634.27  717.16
  -1   5  -2 4702.70  724.52
  -1  -5  -2 4300.23  670.66
  -1  -5  -2 4327.19  677.21
  -1  -5  -2 4109.24  644.67
   1  -5   2 5071.54  782.67
  -1  -5  -2 4874.57  761.84
  -1  -5  -2 3379.57  546.63
  -1  -5  -2 4468.55  694.95
  -1  -5  -2 8345.24 1297.69
  -1  -5  -2 4814.89  748.97
   1   5   3  619.22  113.28
  -1   5  -3  443.76   81.13
  -1   5  -3  421.46   84.77
  -1   5  -3  439.93   76.82
  -1   5  -3  424.51   74.36
  -1  -5  -3  393.44   74.46
  -1  -5  -3  428.79   79.89
  -1  -5  -3  386.30   72.26
  -1  -5  -3  436.58   88.64
  -1   5  -4 1973.39  316.07
  -1   5  -4 3004.40  505.40
  -1   5  -4 2843.91  459.86
  -1  -5  -4 3678.27  600.74
  -1  -5  -4 2603.23  425.28
  -1  -5  -4 3470.08  566.38
  -1  -5  -4 3139.27  511.46
  -1   5  -5   58.25   19.62
  -1   5  -5   66.03   18.92
  -1  -5  -5   48.47   15.06
  -1  -5  -5   58.40   22.18
  -1  -5  -5   44.56   16.12
  -1  -5  -5   59.26   19.49
   1   5   6  913.38  161.87
  -1  -5  -6  266.13   51.47
  -1   6   6   71.35   26.48
   1  -6  -6   20.69   11.90
   1  -6  -6   38.45   13.71
  -1   6   5  464.88   95.56
   1  -6  -5  256.82   52.76
   1  -6  -5  257.84   54.84
   1  -6  -5  202.17   41.54
   1   6  -4 1461.40  245.26
   1   6  -4 1906.11  308.75
   1  -6  -4 1783.39  297.01
   1  -6  -4 1940.54  319.64
   1  -6  -4 1891.76  315.09
   1  -6  -4 1926.16  324.85
   1   6  -3  731.37  128.57
   1   6  -3  638.91  110.66
   1   6  -3  615.52  109.60
   1  -6  -3  590.76  103.55
   1  -6  -3  640.25  111.75
   1  -6  -3  702.59  124.49
   1  -6  -3  450.74   92.73
   1  -6  -3  789.85  136.71
   1  -6  -3  614.71  107.78
   1  -6  -3  658.30  117.36
   1   6  -2 2512.25  401.01
  -1   6   2 2507.12  398.28
   1   6  -2 2304.41  362.98
   1   6  -2 2102.70  335.95
  -1   6   2 2468.92  396.21
  -1   6   2 2479.19  396.22
  -1   6   2 2542.04  400.42
   1   6  -2 2446.33  387.56
  -1   6   2 3065.43  482.88
   1  -6  -2 2139.66  341.62
   1  -6  -2 2474.65  393.01
   1  -6  -2 3123.08  495.61
   1  -6  -2 2509.39  397.47
   1  -6  -2 2441.44  397.77
   1  -6  -2 2234.73  355.75
  -1  -6   2 2788.94  444.87
   1  -6  -2 2422.45  385.84
   1   6  -1  694.13  116.26
  -1   6   1  726.12  122.45
  -1   6   1  690.81  117.11
  -1   6   1  970.89  159.36
  -1   6   1  654.52  107.34
   1   6  -1  730.84  120.57
   1   6  -1  811.48  137.07
   1   6  -1  643.63  109.18
   1   6  -1  591.98   94.83
  -1   6   1  722.53  117.73
   1   6  -1  730.13  121.22
   1   6  -1  841.97  133.08
  -1   6   1  717.66  121.05
  -1  -6   1  785.33  131.90
  -1  -6   1  833.41  138.64
   1  -6  -1  749.88  125.42
   1  -6  -1  622.43  103.95
  -1  -6   1  841.13  141.59
  -1  -6   1  803.19  139.73
   1  -6  -1  544.04   90.22
   1  -6  -1  727.07  124.28
   1  -6  -1  731.33  127.22
   1  -6  -1  681.93  113.71
   1  -6  -1  769.87  128.26
   1  -6  -1  748.52  125.56
   1  -6  -1  671.49  109.90
   1   6   0  145.76   26.52
   1   6   0  154.67   32.51
   1   6   0  147.04   30.59
  -1   6   0  137.48   26.26
  -1   6   0  260.61   52.46
  -1   6   0  131.71   25.79
  -1   6   0  149.35   29.55
  -1   6   0  119.92   21.64
   1   6   0  143.60   28.60
   1   6   0  130.45   27.33
  -1   6   0  179.67   38.67
   1   6   0  157.27   29.86
   1  -6   0  164.34   33.11
   1  -6   0  139.54   28.55
   1  -6   0  122.25   26.13
   1  -6   0  188.34   38.90
  -1  -6   0  144.46   30.19
  -1  -6   0  143.38   29.73
  -1  -6   0  123.80   24.36
  -1  -6   0  162.17   34.63
  -1  -6   0  135.87   28.34
  -1  -6   0  146.66   29.32
   1  -6   0  152.38   30.87
   1  -6   0  161.30   30.96
  -1   6  -1  273.56   49.37
   1   6   1  321.01   54.07
  -1   6  -1  287.82   48.47
  -1   6  -1  306.11   56.17
  -1   6  -1  140.91   25.43
   1   6   1  343.21   62.34
  -1   6  -1  265.14   44.77
   1   6   1  337.11   60.69
   1   6   1  293.96   55.06
  -1   6  -1  129.70   34.67
  -1   6  -1  261.28   43.27
   1   6   1  339.10   59.77
   1  -6   1  285.23   50.41
   1  -6   1  595.58  106.41
  -1  -6  -1  276.05   48.46
   1  -6   1  305.88   55.94
  -1  -6  -1  311.18   56.92
  -1  -6  -1  188.06   36.67
   1  -6   1  338.69   64.55
  -1  -6  -1  292.08   55.45
  -1  -6  -1  264.50   49.17
  -1  -6  -1  281.56   50.15
   1   6   2  545.36   92.02
  -1   6  -2  485.81   84.49
   1   6   2  575.21  100.60
   1   6   2  452.87   82.74
   1   6   2  658.10  112.84
  -1   6  -2  375.94   76.23
   1   6   2  600.24  105.70
  -1   6  -2  515.35   95.01
  -1  -6  -2  402.84   71.67
  -1  -6  -2  438.85   78.11
  -1  -6  -2  513.71   89.87
  -1  -6  -2  319.73   68.43
  -1  -6  -2  459.16   87.33
  -1  -6  -2  383.94   68.99
   1  -6   2 1536.60  263.31
  -1  -6  -2 1045.81  179.69
   1  -6   2  584.46  103.07
  -1  -6  -2  484.67   89.20
  -1   6  -3  225.72   46.26
  -1   6  -3  201.55   46.21
   1   6   3  355.38   71.17
  -1   6  -3  210.77   40.72
  -1  -6  -3  180.99   37.90
  -1  -6  -3  206.85   52.20
  -1  -6  -3  206.67   43.78
  -1  -6  -3  175.30   36.76
  -1   6  -4  185.54   37.12
  -1   6  -4  224.00   46.66
  -1   6  -4  237.72   52.40
  -1  -6  -4  253.36   53.30
  -1  -6  -4  223.12   52.36
  -1  -6  -4  210.46   44.55
  -1  -6  -4  213.82   45.98
  -1   6  -5  156.02   35.06
  -1   6  -5  131.87   30.25
  -1  -6  -5  147.46   33.62
  -1  -6  -5  103.12   30.75
  -1  -6  -5  165.33   37.18
  -1  -6  -5  119.85   27.95
  -1   7   5  336.53   72.53
   1  -7  -5  185.58   42.42
   1  -7  -5  158.09   35.54
   1  -7  -5  157.42   34.62
  -1   7   4  720.24  134.73
   1   7  -4  501.20   90.38
   1   7  -4  364.30   75.29
   1  -7  -4  451.19   87.23
   1  -7  -4  495.67   90.96
   1  -7  -4  433.13   81.63
  -1   7   3 1439.80  243.16
   1   7  -3 1135.14  196.26
   1   7  -3 1159.88  193.28
   1   7  -3 1144.95  191.06
   1  -7  -3 1074.45  182.78
   1  -7  -3 1105.07  187.94
   1  -7  -3  841.70  163.85
   1  -7  -3 1175.37  199.11
   1  -7  -3 1216.58  206.81
  -1   7   2  240.97   43.10
  -1   7   2  296.57   56.77
  -1   7   2  267.70   52.74
   1   7  -2  230.68   44.50
   1   7  -2  263.57   51.37
  -1   7   2  262.36   48.30
   1   7  -2  261.01   52.19
  -1   7   2  346.51   65.01
  -1   7   2  263.11   51.59
   1  -7  -2  348.46   65.82
   1  -7  -2  239.52   51.95
   1  -7  -2  239.71   46.92
   1  -7  -2  276.93   52.77
   1  -7  -2  257.75   50.15
   1  -7  -2  222.21   42.56
   1  -7  -2  230.78   45.65
  -1  -7   2  284.88   56.99
  -1  -7   2  333.66   61.55
   1   7  -1   61.94   16.31
  -1   7   1   70.52   17.42
  -1   7   1  109.48   22.21
  -1   7   1   80.11   18.81
   1   7  -1   72.44   18.64
  -1   7   1   58.90   17.14
  -1   7   1   74.21   20.26
  -1   7   1   71.87   14.83
   1   7  -1   77.76   21.38
   1  -7  -1   74.42   18.40
   1  -7  -1   73.39   19.20
   1  -7  -1   67.60   17.06
   1  -7  -1   81.32   20.31
  -1  -7   1  102.80   23.48
   1  -7  -1   73.53   17.73
   1  -7  -1   68.86   19.06
   1  -7  -1   69.54   14.65
   1  -7  -1   67.40   18.79
  -1  -7   1   94.84   22.88
  -1  -7   1   98.45   26.54
  -1  -7   1   77.27   20.12
   1   7   0   84.44   15.91
  -1   7   0  141.72   27.06
  -1   7   0  217.00   43.43
  -1   7   0  140.34   27.36
   1   7   0  157.85   33.11
   1   7   0  141.94   29.72
   1   7   0  174.38   32.79
  -1   7   0  165.66   32.50
   1   7   0  141.75   27.85
   1   7   0  161.70   29.12
  -1   7   0  116.33   26.62
   1  -7   0  194.49   40.34
  -1  -7   0  129.26   26.73
   1  -7   0  149.82   29.49
  -1  -7   0  193.91   45.97
   1  -7   0  147.38   30.28
  -1  -7   0  126.38   24.83
   1  -7   0  149.12   30.47
   1  -7   0  125.27   24.58
   1  -7   0  160.67   32.41
  -1  -7   0  155.95   31.08
  -1  -7   0  149.63   31.32
  -1  -7   0  181.16   36.23
  -1   7  -1  336.36   60.21
   1   7   1  385.46   68.94
  -1   7  -1  304.71   51.30
   1   7   1  272.44   48.46
   1   7   1  367.48   64.29
   1   7   1  351.00   64.43
  -1   7  -1  364.92   66.13
  -1   7  -1  204.20   44.62
   1  -7   1  359.33   65.07
   1  -7   1  401.55   71.04
   1  -7   1  652.56  116.45
  -1  -7  -1  220.74   42.75
  -1  -7  -1  301.45   53.18
  -1  -7  -1  318.66   59.52
  -1  -7  -1  311.95   57.88
  -1  -7  -1  367.49   65.32
  -1  -7  -1  337.93   63.09
  -1  -7  -1  369.32   67.06
   1  -7   1  394.81   71.40
   1   7   2  551.06   97.70
   1   7   2  497.31   84.20
  -1   7  -2  480.63   90.30
   1   7   2  410.71   74.70
  -1   7  -2  445.94   79.11
  -1   7  -2  351.12   71.16
   1   7   2  496.42   88.08
  -1  -7  -2  320.77   58.41
  -1  -7  -2  322.30   59.78
  -1  -7  -2  471.37   84.27
  -1  -7  -2  391.11   71.47
  -1  -7  -2  414.01   78.28
  -1  -7  -2 1007.60  180.35
  -1  -7  -2  423.93   78.23
   1  -7   2 1390.42  243.84
  -1   7  -3  222.48   49.14
   1   7   3  216.77   43.69
  -1   7  -3  228.92   44.62
  -1   7  -3  232.68   48.67
  -1  -7  -3  223.39   47.92
  -1  -7  -3  190.05   40.33
  -1  -7  -3  160.60   33.68
  -1  -7  -3  223.95   55.77
  -1  -7  -3  184.07   38.37
  -1   7  -4 1552.95  267.25
  -1   7  -4 1403.59  235.87
  -1   7  -4 1351.78  220.86
  -1  -7  -4 1493.66  254.47
  -1  -7  -4 1027.21  178.05
  -1  -7  -4 1337.69  229.99
  -1  -7  -4 1547.68  269.21
   1   7   5 1843.49  309.12
  -1   7  -5  608.69  108.94
  -1  -7  -5  499.03   98.94
  -1  -7  -5  657.37  118.51
  -1  -7  -5  755.09  137.40
  -1   8   5 3203.98  522.97
   1  -8  -5 1230.28  217.18
   1  -8  -5 1418.17  239.87
   1  -8  -5 1605.35  270.66
  -1   8   4  431.72   86.65
   1   8  -4  226.77   48.90
   1   8  -4  326.04   62.36
   1  -8  -4  276.05   56.89
   1  -8  -4  302.80   60.06
   1  -8  -4  212.74   45.18
  -1   8   3  609.77  111.97
   1   8  -3  479.99   86.74
   1   8  -3  468.62   91.54
   1   8  -3  519.86   96.55
   1  -8  -3  517.89   96.03
   1  -8  -3  295.94   71.67
   1  -8  -3  428.62   82.73
   1  -8  -3  498.35   94.55
   1  -8  -3  440.41   82.44
   1   8  -2    7.88    8.62
   1   8  -2    9.25    9.81
  -1   8   2   11.91    4.98
   1   8  -2    8.27    6.81
  -1   8   2   11.43    8.59
   1  -8  -2   17.51    9.73
   1  -8  -2    6.20    6.49
   1  -8  -2    6.75    7.75
   1  -8  -2   10.44    4.55
   1  -8  -2    7.32   11.48
   1   8  -1  119.05   28.08
   1   8  -1  107.10   24.41
  -1   8   1  102.78   21.57
  -1   8   1   78.24   16.72
  -1   8   1   98.64   22.10
   1   8  -1   98.71   22.84
  -1   8   1  115.96   23.94
  -1   8   1   73.25   16.93
  -1   8   1  133.32   28.04
   1  -8  -1   93.62   20.10
   1  -8  -1  100.92   20.33
  -1  -8   1  122.04   27.28
  -1  -8   1  131.57   27.60
   1  -8  -1   97.88   23.94
   1  -8  -1  110.45   25.93
   1  -8  -1  104.79   24.09
  -1  -8   1  116.43   30.11
   1  -8  -1   95.76   21.66
  -1  -8   1  128.48   29.25
   1  -8  -1   99.45   24.88
   1  -8  -1  117.10   26.28
  -1  -8   1  117.91   27.18
   1   8   0  681.40  117.93
  -1   8   0  619.32  105.44
  -1   8   0  674.12  112.22
  -1   8   0  712.12  120.24
  -1   8   0  833.31  142.19
  -1   8   0  460.08   82.44
   1   8   0  731.25  121.33
   1   8   0  652.33  109.57
  -1  -8   0  662.71  114.86
  -1  -8   0  708.24  121.09
   1  -8   0  823.26  141.87
   1  -8   0  704.96  121.39
   1  -8   0  541.90   92.24
  -1  -8   0  629.55  109.28
  -1  -8   0  549.70   94.04
   1  -8   0  684.82  116.68
  -1  -8   0  850.11  148.31
   1  -8   0  735.28  125.42
   1  -8   0  613.68  105.96
  -1  -8   0  665.28  115.06
  -1  -8   0  644.50  114.27
   1   8   1  877.67  144.27
  -1   8  -1  987.26  163.03
   1   8   1 1031.97  173.20
   1   8   1 1071.08  174.76
  -1   8  -1  674.16  121.52
  -1   8  -1 1103.43  183.77
   1   8   1 1197.46  196.94
  -1   8  -1 1349.11  221.42
   1  -8   1 1148.00  191.19
   1  -8   1 1691.56  281.78
   1  -8   1 1264.67  210.50
   1  -8   1 1197.36  198.52
  -1  -8  -1  674.08  116.91
  -1  -8  -1 1130.45  188.82
  -1  -8  -1  957.89  162.79
  -1  -8  -1  904.67  152.46
  -1  -8  -1  982.07  165.76
  -1  -8  -1 1069.43  177.46
  -1   8  -2  252.67   55.16
  -1   8  -2  239.77   46.68
   1   8   2  232.67   44.80
   1   8   2  216.11   43.25
  -1   8  -2  207.39   45.33
   1  -8   2  564.37  108.74
  -1  -8  -2  205.02   44.18
  -1  -8  -2  219.25   45.27
  -1  -8  -2  208.60   42.56
  -1   8  -3 4538.38  710.62
  -1   8  -3 4658.68  737.72
  -1   8  -3 4166.17  682.72
   1   8   3 5273.03  831.40
   1   8   3 3540.20  568.84
  -1  -8  -3 2684.68  441.01
  -1  -8  -3 4825.23  767.14
  -1  -8  -3 4722.54  757.36
  -1  -8  -3 3632.38  594.03
  -1   8  -4    9.73    7.00
   1   8   4    6.09    9.42
  -1   8  -4    0.83    7.71
  -1  -8  -4    2.67    4.54
  -1  -8  -4    3.14    9.89
  -1  -8  -4   26.49   17.17
   1   8   5 3227.82  516.70
  -1   8  -5  859.73  146.85
  -1  -8  -5 1226.50  212.64
  -1  -8  -5  817.98  148.08
  -1  -8  -5 1076.50  198.37
  -1   9   5  509.83  102.71
   1  -9  -5  227.95   51.30
   1  -9  -5  209.15   42.13
   1   9  -4 1423.91  239.95
   1   9  -4 1001.92  175.33
  -1   9   4 2004.21  336.76
   1  -9  -4 1169.98  200.57
   1  -9  -4 1341.16  229.48
   1  -9  -4  754.70  141.21
  -1   9   3  850.28  150.94
   1   9  -3  650.17  113.61
   1   9  -3  665.70  121.20
   1   9  -3  716.19  127.60
   1  -9  -3  707.17  126.82
   1  -9  -3  319.23   75.83
   1  -9  -3  619.36  112.92
   1  -9  -3  699.05  125.32
   1   9  -2  342.75   64.26
   1   9  -2  360.98   67.70
   1   9  -2  427.81   81.92
  -1   9   2  290.07   57.14
   1  -9  -2  324.94   68.65
   1  -9  -2  366.26   69.18
   1  -9  -2  393.46   74.64
   1  -9  -2  351.05   66.12
  -1   9   1   12.39    6.85
   1   9  -1   12.84   12.19
   1   9  -1   10.62    9.63
  -1   9   1    8.71    5.93
  -1   9   1   14.37    8.11
  -1  -9   1    0.04   10.49
   1  -9  -1    6.07    8.12
  -1  -9   1   20.90   10.81
   1  -9  -1    9.29   10.44
   1  -9  -1    7.92    4.50
   1  -9  -1   25.58   14.12
   1  -9  -1   15.08   12.15
   1   9   0 1344.77  217.99
  -1   9   0 2005.86  324.51
  -1   9   0 1625.12  260.27
  -1   9   0 1333.29  222.15
  -1   9   0 1685.14  273.19
  -1   9   0 1427.29  229.95
   1   9   0 1594.93  262.45
   1   9   0 1579.25  253.68
   1  -9   0 1813.13  298.10
  -1  -9   0 1709.48  280.11
  -1  -9   0 1505.32  252.07
  -1  -9   0 1214.29  200.28
   1  -9   0 1679.76  274.77
  -1  -9   0 1583.48  261.34
   1  -9   0 1737.17  283.62
  -1  -9   0 1389.00  231.14
   1  -9   0 1220.97  200.24
   1  -9   0 1650.42  272.50
  -1   9  -1  716.84  124.05
  -1   9  -1  777.33  131.84
   1   9   1  740.52  129.02
  -1   9  -1  795.13  137.36
  -1   9  -1  471.25   87.71
  -1  -9  -1  438.72   80.09
  -1  -9  -1  717.44  126.31
  -1  -9  -1  662.46  116.08
   1  -9   1  845.45  145.98
   1  -9   1 1118.79  193.09
  -1  -9  -1  649.21  114.71
   1   9   2  929.40  158.63
  -1   9  -2  970.95  169.36
   1   9   2  986.26  165.66
  -1   9  -2  805.08  145.01
  -1   9  -2  917.05  157.51
   1  -9   2 1890.82  322.99
  -1  -9  -2  895.67  155.79
  -1  -9  -2  862.13  151.80
  -1  -9  -2  933.28  161.43
   1   9   3  138.33   31.31
  -1   9  -3  113.59   26.26
  -1   9  -3  114.79   28.77
  -1  -9  -3  117.34   35.85
  -1  -9  -3   75.05   19.39
  -1  -9  -3   99.75   28.49
  -1   9  -4  103.73   25.61
   1   9   4  215.54   45.03
  -1   9  -4  108.33   25.36
  -1  -9  -4  115.74   28.35
  -1  -9  -4  111.68   34.17
  -1   9  -5  755.66  129.12
   1   9   5 2515.36  404.25
  -1  -9  -5  799.96  138.11
  -1  -9  -5  686.34  122.72
  -1  10   5 1009.65  169.79
   1 -10  -5  495.66   88.06
   1 -10  -5  462.38   83.03
   1  10  -4  421.78   76.95
   1  10  -4  360.09   74.01
  -1  10   4  606.12  109.04
   1 -10  -4  396.69   75.24
   1 -10  -4  401.17   77.96
  -1  10   3  204.22   42.62
   1  10  -3  216.28   45.90
   1  10  -3  183.98   41.86
   1 -10  -3  180.49   39.56
  -1 -10   3  308.63   67.29
   1 -10  -3  153.56   35.94
   1 -10  -3  187.14   41.70
   1 -10  -3  106.73   35.19
  -1  10   2  428.08   77.73
   1  10  -2  515.58   96.12
   1  10  -2  574.72  107.81
  -1 -10   2  665.59  124.63
   1 -10  -2  441.36   88.94
   1 -10  -2  493.05   93.06
   1 -10  -2  521.92  101.90
   1 -10  -2  445.70   82.70
  -1  10   1 1433.90  236.33
   1  10  -1 2409.32  393.43
   1  10  -1 2018.15  325.68
  -1  10   1 2314.39  369.73
   1 -10  -1 1780.75  290.89
  -1 -10   1 2498.11  410.10
   1 -10  -1 1937.99  319.35
  -1 -10   1 2478.94  408.22
   1 -10  -1 2411.25  391.56
  -1  10   0   11.83   11.80
  -1  10   0   11.44    6.25
   1  10   0   23.64   13.54
   1  10   0   12.49    7.55
  -1  10   0   10.56    6.53
  -1 -10   0   16.76   11.43
   1 -10   0   13.23   11.66
   1 -10   0   22.65    7.98
  -1 -10   0   15.69   11.19
   1 -10   0   23.17   12.75
  -1 -10   0    9.20    5.49
  -1  10  -1    6.78    5.76
  -1  10  -1   10.75    6.88
  -1  10  -1   25.85   11.65
   1  10   1    8.35    7.89
   1 -10   1   31.16   14.63
   1 -10   1   11.16    7.71
  -1 -10  -1    4.55    6.84
  -1 -10  -1   21.99    9.53
  -1 -10  -1   12.35   10.20
  -1 -10  -1    8.90    6.94
  -1  10  -2   57.82   17.86
   1  10   2   54.21   15.87
  -1  10  -2   56.14   16.26
   1 -10   2  109.62   28.77
  -1 -10  -2   24.08    9.99
  -1 -10  -2   53.88   17.52
  -1 -10  -2   57.00   18.35
  -1 -10  -2   62.50   19.90
  -1  10  -3  345.59   67.86
  -1  10  -3  330.20   62.97
   1  10   3  397.20   73.68
  -1 -10  -3  278.24   58.87
  -1 -10  -3  281.06   56.70
  -1 -10  -3  211.68   44.16
   1  10   4 1433.08  239.27
  -1  10  -4  745.52  129.71
  -1 -10  -4  685.02  131.33
  -1 -10  -4  754.20  132.90
  -1  10  -5  216.03   41.59
  -1 -10  -5  337.99   60.58
  -1 -10  -5  320.02   59.45
   1  11  -4  260.16   51.42
   1  11  -4  388.39   74.11
  -1  11   4  576.45  102.54
   1 -11  -4  361.67   69.25
   1 -11  -4  352.35   66.08
   1  11  -3  149.23   35.70
   1  11  -3  157.00   35.55
  -1  11   3  165.41   35.25
   1 -11  -3  118.30   27.86
   1 -11  -3  123.62   28.43
   1 -11  -3   92.33   29.45
   1 -11  -3  120.14   26.89
  -1 -11   3  205.53   46.60
   1  11  -2   82.29   24.72
  -1  11   2   57.46   15.26
   1  11  -2   66.32   21.26
   1 -11  -2   64.70   19.87
  -1 -11   2   80.46   24.57
   1 -11  -2   56.58   21.82
   1 -11  -2   70.65   18.84
   1  11  -1    5.81   12.74
  -1  11   1    1.71    4.00
   1  11  -1    6.57    6.81
  -1  11   1    3.57    4.93
   1 -11  -1    9.18   10.04
  -1 -11   1    7.56    7.98
   1 -11  -1    8.90    5.98
  -1 -11   1   12.99   11.38
   1 -11  -1    2.08    8.72
  -1  11   0  142.07   29.24
  -1  11   0  132.70   30.54
  -1  11   0  185.59   38.88
   1  11   0  141.50   29.08
   1  11   0  186.45   41.26
   1 -11   0  190.07   40.71
   1 -11   0  176.14   40.04
  -1 -11   0  145.04   34.14
  -1 -11   0  181.83   45.00
   1  11   1  460.58   88.26
  -1  11  -1  411.91   74.95
  -1  11  -1  513.28   93.85
   1 -11   1  451.38   84.14
  -1 -11  -1  447.54   85.08
  -1 -11  -1  331.36   62.94
  -1 -11  -1  343.17   66.47
  -1 -11  -1  272.94   54.37
   1 -11   1  548.64  103.14
  -1  11  -2  862.63  150.27
  -1  11  -2  785.02  135.93
   1  11   2  797.63  138.37
  -1 -11  -2  415.29   80.26
  -1 -11  -2  699.52  124.73
   1 -11   2 1193.19  210.36
  -1 -11  -2  671.61  124.22
  -1 -11  -2  791.33  141.38
  -1  11  -3  538.48   99.04
  -1  11  -3  528.99   95.26
  -1 -11  -3  449.40   83.69
  -1 -11  -3  308.03   60.38
  -1 -11  -3  408.76   79.58
   1  11   4 3181.34  515.50
  -1  11  -4 1999.01  323.16
  -1 -11  -4 2241.83  365.92
   1 -11   4 3788.48  607.21
  -1 -11  -4 1669.41  277.39
   1  12  -4  454.66   79.59
  -1  12   4 1194.51  198.13
   1  12  -4  735.80  125.45
   1 -12  -4  742.13  129.14
   1 -12  -4  692.31  120.97
   1  12  -3  368.08   68.64
  -1  12   3  438.15   79.68
   1  12  -3  367.33   71.75
   1 -12  -3  335.83   64.48
  -1 -12   3  460.65   88.03
   1 -12  -3  321.66   62.45
   1 -12  -3  259.52   57.46
   1 -12  -3  288.59   55.30
  -1  12   2  320.49   62.60
   1  12  -2  394.81   78.62
   1  12  -2  351.28   68.04
   1 -12  -2  274.16   54.69
   1 -12  -2  274.29   60.78
  -1 -12   2  382.03   76.10
   1 -12  -2  327.01   65.14
   1  12  -1   87.71   21.58
   1  12  -1  103.38   28.24
   1 -12  -1   99.59   26.46
   1 -12  -1   75.16   18.36
   1 -12  -1   99.75   35.66
  -1 -12   1  102.29   25.54
  -1 -12   1   98.31   26.71
  -1  12   0  467.27   82.90
  -1  12   0  862.29  148.38
   1  12   0  852.92  150.68
  -1 -12   0  628.81  113.98
   1 -12   0  773.63  138.53
  -1 -12   0  813.91  146.26
   1 -12   0  779.58  137.20
   1  12   1 1126.18  192.16
  -1  12  -1 1222.69  207.43
  -1  12  -1  984.34  166.57
  -1 -12  -1 1118.73  194.14
  -1 -12  -1  725.01  128.63
   1 -12   1 1121.69  195.39
  -1 -12  -1  733.42  130.43
   1 -12   1 1253.37  215.52
  -1  12  -2  459.44   84.11
  -1  12  -2  495.16   91.30
   1  12   2  411.68   76.74
  -1 -12  -2  354.60   69.18
  -1 -12  -2  364.64   69.80
   1 -12   2  599.98  111.16
  -1 -12  -2  422.28   80.64
  -1 -12  -2  265.60   54.20
  -1  12  -3  509.28   93.07
  -1  12  -3  484.79   87.24
  -1 -12  -3  352.02   68.25
  -1 -12  -3  416.40   77.48
  -1 -12  -3  295.88   57.66
  -1  12  -4   41.07   12.65
  -1 -12  -4   45.15   12.60
  -1 -12  -4   42.52   12.26
   1 -12   4   93.60   26.17
   1 -13  -4  546.64   92.09
   1  13  -3  119.29   28.02
   1  13  -3  134.82   31.01
  -1  13   3  164.62   34.22
   1 -13  -3  122.85   29.78
  -1 -13   3  159.94   35.70
   1 -13  -3  122.40   31.52
   1 -13  -3  112.26   29.16
   1  13  -2  762.08  136.62
   1  13  -2  577.16  101.05
   1 -13  -2  568.58  102.51
   1 -13  -2  560.16  105.94
  -1 -13   2  747.28  135.77
   1 -13  -2  727.25  129.72
   1  13  -1  127.83   27.99
   1  13  -1  166.46   39.16
   1 -13  -1  168.37   41.40
   1 -13  -1  173.07   39.58
  -1 -13   1  158.74   35.84
  -1 -13   1  150.48   40.26
  -1  13   0  161.05   34.29
   1  13   0  149.41   34.68
   1 -13   0  136.73   33.57
  -1 -13   0  152.35   35.30
  -1 -13   0  163.43   36.72
   1 -13   0  155.42   34.71
   1  13   1    2.63    6.90
  -1  13  -1    2.70    7.17
  -1  13  -1    6.85   13.64
  -1 -13  -1    4.20    7.01
  -1 -13  -1    4.71   10.58
   1 -13   1   13.27   10.34
   1 -13   1    5.72    6.13
  -1  13  -2  112.86   26.83
  -1  13  -2  103.35   24.60
   1  13   2   88.76   20.70
  -1 -13  -2  103.45   25.74
   1 -13   2  125.01   29.07
  -1 -13  -2   77.02   19.10
  -1 -13  -2   73.15   19.04
  -1 -13  -2   75.09   19.75
  -1  13  -3   11.43    7.91
  -1 -13  -3    9.92    5.81
   1 -13   3   11.15   12.98
  -1 -13  -3    7.36    6.42
  -1 -13  -3    8.46    5.87
   1  14  -3   43.80   13.58
   1  14  -3   47.43   14.61
  -1  14   3   -0.13    6.72
   1 -14  -3   38.34   14.16
  -1 -14   3   54.35   14.88
   1 -14  -3   44.86   13.25
   1  14  -2    6.95    6.02
   1  14  -2    1.28    7.41
  -1  14   2    0.07    5.61
  -1 -14   2    1.19    7.58
   1 -14  -2    8.87   16.25
   1 -14  -2    0.74    8.45
   1  14  -1   13.94    6.27
   1  14  -1   31.30   13.35
  -1 -14   1   20.36   12.03
  -1 -14   1   19.00   10.93
   1 -14  -1   40.22   16.99
   1 -14  -1   23.61   12.78
  -1  14   0  168.79   34.82
   1  14   0  144.17   32.07
   1 -14   0  170.57   40.74
  -1 -14   0  146.57   33.40
  -1 -14   0  130.77   30.39
   1 -14   0  163.64   35.53
  -1  14  -1  192.25   39.30
   1  14   1  210.02   44.78
  -1 -14  -1  190.23   42.14
   1 -14   1  163.22   35.45
   1 -14   1  153.96   35.43
   1 -14   1  198.47   42.26
  -1 -14  -1  173.29   38.47
  -1  14  -2  858.54  146.50
  -1 -14  -2  544.86   98.59
  -1 -14  -2  725.13  126.99
   1 -14   2  844.39  149.04
   1 -14   2  991.99  170.67
  -1 -14  -2  482.13   87.61
  -1  14  -3  904.06  150.11
   1 -14   3 1763.09  303.82
  -1 -14  -3  903.92  154.11
  -1 -14  -3  946.25  158.50
   1  15  -2  467.74   82.99
  -1  15   2  563.09   95.69
   1  15  -2  402.35   69.31
   1 -15  -2  608.32  111.90
  -1 -15   2  566.50  100.59
   1 -15  -2  546.22  100.39
   1  15  -1   16.10   11.56
  -1 -15   1    8.84    8.73
   1 -15  -1    8.66   11.21
   1 -15  -1   11.16    9.76
   1  15   0  646.43  112.58
   1 -15   0  648.57  114.01
  -1 -15   0  547.01   98.61
  -1 -15   0  589.16  104.99
   1 -15   0  708.33  128.05
  -1  15  -1  655.10  111.90
   1  15   1  624.51  107.27
  -1 -15  -1  604.37  109.36
   1 -15   1  801.09  142.28
  -1 -15  -1  624.20  110.40
   1 -15   1  458.81   83.66
  -1  15  -2  424.96   79.35
   1 -15   2  561.23  101.16
  -1 -15  -2  404.84   73.44
  -1 -15  -2  243.02   44.22
   1  16  -1  667.36  112.21
   1 -16  -1  753.33  128.24
   1 -16  -1  792.86  140.26
  -1 -16   1  948.21  167.40
   1  16   0   84.64   19.07
   1 -16   0   76.55   17.74
   1 -16   0   84.78   23.34
  -1 -16   0   97.56   24.70
  -1 -16   0   75.38   18.88
  -1 -16  -1  381.30   68.47
   1 -16   1  444.29   81.19
  -1 -16  -1  393.07   71.71
   2   0  -6   93.09   25.10
   2   0  -6   59.89   18.26
   2   0  -5    2.55    8.00
   2   0  -5    5.97    6.92
   2   0  -5   38.63   13.68
   2   0  -4 7427.10 1170.11
   2   0  -4 7842.72 1219.12
   2   0  -4 8049.44 1315.30
   2   0  -4 7564.05 1170.74
   2   0  -3   37.27   11.42
   2   0  -3    0.55    5.38
   2   0  -3    5.75    6.57
   2   0  -2 9752.01 1483.71
   2   0  -213288.61 2009.81
   2   0  -215625.89 2346.22
   2   0  -212461.81 1906.13
   2   0  -211884.10 1819.65
   2   0  -213784.98 2081.32
   2   0  -213913.46 2098.40
  -2   0   215903.37 2398.32
   2   0  -215744.92 2396.36
  -2   0   1   76.67   17.76
   2   0  -1   10.75   11.99
   2   0  -1    6.68    2.61
  -2   0   1   65.65   24.79
   2   0  -1    9.16    9.90
   2   0  -1    9.98    6.10
  -2   0   1   27.51   11.59
   2   0  -1    4.77    2.23
   2   0  -1    4.78    7.89
   2   0  -1    3.13    6.72
  -2   0   0 4911.61  749.96
   2   0   0 3375.58  521.51
   2   0   0 3758.08  576.17
   2   0   0 3534.98  548.46
  -2   0   0 3908.79  598.27
   2   0   0 3600.42  552.32
  -2   0   0 4091.51  628.91
  -2   0   0 3534.48  542.18
   2   0   0 3221.08  501.82
  -2   0   0 3475.96  531.26
   2   0   0 3352.45  516.24
  -2   0   0 4208.24  645.18
   2   0   1    8.78    8.12
   2   0   1    2.76    7.07
  -2   0  -1   20.66    7.23
  -2   0  -1   10.14    7.97
  -2   0  -1    5.01    5.93
  -2   0  -1    0.34    8.36
  -2   0  -1    1.44    9.47
   2   0   1   11.25    7.65
  -2   0  -1   59.73   21.19
   2   0   1    8.03   10.44
  -2   0  -1    2.70    4.22
  -2   0  -2   37.61    7.62
   2   0   2   59.62   14.01
   2   0   2   80.89   27.99
  -2   0  -2   30.07   12.05
  -2   0  -2   26.27    8.37
   2   0   2   42.48   14.38
  -2   0  -2   23.12   13.11
  -2   0  -2   31.61   14.53
  -2   0  -2   22.98   11.96
   2   0   2   78.24   22.32
   2   0   3    1.43   10.53
  -2   0  -3    1.77    9.86
  -2   0  -3    1.32    8.33
  -2   0  -3    1.38   16.29
  -2   0  -3    3.39    4.52
  -2   0  -3    1.53    4.89
   2   0   3    5.62   15.44
   2   0   4    0.34   10.04
  -2   0  -4 2954.53  490.02
  -2   0  -4 4111.23  668.96
  -2   0  -5    5.60   12.80
   2   0   5    2.42    9.42
  -2   0  -5    0.45   11.46
  -2   0  -6  454.68   87.30
  -2   0  -6  332.36   65.39
  -2   1   6 1827.05  329.95
   2   1  -6  927.54  157.56
   2   1  -6  651.67  116.28
   2  -1  -6  906.06  155.11
   2  -1  -6 1003.46  177.88
   2   1  -5 1304.94  224.16
   2   1  -5 1065.79  185.19
   2   1  -5 1314.91  218.89
   2  -1  -5 1253.78  214.26
   2  -1  -5 1328.66  223.07
   2  -1  -5 1236.08  213.38
   2  -1  -4 4288.90  706.15
   2   1  -3 4436.10  694.12
   2   1  -3 3782.52  603.63
   2   1  -3 4110.57  643.74
  -2   1   3 4899.39  760.66
   2   1  -3 4279.58  665.35
   2   1  -3 4244.66  655.67
   2  -1  -3 2903.72  457.33
   2  -1  -3 3763.68  580.28
   2  -1  -3 4738.00  736.97
   2  -1  -3 3380.33  546.17
   2  -1  -3 4047.65  628.14
   2  -1  -3 3905.07  609.27
   2   1  -2 2227.95  349.41
   2   1  -2 1599.98  258.99
   2   1  -2 2186.78  345.26
   2   1  -2 1864.95  290.19
   2   1  -2 2303.48  358.37
  -2   1   2 2140.13  337.95
   2   1  -2 2271.17  353.04
   2   1  -2 1546.58  246.82
  -2   1   2 2061.00  324.74
   2  -1  -2 2094.73  329.07
   2  -1  -2 2012.44  312.67
   2  -1  -2 2337.07  366.55
   2  -1  -2 1947.43  307.10
   2  -1  -2 3815.60  614.92
   2  -1  -2 2257.48  352.66
   2  -1  -2 2254.01  355.64
  -2   1   114643.78 2196.66
   2   1  -110449.67 1578.32
   2   1  -112375.26 1857.91
  -2   1   113820.08 2080.07
  -2   1   120291.04 3048.25
  -2   1   112886.89 1941.75
   2   1  -110789.78 1634.64
   2   1  -113370.77 2006.24
   2   1  -112292.64 1846.13
   2   1  -112238.02 1850.45
   2  -1  -1 9895.57 1508.52
  -2  -1   117006.88 2554.49
  -2  -1   114863.96 2233.88
   2  -1  -113922.14 2101.49
   2  -1  -111658.26 1751.38
   2  -1  -112192.40 1838.61
   2  -1  -112147.68 1819.84
  -2  -1   113087.98 1982.69
   2  -1  -112066.21 1818.05
   2   1   011805.76 1777.88
  -2   1   012529.95 1888.89
   2   1   014822.71 2227.02
  -2   1   012093.93 1820.50
   2   1   012190.14 1832.77
  -2   1   0 9773.53 1469.54
  -2   1   013139.73 1974.11
  -2   1   0 9431.47 1419.65
   2   1   013690.45 2059.21
  -2   1   013857.48 2081.68
   2   1   010781.30 1623.83
   2   1   011447.26 1726.47
  -2   1   0 8602.59 1296.83
  -2   1   0 8310.88 1255.06
   2   1   010672.13 1617.16
   2   1   010649.76 1606.54
  -2  -1   0 9921.71 1497.47
   2  -1   0 8902.16 1345.79
  -2  -1   010243.29 1548.21
   2  -1   0 9105.22 1370.74
  -2  -1   011109.24 1673.50
   2  -1   012008.38 1806.15
   2  -1   010432.96 1570.99
  -2  -1   011758.23 1786.48
   2  -1   010017.17 1523.06
  -2  -1   014134.03 2127.96
  -2  -1   011886.97 1788.91
   2   1   1  597.81   99.47
  -2   1  -1  501.30   81.74
   2   1   1  756.57  127.18
  -2   1  -1  686.68  114.58
  -2   1  -1  524.56   94.57
  -2   1  -1  475.76   83.99
  -2   1  -1  716.89  115.49
   2   1   1  651.01  110.22
  -2   1  -1  352.32   57.36
   2   1   1  554.10   95.94
  -2   1  -1  507.63   92.48
  -2  -1  -1  575.26   99.18
  -2  -1  -1  709.95  120.97
   2  -1   1  641.40  108.63
  -2  -1  -1  581.04  100.88
  -2  -1  -1  577.94   97.05
  -2  -1  -1  621.50  108.96
   2  -1   1  839.70  138.15
   2  -1   1  569.37   96.27
  -2  -1  -1  726.30  121.51
   2  -1   1  686.45  116.86
  -2   1  -2 8485.24 1259.67
  -2   1  -2 9195.99 1401.88
  -2   1  -2 9814.95 1497.17
  -2   1  -211894.03 1816.81
  -2   1  -2 9376.80 1458.61
   2   1   215672.09 2365.26
  -2   1  -2 7733.97 1197.55
   2   1   210562.70 1612.79
   2  -1   211822.26 1812.50
  -2  -1  -2 8414.23 1293.93
  -2  -1  -2 6624.72 1019.29
   2  -1   2 9399.26 1430.59
  -2  -1  -210266.58 1579.02
   2  -1   215954.29 2413.98
  -2  -1  -211070.81 1691.03
  -2  -1  -211993.83 1826.44
  -2  -1  -2 9076.27 1393.24
   2   1   3 1970.03  320.39
  -2   1  -3 1241.07  206.62
  -2   1  -3 1245.89  208.78
   2   1   3 1587.31  264.50
  -2   1  -3 1117.76  195.45
  -2   1  -3 1465.57  250.87
  -2  -1  -3 1247.58  210.74
  -2  -1  -3 1104.55  189.84
  -2  -1  -3 1307.38  218.38
  -2  -1  -3 1321.30  224.53
   2  -1   3 1426.86  238.31
  -2  -1  -3 1349.60  226.30
  -2   1  -4  267.85   60.67
  -2   1  -4  348.65   68.39
   2   1   4  414.14   81.81
  -2   1  -4  368.90   75.56
  -2  -1  -4  345.27   72.95
  -2  -1  -4  235.11   46.68
  -2  -1  -4  299.61   66.58
  -2   1  -5  415.75   86.01
   2   1   5 1110.51  203.02
  -2   1  -5  594.27  113.73
   2  -1   5  820.44  150.04
  -2  -1  -5  491.59   98.49
  -2  -1  -5  459.06   91.05
  -2   1  -6   10.27    9.86
  -2   1  -6   10.99    7.58
  -2  -1  -6   17.73   10.79
  -2  -1  -6    7.83    9.71
  -2   2   6  715.95  142.35
   2   2  -6  286.35   54.19
   2  -2  -6  359.97   73.55
   2  -2  -6  315.01   61.13
   2   2  -5 1981.91  328.35
   2   2  -5 1893.85  321.40
   2  -2  -5 2069.45  347.91
   2  -2  -5 2016.31  333.11
   2  -2  -5 2102.91  346.19
   2   2  -4  924.17  158.28
   2   2  -4  993.76  167.69
   2   2  -4  909.23  151.50
   2   2  -4  674.28  121.69
   2  -2  -4  584.84  114.52
   2  -2  -4  919.08  158.14
   2  -2  -4 1037.05  177.31
   2  -2  -4  930.40  158.66
   2   2  -3  391.55   76.68
   2   2  -3  488.84   86.47
   2   2  -3  480.24   82.74
   2   2  -3  319.90   56.70
   2   2  -3  480.68   82.20
  -2   2   3  544.00   98.12
  -2   2   3  548.31   98.57
   2   2  -3  482.69   85.21
   2  -2  -3  383.56   68.53
   2  -2  -3  589.17   99.46
   2  -2  -3  478.73   82.33
   2  -2  -3  490.49   86.24
   2  -2  -3  511.64   91.31
   2  -2  -3  561.15   97.77
   2  -2  -3  395.98   80.62
   2   2  -2 2667.85  411.30
   2   2  -2 2999.55  469.00
   2   2  -2 3042.43  468.29
  -2   2   2 2804.69  438.58
   2   2  -2 2686.40  418.26
   2   2  -2 2669.35  419.10
   2   2  -2 2415.07  385.73
   2   2  -2 2237.83  351.20
  -2   2   2 2714.06  423.74
   2  -2  -2 2687.00  419.53
   2  -2  -2 2770.84  432.12
   2  -2  -2 2634.38  421.53
   2  -2  -2 2806.65  436.24
   2  -2  -2 2821.37  439.66
   2  -2  -2 2903.88  453.47
   2  -2  -2 2729.64  423.25
  -2   2   112663.30 1907.67
   2   2  -114651.88 2205.76
  -2   2   112221.87 1834.17
   2   2  -113749.35 2079.06
  -2   2   114171.59 2128.32
  -2   2   113086.28 1965.26
   2   2  -114205.60 2142.81
   2   2  -113268.75 1993.95
   2   2  -113091.54 1979.00
  -2   2   112937.06 1945.21
  -2   2   122016.10 3307.98
   2   2  -114704.79 2206.79
   2  -2  -112292.96 1846.61
   2  -2  -114802.02 2238.40
  -2  -2   115843.41 2380.46
  -2  -2   114645.21 2205.44
   2  -2  -112351.13 1851.74
   2  -2  -113155.04 1985.70
   2  -2  -112375.87 1859.83
   2  -2  -113098.68 1973.07
   2  -2  -110037.72 1531.30
  -2  -2   114274.75 2163.15
   2   2   0  384.69   68.98
  -2   2   0  419.97   73.44
   2   2   0  326.01   59.09
  -2   2   0  435.05   73.62
  -2   2   0  370.86   62.17
  -2   2   0  411.37   73.92
  -2   2   0  458.75   88.90
  -2   2   0  363.18   62.74
   2   2   0  364.82   63.81
   2   2   0  550.42   94.58
   2   2   0  374.99   67.57
   2   2   0  403.56   65.50
   2   2   0  451.41   80.87
  -2   2   0  312.61   58.91
  -2   2   0  442.77   74.99
  -2  -2   0  353.42   68.15
   2  -2   0  365.47   63.59
   2  -2   0  345.71   60.43
  -2  -2   0  434.37   77.80
   2  -2   0  323.35   60.16
  -2  -2   0  406.42   80.27
  -2  -2   0  300.08   56.94
  -2  -2   0  322.84   61.84
   2  -2   0  288.72   59.74
  -2  -2   0  376.16   68.10
   2  -2   0  409.91   72.17
   2   2   110995.35 1668.98
  -2   2  -1 8633.96 1326.17
   2   2   112114.64 1826.79
   2   2   111374.37 1719.16
  -2   2  -1 8742.72 1304.88
  -2   2  -1 9089.56 1389.48
  -2   2  -112783.07 1920.46
   2   2   113770.87 2088.27
   2   2   112803.66 1936.95
  -2   2  -112271.89 1848.03
  -2   2  -111505.14 1736.25
  -2   2  -110650.75 1630.84
   2   2   113232.12 1983.13
  -2  -2  -112580.61 1911.93
   2  -2   111204.49 1699.66
  -2  -2  -116612.90 2509.40
  -2  -2  -1 7008.66 1071.54
  -2  -2  -113012.63 1973.55
  -2  -2  -112738.20 1924.78
  -2  -2  -113713.35 2073.19
  -2  -2  -110770.95 1633.36
   2  -2   112190.46 1834.71
  -2  -2  -1 9191.41 1382.96
  -2   2  -2 1514.12  251.36
   2   2   2 1843.41  297.64
   2   2   2 2311.21  366.02
   2   2   2 1651.43  269.00
  -2   2  -2 1397.40  237.25
  -2   2  -2 1604.99  254.20
  -2   2  -2 1717.56  276.37
  -2   2  -2 1453.54  228.17
  -2   2  -2 1872.26  305.50
  -2  -2  -2 1719.47  279.87
   2  -2   2 1622.65  261.66
  -2  -2  -2 1667.38  272.73
  -2  -2  -2 1827.15  298.82
   2  -2   2 1827.60  296.84
  -2  -2  -2 1595.18  255.60
  -2  -2  -2 1444.25  236.03
  -2   2  -3 4209.23  680.51
  -2   2  -3 6812.27 1066.69
  -2   2  -3 4980.26  780.55
   2   2   3 5918.14  937.39
  -2  -2  -3 5491.83  863.81
   2  -2   3 8181.25 1270.45
  -2  -2  -3 4835.26  765.86
  -2  -2  -3 5746.23  908.53
  -2  -2  -3 5813.96  914.50
  -2   2  -4  440.88   86.65
  -2   2  -4  380.87   73.04
   2   2   4  524.42  101.95
  -2   2  -4  274.10   63.02
  -2  -2  -4  299.87   60.57
  -2  -2  -4  380.15   78.45
  -2  -2  -4  316.98   64.24
  -2  -2  -4  296.80   61.64
  -2   2  -5  212.24   47.21
  -2   2  -5  117.36   35.19
   2   2   5  332.56   69.58
   2  -2   5  253.46   56.46
  -2  -2  -5  164.14   42.13
  -2  -2  -5  169.52   40.67
  -2   2  -6    8.02    9.60
  -2   2  -6   12.41    5.79
  -2  -2  -6    8.77    8.89
  -2  -2  -6   20.89   10.78
  -2   3   6  125.88   41.19
   2  -3  -6   42.09   23.34
   2  -3  -6   49.39   16.80
   2  -3  -5 3020.03  489.11
   2  -3  -5 3035.78  499.40
   2  -3  -5 2869.43  465.75
   2   3  -4  154.86   30.93
   2   3  -4  144.18   31.61
   2   3  -4  137.91   31.03
   2  -3  -4  135.55   27.43
   2  -3  -4  177.60   39.68
   2  -3  -4  121.35   37.59
   2  -3  -4  173.22   37.73
   2  -3  -4  169.32   37.66
   2   3  -310850.36 1681.12
   2   3  -312197.33 1860.96
   2   3  -310957.81 1678.17
   2   3  -310719.04 1663.33
  -2   3   317167.98 2605.08
   2   3  -310614.67 1620.35
   2   3  -313136.34 2024.28
  -2   3   312622.82 1931.88
   2  -3  -311900.45 1816.36
   2  -3  -311027.11 1685.08
   2  -3  -313730.83 2090.15
   2  -3  -311427.57 1757.34
   2  -3  -311756.19 1806.19
   2  -3  -313754.56 2094.54
   2  -3  -310053.73 1575.98
   2   3  -2   54.64   15.74
   2   3  -2   58.95   15.68
  -2   3   2   58.39   19.00
   2   3  -2   53.74   12.52
   2   3  -2   54.59   11.08
   2   3  -2   81.84   16.42
   2   3  -2   49.72   13.62
  -2   3   2   61.25   16.50
   2   3  -2   53.67   15.74
   2  -3  -2   96.06   18.47
   2  -3  -2   54.20   14.64
   2  -3  -2   59.74   13.29
   2  -3  -2   61.37   14.87
   2  -3  -2   52.95   13.32
   2  -3  -2   62.52   20.46
   2  -3  -2   60.83   16.13
   2  -3  -2   76.33   18.27
  -2   3   111483.25 1730.20
  -2   3   1 8819.21 1351.07
   2   3  -1 8713.62 1321.10
   2   3  -1 8319.15 1267.28
   2   3  -1 8894.17 1349.40
  -2   3   1 8560.71 1289.81
   2   3  -1 5995.70  922.38
  -2   3   1 9608.11 1450.15
  -2   3   1 8528.88 1286.62
  -2   3   1 8791.57 1327.12
   2   3  -111020.14 1662.38
  -2   3   115820.44 2387.23
   2   3  -1 6909.21 1054.04
   2  -3  -112707.13 1918.78
  -2  -3   110378.14 1569.83
   2  -3  -1 9186.77 1387.25
   2  -3  -110173.36 1540.28
   2  -3  -1 8863.69 1336.31
   2  -3  -1 9174.56 1382.82
   2  -3  -1 7317.13 1109.05
   2  -3  -1 8143.60 1246.42
   2  -3  -1 9343.84 1409.17
  -2  -3   110484.82 1602.31
   2   3   0  427.43   75.31
   2   3   0  392.15   69.20
  -2   3   0  517.33   87.54
  -2   3   0  479.95   80.68
  -2   3   0  474.35   74.83
  -2   3   0  479.58   80.97
  -2   3   0  531.60   92.02
   2   3   0  425.62   74.01
  -2   3   0  526.65   92.79
  -2   3   0  597.44  100.42
  -2   3   0  590.32  106.10
   2   3   0  506.33   84.05
   2   3   0  596.55   93.95
   2   3   0  466.69   82.87
  -2   3   0  503.95   84.58
   2   3   0  370.18   63.39
  -2  -3   0  575.11   99.71
  -2  -3   0  490.71   84.66
   2  -3   0  414.50   69.83
   2  -3   0  617.16  100.54
  -2  -3   0  492.87   84.95
  -2  -3   0  476.48   83.20
   2  -3   0  481.02   80.55
  -2  -3   0  449.38   77.38
   2  -3   0  458.85   76.86
  -2  -3   0  404.69   72.63
   2  -3   0  410.31   77.09
  -2  -3   0  438.36   78.80
   2   3   1  170.54   34.28
  -2   3  -1  182.92   35.68
   2   3   1  141.25   37.24
   2   3   1  179.95   36.25
  -2   3  -1  366.16   65.81
  -2   3  -1  144.45   28.83
   2   3   1  177.89   34.52
  -2   3  -1  135.14   24.75
  -2   3  -1  127.85   29.96
  -2   3  -1  134.12   35.29
   2   3   1  136.45   26.12
   2   3   1  136.40   28.30
  -2   3  -1  220.00   40.39
   2   3   1  184.42   39.94
   2  -3   1  141.95   28.35
   2  -3   1  217.75   43.97
  -2  -3  -1  147.70   30.00
  -2  -3  -1  141.04   32.69
  -2  -3  -1  136.90   32.09
  -2  -3  -1  240.09   42.14
  -2  -3  -1  165.09   32.31
  -2  -3  -1  131.40   28.84
   2  -3   1  160.77   31.55
  -2  -3  -1   93.79   18.40
  -2  -3  -1  128.38   25.71
   2   3   2  318.16   56.74
   2   3   2  410.84   72.89
  -2   3  -2  484.90   86.09
  -2   3  -2  330.37   61.08
   2   3   2  392.23   71.79
  -2   3  -2  364.91   68.78
  -2   3  -2  262.03   51.39
  -2   3  -2  225.86   51.56
   2   3   2  485.87   88.71
  -2   3  -2  626.54  104.41
  -2  -3  -2  318.72   60.84
  -2  -3  -2  297.82   56.01
   2  -3   2  325.86   60.04
  -2  -3  -2  310.22   59.50
  -2  -3  -2  298.33   53.42
   2  -3   2  304.32   59.72
  -2  -3  -2  320.14   62.23
  -2   3  -3 3031.68  506.56
   2   3   3 5618.26  897.83
  -2   3  -3 4688.60  742.95
  -2   3  -3 3851.74  608.56
  -2  -3  -3 4300.19  686.36
  -2  -3  -3 4609.10  732.22
  -2  -3  -3 3422.69  545.44
  -2  -3  -3 4268.23  680.64
  -2   3  -4   66.04   27.19
   2   3   4  172.54   42.19
  -2   3  -4  112.92   28.96
  -2   3  -4   95.59   24.85
  -2  -3  -4   87.14   24.30
  -2  -3  -4   83.63   22.97
  -2  -3  -4  106.23   29.23
  -2  -3  -4   80.49   31.02
  -2   3  -5  683.30  135.18
  -2   3  -5 1456.04  244.65
  -2  -3  -5  963.59  175.10
  -2  -3  -5  947.47  170.39
  -2  -3  -5  875.14  155.35
   2  -3   5   10.54   14.80
  -2   3  -6    2.50    6.82
  -2  -3  -6    8.83    8.23
  -2  -3  -6    5.05    7.07
  -2   4   6 1050.60  200.69
   2  -4  -6  359.47   68.97
   2  -4  -6  340.17   67.13
  -2   4   5 3421.42  577.44
   2  -4  -5 1494.37  252.31
   2  -4  -5 1368.62  233.22
   2   4  -4 2851.80  471.13
   2   4  -4 2497.20  412.76
   2   4  -4 2816.60  455.30
   2  -4  -4 3438.69  558.21
   2  -4  -4 3373.15  538.75
   2  -4  -4 2168.14  378.06
   2  -4  -4 3802.69  606.90
   2  -4  -4 2940.22  473.30
  -2   4   3  130.21   30.72
   2   4  -3  107.06   20.97
   2   4  -3   86.58   20.30
   2   4  -3  124.73   27.17
   2   4  -3   88.24   21.13
  -2   4   3  139.65   32.01
   2   4  -3   94.88   24.11
   2  -4  -3  108.04   23.93
   2  -4  -3  103.17   29.20
   2  -4  -3  153.50   32.84
   2  -4  -3  135.50   28.18
   2  -4  -3  116.11   27.73
   2  -4  -3  117.04   27.54
   2  -4  -3  101.69   22.34
  -2   4   2 8596.96 1318.22
  -2   4   2 6020.00  938.01
  -2   4   2 7066.34 1080.58
   2   4  -2 6659.37 1028.82
   2   4  -2 5331.11  826.67
  -2   4   2 5758.65  885.01
   2   4  -2 5369.18  829.34
   2   4  -2 6045.59  930.51
   2   4  -2 5134.36  777.12
   2   4  -2 5208.68  817.93
   2   4  -2 5653.25  854.97
   2  -4  -2 6151.34  943.96
   2  -4  -2 7234.02 1128.33
   2  -4  -2 6487.28  994.08
   2  -4  -212153.89 1854.45
   2  -4  -2 5668.90  869.28
   2  -4  -2 5730.71  879.10
   2  -4  -2 7188.97 1093.42
  -2   4   1 5001.85  764.28
   2   4  -1 3400.63  531.06
  -2   4   1 5140.38  783.21
  -2   4   1 4922.84  751.98
  -2   4   1 5708.16  868.33
   2   4  -1 5195.75  798.26
  -2   4   1 8135.23 1244.15
  -2   4   1 6901.08 1054.72
  -2   4   1 5294.38  819.16
   2   4  -1 4485.82  691.19
   2   4  -1 4829.10  742.17
   2   4  -1 5322.93  820.76
   2   4  -1 5707.50  874.59
   2  -4  -1 4905.68  748.21
   2  -4  -1 4830.51  739.42
  -2  -4   1 5121.99  794.06
   2  -4  -1 3401.51  526.70
  -2  -4   1 6600.93 1013.56
   2  -4  -1 6003.52  921.87
   2  -4  -1 4883.91  747.05
   2  -4  -1 4543.99  692.61
   2  -4  -1 3933.50  608.86
   2  -4  -1 5207.57  794.94
   2   4   0  332.49   61.36
   2   4   0  254.48   46.10
  -2   4   0  388.07   67.66
  -2   4   0  374.12   74.57
  -2   4   0  348.23   59.40
   2   4   0  376.98   65.98
  -2   4   0  213.40   37.83
   2   4   0  355.73   59.35
  -2   4   0  318.49   55.57
  -2   4   0  331.46   57.51
   2   4   0  240.87   38.82
  -2   4   0  404.04   69.53
   2   4   0  325.09   59.18
  -2   4   0  377.06   60.07
   2   4   0  324.08   57.88
   2   4   0  370.47   59.26
  -2  -4   0  283.16   53.58
  -2  -4   0  331.09   58.70
   2  -4   0  368.29   63.93
   2  -4   0  350.22   66.94
   2  -4   0  364.06   63.26
  -2  -4   0  410.41   75.04
   2  -4   0  348.05   59.69
  -2  -4   0  387.26   69.52
   2  -4   0  340.81   59.26
  -2  -4   0  308.49   62.87
   2  -4   0  375.05   64.56
  -2  -4   0  387.54   69.45
  -2  -4   0  366.96   65.28
  -2   4  -112774.32 1928.86
  -2   4  -111357.11 1750.09
  -2   4  -120202.12 3070.01
  -2   4  -114222.63 2140.76
  -2   4  -113702.86 2061.05
   2   4   114736.69 2229.00
  -2   4  -112217.46 1879.25
  -2   4  -111932.81 1822.18
   2   4   114708.23 2208.99
   2   4   116261.36 2455.93
   2   4   115506.68 2339.09
   2   4   113228.24 2000.84
   2   4   115400.85 2325.16
   2  -4   113967.39 2103.71
  -2  -4  -119486.64 2927.20
  -2  -4  -112668.03 1935.03
   2  -4   115347.76 2314.93
   2  -4   1 9721.02 1493.25
  -2  -4  -115096.96 2290.18
  -2  -4  -1 8541.94 1315.51
  -2  -4  -112623.66 1928.23
  -2  -4  -114038.05 2130.76
  -2  -4  -116251.24 2456.76
  -2  -4  -110967.38 1672.66
  -2  -4  -113951.27 2110.85
   2  -4   113260.03 2006.02
  -2   4  -2  299.94   58.08
  -2   4  -2  402.50   70.29
   2   4   2  454.41   82.10
  -2   4  -2  248.06   57.50
   2   4   2  533.30   92.32
  -2   4  -2  404.70   72.70
  -2   4  -2  834.03  143.58
  -2   4  -2  464.37   83.45
   2   4   2  481.08   85.76
   2   4   2  620.64  116.41
   2   4   2  411.68   73.04
  -2  -4  -2  381.91   73.92
  -2  -4  -2  388.83   69.20
   2  -4   2  449.52   80.33
  -2  -4  -2  349.54   64.94
  -2  -4  -2  323.09   59.11
  -2  -4  -2  381.52   71.29
   2   4   3 4934.97  802.86
  -2   4  -3 2879.26  460.30
  -2   4  -3 2845.76  447.10
  -2   4  -3 2017.69  352.02
  -2   4  -3 3345.11  538.29
  -2  -4  -3 2542.97  412.16
  -2  -4  -3 2978.11  483.09
  -2  -4  -3 2772.65  451.15
  -2  -4  -3 3194.09  519.78
  -2   4  -4 1232.21  212.42
  -2   4  -4  734.62  145.30
  -2   4  -4  670.14  120.28
   2   4   4 1158.91  205.95
  -2  -4  -4  659.15  126.18
  -2  -4  -4  566.84  107.42
  -2  -4  -4  620.48  117.35
  -2  -4  -4  622.57  114.42
  -2   4  -5   19.86   10.27
  -2   4  -5    5.28    5.93
  -2   4  -5    0.87   13.42
  -2  -4  -5    5.26    8.63
  -2  -4  -5    3.65   11.25
  -2  -4  -5    1.11    7.17
  -2   5   6 4785.93  785.09
   2  -5  -6 1772.77  296.31
   2  -5  -6 1590.38  266.39
  -2   5   5   86.42   34.31
   2  -5  -5   33.12   19.95
   2  -5  -5   34.02   17.09
  -2   5   4  552.93  112.59
   2   5  -4  778.30  137.69
   2   5  -4  908.72  155.28
   2  -5  -4  534.98  109.99
   2  -5  -4 1064.29  183.93
   2  -5  -4  886.21  153.17
   2  -5  -4 1076.30  184.66
  -2   5   3    0.07   13.03
   2   5  -3  610.36  109.17
   2   5  -3  783.68  139.10
   2   5  -3  888.32  150.46
   2   5  -3  688.82  119.06
   2  -5  -3  833.50  143.18
   2  -5  -3  861.97  145.29
   2  -5  -3  889.56  150.73
   2  -5  -3  809.61  150.62
   2  -5  -3 1005.21  169.80
   2  -5  -3  841.47  143.82
   2   5  -2 1839.27  293.57
   2   5  -2 2076.39  334.68
  -2   5   2 2024.40  331.32
  -2   5   2 2927.05  467.32
   2   5  -2 1539.42  252.53
  -2   5   2 1987.51  316.63
   2   5  -2 1610.54  259.78
  -2   5   2 2410.63  381.94
   2   5  -2 2083.07  333.57
  -2   5   2 1983.75  315.80
   2  -5  -2 2173.39  348.02
   2  -5  -2 1945.97  309.76
  -2  -5   2 2377.67  381.21
   2  -5  -2 2160.24  343.65
   2  -5  -2 1963.68  312.82
   2  -5  -2 2228.28  353.86
   2  -5  -2 1994.66  326.01
  -2   5   1  290.32   52.35
  -2   5   1  193.32   36.81
  -2   5   1  282.28   50.04
   2   5  -1  366.23   66.15
   2   5  -1  245.11   43.67
  -2   5   1  452.02   82.10
   2   5  -1  280.83   51.78
  -2   5   1  332.81   63.14
   2   5  -1  239.80   44.81
  -2   5   1  341.55   59.09
   2   5  -1  316.03   58.81
  -2   5   1  340.86   62.69
  -2  -5   1  305.82   59.47
   2  -5  -1  342.67   64.38
  -2  -5   1  509.77   95.29
   2  -5  -1  205.45   37.07
   2  -5  -1  268.11   50.59
   2  -5  -1  282.30   50.44
   2  -5  -1  298.91   53.91
  -2  -5   1  490.13   86.50
   2  -5  -1  271.59   46.99
   2  -5  -1  378.23   66.59
   2  -5  -1  254.72   47.44
  -2   5   012932.46 1958.19
  -2   5   015855.41 2387.90
   2   5   014261.49 2150.07
  -2   5   016106.99 2432.08
  -2   5   015243.76 2297.58
   2   5   016280.30 2460.35
   2   5   014650.20 2212.42
   2   5   010124.00 1542.04
   2   5   012265.51 1861.22
  -2   5   015278.34 2306.14
  -2   5   010526.15 1610.82
  -2   5   0 8207.09 1227.55
   2   5   015712.97 2381.97
   2   5   013025.18 1972.47
   2  -5   012638.59 1932.39
  -2  -5   017360.89 2635.95
  -2  -5   019002.95 2886.56
   2  -5   015287.57 2314.52
  -2  -5   019438.81 2926.49
   2  -5   015849.17 2389.86
   2  -5   016261.42 2463.20
  -2  -5   017467.28 2650.24
   2  -5   016114.06 2432.45
   2  -5   016355.46 2459.92
  -2  -5   020441.83 3103.85
  -2  -5   013803.87 2091.89
  -2   5  -1  217.02   49.34
   2   5   1  179.44   32.61
  -2   5  -1  101.92   20.26
   2   5   1  193.06   39.31
  -2   5  -1  171.67   31.45
   2   5   1  297.50   52.77
  -2   5  -1  182.94   35.79
  -2   5  -1  195.33   36.42
  -2   5  -1  180.48   37.11
   2   5   1  214.91   42.48
   2   5   1  204.30   42.12
  -2   5  -1  189.25   36.75
   2   5   1  256.37   49.49
  -2  -5  -1  176.81   46.06
  -2  -5  -1  169.83   32.64
   2  -5   1  191.65   37.13
  -2  -5  -1  208.24   41.68
  -2  -5  -1  160.17   36.74
   2  -5   1  179.65   33.21
  -2  -5  -1  200.40   39.91
  -2  -5  -1  129.10   25.74
  -2  -5  -1  181.17   33.94
   2  -5   1  181.89   36.18
  -2  -5  -1  143.71   29.46
   2  -5   1  416.38   80.00
  -2  -5  -1   88.95   19.33
  -2   5  -2 5696.56  926.82
  -2   5  -213392.99 2064.15
  -2   5  -211672.77 1773.63
  -2   5  -211637.68 1772.04
   2   5   213337.73 2032.56
   2   5   213217.81 2022.38
   2   5   218563.12 2803.15
   2   5   218722.95 2830.67
   2   5   216969.23 2598.89
  -2  -5  -2 9966.86 1545.11
  -2  -5  -211823.96 1810.78
  -2  -5  -2 9644.47 1494.89
  -2  -5  -212530.48 1924.91
  -2  -5  -212149.65 1880.70
   2  -5   213288.08 2018.25
   2   5   3  156.43   37.42
  -2   5  -3   92.48   21.07
  -2   5  -3   62.35   28.26
  -2   5  -3   98.63   22.72
  -2   5  -3  114.72   29.16
  -2  -5  -3   95.50   26.45
  -2  -5  -3   80.62   22.07
  -2  -5  -3   94.45   28.86
  -2  -5  -3   88.93   23.07
  -2   5  -4 1392.34  258.37
   2   5   4 4052.78  678.80
  -2   5  -4 1848.10  304.56
  -2  -5  -4 1607.97  272.92
  -2  -5  -4 2062.33  350.10
  -2  -5  -4 1581.84  265.56
  -2  -5  -4 1896.73  328.86
  -2   5  -5  230.93   47.52
  -2   5  -5  143.09   38.07
  -2  -5  -5  129.35   32.82
  -2  -5  -5  192.77   41.75
  -2  -5  -5  117.90   30.04
  -2  -5  -5   98.07   27.44
  -2   6   6 1097.15  204.58
   2  -6  -6  428.71   81.78
   2  -6  -6  353.34   68.06
  -2   6   5  804.55  154.55
   2  -6  -5  338.08   67.26
   2  -6  -5  278.63   54.43
   2  -6  -5  329.85   64.60
   2   6  -4 5384.68  843.94
   2   6  -4 3397.15  562.81
   2   6  -4 4390.70  710.94
  -2   6   4 9906.82 1563.04
   2  -6  -4 6267.36  985.68
   2  -6  -4 5258.41  826.75
   2  -6  -4 2590.02  454.60
   2  -6  -4 5804.31  920.19
   2   6  -3   22.85   11.33
   2   6  -3    8.27    8.25
   2   6  -3    8.78    5.86
  -2   6   3   19.28   16.26
   2   6  -3    9.93    7.65
   2  -6  -3    8.38    8.52
   2  -6  -3   10.04    8.75
   2  -6  -3    9.85   14.37
   2  -6  -3    8.96    6.65
   2  -6  -3    9.84    8.21
   2   6  -215282.89 2330.86
  -2   6   212855.06 1957.81
   2   6  -213520.62 2059.35
  -2   6   212132.48 1848.75
  -2   6   211464.66 1766.51
  -2   6   215049.38 2300.46
   2   6  -211865.41 1816.38
   2   6  -214408.94 2224.52
  -2   6   217254.86 2618.48
   2   6  -2 9736.80 1490.51
   2  -6  -214937.14 2273.38
   2  -6  -214232.55 2182.91
   2  -6  -212614.13 1925.90
   2  -6  -212221.39 1863.02
   2  -6  -210221.02 1568.43
  -2  -6   215868.99 2422.58
   2  -6  -215540.77 2355.62
   2  -6  -213886.80 2113.01
   2   6  -1 1323.91  216.19
  -2   6   1 1487.85  236.38
   2   6  -1 1364.64  223.88
   2   6  -1 1035.69  170.05
  -2   6   1 1278.48  204.90
  -2   6   1 1369.32  222.91
   2   6  -1 1119.43  178.68
   2   6  -1 1335.37  217.62
  -2   6   1 1274.00  205.79
  -2   6   1 1363.66  224.86
   2  -6  -1 1156.35  189.40
   2  -6  -1 1330.82  216.03
  -2  -6   1 1521.90  248.38
   2  -6  -1 1049.03  173.48
   2  -6  -1 1276.47  204.61
   2  -6  -1 1247.93  201.45
   2  -6  -1 1299.43  213.10
  -2  -6   1 2248.77  370.74
   2  -6  -1 1185.31  191.54
   2  -6  -1 1133.55  184.32
   2  -6  -1 1254.72  208.98
  -2  -6   1 1342.82  223.96
   2  -6  -1  878.03  143.79
  -2   6   0 5069.12  789.13
   2   6   0 3827.08  595.07
  -2   6   0 5444.33  835.06
   2   6   0 5080.65  783.29
  -2   6   0 4845.21  741.41
   2   6   0 5038.24  778.24
  -2   6   0 3619.14  572.23
   2   6   0 4259.75  663.94
   2   6   0 3860.13  598.24
   2   6   0 5013.57  776.98
  -2   6   0 5071.11  778.97
  -2   6   0 4931.72  757.46
   2   6   0 5286.74  801.99
   2  -6   0 5458.95  848.29
  -2  -6   0 4537.74  706.42
  -2  -6   0 5616.65  867.91
   2  -6   0 4946.87  761.22
  -2  -6   0 5706.26  887.32
  -2  -6   0 4745.00  742.68
   2  -6   0 5179.22  795.19
   2  -6   0 5201.92  801.98
   2  -6   0 4558.09  706.97
  -2  -6   0 5602.26  871.28
  -2  -6   0 5889.67  919.74
   2   6   1 2573.63  398.89
   2   6   1 2688.50  426.91
  -2   6  -1 3026.27  477.76
  -2   6  -1 2793.66  440.47
   2   6   1 2910.03  453.72
  -2   6  -1 2599.32  407.38
  -2   6  -1 1939.73  304.11
   2   6   1 2594.61  412.55
  -2   6  -1 2386.23  371.96
  -2   6  -1 2548.88  418.29
   2   6   1 2938.66  462.08
  -2  -6  -1 2474.76  393.40
   2  -6   1 2860.60  450.33
   2  -6   1 5094.09  802.71
  -2  -6  -1 2953.84  467.61
   2  -6   1 2898.27  455.95
  -2  -6  -1 2461.05  398.61
  -2  -6  -1 2319.00  370.82
  -2  -6  -1 1393.06  229.32
   2  -6   1 2482.27  390.53
  -2  -6  -1 2372.16  377.58
  -2   6  -2 1533.72  248.22
   2   6   2 1604.17  262.61
   2   6   2 1604.38  261.03
   2   6   2 1971.07  315.29
   2   6   2 1625.65  266.15
   2   6   2 1677.63  274.26
  -2   6  -2 1501.12  244.92
  -2   6  -2 1474.20  238.39
  -2  -6  -2 1154.55  193.67
  -2  -6  -2 1076.28  178.67
  -2  -6  -2 1209.03  202.42
  -2  -6  -2 1535.28  253.89
  -2  -6  -2 1160.91  204.81
  -2  -6  -2 1423.83  236.58
   2  -6   2 1729.81  281.33
  -2   6  -3 1323.14  245.90
  -2   6  -3 2119.04  344.26
   2   6   3 4078.78  667.94
  -2   6  -3 2146.54  343.47
  -2  -6  -3 2096.23  346.29
  -2  -6  -3 1924.61  327.80
  -2  -6  -3 1630.76  271.33
  -2  -6  -3 1583.38  265.14
  -2   6  -4 2367.10  384.87
  -2   6  -4 1895.08  331.23
   2   6   4 5267.52  892.75
   2  -6   4 3135.60  519.97
  -2  -6  -4 1934.53  336.90
  -2  -6  -4 2102.05  350.31
  -2  -6  -4 2659.07  445.26
  -2  -6  -4 2119.06  354.63
  -2   6  -5  365.85   68.98
  -2   6  -5  256.39   55.38
  -2  -6  -5  215.19   43.65
  -2  -6  -5  193.92   43.02
  -2  -6  -5  316.14   62.07
  -2   7   5 3945.51  648.72
   2  -7  -5 1698.82  289.17
   2  -7  -5 1496.26  255.26
   2  -7  -5 1709.64  284.93
   2   7  -4  364.53   68.75
   2   7  -4  234.76   50.94
  -2   7   4  871.82  162.93
   2   7  -4  465.17   85.07
   2  -7  -4  489.74   88.61
   2  -7  -4  180.02   49.79
   2  -7  -4  379.20   71.82
   2  -7  -4  455.53   86.24
   2   7  -3 6149.49  974.90
   2   7  -3 6582.00 1027.07
   2   7  -3 4670.00  735.91
  -2   7   3 8140.94 1276.99
   2  -7  -3 6201.33 1011.29
   2  -7  -3 4822.52  766.67
   2  -7  -3 5843.16  915.01
   2  -7  -3 6082.47  950.32
   2  -7  -3 6326.67  995.31
  -2   7   2 3023.91  483.32
   2   7  -2 2444.75  391.80
   2   7  -2 2409.22  383.80
  -2   7   2 3110.74  498.35
  -2   7   2 2574.97  408.42
   2   7  -2 1935.48  312.20
   2   7  -2 2646.50  427.59
   2  -7  -2 2764.89  441.95
  -2  -7   2 2150.16  344.96
   2  -7  -2 2593.27  424.10
   2  -7  -2 2408.05  384.50
   2  -7  -2 2415.59  388.63
   2  -7  -2 2843.15  453.64
   2  -7  -2 2449.89  391.60
   2  -7  -2 2004.60  323.14
   2   7  -1 5079.69  788.79
  -2   7   1 4890.36  755.76
  -2   7   1 3953.67  617.69
  -2   7   1 4602.24  707.80
  -2   7   1 4417.14  680.06
  -2   7   1 4723.70  737.85
   2   7  -1 3762.69  586.35
   2   7  -1 5035.22  785.49
  -2   7   1 4763.28  730.29
   2   7  -1 4942.87  768.60
   2  -7  -1 4274.80  681.02
   2  -7  -1 4489.60  698.54
  -2  -7   1 4971.29  784.77
   2  -7  -1 4772.60  743.62
   2  -7  -1 4835.53  751.31
  -2  -7   1 5700.66  898.88
   2  -7  -1 4420.58  685.31
   2  -7  -1 4776.65  740.12
   2  -7  -1 4749.56  735.20
   2  -7  -1 3178.39  502.97
  -2  -7   1 5761.31  900.97
   2  -7  -1 5353.61  828.20
   2   7   0 4646.57  724.71
  -2   7   0 3554.10  564.53
  -2   7   0 4555.07  703.45
   2   7   0 3842.13  602.61
  -2   7   0 3844.03  589.61
  -2   7   0 4458.00  688.75
   2   7   0 3485.69  544.13
   2   7   0 4376.54  679.82
  -2   7   0 4862.21  760.15
  -2   7   0 4627.34  716.06
   2   7   0 4474.10  692.66
   2  -7   0 4885.68  768.89
  -2  -7   0 4007.08  631.09
  -2  -7   0 4950.29  778.51
   2  -7   0 4686.38  728.27
  -2  -7   0 5264.43  825.41
   2  -7   0 4535.44  700.98
  -2  -7   0 3868.76  613.02
   2  -7   0 4812.03  747.49
  -2  -7   0 5309.92  837.70
   2  -7   0 3948.02  619.57
  -2  -7   0 5121.05  796.72
  -2   7  -1   40.00   12.48
   2   7   1   25.14   11.22
   2   7   1   28.97   10.38
  -2   7  -1   20.41    5.79
   2   7   1   26.75    7.35
  -2   7  -1   37.39   11.57
   2   7   1   32.55   12.77
  -2   7  -1   23.90    6.61
  -2   7  -1   25.08   14.64
   2   7   1   27.87    7.35
  -2  -7  -1   90.32   19.71
   2  -7   1   30.24   11.67
   2  -7   1   31.70   11.41
  -2  -7  -1   33.52   11.59
   2  -7   1   51.34   16.31
   2  -7   1   22.88    7.33
  -2  -7  -1   34.27   13.02
  -2  -7  -1   27.26   13.14
  -2  -7  -1   29.75    9.60
  -2   7  -2 3086.93  486.68
   2   7   2 3537.01  563.40
  -2   7  -2 3248.84  514.26
   2   7   2 3402.37  528.83
   2   7   2 3433.56  540.64
  -2  -7  -2 2865.10  468.03
  -2  -7  -2 2130.66  346.59
  -2  -7  -2 3051.75  489.75
  -2  -7  -2 2630.79  428.35
  -2  -7  -2 2161.51  351.63
  -2   7  -3  736.22  126.69
  -2   7  -3  517.42  107.23
   2   7   3 1718.85  299.81
  -2   7  -3  718.59  126.21
  -2  -7  -3  544.53   98.74
  -2  -7  -3  503.33   92.39
  -2  -7  -3  660.19  121.38
  -2  -7  -3  585.67  113.66
   2   7   4  177.52   45.71
  -2   7  -4   59.38   22.57
  -2   7  -4   61.85   18.74
  -2  -7  -4   56.35   16.97
  -2  -7  -4   65.13   22.02
  -2  -7  -4   80.74   21.89
   2  -7   4  145.74   37.46
  -2  -7  -4   59.57   25.04
  -2   7  -5  664.47  115.86
  -2   7  -5  456.74   84.91
   2   7   5 1416.26  237.23
  -2  -7  -5  278.98   58.60
  -2  -7  -5  445.75   82.95
  -2  -7  -5  416.42   80.56
  -2   8   5  826.42  152.57
   2  -8  -5  380.08   72.43
   2  -8  -5  360.93   71.74
   2  -8  -5  341.79   65.97
   2   8  -4   35.98   11.43
   2   8  -4    3.15    7.86
  -2   8   4    8.85   15.80
   2   8  -4    9.39    8.69
   2  -8  -4   11.70   16.86
   2  -8  -4    6.56    6.77
   2  -8  -4    4.59    7.52
   2  -8  -4    9.06    9.90
   2   8  -3   54.07   15.90
  -2   8   3   94.38   28.46
   2   8  -3   91.10   26.02
   2   8  -3   75.99   22.58
   2  -8  -3   57.20   17.08
   2  -8  -3   87.82   30.40
   2  -8  -3   58.85   17.07
   2  -8  -3   60.09   15.87
   2  -8  -3   50.97   25.33
   2   8  -2  178.18   36.92
  -2   8   2  235.59   44.48
   2   8  -2  227.66   46.79
   2   8  -2  267.95   55.49
  -2   8   2  226.46   49.40
   2  -8  -2  164.26   33.22
   2  -8  -2  207.33   42.73
   2  -8  -2  198.65   40.29
  -2  -8   2  240.34   48.05
   2  -8  -2  206.67   47.79
   2  -8  -2  217.98   47.25
  -2   8   1 7662.42 1176.65
   2   8  -1 7621.44 1177.03
   2   8  -1 5736.15  887.97
  -2   8   1 6941.25 1083.92
  -2   8   1 6903.99 1055.92
   2   8  -1 8110.22 1257.22
  -2   8   1 9888.00 1533.02
   2   8  -1 7176.14 1107.01
   2  -8  -1 7355.42 1131.64
   2  -8  -1 7002.37 1084.66
   2  -8  -1 7658.67 1177.48
   2  -8  -1 4574.94  723.66
   2  -8  -1 8314.30 1276.53
  -2  -8   1 8637.25 1358.75
  -2  -8   1 9114.24 1418.76
   2  -8  -1 5393.11  861.43
  -2  -8   1 8775.85 1356.44
   2  -8  -1 7254.66 1123.87
  -2  -8   1 7613.52 1195.18
   2  -8  -1 6582.00 1019.51
  -2   8   0   61.03   14.54
  -2   8   0   42.09   11.79
   2   8   0   53.28   17.06
  -2   8   0   51.01   16.19
  -2   8   0   51.66   16.68
   2   8   0   38.99   14.42
   2   8   0   30.63   10.74
   2   8   0   37.55   10.98
   2   8   0   97.54   20.71
  -2   8   0  158.16   31.89
  -2  -8   0   41.46   12.53
  -2  -8   0   45.36   16.10
   2  -8   0   38.40   12.43
   2  -8   0  205.24   43.21
   2  -8   0   35.13   10.34
  -2  -8   0   48.62   16.63
   2  -8   0  103.12   23.09
  -2  -8   0   31.06   11.15
  -2  -8   0   44.56   18.02
   2  -8   0   44.23   12.85
  -2  -8   0   37.06   10.23
   2   8   112804.09 1955.23
  -2   8  -112739.95 1943.14
  -2   8  -1 8579.89 1345.26
  -2   8  -111097.79 1694.08
   2   8   110099.78 1554.44
   2  -8   110985.27 1700.44
  -2  -8  -110453.38 1619.48
  -2  -8  -1 7387.73 1168.80
  -2  -8  -111381.47 1749.54
  -2  -8  -110645.77 1648.97
  -2  -8  -111472.14 1779.23
   2  -8   119009.88 2932.69
  -2   8  -2  213.99   43.23
   2   8   2  216.43   44.70
  -2   8  -2  110.65   31.69
  -2   8  -2  208.19   43.38
  -2  -8  -2  183.53   40.06
  -2  -8  -2  169.56   36.78
  -2  -8  -2  166.32   40.60
   2   8   3 2194.55  363.93
  -2   8  -3 1519.52  271.00
  -2   8  -3 1873.15  307.62
  -2   8  -3 1985.66  322.47
  -2  -8  -3 1819.98  305.70
  -2  -8  -3 1557.76  270.09
  -2  -8  -3 1270.16  216.81
   2   8   4  160.28   35.99
  -2   8  -4  106.81   25.93
  -2   8  -4  104.93   28.14
  -2  -8  -4  106.27   33.57
  -2  -8  -4   69.13   25.28
   2  -8   4  174.23   41.99
  -2  -8  -4   76.23   18.24
   2   8   5    3.75   10.12
  -2   8  -5   10.01    9.28
  -2   8  -5    0.11    2.44
  -2  -8  -5    2.04    5.85
  -2  -8  -5    1.66    7.01
  -2   9   5 1556.01  262.13
  -2   9   5 1078.34  184.90
   2  -9  -5  655.28  115.35
   2  -9  -5  648.01  113.22
   2   9  -4    1.06    7.87
   2   9  -4   49.68   16.97
  -2   9   4    4.09   24.54
   2   9  -4    6.54    5.65
   2  -9  -4    3.36    8.08
   2  -9  -4    0.25   13.02
   2  -9  -4    0.64    8.33
   2  -9  -4    2.40    5.49
   2   9  -3 6078.48  952.12
   2   9  -3 6643.38 1054.00
   2   9  -3 4901.84  772.83
  -2   9   3 5158.69  821.86
   2  -9  -3 5696.29  894.57
   2  -9  -3 3994.59  664.13
   2  -9  -3 5687.60  902.23
   2  -9  -3 6652.15 1050.62
   2  -9  -3 5342.97  885.93
   2   9  -2 1666.78  276.73
   2   9  -2 1764.85  300.00
   2   9  -2 1258.77  209.79
  -2   9   2 1371.00  228.13
   2  -9  -2 1430.02  235.89
   2  -9  -2 1288.10  215.29
  -2  -9   2 1763.21  296.63
   2  -9  -2 1544.72  266.67
   2  -9  -2 1550.00  257.73
  -2   9   1 4490.92  712.43
   2   9  -1 5325.19  840.47
   2   9  -1 5111.00  799.07
   2   9  -1 4011.76  630.95
  -2  -9   1 4956.01  791.92
   2  -9  -1 4618.69  726.82
  -2  -9   1 5653.17  894.39
   2  -9  -1 5118.32  800.82
   2  -9  -1 4964.72  786.63
  -2   9   0 2567.52  406.06
  -2   9   0 1995.11  322.51
  -2   9   0 1835.21  297.55
   2   9   0 1757.15  282.55
   2   9   0 1659.72  273.83
   2   9   0 1754.14  280.74
  -2   9   0 1672.43  275.86
  -2   9   0 1678.13  272.45
  -2  -9   0 1995.19  326.77
   2  -9   0 2387.15  389.02
  -2  -9   0 2046.91  338.83
  -2  -9   0 1652.87  276.61
   2  -9   0 1931.59  312.52
  -2  -9   0 1750.57  292.65
  -2  -9   0 1503.32  247.98
  -2   9  -1   31.28   13.09
  -2   9  -1   45.68   13.83
  -2   9  -1  142.39   31.05
   2   9   1   38.69   14.31
  -2  -9  -1   37.19   14.08
   2  -9   1   58.57   14.58
  -2  -9  -1   32.10   11.01
  -2  -9  -1   28.71   13.00
   2  -9   1   68.98   20.36
  -2  -9  -1   39.50   14.96
   2   9   2 2321.22  379.43
  -2   9  -2 2337.14  377.96
  -2   9  -2 2280.10  367.10
  -2   9  -2 1251.26  221.01
  -2  -9  -2 1927.51  322.06
   2  -9   2 4427.47  729.39
  -2  -9  -2 1858.03  312.91
  -2  -9  -2 2043.89  336.88
  -2   9  -3 1534.04  268.52
   2   9   3 1901.33  316.87
  -2   9  -3 1903.65  309.43
  -2   9  -3 1699.32  280.16
  -2  -9  -3  925.19  165.54
  -2  -9  -3 1314.89  234.21
  -2  -9  -3 1754.03  294.40
  -2   9  -4  505.45   91.87
   2   9   4  862.50  149.53
  -2   9  -4  483.12   89.79
  -2  -9  -4  472.74   87.94
   2  -9   4  952.10  170.46
  -2  -9  -4  340.51   71.42
  -2   9  -5  673.26  114.19
  -2  -9  -5  611.47  107.79
  -2  -9  -5  645.01  115.69
  -2  10   5 1275.64  213.19
  -2  10   5 1228.83  204.96
   2  10  -5  119.56   75.73
   2 -10  -5  719.60  123.82
  -2  10   4 4260.80  680.67
   2  10  -4 1725.80  286.75
   2  10  -4 3675.85  590.46
   2 -10  -4 1632.06  297.16
   2 -10  -4 3181.61  515.12
   2 -10  -4 3156.92  508.42
  -2 -10   4 4910.13  814.60
   2  10  -3   11.36    8.74
   2  10  -3   25.36   13.31
   2  10  -3   21.34   14.61
  -2  10   3   20.16   11.73
   2 -10  -3   13.01    9.64
   2 -10  -3   19.84   11.07
   2 -10  -3   11.80   17.49
   2 -10  -3   11.46    7.13
   2  10  -2 7766.23 1211.20
   2  10  -2 7789.70 1224.28
  -2  10   2 4958.26  781.80
   2  10  -2 5661.79  889.70
   2 -10  -2 6411.28 1003.60
   2 -10  -2 7949.38 1243.24
   2 -10  -2 7812.96 1239.32
   2  10  -1 1426.11  241.95
   2  10  -1 1401.21  232.64
  -2  10   1 1292.25  218.37
   2 -10  -1 1227.18  206.26
   2 -10  -1 1443.37  240.36
  -2 -10   1 1494.39  253.02
   2 -10  -1 1675.34  283.50
  -2 -10   1 1496.90  254.21
  -2  10   0 3021.39  477.79
  -2  10   0 2793.74  451.22
  -2  10   0 3508.93  552.98
   2  10   0 2728.19  432.13
   2  10   0 2797.13  451.48
  -2  10   0 2440.67  389.59
  -2 -10   0 3325.72  535.65
   2 -10   0 3858.62  617.60
  -2 -10   0 2622.93  432.84
  -2 -10   0 2817.00  463.24
   2 -10   0 3269.39  520.85
  -2  10  -1 1516.41  256.47
  -2  10  -1 2408.60  386.23
   2  10   1 2291.08  373.80
  -2  10  -1 2388.48  385.29
  -2 -10  -1 2011.61  333.94
   2 -10   1 3387.24  549.49
   2 -10   1 2222.28  365.21
  -2 -10  -1 1875.46  314.95
  -2 -10  -1 1466.61  247.42
  -2 -10  -1 2251.96  370.21
  -2  10  -2  140.21   33.21
   2  10   2  320.33   62.61
  -2  10  -2  172.54   36.80
  -2  10  -2  175.15   37.80
  -2 -10  -2  126.08   31.74
  -2 -10  -2  140.79   36.08
  -2 -10  -2  155.68   34.81
   2 -10   2  295.14   60.53
   2  10   3  485.96   90.28
  -2  10  -3  573.27  101.82
  -2  10  -3  449.43   85.35
  -2  10  -3  499.78   91.15
  -2 -10  -3  363.26   73.36
  -2 -10  -3  520.11  102.47
  -2 -10  -3  277.34   55.94
  -2  10  -4  864.96  148.19
  -2 -10  -4  881.40  153.01
   2 -10   4 1727.55  291.65
  -2 -10  -4  725.16  131.69
  -2  11   4  504.48   92.44
   2  11  -4  588.48  107.08
   2  11  -4  172.74   39.56
   2 -11  -4  205.92   47.42
   2 -11  -4  375.37   71.00
  -2 -11   4  430.19   83.24
   2 -11  -4  293.48   54.91
   2  11  -3   33.28   13.86
  -2  11   3   36.83   13.71
   2  11  -3   25.40   18.93
  -2 -11   3   47.00   19.17
   2 -11  -3   29.06   19.66
   2 -11  -3   34.41   13.68
   2 -11  -3   27.56    9.18
   2 -11  -3   34.52   12.97
   2  11  -2 1089.91  190.77
  -2  11   2  956.16  163.37
   2  11  -2 1064.17  180.72
   2 -11  -2 1139.92  203.27
   2 -11  -2 1205.41  205.98
  -2 -11   2 1363.01  238.12
   2 -11  -2 1009.84  172.55
   2  11  -1   32.98   15.85
   2  11  -1   33.23   11.01
  -2  11   1   31.15   12.88
  -2 -11   1  119.64   30.47
   2 -11  -1   39.68   18.68
  -2 -11   1   39.06   14.72
   2 -11  -1   57.13   18.19
   2 -11  -1   28.80   10.08
  -2  11   0 7972.08 1269.37
   2  11   0 7196.25 1128.59
  -2  11   0 8733.08 1349.22
   2 -11   0 8547.87 1333.73
  -2 -11   0 7257.06 1161.84
   2 -11   0 7077.69 1133.72
   2 -11   0 9541.79 1490.05
  -2 -11   0 9003.83 1410.25
  -2 -11   0 6331.27 1028.25
  -2  11  -1  121.65   28.61
   2  11   1  210.72   45.11
  -2  11  -1  213.42   43.09
  -2  11  -1  206.45   42.44
  -2 -11  -1  201.79   44.92
  -2 -11  -1  162.09   36.55
   2 -11   1  194.35   39.80
  -2 -11  -1  128.21   29.06
  -2 -11  -1  148.98   31.91
   2 -11   1  267.88   55.97
   2  11   2 5211.98  830.52
  -2  11  -2 4892.87  772.10
  -2  11  -2 4766.12  751.42
  -2 -11  -2 4022.61  649.29
  -2 -11  -2 4163.90  676.59
  -2 -11  -2 3835.05  627.34
   2 -11   2 6575.70 1083.97
   2  11   3  104.91   24.81
  -2  11  -3  109.20   26.11
  -2 -11  -3   74.38   18.96
  -2 -11  -3  107.55   26.69
   2 -11   3  189.59   46.03
  -2 -11  -3   91.94   25.19
  -2  11  -4  499.38   86.95
  -2 -11  -4  541.95   96.53
  -2 -11  -4  383.46   70.42
   2 -11   4 1019.34  176.82
  -2  12   4 1994.90  327.46
   2  12  -4 1048.62  173.58
   2  12  -4  646.97  107.98
   2 -12  -4 1328.25  221.99
   2 -12  -4  736.85  143.78
   2 -12  -4  613.44  118.65
   2  12  -3  194.09   41.79
  -2  12   3  207.50   42.82
   2  12  -3  124.18   29.28
   2 -12  -3  165.65   43.73
   2 -12  -3  203.43   43.36
   2 -12  -3  186.92   39.32
  -2 -12   3  224.19   49.42
  -2  12   2 2578.22  420.71
   2  12  -2 2508.67  412.32
   2  12  -2 2500.39  403.29
   2 -12  -2 3060.68  496.80
  -2 -12   2 3237.95  536.51
   2 -12  -2 2837.38  471.84
   2 -12  -2 2506.55  410.90
   2  12  -1 1232.43  204.10
   2  12  -1 1403.88  239.34
  -2  12   1 1533.80  252.12
  -2  12   1 1491.96  253.19
  -2 -12   1 1475.78  252.52
   2 -12  -1 1556.67  261.29
   2 -12  -1 1686.14  287.89
  -2 -12   1 1512.45  261.97
   2  12   0  346.16   68.63
  -2  12   0  487.80   88.54
  -2  12   0  289.89   57.18
  -2 -12   0  316.25   66.44
   2 -12   0  481.11   88.23
  -2 -12   0  365.68   73.00
   2 -12   0  270.51   53.72
   2 -12   0  386.32   80.86
  -2  12  -1 2232.67  360.69
   2  12   1 2392.44  392.07
  -2 -12  -1 1477.40  253.99
  -2 -12  -1 2127.89  353.13
  -2 -12  -1 1444.25  244.85
  -2 -12  -1 1656.57  283.80
   2 -12   1 2056.83  344.59
   2 -12   1 2627.71  433.17
   2  12   2  830.75  145.49
  -2  12  -2  801.72  138.68
  -2 -12  -2  657.04  118.64
  -2 -12  -2  540.19  102.29
  -2 -12  -2  582.54  104.99
   2 -12   2  868.00  156.89
  -2  12  -3 1104.18  184.20
  -2 -12  -3  769.99  137.42
  -2 -12  -3 1108.69  187.73
  -2 -12  -3  965.94  167.96
   2 -12   3 2057.42  344.64
  -2  12  -4  740.33  124.33
   2 -12   4 1270.55  217.02
  -2 -12  -4  621.26  107.34
  -2 -12  -4  550.70   95.27
  -2  13   3 4243.58  677.83
   2  13  -3 2563.46  411.64
   2  13  -3 2396.04  381.18
  -2 -13   3 3811.66  633.67
   2 -13  -3 3355.36  548.09
   2 -13  -3 3347.80  541.18
   2  13  -2   64.55   20.32
  -2  13   2   55.89   15.63
   2  13  -2   48.46   14.89
   2 -13  -2   54.13   28.10
  -2 -13   2   58.94   19.74
   2 -13  -2   54.82   18.59
   2  13  -1 2205.36  353.86
  -2  13   1 2362.02  378.96
   2  13  -1 2279.25  373.88
  -2  13   1 2561.54  411.50
   2 -13  -1 2891.43  476.24
   2 -13  -1 2752.74  447.86
  -2 -13   1 2543.62  419.88
  -2 -13   1 2475.95  414.49
  -2  13   0  302.85   55.55
   2  13   0  420.96   79.84
  -2 -13   0  278.56   55.84
   2 -13   0  433.17   86.21
   2 -13   0  326.63   62.76
  -2 -13   0  338.96   66.78
  -2  13  -1   33.26   11.00
   2  13   1   32.69   12.88
   2 -13   1   41.59   22.08
   2 -13   1   32.29   13.44
  -2 -13  -1   19.29    8.88
  -2 -13  -1   27.63   13.23
  -2 -13  -1   24.10    9.18
   2  13   2  244.37   48.50
  -2  13  -2  236.48   46.83
  -2 -13  -2  168.73   35.59
  -2 -13  -2  202.73   42.40
  -2 -13  -2  175.64   36.30
   2 -13   2  271.67   57.80
   2 -13   2  310.82   64.33
  -2  13  -3  521.46   90.71
  -2 -13  -3  508.10   90.77
  -2 -13  -3  555.81  101.60
  -2 -13  -3  412.49   76.38
   2 -13   3 1003.06  178.98
   2  14  -3   14.39    7.64
  -2  14   3    6.08    4.78
   2  14  -3    9.28    6.01
  -2  14   3    8.79    8.29
   2 -14  -3    6.08    9.74
  -2 -14   3    7.84    7.24
   2 -14  -3    9.27    7.29
   2  14  -2  170.16   38.23
   2  14  -2  128.85   25.94
  -2  14   2  171.18   35.08
  -2  14   2  208.44   41.51
   2 -14  -2  200.09   47.64
   2 -14  -2  181.32   42.90
  -2 -14   2  208.97   43.81
   2  14  -1 2393.63  388.95
   2  14  -1 1672.28  265.82
   2 -14  -1 2630.43  443.63
  -2 -14   1 2419.43  397.34
  -2 -14   1 2306.72  386.80
   2 -14  -1 2685.11  436.22
   2  14   0  143.52   34.49
   2 -14   0  132.61   29.40
  -2 -14   0  130.82   29.91
  -2 -14   0  125.73   29.86
   2 -14   0  153.90   37.83
   2  14   1 5173.78  821.63
  -2  14  -1 4422.23  695.41
   2 -14   1 5948.09  961.23
  -2 -14  -1 4590.13  737.84
  -2 -14  -1 4806.24  770.95
   2 -14   1 5107.90  827.35
  -2  14  -2   64.38   15.71
  -2 -14  -2   77.35   23.09
   2 -14   2  107.16   29.22
  -2  15   2  526.10   89.40
   2  15  -2  462.32   81.50
   2  15  -2  386.81   66.41
  -2 -15   2  554.86   99.11
   2 -15  -2  601.99  113.76
   2 -15  -2  546.81   97.46
   2  15  -1 1337.25  222.26
  -2 -15   1 1219.30  205.79
  -2 -15   1 1028.05  181.26
   2 -15  -1 1339.81  224.01
   2 -15  -1 1298.06  230.73
   2  15   0 1627.20  266.41
   2 -15   0 1752.45  296.70
  -2 -15   0 1544.44  257.64
   2 -15   0 1497.31  248.76
  -2 -15   0 1291.50  217.27
   2  15   1    8.81    6.82
  -2 -15  -1   16.08   14.86
  -2 -15  -1    6.44    6.94
   2 -15   1   10.36    6.78
   2 -15   1   12.36    9.31
  -2 -15  -2 1571.60  258.41
   2 -15   2 2339.20  388.33
   2  16  -1   52.48   16.27
   2 -16  -1   68.40   21.85
  -2 -16   1   54.35   15.67
   2 -16  -1   53.76   14.79
   2  16   0  720.92  120.79
  -2 -16   0  769.10  132.86
   2 -16   0  716.24  126.59
  -2 -16   0  616.25  105.47
   3   0  -6 2852.34  475.31
   3   0  -6 2839.73  459.11
   3   0  -5    4.26    7.04
   3   0  -5    0.37   17.49
  -3   0   5    4.41    9.34
   3   0  -4 1655.86  274.00
   3   0  -4 1498.23  248.44
   3   0  -4 1821.82  298.00
   3   0  -4 1555.29  267.78
  -3   0   3    1.45    3.24
   3   0  -3    3.35    6.29
   3   0  -3    0.56    3.42
   3   0  -3    1.65    3.25
   3   0  -3    1.78    6.77
   3   0  -3   29.38   13.55
   3   0  -3    2.96    4.03
  -3   0   3    0.00    8.42
   3   0  -2  593.16  104.02
  -3   0   2  692.32  120.30
   3   0  -2  580.53   99.96
   3   0  -2  683.28  120.79
  -3   0   2  675.59  117.03
  -3   0   2  985.61  161.41
  -3   0   2  793.57  132.34
   3   0  -2  680.24  114.75
   3   0  -2  601.14   99.91
  -3   0   1    3.75    8.87
   3   0  -1   14.98   11.45
  -3   0   1    4.74    7.82
  -3   0   1    1.26    7.14
   3   0  -1    2.15    3.52
  -3   0   1   46.68   15.73
  -3   0   1   -0.00    6.65
   3   0  -1    5.16    4.89
   3   0  -1    1.87    7.43
   3   0  -1    7.18    6.57
   3   0  -1    1.10    8.47
   3   0   0    5.29    5.25
  -3   0   0    7.37    6.81
  -3   0   0    9.60    7.99
  -3   0   0   18.61    8.86
   3   0   0   15.01    9.71
  -3   0   0    7.92    7.97
  -3   0   0   31.68    9.35
   3   0   0    9.18    8.69
   3   0   0   19.38   11.38
  -3   0   0    7.95    8.04
   3   0   0   13.90    7.52
  -3   0   0   10.46    9.49
  -3   0   0    7.65    9.73
   3   0   0   10.03    6.91
   3   0   0    8.96    5.77
  -3   0  -1    6.77    5.30
  -3   0  -1    2.61    7.07
   3   0   1   13.58    8.28
   3   0   1    6.15    6.94
  -3   0  -1    3.09    6.85
   3   0   1    2.58    5.02
  -3   0  -1    0.27    7.38
  -3   0  -1    0.41    8.02
  -3   0  -1    0.54    9.65
   3   0   1    5.72   15.42
  -3   0  -1    4.15    6.62
   3   0   1    4.03    6.06
   3   0   2 4222.85  660.53
   3   0   2 3452.59  544.72
  -3   0  -2 2853.30  469.35
  -3   0  -2 2817.87  438.41
  -3   0  -2 3482.49  551.41
   3   0   2 4352.04  679.45
  -3   0  -2 2989.55  482.38
  -3   0  -2 3138.73  501.93
  -3   0  -2 3924.49  615.16
   3   0   2 5122.29  810.85
  -3   0  -3    2.33    9.83
  -3   0  -3   15.49   15.70
  -3   0  -3    0.37    7.35
  -3   0  -3    0.16    9.63
   3   0   4 8401.15 1335.64
  -3   0  -4 4778.18  777.41
  -3   0  -4 5785.79  944.87
  -3   0  -5    0.92   11.85
  -3   0  -5    1.58   15.02
   3   0   5    6.63   16.79
   3   1  -6  279.15   55.63
   3   1  -6  284.11   58.58
   3  -1  -6  317.79   61.36
   3  -1  -6  325.58   67.98
   3   1  -5  821.56  147.67
   3   1  -5  719.95  124.29
  -3   1   5 1323.50  241.32
   3  -1  -5  784.26  140.56
   3  -1  -5  729.79  127.24
   3   1  -4  232.61   49.05
   3   1  -4  251.47   52.05
   3  -1  -4 1303.66  228.43
   3  -1  -4  228.17   47.18
   3  -1  -4  221.41   45.08
   3  -1  -4  250.99   50.60
   3   1  -3   42.42   10.97
   3   1  -3   43.86   16.20
   3   1  -3   48.24   14.90
   3   1  -3   45.80   12.72
  -3   1   3   49.94   16.19
   3   1  -3   41.39   10.15
   3   1  -3   53.28   17.52
   3  -1  -3   56.13   16.17
   3  -1  -3   47.49   12.70
   3  -1  -3   45.36   11.95
   3  -1  -3   45.75   14.13
   3  -1  -3   41.02   10.13
   3  -1  -3   50.68   18.75
   3   1  -2  109.44   28.61
  -3   1   2   96.02   27.48
   3   1  -2   92.98   19.32
   3   1  -2   92.26   17.06
   3   1  -2   92.95   22.65
   3   1  -2   73.91   20.24
  -3   1   2  178.15   36.50
   3   1  -2   74.54   17.59
  -3   1   2  355.91   67.67
  -3   1   2  100.53   24.10
   3  -1  -2   93.91   21.19
   3  -1  -2   90.53   20.94
  -3  -1   2  111.38   27.34
   3  -1  -2  481.72   89.21
   3  -1  -2   89.73   19.48
  -3  -1   2  113.52   29.91
   3  -1  -2   82.14   20.31
  -3   1   1  588.62  101.32
  -3   1   1  602.11  100.64
   3   1  -1  403.10   70.21
   3   1  -1  366.51   65.70
   3   1  -1  743.52  124.80
  -3   1   1  376.50   65.95
   3   1  -1  436.64   79.10
   3   1  -1  389.10   69.19
   3   1  -1  361.25   65.29
  -3   1   1  443.62   80.20
  -3   1   1  393.44   68.62
  -3   1   1  476.01   83.79
  -3   1   1  587.72  101.05
  -3  -1   1  611.26  105.25
   3  -1  -1  432.38   77.65
  -3  -1   1  449.61   77.63
   3  -1  -1  492.22   92.31
   3  -1  -1  374.60   59.25
  -3  -1   1  489.01   88.77
   3  -1  -1  498.14   87.83
  -3  -1   1  395.47   72.50
  -3  -1   1  473.88   84.32
   3  -1  -1  434.98   76.35
   3   1   0  857.22  142.90
  -3   1   0 1196.06  193.43
  -3   1   0  876.10  143.07
  -3   1   0 1152.01  186.75
  -3   1   0  899.57  147.20
  -3   1   0  834.66  135.20
  -3   1   0 1007.67  162.22
   3   1   0  961.14  160.51
   3   1   0  849.67  141.01
   3   1   0  946.55  154.67
   3   1   0  901.47  148.93
   3   1   0 1172.57  188.91
  -3   1   0 1093.00  178.90
  -3   1   0  902.60  145.21
  -3   1   0 1015.51  164.87
   3   1   0  967.03  158.09
   3   1   0 1159.90  184.75
   3  -1   0  758.74  125.30
  -3  -1   0 1053.95  172.53
  -3  -1   0 1036.75  167.93
  -3  -1   0  951.89  157.01
  -3  -1   0 1076.11  175.68
   3  -1   0  993.91  162.74
   3  -1   0  995.84  164.16
   3  -1   0 1100.13  187.27
   3  -1   0  843.12  136.03
  -3  -1   0 1134.48  184.95
  -3  -1   0 1122.03  185.17
  -3   1  -1 1321.18  217.13
  -3   1  -1 1094.76  176.01
   3   1   1 1175.67  192.27
   3   1   1 1336.39  216.17
   3   1   1 1415.95  230.77
   3   1   1 1230.68  199.30
   3   1   1 1075.20  176.81
  -3   1  -1  712.13  127.02
   3   1   1 1504.70  241.07
  -3   1  -1 1483.08  243.94
  -3   1  -1 1270.34  204.67
  -3   1  -1 1439.90  227.58
  -3   1  -1 1264.40  206.76
  -3  -1  -1 1479.33  239.21
  -3  -1  -1 1156.50  190.24
  -3  -1  -1 1232.37  203.46
   3  -1   1 1131.11  183.60
  -3  -1  -1 1202.19  195.36
   3  -1   1 1767.70  284.63
   3  -1   1 1734.15  278.62
  -3  -1  -1 2163.87  350.28
  -3  -1  -1 1079.76  187.16
  -3  -1  -1 1034.79  175.51
   3  -1   1 1180.43  192.30
   3  -1   1 1559.72  253.37
  -3   1  -2 1370.36  236.34
  -3   1  -2 1668.25  270.26
  -3   1  -2  910.91  145.26
   3   1   2 2171.23  355.09
   3   1   2 1928.94  310.01
   3   1   2 1790.12  290.03
  -3   1  -2 1438.60  228.91
  -3   1  -2 1273.93  216.15
   3   1   2 1433.50  235.48
  -3   1  -2 1430.23  240.01
  -3  -1  -2 1485.39  237.11
   3  -1   2 2092.76  336.85
  -3  -1  -2 1344.13  229.21
  -3  -1  -2 1935.78  313.50
  -3  -1  -2 1478.35  244.69
   3  -1   2 1792.75  291.03
   3  -1   2 1622.61  264.56
  -3  -1  -2 1667.82  276.60
   3  -1   2 2440.91  394.66
  -3  -1  -2 1769.00  282.26
  -3  -1  -2 1468.87  245.06
   3   1   3 2025.91  336.80
  -3   1  -3 1280.84  224.44
  -3   1  -3 1579.78  274.26
  -3   1  -3 1730.86  284.57
  -3   1  -3 1292.55  224.32
  -3  -1  -3 1407.55  244.27
  -3  -1  -3 1271.47  207.56
  -3  -1  -3 1348.72  229.19
  -3  -1  -3 1350.21  227.49
  -3  -1  -3 1401.56  244.54
  -3   1  -4    4.97   10.21
  -3   1  -4   39.30   20.25
  -3   1  -4    0.67   15.34
   3   1   4    1.28   19.88
  -3  -1  -4    1.37   19.29
  -3  -1  -4   16.51   10.22
  -3  -1  -4   16.58   18.16
  -3   1  -5 1169.10  212.30
   3   1   5 3479.18  575.48
  -3   1  -5 1411.05  247.95
   3  -1   5 3385.30  560.63
  -3  -1  -5  772.14  149.40
  -3  -1  -5 1624.23  278.75
   3   2  -6  114.31   26.07
   3  -2  -6  179.99   42.85
   3  -2  -6  163.79   36.17
  -3   2   5   62.97   26.35
   3   2  -5   33.84   14.86
   3   2  -5   28.91   10.46
   3  -2  -5   30.47   14.15
   3  -2  -5   32.41   17.88
   3   2  -4  482.90   89.22
   3   2  -4  421.32   74.90
   3   2  -4  414.32   78.87
   3  -2  -4  511.04   93.30
   3  -2  -4  309.19   66.94
   3  -2  -4  555.91  100.17
   3  -2  -4  467.75   86.65
   3   2  -3  124.48   27.48
   3   2  -3  126.37   31.12
   3   2  -3  120.23   26.86
  -3   2   3  144.37   32.32
  -3   2   3  138.57   37.61
   3   2  -3  118.86   23.69
   3  -2  -3  146.66   31.98
   3  -2  -3  136.53   29.08
   3  -2  -3  117.56   26.23
   3  -2  -3  119.31   24.26
   3  -2  -3  112.23   24.23
   3  -2  -3  123.99   31.91
   3   2  -2  336.46   58.07
   3   2  -2  317.07   58.30
   3   2  -2  332.07   62.39
   3   2  -2  281.88   55.32
  -3   2   2  327.67   59.87
  -3   2   2  298.62   55.49
   3   2  -2  297.78   52.99
   3   2  -2  323.16   58.99
  -3   2   2  353.88   70.01
  -3   2   2  751.52  131.29
   3  -2  -2  260.20   50.57
   3  -2  -2  313.66   56.92
   3  -2  -2  327.40   57.61
  -3  -2   2  355.95   70.81
   3  -2  -2  317.61   56.38
  -3  -2   2  326.04   61.88
   3  -2  -2  323.85   57.86
   3  -2  -2  358.25   69.46
  -3   2   1  702.63  117.73
   3   2  -1  460.41   82.42
  -3   2   1  463.10   80.13
   3   2  -1  424.76   77.80
   3   2  -1  451.23   80.50
  -3   2   1  670.96  113.95
  -3   2   1  485.63   83.62
  -3   2   1  521.97   89.51
  -3   2   1  502.83   85.66
   3   2  -1  480.13   83.97
  -3   2   1  507.67   89.58
  -3   2   1  596.74  101.64
   3   2  -1  473.33   83.35
   3  -2  -1  450.38   80.45
   3  -2  -1  526.74   88.60
  -3  -2   1  594.80  106.56
  -3  -2   1  438.05   79.62
   3  -2  -1  528.74   91.13
  -3  -2   1  451.14   77.04
   3  -2  -1  545.55   96.48
   3  -2  -1  491.19   84.74
  -3  -2   1  528.64   90.99
  -3  -2   1  568.47   99.58
   3   2   0    5.06    7.43
   3   2   0    6.42    4.62
   3   2   0    5.36    5.94
  -3   2   0    6.93    8.07
   3   2   0    8.50    8.19
  -3   2   0   12.18    8.83
  -3   2   0    6.87    8.34
   3   2   0   24.11    9.80
  -3   2   0    8.16    7.08
   3   2   0    5.48    7.78
   3   2   0   13.82   15.14
  -3   2   0    7.19    7.47
  -3   2   0    5.51    9.48
   3   2   0    7.37    3.49
  -3   2   0    8.12    5.22
  -3   2   0    7.47    3.82
  -3  -2   0    5.95    8.35
   3  -2   0    6.61    6.53
  -3  -2   0    7.09   11.58
   3  -2   0    7.98    8.71
  -3  -2   0    5.38    7.25
  -3  -2   0    6.80    7.08
  -3  -2   0    7.39    9.28
   3  -2   0    8.00    6.15
   3  -2   0    5.66    4.19
  -3  -2   0    6.34    7.55
  -3  -2   0    7.05   14.52
   3  -2   0    7.36    7.17
   3  -2   0    9.64   11.45
   3   2   1 4814.76  746.93
   3   2   1 4734.66  729.89
  -3   2  -1 3951.34  610.87
   3   2   1 4908.10  754.91
  -3   2  -1 4805.55  748.98
   3   2   1 4332.97  676.22
   3   2   1 4125.77  639.99
  -3   2  -1 5265.91  818.18
  -3   2  -1 4836.91  742.54
   3   2   1 5117.35  790.47
  -3   2  -1 5046.53  787.63
  -3   2  -1 4652.52  718.34
   3   2   1 4007.08  627.31
  -3   2  -1 4331.88  660.93
   3  -2   1 4309.10  669.83
  -3  -2  -1 2950.71  479.39
  -3  -2  -1 4228.79  658.75
   3  -2   1 5711.74  883.04
   3  -2   1 6406.41  985.61
   3  -2   1 4185.00  648.13
  -3  -2  -1 4021.25  629.00
  -3  -2  -1 4993.29  754.59
  -3  -2  -1 6847.93 1061.34
  -3  -2  -1 4710.16  734.29
  -3  -2  -1 3691.74  581.06
  -3   2  -2  700.70  127.45
   3   2   2  605.50  107.21
   3   2   2  981.11  165.27
  -3   2  -2  775.08  132.15
  -3   2  -2  593.46  112.20
   3   2   2  860.81  144.67
   3   2   2  857.10  148.63
  -3   2  -2  502.99   93.23
   3   2   2  609.88  104.25
  -3  -2  -2  984.46  164.61
  -3  -2  -2  715.05  128.24
  -3  -2  -2  578.45  105.73
  -3  -2  -2  703.59  117.79
  -3  -2  -2  678.71  120.14
   3  -2   2  986.74  167.90
  -3  -2  -2  628.85  109.77
   3  -2   2 1168.90  196.05
   3  -2   2  736.74  126.45
  -3   2  -3 1050.19  178.17
  -3   2  -3  773.08  143.43
  -3   2  -3 1016.61  183.72
   3   2   3 1410.88  243.03
  -3  -2  -3  778.31  142.99
  -3  -2  -3  837.65  149.39
   3  -2   3 1628.75  274.84
  -3  -2  -3  893.90  156.82
  -3  -2  -3  880.19  158.30
  -3   2  -4 1034.86  190.00
  -3   2  -4  666.99  129.51
  -3   2  -4 1141.81  195.54
   3   2   4 1872.24  324.23
  -3  -2  -4  744.64  142.13
  -3  -2  -4  789.08  142.09
  -3  -2  -4  708.22  135.98
  -3   2  -5  359.69   74.53
  -3   2  -5  338.49   72.38
   3   2   5  993.72  184.07
  -3  -2  -5  463.88   89.38
  -3  -2  -5  243.18   55.16
   3  -2   5  806.80  150.17
  -3   3   6  290.42   67.14
   3  -3  -6  135.58   35.26
   3  -3  -6  128.88   30.20
   3   3  -5 1723.63  300.91
  -3   3   5 3876.31  662.36
   3  -3  -5 1588.23  264.54
   3  -3  -5 1739.85  291.58
   3   3  -4   14.12    9.50
   3   3  -4   17.53    6.36
   3   3  -4   21.43   10.91
  -3   3   4   41.78   23.16
   3  -3  -4   16.33   12.38
   3  -3  -4   15.43   13.77
   3  -3  -4   20.68   18.59
   3  -3  -4   12.40    5.73
   3   3  -3  128.16   28.90
  -3   3   3  299.64   63.77
   3   3  -3  141.07   26.99
  -3   3   3  133.03   39.02
   3   3  -3  117.81   27.84
   3   3  -3  119.72   27.43
  -3   3   3  146.02   33.09
   3  -3  -3  119.41   27.47
   3  -3  -3  117.54   24.68
   3  -3  -3  129.20   33.57
   3  -3  -3  147.37   37.85
   3  -3  -3  142.81   31.85
  -3   3   2   15.83   13.35
  -3   3   2    6.47    7.61
   3   3  -2    7.09    8.49
  -3   3   2   13.45    9.64
   3   3  -2    6.15    7.44
   3   3  -2    8.46    4.10
  -3   3   2    7.73    6.71
   3   3  -2    7.87    5.01
   3   3  -2   10.07    8.45
   3   3  -2   12.44    6.25
   3  -3  -2    9.23   11.52
   3  -3  -2   11.06    6.76
   3  -3  -2    7.82    5.80
   3  -3  -2   10.26    7.84
   3  -3  -2   17.90    8.19
   3  -3  -2    4.07    5.90
   3  -3  -2   27.26    9.33
  -3  -3   2    8.32   14.15
   3   3  -1   57.34   15.51
  -3   3   1   74.25   18.20
  -3   3   1   65.16   17.28
  -3   3   1   65.94   16.67
  -3   3   1   96.20   22.76
   3   3  -1   57.91   16.66
  -3   3   1   67.43   14.99
  -3   3   1   64.53   20.16
   3   3  -1   61.86   16.70
   3   3  -1   61.80   16.31
   3   3  -1   37.97   12.07
  -3   3   1   64.14   16.48
   3   3  -1   54.79   21.54
   3  -3  -1   78.48   18.58
  -3  -3   1   73.67   25.37
   3  -3  -1   44.23    9.51
   3  -3  -1   63.84   15.77
  -3  -3   1   65.84   20.65
   3  -3  -1   61.45   16.73
   3  -3  -1   62.99   14.00
   3  -3  -1   65.25   16.63
   3  -3  -1   75.22   20.83
  -3  -3   1   86.03   23.75
   3   3   0   71.16   16.92
   3   3   0   78.38   19.17
  -3   3   0   88.13   21.75
  -3   3   0   79.65   15.10
  -3   3   0  113.21   22.22
  -3   3   0   87.83   19.46
   3   3   0   89.05   20.77
   3   3   0   87.76   20.72
   3   3   0   88.82   20.96
  -3   3   0   84.36   20.57
  -3   3   0   96.55   22.37
  -3   3   0   82.92   18.83
   3   3   0  107.22   25.02
   3   3   0   88.49   18.68
   3   3   0  104.48   18.52
  -3   3   0  107.23   24.06
  -3   3   0   77.02   18.15
   3  -3   0   69.52   16.40
   3  -3   0   93.43   22.09
  -3  -3   0   91.82   22.26
  -3  -3   0   89.56   21.45
  -3  -3   0   96.28   23.82
   3  -3   0   83.65   17.20
  -3  -3   0   87.30   20.21
  -3  -3   0  100.74   22.87
  -3  -3   0   64.27   15.02
  -3  -3   0   86.64   21.79
   3  -3   0   63.62   20.73
   3  -3   0  105.14   21.87
   3  -3   0   85.75   19.40
   3   3   1  963.98  163.22
  -3   3  -1  782.84  130.26
  -3   3  -1  794.37  135.52
   3   3   1  806.34  138.96
  -3   3  -1  766.25  129.54
   3   3   1  827.68  139.69
  -3   3  -1  666.72  110.41
  -3   3  -1  830.60  144.86
   3   3   1  666.37  112.16
   3   3   1  621.24  105.83
   3   3   1  660.31  111.29
   3   3   1  884.33  145.34
   3  -3   1  596.20  103.06
   3  -3   1  675.83  112.81
  -3  -3  -1  626.16  108.49
  -3  -3  -1  569.06   96.21
   3  -3   1  685.26  115.63
   3  -3   1  966.32  161.54
  -3  -3  -1  530.00   92.98
  -3  -3  -1  429.37   82.65
   3  -3   1  767.71  132.68
  -3  -3  -1  759.28  128.89
  -3  -3  -1  838.93  143.34
  -3  -3  -1  904.00  152.08
  -3  -3  -1  743.99  120.19
   3   3   2   49.28   16.27
   3   3   2   63.52   18.33
  -3   3  -2   36.15   13.19
   3   3   2   77.97   22.96
   3   3   2   65.41   17.01
   3   3   2   51.18   13.91
  -3   3  -2   57.68   16.86
   3   3   2   66.28   17.34
  -3   3  -2   57.49   20.44
  -3   3  -2   62.35   23.25
  -3   3  -2   93.98   23.08
  -3  -3  -2   54.43   13.68
   3  -3   2   86.62   24.16
  -3  -3  -2  107.33   23.84
  -3  -3  -2   92.84   24.49
  -3  -3  -2   50.65   16.92
  -3  -3  -2   41.95   15.14
  -3  -3  -2   45.66   18.66
   3  -3   2   65.99   19.58
   3  -3   2   88.01   22.65
   3   3   310248.20 1611.00
  -3   3  -3 4366.33  717.77
  -3   3  -3 7625.73 1204.94
  -3   3  -3 5873.61  921.21
  -3  -3  -3 5344.59  859.43
   3  -3   310781.44 1688.67
  -3  -3  -3 4984.40  799.37
  -3  -3  -3 5570.76  889.39
  -3  -3  -3 5624.88  906.88
   3   3   4  121.78   37.94
  -3   3  -4   46.81   22.88
  -3   3  -4   77.87   23.20
  -3   3  -4   82.33   26.62
  -3  -3  -4   65.26   20.30
  -3  -3  -4   55.50   22.27
  -3  -3  -4   48.51   17.37
  -3  -3  -4   49.31   22.62
  -3   3  -5 2777.13  472.51
   3   3   5 9846.70 1603.39
  -3   3  -5 3643.54  588.30
   3  -3   5 6469.56 1035.85
  -3  -3  -5 3418.36  560.05
  -3  -3  -5 2767.05  461.82
  -3   4   6 1358.96  249.27
   3  -4  -6  580.36  109.17
   3  -4  -6  528.90   96.60
   3   4  -5   23.32   10.17
  -3   4   5   62.65   32.57
   3  -4  -5   22.81   15.86
   3  -4  -5   20.98   12.79
  -3   4   4 3711.14  617.82
   3   4  -4 1397.69  237.52
   3   4  -4 1366.15  237.50
   3   4  -4 1226.36  211.31
   3  -4  -4 1223.62  206.08
   3  -4  -4 1281.92  213.71
   3  -4  -4 1117.43  206.65
   3  -4  -4 1296.13  217.56
  -3   4   3 1658.79  284.36
   3   4  -3  754.18  131.66
   3   4  -3  671.21  118.28
   3   4  -3  646.03  115.86
   3  -4  -3  741.03  128.27
   3  -4  -3  613.72  107.27
   3  -4  -3  813.03  138.77
   3  -4  -3  667.32  113.75
   3  -4  -3  629.64  108.36
   3  -4  -3  715.93  136.29
   3   4  -2   90.16   21.97
   3   4  -2   85.59   20.98
  -3   4   2  220.92   49.13
  -3   4   2  106.10   25.14
  -3   4   2   96.95   24.98
   3   4  -2   80.45   20.03
   3   4  -2   90.02   27.73
   3   4  -2   85.94   20.49
  -3   4   2  102.28   24.17
   3  -4  -2  188.41   37.40
  -3  -4   2  111.85   37.83
   3  -4  -2  107.77   24.03
   3  -4  -2  103.81   23.02
   3  -4  -2  131.43   32.83
   3  -4  -2   58.64   16.22
   3  -4  -2   97.05   21.36
   3  -4  -2   93.39   20.83
   3   4  -1   41.18   13.35
   3   4  -1   93.73   21.31
   3   4  -1   54.67   15.38
   3   4  -1   38.44   13.29
  -3   4   1   53.55   15.29
  -3   4   1   48.80   14.41
  -3   4   1   58.56   13.13
  -3   4   1   40.09   11.52
  -3   4   1   49.78   13.97
  -3   4   1   48.65   13.60
  -3   4   1   27.00   11.17
  -3   4   1   70.36   19.24
   3   4  -1   39.45   11.22
   3   4  -1   46.01   13.53
   3  -4  -1   39.41    9.59
   3  -4  -1   36.58    9.49
   3  -4  -1   30.13    9.17
   3  -4  -1   46.84   14.76
   3  -4  -1   49.89   18.46
  -3  -4   1   53.60   18.51
   3  -4  -1   44.01   12.61
  -3  -4   1   58.01   17.34
   3  -4  -1   32.63    7.99
   3   4   0  497.13   86.76
  -3   4   0  427.68   74.44
   3   4   0  408.69   69.90
  -3   4   0  588.00  100.75
   3   4   0  503.19   87.35
  -3   4   0  472.83   82.65
   3   4   0  570.15  100.09
  -3   4   0  507.27   90.17
  -3   4   0  414.39   66.92
  -3   4   0  440.99   76.51
  -3   4   0  464.29   78.19
   3   4   0  445.68   81.33
  -3   4   0  427.50   78.49
   3   4   0  468.42   85.50
   3  -4   0  490.89   84.25
  -3  -4   0  455.28   81.09
  -3  -4   0  581.90  102.07
   3  -4   0  465.17   78.36
  -3  -4   0  447.33   78.08
   3  -4   0  375.29   72.10
   3  -4   0  409.51   70.77
  -3  -4   0  408.49   73.23
   3  -4   0  543.80   94.23
  -3  -4   0  557.65   98.24
   3  -4   0  512.00   87.85
  -3  -4   0  511.08   90.17
   3   4   1 2322.73  368.04
   3   4   1 2607.39  409.77
  -3   4  -1 2317.71  364.48
   3   4   1 3141.25  497.75
  -3   4  -1 2802.59  447.40
   3   4   1 2774.97  438.54
   3   4   1 2978.10  464.17
  -3   4  -1 2828.23  443.63
   3   4   1 2187.21  348.19
  -3   4  -1 2995.57  475.72
  -3   4  -1 1393.49  235.61
  -3   4  -1 3110.39  498.03
   3   4   1 3149.23  496.06
   3  -4   1 2217.71  357.44
  -3  -4  -1 2940.26  466.70
   3  -4   1 2398.27  378.04
  -3  -4  -1 2064.43  332.53
  -3  -4  -1 2510.61  399.75
  -3  -4  -1 3368.52  530.54
  -3  -4  -1 2951.55  465.47
   3  -4   1 3678.50  576.66
  -3  -4  -1 1745.63  289.03
  -3  -4  -1 2927.40  465.01
   3  -4   1 2716.23  427.61
   3  -4   1 2700.63  425.67
   3   4   2 3048.13  484.87
  -3   4  -2 2931.56  477.28
  -3   4  -2 2780.62  459.85
   3   4   2 2547.70  408.77
   3   4   2 3008.47  483.80
   3   4   2 2986.51  473.67
   3   4   2 4542.11  725.39
  -3   4  -2 4610.35  734.55
  -3   4  -2 2879.32  456.28
   3   4   2 3273.87  514.14
   3  -4   2 4428.58  699.19
  -3  -4  -2 2875.99  460.41
  -3  -4  -2 2512.44  405.79
  -3  -4  -2 2128.11  344.49
  -3  -4  -2 4430.13  702.18
  -3  -4  -2 1879.11  319.29
   3  -4   2 3073.99  488.41
   3  -4   2 3189.27  511.55
  -3  -4  -2 2085.74  341.51
   3   4   3  782.36  140.90
  -3   4  -3  470.57   86.75
  -3   4  -3  325.09   72.72
  -3   4  -3  502.88   96.46
  -3  -4  -3  395.64   74.29
   3  -4   3  863.34  152.80
  -3  -4  -3  406.72   80.08
  -3  -4  -3  349.32   69.55
  -3  -4  -3  366.94   79.48
  -3   4  -4 3126.27  514.61
   3   4   4 4910.64  804.76
  -3   4  -4 1384.70  254.50
  -3   4  -4 2675.45  433.63
  -3  -4  -4 1896.23  327.84
  -3  -4  -4 1839.92  310.89
  -3  -4  -4 2254.77  376.76
  -3  -4  -4 1441.04  256.56
  -3   4  -5  200.51   48.31
   3   4   5  970.40  182.54
  -3   4  -5  306.40   58.63
  -3  -4  -5  279.65   57.78
  -3  -4  -5  374.22   71.51
  -3  -4  -5  328.06   60.76
   3  -4   5  638.38  120.71
  -3   5   6  432.80   87.75
   3  -5  -6  189.86   42.60
   3  -5  -6  201.68   48.67
  -3   5   5 1087.15  208.40
   3  -5  -5  331.95   66.26
   3  -5  -5  326.14   64.17
  -3   5   4  407.40   91.72
   3   5  -4  157.21   35.10
   3   5  -4  126.60   29.17
   3   5  -4  127.93   29.89
   3  -5  -4  130.91   37.93
   3  -5  -4  126.71   28.22
   3  -5  -4  130.89   38.65
   3  -5  -4  137.00   31.57
  -3   5   3  174.84   44.81
   3   5  -3   69.12   18.42
   3   5  -3   55.21   15.88
   3   5  -3   64.54   21.58
   3   5  -3   84.23   23.47
   3  -5  -3   85.63   27.92
   3  -5  -3   69.18   17.79
   3  -5  -3   78.31   20.66
   3  -5  -3   68.89   17.73
   3  -5  -3   74.67   19.04
   3   5  -2   11.36    8.50
  -3   5   2   26.64   11.15
  -3   5   2   15.50   19.41
   3   5  -2   14.85    9.04
  -3   5   2   20.54   10.67
  -3   5   2   43.70   14.67
  -3   5   2   41.99   19.59
   3   5  -2   12.60    9.00
   3   5  -2   14.59   15.40
  -3   5   2   14.67    7.28
   3   5  -2   15.66    6.82
   3  -5  -2   10.98    7.30
   3  -5  -2   29.96   16.39
   3  -5  -2   16.45    8.94
  -3  -5   2   60.98   20.11
  -3  -5   2   21.09   15.65
   3  -5  -2   14.26    8.15
  -3   5   1  392.03   66.62
  -3   5   1  372.72   66.74
  -3   5   1  451.70   81.28
   3   5  -1  316.63   59.92
  -3   5   1  387.24   68.94
  -3   5   1  374.68   67.24
   3   5  -1  363.60   63.92
   3   5  -1  350.88   63.72
  -3   5   1  562.92  100.08
   3   5  -1  339.02   63.46
   3   5  -1  349.21   62.36
  -3   5   1  286.00   55.43
  -3   5   1  300.14   53.48
   3  -5  -1  266.94   47.30
   3  -5  -1  388.65   69.00
  -3  -5   1  425.08   77.86
  -3  -5   1  600.27  107.45
   3  -5  -1  402.26   71.81
   3  -5  -1  413.23   75.61
   3  -5  -1  314.42   55.92
   3  -5  -1  342.67   58.42
  -3  -5   1  473.18   88.37
   3  -5  -1  260.42   49.11
   3   5   0 1376.66  223.67
   3   5   0 1744.49  282.50
   3   5   0 1633.70  265.03
  -3   5   0 1870.32  298.87
  -3   5   0 1524.31  242.22
  -3   5   0 2145.27  346.95
   3   5   0 1380.06  221.34
  -3   5   0 1495.60  241.27
  -3   5   0 1509.05  241.95
   3   5   0 1664.51  267.87
  -3   5   0 1640.27  267.64
   3   5   0 1431.18  232.50
  -3   5   0 1514.43  244.56
  -3  -5   0 1214.95  200.03
   3  -5   0 1200.55  202.92
   3  -5   0 1763.98  283.53
  -3  -5   0 1690.72  275.32
  -3  -5   0 1564.09  255.77
   3  -5   0 1691.64  272.33
   3  -5   0 1597.50  255.41
  -3  -5   0 1643.47  266.78
  -3  -5   0 1488.40  242.26
  -3  -5   0 1427.81  232.35
   3  -5   0 1619.36  261.19
   3  -5   0 1522.84  244.59
  -3   5  -1   20.03    9.71
  -3   5  -1   27.47    9.78
  -3   5  -1   22.33   14.52
   3   5   1   25.98    7.12
  -3   5  -1   20.16    6.61
   3   5   1   15.40    8.44
   3   5   1   22.00   10.80
  -3   5  -1   21.07    8.92
   3   5   1   19.82    6.36
  -3   5  -1   21.59    8.37
   3   5   1   29.63   11.35
   3   5   1   19.63   13.83
   3   5   1   20.36   11.07
  -3   5  -1   29.45    9.84
  -3  -5  -1   20.36    6.69
   3  -5   1   54.56   14.12
   3  -5   1    0.05    7.81
   3  -5   1   22.19    8.48
   3  -5   1   24.05   10.35
  -3  -5  -1    6.70    3.67
  -3  -5  -1   24.56    8.43
  -3  -5  -1   13.82    6.05
   3  -5   1   23.63   13.62
  -3  -5  -1   19.39    9.42
  -3  -5  -1   18.65   10.40
   3  -5   1   22.13    7.27
  -3  -5  -1   18.97    9.80
  -3  -5  -1   13.34   12.13
   3   5   2 2055.31  329.26
  -3   5  -2 1735.23  297.93
  -3   5  -2 1791.30  290.28
   3   5   2 2494.06  403.58
  -3   5  -2 1900.96  316.72
   3   5   2 1831.94  295.43
   3   5   2 1561.81  257.50
  -3  -5  -2 1583.48  262.45
  -3  -5  -2 1867.27  307.01
   3  -5   2 1058.13  180.50
  -3  -5  -2 1131.57  201.57
  -3  -5  -2 1325.59  221.93
  -3  -5  -2 1378.47  228.42
   3   5   3  108.36   29.66
  -3   5  -3   63.44   18.42
  -3   5  -3   36.87   22.30
  -3   5  -3   72.77   20.87
  -3  -5  -3   58.27   19.54
  -3  -5  -3   60.99   18.16
  -3  -5  -3   54.34   15.27
  -3  -5  -3   30.89   20.38
   3  -5   3  105.47   27.96
   3   5   4   91.55   28.36
  -3   5  -4   36.58   13.32
  -3   5  -4   65.57   20.18
  -3   5  -4   14.47   18.20
  -3  -5  -4   25.14   12.37
  -3  -5  -4   77.37   19.99
  -3  -5  -4   23.61   13.83
  -3  -5  -4   13.33   15.92
  -3   5  -5   81.37   24.75
   3  -5   5  223.85   51.29
  -3  -5  -5  143.26   32.92
  -3  -5  -5   63.70   18.60
  -3  -5  -5  156.93   32.50
  -3  -5  -5  170.90   36.30
  -3   6   6 3765.23  610.17
  -3   6   6 4406.04  719.95
   3  -6  -6 1670.17  283.91
  -3   6   5  195.38   44.06
  -3   6   5  295.76   73.14
   3  -6  -5   91.31   25.67
   3  -6  -5  102.72   26.75
  -3   6   4 2822.89  479.92
   3   6  -4 1204.36  206.44
   3   6  -4  942.46  163.17
   3  -6  -4  893.04  174.56
   3  -6  -4  972.98  167.40
   3  -6  -4  934.64  165.12
   3  -6  -4 1023.55  176.12
   3   6  -3   38.71   14.08
   3   6  -3   57.92   16.01
  -3   6   3  111.23   34.50
   3   6  -3   46.45   14.84
   3   6  -3   53.23   19.53
   3  -6  -3   52.94   22.61
   3  -6  -3   48.36   16.19
   3  -6  -3   47.43   14.79
   3  -6  -3   47.17   14.42
   3  -6  -3   45.92   14.22
  -3   6   2   24.07    9.95
   3   6  -2   13.12    7.28
  -3   6   2   16.17   10.66
  -3   6   2   24.69   25.32
  -3   6   2   14.47    8.77
  -3   6   2   14.10   21.23
   3   6  -2   13.35    8.42
   3   6  -2   12.92    9.72
   3   6  -2   14.47   11.39
   3   6  -2   10.43    6.18
  -3   6   2   33.54   14.00
   3  -6  -2   22.04    8.18
   3  -6  -2   10.99    9.70
   3  -6  -2   26.82   11.08
   3  -6  -2   14.16    7.92
  -3  -6   2   18.78   15.67
   3  -6  -2   16.56   22.86
  -3  -6   2   13.48   12.78
   3  -6  -2   13.37   10.64
   3   6  -1   41.43   12.13
  -3   6   1   65.10   20.07
  -3   6   1   47.51   12.34
  -3   6   1   48.59   10.90
   3   6  -1   43.74   13.28
  -3   6   1   33.86    9.28
  -3   6   1   45.33   17.19
  -3   6   1  178.07   38.78
  -3   6   1   63.69   20.52
   3   6  -1   37.35   13.25
   3   6  -1   39.21   14.83
  -3  -6   1   66.39   19.27
  -3  -6   1   51.99   16.92
   3  -6  -1   48.95   12.39
   3  -6  -1   46.44   13.44
   3  -6  -1   52.03   16.48
  -3  -6   1   70.25   21.95
   3  -6  -1   47.19   15.00
   3  -6  -1   44.27   11.05
   3   6   0  196.91   38.88
  -3   6   0  198.41   41.11
  -3   6   0  226.30   42.50
  -3   6   0  197.77   36.98
   3   6   0  237.27   47.17
   3   6   0  197.42   37.17
  -3   6   0  259.45   51.87
  -3   6   0  230.66   41.89
   3   6   0  269.76   49.91
   3   6   0  211.93   42.52
  -3   6   0  229.30   43.65
  -3   6   0  153.34   28.48
   3   6   0  249.74   50.16
  -3  -6   0  193.28   37.59
   3  -6   0  243.09   46.48
  -3  -6   0  233.47   45.70
  -3  -6   0  218.09   44.98
   3  -6   0  253.87   48.67
  -3  -6   0  242.67   47.56
  -3  -6   0  243.47   48.31
   3  -6   0  246.73   45.88
   3  -6   0  235.52   44.58
   3  -6   0  272.37   51.84
  -3   6  -1  523.25   90.18
   3   6   1  575.84  101.87
   3   6   1  464.28   83.87
  -3   6  -1  472.61   81.61
  -3   6  -1  381.30   70.95
  -3   6  -1  362.35   64.08
   3   6   1  541.55   94.85
  -3   6  -1  531.78   91.81
  -3   6  -1  653.43  119.20
   3   6   1  650.03  109.48
   3   6   1  646.98  115.60
  -3   6  -1  540.26   93.91
   3   6   1  384.38   66.34
   3  -6   1  573.15   99.40
  -3  -6  -1  504.60   87.48
   3  -6   1  926.64  159.25
  -3  -6  -1  552.81   98.08
   3  -6   1  545.51   96.03
  -3  -6  -1  460.47   82.69
  -3  -6  -1  388.82   81.06
   3  -6   1  514.47   88.54
  -3  -6  -1  505.48   89.58
  -3  -6  -1  354.07   63.37
  -3  -6  -1  465.88   82.32
  -3   6  -2 1989.93  339.60
   3   6   2 2541.06  403.52
   3   6   2 2653.98  426.28
   3   6   2 1992.52  325.38
  -3   6  -2 2266.53  364.75
   3   6   2 2251.85  358.41
  -3   6  -2 2124.16  339.68
  -3   6  -2 2474.37  405.52
  -3  -6  -2 1678.35  278.68
  -3  -6  -2 1370.01  239.15
  -3  -6  -2 2043.41  335.26
  -3  -6  -2 1454.87  239.34
  -3   6  -3    9.01    9.35
  -3   6  -3    4.24   16.45
   3   6   3   18.50   12.96
   3  -6   3   17.50   12.58
  -3  -6  -3    7.82   15.92
  -3  -6  -3    9.86   11.02
  -3  -6  -3    6.74    5.26
  -3  -6  -3   10.18    7.65
  -3   6  -4 3851.79  615.75
   3   6   4 9098.34 1480.33
  -3  -6  -4 3035.19  502.13
  -3  -6  -4 3427.18  569.39
  -3  -6  -4 3271.88  545.02
   3  -6   4 6730.30 1084.95
  -3   6  -5   83.51   23.27
  -3  -6  -5   97.01   22.03
  -3  -6  -5   76.40   19.93
  -3  -6  -5  141.64   30.08
   3  -6   5   -0.63   13.71
  -3  -6  -5  159.16   34.92
  -3   7   5 2146.28  370.01
  -3   7   5 2128.34  353.78
   3  -7  -5 1153.35  204.40
   3  -7  -5 1080.51  185.03
  -3   7   4  567.95  117.04
   3   7  -4  205.00   44.69
   3   7  -4  272.23   60.25
   3  -7  -4  176.07   49.69
   3  -7  -4  219.82   46.44
   3  -7  -4  199.33   47.30
   3  -7  -4  206.29   42.65
   3   7  -3  398.78   80.44
   3   7  -3  701.09  126.28
   3   7  -3  630.43  111.58
  -3   7   3 1311.32  231.70
   3  -7  -3  638.79  112.41
   3  -7  -3  651.04  116.27
  -3  -7   3  610.54  106.92
   3  -7  -3  629.17  112.06
   3  -7  -3  595.51  105.64
   3  -7  -3  691.40  134.41
   3   7  -2   83.95   23.86
   3   7  -2   87.80   21.73
  -3   7   2   96.11   21.05
  -3   7   2  139.59   33.77
   3   7  -2   83.80   19.86
   3   7  -2   93.27   24.98
   3  -7  -2   98.36   27.87
   3  -7  -2   85.70   19.28
   3  -7  -2   95.96   23.93
   3  -7  -2   86.53   21.38
  -3  -7   2  138.48   32.56
   3   7  -1  495.86   89.11
  -3   7   1  745.80  131.97
  -3   7   1  565.13   99.07
  -3   7   1  561.70   97.57
   3   7  -1  479.11   86.45
  -3   7   1  630.09  115.80
   3   7  -1  416.37   77.39
   3   7  -1  505.20   88.33
   3  -7  -1  605.05  108.94
   3  -7  -1  333.24   60.63
   3  -7  -1  572.31  101.74
  -3  -7   1  655.68  120.52
   3  -7  -1  565.29   99.82
   3  -7  -1  500.74   86.02
  -3  -7   1  579.03  102.98
  -3  -7   1  611.92  109.78
   3  -7  -1  520.98   91.37
   3   7   0 1165.41  193.99
  -3   7   0  599.84   99.20
   3   7   0  958.83  159.21
   3   7   0 1058.56  178.37
   3   7   0 1218.19  199.72
   3   7   0  960.15  158.55
  -3   7   0 1025.67  173.90
  -3   7   0 1102.69  180.85
   3   7   0 1108.80  186.26
  -3   7   0 1109.71  180.76
  -3   7   0 1060.30  172.40
  -3   7   0 1224.89  206.07
  -3   7   0 1075.34  177.50
   3  -7   0 1338.81  224.20
   3  -7   0 1172.79  192.93
   3  -7   0 1188.43  198.21
   3  -7   0 1207.41  200.41
  -3  -7   0 1177.90  197.30
  -3  -7   0  925.84  155.83
  -3  -7   0 1180.73  198.90
  -3  -7   0 1186.52  200.02
  -3  -7   0 1053.96  179.12
   3  -7   0 1119.83  184.45
  -3   7  -1  630.81  107.07
   3   7   1  966.61  163.67
  -3   7  -1  977.95  164.15
  -3   7  -1  933.42  154.37
  -3   7  -1  964.40  160.97
   3   7   1  832.44  143.99
  -3   7  -1 1148.16  199.38
  -3   7  -1  846.94  140.73
   3   7   1 1092.73  185.12
   3  -7   1 1073.21  180.13
  -3  -7  -1  470.61   83.30
   3  -7   1 1515.59  254.98
  -3  -7  -1  755.85  135.26
   3  -7   1  927.07  154.95
  -3  -7  -1  855.34  147.17
  -3  -7  -1  870.25  147.35
  -3   7  -2 2646.24  425.95
  -3   7  -2 2572.17  410.91
  -3   7  -2 2129.36  362.04
   3   7   2 3092.91  496.32
  -3  -7  -2 1608.87  276.75
  -3  -7  -2 2302.65  377.01
  -3  -7  -2 1724.13  288.29
  -3   7  -3 1824.15  299.45
  -3   7  -3  850.53  162.65
   3   7   3 3216.41  532.07
  -3  -7  -3 1287.88  220.77
   3  -7   3 3183.22  519.26
  -3  -7  -3 1279.25  219.21
  -3  -7  -3 1662.32  281.20
  -3  -7  -3  936.82  174.06
  -3   7  -4    5.77   12.68
  -3   7  -4    9.60   10.53
   3   7   4   20.24   13.70
  -3  -7  -4    7.41    9.99
  -3  -7  -4    7.19   13.68
  -3  -7  -4   15.13    7.12
  -3  -7  -4   12.77    7.85
   3  -7   4   15.59   12.66
  -3   7  -5 2060.20  329.13
  -3   7  -5 1210.52  205.30
   3   7   5 3489.16  551.32
  -3  -7  -5 1305.19  226.62
  -3  -7  -5 1875.13  304.61
  -3   8   5   89.93   29.40
   3   8  -5   21.76    8.35
  -3   8   5   86.39   24.93
  -3   8   5   95.08   30.19
   3  -8  -5   46.64   17.46
   3   8  -4  115.05   26.16
  -3   8   4  227.86   61.15
   3   8  -4  129.19   30.69
   3  -8  -4   92.82   33.96
   3  -8  -4  128.67   29.27
   3  -8  -4  119.67   28.49
   3  -8  -4  148.53   33.14
   3   8  -3  302.59   61.54
  -3   8   3  501.61   97.96
   3   8  -3  349.90   70.42
   3   8  -3  212.85   48.80
   3  -8  -3  316.26   60.68
   3  -8  -3  302.37   59.47
   3  -8  -3  343.53   77.93
   3  -8  -3  316.59   61.94
   3  -8  -3  332.21   65.64
  -3   8   2  452.37   78.88
   3   8  -2  576.98  104.35
   3   8  -2  537.70   96.10
   3   8  -2  566.31  102.78
  -3   8   2  808.70  142.79
   3   8  -2  520.24   98.69
   3  -8  -2  623.67  117.14
   3  -8  -2  660.33  117.47
   3  -8  -2  584.30  103.61
  -3  -8   2  699.10  123.93
   3  -8  -2  552.47   96.35
  -3   8   1  442.30   84.48
   3   8  -1  350.99   66.51
   3   8  -1  272.66   55.12
  -3   8   1  372.04   66.34
   3   8  -1  330.12   60.96
   3   8  -1  330.08   63.19
   3  -8  -1  382.05   68.34
   3  -8  -1  378.48   71.48
  -3  -8   1  458.59   86.25
   3  -8  -1  418.97   80.51
   3  -8  -1  344.36   64.28
   3  -8  -1  210.34   41.02
  -3   8   0  272.80   55.44
  -3   8   0  244.66   44.92
   3   8   0  205.78   40.39
   3   8   0  242.44   49.40
   3   8   0  236.61   44.65
  -3   8   0  228.55   44.02
  -3   8   0  254.15   48.14
   3   8   0  203.73   39.64
   3   8   0  232.04   47.62
  -3  -8   0  196.04   41.11
   3  -8   0  251.77   49.05
  -3  -8   0  191.42   37.64
   3  -8   0  291.11   60.50
   3  -8   0  253.72   49.87
  -3  -8   0  240.97   48.75
   3  -8   0  242.76   48.13
  -3   8  -1 1644.41  267.75
  -3   8  -1 1835.18  308.11
   3   8   1 1504.65  250.56
  -3   8  -1 1654.72  268.47
   3   8   1 1822.77  299.55
  -3  -8  -1 1464.15  244.72
   3  -8   1 1551.98  255.73
  -3  -8  -1  966.86  165.53
   3  -8   1 2463.55  406.62
  -3  -8  -1 1339.31  228.42
   3   8   2  203.45   43.27
  -3   8  -2  146.14   38.30
  -3   8  -2  174.17   37.04
  -3  -8  -2  147.00   32.87
  -3  -8  -2  109.50   30.79
   3  -8   2    0.17   10.70
  -3  -8  -2  167.00   37.93
  -3   8  -3  162.88   42.32
   3   8   3  373.01   72.48
  -3   8  -3  308.09   60.06
  -3  -8  -3  274.05   57.11
  -3  -8  -3  168.42   43.04
   3  -8   3  511.97   98.83
   3   8   4  190.04   42.26
  -3   8  -4   62.84   20.55
   3   8   4  121.47   27.92
  -3   8  -4  114.72   28.87
   3  -8   4  180.61   42.62
  -3  -8  -4  113.66   28.74
  -3  -8  -4   58.62   14.75
  -3  -8  -4   63.85   22.73
  -3  -8  -5  430.21   75.64
   3  -8   5   -0.02   10.75
  -3  -8  -5  340.70   63.52
  -3   9   5 1817.87  300.82
  -3   9   5 1924.23  319.72
  -3   9   5 1677.52  280.96
   3   9  -5  396.93   69.44
   3  -9  -5  921.08  157.46
  -3   9   4  239.18   53.91
   3   9  -4  129.07   28.51
   3   9  -4  138.95   32.78
  -3   9   4  198.35   43.31
   3  -9  -4   87.06   31.91
   3  -9  -4  126.94   28.17
   3  -9  -4  137.55   31.26
   3   9  -3  106.29   33.58
  -3   9   3  154.84   38.22
  -3   9   3   94.69   23.05
   3   9  -3   94.72   23.47
   3   9  -3   60.26   20.63
   3  -9  -3   94.13   22.27
   3  -9  -3   93.24   26.27
   3  -9  -3   93.16   33.84
   3  -9  -3  118.68   34.69
  -3   9   2  763.05  135.68
   3   9  -2  637.08  116.10
   3   9  -2  639.12  112.24
   3   9  -2  523.43   99.26
   3  -9  -2  707.76  127.75
   3  -9  -2  644.48  114.48
   3  -9  -2  661.36  124.78
  -3  -9   2  783.82  138.33
   3   9  -1  410.93   75.83
  -3   9   1  545.14  101.69
   3   9  -1  414.71   83.65
   3   9  -1  436.64   78.68
   3   9  -1  445.45   82.80
   3  -9  -1  532.18  100.08
   3  -9  -1  501.84   91.65
  -3  -9   1  495.92   91.85
   3  -9  -1  446.65   81.41
  -3   9   0  112.10   24.44
   3   9   0   97.11   21.61
  -3   9   0  116.31   23.96
   3   9   0  127.00   30.36
  -3   9   0  136.81   32.60
   3   9   0  120.94   29.29
  -3  -9   0   96.78   26.85
   3  -9   0  145.24   33.82
  -3  -9   0  151.02   33.03
   3  -9   0  126.38   28.75
   3  -9   0  127.13   28.84
  -3   9  -1  260.73   55.10
   3   9   1  263.99   57.29
  -3   9  -1  247.10   47.63
   3  -9   1  330.72   67.35
  -3  -9  -1  197.24   40.59
  -3  -9  -1  216.17   45.74
  -3  -9  -1  200.91   43.97
   3  -9   1  223.75   44.16
   3  -9   1  144.04   33.87
  -3  -9  -1  167.61   35.66
  -3   9  -2  159.56   39.02
  -3   9  -2  202.55   44.65
   3   9   2  239.04   49.16
  -3  -9  -2  174.46   38.19
  -3  -9  -2  139.24   35.05
  -3  -9  -2  151.21   33.95
   3  -9   2  292.82   61.31
  -3   9  -3 2864.80  459.53
  -3   9  -3 1880.88  321.80
   3   9   3 3884.22  632.08
  -3  -9  -3 3085.08  504.11
  -3  -9  -3 2174.11  366.75
   3  -9   3 5379.18  863.95
  -3   9  -4   43.95   16.24
  -3   9  -4   25.49   11.25
  -3  -9  -4   38.57   14.63
   3  -9   4   63.56   21.68
  -3  -9  -4   30.51   16.06
  -3  10   5  554.83   99.91
  -3  10   5  614.03  108.82
   3  10  -5  112.77   22.18
   3  10  -4  131.57   29.69
  -3  10   4  353.04   67.96
  -3  10   4  479.15   92.09
   3  10  -4  283.40   54.23
   3  10  -4  304.94   60.14
   3 -10  -4  277.91   52.89
   3 -10  -4  317.17   61.87
   3 -10  -4  233.37   57.79
   3 -10  -4  208.53   45.92
   3  10  -3  220.42   44.65
   3  10  -3  141.64   34.40
   3  10  -3  196.34   45.92
  -3  10   3  275.32   57.39
   3 -10  -3  239.78   59.50
   3 -10  -3  229.89   49.41
   3 -10  -3  216.26   44.79
   3  10  -2   42.47   16.42
   3  10  -2   22.61   13.65
   3  10  -2   36.23   13.49
  -3  10   2   34.47   20.86
   3 -10  -2   31.44   14.59
   3 -10  -2   28.64   17.46
   3 -10  -2   28.59   12.57
  -3 -10   2   48.03   14.81
   3  10  -1   58.97   16.68
   3  10  -1   56.76   16.63
   3  10  -1   58.10   19.81
  -3  10   1   74.34   19.64
  -3  10   1   67.01   21.14
   3 -10  -1   68.17   20.21
  -3 -10   1   60.37   16.49
  -3 -10   1   65.27   19.84
   3 -10  -1   76.48   24.03
  -3  10   0  351.11   73.66
  -3  10   0  287.91   53.28
   3  10   0  244.92   46.35
  -3  10   0  248.81   48.19
   3  10   0  316.70   63.14
   3 -10   0  381.78   74.17
   3 -10   0  300.14   59.26
  -3 -10   0  304.69   62.75
  -3 -10   0  257.16   52.42
   3 -10   0  320.21   62.31
  -3 -10   0  265.31   54.08
  -3  10  -1  418.08   80.70
   3  10   1  518.84   96.58
  -3  10  -1  466.25   83.71
  -3 -10  -1  300.56   57.79
  -3 -10  -1  409.22   79.16
   3 -10   1  565.21  105.48
   3 -10   1  729.31  135.47
   3 -10   1  414.34   77.00
  -3 -10  -1  353.94   67.75
  -3 -10  -1  360.94   71.33
   3  10   2 2278.57  376.69
  -3  10  -2 1733.85  285.38
  -3  10  -2 1296.81  225.08
   3 -10   2 2661.49  438.54
  -3 -10  -2 1489.36  255.04
  -3 -10  -2 1395.95  239.56
  -3 -10  -2 1660.90  280.20
  -3  10  -3  755.68  130.76
   3  10   3 1063.88  184.14
  -3  10  -3  516.79   97.69
  -3 -10  -3  785.14  139.87
   3 -10   3 1376.14  238.51
  -3 -10  -3  544.58  103.46
  -3  10  -4 1475.58  241.54
  -3  10  -4 2623.46  417.02
  -3 -10  -4 2166.24  353.94
   3 -10   4 4047.82  669.16
  -3 -10  -4 2242.33  367.90
  -3  11   4  144.39   34.15
  -3  11   4  166.57   39.50
   3  11  -4   44.18   14.00
   3  11  -4   97.55   24.08
   3 -11  -4   82.01   26.94
  -3 -11   4  131.00   31.65
   3 -11  -4   84.62   21.84
   3  11  -3  208.51   43.29
  -3  11   3  262.56   54.52
   3  11  -3  167.73   38.84
  -3 -11   3   30.26   16.32
   3 -11  -3  223.33   45.35
   3 -11  -3  243.30   50.83
   3 -11  -3  247.58   60.08
   3  11  -2  337.65   67.29
  -3  11   2  387.74   74.92
   3  11  -2  427.86   81.37
   3 -11  -2  460.64   87.51
   3 -11  -2  400.20   74.84
  -3 -11   2  363.18   71.41
   3 -11  -2  519.39  113.75
   3  11  -1 1096.74  185.59
  -3  11   1 1242.89  208.79
  -3  11   1 1132.32  194.45
   3  11  -1 1109.13  192.66
  -3 -11   1 1123.47  197.02
   3 -11  -1 1303.95  226.13
   3 -11  -1 1223.65  208.46
  -3 -11   1 1172.26  204.50
  -3  11   0 1191.92  204.32
   3  11   0 1188.54  205.05
  -3 -11   0 1151.56  200.56
   3 -11   0 1324.42  228.72
  -3 -11   0  961.44  168.95
  -3 -11   0  945.06  167.46
   3 -11   0 1184.49  200.88
   3 -11   0 1083.43  189.59
   3  11   1  726.97  130.57
  -3  11  -1  623.99  108.98
  -3  11  -1  492.10   94.46
   3 -11   1  753.74  136.87
  -3 -11  -1  447.08   82.74
   3 -11   1  907.29  165.61
  -3 -11  -1  473.90   88.92
  -3 -11  -1  483.20   91.62
  -3 -11  -1  586.45  109.04
  -3  11  -2  907.94  154.06
   3  11   2 1278.40  217.83
  -3  11  -2  712.03  128.63
  -3 -11  -2  765.89  138.37
  -3 -11  -2  931.40  163.98
  -3 -11  -2  824.71  146.55
   3 -11   2 1461.30  251.38
  -3  11  -3   57.48   15.98
  -3  11  -3   50.26   14.52
   3  11   3   82.39   21.54
  -3 -11  -3   51.08   17.40
  -3 -11  -3   37.63   11.26
   3 -11   3  110.40   31.29
  -3 -11  -3   55.19   16.24
  -3  11  -4   20.73   10.06
  -3 -11  -4    4.24    5.93
  -3 -11  -4    4.22    5.97
   3 -11   4   29.76   13.75
  -3  12   4  196.15   43.42
  -3  12   4  159.49   35.87
   3  12  -4   96.99   21.29
  -3 -12   4  138.11   30.19
   3 -12  -4  107.67   28.34
   3 -12  -4   91.67   21.04
  -3  12   3  159.33   35.89
  -3  12   3  192.23   43.09
   3  12  -3   94.95   22.83
   3  12  -3  126.87   29.80
   3 -12  -3  142.69   40.22
  -3 -12   3  159.27   37.86
   3 -12  -3  135.84   32.44
   3  12  -2   77.79   22.29
   3  12  -2   75.18   19.90
  -3  12   2  101.31   26.38
  -3  12   2   79.11   21.40
   3 -12  -2   89.12   27.45
  -3 -12   2   97.70   27.04
   3 -12  -2   97.51   32.81
  -3  12   1    6.15    6.90
   3  12  -1    4.02    5.74
  -3  12   1   10.55    9.30
   3  12  -1   10.47   12.25
   3 -12  -1    7.15   12.22
   3 -12  -1    6.57   10.48
  -3 -12   1   12.77   10.27
  -3 -12   1    5.41    9.22
  -3  12   0   78.13   20.62
   3  12   0   92.07   25.22
  -3 -12   0   84.69   24.33
   3 -12   0  132.70   34.30
  -3 -12   0   68.92   20.65
  -3 -12   0   67.71   19.17
   3 -12   0   82.12   20.65
   3 -12   0   88.87   23.44
  -3  12  -1    9.09    9.39
   3  12   1   17.89   17.00
  -3  12  -1    4.31    4.80
  -3 -12  -1    3.66    4.51
   3 -12   1   12.50   10.02
  -3 -12  -1    4.46    6.92
   3 -12   1   19.18   10.53
  -3 -12  -1    6.01    9.83
  -3  12  -2  126.85   28.61
   3  12   2  213.79   44.79
  -3  12  -2  144.85   30.09
  -3 -12  -2  133.34   31.73
  -3 -12  -2  125.09   27.26
  -3 -12  -2  144.65   32.08
   3 -12   2  244.06   52.55
  -3  12  -3    2.35    5.60
  -3 -12  -3    7.97    4.07
  -3 -12  -3    6.74    6.15
   3 -12   3    0.30   10.73
  -3 -12  -3    2.89    7.53
  -3  13   3  393.11   74.59
   3  13  -3  313.91   59.00
   3  13  -3  232.97   45.07
  -3  13   3  388.64   72.59
   3 -13  -3  285.12   56.22
   3 -13  -3  314.32   68.82
  -3 -13   3  343.26   67.61
   3  13  -2   89.56   21.17
  -3  13   2  109.73   26.09
   3  13  -2   91.40   23.85
  -3  13   2  114.62   26.75
  -3 -13   2  104.89   27.17
   3 -13  -2  105.79   26.89
   3 -13  -2  119.22   35.50
   3  13  -1    2.75    4.86
  -3  13   1    1.30    5.72
   3  13  -1    2.28   11.32
  -3  13   1    6.14    5.33
   3 -13  -1    3.00    9.95
  -3 -13   1    1.78    8.21
  -3 -13   1    6.45    7.33
   3 -13  -1    4.86   11.23
  -3  13   0   82.95   20.17
   3  13   0  109.39   27.91
  -3 -13   0   97.34   29.65
   3 -13   0  120.92   31.55
  -3 -13   0   85.43   21.19
   3 -13   0  102.16   25.00
  -3  13  -1  483.49   87.38
  -3  13  -1  512.77   89.79
   3  13   1  794.98  139.83
   3 -13   1  757.72  139.34
  -3 -13  -1  626.28  113.81
  -3 -13  -1  497.55   90.91
  -3 -13  -1  500.94   93.59
   3 -13   1  731.05  133.97
  -3  13  -2  571.03   98.13
   3  13   2  865.24  150.02
  -3 -13  -2  489.69   90.85
  -3 -13  -2  514.91   92.81
   3 -13   2  998.40  175.17
  -3 -13  -2  627.70  111.84
  -3  13  -3 1522.01  242.23
   3 -13   3 3293.22  534.71
  -3 -13  -3 1821.99  305.42
  -3 -13  -3 1721.54  281.20
  -3  14   3  131.51   29.00
  -3  14   3  135.01   29.21
   3  14  -3   95.38   20.74
   3  14  -3   86.91   18.37
   3 -14  -3  112.52   25.21
  -3 -14   3  124.39   28.07
   3 -14  -3  126.48   31.84
  -3  14   2  396.72   71.40
   3  14  -2  382.14   72.22
   3  14  -2  384.81   70.55
  -3  14   2  391.78   71.03
   3 -14  -2  447.33   90.66
   3 -14  -2  385.14   72.44
  -3 -14   2  377.66   75.29
   3  14  -1  366.76   69.82
  -3  14   1  305.54   56.38
   3 -14  -1  443.99   95.30
   3 -14  -1  369.31   70.75
  -3 -14   1  327.20   63.17
  -3 -14   1  315.30   61.70
  -3  14   0  851.15  143.53
   3  14   0 1283.05  218.83
   3 -14   0 1258.51  221.88
  -3 -14   0 1054.05  181.46
  -3 -14   0  972.21  167.52
   3 -14   0 1035.16  176.42
   3  14   1 1324.71  221.65
   3 -14   1 1101.97  195.12
  -3 -14  -1 1067.89  182.61
  -3 -14  -1  937.62  164.75
   3 -14   1 1198.03  207.09
   3  14   2  334.47   61.26
  -3 -14  -2  256.79   52.47
   3 -14   2  387.41   74.51
   3  15  -2   37.82   11.24
  -3 -15   2   44.45   13.87
   3 -15  -2   48.65   19.45
   3 -15  -2   45.15   15.17
   3  15  -1  506.31   90.05
   3 -15  -1  569.75  108.80
  -3 -15   1  382.35   72.31
  -3 -15   1  453.20   81.79
   3 -15  -1  470.71   84.77
   3  15   0  258.90   49.87
  -3 -15   0  229.31   44.65
  -3 -15   0  229.96   45.68
   3 -15   0  309.75   64.58
   3  15   1  118.37   27.87
  -3 -15  -1  111.98   25.02
   3 -15   1  130.11   27.05
   4   0  -6 4090.16  674.46
  -4   0   6 8797.75 1488.54
   4   0  -5 1762.17  300.68
   4   0  -4 3821.49  614.76
   4   0  -4 6453.67 1038.90
   4   0  -4 3775.42  596.86
  -4   0   3    2.04    4.75
   4   0  -3  603.81  116.24
   4   0  -211192.85 1737.14
  -4   0   225773.76 3935.15
   4   0  -1  213.51   45.25
  -4   0   1    3.53    9.58
  -4   0   1   41.39   13.36
   4   0  -1   62.83   19.08
  -4   0   1    0.04    7.85
  -4   0   1    2.99    6.65
  -4   0   1    9.72   15.09
  -4   0   0 5444.79  838.88
  -4   0   0 6262.36  965.16
   4   0   0 5250.64  815.06
   4   0   0 4435.22  690.89
  -4   0   0 5929.43  916.69
   4   0   0 3744.49  582.91
  -4   0   0 6264.05  963.05
   4   0   0 7675.46 1181.30
  -4   0   0 4690.66  732.31
  -4   0   0 6379.95  987.38
  -4   0   0 6197.25  947.41
   4   0   0 4967.16  773.60
   4   0   0 5200.04  808.23
  -4   0   0 5199.10  805.08
  -4   0  -1    0.43    8.25
   4   0   1    0.99    6.04
   4   0   1   23.42   11.95
  -4   0  -1    1.97    6.76
   4   0   1    0.35    5.15
  -4   0  -1    2.62    4.06
   4   0   1    2.50    6.43
   4   0   1   21.20    8.72
  -4   0  -1    0.43    9.23
  -4   0  -1   17.01    6.20
   4   0   1    4.93    9.46
  -4   0  -1   13.77    8.53
  -4   0  -1    0.48    4.38
   4   0   213298.82 2100.01
  -4   0  -2 9949.11 1535.26
  -4   0  -2 7321.70 1156.14
  -4   0  -2 8866.12 1385.57
  -4   0  -2 6750.35 1056.77
   4   0   212713.52 1947.08
  -4   0  -2 7965.22 1225.86
  -4   0  -2 5101.99  821.59
  -4   0  -3    2.17   14.94
  -4   0  -3    2.57    8.54
  -4   0  -3    2.67    8.77
   4   0   3   20.16   14.93
  -4   0  -4 1814.79  309.30
  -4   0  -4  742.14  148.45
   4   0   4 2914.55  485.42
  -4   0  -5    0.30    7.87
  -4   0  -5    0.51    9.95
   4   0   5    0.71   10.17
  -4   1   6   30.20   30.76
   4   1  -6    5.47   10.08
   4  -1  -6   12.66   14.07
   4   1  -5 1971.71  344.45
   4   1  -5 1791.33  306.91
   4   1  -5 1709.06  288.12
   4  -1  -5 1809.74  307.14
   4  -1  -5 1772.29  293.00
   4  -1  -5 2494.06  428.93
   4   1  -4 7640.90 1234.83
  -4   1   4 6303.05 1038.14
   4   1  -4 4248.05  676.82
   4   1  -4 4459.48  714.62
   4  -1  -4 4270.59  682.49
   4  -1  -4 4268.57  673.66
   4  -1  -4 6331.74 1024.47
   4   1  -3  918.48  158.22
  -4   1   3 1174.34  199.07
   4   1  -3  755.16  131.84
  -4   1   3 1423.72  240.02
   4   1  -3  836.26  155.14
   4   1  -3  916.60  153.59
   4   1  -3  788.24  140.60
   4  -1  -3  895.22  153.77
   4  -1  -3  766.39  136.22
   4  -1  -3  839.26  142.10
   4  -1  -3  718.88  129.59
   4  -1  -3  969.15  179.08
   4   1  -211304.06 1749.06
  -4   1   220028.77 3071.67
   4   1  -212484.24 1924.35
  -4   1   213461.23 2059.02
   4   1  -215463.08 2359.37
  -4   1   223078.99 3507.61
  -4   1   231592.68 4848.01
   4   1  -213184.83 2024.13
  -4  -1   214226.99 2177.71
   4  -1  -214281.31 2191.05
   4  -1  -215634.99 2372.38
   4  -1  -211227.43 1754.52
  -4  -1   233219.54 5082.46
   4  -1  -219635.63 2963.94
  -4  -1   222546.35 3430.45
   4  -1  -215950.98 2454.41
  -4  -1   220195.63 3116.66
   4   1  -1  876.85  147.39
   4   1  -1  403.36   71.28
   4   1  -1  552.45   98.28
  -4   1   1  651.62  109.64
  -4   1   1  434.90   84.72
  -4   1   1  920.88  160.61
  -4   1   1  693.31  119.63
   4   1  -1  554.67   98.59
   4   1  -1  569.14   99.43
   4   1  -1  614.59  109.55
  -4   1   1  562.44   97.49
  -4   1   1  492.69   85.95
  -4   1   1  584.99  101.95
  -4  -1   1  639.72  111.77
  -4  -1   1  687.74  117.48
   4  -1  -1  966.61  163.34
  -4  -1   1  630.83  110.64
  -4  -1   1  722.94  126.68
  -4  -1   1 1261.20  214.53
   4  -1  -1  641.03  112.48
  -4  -1   1  664.73  116.45
   4  -1  -1  566.73   98.58
   4  -1  -1  500.50   80.99
   4  -1  -1  598.39  106.45
   4   1   0 6786.28 1047.21
  -4   1   0 8020.38 1230.62
  -4   1   0 6347.60  969.18
  -4   1   0 7068.01 1089.06
   4   1   0 7650.26 1178.34
  -4   1   0 6218.22  955.44
  -4   1   0 6657.45 1027.28
  -4   1   0 8251.30 1256.80
  -4   1   0 6224.03  964.79
   4   1   0 6708.21 1037.26
   4   1   0 7208.72 1143.25
  -4   1   0 6058.24  934.75
  -4   1   0 8157.72 1242.18
   4   1   0 6217.09  965.74
   4   1   0 7685.42 1185.56
  -4   1   0 8605.93 1326.90
   4   1   010036.04 1529.04
   4  -1   0 9075.64 1397.57
  -4  -1   010341.96 1579.20
   4  -1   0 7156.47 1102.31
  -4  -1   0 8564.02 1312.68
  -4  -1   0 8866.33 1364.16
   4  -1   0 6893.43 1064.17
   4  -1   0 5861.16  905.75
  -4  -1   0 6801.70 1055.26
   4  -1   0 7055.50 1090.32
  -4  -1   0 8530.89 1314.79
  -4  -1   0 7312.62 1125.81
   4  -1   0 4681.68  724.61
  -4  -1   0 6974.50 1073.94
  -4   1  -1 1207.68  198.55
  -4   1  -1 1325.18  220.10
   4   1   1 1102.39  184.13
   4   1   1 1135.31  187.10
   4   1   1 1328.49  220.22
   4   1   1  967.37  162.22
   4   1   1 1417.95  230.68
  -4   1  -1 1347.41  224.53
  -4   1  -1  686.20  114.33
   4   1   1 1597.07  260.30
  -4   1  -1 1025.60  168.62
  -4   1  -1 1255.15  200.43
  -4   1  -1 1473.56  243.95
   4   1   1 1211.96  201.81
   4  -1   1 1521.54  246.94
   4  -1   1 1034.78  172.28
  -4  -1  -1  945.31  163.04
   4  -1   1 1090.20  181.85
   4  -1   1 1253.73  207.36
  -4  -1  -1 1589.83  261.33
  -4  -1  -1 1212.03  202.56
   4  -1   1 1489.98  244.17
  -4  -1  -1  965.08  164.25
  -4  -1  -1 1114.04  185.42
  -4  -1  -1 1189.88  196.55
   4   1   2   82.92   19.40
  -4   1  -2   92.88   26.03
   4   1   2  162.77   33.95
  -4   1  -2   95.29   25.99
  -4   1  -2   79.19   22.46
   4   1   2  105.84   27.78
  -4   1  -2   39.96   20.25
  -4  -1  -2   83.65   21.54
   4  -1   2  133.12   31.83
  -4  -1  -2   60.22   16.75
  -4  -1  -2   58.32   27.68
   4  -1   2  118.28   32.82
  -4  -1  -2   97.07   21.82
  -4  -1  -2   70.64   25.32
  -4   1  -3 1176.57  205.15
   4   1   3 1578.20  269.90
  -4   1  -3 1275.47  215.01
  -4   1  -3  444.81   97.38
  -4   1  -3  546.49  107.45
  -4  -1  -3 1051.72  182.62
  -4  -1  -3  753.27  139.93
  -4  -1  -3  634.68  123.13
   4   1   4  565.87  112.55
  -4   1  -4   85.73   34.32
  -4   1  -4  308.44   65.32
   4  -1   4  435.37   89.38
  -4  -1  -4  276.69   59.97
  -4  -1  -4  105.73   31.62
  -4  -1  -4  266.44   61.85
  -4   1  -5  194.71   42.14
   4   1   5  406.21   78.79
  -4   1  -5  113.83   29.94
   4  -1   5  475.87   93.50
  -4  -1  -5  206.49   43.62
  -4  -1  -5  131.91   32.96
  -4   2   6 1885.95  339.69
   4   2  -6  467.42   87.45
   4  -2  -6  573.86  108.69
   4   2  -5 1515.89  265.86
   4   2  -5 1718.41  288.83
  -4   2   5 2979.92  516.38
   4   2  -5 1933.39  332.23
   4  -2  -5 1980.62  332.57
   4  -2  -5 2044.98  388.67
   4  -2  -5 1873.02  309.46
   4   2  -4  993.10  174.66
   4   2  -4  848.38  159.21
  -4   2   4 1874.46  327.54
   4   2  -4  972.72  166.06
   4  -2  -4  985.29  170.97
   4  -2  -4 1006.68  171.37
   4  -2  -4  911.79  174.30
   4   2  -3 8716.45 1362.46
   4   2  -3 9400.00 1470.74
   4   2  -3 7927.70 1250.19
  -4   2   316065.40 2493.29
   4   2  -3 9761.35 1510.77
   4   2  -3 7066.38 1113.91
  -4   2   311527.83 1802.96
   4  -2  -3 8751.00 1380.89
   4  -2  -3 9221.22 1417.88
   4  -2  -3 8608.42 1332.83
   4  -2  -3 7627.70 1203.89
   4   2  -2  868.16  156.38
   4   2  -2  634.19  112.68
  -4   2   2 1364.26  226.13
  -4   2   2 1084.28  183.91
  -4   2   2  652.28  115.79
  -4   2   2  736.12  130.83
   4   2  -2  722.22  127.22
  -4   2   2  817.02  147.09
   4   2  -2  754.69  133.55
  -4  -2   2  930.23  157.38
   4  -2  -2  608.25  111.13
  -4  -2   2  575.85  104.98
   4  -2  -2  800.97  135.56
   4  -2  -2  797.87  137.27
   4  -2  -2  911.94  166.15
  -4  -2   2  991.32  175.45
  -4  -2   2  697.81  116.35
   4  -2  -2  743.65  130.39
   4  -2  -2  835.73  141.24
   4   2  -114797.73 2283.21
  -4   2   110357.96 1589.70
   4   2  -112251.50 1880.07
   4   2  -111569.26 1767.98
  -4   2   1 8949.23 1380.49
  -4   2   113496.56 2059.19
  -4   2   113964.92 2128.05
  -4   2   1 8903.30 1363.86
  -4   2   1 9328.00 1435.38
   4   2  -110661.93 1633.31
  -4   2   113030.40 1985.29
   4   2  -111954.88 1826.15
   4   2  -1 8142.90 1267.81
   4  -2  -111484.57 1750.94
  -4  -2   111685.29 1792.51
   4  -2  -110362.78 1606.79
   4  -2  -1 9481.45 1454.74
  -4  -2   110835.92 1666.83
  -4  -2   111637.72 1776.60
  -4  -2   118028.91 2733.62
  -4  -2   112074.20 1838.15
   4  -2  -112264.55 1884.24
   4  -2  -1 9756.08 1506.71
  -4  -2   113656.21 2108.50
  -4   2   0 1937.62  309.48
  -4   2   0 1825.23  287.48
   4   2   0 2276.35  362.56
  -4   2   0 2481.22  394.87
  -4   2   0 1829.97  295.02
   4   2   0 2458.53  392.75
  -4   2   0 2121.52  336.56
   4   2   0 2313.56  370.27
   4   2   0 1985.44  316.04
   4   2   0 3038.35  471.34
  -4   2   0 3048.52  484.26
   4   2   0 2551.24  406.65
  -4   2   0 2623.70  412.61
  -4   2   0 2322.74  367.93
  -4   2   0 2426.22  383.12
   4   2   0 2335.72  369.63
  -4  -2   0 2677.04  421.19
   4  -2   0 2266.64  363.45
   4  -2   0 1893.34  299.85
   4  -2   0 2277.93  363.70
  -4  -2   0 2707.39  433.77
  -4  -2   0 2296.27  368.22
   4  -2   0 2166.65  345.10
  -4  -2   0 2922.13  461.50
   4  -2   0 1709.51  274.27
   4  -2   0 2619.82  418.48
  -4  -2   0 2229.37  355.95
  -4  -2   0 2788.96  441.04
  -4  -2   0 2716.54  435.20
   4   2   1 3073.96  485.54
   4   2   1 4186.07  652.56
   4   2   1 3564.16  562.15
  -4   2  -1 4093.33  647.33
   4   2   1 3289.40  524.26
  -4   2  -1 2769.02  439.53
   4   2   1 3216.20  508.71
  -4   2  -1 3700.33  584.58
   4   2   1 4516.64  704.47
  -4   2  -1 3122.50  491.91
  -4   2  -1 3446.06  543.67
  -4   2  -1 2887.60  462.35
   4   2   1 4049.02  638.26
  -4  -2  -1 3988.89  632.54
   4  -2   1 4123.96  646.10
   4  -2   1 4259.72  666.11
   4  -2   1 4083.54  643.69
  -4  -2  -1 2820.22  450.74
   4  -2   1 3001.28  474.11
  -4  -2  -1 3263.66  518.70
   4  -2   1 2825.22  451.32
  -4  -2  -1 2720.84  439.04
  -4  -2  -1 2649.23  426.72
  -4  -2  -1 2936.65  468.95
  -4   2  -2 2063.64  346.12
  -4   2  -2 1703.87  287.58
   4   2   2 2359.01  386.25
   4   2   2 2118.17  340.91
   4   2   2 1414.91  233.60
  -4   2  -2 1798.23  293.00
  -4   2  -2 2383.53  388.64
  -4  -2  -2 1281.09  219.97
  -4  -2  -2 1070.30  187.52
   4  -2   2 2567.80  420.90
  -4  -2  -2 1531.44  254.19
  -4  -2  -2 1550.34  260.59
  -4  -2  -2 2131.58  346.57
  -4   2  -3  878.01  158.92
  -4   2  -3  845.30  147.52
   4   2   3 1301.58  227.36
  -4   2  -3  318.08   76.24
  -4  -2  -3  561.75  107.31
  -4  -2  -3  610.85  111.95
  -4  -2  -3  516.94  101.06
  -4  -2  -3  731.65  131.10
   4   2   4  175.14   45.50
  -4   2  -4   85.19   26.27
  -4   2  -4   37.80   23.89
  -4  -2  -4   36.61   16.47
  -4  -2  -4   73.79   20.60
  -4  -2  -4   50.03   21.16
   4  -2   4  115.59   34.61
  -4   2  -5  243.52   50.95
   4   2   5 1004.54  176.72
  -4   2  -5  379.76   73.50
  -4  -2  -5  308.53   62.61
  -4  -2  -5  441.12   85.97
   4  -2   5  896.06  161.17
   4   3  -6   17.21    7.35
  -4   3   6   60.36   38.31
   4  -3  -6   23.59   16.13
  -4   3   5 6975.14 1172.59
   4   3  -5 2959.52  490.60
   4   3  -5 3461.49  579.70
   4  -3  -5 2942.04  509.89
   4  -3  -5 3787.84  607.97
   4  -3  -5 3451.50  559.93
   4   3  -4  445.01   85.45
   4   3  -4  547.53  103.25
  -4   3   4 1202.09  217.47
   4   3  -4  532.00  101.22
   4  -3  -4  443.57   99.78
   4  -3  -4  518.93   95.86
   4  -3  -4  519.11   94.60
   4   3  -3 1557.65  262.10
  -4   3   3 3951.37  639.11
   4   3  -3 1360.78  226.97
   4   3  -3 1530.04  257.65
  -4   3   3 2393.66  391.26
   4   3  -3 1680.27  282.48
   4  -3  -3 1756.68  286.33
   4  -3  -3 1629.05  267.69
   4  -3  -3 1566.77  262.29
  -4  -3   3 1932.35  318.49
   4  -3  -3 1852.79  318.36
  -4   3   2 2988.02  477.22
   4   3  -2 2086.52  337.41
  -4   3   2 1939.12  312.40
   4   3  -2 2020.45  327.29
  -4   3   2 2167.19  352.54
   4   3  -2 1975.74  319.88
  -4   3   2 5127.27  809.93
   4   3  -2 1433.72  243.41
  -4   3   2 2224.82  358.88
   4   3  -2 1745.01  287.14
   4  -3  -2 2371.30  377.17
   4  -3  -2 1815.80  305.91
   4  -3  -2 2369.42  394.63
   4  -3  -2 2741.07  443.13
  -4  -3   2 1980.82  321.45
   4  -3  -2 2168.93  346.56
  -4  -3   2 2782.12  457.66
  -4  -3   2 1764.13  293.92
  -4   3   1 3598.91  563.83
   4   3  -1 3981.90  622.96
   4   3  -1 4031.36  633.47
  -4   3   1 3486.96  547.36
  -4   3   1 4396.06  687.28
  -4   3   1 3411.18  540.08
  -4   3   1 5045.35  786.65
   4   3  -1 3010.53  481.09
  -4   3   1 3608.47  566.38
  -4   3   1 4558.47  712.73
   4   3  -1 4141.21  647.97
   4   3  -1 5132.73  797.50
   4   3  -1 5540.77  852.99
  -4   3   1 4849.85  752.54
   4  -3  -1 3991.95  623.48
  -4  -3   1 4740.77  746.25
   4  -3  -1 3880.67  616.53
   4  -3  -1 4088.93  640.64
  -4  -3   1 5288.35  815.46
  -4  -3   1 3734.66  590.26
  -4  -3   1 5047.12  789.48
  -4  -3   1 4824.52  767.50
   4  -3  -1 4465.00  704.37
   4  -3  -1 3749.17  592.09
  -4   3   0   86.55   15.76
  -4   3   0  104.10   21.13
  -4   3   0  126.87   26.34
   4   3   0  108.31   25.17
  -4   3   0   94.06   21.84
  -4   3   0  116.68   27.22
  -4   3   0   99.88   23.43
  -4   3   0   90.30   17.41
  -4   3   0  112.97   25.52
   4   3   0  129.08   28.70
   4   3   0  114.34   26.21
   4   3   0   95.26   20.48
  -4   3   0  167.48   34.54
  -4   3   0  114.82   25.90
   4   3   0  142.70   31.36
   4   3   0  128.33   27.63
   4  -3   0  108.69   27.65
  -4  -3   0  122.77   28.89
  -4  -3   0  116.85   26.08
   4  -3   0  275.44   50.96
  -4  -3   0  103.50   22.29
   4  -3   0  113.42   26.92
   4  -3   0   95.26   21.85
  -4  -3   0  124.79   27.34
  -4  -3   0  130.10   30.04
   4  -3   0  100.40   20.52
  -4  -3   0  120.59   27.10
  -4  -3   0  128.87   28.04
   4   3   110493.31 1607.62
   4   3   111968.77 1832.84
  -4   3  -112165.90 1866.49
  -4   3  -110587.89 1631.78
   4   3   114434.03 2191.09
  -4   3  -1 8217.52 1268.57
   4   3   117014.21 2584.74
   4   3   111815.80 1806.64
   4   3   111083.65 1719.31
   4   3   115504.73 2369.29
  -4   3  -1 9623.97 1482.65
  -4   3  -115856.96 2410.11
  -4   3  -110033.49 1542.34
  -4   3  -111479.35 1766.01
   4  -3   114265.17 2181.73
   4  -3   110638.75 1648.08
  -4  -3  -113076.61 2003.62
   4  -3   114019.25 2138.74
  -4  -3  -1 7933.48 1236.78
  -4  -3  -111518.60 1777.78
   4  -3   110492.38 1611.50
  -4  -3  -1 8254.90 1287.92
  -4  -3  -110106.83 1569.74
  -4  -3  -1 9241.52 1427.72
   4   3   2   35.41   10.89
  -4   3  -2   36.54   17.34
  -4   3  -2   30.21   12.86
  -4   3  -2    8.25   16.00
   4   3   2   30.28   12.01
  -4   3  -2   30.04   12.31
  -4   3  -2   39.63   13.41
   4   3   2   53.25   20.45
   4  -3   2   48.32   17.88
  -4  -3  -2   32.51   15.13
  -4  -3  -2  122.27   26.52
  -4  -3  -2   39.87   11.26
  -4  -3  -2   21.67   12.17
  -4  -3  -2   16.19   13.61
  -4   3  -3 2223.85  386.40
  -4   3  -3 3235.37  518.79
   4   3   3 5702.42  912.39
  -4   3  -3 3268.96  537.97
   4  -3   3 5914.66  967.15
  -4  -3  -3 2281.19  381.39
  -4  -3  -3 2570.24  430.23
  -4  -3  -3 2628.29  431.81
  -4  -3  -3 2351.73  396.69
  -4   3  -4   25.86   17.17
  -4   3  -4   41.92   18.64
  -4   3  -4   92.74   35.02
   4   3   4   89.41   26.93
  -4  -3  -4   30.07   16.96
  -4  -3  -4   41.33   14.21
  -4  -3  -4   25.37   14.03
  -4   3  -5  151.61   34.53
   4   3   5  344.27   68.16
  -4   3  -5  111.30   26.22
   4  -3   5  350.71   72.09
  -4  -3  -5  149.31   31.75
  -4  -3  -5  142.00   33.09
  -4   4   6 5278.06  870.75
   4  -4  -6 1754.48  298.65
   4   4  -5  149.03   34.47
  -4   4   5  471.08  100.49
   4   4  -5  175.62   40.30
   4  -4  -5  203.57   44.66
   4  -4  -5  176.18   40.44
   4  -4  -5  123.95   39.32
   4   4  -4 1472.94  254.70
  -4   4   4 2626.21  433.48
   4   4  -4 1599.95  269.69
   4   4  -4 1514.14  259.82
  -4   4   4 4407.00  728.21
   4  -4  -4 1500.74  251.14
   4  -4  -4 1662.19  275.93
   4  -4  -4 1692.13  300.61
   4   4  -3 5164.63  822.45
  -4   4   315573.28 2427.77
   4   4  -3 5257.91  830.34
   4   4  -3 4734.21  754.39
   4  -4  -3 5023.93  787.54
   4  -4  -3 5697.23  915.55
   4  -4  -3 5105.56  811.85
   4  -4  -3 5806.17  907.87
  -4   4   2  141.27   39.27
  -4   4   2   57.44   17.87
   4   4  -2   37.56   12.61
   4   4  -2   34.10   14.62
  -4   4   2   41.80   15.50
   4   4  -2   23.01   10.18
   4   4  -2   38.39   15.11
  -4   4   2   48.58   17.62
   4   4  -2   38.42   15.88
  -4   4   2   58.15   18.53
  -4   4   2   36.29   11.35
   4  -4  -2   62.52   17.84
   4  -4  -2   57.06   17.64
  -4  -4   2   51.71   23.54
   4  -4  -2   45.97   20.88
   4  -4  -2   42.30   12.41
  -4  -4   2   48.50   18.72
  -4  -4   2   29.99    8.62
   4  -4  -2   33.34   13.62
   4   4  -1 7009.03 1094.71
   4   4  -1 9322.43 1431.35
  -4   4   110705.84 1641.29
  -4   4   1 8129.25 1250.94
   4   4  -1 8393.41 1292.48
  -4   4   1 7766.63 1195.13
   4   4  -1 8513.61 1308.06
  -4   4   1 9285.41 1438.19
   4   4  -112438.41 1890.96
  -4   4   110283.94 1573.52
  -4   4   1 7816.01 1202.11
   4   4  -1 9971.26 1520.71
  -4   4   1 7127.81 1102.16
  -4   4   1 6652.15 1022.91
   4  -4  -1 8503.07 1325.20
  -4  -4   1 8241.58 1258.41
  -4  -4   1 9966.08 1539.90
   4  -4  -1 9077.52 1399.86
  -4  -4   110182.28 1591.36
  -4  -4   1 7324.12 1144.15
   4  -4  -1 8443.59 1296.07
  -4  -4   111330.57 1735.36
   4  -4  -1 7872.46 1224.14
   4  -4  -1 9769.54 1513.24
   4   4   0 2442.43  388.50
  -4   4   0 2980.32  468.85
   4   4   0 2870.16  455.07
  -4   4   0 2008.39  321.24
  -4   4   0 3202.95  508.27
   4   4   0 2776.18  439.24
   4   4   0 2850.44  453.66
   4   4   0 2264.84  359.44
  -4   4   0 2691.80  428.36
  -4   4   0 2263.59  360.34
   4   4   0 2491.04  397.82
  -4   4   0 2315.54  368.38
  -4   4   0 2270.11  362.73
   4  -4   0 2719.88  437.27
  -4  -4   0 2670.91  422.73
   4  -4   0 2569.30  413.96
  -4  -4   0 2766.97  443.03
  -4  -4   0 2740.35  441.03
  -4  -4   0 2290.82  367.63
   4  -4   0 1997.26  318.73
  -4  -4   0 2865.21  453.49
   4  -4   0 2428.06  385.96
  -4  -4   0 2699.91  439.74
  -4  -4   0 2247.96  361.99
   4  -4   0 2353.27  372.63
   4  -4   0 2070.31  339.99
  -4   4  -1 1623.58  266.97
  -4   4  -1 1631.91  268.08
  -4   4  -1 1447.74  236.14
  -4   4  -1 2118.68  341.14
  -4   4  -1 1781.04  294.58
   4   4   1 2099.23  338.18
  -4   4  -1 1295.53  217.91
   4   4   1 1757.58  286.17
   4   4   1 1670.53  273.05
   4   4   1 1389.48  228.46
  -4   4  -1 1242.95  202.30
   4   4   1 1705.15  279.82
   4   4   1 1359.33  224.39
  -4  -4  -1 1591.63  262.84
  -4  -4  -1 1364.55  227.36
  -4  -4  -1 1244.26  212.03
   4  -4   1 1388.75  229.59
   4  -4   1 1502.60  245.92
   4  -4   1 1433.64  236.30
   4  -4   1 2176.64  359.76
  -4  -4  -1 1656.53  272.74
  -4  -4  -1 1106.65  185.60
   4  -4   1 1910.58  313.11
  -4   4  -2 4928.97  795.32
  -4   4  -2 3055.10  505.41
  -4   4  -2 6072.62  962.88
   4   4   2 7310.28 1140.13
  -4   4  -2 5173.92  809.34
   4   4   2 4848.27  769.77
   4   4   2 6126.80  951.68
   4  -4   2 8265.83 1295.69
  -4  -4  -2 4963.10  786.94
  -4  -4  -2 4838.44  770.82
  -4  -4  -2 2806.84  469.04
  -4  -4  -2 4193.41  673.47
  -4  -4  -2 3947.49  633.66
  -4   4  -3    9.51   11.11
  -4   4  -3   26.00   15.77
  -4   4  -3    7.46   13.53
   4   4   3   17.89   13.86
  -4  -4  -3   11.15   10.04
   4  -4   3   14.08   17.41
  -4  -4  -3    6.70    5.99
  -4  -4  -3    6.74   10.31
  -4  -4  -3    4.95   11.36
  -4   4  -4  680.12  127.91
  -4   4  -4  789.49  139.62
   4   4   4 1402.37  243.97
  -4   4  -4  512.84   99.57
  -4  -4  -4  528.47  105.04
  -4  -4  -4  676.88  122.14
  -4  -4  -4  698.40  127.17
  -4  -4  -4  419.03   83.64
  -4   4  -5  121.81   28.92
  -4   4  -5  104.07   22.91
  -4  -4  -5   52.84   14.99
  -4  -4  -5  132.34   30.13
  -4  -4  -5  129.75   28.57
   4  -4   5  256.21   56.08
  -4   5   6   49.73   32.83
   4  -5  -6    4.81   17.26
   4   5  -5  418.32   78.93
  -4   5   5 1212.70  218.10
   4   5  -5  548.43  101.34
   4  -5  -5  480.31   90.12
   4  -5  -5  352.41   79.19
   4  -5  -5  554.32  102.68
  -4   5   4 5320.55  852.69
   4   5  -4 3492.59  581.38
   4   5  -4 3235.74  524.40
   4   5  -4 3394.61  552.98
  -4   5   410689.56 1710.42
   4  -5  -4 3502.00  591.66
   4  -5  -4 3570.95  574.58
   4  -5  -4 3017.42  487.37
   4   5  -3  177.41   39.95
   4   5  -3  164.66   38.15
  -4   5   3  595.74  131.86
   4   5  -3  176.21   40.38
   4  -5  -3  175.96   36.49
   4  -5  -3  165.58   35.89
   4  -5  -3  166.32   35.06
   4  -5  -3  191.44   40.82
   4  -5  -3  200.14   49.98
   4   5  -215409.29 2366.31
  -4   5   227436.12 4194.18
   4   5  -212313.37 1884.41
   4   5  -2 9268.07 1435.37
  -4   5   212074.63 1848.66
  -4   5   2 9970.57 1548.75
   4   5  -2 6952.74 1113.76
  -4   5   212409.40 1903.83
   4   5  -210239.82 1586.67
   4  -5  -212929.20 2006.71
   4  -5  -2 7598.57 1210.56
   4  -5  -211224.72 1726.84
   4  -5  -218555.83 2890.74
   4  -5  -210437.38 1615.93
  -4   5   1   13.85    9.26
  -4   5   1   11.47    8.81
   4   5  -1   19.63   11.45
   4   5  -1    8.96    6.97
   4   5  -1   14.87    8.96
  -4   5   1   10.80    8.91
   4   5  -1   23.87    8.04
  -4   5   1   14.73   10.29
  -4   5   1   13.12    8.46
  -4   5   1   13.33   10.79
   4   5  -1   24.63   11.57
   4   5  -1   52.18   13.74
  -4   5   1   11.79    4.48
  -4   5   1   14.60   18.30
   4  -5  -1   10.57    6.18
   4  -5  -1    8.73    4.10
  -4  -5   1   11.97   11.69
   4  -5  -1   13.33   10.09
  -4  -5   1   15.45   11.14
   4  -5  -1    8.27    6.76
  -4  -5   1   39.11   15.93
  -4  -5   1   19.82   11.78
   4  -5  -1   21.41   13.07
  -4  -5   1    9.69    4.84
  -4   5   0 7180.48 1111.09
   4   5   010281.18 1575.53
   4   5   0 9625.28 1478.15
  -4   5   0 6951.59 1071.34
  -4   5   010104.81 1544.78
  -4   5   0 9360.33 1438.64
  -4   5   0 9733.58 1499.18
  -4   5   0 7600.48 1172.17
   4   5   0 8725.80 1348.20
   4   5   0 8589.78 1320.69
   4   5   0 8766.21 1350.60
  -4   5   0 7470.54 1162.57
   4   5   010186.17 1564.43
   4  -5   0 8176.93 1270.73
   4  -5   0 8762.04 1347.90
   4  -5   0 6731.56 1055.52
  -4  -5   0 9908.07 1528.80
  -4  -5   0 9204.35 1412.93
   4  -5   0 8718.77 1345.43
   4  -5   0 8321.39 1289.49
  -4  -5   0 8134.67 1268.41
  -4  -5   0 9956.17 1550.71
  -4  -5   010313.78 1579.27
  -4  -5   0 6118.45  954.98
   4  -5   0 8393.65 1293.03
  -4  -5   0 8896.05 1394.83
   4   5   1 3030.69  477.53
  -4   5  -1  814.75  141.82
   4   5   1 1059.12  178.34
   4   5   1  835.81  140.64
  -4   5  -1 1134.42  193.52
   4   5   1  901.95  153.08
  -4   5  -1  909.62  152.15
  -4   5  -1 1257.08  208.32
  -4   5  -1 1202.38  205.27
  -4   5  -1  776.46  130.29
   4   5   1 1194.24  199.80
  -4   5  -1  954.11  162.37
   4  -5   1  919.26  154.97
   4  -5   1 1241.40  209.70
  -4  -5  -1  754.47  134.31
  -4  -5  -1 1184.00  198.84
  -4  -5  -1  890.97  153.09
  -4  -5  -1 1047.90  178.46
   4  -5   1  941.43  159.87
  -4  -5  -1  722.99  125.00
  -4   5  -2  616.34  108.55
  -4   5  -2  396.34   78.42
   4   5   2  873.22  152.20
  -4   5  -2  737.09  135.71
  -4   5  -2  515.61   95.31
   4   5   2  537.73   97.04
  -4  -5  -2  341.82   72.56
  -4  -5  -2  577.51  110.32
  -4  -5  -2  468.35   86.76
   4  -5   2  937.90  165.31
  -4   5  -3  546.97  100.76
  -4   5  -3 1984.61  341.56
   4   5   3  918.23  162.41
  -4   5  -3  577.88  111.97
  -4  -5  -3  432.39   82.90
   4  -5   3  903.56  164.30
  -4  -5  -3  474.77   88.09
  -4  -5  -3  483.23   93.25
  -4   5  -4  184.95   40.90
  -4   5  -4  213.21   49.36
  -4   5  -4  258.57   52.76
   4   5   4  442.33   86.31
  -4  -5  -4  190.23   39.88
  -4  -5  -4  162.45   38.10
  -4  -5  -4  221.13   47.62
  -4  -5  -4  163.70   36.22
  -4   5  -5   62.93   18.00
   4  -5   5  132.04   34.98
  -4  -5  -5   37.41   11.16
  -4  -5  -5   51.67   15.35
  -4   6   5  299.68   62.45
   4   6  -5  142.70   30.73
  -4   6   5  360.58   80.76
  -4   6   5  468.90   98.83
   4  -6  -5   94.79   32.04
   4  -6  -5  148.90   36.05
   4   6  -4 3090.12  500.98
   4   6  -4 3051.09  497.96
  -4   6   4 4779.68  767.20
   4   6  -4 3782.87  620.73
  -4   6   4 8426.80 1351.24
   4  -6  -4 3351.30  568.94
   4  -6  -4 3207.01  527.61
   4  -6  -4 2676.02  434.55
  -4   6   3  866.29  162.77
   4   6  -3  396.62   75.21
   4   6  -3  298.08   61.03
   4   6  -3  337.02   65.12
   4  -6  -3  314.04   60.39
   4  -6  -3  314.06   61.83
   4  -6  -3  390.21   83.62
   4  -6  -3  346.17   64.28
   4  -6  -3  359.00   69.00
   4   6  -2   16.28    9.22
   4   6  -2   11.09   10.99
  -4   6   2   13.13    8.95
  -4   6   2   31.21    9.89
  -4   6   2   32.83   20.41
   4   6  -2   15.11   10.54
  -4   6   2    0.07    9.73
   4   6  -2    7.65    8.19
  -4  -6   2   94.24   30.91
   4  -6  -2   19.86    7.45
   4  -6  -2   38.08   15.18
   4  -6  -2   14.86   16.71
  -4   6   1 1970.69  320.09
   4   6  -1 1376.67  229.32
   4   6  -1 1633.00  263.47
   4   6  -1 1589.17  261.75
  -4   6   1 1560.91  254.86
  -4   6   1 2032.40  332.55
   4   6  -1 1731.26  282.01
  -4   6   1 1506.94  244.69
   4   6  -1 1230.40  204.24
   4  -6  -1 1191.95  199.61
  -4  -6   1 1934.92  320.18
   4  -6  -1 2090.33  348.53
  -4  -6   1 2006.49  335.24
   4  -6  -1 1640.29  267.12
  -4  -6   1 2204.10  356.43
   4  -6  -1 1735.63  283.09
  -4   6   0 5578.41  864.94
   4   6   0 7278.97 1127.69
  -4   6   0 5764.78  895.41
  -4   6   0 5589.96  872.10
  -4   6   0 6158.08  964.26
  -4   6   0 6655.87 1029.30
  -4   6   0 6884.11 1068.47
   4   6   0 6899.63 1066.86
   4   6   0 7105.30 1102.32
  -4   6   0 5564.88  864.38
   4   6   0 6297.41  977.73
   4   6   0 6307.39  977.39
   4   6   0 6295.39  980.48
   4  -6   0 6444.46 1001.10
   4  -6   0 6432.96 1002.87
   4  -6   0 6168.05  961.19
  -4  -6   0 7264.12 1144.43
  -4  -6   0 6670.00 1058.89
   4  -6   0 6515.68 1010.62
  -4  -6   0 7890.28 1225.45
  -4  -6   0 7671.82 1184.29
   4  -6   0 6154.75  972.79
  -4  -6   0 6015.19  948.93
   4   6   1 1538.33  257.65
  -4   6  -1  664.60  118.67
  -4   6  -1  808.32  137.05
  -4   6  -1 1004.23  167.09
   4   6   1  959.88  163.33
  -4   6  -1  762.45  129.01
  -4   6  -1  924.03  155.11
  -4   6  -1 1216.16  209.09
  -4  -6  -1  903.84  156.08
  -4  -6  -1  726.88  133.14
   4  -6   1 1211.13  206.01
   4  -6   1  925.58  157.07
  -4   6  -2 3831.70  606.39
   4   6   2 3787.67  605.33
  -4   6  -2 3408.44  563.58
  -4   6  -2 4371.82  706.01
   4   6   2 5348.28  841.83
   4  -6   2 5924.86  940.39
  -4  -6  -2 3809.88  613.24
  -4  -6  -2 3016.44  494.43
  -4  -6  -2 2722.23  452.09
  -4   6  -3  234.37   56.38
  -4   6  -3  171.88   40.46
  -4   6  -3  214.75   50.71
   4   6   3  351.22   70.28
  -4  -6  -3  177.42   38.92
   4  -6   3  338.65   70.21
  -4  -6  -3  210.17   47.32
  -4  -6  -3  141.99   38.68
  -4   6  -4  912.66  157.40
  -4   6  -4  774.70  141.70
   4   6   4 1597.56  274.81
  -4  -6  -4  634.88  118.27
  -4  -6  -4  768.58  138.46
  -4  -6  -4  563.59  120.05
  -4  -6  -4  620.66  113.13
  -4   6  -5    6.37    6.90
   4  -6   5   19.57   14.53
  -4   7   5 5386.38  876.85
  -4   7   5 3608.56  584.20
   4   7  -5  989.34  176.16
   4   7  -5 1654.18  278.79
  -4   7   5 4020.73  661.12
   4  -7  -5  831.31  163.14
   4  -7  -5 1785.65  297.72
  -4   7   4 2276.01  378.51
  -4   7   4 3573.84  596.27
  -4   7   4 2273.64  378.13
   4   7  -4 1503.60  251.45
   4   7  -4 1372.77  234.38
  -4  -7   4 1769.72  294.72
   4  -7  -4 1302.38  219.38
   4  -7  -4 1423.93  261.53
   4   7  -3  614.49  112.88
  -4   7   3  905.11  157.72
  -4   7   3 1583.89  276.88
   4   7  -3  778.04  136.72
   4  -7  -3  712.49  127.83
   4  -7  -3  836.59  161.26
   4  -7  -3  669.77  118.99
  -4  -7   3 1220.35  211.67
   4  -7  -3  626.63  110.21
  -4   7   2 7078.19 1116.75
   4   7  -2 4085.67  643.54
   4   7  -2 3722.68  593.13
   4   7  -2 2206.94  367.57
   4   7  -2 3493.39  559.80
  -4   7   2 3584.30  566.97
   4  -7  -2 4159.88  660.10
  -4  -7   2 7871.81 1241.38
   4  -7  -2 4874.71  785.35
   4   7  -1  824.26  139.10
  -4   7   1  973.17  166.22
  -4   7   1 1008.98  175.22
   4   7  -1  803.59  138.85
   4   7  -1  783.30  136.10
  -4   7   1  609.98  103.19
   4   7  -1  738.23  129.68
  -4  -7   1  937.96  160.15
   4  -7  -1  554.04   98.78
   4  -7  -1  847.99  148.82
   4  -7  -1  914.42  156.67
  -4   7   0 2191.02  357.44
   4   7   0 1738.54  281.65
   4   7   0 1898.96  313.00
   4   7   0 2113.80  344.14
   4   7   0 1855.57  301.55
  -4   7   0 1966.68  319.49
   4   7   0 2111.10  339.69
  -4   7   0 1737.47  285.09
  -4   7   0 2483.12  402.56
  -4  -7   0 2243.06  370.00
   4  -7   0 1948.56  319.11
  -4  -7   0 2009.90  330.61
  -4  -7   0 1708.12  283.25
   4  -7   0 1989.84  322.92
   4  -7   0 1993.44  329.14
  -4   7  -1 4089.43  647.70
   4   7   1 4379.01  692.51
   4   7   1 5407.86  849.17
  -4   7  -1 4977.18  790.53
  -4   7  -1 3196.10  512.39
  -4   7  -1 3520.83  573.26
   4  -7   1 5621.67  887.26
   4  -7   1 3818.90  607.18
  -4  -7  -1 3915.84  630.26
  -4  -7  -1 4157.87  665.71
  -4   7  -2  344.21   64.82
  -4   7  -2  424.22   85.34
   4   7   2  532.44   98.31
   4  -7   2  509.10   97.80
  -4  -7  -2  223.74   53.35
  -4  -7  -2  330.88   66.13
   4   7   3 4076.46  660.74
  -4   7  -3 2159.89  354.76
  -4   7  -3 2423.48  406.08
  -4  -7  -3 2432.36  409.21
  -4  -7  -3 1606.71  275.48
  -4  -7  -3 2003.01  340.96
   4  -7   3 3893.91  636.69
  -4   7  -4  832.99  149.56
  -4   7  -4  955.92  163.67
   4   7   4 1559.02  265.68
  -4  -7  -4  672.51  122.54
  -4  -7  -4  731.33  132.84
  -4  -7  -4  845.53  148.97
   4  -7   4 1545.47  268.05
   4   8  -5  360.43   68.06
   4   8  -5  657.13  116.28
  -4   8   5 1610.93  277.38
  -4   8   5 1800.15  306.63
  -4   8   5 1501.36  252.70
   4  -8  -5  751.09  134.57
   4  -8  -5  336.01   80.25
   4   8  -4   95.11   23.30
  -4   8   4  142.27   36.54
  -4   8   4  170.71   41.53
   4   8  -4   88.24   24.97
  -4   8   4  214.15   54.43
   4  -8  -4   87.44   32.66
   4  -8  -4  101.13   23.91
   4  -8  -4   81.18   21.94
  -4   8   314333.38 2241.00
   4   8  -3 9546.07 1480.85
   4   8  -3 6492.94 1025.72
  -4   8   3 8922.91 1386.96
   4   8  -3 4641.71  766.65
   4  -8  -3 8491.24 1335.25
   4  -8  -310211.22 1629.57
  -4  -8   312295.62 1914.20
   4  -8  -3 6979.46 1114.83
   4   8  -2    5.69    8.33
  -4   8   2    7.80    6.68
  -4   8   2    9.81   15.14
   4   8  -2   21.82   13.47
   4   8  -2    6.61    6.85
   4   8  -2    5.19    8.51
  -4   8   2   24.14   14.38
   4  -8  -2    5.08   10.68
   4  -8  -2   15.51   16.96
  -4  -8   2   20.78   11.78
   4   8  -1 8355.35 1295.67
   4   8  -1 8875.96 1365.13
  -4   8   1 5756.89  899.47
   4   8  -1 8471.20 1319.17
   4   8  -1 8662.67 1345.10
  -4   8   1 8921.83 1390.99
  -4   8   1 9186.97 1422.85
   4  -8  -1 9309.38 1442.23
   4  -8  -1 5607.43  903.58
  -4  -8   110607.99 1656.60
   4  -8  -1 8562.19 1349.11
  -4   8   0   62.45   31.01
   4   8   0   52.50   17.50
   4   8   0   50.05   16.67
  -4   8   0   39.20   15.39
   4   8   0  101.09   21.71
   4   8   0   38.81   11.92
   4  -8   0   41.54   13.93
  -4  -8   0   43.87   16.19
   4  -8   0   44.00   14.32
  -4  -8   0   33.32   10.39
   4  -8   0   48.85   16.10
  -4   8  -1 1755.90  288.90
   4   8   1 2362.51  384.53
  -4   8  -1 2285.81  378.79
   4   8   1 1965.59  323.63
  -4   8  -1 1453.95  240.96
  -4  -8  -1 1661.84  281.00
   4  -8   1 1637.31  271.59
   4  -8   1 2414.83  396.75
  -4  -8  -1 1750.57  293.11
  -4   8  -2   45.93   13.85
  -4   8  -2   52.30   20.89
   4   8   2   58.17   18.58
  -4  -8  -2   31.02   23.36
  -4  -8  -2   36.14   12.31
   4  -8   2   65.19   22.23
  -4  -8  -2   42.55   16.18
  -4   8  -3  126.52   33.84
  -4   8  -3  104.75   25.43
   4   8   3  190.77   43.50
   4  -8   3  176.55   42.48
  -4  -8  -3  110.85   28.63
  -4  -8  -3   95.52   28.94
  -4   8  -4   59.63   18.63
  -4   8  -4   54.62   18.16
   4   8   4  110.38   26.66
  -4  -8  -4   53.66   17.43
  -4  -8  -4   57.26   17.98
   4  -8   4   99.20   26.67
   4   9  -5  788.24  129.78
  -4   9   5 3168.15  511.58
  -4   9   5 3179.77  519.53
   4  -9  -5 1081.02  216.89
   4  -9  -5 2117.29  355.11
  -4   9   4 1241.05  214.69
   4   9  -4  580.74  115.89
  -4   9   4 1046.04  181.66
  -4   9   4 1478.27  257.39
   4   9  -4  793.98  136.61
   4  -9  -4  686.06  136.97
   4  -9  -4  687.53  120.77
   4  -9  -4  632.79  117.19
  -4   9   3  974.82  170.87
   4   9  -3  955.21  167.67
  -4   9   3 1448.05  247.75
  -4   9   3 1665.31  285.96
   4   9  -3 1076.39  182.96
   4   9  -3  660.36  122.95
   4  -9  -3 1122.94  208.46
   4  -9  -3 1042.99  182.17
   4   9  -2 1845.74  305.56
   4   9  -2 1964.14  318.75
   4   9  -2 1862.91  309.61
   4   9  -2 1575.41  266.90
  -4   9   2 1897.36  310.54
  -4   9   2 2448.37  407.91
  -4   9   2 2464.91  403.31
  -4  -9   2 2491.45  415.02
   4  -9  -2 2382.56  402.73
   4  -9  -2 2153.64  354.77
   4   9  -1  564.15  102.76
   4   9  -1  525.39   95.60
  -4   9   1  621.88  111.15
   4   9  -1  518.58   96.16
   4   9  -1  536.41   94.70
  -4   9   1  641.66  117.64
   4  -9  -1  522.13   98.29
   4  -9  -1  595.93  108.30
  -4  -9   1  540.12   99.85
   4  -9  -1  363.66   69.21
   4   9   0 1713.31  284.59
  -4   9   0 1236.37  206.00
   4   9   0 1598.98  266.83
   4   9   0 1400.62  230.09
  -4   9   0 1991.28  333.87
  -4  -9   0 1388.03  236.57
   4  -9   0 1558.98  258.65
  -4  -9   0 1283.05  218.83
   4  -9   0 1515.63  255.53
   4  -9   0 1595.80  271.25
   4   9   1 4921.13  777.79
   4   9   1 4196.00  668.79
  -4   9  -1 4461.54  715.08
  -4   9  -1 3624.01  581.89
  -4  -9  -1 3916.63  639.23
  -4  -9  -1 3559.41  578.94
   4  -9   1 5097.60  815.08
  -4   9  -2   63.73   22.72
  -4   9  -2   47.96   14.28
   4   9   2   71.78   21.08
  -4  -9  -2   44.64   18.57
   4  -9   2   72.67   24.41
  -4  -9  -2   41.73   14.05
  -4  -9  -2   55.43   17.56
   4   9   3 2521.04  412.20
  -4   9  -3 1801.70  304.45
  -4   9  -3 1566.32  260.08
  -4  -9  -3 1653.72  281.06
   4  -9   3 2757.23  458.88
  -4  -9  -3 1701.76  287.26
  -4   9  -4    1.86    6.55
  -4   9  -4    2.78    7.80
  -4  -9  -4    3.39    7.70
  -4  -9  -4    5.12    7.27
  -4  10   4 1883.09  316.68
  -4  10   4 1675.83  281.52
   4  10  -4 1126.52  189.01
   4  10  -4 1290.40  214.27
  -4  10   4 2011.98  334.13
   4 -10  -4 1118.30  198.48
   4 -10  -4 1260.19  235.24
  -4  10   3 1017.14  178.31
   4  10  -3  731.89  127.32
  -4  10   3  976.05  173.08
   4  10  -3  535.79  100.33
   4  10  -3  748.43  133.86
   4 -10  -3  772.34  149.44
   4 -10  -3  684.53  123.75
   4  10  -2   12.14   10.44
   4  10  -2   12.92    9.58
  -4  10   2    5.87   10.27
   4  10  -2   14.39   10.93
  -4  10   2   17.21   14.22
  -4 -10   2   47.37   15.94
   4 -10  -2    9.46   16.95
  -4 -10   2   10.88    7.26
   4 -10  -2    2.07   10.05
   4  10  -1 2176.09  358.89
   4  10  -1 2200.52  360.62
  -4  10   1 2404.56  395.62
   4  10  -1 2000.47  324.20
  -4  10   1 2171.27  354.27
   4  10  -1 2001.15  325.71
   4 -10  -1 2213.56  368.66
  -4 -10   1 1918.76  322.09
   4 -10  -1 2229.47  365.99
  -4  10   0 1528.23  254.75
   4  10   0 2033.06  335.45
   4  10   0 2177.68  358.95
  -4  10   0 2389.97  395.86
   4 -10   0 1922.49  317.32
  -4 -10   0 1813.34  306.55
   4 -10   0 1983.35  336.68
   4 -10   0 1808.05  304.47
  -4 -10   0 1781.05  301.44
  -4  10  -1   18.99    7.69
   4  10   1   43.98   17.94
  -4  10  -1   26.86   21.90
  -4 -10  -1   22.32   12.55
  -4 -10  -1   20.74   13.30
   4 -10   1   30.08   15.47
  -4 -10  -1   40.46   12.66
  -4  10  -2 2375.70  393.37
   4  10   2 3321.76  538.89
  -4  10  -2 2052.52  333.72
  -4 -10  -2 1951.84  327.22
  -4 -10  -2 2169.77  362.65
   4 -10   2 3310.57  543.32
  -4 -10  -2 2005.62  339.97
   4  10   3  385.43   73.64
  -4  10  -3  243.11   50.39
  -4  10  -3  244.28   51.36
  -4 -10  -3  245.80   51.12
  -4 -10  -3  217.30   46.48
   4 -10   3  375.21   75.51
  -4  10  -4  705.86  118.07
  -4 -10  -4  604.41  104.12
  -4 -10  -4  905.81  157.69
  -4  11   4 2780.49  452.21
   4  11  -4 2113.05  340.26
  -4  11   4 3135.53  504.90
   4 -11  -4 2396.03  420.66
  -4 -11   4 2652.65  438.19
   4 -11  -4 1983.71  337.19
   4  11  -3   24.01   11.25
  -4  11   3   24.57   15.63
   4  11  -3   17.68    9.51
   4  11  -3   37.94   15.14
  -4  11   3   31.37   15.72
   4 -11  -3   23.55   19.33
   4 -11  -3   19.19   11.70
   4  11  -2 6107.69  959.74
   4  11  -2 5385.19  852.96
   4  11  -2 5450.13  857.52
  -4  11   2 5430.42  865.25
  -4  11   2 6333.47  999.42
   4 -11  -2 7117.32 1142.50
  -4 -11   2 5289.19  871.89
   4 -11  -2 5892.44  935.20
   4  11  -1  112.57   26.37
   4  11  -1  121.32   30.86
  -4  11   1  149.54   36.70
  -4  11   1  119.51   28.15
  -4 -11   1  118.76   30.34
   4 -11  -1  120.53   37.24
  -4 -11   1  112.64   27.71
  -4 -11   1  113.72   28.88
   4 -11  -1  118.20   30.44
  -4  11   0 3749.22  603.40
   4  11   0 3915.23  632.08
  -4 -11   0 3473.34  567.09
  -4 -11   0 3012.34  498.30
   4 -11   0 3167.51  525.89
   4 -11   0 3388.47  548.28
  -4 -11   0 3256.22  537.19
   4 -11   0 3467.94  578.07
   4  11   1   15.35   11.88
  -4  11  -1    6.72   11.46
  -4  11  -1    3.20    3.90
  -4 -11  -1    7.42   10.17
   4 -11   1   44.65   16.85
  -4 -11  -1   10.17    6.05
  -4 -11  -1   44.93   21.35
   4  11   2  166.40   37.71
  -4  11  -2  112.73   29.14
  -4  11  -2   95.18   21.94
  -4 -11  -2  113.54   27.05
  -4 -11  -2   92.08   25.77
   4 -11   2  163.87   39.17
  -4 -11  -2   97.24   26.03
  -4  11  -3  110.17   25.88
  -4  11  -3  110.55   25.63
   4  11   3  182.55   38.43
  -4 -11  -3  101.30   22.81
  -4 -11  -3  108.82   26.35
   4 -11   3  206.64   47.65
  -4  12   4 1424.93  235.39
   4  12  -4 1119.11  186.99
  -4  12   4 1378.92  228.05
   4 -12  -4 1147.95  207.86
  -4 -12   4 1087.74  189.09
  -4  12   3 1786.94  295.97
   4  12  -3 1494.01  245.57
  -4  12   3 1940.76  319.76
   4  12  -3 1299.19  211.18
   4 -12  -3 1535.06  257.64
   4 -12  -3 1963.44  339.28
  -4 -12   3 1789.41  303.47
  -4  12   2    9.65    9.32
   4  12  -2   29.86   12.14
  -4  12   2    2.70    9.14
   4  12  -2    3.28    6.59
  -4 -12   2    3.98    6.04
  -4 -12   2    9.94   10.46
   4 -12  -2    3.82   10.08
   4 -12  -2   31.83   20.00
  -4  12   1 3437.39  553.33
   4  12  -1 2688.94  427.72
   4  12  -1 3400.22  548.76
  -4  12   1 2691.26  432.53
  -4 -12   1 2730.96  463.72
  -4 -12   1 3208.03  534.00
   4 -12  -1 3190.88  516.23
  -4 -12   1 3357.22  555.01
   4 -12  -1 3972.24  659.23
  -4  12   0 2311.48  377.19
   4  12   0 2733.20  444.48
  -4 -12   0 2416.87  403.39
  -4 -12   0 1997.71  336.58
  -4 -12   0 2154.44  358.83
   4 -12   0 2196.94  362.17
   4 -12   0 2254.04  384.32
   4 -12   0 2396.09  404.99
   4  12   1 1216.18  208.45
  -4  12  -1  902.04  156.48
  -4 -12  -1  704.56  127.17
  -4 -12  -1  931.95  164.10
   4 -12   1 1039.64  181.90
   4  12   2 2971.67  480.14
  -4  12  -2 1909.22  312.88
  -4  12  -2 1497.18  240.17
  -4 -12  -2 1475.51  253.02
   4 -12   2 2854.79  468.29
  -4 -12  -2 1800.66  301.25
  -4 -12  -2 1735.31  292.43
  -4  12  -3  114.30   24.58
  -4 -12  -3  127.73   28.19
   4 -12   3  239.68   51.28
  -4 -12  -3  114.90   25.00
  -4  13   3  324.48   61.61
   4  13  -3  225.47   41.42
   4  13  -3  269.41   50.52
  -4  13   3  299.75   57.50
  -4 -13   3  270.31   54.54
   4 -13  -3  303.63   65.67
   4 -13  -3  284.27   60.05
   4  13  -2  612.74  108.16
  -4  13   2  656.34  118.61
  -4  13   2  629.23  110.14
   4  13  -2  578.65   99.62
   4 -13  -2  738.01  137.49
   4 -13  -2  603.58  108.53
  -4 -13   2  632.99  114.95
  -4  13   1  633.90  109.67
   4  13  -1  800.53  141.82
  -4  13   1  729.25  126.90
   4  13  -1  605.45  102.38
  -4 -13   1  696.72  126.98
   4 -13  -1  694.29  123.02
   4 -13  -1  859.77  159.99
  -4 -13   1  715.42  128.53
   4  13   0  290.55   58.52
  -4  13   0  216.14   43.32
   4 -13   0  229.39   47.89
   4 -13   0  211.00   42.99
  -4 -13   0  178.90   38.09
  -4 -13   0  245.48   51.92
  -4 -13   0  249.92   49.79
   4 -13   0  267.12   57.05
   4  13   1 3160.57  508.24
  -4  13  -1 2217.64  359.58
  -4 -13  -1 1998.30  332.82
  -4 -13  -1 2312.07  380.20
   4 -13   1 3237.02  533.11
  -4  13  -2  131.11   27.00
   4  13   2  195.24   40.02
   4 -13   2  237.01   51.75
  -4 -13  -2  140.96   30.20
  -4 -13  -2  122.44   26.99
   4  14  -2    9.00    8.36
  -4  14   2   11.42    7.55
   4  14  -2    9.97    7.00
  -4  14   2    9.90    7.27
  -4 -14   2   12.93   14.06
   4 -14  -2   16.54   14.84
   4 -14  -2    9.65    9.26
   4  14  -1 2773.87  444.07
  -4  14   1 2307.98  368.89
   4 -14  -1 3168.84  538.19
   4 -14  -1 2526.89  410.99
  -4 -14   1 2751.01  452.66
  -4 -14   1 2324.90  390.23
  -4  14   0   27.20    9.75
   4  14   0   35.19   15.75
  -4 -14   0   26.65   12.06
   4 -14   0   35.05   14.63
   4 -14   0   28.66   14.57
  -4 -14   0   25.32    9.26
  -4  14  -1  444.41   78.80
   4  14   1  662.82  115.55
   4 -14   1  683.74  121.64
  -4 -14  -1  473.18   85.41
   4  15  -1  228.78   43.60
   4 -15  -1  239.28   49.98
   4 -15  -1  227.91   45.49
  -4 -15   1  212.11   40.61
   4  15   0 1610.74  259.93
  -4 -15   0 1356.97  224.10
   5   0  -6  762.49  138.95
  -5   0   5    0.59   16.12
   5   0  -5   40.20   17.86
   5   0  -5    1.24   13.34
  -5   0   4   47.61   23.24
   5   0  -4   27.11   15.88
   5   0  -4  175.31   43.88
   5   0  -3  215.99   49.00
  -5   0   3   14.66   15.48
   5   0  -3    5.01    9.86
   5   0  -2  242.06   50.29
  -5   0   2  322.28   64.56
   5   0  -2   30.85   13.46
  -5   0   2   61.54   24.59
  -5   0   1    2.15    8.07
   5   0  -1   84.02   20.18
   5   0  -1    1.12    5.89
   5   0  -1    3.45    9.31
  -5   0   1   27.35   13.62
  -5   0   1    1.06    5.81
   5   0  -1    1.41    7.80
  -5   0   1    3.37    3.29
  -5   0   1    2.04    7.79
  -5   0   1    5.17    7.29
   5   0   0 5975.23  933.92
  -5   0   0 6015.29  936.01
  -5   0   0 4845.69  812.51
  -5   0   0 5139.73  799.12
   5   0   0 5346.51  835.23
   5   0   0 4162.00  653.25
   5   0   0 4055.13  635.57
   5   0   0 5534.54  865.85
  -5   0   0 7427.28 1145.25
  -5   0   0 5651.47  877.13
  -5   0   0 5271.52  819.18
   5   0   0 5641.50  885.28
  -5   0   0 5252.92  820.34
   5   0   0 6886.62 1068.12
  -5   0   0 6189.89  961.57
  -5   0  -1    2.65    5.78
  -5   0  -1    0.65    3.17
   5   0   1    1.00    7.10
   5   0   1    1.88    4.33
   5   0   1    4.82    6.01
  -5   0  -1    1.72    9.11
  -5   0  -1   42.23   12.39
  -5   0  -1    0.64    8.47
   5   0   1    2.23    6.31
   5   0   1    2.02    7.08
  -5   0  -1    0.87    2.97
   5   0   2 6515.33 1029.12
   5   0   2 5451.33  883.25
  -5   0  -2 5683.77  904.57
  -5   0  -2 5526.03  881.34
  -5   0  -2 4846.13  777.63
   5   0   3    3.15   16.72
  -5   0  -3    3.29    9.51
  -5   0  -3    8.79    9.46
  -5   0  -3    6.91   20.34
   5   0   4 2997.65  504.25
  -5   0  -4 1356.23  238.63
  -5   0  -4 1687.43  291.75
  -5   0  -5    4.44    6.66
  -5   0  -5    5.70    8.09
   5   0   5   11.67   14.09
   5   1  -6  394.93   77.40
  -5   1   6  814.91  154.47
   5  -1  -6  364.33   73.70
  -5   1   5   72.33   35.22
   5   1  -5   44.36   21.96
   5   1  -5   28.11   17.23
   5  -1  -5   25.07   18.11
   5  -1  -5   43.56   23.65
  -5  -1   5   61.58   23.62
  -5   1   4  361.80   81.27
   5   1  -4  155.43   36.90
   5   1  -4  194.16   45.31
  -5  -1   4  277.61   61.47
   5  -1  -4  167.54   39.78
   5  -1  -4  195.15   47.68
   5   1  -3   74.73   21.54
   5   1  -3  115.80   29.88
   5   1  -3  250.10   55.34
   5   1  -3  118.60   30.04
  -5   1   3  245.47   57.69
  -5   1   3  179.92   40.18
   5  -1  -3  241.60   53.13
   5  -1  -3   61.24   18.94
   5  -1  -3  127.43   30.40
   5  -1  -3  104.83   25.32
  -5  -1   3  196.25   44.43
   5   1  -2  269.69   59.24
   5   1  -2  253.40   52.07
  -5   1   2  224.76   45.99
  -5   1   2  274.05   54.30
   5   1  -2  294.66   59.48
   5   1  -2  267.09   53.49
  -5   1   2  382.82   73.87
  -5   1   2  546.94  107.46
  -5   1   2  289.50   54.69
   5  -1  -2  223.11   44.32
   5  -1  -2  277.10   55.42
   5  -1  -2  295.36   60.60
   5  -1  -2  234.40   47.17
  -5  -1   2  360.63   71.68
  -5  -1   2  281.41   54.59
  -5  -1   2  373.81   74.12
   5  -1  -2  269.87   55.25
  -5  -1   2  262.34   55.26
   5   1  -1  157.09   33.13
   5   1  -1  162.00   35.57
   5   1  -1  171.29   35.91
  -5   1   1  152.88   29.73
  -5   1   1  139.23   30.63
  -5   1   1  150.26   33.77
   5   1  -1  176.37   38.99
  -5   1   1  175.13   36.79
  -5   1   1  213.43   44.40
  -5   1   1  160.55   32.75
  -5  -1   1  165.62   35.79
   5  -1  -1  165.67   36.58
   5  -1  -1  175.51   39.01
   5  -1  -1  139.73   30.52
   5  -1  -1  164.61   35.28
   5  -1  -1  135.63   28.85
  -5  -1   1  191.66   39.69
  -5  -1   1  168.63   36.07
  -5  -1   1  206.59   44.72
  -5  -1   1  223.71   44.35
  -5  -1   1  168.49   34.69
   5   1   0  358.49   62.24
  -5   1   0  463.17   81.70
  -5   1   0  465.85   84.74
  -5   1   0  374.37   70.98
  -5   1   0  368.43   63.48
  -5   1   0  385.22   70.41
  -5   1   0  582.42  103.06
   5   1   0  436.87   76.92
  -5   1   0  424.84   73.71
   5   1   0  457.76   85.69
  -5   1   0  425.81   75.58
  -5   1   0  381.76   67.48
   5   1   0  459.40   85.22
   5   1   0  366.74   66.21
   5   1   0  531.28   90.16
   5  -1   0  315.33   65.34
   5  -1   0  283.20   54.08
   5  -1   0  343.74   61.43
   5  -1   0  414.72   78.44
   5  -1   0  402.59   76.98
   5  -1   0  382.27   68.27
  -5  -1   0  439.05   77.98
  -5  -1   0  517.50   91.80
  -5  -1   0  416.61   72.57
   5  -1   0  521.26   91.66
  -5  -1   0  466.57   89.24
  -5  -1   0  691.84  137.98
  -5  -1   0  477.55   86.96
  -5  -1   0  454.39   79.34
   5   1   1 1629.38  263.40
   5   1   1 1548.18  257.71
   5   1   1 1189.66  198.55
  -5   1  -1 1237.30  206.67
   5   1   1 1441.64  241.71
   5   1   1 1354.15  223.94
  -5   1  -1 1533.35  254.32
  -5   1  -1 1459.90  242.83
  -5   1  -1 1103.55  184.00
   5  -1   1 1423.01  236.79
  -5  -1  -1 1344.39  223.32
   5  -1   1 1181.62  198.44
   5  -1   1 1125.73  189.12
  -5  -1  -1 1480.25  247.64
  -5  -1  -1 1265.64  211.24
  -5  -1  -1 1527.02  254.14
  -5  -1  -1 1411.40  232.57
   5  -1   1 1382.59  231.84
  -5  -1  -1 1148.14  190.89
   5  -1   1 1702.66  276.12
   5   1   2  761.41  134.11
  -5   1  -2  620.27  117.08
  -5   1  -2  800.80  142.74
   5   1   2  969.51  173.29
  -5   1  -2  813.80  143.31
  -5  -1  -2  803.61  148.25
  -5  -1  -2  697.85  133.84
  -5  -1  -2  749.32  132.91
   5  -1   2 1084.33  192.64
  -5   1  -3 1169.56  202.05
  -5   1  -3  851.34  157.08
  -5   1  -3  819.95  155.26
   5   1   3 1836.39  314.70
  -5  -1  -3  979.70  177.28
   5  -1   3 1472.85  255.47
  -5  -1  -3  893.12  165.25
  -5  -1  -3 1127.09  196.64
  -5   1  -4 3054.30  508.13
   5   1   4 7539.13 1214.00
  -5   1  -4 3828.90  624.06
   5  -1   4 6389.97 1025.52
  -5  -1  -4 3409.92  561.79
  -5  -1  -4 3379.81  556.87
  -5  -1  -4 2656.37  458.04
   5   1   5   35.95   17.99
  -5   1  -5   13.90    9.43
  -5   1  -5   13.45    9.28
   5  -1   5   35.88   19.77
  -5  -1  -5   12.68    9.92
  -5  -1  -5   20.54   11.35
  -5   2   6  105.10   41.53
   5   2  -6   39.38   13.88
   5  -2  -6   43.81   29.74
   5   2  -5  870.18  156.96
   5   2  -5  731.16  138.71
  -5   2   5 2395.57  423.23
   5  -2  -5  799.88  147.63
   5  -2  -5  936.99  173.64
   5   2  -4   36.51   16.17
   5   2  -4   38.15   18.31
  -5   2   4   82.19   35.85
   5  -2  -4   40.29   17.05
  -5  -2   4   48.90   16.95
   5  -2  -4   35.97   19.83
  -5   2   3  161.59   44.04
  -5   2   3  138.87   34.12
   5   2  -3   57.76   18.85
   5   2  -3   81.73   28.21
   5   2  -3   78.06   19.53
   5   2  -3   89.36   25.82
  -5   2   3  110.98   25.32
   5  -2  -3   98.32   29.98
  -5  -2   3  110.19   27.29
   5  -2  -3   82.07   25.55
   5  -2  -3  101.81   25.46
  -5   2   2   73.08   21.87
   5   2  -2   93.70   27.38
  -5   2   2  153.42   40.37
  -5   2   2  119.88   26.65
   5   2  -2   81.30   22.69
   5   2  -2   81.49   22.42
   5   2  -2  126.90   31.30
  -5   2   2  110.02   32.16
  -5  -2   2   85.49   18.95
  -5  -2   2  111.80   26.75
   5  -2  -2   89.21   23.51
   5  -2  -2   90.64   24.39
   5  -2  -2   91.36   26.32
   5  -2  -2   81.75   20.19
   5  -2  -2   78.27   19.80
  -5   2   1  176.10   39.65
   5   2  -1  228.38   43.44
  -5   2   1  203.75   39.46
  -5   2   1  208.80   41.08
  -5   2   1  236.78   48.42
   5   2  -1  193.10   38.25
  -5   2   1  173.77   34.69
  -5   2   1  253.30   50.56
   5   2  -1  227.36   51.14
  -5   2   1  190.83   40.32
   5   2  -1  241.16   47.34
   5   2  -1  180.66   35.45
   5   2  -1  216.16   45.58
  -5  -2   1  228.40   47.57
  -5  -2   1  255.52   53.19
  -5  -2   1  224.66   44.06
  -5  -2   1  244.08   50.22
  -5  -2   1  226.93   45.63
  -5  -2   1  232.89   43.78
   5  -2  -1  205.63   42.26
   5  -2  -1  170.48   35.74
   5  -2  -1  213.37   44.77
   5  -2  -1  205.07   44.17
   5  -2  -1  155.05   31.74
  -5   2   0  321.50   62.24
  -5   2   0  296.89   55.27
  -5   2   0  280.17   53.58
  -5   2   0  357.24   67.83
   5   2   0  338.71   63.81
   5   2   0  269.10   47.71
   5   2   0  334.50   64.29
   5   2   0  347.15   62.85
  -5   2   0  356.69   65.91
  -5   2   0  304.50   54.83
   5   2   0  351.37   66.57
   5   2   0  295.94   56.31
  -5   2   0  269.56   51.62
  -5   2   0  228.31   41.81
  -5   2   0  234.95   40.82
   5  -2   0  319.89   62.92
  -5  -2   0  353.85   64.98
  -5  -2   0  331.07   60.28
  -5  -2   0  346.05   65.34
   5  -2   0  230.15   48.29
  -5  -2   0  312.70   57.00
  -5  -2   0  340.77   62.69
  -5  -2   0  421.80   79.55
   5  -2   0  247.37   45.77
   5  -2   0  249.27   46.43
  -5  -2   0  340.29   64.92
   5  -2   0  309.16   59.55
   5  -2   0  356.85   66.09
   5  -2   0  287.77   53.03
   5   2   1  246.40   47.64
  -5   2  -1  249.42   49.10
   5   2   1  259.68   51.12
  -5   2  -1  240.64   49.34
  -5   2  -1  210.35   41.91
   5   2   1  357.06   68.82
  -5   2  -1  293.84   57.97
  -5   2  -1  296.66   58.84
   5   2   1  300.76   53.66
   5  -2   1  217.60   43.03
  -5  -2  -1  259.76   49.21
  -5  -2  -1  263.97   52.04
  -5  -2  -1  213.71   42.32
   5  -2   1  384.70   76.48
  -5  -2  -1  244.52   49.94
  -5  -2  -1  286.37   57.26
   5  -2   1  283.53   54.75
   5  -2   1  352.88   69.90
  -5  -2  -1  219.38   41.99
   5   2   2 2149.33  355.92
  -5   2  -2 1510.68  256.28
  -5   2  -2 1509.73  250.84
  -5   2  -2 1591.77  267.29
  -5   2  -2 1187.76  208.93
   5  -2   2 2098.01  355.19
  -5  -2  -2 1264.47  218.38
  -5  -2  -2 1468.58  249.69
  -5  -2  -2 1390.56  234.18
  -5  -2  -2 1322.93  224.63
   5   2   3 5877.81  940.93
  -5   2  -3 2478.72  422.84
  -5   2  -3 2494.67  423.30
  -5   2  -3 3523.24  572.21
  -5  -2  -3 2920.29  484.43
  -5  -2  -3 3351.98  555.06
   5  -2   3 1029.57  186.42
  -5  -2  -3 2928.07  489.46
  -5   2  -4  209.22   46.42
  -5   2  -4  125.14   34.98
   5   2   4  251.51   55.94
  -5  -2  -4  134.01   31.37
  -5  -2  -4  116.71   31.11
  -5  -2  -4  136.53   37.28
   5  -2   4  234.23   57.99
   5   2   5 5604.50  882.46
  -5   2  -5 3304.84  522.36
  -5   2  -5 3205.23  519.80
  -5  -2  -5 3240.82  516.83
   5  -2   5 5764.58  907.19
  -5   3   6   21.71   32.42
   5  -3  -6    7.37   15.23
   5   3  -5  235.04   48.73
   5   3  -5  263.08   57.21
  -5   3   5  789.15  161.05
   5  -3  -5  278.24   60.36
   5  -3  -5  300.19   67.17
   5   3  -4   26.61   13.66
  -5   3   4   56.14   30.18
   5   3  -4   20.18   11.23
  -5   3   4   37.68   14.02
   5   3  -4   24.43   14.31
   5  -3  -4   26.96   17.53
   5  -3  -4   29.57   14.80
   5   3  -3   48.58   16.97
  -5   3   3   86.49   29.99
   5   3  -3   42.52   12.55
  -5   3   3   75.69   21.13
   5   3  -3   35.87   19.97
  -5   3   3   76.80   23.59
   5   3  -3   48.91   18.09
   5  -3  -3   49.49   16.01
  -5  -3   3   41.12   12.69
   5  -3  -3   49.14   16.13
   5  -3  -3   53.42   22.34
  -5   3   2   10.25    6.76
   5   3  -2   14.20   11.42
   5   3  -2   15.49    9.68
  -5   3   2   31.54   17.87
   5   3  -2   11.75   11.16
   5   3  -2   13.65    8.98
  -5   3   2   19.96   11.22
  -5   3   2   44.60   17.18
   5  -3  -2   12.02    9.82
   5  -3  -2   13.96    7.78
   5  -3  -2   17.05   12.72
   5  -3  -2   11.01    6.85
   5  -3  -2   15.98   10.82
  -5  -3   2   14.82    6.31
  -5   3   1  792.21  138.58
   5   3  -1 1073.85  179.72
  -5   3   1  824.04  138.08
   5   3  -1  947.90  160.86
  -5   3   1  912.12  155.46
  -5   3   1  753.10  130.35
   5   3  -1 1102.97  185.94
  -5   3   1 1087.05  184.45
   5   3  -1  965.05  161.96
  -5   3   1 1049.09  175.44
  -5   3   1 1120.80  188.29
  -5   3   1 1129.85  188.63
   5   3  -1 1014.84  173.52
   5  -3  -1  729.56  124.94
   5  -3  -1  884.66  152.74
   5  -3  -1 1057.78  179.62
   5  -3  -1 1038.45  176.83
  -5  -3   1 1170.29  200.97
   5  -3  -1 1006.16  174.46
  -5  -3   1 1114.78  188.97
  -5  -3   1 1054.53  177.63
  -5  -3   1 1018.44  166.43
  -5  -3   1 1271.40  218.39
  -5  -3   1 1319.51  227.26
  -5   3   0   42.08   21.56
   5   3   0   60.56   16.71
   5   3   0   39.00   13.57
  -5   3   0   42.44   14.17
   5   3   0   37.00    8.98
  -5   3   0   33.53   13.16
  -5   3   0   33.41    9.53
  -5   3   0   40.86   15.71
  -5   3   0   37.54   12.74
   5   3   0   72.37   19.83
   5   3   0   40.88   12.31
   5   3   0   36.97   13.58
  -5   3   0   38.62   17.44
  -5   3   0   35.53    9.63
  -5  -3   0   33.33   10.62
  -5  -3   0   32.36    9.41
  -5  -3   0   36.13   12.83
  -5  -3   0   44.99   16.42
  -5  -3   0   36.86   12.33
  -5  -3   0   42.97   15.44
   5  -3   0   40.65   14.17
   5  -3   0   27.91   11.25
   5  -3   0   62.79   19.91
   5  -3   0   38.36   13.91
   5  -3   0   31.13    8.62
  -5  -3   0   38.69   13.35
   5  -3   0   37.22   10.65
  -5   3  -1 6605.80 1032.82
   5   3   1 6792.93 1056.63
  -5   3  -1 4870.87  765.61
  -5   3  -1 6955.01 1087.54
   5   3   1 5935.92  940.52
   5   3   1 5864.22  914.22
  -5   3  -1 5347.67  844.53
  -5   3  -1 5654.29  883.87
   5  -3   1 5286.99  839.25
  -5  -3  -1 5249.98  828.57
  -5  -3  -1 5929.97  929.42
   5  -3   1 5556.70  872.06
   5  -3   1 7299.24 1145.50
  -5  -3  -1 5721.24  899.84
  -5   3  -2   34.85   18.33
  -5   3  -2   42.45   15.05
  -5   3  -2   47.42   23.65
  -5   3  -2   44.91   15.20
   5   3   2   53.60   18.94
  -5  -3  -2   45.67   18.53
  -5  -3  -2   37.73   15.27
   5  -3   2   60.74   21.57
  -5  -3  -2   32.51   14.47
  -5   3  -3 2701.59  454.95
  -5   3  -3 3535.69  575.01
  -5   3  -3 3505.90  564.02
   5   3   3 4796.16  765.16
   5  -3   3 5532.10  919.90
  -5  -3  -3 2795.68  461.76
  -5  -3  -3 2769.18  463.74
  -5  -3  -3 3033.27  502.24
  -5   3  -4  160.05   37.79
   5   3   4  253.15   54.71
  -5   3  -4  138.14   35.67
   5  -3   4  231.82   54.73
  -5  -3  -4  136.89   38.01
  -5  -3  -4  155.51   39.37
  -5  -3  -4  180.34   39.11
  -5   4   5  665.95  128.35
   5   4  -5  526.99   95.82
  -5   4   5 1541.88  281.10
   5   4  -5  666.19  123.09
   5  -4  -5  594.33  117.19
   5  -4  -5  602.96  114.14
  -5   4   4    8.76   11.69
   5   4  -4    3.39    9.21
  -5   4   4    4.51    9.87
   5   4  -4   14.26   12.58
  -5   4   4    7.19   20.85
   5   4  -4    7.29    9.45
   5  -4  -4    3.51   13.71
   5  -4  -4    3.12    9.79
   5   4  -3   40.35   16.86
  -5   4   3   69.16   27.75
   5   4  -3   38.60   11.77
  -5   4   3   79.75   24.14
   5   4  -3   39.67   15.46
   5   4  -3   29.21   13.94
  -5   4   3   64.80   21.81
   5  -4  -3   41.38   15.20
   5  -4  -3   37.24   17.62
   5  -4  -3   44.00   20.92
  -5   4   2  367.06   73.67
   5   4  -2  281.45   54.94
  -5   4   2  534.99  101.85
   5   4  -2  333.17   65.12
  -5   4   2  374.40   73.77
   5   4  -2  260.92   54.29
   5   4  -2  280.84   54.58
   5  -4  -2  277.78   58.11
   5  -4  -2  298.62   61.96
   5  -4  -2  277.23   55.87
   5  -4  -2  249.33   48.29
   5   4  -1  874.69  146.73
   5   4  -1 1036.14  175.29
   5   4  -1 1000.30  167.29
   5   4  -1  944.16  161.35
  -5   4   1 1120.01  189.79
  -5   4   1 1046.28  175.07
   5   4  -1  991.86  169.99
  -5   4   1 1052.40  177.34
  -5   4   1 1014.30  176.83
   5  -4  -1 1031.87  182.98
   5  -4  -1  953.04  162.15
   5  -4  -1 1020.74  174.18
  -5  -4   1 1308.97  217.48
  -5  -4   1 1111.21  182.39
   5  -4  -1 1052.42  181.87
  -5  -4   1  906.19  153.90
  -5  -4   1 1182.86  205.05
   5   4   0 2415.45  393.91
   5   4   0 2227.61  359.94
   5   4   0 2150.39  345.31
   5   4   0 1968.71  319.13
   5   4   0 1979.05  322.77
   5   4   0 1728.40  274.98
  -5   4   0 2229.92  362.46
  -5   4   0 2457.25  398.85
  -5   4   0 1672.73  273.44
  -5   4   0 2094.13  338.38
  -5  -4   0 2390.82  392.70
   5  -4   0 2076.56  340.91
  -5  -4   0 2035.40  333.77
   5  -4   0 2013.76  328.14
  -5  -4   0 2039.82  328.32
   5  -4   0 1935.75  317.89
  -5  -4   0 1808.02  297.02
  -5  -4   0 1968.54  320.05
  -5   4  -1   43.13   14.69
  -5   4  -1   31.94   10.43
   5   4   1   27.26   10.92
  -5   4  -1   19.69   11.10
   5   4   1   38.57   13.85
   5   4   1   28.59    9.73
  -5   4  -1   31.00   14.82
  -5  -4  -1   21.20    9.35
  -5  -4  -1   22.63   11.76
  -5  -4  -1   19.95   11.27
   5  -4   1   64.37   18.41
   5  -4   1   38.19   17.10
  -5   4  -2 2860.77  459.78
   5   4   2 3795.38  605.60
  -5   4  -2 2561.19  424.40
  -5   4  -2 2960.85  487.47
   5   4   2 2816.13  460.75
  -5   4  -2 3382.04  548.37
   5  -4   2 4377.95  707.99
  -5  -4  -2 2407.20  397.21
  -5  -4  -2 2905.35  474.46
  -5  -4  -2 2778.96  455.77
  -5   4  -3 1160.15  202.82
   5   4   3 1611.91  271.96
  -5   4  -3 1150.10  196.10
  -5   4  -3  890.48  165.18
  -5  -4  -3 1004.75  178.89
   5  -4   3 1820.78  318.03
  -5  -4  -3 1061.10  187.01
  -5  -4  -3  898.76  159.57
  -5   4  -4  518.34   97.67
  -5   4  -4  438.32   84.87
   5   4   4  819.01  145.93
  -5  -4  -4  392.01   76.77
  -5  -4  -4  408.76   79.81
  -5  -4  -4  327.93   67.04
   5  -4   4  746.55  138.46
   5   5  -5   57.06   16.69
  -5   5   5  154.11   49.19
  -5   5   5   86.80   24.66
   5   5  -5   74.21   19.11
   5  -5  -5   61.05   21.60
   5  -5  -5   60.03   24.11
  -5   5   4  643.49  126.58
   5   5  -4  220.30   48.04
   5   5  -4  351.49   68.40
   5   5  -4  405.01   79.38
  -5   5   4  691.87  131.08
  -5   5   4  562.98  108.58
   5  -5  -4  334.28   70.70
   5  -5  -4  378.13   83.07
  -5   5   3  252.05   56.12
   5   5  -3  136.10   33.44
  -5   5   3  392.52   81.43
  -5   5   3  236.54   52.18
   5   5  -3  170.04   42.65
   5   5  -3  189.86   41.83
   5  -5  -3  154.60   36.80
   5  -5  -3  165.64   38.26
   5  -5  -3  187.12   47.01
  -5   5   2   24.51   12.97
  -5   5   2   28.74   14.73
   5   5  -2   29.75   16.64
   5   5  -2   18.48   13.27
   5   5  -2   21.25   10.08
  -5   5   2   31.01   15.41
   5   5  -2   32.23   13.24
   5  -5  -2   35.21   14.03
   5  -5  -2   13.74    6.51
   5  -5  -2   18.14   22.58
   5  -5  -2   95.11   36.09
  -5   5   1   31.76   11.62
   5   5  -1   33.46   13.78
  -5   5   1   35.84   14.73
   5   5  -1   37.65   13.62
  -5   5   1   53.20   16.55
   5   5  -1   59.13   14.77
   5   5  -1   33.28   10.80
   5   5  -1   23.71    9.35
  -5  -5   1   66.58   19.25
   5  -5  -1   50.42   17.32
   5  -5  -1   36.29   14.28
  -5  -5   1   27.59    8.77
  -5   5   0  571.11  102.07
   5   5   0  670.35  117.77
  -5   5   0  747.18  129.98
   5   5   0  545.94   98.03
  -5   5   0  692.65  123.79
   5   5   0  497.82   85.29
   5   5   0  558.49  100.44
  -5  -5   0  474.22   86.60
   5  -5   0  558.83  102.60
   5  -5   0  525.96   95.08
  -5  -5   0  716.08  126.93
  -5  -5   0  490.45   89.28
   5  -5   0  506.32   91.45
   5   5   1  381.04   69.66
   5   5   1  525.66   95.39
  -5   5  -1  465.33   85.54
  -5   5  -1  356.19   65.69
   5   5   1  419.59   77.27
  -5   5  -1  340.90   67.79
  -5   5  -1  469.26  102.25
  -5  -5  -1  391.34   74.84
  -5  -5  -1  315.70   60.18
   5  -5   1  515.80   97.53
  -5  -5  -1  371.13   71.40
   5  -5   1  392.26   72.94
   5   5   2 1657.40  275.84
  -5   5  -2 1467.27  250.72
  -5   5  -2 1256.36  216.20
  -5   5  -2 1037.43  183.09
   5   5   2 1216.06  207.06
  -5   5  -2 1228.64  206.54
   5  -5   2 1842.76  313.24
  -5  -5  -2 1209.45  209.47
  -5  -5  -2 1250.36  216.18
  -5  -5  -2  981.80  173.27
  -5   5  -3  326.94   64.20
  -5   5  -3  295.53   63.04
  -5   5  -3  339.44   69.72
   5   5   3  470.65   89.25
   5  -5   3  520.65  102.55
  -5  -5  -3  311.50   63.99
  -5  -5  -3  268.90   55.24
  -5  -5  -3  294.06   62.11
  -5   5  -4 4114.54  657.31
  -5   5  -4 4477.27  718.58
   5   5   4 7508.75 1203.70
   5  -5   4 6867.31 1092.21
  -5  -5  -4 3993.12  655.46
  -5  -5  -4 3763.12  606.44
  -5  -5  -4 3664.13  583.59
   5   6  -5   81.07   22.82
  -5   6   5  213.76   57.26
  -5   6   5  144.04   35.32
   5  -6  -5  100.71   27.96
   5  -6  -5   78.30   27.34
   5   6  -4    3.64    9.15
  -5   6   4   26.69   16.24
  -5   6   4    2.46   16.90
   5   6  -4    8.21    9.93
  -5   6   4    4.14   17.39
  -5  -6   4    0.07   12.02
   5  -6  -4    1.20   13.91
   5  -6  -4    6.53    7.18
   5  -6  -4    2.93   16.14
  -5   6   3   40.47   24.57
  -5   6   3   20.82   14.93
   5   6  -3   17.64   11.42
  -5   6   3   23.11   15.08
   5   6  -3   13.74   12.08
   5  -6  -3   13.81   12.06
   5  -6  -3   15.72   14.38
   5  -6  -3   17.34   17.34
  -5  -6   3    0.16   17.78
   5   6  -2   52.72   15.89
   5   6  -2   50.70   18.50
  -5   6   2   51.89   17.77
  -5   6   2   71.88   26.79
   5   6  -2   61.64   17.37
  -5   6   2   70.47   22.51
   5  -6  -2   63.67   23.65
   5  -6  -2   50.88   18.54
  -5  -6   2   87.80   26.04
   5   6  -1   71.62   20.21
   5   6  -1   72.14   20.71
  -5   6   1   74.86   21.89
  -5   6   1   69.45   17.57
  -5   6   1   77.87   22.00
   5   6  -1   69.31   18.13
   5   6  -1   67.98   16.57
   5  -6  -1   76.87   25.63
   5  -6  -1  100.70   26.70
  -5  -6   1   97.08   24.60
   5  -6  -1   54.99   16.64
  -5   6   0 2850.24  456.61
  -5   6   0 2858.30  464.64
   5   6   0 2585.03  417.20
   5   6   0 2004.55  321.47
  -5   6   0 2176.15  353.27
   5   6   0 2224.47  361.29
   5   6   0 2217.84  361.02
  -5  -6   0 2804.95  454.13
   5  -6   0 2284.46  374.79
   5  -6   0 2254.61  367.19
  -5  -6   0 1908.30  316.71
   5  -6   0 2138.61  354.75
  -5   6  -1  776.87  135.99
  -5   6  -1  776.26  138.01
   5   6   1  929.49  161.40
  -5   6  -1  835.48  153.22
  -5   6  -1  564.54  102.37
   5   6   1  713.74  129.16
  -5  -6  -1  810.08  145.80
   5  -6   1  841.33  150.87
  -5  -6  -1  611.13  111.21
   5  -6   1  644.75  114.62
  -5   6  -2 3103.96  507.14
  -5   6  -2 2635.58  427.70
   5   6   2 2782.96  450.02
   5   6   2 3698.96  591.18
  -5   6  -2 2871.23  483.34
  -5  -6  -2 2889.46  472.36
   5  -6   2 4023.14  653.23
  -5  -6  -2 2008.92  337.13
  -5  -6  -2 2666.52  438.32
  -5   6  -3  140.68   35.44
  -5   6  -3  194.26   41.59
   5   6   3  292.45   64.20
  -5   6  -3  223.97   50.03
  -5  -6  -3  198.66   45.04
   5  -6   3  318.99   67.99
  -5  -6  -3  169.66   37.37
  -5  -6  -3  206.44   46.98
   5   6   4 1240.14  212.84
  -5   6  -4  803.05  141.21
  -5  -6  -4  630.47  114.28
   5  -6   4 1139.44  201.08
  -5  -6  -4  685.65  124.17
  -5  -6  -4  710.78  121.71
  -5   7   5  614.76  120.95
   5   7  -5  290.33   53.76
  -5   7   5  473.21   90.21
   5  -7  -5  225.70   54.02
   5  -7  -5  315.91   64.15
  -5   7   4  420.72   84.18
  -5   7   4  447.44   91.63
  -5   7   4  616.94  121.98
   5   7  -4  206.44   44.94
   5   7  -4  283.80   56.23
   5  -7  -4  239.04   50.14
   5  -7  -4  298.96   69.50
   5  -7  -4  262.37   54.80
  -5  -7   4  445.04   84.55
  -5   7   3  450.90   95.44
   5   7  -3  197.40   44.73
   5   7  -3  218.50   45.66
  -5   7   3  253.45   55.19
  -5   7   3  297.25   63.68
  -5  -7   3  395.24   79.85
   5  -7  -3  232.45   56.11
   5  -7  -3  178.77   36.79
   5  -7  -3  274.44   57.92
   5   7  -2  441.29   84.80
   5   7  -2  452.21   83.39
  -5   7   2  565.53  105.47
  -5   7   2  499.20   92.28
   5   7  -2  346.58   68.29
   5   7  -2  489.86   88.41
  -5   7   2  582.17  108.39
   5  -7  -2  460.24   87.17
   5  -7  -2  505.02  100.15
  -5  -7   2  671.89  121.74
   5   7  -1  334.67   65.75
   5   7  -1  348.33   65.65
  -5   7   1  341.45   67.36
  -5   7   1  380.74   74.00
  -5   7   1  326.95   60.02
   5   7  -1  348.41   67.22
   5   7  -1  330.77   64.25
  -5  -7   1  365.87   69.58
   5  -7  -1  244.56   50.05
   5  -7  -1  325.65   65.27
   5  -7  -1  360.62   72.80
   5   7   0  166.96   36.96
   5   7   0  144.46   28.70
   5   7   0  195.48   41.64
  -5   7   0  160.48   34.93
  -5   7   0  688.06  126.86
   5   7   0  172.91   38.28
  -5   7   0  203.64   41.53
  -5  -7   0  145.58   33.09
   5  -7   0  187.00   41.71
   5  -7   0  167.66   41.32
  -5  -7   0  188.99   41.84
   5  -7   0  169.31   37.01
  -5   7  -1 3123.34  511.18
   5   7   1 2947.92  475.04
  -5   7  -1 2339.70  380.96
  -5   7  -1 2745.18  450.68
  -5   7  -1 2180.24  361.14
   5   7   1 3633.34  581.93
  -5  -7  -1 3342.47  543.20
  -5  -7  -1 2537.94  418.14
   5  -7   1 3502.60  573.67
  -5   7  -2  182.03   42.72
  -5   7  -2  137.98   30.67
  -5   7  -2  127.38   29.93
   5   7   2  218.04   46.61
  -5  -7  -2  150.02   35.44
  -5  -7  -2  160.53   43.94
   5  -7   2  228.74   52.36
  -5   7  -3 1194.31  202.38
   5   7   3 1854.15  310.07
  -5   7  -3 1322.09  226.87
  -5  -7  -3 1282.66  220.59
  -5  -7  -3 1255.41  222.48
   5  -7   3 1884.48  322.35
  -5   7  -4 1155.20  195.61
   5   7   4 1647.52  273.08
  -5  -7  -4 1066.40  182.85
  -5  -7  -4 1067.68  177.28
   5  -7   4 1581.23  269.08
   5   8  -5  136.55   28.00
   5   8  -5  231.84   43.42
  -5   8   5  513.12   99.28
  -5   8   5  388.13   75.90
   5  -8  -5  199.25   47.98
   5   8  -4  164.26   38.10
  -5   8   4  361.70   77.40
  -5   8   4  263.95   57.86
  -5   8   4  282.92   60.14
   5   8  -4  192.37   39.67
   5  -8  -4  189.84   49.92
  -5  -8   4  223.15   44.33
   5  -8  -4  164.91   37.35
   5  -8  -4  173.81   37.92
  -5   8   3  103.86   36.41
   5   8  -3   58.58   18.50
  -5   8   3   92.54   29.28
   5   8  -3   56.15   20.46
  -5   8   3   63.02   21.12
  -5  -8   3   83.86   23.57
   5  -8  -3   62.20   26.30
   5  -8  -3   76.46   25.08
  -5   8   2  761.00  137.12
  -5   8   2  539.79   94.86
  -5   8   2  752.03  135.99
   5   8  -2  638.24  117.15
   5   8  -2  629.53  112.58
   5   8  -2  540.02  100.92
   5   8  -2  694.38  123.75
  -5  -8   2  788.16  138.85
   5  -8  -2  700.52  133.07
   5  -8  -2  583.90  107.93
  -5   8   1  496.70   91.71
  -5   8   1  581.62  107.17
   5   8  -1  522.30   96.09
   5   8  -1  494.86   91.14
   5   8  -1  483.89   85.41
   5   8  -1  500.34   92.82
  -5   8   1  440.67   78.06
   5  -8  -1  541.01  103.42
   5  -8  -1  345.43   67.67
  -5  -8   1  606.13  110.44
   5  -8  -1  473.75   88.79
   5   8   0    9.71    4.94
   5   8   0   15.08    7.54
   5   8   0   16.23   11.05
  -5   8   0  224.46   52.49
   5   8   0   21.50   11.40
   5  -8   0   10.04   10.29
  -5  -8   0   16.66   12.04
   5  -8   0   15.35    8.76
   5   8   1   22.98   11.96
  -5   8  -1   28.03   23.68
  -5   8  -1   19.70    7.52
   5   8   1   30.59   14.16
  -5   8  -1   17.34    7.33
   5  -8   1   27.61   24.99
  -5  -8  -1   24.74   14.20
  -5  -8  -1   19.33   10.14
  -5   8  -2  677.45  125.35
  -5   8  -2  502.00   92.26
   5   8   2  799.50  141.54
  -5  -8  -2  606.21  112.82
   5  -8   2  819.76  150.20
  -5  -8  -2  561.99  104.55
  -5  -8  -2  423.78   81.39
  -5   8  -3 2691.61  439.63
  -5   8  -3 2280.90  380.42
   5   8   3 3733.38  600.90
  -5  -8  -3 2693.23  441.04
  -5  -8  -3 2301.75  380.73
   5  -8   3 3803.03  625.89
   5   8   4   20.26   15.61
  -5   8  -4   17.12    9.93
  -5  -8  -4   14.48    9.31
  -5  -8  -4   17.93    9.08
   5  -8   4  103.14   28.81
   5   9  -4   85.25   26.25
  -5   9   4  174.65   44.19
   5   9  -4  104.23   24.42
  -5   9   4  159.88   37.99
  -5   9   4  145.30   35.94
   5  -9  -4   91.08   24.86
   5  -9  -4  104.98   33.85
  -5   9   3  321.79   61.58
  -5   9   3  567.42  109.47
   5   9  -3  377.24   73.92
  -5   9   3  490.89   93.88
   5   9  -3  392.63   72.95
  -5  -9   3  498.53   94.48
   5  -9  -3  367.30   77.46
   5  -9  -3  403.51   85.78
   5   9  -2    9.35    7.82
  -5   9   2   11.64   11.60
  -5   9   2    8.10    5.10
   5   9  -2   14.26    8.57
  -5   9   2   22.81   14.45
   5   9  -2    8.65   15.95
   5   9  -2    9.57    7.68
  -5  -9   2   14.11   10.22
   5  -9  -2   16.14   12.83
   5  -9  -2   17.55   16.46
  -5   9   1  429.50   84.12
   5   9  -1  471.09   88.11
   5   9  -1  449.53   83.62
   5   9  -1  471.13   88.39
   5   9  -1  431.04   77.09
  -5   9   1  512.78   96.28
  -5  -9   1  480.09   89.50
   5  -9  -1  472.49   93.59
   5  -9  -1  417.13   80.61
   5  -9  -1  306.48   60.56
   5   9   0   69.76   17.31
  -5   9   0   97.87   27.41
   5   9   0  102.76   26.55
   5   9   0   82.59   23.68
  -5   9   0   77.76   19.70
   5  -9   0   80.99   21.93
   5  -9   0   81.42   23.26
  -5  -9   0   74.54   25.81
   5  -9   0   86.99   28.01
  -5   9  -1 2945.57  480.75
   5   9   1 3739.76  608.30
   5   9   1 2562.77  417.00
  -5  -9  -1 2634.63  434.49
  -5  -9  -1 2202.15  371.19
   5  -9   1 2968.84  488.52
  -5   9  -2  613.85  111.21
  -5   9  -2  853.66  152.50
   5   9   2  994.72  172.22
   5  -9   2 1033.23  185.47
  -5  -9  -2  627.89  114.43
  -5  -9  -2  760.38  138.28
  -5  -9  -2  607.12  112.45
  -5   9  -3 2377.56  388.38
   5   9   3 3209.98  522.46
  -5   9  -3 1986.41  335.91
  -5  -9  -3 2160.58  354.71
   5  -9   3 3485.45  574.83
  -5  -9  -3 2142.78  353.72
  -5  10   4  133.63   32.36
  -5  10   4  140.36   34.92
   5  10  -4   85.50   21.64
  -5  10   4  109.43   23.28
   5  10  -4   99.71   23.04
   5 -10  -4  108.07   33.18
   5 -10  -4   87.50   24.47
  -5  10   3   99.14   21.54
   5  10  -3  103.51   24.82
   5  10  -3  106.99   28.68
  -5  10   3  133.86   35.98
  -5  10   3  126.93   32.56
  -5 -10   3   92.98   21.99
   5 -10  -3  112.72   35.28
   5 -10  -3  105.50   31.34
   5  10  -2  154.96   37.35
  -5  10   2  180.08   41.43
   5  10  -2  155.65   33.28
   5  10  -2  152.94   37.98
  -5  10   2  188.70   43.16
   5 -10  -2  170.11   44.84
   5 -10  -2  194.53   51.42
  -5 -10   2  168.39   36.47
  -5  10   1  594.59  107.21
  -5  10   1  761.20  140.87
   5  10  -1  703.47  125.62
   5  10  -1  721.63  129.00
   5  10  -1  609.95  105.95
   5  10  -1  626.69  110.48
   5 -10  -1  602.48  110.30
  -5 -10   1  603.12  108.88
   5 -10  -1  683.27  130.48
  -5  10   0 1265.69  212.55
   5  10   0 1415.39  239.19
   5  10   0 1636.26  274.86
  -5  10   0 1560.26  263.63
  -5 -10   0 1417.21  242.32
   5 -10   0 1368.80  237.53
   5 -10   0 1173.46  203.41
   5 -10   0 1245.69  218.95
  -5  10  -1  195.01   44.79
   5  10   1  280.45   57.38
  -5 -10  -1  116.21   26.78
  -5 -10  -1  146.46   34.37
  -5 -10  -1  161.84   39.00
   5 -10   1  220.86   50.02
  -5  10  -2 1600.52  271.32
   5  10   2 3253.72  526.34
  -5  10  -2 2418.02  398.77
   5 -10   2 3235.47  533.13
  -5 -10  -2 2267.01  374.42
  -5 -10  -2 1918.29  328.85
  -5 -10  -2 1967.94  330.39
  -5  10  -3  271.30   53.33
   5  10   3  401.66   75.15
  -5  10  -3  214.61   40.78
  -5 -10  -3  259.52   50.96
  -5 -10  -3  247.54   48.84
   5 -10   3  393.93   77.86
   5  11  -4   82.70   21.02
  -5  11   4  129.85   31.07
  -5  11   4  112.69   33.76
  -5 -11   4   99.52   24.66
   5 -11  -4   97.47   29.33
   5  11  -3  302.30   57.05
   5  11  -3  276.96   58.05
  -5  11   3  352.77   69.00
  -5  11   3  377.43   73.86
   5 -11  -3  321.25   65.25
   5 -11  -3  333.75   72.26
  -5  11   2   26.54   13.39
   5  11  -2   36.88   12.41
   5  11  -2   30.67   14.66
  -5  11   2   31.54   16.31
  -5 -11   2   -0.16    7.82
   5 -11  -2   34.40   19.25
  -5 -11   2   29.61   11.88
  -5 -11   2   32.29   10.79
   5 -11  -2   32.28   14.73
  -5  11   1  218.71   47.41
  -5  11   1  175.85   37.65
   5  11  -1  205.95   43.95
   5  11  -1  185.18   38.65
  -5 -11   1  174.56   39.98
  -5 -11   1  175.20   37.77
   5 -11  -1  172.00   42.03
   5 -11  -1  193.98   45.96
  -5 -11   1  192.21   42.03
  -5  11   0   14.39   11.76
   5  11   0    5.19   11.64
  -5  11   0    5.26    4.95
   5 -11   0    4.35    8.09
   5 -11   0   12.64    9.58
  -5 -11   0    2.00    9.66
  -5 -11   0    4.41    8.55
   5 -11   0    1.80    6.54
   5  11   1   65.16   20.60
  -5  11  -1   60.42   21.14
  -5 -11  -1   33.24   11.12
   5 -11   1   60.40   20.85
  -5 -11  -1   44.48   22.14
  -5 -11  -1   51.06   17.13
  -5  11  -2  251.50   46.15
   5  11   2  700.46  124.61
  -5  11  -2  520.57   95.16
   5 -11   2  702.60  129.46
  -5 -11  -2  479.81   89.36
  -5 -11  -2  382.41   72.24
  -5 -11  -2  400.51   75.54
   5  11   3    6.55    7.94
  -5  11  -3    2.26    5.55
  -5 -11  -3    5.47    5.14
   5 -11   3    1.72   10.34
  -5 -11  -3    2.23    6.58
  -5  12   3  144.86   35.74
   5  12  -3   61.50   13.36
   5  12  -3  107.47   24.28
  -5  12   3  133.15   36.02
   5 -12  -3  128.35   30.71
  -5 -12   3  134.63   31.24
   5 -12  -3  136.06   36.17
  -5  12   2  202.26   48.74
   5  12  -2  175.54   35.95
  -5  12   2  171.08   37.06
   5  12  -2  150.55   34.05
   5 -12  -2  189.17   46.56
   5 -12  -2  180.93   48.55
  -5 -12   2  144.22   32.91
  -5 -12   2  185.97   40.31
  -5  12   1   25.26    9.95
  -5  12   1   25.27   13.15
   5  12  -1   29.69   12.39
   5  12  -1   26.84   12.35
   5 -12  -1   22.12   18.18
  -5 -12   1   23.05   10.24
  -5 -12   1   24.47   10.31
   5 -12  -1   24.67   14.50
  -5 -12   1   24.01   12.34
   5  12   0  709.56  126.83
  -5  12   0  602.45  108.13
  -5 -12   0  526.90   96.54
  -5 -12   0  552.80  103.42
   5 -12   0  570.00  106.58
   5 -12   0  455.12   86.08
   5 -12   0  555.29  100.94
  -5  12  -1  410.39   76.63
   5  12   1  501.47   92.03
   5 -12   1  472.24   90.59
  -5 -12  -1  378.26   72.75
  -5 -12  -1  344.00   67.37
  -5  12  -2 2233.69  359.32
   5  12   2 3252.66  520.30
  -5 -12  -2 2283.49  371.82
   5 -12   2 3378.23  552.44
  -5 -12  -2 1936.46  328.51
  -5  13   2  818.00  139.78
  -5  13   2  852.44  144.95
   5  13  -2  722.95  121.39
   5  13  -2  808.95  136.21
   5 -13  -2  818.20  146.28
  -5 -13   2  838.88  147.80
   5 -13  -2  891.25  165.39
  -5  13   1  841.96  143.76
   5  13  -1  984.84  171.83
  -5  13   1  835.07  140.44
   5 -13  -1  882.03  153.66
  -5 -13   1  817.79  144.74
  -5 -13   1  811.13  144.89
   5 -13  -1  859.47  160.07
   5  13   0 1342.37  223.71
  -5  13   0 1110.93  186.34
  -5 -13   0  962.21  164.82
   5 -13   0 1045.66  179.60
  -5 -13   0 1110.90  191.76
   5 -13   0  847.71  155.22
  -5  13  -1 1185.97  195.74
   5  13   1 1634.13  267.88
  -5 -13  -1 1194.24  200.82
   5 -13   1 1661.05  279.91
  -5 -13  -1 1197.76  201.36
  -5  14   1  310.59   59.24
   5  14  -1  342.35   62.14
  -5 -14   1  295.17   56.70
   5 -14  -1  343.36   70.17
  -5 -14   1  258.08   49.32
   5 -14  -1  333.39   66.07
  -5  14   0  150.03   29.79
   5  14   0  196.69   40.11
  -5 -14   0  146.24   30.91
   6   0  -5    0.28   12.11
   6   0  -5  174.32   51.22
  -6   0   5    0.95   13.33
   6   0  -4 7504.51 1201.24
  -6   0   4 1565.91  279.59
   6   0  -4 1104.53  197.74
  -6   0   3   46.72   23.12
   6   0  -3 1224.60  223.53
   6   0  -210263.78 1623.52
   6   0  -2 8587.38 1348.86
   6   0  -2 7934.93 1255.45
  -6   0   212844.68 1988.10
   6   0  -2 8623.00 1357.38
  -6   0   211775.36 1849.06
  -6   0   1    4.50    8.51
   6   0  -1  269.41   56.33
   6   0  -1   50.70   19.45
  -6   0   1    2.00    8.21
   6   0   0 5413.37  850.91
  -6   0   0 5492.37  861.33
   6   0   0 6689.90 1051.39
   6   0   0 6829.50 1077.23
  -6   0   0 6820.71 1060.72
  -6   0   0 6496.18 1017.26
   6   0   0 4794.89  756.71
  -6   0  -1    1.28    9.99
  -6   0  -1    2.36    9.99
   6   0   1    1.76    8.92
  -6   0  -1    1.62    4.54
   6   0   1    3.82    8.34
   6   0   1    1.52    6.64
  -6   0  -2  605.76  113.78
  -6   0  -2  583.00  111.43
   6   0   2  631.37  116.86
  -6   0  -2  534.51   98.69
   6   0   2  793.60  145.47
   6   0   3   23.21   16.08
  -6   0  -3 1788.23  311.63
   6   0   4    6.29   10.71
  -6   0  -4    2.60   10.35
  -6   0  -4    8.14    5.96
   6   1  -5   76.51   26.45
  -6   1   5  149.65   45.95
   6   1  -5  242.59   69.42
  -6  -1   5  118.89   37.84
   6  -1  -5  264.99   74.33
   6  -1  -5   85.89   37.45
   6   1  -4 4720.21  763.29
  -6   1   4 9871.97 1592.58
   6   1  -4 4121.38  671.93
   6  -1  -4 4370.85  714.86
  -6  -1   4 5743.24  950.04
   6  -1  -4 5003.66  817.59
  -6   1   3 1348.16  241.54
   6   1  -3  498.48   97.09
   6   1  -3  655.24  122.13
  -6   1   3 1363.31  251.85
   6   1  -3  596.78  112.54
  -6  -1   3  935.32  168.54
   6  -1  -3  483.18   95.44
   6  -1  -3  611.08  114.68
   6  -1  -3  613.69  115.90
  -6   1   2 1549.21  264.46
   6   1  -2 9869.01 1555.59
  -6   1   2 1551.66  266.33
   6  -1  -2 8549.73 1376.16
  -6  -1   2 1642.69  272.00
  -6  -1   2 1001.63  172.40
   6   1  -1 2925.85  475.09
   6   1  -1 2189.61  356.84
   6   1  -1 3183.31  515.30
  -6   1   1 3150.53  500.61
  -6   1   1 2708.70  436.02
  -6  -1   1 2832.19  456.42
   6  -1  -1 2744.28  444.82
  -6  -1   1 2849.65  451.81
   6  -1  -1 3076.75  502.96
  -6  -1   1 2899.37  463.10
   6  -1  -1 2389.40  391.81
   6  -1  -1 2527.99  413.08
   6   1   0  504.99   89.36
  -6   1   0  605.68  108.09
  -6   1   0  505.64   89.72
   6   1   0  410.76   73.33
   6   1   0  567.39  103.54
  -6   1   0  572.60  104.38
   6   1   0  590.21  113.47
   6  -1   0  519.86  100.21
   6  -1   0  553.29  104.23
  -6  -1   0  470.81   82.79
  -6  -1   0  569.17  106.78
  -6  -1   0  558.17   99.38
  -6   1  -1 1619.74  272.36
   6   1   1 1659.87  275.16
  -6   1  -1 1871.83  310.75
   6   1   1 1835.90  309.32
  -6   1  -1 1886.32  315.10
   6   1   1 2163.51  356.88
  -6  -1  -1 1634.64  270.09
  -6  -1  -1 1751.05  291.16
   6  -1   1 1701.71  286.76
   6  -1   1 1693.00  281.51
  -6  -1  -1 1863.63  309.17
   6  -1   1 1773.09  297.33
  -6   1  -2 2543.47  419.78
   6   1   2 2572.73  434.70
  -6   1  -2 2525.65  420.56
   6   1   2 3777.71  614.61
  -6   1  -2 2753.39  450.41
  -6  -1  -2 2767.75  454.84
  -6  -1  -2 2897.74  474.67
   6  -1   2 3245.14  530.93
  -6  -1  -2 2189.53  365.19
   6  -1   2 2801.56  468.44
   6   1   3  261.59   59.48
  -6   1  -3  179.15   39.99
  -6   1  -3  186.52   39.96
  -6   1  -3  209.27   50.06
   6  -1   3  287.08   62.07
  -6  -1  -3  189.55   43.00
  -6  -1  -3  195.92   45.82
  -6  -1  -3  202.71   42.26
   6   1   4  793.59  139.14
  -6   1  -4  433.99   79.83
  -6   1  -4  543.14  103.40
  -6  -1  -4  423.29   79.07
  -6  -1  -4  445.27   87.45
   6  -1   4  745.41  135.92
  -6  -1  -4  566.35  103.96
   6   2  -5 6210.60 1015.22
  -6   2   512336.58 1991.57
   6   2  -5 5239.09  860.06
   6  -2  -5 4260.58  699.28
   6  -2  -5 4941.59  815.99
   6   2  -4  303.89   71.47
  -6   2   4  660.05  142.78
   6   2  -4  238.16   54.65
   6  -2  -4  337.16   85.69
   6  -2  -4  235.26   53.13
  -6  -2   4  315.80   68.14
   6   2  -3 6485.92 1038.43
  -6   2   311900.54 1902.89
  -6   2   315934.46 2513.43
   6   2  -3 6506.00 1032.17
   6   2  -3 6874.96 1099.76
   6   2  -3 5818.20  933.98
  -6  -2   3 6733.44 1068.12
   6  -2  -3 6500.64 1047.68
   6  -2  -3 6218.49 1006.81
   6  -2  -3 4853.08  812.01
   6  -2  -3 6144.50  984.33
  -6   2   2 3084.10  505.06
  -6   2   2 3196.77  524.44
   6   2  -2 2612.70  427.35
   6   2  -2 2071.16  340.95
   6   2  -2 2373.08  391.80
   6   2  -2 2478.70  405.13
  -6  -2   2 2766.83  443.01
   6  -2  -2 2254.49  373.29
   6  -2  -2 2500.69  417.56
  -6  -2   2 2168.65  353.65
   6  -2  -2 2073.59  355.72
   6  -2  -2 1836.51  308.14
   6   2  -1   65.54   23.98
  -6   2   1   67.74   22.05
   6   2  -1  125.83   33.81
  -6   2   1   79.07   22.83
  -6   2   1   87.89   20.53
   6   2  -1   53.87   17.36
   6  -2  -1   57.87   21.50
  -6  -2   1   80.43   20.69
   6  -2  -1   76.10   23.89
  -6  -2   1   71.90   19.94
   6  -2  -1   62.55   15.98
   6  -2  -1   71.03   25.16
  -6  -2   1   63.68   18.18
   6   2   0 2748.63  442.85
   6   2   0 3089.47  499.47
  -6   2   0 3286.91  523.97
  -6   2   0 2995.13  481.40
   6   2   0 2967.79  477.55
  -6   2   0 2888.46  466.28
  -6  -2   0 2730.75  436.48
   6  -2   0 2587.59  422.97
  -6  -2   0 2624.30  417.94
   6  -2   0 2855.32  467.45
  -6  -2   0 3087.19  497.81
   6   2   1 2658.09  431.80
  -6   2  -1 3132.64  506.72
   6   2   1 2830.65  459.49
   6   2   1 2944.00  481.76
  -6   2  -1 2727.87  443.42
  -6   2  -1 2934.70  477.76
  -6  -2  -1 2785.74  453.50
   6  -2   1 2925.62  476.74
  -6  -2  -1 2276.20  366.73
  -6  -2  -1 2690.94  436.87
   6  -2   1 2593.57  427.28
   6  -2   1 2767.94  454.02
   6   2   2  185.65   41.15
  -6   2  -2  151.50   38.36
  -6   2  -2  155.06   35.66
  -6   2  -2  153.84   34.95
  -6  -2  -2  163.64   38.75
  -6  -2  -2  164.11   39.23
   6  -2   2  212.93   49.11
   6  -2   2  223.78   49.63
  -6   2  -3 1198.27  210.91
   6   2   3 1518.43  256.81
  -6   2  -3 1108.40  190.77
  -6   2  -3 1003.68  178.47
  -6  -2  -3  831.90  145.91
  -6  -2  -3 1126.78  195.90
   6  -2   3 1608.94  275.39
  -6  -2  -3 1166.04  203.85
   6   2   4   58.62   18.73
  -6   2  -4   40.60   15.29
  -6   2  -4   43.93   17.23
   6  -2   4   80.73   27.17
  -6  -2  -4   30.24   12.94
  -6  -2  -4   44.21   16.51
   6   3  -5    7.45   13.22
  -6   3   5   57.37   44.18
   6  -3  -5    9.15   14.70
   6  -3  -5   44.43   25.46
  -6   3   4  290.60   78.58
   6   3  -4  125.66   34.58
   6   3  -4   63.89   20.10
   6   3  -4  141.37   38.74
   6  -3  -4  112.81   30.70
   6  -3  -4  171.44   48.17
  -6   3   311897.29 1887.10
   6   3  -3 7525.60 1197.75
  -6   3   3 9667.58 1544.82
   6   3  -3 6402.67 1017.28
   6   3  -3 5796.07  931.00
   6   3  -3 5751.31  925.51
   6  -3  -3 5901.46  962.06
   6  -3  -3 5648.93  923.52
   6  -3  -3 5996.19  959.42
   6   3  -2    3.02   10.93
  -6   3   2    3.09    5.72
  -6   3   2    1.81   12.09
   6   3  -2    1.83   12.05
  -6   3   2    2.38   22.54
   6   3  -2   10.95   12.55
   6  -3  -2   13.48   14.61
   6  -3  -2   10.48   11.03
  -6  -3   2    1.89    4.92
   6  -3  -2    0.38    8.77
   6  -3  -2    8.33   13.39
  -6   3   113062.60 2002.61
  -6   3   111413.99 1785.21
   6   3  -111042.32 1711.25
   6   3  -1 9912.05 1529.55
   6   3  -110643.14 1656.89
  -6   3   111976.46 1859.44
   6  -3  -110274.69 1623.61
   6  -3  -110469.39 1631.91
  -6  -3   110036.75 1581.96
  -6  -3   112404.81 1909.06
   6  -3  -110790.25 1698.02
  -6  -3   111536.45 1780.53
  -6   3   0   16.12   12.35
  -6   3   0   14.05    9.84
   6   3   0   16.47   10.39
   6   3   0   16.06   12.08
   6   3   0   14.97   12.04
  -6   3   0   22.80   13.61
  -6  -3   0   38.90   14.98
   6  -3   0   14.24   13.93
   6  -3   0  186.06   40.89
  -6  -3   0   18.01   10.33
  -6  -3   0   15.77   14.44
  -6   3  -1 5658.91  892.63
   6   3   1 6000.90  947.53
  -6   3  -1 6333.18  996.81
  -6   3  -1 5873.81  926.92
   6   3   1 5603.83  900.16
   6   3   1 5539.32  872.22
   6  -3   1 5414.91  865.35
  -6  -3  -1 5128.56  815.24
   6  -3   1 6567.79 1045.60
  -6  -3  -1 4738.35  747.29
  -6  -3  -1 5941.71  945.27
   6  -3   1 5249.45  844.53
  -6   3  -2  373.09   72.35
  -6   3  -2  383.96   74.42
  -6   3  -2  362.77   73.19
   6   3   2  457.45   85.98
  -6  -3  -2  403.54   79.65
  -6  -3  -2  353.30   69.93
  -6  -3  -2  374.62   73.46
   6  -3   2  498.97  102.35
   6  -3   2  418.19   81.59
  -6   3  -3   55.31   24.44
  -6   3  -3   59.11   21.35
   6   3   3  107.14   28.13
  -6  -3  -3   55.37   18.28
   6  -3   3   75.84   25.31
  -6  -3  -3   60.39   19.81
   6  -3   3   79.26   23.35
  -6   3  -4  151.95   36.01
   6   3   4  200.71   41.90
  -6   3  -4  142.86   32.15
  -6  -3  -4  114.69   25.80
   6  -3   4  254.86   55.47
  -6  -3  -4  116.97   29.37
   6   4  -5 2117.88  347.94
   6   4  -5 2604.90  425.71
  -6   4   5 5224.65  871.14
   6  -4  -5 2550.31  439.36
   6  -4  -5 1962.86  339.74
  -6   4   4  907.54  169.12
   6   4  -4  284.93   62.90
  -6   4   4  970.56  189.17
   6   4  -4  452.58   92.24
   6   4  -4  553.77  104.83
   6  -4  -4  406.71   81.15
   6  -4  -4  412.85   80.06
   6  -4  -4  462.21   96.12
   6   4  -3 1594.49  270.36
  -6   4   3 2072.82  357.98
  -6   4   3 1799.63  308.81
   6   4  -3 1335.63  230.42
   6   4  -3 1224.37  210.33
   6   4  -3 1166.16  202.98
  -6   4   3 1499.82  252.97
   6  -4  -3 1097.55  195.71
   6  -4  -3 1465.86  258.66
   6  -4  -3 1260.20  218.59
   6   4  -2 5221.54  834.08
  -6   4   2 5891.35  927.75
  -6   4   2 5331.02  846.55
  -6   4   2 6201.57  985.05
   6   4  -2 5228.84  828.99
   6   4  -2 5287.96  835.41
  -6  -4   2 7000.04 1094.78
   6  -4  -2 6932.63 1102.65
   6  -4  -2 5308.26  845.82
   6  -4  -2 3426.77  557.30
   6  -4  -2 5425.02  874.43
  -6   4   1   43.72   19.69
   6   4  -1   33.90   15.97
  -6   4   1   34.80   15.47
   6   4  -1   24.90    8.98
  -6   4   1   31.53   18.04
   6   4  -1   31.20   17.37
  -6  -4   1   35.10   12.28
   6  -4  -1   45.83   16.78
   6  -4  -1   45.73   20.68
   6  -4  -1   32.07   17.81
  -6  -4   1   36.55   15.13
   6   4   0 5052.94  809.75
  -6   4   0 4642.68  733.69
   6   4   0 4797.45  756.86
  -6   4   0 4602.36  728.91
   6   4   0 4582.43  729.98
  -6   4   0 5410.52  848.45
  -6  -4   0 4366.30  700.93
  -6  -4   0 4467.21  712.80
   6  -4   0 4396.64  703.51
  -6  -4   0 5603.45  882.56
   6  -4   0 4720.97  759.18
   6   4   1 1012.15  175.36
  -6   4  -1 1163.13  199.03
  -6   4  -1 1160.63  198.21
  -6   4  -1 1249.11  213.79
   6   4   1 1196.07  202.18
  -6   4  -1  877.54  152.61
   6   4   1 1113.30  189.30
  -6  -4  -1 1134.69  196.09
   6  -4   1 1254.97  220.09
   6  -4   1  973.61  167.79
  -6  -4  -1 1028.38  181.14
  -6  -4  -1 1262.93  215.26
  -6   4  -2 1869.14  316.04
  -6   4  -2  282.19   58.41
   6   4   2  343.41   66.94
   6  -4   2  365.33   75.65
   6   4   3 1228.41  209.52
  -6   4  -3  915.25  160.36
  -6   4  -3  974.58  174.49
   6  -4   3 1264.75  227.88
   6  -4   3 1210.15  211.11
  -6  -4  -3  960.21  169.87
  -6  -4  -3  881.22  154.95
  -6   4  -4   41.11   14.32
  -6   4  -4   43.07   14.45
   6   4   4   56.04   18.42
  -6  -4  -4   36.89   11.83
  -6  -4  -4   34.39   10.91
   6  -4   4   66.12   28.00
  -6   5   5   38.79   29.06
   6   5  -5   14.11   12.89
   6  -5  -5   20.25   14.11
  -6  -5   5   42.39   17.91
   6  -5  -5   24.05   16.80
  -6   5   4 6788.19 1093.48
   6   5  -4 3123.87  509.39
  -6   5   4 7576.93 1220.79
  -6   5   4 4696.77  768.38
   6   5  -4 4478.92  716.64
   6  -5  -4 3743.77  631.41
   6  -5  -4 4171.02  690.25
   6  -5  -4 3706.08  602.94
   6   5  -3  102.79   28.10
  -6   5   3  162.13   44.21
  -6   5   3  154.15   36.28
   6   5  -3  117.88   29.04
  -6   5   3  152.97   38.66
   6   5  -3  105.23   25.21
   6  -5  -3  133.85   39.72
   6  -5  -3  117.72   28.38
  -6  -5   3   78.99   29.81
   6  -5  -3  190.23   43.79
   6   5  -2 1781.16  296.48
  -6   5   2 1866.56  314.51
  -6   5   2 1759.89  292.41
  -6   5   2 1879.28  310.40
   6   5  -2 1693.86  279.22
   6   5  -2 1733.35  293.70
   6  -5  -2 1715.65  291.17
   6  -5  -2 1680.54  292.06
   6  -5  -2 1854.08  317.39
  -6  -5   2 2239.82  369.43
  -6   5   1 1138.21  191.24
  -6   5   1  973.25  168.80
   6   5  -1  924.66  154.30
  -6   5   1 1072.27  185.81
   6   5  -1 1061.39  182.36
   6   5  -1 1063.23  184.31
   6   5  -1  875.30  152.63
   6  -5  -1 1026.05  183.32
   6  -5  -1  974.46  170.98
  -6  -5   1  809.36  142.17
   6  -5  -1  968.05  171.38
  -6  -5   1 1132.57  192.14
  -6   5   0  598.17  107.17
  -6   5   0  512.36   99.65
   6   5   0  521.62   96.87
   6   5   0  550.92  100.53
  -6   5   0  530.41   97.40
   6   5   0  507.94   94.03
  -6  -5   0  593.01  107.52
  -6  -5   0  468.73   87.81
   6  -5   0  646.17  120.61
   6  -5   0  488.03   91.58
  -6   5  -1   63.66   19.64
  -6   5  -1   61.82   19.95
   6   5   1   56.71   15.35
   6   5   1   76.42   20.88
  -6   5  -1   62.83   18.82
   6   5   1   66.26   19.29
  -6  -5  -1   66.06   20.58
  -6  -5  -1   63.56   20.15
   6  -5   1   89.25   27.75
  -6  -5  -1   80.47   19.96
  -6   5  -2 1228.27  211.18
  -6   5  -2 1277.56  220.82
   6   5   2 1409.87  237.21
  -6   5  -2 1042.65  181.08
  -6   5  -2 1019.67  176.85
  -6  -5  -2 1189.17  210.20
   6  -5   2 1557.17  269.43
  -6  -5  -2 1559.63  273.58
  -6  -5  -2 1021.36  179.90
   6   5   3  152.09   40.41
  -6   5  -3  119.65   29.96
  -6   5  -3  118.53   29.94
  -6  -5  -3   91.42   24.22
  -6  -5  -3  113.04   26.95
   6  -5   3  162.42   39.13
  -6  -5  -3  128.70   32.62
   6  -5   3  151.78   38.30
   6   5   4  417.74   77.28
  -6   5  -4  248.26   45.21
  -6   5  -4  291.42   56.16
  -6  -5  -4  263.65   50.63
   6  -5   4  509.64   94.95
   6   6  -5  236.98   45.56
  -6   6   5  577.26  115.32
   6  -6  -5  276.63   59.85
   6  -6  -5  257.21   57.52
   6   6  -4  805.22  142.62
  -6   6   4 1711.64  299.71
  -6   6   4 1551.46  267.39
   6   6  -4 1106.78  191.45
  -6   6   4 1350.63  231.70
   6  -6  -4  844.18  156.35
   6  -6  -4 1020.99  187.68
   6  -6  -4  930.25  163.70
  -6  -6   4 1987.84  337.58
  -6   6   3  473.76   91.44
   6   6  -3  399.27   76.24
   6   6  -3  381.63   75.70
   6   6  -3  319.77   62.03
  -6   6   3  460.72   95.95
  -6   6   3  562.21  109.72
   6  -6  -3  415.17   87.59
  -6  -6   3  634.88  119.17
   6  -6  -3  424.45   83.40
   6   6  -2 5404.38  859.46
  -6   6   2 6022.59  944.00
   6   6  -2 5817.72  912.39
   6   6  -2 5688.00  897.97
  -6   6   2 5728.26  911.23
  -6   6   2 5982.28  945.70
   6  -6  -2 5904.40  952.99
  -6  -6   2 7473.31 1172.21
   6  -6  -2 5609.25  896.00
   6  -6  -2 4451.69  734.50
   6   6  -1  170.81   39.16
   6   6  -1  178.38   40.78
   6   6  -1  154.10   33.58
   6   6  -1  145.46   30.29
  -6   6   1  164.58   39.01
  -6   6   1  176.48   46.13
  -6   6   1  171.96   36.89
   6  -6  -1  122.29   31.10
   6  -6  -1  156.89   38.13
   6  -6  -1  163.55   37.61
  -6  -6   1  166.41   38.75
  -6   6   0 6784.46 1063.85
   6   6   0 7164.77 1135.88
   6   6   0 6766.60 1069.90
  -6   6   0 6364.19 1000.15
   6   6   0 6569.46 1031.20
  -6   6   0 6851.60 1069.60
   6  -6   0 6580.33 1048.81
  -6  -6   0 5942.72  959.92
  -6  -6   0 7493.26 1175.51
   6  -6   0 6338.77 1004.76
  -6   6  -1    6.76   10.80
   6   6   1   22.54   10.72
  -6   6  -1   39.83   13.52
   6   6   1  119.45   28.62
  -6   6  -1    3.50    8.13
   6  -6   1    5.17   13.46
  -6  -6  -1    3.12    8.45
  -6  -6  -1    3.64   10.13
  -6   6  -2 1217.06  210.41
   6   6   2 1361.62  231.47
  -6   6  -2 1479.45  251.11
  -6   6  -2 1534.00  259.15
   6   6   2 1871.78  311.04
  -6  -6  -2 1461.18  249.38
   6  -6   2 1877.89  321.74
  -6  -6  -2 1506.69  255.06
  -6   6  -3    9.50    8.30
   6   6   3   16.55   12.06
  -6   6  -3   13.78   12.16
  -6  -6  -3   11.63   12.01
   6  -6   3   15.33   15.40
   6  -6   3   17.64   17.78
  -6  -6  -3   13.59    8.46
  -6  -6  -3   23.99   12.84
   6   6   4  141.43   30.57
  -6   6  -4  105.75   25.37
   6  -6   4  167.74   38.39
  -6  -6  -4   94.02   21.61
   6   7  -5   18.18    9.41
  -6   7   5   23.03   14.40
   6  -7  -5   14.37   14.33
  -6   7   4 5413.34  871.73
   6   7  -4 2701.51  439.24
   6   7  -4 3372.12  540.28
  -6   7   4 3642.96  593.73
  -6   7   4 4033.51  652.71
   6  -7  -4 2192.00  366.42
   6  -7  -4 2773.55  457.93
  -6  -7   4 4654.15  742.08
   6  -7  -4 2990.96  502.85
   6   7  -3 2562.92  415.11
   6   7  -3 2327.41  385.11
  -6   7   3 3061.58  502.66
  -6   7   3 2445.54  398.25
  -6   7   3 2741.80  456.71
  -6  -7   3 3552.97  575.47
   6  -7  -3 2654.33  449.08
   6  -7  -3 2413.19  401.54
  -6   7   2  755.84  135.27
   6   7  -2  688.84  123.39
   6   7  -2  703.26  123.59
  -6   7   2  729.64  133.42
  -6   7   2  764.52  133.17
   6   7  -2  688.64  125.65
  -6  -7   2  857.11  150.52
   6  -7  -2  705.53  133.05
   6  -7  -2  688.81  127.80
   6   7  -1 5232.15  826.96
   6   7  -1 5944.06  959.39
   6   7  -1 5728.16  905.21
  -6   7   1 6524.37 1029.52
  -6   7   1 5582.81  871.69
   6   7  -1 5733.00  905.62
  -6   7   1 5661.96  896.99
   6  -7  -1 4240.14  698.14
  -6  -7   1 7408.60 1164.46
   6  -7  -1 5491.93  893.78
   6  -7  -1 5599.53  892.34
   6   7   0  654.03  121.85
  -6   7   0  652.92  114.97
  -6   7   0  692.40  125.31
   6   7   0  766.26  137.26
   6   7   0  592.63  107.08
  -6   7   0  641.89  114.70
  -6  -7   0  509.23   94.70
   6  -7   0  607.51  111.13
  -6  -7   0  695.20  124.84
   6  -7   0  629.66  118.03
  -6   7  -1 2021.93  333.49
  -6   7  -1 2155.13  356.06
   6   7   1 2046.93  336.06
   6   7   1 2408.80  393.53
  -6   7  -1 2039.95  335.71
  -6  -7  -1 2221.64  368.07
   6  -7   1 2325.74  390.37
  -6  -7  -1 1842.68  311.14
  -6   7  -2 1667.46  284.49
  -6   7  -2 1243.84  214.48
  -6   7  -2 1481.31  248.56
   6   7   2 2055.31  338.73
  -6  -7  -2 1678.76  281.84
   6  -7   2 2086.66  353.76
  -6  -7  -2 1154.30  206.67
  -6  -7  -2 1620.16  273.97
   6   7   3  373.78   71.43
  -6   7  -3  268.57   54.22
  -6  -7  -3  232.90   45.35
  -6  -7  -3  250.53   50.64
   6  -7   3  334.47   71.82
   6  -7   3  348.52   74.71
   6   8  -4    3.59    8.92
  -6   8   4    0.65    8.88
  -6   8   4    6.26   12.35
   6   8  -4    1.15    9.09
  -6   8   4    0.29   10.12
   6  -8  -4    6.54   15.19
   6  -8  -4   18.63   10.54
  -6  -8   4    4.80   11.58
   6   8  -3 2950.63  472.19
  -6   8   3 2984.84  478.89
  -6   8   3 3484.45  569.39
  -6   8   3 3089.34  509.16
   6   8  -3 2663.97  433.86
   6  -8  -3 3062.42  513.52
  -6  -8   3 3668.85  589.94
   6  -8  -3 2935.03  483.59
  -6   8   2   54.56   15.32
   6   8  -2   40.29   14.35
   6   8  -2   30.11   11.23
  -6   8   2   67.92   22.55
   6   8  -2   33.71   15.67
  -6   8   2   37.61   16.12
   6  -8  -2  114.32   31.56
  -6  -8   2   42.27   24.92
   6  -8  -2   38.90   18.58
  -6   8   1   17.16   13.38
   6   8  -1   22.18   12.01
   6   8  -1   15.30   12.35
   6   8  -1   14.39    7.31
  -6   8   1   19.27   13.11
  -6   8   1   16.40    8.18
   6   8  -1   15.28    9.86
   6  -8  -1   25.53   18.08
   6  -8  -1   10.97    9.68
   6  -8  -1   22.47   15.13
  -6  -8   1   18.14   12.52
   6   8   0   34.60   13.91
  -6   8   0    6.92    6.16
   6   8   0   12.15   11.20
   6   8   0    6.96    6.21
  -6   8   0   10.09    8.68
  -6   8   0    7.68   11.17
   6  -8   0    7.59    8.49
  -6  -8   0   17.99   13.00
   6  -8   0    8.10   11.70
  -6   8  -1 1905.90  314.79
   6   8   1 2805.45  454.71
  -6   8  -1 1930.13  321.67
  -6   8  -1 2467.82  404.82
   6   8   1 2392.80  390.11
  -6  -8  -1 2116.94  356.44
  -6  -8  -1 2634.40  432.77
   6  -8   1 2692.35  447.66
  -6   8  -2   92.81   21.43
   6   8   2  189.94   41.55
  -6   8  -2  165.71   38.12
  -6  -8  -2  147.79   34.99
   6  -8   2  188.67   45.91
  -6  -8  -2  113.79   26.83
  -6  -8  -2  151.77   36.19
   6   8   3 2114.39  343.77
  -6   8  -3 1607.61  264.99
  -6  -8  -3 1416.32  233.27
   6  -8   3 2146.78  370.37
   6  -8   3 2044.10  343.29
  -6  -8  -3 1501.78  250.60
  -6   9   4 1909.89  315.39
   6   9  -4 1565.40  254.46
  -6   9   4 1979.76  327.22
   6   9  -4 1378.37  228.17
  -6   9   4 1888.45  305.35
   6  -9  -4 1427.40  253.02
   6  -9  -4 1339.29  236.25
   6   9  -3 1953.46  321.88
  -6   9   3 2213.88  356.81
   6   9  -3 2041.15  330.83
  -6   9   3 2110.66  350.11
  -6   9   3 2589.73  427.02
   6  -9  -3 1910.06  322.24
   6  -9  -3 2060.98  357.20
  -6  -9   3 2464.68  403.77
   6   9  -2  338.18   65.10
  -6   9   2  335.75   67.65
   6   9  -2  325.21   60.55
   6   9  -2  323.16   67.56
  -6   9   2  398.24   77.20
  -6   9   2  326.52   60.05
   6  -9  -2  332.23   70.26
  -6  -9   2  373.39   71.98
   6   9  -1 4491.21  715.54
   6   9  -1 4416.70  702.48
  -6   9   1 4250.97  678.87
  -6   9   1 4776.05  760.94
   6   9  -1 4568.30  740.11
  -6   9   1 3527.03  566.39
   6   9  -1 3645.32  574.57
  -6  -9   1 4345.69  695.44
   6  -9  -1 4495.77  725.63
   6  -9  -1 3174.04  526.83
   6  -9  -1 4467.35  721.98
   6   9   0    1.79    8.72
   6   9   0   16.94    7.41
  -6   9   0    1.77    9.84
   6   9   0    6.81   10.79
  -6   9   0    2.92   12.17
   6  -9   0    5.23   10.75
  -6  -9   0    5.90   11.42
   6  -9   0    1.83    7.29
  -6   9  -1 1302.43  222.17
   6   9   1 1644.51  275.74
   6   9   1 1288.82  217.87
  -6  -9  -1 1331.84  228.32
  -6  -9  -1 1062.08  188.46
   6  -9   1 1450.32  253.10
  -6   9  -2  269.47   54.95
   6   9   2  366.72   70.79
  -6  -9  -2  198.31   42.65
  -6  -9  -2  213.32   43.83
   6  -9   2  328.09   69.13
  -6  -9  -2  259.83   53.98
   6   9   3   80.08   22.39
  -6   9  -3   40.07   18.56
  -6  -9  -3   38.73   13.44
  -6  -9  -3   35.53   11.47
   6  -9   3   46.46   16.07
   6  -9   3   52.24   25.93
   6  10  -4  497.09   86.06
   6  10  -4  454.59   79.64
  -6  10   4  659.73  115.88
  -6  10   4  679.49  119.08
   6 -10  -4  510.14   98.69
  -6  10   3  616.58  112.41
  -6  10   3  577.81   98.57
  -6  10   3  749.16  133.74
   6  10  -3  586.38  105.16
   6  10  -3  555.89   97.31
   6 -10  -3  600.79  117.61
   6 -10  -3  554.57  103.64
  -6 -10   3  546.61   96.60
   6  10  -2 2552.45  420.00
   6  10  -2 3021.29  485.59
   6  10  -2 2989.52  481.43
  -6  10   2 3094.15  501.46
   6  10  -2 2821.45  449.26
  -6  10   2 3267.89  531.41
  -6 -10   2 2968.38  481.66
   6 -10  -2 2859.28  470.66
   6 -10  -2 3069.42  515.90
   6  10  -1   39.97   13.85
  -6  10   1   33.62   14.00
  -6  10   1   34.32   16.98
   6  10  -1   63.52   20.31
   6  10  -1   57.20   16.25
  -6 -10   1   30.69   13.04
   6 -10  -1   34.74   19.00
   6 -10  -1   30.22   11.81
   6 -10  -1  105.75   29.78
  -6 -10   1   28.69   10.31
   6  10   0 3717.41  595.23
  -6  10   0 3360.53  539.55
   6  10   0 4175.40  669.16
  -6  10   0 2949.77  471.73
   6 -10   0 3375.80  566.92
   6 -10   0 3178.67  519.46
  -6 -10   0 3776.97  610.29
  -6  10  -1  445.98   83.89
   6  10   1  521.61   96.00
  -6 -10  -1  366.83   70.99
   6 -10   1  449.45   88.98
  -6 -10  -1  264.73   53.84
  -6 -10  -1  400.06   77.87
   6  10   2 1613.70  267.94
  -6  10  -2 1158.26  194.99
  -6 -10  -2  923.77  171.99
  -6 -10  -2 1143.27  194.17
   6 -10   2 1499.99  257.98
  -6 -10  -2  941.57  164.79
   6  11  -3   32.72   15.57
  -6  11   3    9.88   10.79
  -6  11   3   11.46   16.22
  -6 -11   3   11.67    9.45
   6 -11  -3    6.22   12.89
   6 -11  -3    6.91   10.02
   6  11  -2 1600.26  263.03
  -6  11   2 1624.14  269.15
  -6  11   2 1606.74  266.80
   6  11  -2 1337.90  220.23
  -6 -11   2 1250.65  220.99
  -6 -11   2 1731.89  288.61
   6 -11  -2 1588.71  278.29
   6 -11  -2 1491.51  254.09
  -6 -11   2 1587.63  274.10
  -6  11   1    2.07    6.73
  -6  11   1   10.39   11.12
   6  11  -1   16.39    9.20
   6  11  -1    7.24    5.81
   6 -11  -1    5.47    8.10
  -6 -11   1    4.99    9.14
  -6 -11   1    3.82    7.99
  -6 -11   1    6.64    5.32
   6 -11  -1    7.00   10.37
  -6  11   0  457.88   85.97
  -6  11   0  357.61   63.78
   6  11   0  509.96   92.71
   6 -11   0  405.94   84.06
  -6 -11   0  418.39   80.48
  -6 -11   0  440.72   82.40
   6 -11   0  376.34   71.01
   6  11   1   73.06   21.72
  -6  11  -1   58.46   19.44
   6 -11   1   63.22   21.30
  -6 -11  -1   77.69   22.04
  -6 -11  -1   52.26   16.51
  -6  11  -2 1122.28  186.35
   6  11   2 1597.05  262.85
  -6 -11  -2 1196.57  200.16
   6 -11   2 1501.08  257.10
  -6 -11  -2  574.97  110.19
   6  12  -2 2410.21  381.06
  -6  12   2 2981.61  476.00
   6  12  -2 2463.46  389.98
  -6  12   2 2774.29  443.74
  -6 -12   2 2809.85  476.17
   6 -12  -2 2992.93  500.57
   6 -12  -2 2767.68  452.39
  -6  12   1   46.29   16.57
  -6  12   1   45.27   16.25
   6  12  -1   51.80   15.44
   6 -12  -1   42.32   14.82
   6 -12  -1   45.03   16.64
  -6 -12   1   48.43   13.21
  -6 -12   1   40.50   15.40
  -6 -12   1   45.05   14.36
   6  12   0 2208.48  358.05
  -6  12   0 1895.86  309.21
  -6 -12   0 1922.83  320.43
   6 -12   0 1746.64  299.44
  -6 -12   0 1778.00  296.22
  -6  12  -1   53.11   16.65
   6  12   1   52.95   16.57
  -6 -12  -1   47.47   15.28
   6 -12   1   64.51   32.45
  -6 -12  -1   43.13   15.99
  -6  13   1 3587.88  564.95
   6  13  -1 3596.53  564.27
   6 -13  -1 3479.85  560.88
  -6 -13   1 3589.95  589.94
   6  13   0  367.70   67.18
  -6  13   0  298.52   55.86
  -6 -13   0  319.79   64.51
  -6 -13   0  280.27   52.28
   7   0  -5   18.55   10.97
   7   0  -5    1.53   11.35
  -7   0   4   26.21   13.26
   7   0  -4   16.05   14.32
   7   0  -4   26.44   14.17
   7   0  -3    2.05    8.51
   7   0  -3    0.96    9.98
   7   0  -3   26.88   18.68
  -7   0   3    1.71    8.81
   7   0  -3    4.25    8.89
   7   0  -2  730.55  133.29
  -7   0   2  626.83  112.34
   7   0  -2  721.78  128.20
  -7   0   2  803.30  139.85
   7   0  -2  746.42  136.27
   7   0  -2  691.41  127.58
  -7   0   1    8.59   10.13
   7   0  -1    9.19   13.24
   7   0  -1    4.96   14.64
  -7   0   1    1.54    8.33
  -7   0   1   22.82    8.25
  -7   0   0 1250.81  209.89
   7   0   0 1489.88  259.99
  -7   0   0 1422.40  241.04
   7   0   0 1351.23  230.77
   7   0   1    2.03    6.24
  -7   0  -1    3.30   10.17
   7   0   1    0.94   15.48
   7   0   1   21.60    9.04
  -7   0  -1    6.02   10.69
   7   0   2   36.37   12.75
  -7   0  -2   10.15   12.44
  -7   0  -2   19.02   13.17
   7   0   2    6.07   10.26
  -7   0  -3    2.57    7.08
   7   0   3   20.62   12.78
  -7   0  -3   67.21   28.46
  -7   0  -3    2.16    6.40
   7   1  -5   19.47   13.04
  -7   1   5   20.46   11.87
   7  -1  -5   14.52   13.50
  -7   1   4    2.85   14.09
   7   1  -4    1.89   12.15
  -7  -1   4    1.98    6.47
   7  -1  -4    0.74   10.72
  -7   1   3    4.41   12.11
   7   1  -3    9.11    9.09
   7   1  -3   11.50   11.10
   7   1  -3   11.35   10.98
   7   1  -3    4.87   10.70
   7  -1  -3   25.51   16.17
   7  -1  -3    1.59    9.00
  -7  -1   3    3.57    7.57
   7  -1  -3    1.80    7.72
   7  -1  -3    5.41   10.39
  -7   1   2    9.96   11.06
   7   1  -2    6.64   11.18
  -7   1   2    7.06    9.55
   7   1  -2    9.75   20.34
   7   1  -2    7.37    8.92
   7   1  -2    5.73    8.13
  -7  -1   2    7.43    7.74
   7  -1  -2    6.43    7.09
   7  -1  -2    7.31   11.14
   7  -1  -2    7.17   13.00
  -7  -1   2    4.87    5.71
   7   1  -1 1173.61  203.17
  -7   1   1 1361.36  229.02
  -7   1   1 1129.40  193.15
  -7   1   1  935.99  158.39
   7   1  -1 1168.51  203.80
  -7  -1   1 1071.94  183.26
   7  -1  -1 1135.45  199.06
  -7  -1   1 1092.73  183.37
  -7  -1   1 1189.67  199.82
   7  -1  -1 1237.65  215.67
   7   1   0 2141.31  353.69
  -7   1   0 1999.12  327.03
   7   1   0 2307.50  382.93
  -7   1   0 2154.13  354.27
  -7  -1   0 1859.98  302.98
   7  -1   0 2283.04  381.99
   7  -1   0 2411.23  402.56
  -7  -1   0 2216.76  364.79
  -7  -1   0 2003.99  329.80
  -7   1  -1  170.61   39.70
   7   1   1  168.03   38.34
   7   1   1  203.31   44.37
  -7   1  -1  191.06   43.24
   7   1   1  155.64   33.90
   7  -1   1  154.76   34.37
  -7  -1  -1  166.95   38.90
   7  -1   1  159.05   33.21
  -7  -1  -1  165.64   37.79
   7  -1   1  186.59   43.70
  -7   1  -2 4982.33  796.14
  -7   1  -2 3740.61  616.07
   7   1   2 5322.74  837.22
  -7   1  -2 5177.10  826.68
  -7  -1  -2 5161.38  825.25
   7  -1   2 5402.99  894.50
  -7  -1  -2 4877.36  779.04
   7  -1   2 6131.67  968.25
  -7   1  -3  138.25   39.82
  -7   1  -3  111.65   25.67
  -7   1  -3  131.78   32.75
   7   1   3  158.77   37.31
  -7  -1  -3  137.51   32.82
   7  -1   3  155.69   35.80
  -7  -1  -3  136.25   32.50
   7   2  -5    6.83    9.20
   7   2  -5    3.68    9.52
  -7   2   5    5.77   11.82
   7  -2  -5    4.58    9.23
   7  -2  -5    3.57   11.30
   7   2  -4   52.87   19.75
  -7   2   4   72.13   29.18
   7   2  -4   43.09   16.55
   7   2  -4   34.54   13.56
   7  -2  -4   47.31   14.60
   7  -2  -4   39.62   17.09
   7  -2  -4   58.02   23.43
  -7   2   3   67.27   24.58
   7   2  -3   57.52   20.26
   7   2  -3   48.46   15.85
   7   2  -3   45.87   16.51
   7   2  -3   49.13   18.71
  -7   2   3   70.72   26.35
   7  -2  -3   51.26   18.75
   7  -2  -3   42.80   15.67
  -7  -2   3   53.75   14.83
   7  -2  -3   39.74   15.45
   7  -2  -3   50.50   21.01
   7   2  -2  313.39   60.91
  -7   2   2  415.19   80.48
  -7   2   2  457.23   86.51
   7   2  -2  374.38   73.60
   7   2  -2  400.28   80.02
   7  -2  -2  371.51   75.07
  -7  -2   2  380.63   72.08
   7  -2  -2  323.88   65.11
   7  -2  -2  342.23   70.10
  -7  -2   2  395.19   74.79
   7  -2  -2  309.62   60.76
  -7   2   1  876.58  158.15
  -7   2   1  731.32  130.61
   7   2  -1  737.64  133.58
   7   2  -1  741.45  135.01
   7  -2  -1  818.35  150.32
  -7  -2   1  704.52  126.01
  -7  -2   1  719.33  124.45
   7  -2  -1  685.57  127.41
  -7  -2   1  707.54  122.83
   7   2   0  753.77  134.31
  -7   2   0  743.32  132.88
  -7   2   0  710.29  126.17
   7   2   0  785.05  140.80
   7  -2   0  720.57  130.68
  -7  -2   0  705.18  123.51
   7  -2   0  827.08  151.70
  -7  -2   0  769.21  135.70
  -7  -2   0  704.98  126.35
   7   2   1 4061.88  654.54
   7   2   1 4263.15  692.69
   7   2   1 4358.87  687.89
  -7   2  -1 4412.28  705.80
  -7   2  -1 3582.34  581.98
  -7   2  -1 4426.94  706.78
   7  -2   1 4018.26  639.32
   7  -2   1 4818.37  780.03
  -7  -2  -1 4055.40  653.74
  -7  -2  -1 3833.20  613.94
  -7   2  -2   23.47   10.04
   7   2   2   34.96   14.92
  -7   2  -2  175.17   43.53
  -7   2  -2   21.18   18.15
   7  -2   2   30.21   15.28
  -7  -2  -2   22.35   13.44
  -7  -2  -2   24.79   15.48
   7  -2   2   27.47   14.37
  -7   2  -3 4177.34  684.60
  -7   2  -3 4995.14  794.87
  -7   2  -3 4100.06  667.68
   7   2   3 5741.87  911.19
  -7  -2  -3 5068.45  809.90
  -7  -2  -3 4740.69  752.77
   7  -2   3 7326.55 1159.81
  -7   3   5  272.16   57.30
   7   3  -5  188.51   38.88
   7  -3  -5  164.67   35.92
   7  -3  -5  154.57   37.51
  -7  -3   5  289.46   59.57
   7   3  -4   97.46   25.80
  -7   3   4  187.05   59.91
   7   3  -4  119.12   34.38
   7   3  -4  142.73   34.40
   7  -3  -4   94.57   25.98
   7  -3  -4  138.57   37.46
   7  -3  -4  122.03   31.57
   7   3  -3  288.62   57.68
   7   3  -3  290.60   64.48
   7   3  -3  313.81   63.53
  -7   3   3  425.65   85.60
   7   3  -3  352.76   70.21
  -7   3   3  446.25   88.34
   7  -3  -3  222.73   48.17
   7  -3  -3  283.98   61.51
   7  -3  -3  284.82   59.75
  -7   3   2  166.86   39.43
  -7   3   2  164.23   39.76
   7   3  -2  114.69   27.06
   7   3  -2  146.05   37.15
   7   3  -2  140.87   33.56
  -7  -3   2  134.18   28.31
   7  -3  -2  140.85   34.92
   7  -3  -2  127.00   33.23
  -7  -3   2  151.47   34.47
   7  -3  -2  113.72   28.89
  -7   3   1 2285.06  374.92
  -7   3   1 2939.19  478.90
   7   3  -1 2411.32  395.96
   7   3  -1 2561.40  427.24
  -7   3   1 1917.34  310.73
  -7  -3   1 2149.15  358.32
  -7  -3   1 2357.04  380.51
   7  -3  -1 2675.78  447.61
   7  -3  -1 2159.72  360.47
  -7  -3   1 2061.47  332.04
  -7   3   0  230.20   48.07
   7   3   0  225.02   48.06
  -7   3   0  198.71   40.79
   7   3   0  224.38   51.74
  -7   3   0  224.81   48.39
  -7  -3   0  221.94   45.17
  -7  -3   0  221.81   44.82
   7  -3   0  212.16   46.27
   7  -3   0  250.57   56.51
  -7  -3   0  216.91   45.96
   7   3   1 1150.71  196.73
  -7   3  -1 1025.62  179.72
  -7   3  -1 1240.67  212.57
  -7   3  -1 1196.89  205.75
   7   3   1 1090.72  190.09
   7   3   1 1159.38  197.07
   7  -3   1 1257.95  221.45
  -7  -3  -1  995.80  175.93
  -7  -3  -1 1111.37  190.59
  -7  -3  -1 1196.88  207.07
  -7   3  -2  317.56   62.76
   7   3   2  394.18   74.25
  -7   3  -2  480.16   93.26
  -7   3  -2  342.02   65.26
   7  -3   2  490.05   96.66
  -7  -3  -2  338.94   66.96
   7  -3   2  427.89   81.36
  -7  -3  -2  360.93   71.97
  -7   3  -3  848.32  151.63
  -7   3  -3  711.71  123.73
   7   3   3  971.28  166.37
  -7   3  -3  695.09  119.73
   7  -3   3 1202.56  207.77
  -7  -3  -3  839.33  148.72
  -7  -3  -3  796.75  138.44
  -7   4   5   83.10   26.83
   7   4  -5   59.70   16.96
   7  -4  -5   40.23   16.09
   7  -4  -5   48.05   15.99
  -7  -4   5   89.77   24.08
   7   4  -4    3.28    9.49
  -7   4   4    8.27   20.30
  -7   4   4    4.42   13.07
   7   4  -4    2.59   12.69
   7  -4  -4   15.49   15.78
   7  -4  -4    0.47    7.89
   7  -4  -4    0.35    7.60
  -7  -4   4    7.91   13.12
   7   4  -3    9.66    7.83
   7   4  -3    7.77    9.14
  -7   4   3   10.45   15.02
  -7   4   3    8.21   12.03
   7   4  -3    8.89   10.92
  -7  -4   3    9.10   13.47
   7  -4  -3   14.39   14.34
   7  -4  -3    7.58   11.52
   7  -4  -3    3.68    6.29
  -7   4   2  528.01  100.61
  -7   4   2  384.31   70.82
   7   4  -2  477.17   93.67
   7   4  -2  392.44   72.25
  -7   4   2  575.62  106.28
   7   4  -2  480.99   93.27
   7  -4  -2  404.11   80.51
   7  -4  -2  382.21   74.74
   7  -4  -2  463.38   90.82
  -7  -4   2  515.74   94.57
  -7   4   1   49.61   18.23
   7   4  -1   39.60   23.67
  -7   4   1   34.96   25.95
  -7   4   1   39.09   12.51
   7   4  -1   39.89   17.61
   7  -4  -1   33.95   16.83
  -7  -4   1   48.16   16.42
  -7  -4   1   33.86   13.30
   7  -4  -1   37.04   18.62
   7   4   0  354.82   66.86
   7   4   0  440.04   84.56
  -7   4   0  389.66   73.49
  -7   4   0  412.49   77.50
   7   4   0  473.03   89.32
  -7   4   0  420.34   80.67
   7  -4   0  438.33   88.90
  -7  -4   0  426.63   79.16
  -7  -4   0  406.79   78.63
   7  -4   0  360.27   71.29
  -7  -4   0  349.95   65.32
  -7   4  -1 2443.12  398.05
  -7   4  -1 2802.83  455.35
  -7   4  -1 2836.02  461.62
   7   4   1 2742.56  451.69
   7   4   1 2589.50  428.73
   7   4   1 2631.09  424.09
  -7  -4  -1 2777.35  455.05
   7  -4   1 3029.82  503.24
  -7  -4  -1 2467.23  413.73
  -7  -4  -1 2707.83  440.55
  -7   4  -2   13.81   11.96
  -7   4  -2    4.67    6.95
  -7   4  -2   11.57    8.84
   7   4   2    7.28   14.28
   7  -4   2    9.02    9.56
   7  -4   2   22.38   15.75
  -7  -4  -2    3.22    7.33
  -7  -4  -2   46.73   26.25
  -7  -4  -2    4.84    5.32
  -7   4  -3 3017.57  483.52
   7   4   3 3680.23  590.34
  -7   4  -3 2647.64  426.52
  -7  -4  -3 2799.07  450.83
   7  -4   3 4221.99  676.19
  -7  -4  -3 3135.83  508.18
   7   5  -5   35.98   16.67
  -7   5   5   58.73   20.82
   7  -5  -5   28.20   12.07
  -7  -5   5   43.30   13.89
  -7   5   4    5.96   15.43
  -7   5   4    2.81    8.44
   7   5  -4    3.62    7.64
   7   5  -4   14.61   10.78
   7  -5  -4    9.36   14.42
   7  -5  -4    1.82    7.06
   7  -5  -4    2.47   11.34
  -7  -5   4   10.59   12.40
  -7   5   3    4.41    6.10
   7   5  -3    5.28    6.60
   7   5  -3    8.05    8.98
   7   5  -3    5.42   11.09
  -7   5   3   17.00   13.63
  -7   5   3    5.67   12.87
  -7  -5   3    8.72   11.76
   7  -5  -3    7.13   12.41
   7  -5  -3    7.96   12.81
  -7   5   2    9.40   11.56
   7   5  -2    7.53   12.95
  -7   5   2    5.76    6.66
   7   5  -2    7.11    7.03
  -7   5   2    8.50   12.99
   7   5  -2   10.46   10.59
   7  -5  -2   10.64   22.09
   7  -5  -2    6.78   10.69
  -7  -5   2    7.94   10.70
   7  -5  -2    5.10    8.45
  -7   5   1  130.15   29.53
  -7   5   1  170.45   38.49
  -7   5   1  152.92   37.48
   7   5  -1  145.13   35.02
   7   5  -1  150.18   36.43
   7  -5  -1  156.22   40.27
  -7  -5   1  160.52   37.38
   7  -5  -1  126.19   40.94
   7   5   0 2754.19  455.24
  -7   5   0 2981.74  483.02
  -7   5   0 2834.68  459.10
   7   5   0 3022.67  493.72
  -7   5   0 2717.45  437.71
   7   5   0 2980.38  483.36
   7  -5   0 2931.16  488.19
  -7  -5   0 2948.34  475.70
  -7  -5   0 2740.63  455.55
   7  -5   0 2620.90  431.24
  -7   5  -1   66.37   20.70
  -7   5  -1    8.39   10.44
  -7   5  -1   10.85    9.84
   7   5   1   12.71    9.06
   7   5   1    7.95   13.02
  -7  -5  -1    9.76   10.87
   7  -5   1    8.08   15.95
  -7  -5  -1   25.06   11.80
  -7   5  -2 4425.41  705.40
  -7   5  -2 3638.98  591.33
  -7   5  -2 3796.37  606.42
   7   5   2 4869.51  777.99
  -7  -5  -2 3480.81  573.11
   7  -5   2 5172.40  845.97
   7  -5   2 4818.92  774.40
  -7  -5  -2 4367.73  702.02
  -7  -5  -2 3853.99  614.19
   7   5   3   26.25   13.31
  -7   5  -3   20.86   10.04
  -7   5  -3   19.04   10.02
   7  -5   3   54.45   23.38
  -7  -5  -3   21.50   14.04
   7   6  -4    8.45    9.35
   7   6  -4    3.75    8.55
  -7   6   4    7.73   13.49
  -7   6   4    7.43    9.83
   7  -6  -4   18.89   10.45
  -7  -6   4    8.53   10.53
   7  -6  -4    7.43   13.81
  -7   6   3  324.65   62.97
   7   6  -3  346.81   69.68
   7   6  -3  336.13   64.19
  -7   6   3  411.65   81.18
   7   6  -3  306.83   60.45
  -7   6   3  435.15   83.06
   7  -6  -3  326.14   68.78
  -7  -6   3  430.47   81.58
   7  -6  -3  321.52   67.14
  -7   6   2  829.68  145.15
   7   6  -2  653.31  112.49
   7   6  -2  688.29  125.00
  -7   6   2  667.02  118.45
   7   6  -2  705.94  126.00
  -7   6   2  786.84  142.16
   7  -6  -2  636.21  118.85
   7  -6  -2  661.98  123.89
  -7  -6   2  744.97  131.45
   7  -6  -2  564.92  107.73
  -7   6   1  127.67   32.60
  -7   6   1  117.55   28.22
   7   6  -1  127.69   32.13
   7   6  -1  124.37   31.17
  -7   6   1  150.20   34.86
  -7  -6   1  136.83   32.98
   7  -6  -1  133.21   35.72
   7  -6  -1  116.02   31.61
   7   6   0 2191.13  369.86
  -7   6   0 2258.70  369.42
  -7   6   0 2056.11  337.71
  -7   6   0 2029.39  330.72
   7   6   0 2355.66  388.16
   7   6   0 2243.50  368.64
  -7  -6   0 2010.70  340.31
   7  -6   0 2190.39  370.95
  -7  -6   0 2211.47  362.42
   7  -6   0 2016.38  336.16
  -7   6  -1  433.56   81.53
   7   6   1  485.70   88.81
  -7   6  -1  470.93   87.17
  -7   6  -1  475.81   88.33
   7   6   1  495.48   90.58
  -7  -6  -1  440.23   84.04
  -7  -6  -1  501.45   93.01
   7  -6   1  510.68  101.45
  -7   6  -2    9.06    9.39
  -7   6  -2    9.14    9.60
  -7   6  -2   16.62    9.91
   7   6   2   14.43   11.18
  -7  -6  -2   11.04   12.52
   7  -6   2   13.12    9.03
  -7  -6  -2   13.79    8.07
   7  -6   2   44.64   20.24
   7   6   3  881.79  149.79
  -7   6  -3  642.84  110.70
  -7   6  -3  712.14  120.15
  -7  -6  -3  623.53  109.16
   7  -6   3  996.91  169.14
  -7   7   4  355.77   68.52
   7   7  -4  254.71   50.61
   7   7  -4  245.93   47.46
  -7   7   4  339.06   65.56
  -7  -7   4  297.80   56.99
   7  -7  -4  230.75   55.24
   7  -7  -4  245.00   54.33
  -7   7   3  322.21   63.30
  -7   7   3  259.29   52.08
   7   7  -3  254.28   50.26
   7   7  -3  271.26   56.44
  -7   7   3  294.29   61.32
   7   7  -3  230.39   45.70
   7  -7  -3  281.34   69.25
  -7  -7   3  289.11   57.38
   7  -7  -3  239.14   55.42
  -7   7   2  145.71   35.77
  -7   7   2  131.13   30.35
  -7   7   2  151.91   34.83
   7   7  -2  125.82   26.66
   7   7  -2  130.17   34.58
   7   7  -2  147.85   35.42
   7  -7  -2  132.76   33.60
  -7  -7   2  159.61   37.05
  -7   7   1  924.45  162.09
   7   7  -1  920.86  160.87
   7   7  -1  905.48  158.00
  -7   7   1  849.14  147.63
  -7   7   1  962.62  163.85
   7  -7  -1  791.55  147.57
   7  -7  -1 2108.94  360.95
  -7  -7   1  976.99  169.38
  -7   7   0  135.30   30.69
   7   7   0   99.12   24.29
   7   7   0  111.34   28.41
  -7   7   0   99.10   26.48
   7   7   0   96.16   22.83
  -7   7   0   78.77   22.30
  -7  -7   0   97.45   29.85
  -7  -7   0   84.72   21.47
   7  -7   0  114.68   33.07
   7  -7   0   92.22   24.21
  -7   7  -1   29.73   11.59
  -7   7  -1   12.63   12.14
  -7   7  -1    7.21    7.72
   7   7   1    7.26    9.10
   7   7   1    7.37    8.51
  -7  -7  -1   15.75   11.63
   7  -7   1   32.81   19.34
  -7  -7  -1   16.93   10.85
  -7   7  -2 2287.34  370.60
   7   7   2 2891.99  465.20
  -7   7  -2 2396.03  387.03
  -7  -7  -2 2592.24  424.92
  -7  -7  -2 2353.92  383.24
   7  -7   2 2933.26  488.04
  -7   7  -3  488.54   85.82
   7   7   3  643.41  114.17
  -7  -7  -3  477.65   85.39
   7   8  -4  279.04   51.61
  -7   8   4  359.71   67.69
   7   8  -4  296.96   56.70
  -7   8   4  382.74   70.36
  -7  -8   4  307.47   56.79
   7  -8  -4  260.93   56.15
   7  -8  -4  262.20   51.74
   7   8  -3   37.41   15.07
   7   8  -3   32.77   11.57
  -7   8   3   41.37   14.32
   7   8  -3   32.04   10.06
  -7   8   3   42.87   17.57
  -7   8   3   34.18   18.25
   7  -8  -3   39.83   28.29
  -7  -8   3   42.76   15.45
   7  -8  -3   37.45   26.22
   7   8  -2  127.64   26.72
  -7   8   2  156.47   37.04
  -7   8   2  142.64   32.20
  -7   8   2  158.99   33.22
   7   8  -2  147.28   33.38
   7   8  -2  154.03   36.07
   7  -8  -2  169.27   44.90
   7  -8  -2  138.20   34.37
  -7  -8   2  172.38   38.27
  -7   8   1  520.88   96.95
  -7   8   1  481.15   88.66
   7   8  -1  498.92   91.76
   7   8  -1  538.05   99.39
  -7   8   1  470.46   83.74
   7  -8  -1  472.47   90.49
   7  -8  -1  447.99   87.39
  -7  -8   1  533.24   97.22
   7   8   0  213.93   45.86
   7   8   0  222.05   45.74
  -7   8   0  201.61   41.24
  -7   8   0  223.67   45.16
  -7   8   0  215.85   46.07
   7   8   0  174.47   35.82
   7  -8   0  181.74   40.02
   7  -8   0  199.69   47.39
  -7  -8   0  236.08   51.56
  -7   8  -1 3463.86  556.35
  -7   8  -1 3189.47  509.43
   7   8   1 3874.05  615.48
  -7   8  -1 3533.72  575.23
   7   8   1 4715.69  755.08
  -7  -8  -1 3927.38  630.28
   7  -8   1 4119.69  675.00
  -7  -8  -1 3528.33  582.79
   7   8   2  104.95   26.65
  -7   8  -2   73.50   20.47
  -7  -8  -2   68.65   18.57
   7  -8   2  101.98   30.29
  -7  -8  -2   77.13   20.80
   7   9  -3   24.17   12.55
  -7   9   3   16.63    9.75
   7   9  -3   20.57    8.91
  -7   9   3   18.89   11.51
  -7   9   3   21.20   13.16
   7  -9  -3   35.91   19.69
   7  -9  -3   16.68   19.91
  -7  -9   3   25.53   10.72
   7   9  -2  190.36   39.89
   7   9  -2  157.66   31.20
   7   9  -2  180.14   39.18
  -7   9   2  204.19   44.83
  -7   9   2  174.65   34.45
  -7   9   2  179.96   38.41
  -7  -9   2  182.13   38.47
   7  -9  -2  175.00   42.73
   7  -9  -2  175.40   40.66
   7   9  -1  858.00  149.48
   7   9  -1  673.15  120.71
  -7   9   1  623.28  106.44
   7   9  -1  810.67  140.08
  -7   9   1  759.22  135.68
  -7   9   1  738.96  129.42
  -7  -9   1  759.90  132.61
   7  -9  -1  702.57  126.63
   7  -9  -1  727.77  130.81
  -7   9   0 2533.31  419.79
   7   9   0  657.55  116.99
   7   9   0  631.97  113.50
   7  -9   0  501.25   92.25
   7  -9   0  604.03  116.39
  -7  -9   0  656.96  118.97
   7   9   1 1322.15  222.32
  -7   9  -1  936.42  162.67
  -7  -9  -1 1068.51  186.58
  -7  -9  -1  926.06  163.02
  -7  -9  -1  687.65  125.63
   7  -9   1 1174.17  208.58
   7   9   2 1346.72  224.29
  -7   9  -2  898.89  152.10
  -7  -9  -2  814.44  140.83
   7  -9   2 1230.99  215.68
  -7  -9  -2  960.08  162.08
  -7  10   3  259.29   49.36
  -7  10   3  317.31   61.00
   7  10  -3  294.73   56.33
   7 -10  -3  247.18   52.36
  -7 -10   3  260.48   52.44
   7  10  -2  538.45   95.71
  -7  10   2  414.64   70.79
  -7  10   2  488.45   87.75
  -7  10   2  574.92  103.38
   7 -10  -2  498.50   95.30
  -7 -10   2  447.18   84.24
  -7 -10   2  457.36   82.25
  -7 -10   2  436.34   82.61
   7 -10  -2  493.56   93.45
  -7  10   1    1.04    7.71
   7  10  -1    0.39    4.16
  -7  10   1    1.11    8.36
   7  10  -1    3.51    5.45
   7  10  -1    1.95    9.32
   7 -10  -1    1.89    5.45
   7 -10  -1    3.98    9.13
  -7 -10   1    1.67    8.86
  -7  10   0  689.28  124.97
  -7  10   0  631.57  107.94
   7  10   0  778.64  134.36
  -7 -10   0  690.34  124.61
   7 -10   0  753.50  139.35
  -7 -10   0  788.17  138.06
  -7  10  -1  549.73   98.45
   7  10   1  764.88  132.23
   7 -10   1  691.43  128.58
  -7 -10  -1  612.65  108.51
  -7 -10  -1  575.60  104.55
  -7  11   2    7.58   13.28
  -7  11   2   19.77    9.52
   7  11  -2    7.78    7.36
   7 -11  -2   40.31   24.43
  -7 -11   2    6.23    5.39
  -7 -11   2    9.24    7.98
  -7  11   1   94.97   21.33
   7  11  -1   93.12   20.19
  -7  11   1  100.10   28.61
  -7 -11   1  104.84   25.01
   7 -11  -1  254.52   57.20
  -7 -11   1   99.05   25.46
  -7  11   0 1063.40  178.98
   7  11   0 1261.90  208.05
  -7  11   0 1007.95  164.51
   7 -11   0 1170.40  205.00
  -7 -11   0 1167.46  195.77
  -7 -11   0 1169.53  199.86
   7  11   1  321.82   59.41
  -7  11  -1  261.15   49.61
  -7 -11  -1  265.95   51.93
  -7 -11  -1  268.85   51.95
   7 -11   1  332.67   66.80
   8   0  -4 4433.06  717.61
   8   0  -4 4116.79  678.38
  -8   0   4 5211.57  820.51
  -8   0   3    1.54    7.90
   8   0  -3 1707.47  292.14
  -8   0   3    4.64    7.74
   8   0  -2 2315.76  669.46
  -8   0   2 3033.46  498.83
  -8   0   2 3215.15  516.01
   8   0  -2 3194.14  527.37
   8   0  -2 3369.41  555.37
  -8   0   2 2863.55  465.88
  -8   0   1    4.19    8.99
   8   0  -1    8.35   13.09
   8   0  -1   18.60   15.69
  -8   0   1    1.06    8.35
  -8   0   0   76.24   24.02
   8   0   0  144.62   38.67
   8   0   0   80.02   26.74
  -8   0   0   79.85   23.20
  -8   0  -1    2.93   10.41
  -8   0  -1    0.97   10.26
   8   0   1    2.21    8.40
   8   0   1    2.74    5.19
  -8   0  -2  128.12   30.78
   8   0   2  115.92   25.50
  -8   0  -2  130.02   31.76
  -8   0  -3    2.55    5.44
  -8   0  -3    2.00    8.43
   8   0   3    3.87    5.26
  -8   1   4   87.05   22.76
   8   1  -4 2343.42  410.10
   8  -1  -4 3109.45  514.04
  -8  -1   4   70.54   22.50
   8   1  -3 1312.69  229.29
   8   1  -3 1255.11  215.55
  -8   1   3 1478.32  246.75
  -8   1   3 1095.23  185.08
   8   1  -3 1903.34  327.14
  -8  -1   3 1295.25  215.02
   8  -1  -3 1300.21  224.29
   8  -1  -3 2138.12  369.86
   8  -1  -3 1222.04  217.84
  -8  -1   3 1319.49  222.03
   8   1  -2 1754.72  488.76
  -8   1   2 2300.94  375.14
   8   1  -2 2140.09  360.94
  -8   1   2 1847.43  306.10
   8   1  -2 2267.04  381.91
  -8   1   2 1792.15  299.17
   8  -1  -2 3893.95  687.28
   8  -1  -2 2124.46  360.33
  -8  -1   2 2151.21  348.95
   8  -1  -2 2053.70  346.98
  -8  -1   2 2014.29  330.08
  -8  -1   2 1723.80  290.01
   8   1  -1  102.34   30.84
  -8   1   1  100.33   25.93
   8   1  -1  104.54   30.01
  -8   1   1   93.64   25.19
  -8  -1   1   94.99   24.97
   8  -1  -1  101.16   29.34
  -8  -1   1   99.87   24.55
  -8  -1   1  120.20   26.78
   8  -1  -1  110.16   31.99
   8   1   0 3915.12  628.85
  -8   1   0 4242.69  677.72
  -8   1   0 3923.25  630.78
   8   1   0 4017.33  651.85
   8  -1   0 3889.83  627.38
  -8  -1   0 3931.40  628.77
   8  -1   0 4250.25  690.08
  -8  -1   0 3668.45  591.99
   8   1   1  219.66   46.34
  -8   1  -1  218.95   46.88
   8   1   1  231.65   45.77
  -8   1  -1  218.88   47.61
  -8  -1  -1  229.45   49.80
   8  -1   1  234.55   50.52
  -8  -1  -1  201.74   46.90
  -8   1  -2  687.83  123.42
  -8   1  -2  710.43  125.75
   8   1   2  653.67  112.90
   8  -1   2  586.20  102.19
  -8  -1  -2  668.68  120.11
  -8  -1  -2  663.52  118.60
   8  -1   2  609.28  110.18
  -8   1  -3   66.46   19.79
  -8   1  -3   35.42    9.12
   8   1   3   66.56   17.00
  -8  -1  -3   78.08   22.33
   8  -1   3   61.34   14.78
  -8  -1  -3   60.56   16.31
  -8   2   4 1848.54  303.56
   8   2  -4 1312.44  221.48
   8   2  -4 1080.67  193.73
  -8  -2   4 1655.49  274.72
   8  -2  -4 1342.49  230.49
   8  -2  -4 1332.29  221.61
   8  -2  -4 1231.77  218.98
   8   2  -3 1094.93  193.64
  -8   2   3 1375.45  232.10
   8   2  -3 1308.05  231.80
   8   2  -3 1182.78  209.07
  -8   2   3 1177.66  198.56
   8  -2  -3 1230.86  213.90
  -8  -2   3  996.45  166.40
   8  -2  -3  993.81  182.26
  -8  -2   3 1240.25  210.96
   8  -2  -3 1509.69  288.53
  -8   2   2  961.77  166.98
   8   2  -2  934.35  169.11
   8   2  -2  578.72  122.18
  -8   2   2  854.99  151.33
   8   2  -2  845.80  152.64
   8  -2  -2  901.21  163.00
   8  -2  -2  813.44  148.70
   8  -2  -2  580.45  118.22
  -8  -2   2  837.50  144.19
  -8  -2   2  730.34  124.97
  -8   2   1 3295.57  528.38
   8   2  -1 3660.69  596.66
  -8   2   1 3201.49  518.45
   8   2  -1 3363.74  546.30
  -8  -2   1 2635.48  423.19
  -8  -2   1 2970.05  487.37
   8  -2  -1 3498.15  574.81
   8  -2  -1 3611.71  590.73
  -8  -2   1 3426.46  552.59
   8   2   0   51.46   19.44
  -8   2   0   39.86   17.58
  -8   2   0   44.46   18.26
   8   2   0   38.46   15.27
  -8  -2   0   30.08    9.78
  -8  -2   0   36.14   13.83
  -8  -2   0   34.48   14.86
   8  -2   0   92.46   29.41
   8  -2   0   39.17   19.43
  -8   2  -1 2755.78  447.76
   8   2   1 2729.35  451.15
  -8   2  -1 2710.85  439.84
   8   2   1 2700.44  430.91
   8   2   1 2153.79  360.33
  -8  -2  -1 2874.13  468.91
  -8  -2  -1 2817.39  457.31
   8  -2   1 3493.58  574.62
   8   2   2  209.20   42.74
  -8   2  -2  219.38   47.37
  -8   2  -2  222.12   45.57
   8  -2   2  213.31   43.76
  -8  -2  -2  206.57   43.77
   8  -2   2  180.43   35.17
  -8  -2  -2  214.23   45.92
  -8   2  -3  417.13   76.70
   8   2   3  464.42   82.45
  -8  -2  -3  433.41   83.25
   8  -2   3  254.24   44.10
  -8  -2  -3  425.20   76.99
   8   3  -4  185.88   40.62
  -8   3   4  305.02   60.99
   8   3  -4  233.23   51.12
  -8  -3   4  274.63   56.23
   8  -3  -4  177.10   50.06
   8  -3  -4  216.07   43.81
   8  -3  -4  198.40   39.99
   8   3  -3 5374.26  844.77
  -8   3   3 4535.28  757.70
  -8   3   3 6151.54  972.19
  -8   3   3 7395.56 1160.73
   8   3  -3 5939.44  949.40
   8   3  -3 5919.42  940.34
   8  -3  -3 6281.56 1006.17
  -8  -3   3 6611.18 1040.69
   8  -3  -3 6262.19 1007.87
   8  -3  -3 4577.77  793.95
   8   3  -2   28.09   23.84
   8   3  -2   17.90    9.42
  -8   3   2   44.51   17.52
  -8   3   2   27.94   23.24
   8   3  -2   28.12   18.35
   8  -3  -2   21.29   11.24
   8  -3  -2   23.91   13.89
  -8  -3   2   23.40   12.16
   8  -3  -2   26.76   18.75
  -8   3   1 1948.76  320.36
   8   3  -1 2198.33  369.27
  -8   3   1 1912.86  318.22
   8   3  -1 2044.12  346.45
  -8  -3   1 1799.21  294.75
   8  -3  -1 2117.89  359.80
   8  -3  -1 2027.01  343.60
  -8  -3   1 2090.85  342.58
  -8  -3   1 1620.60  280.33
  -8   3   0  451.55   90.69
   8   3   0  493.30   91.96
  -8   3   0  500.68   93.93
   8   3   0  471.20   89.79
  -8  -3   0  429.71   81.75
  -8  -3   0  368.57   68.82
  -8  -3   0  382.95   70.64
   8  -3   0  427.77   82.21
   8  -3   0  502.21   99.77
   8   3   1  215.47   43.27
  -8   3  -1  163.71   33.38
   8   3   1  182.19   37.08
  -8   3  -1  228.31   47.91
  -8   3  -1  217.61   46.64
   8   3   1  231.14   47.22
  -8  -3  -1  213.80   43.81
   8  -3   1  271.04   59.39
  -8  -3  -1  231.23   49.26
   8   3   2   82.14   20.28
  -8   3  -2   79.16   20.63
  -8   3  -2   89.05   25.18
   8  -3   2   85.27   18.52
   8  -3   2   92.84   23.43
  -8  -3  -2   80.47   25.78
  -8  -3  -2   82.80   29.06
   8   4  -4 3004.83  484.22
   8   4  -4 3134.44  506.04
  -8   4   4 4414.93  700.44
   8  -4  -4 3263.11  522.47
   8  -4  -4 2604.24  426.31
  -8  -4   4 3879.55  617.74
   8   4  -3  276.92   60.57
   8   4  -3  304.10   63.03
  -8   4   3  329.78   64.98
  -8   4   3  412.14   79.60
   8   4  -3  302.55   60.90
  -8  -4   3  339.28   66.90
   8  -4  -3  320.37   68.09
   8  -4  -3  287.40   64.08
  -8   4   2 1739.30  291.54
  -8   4   2 1952.00  321.93
   8   4  -2 1725.79  290.11
   8   4  -2 1265.60  209.62
   8   4  -2 1898.52  321.04
   8  -4  -2 1512.30  258.09
   8  -4  -2 1597.75  276.98
   8  -4  -2 1652.46  283.78
  -8  -4   2 1694.36  280.28
  -8   4   1 2889.31  469.34
   8   4  -1 3283.84  537.42
  -8   4   1 3010.51  483.85
   8   4  -1 3091.46  503.10
   8  -4  -1 3128.99  517.22
  -8  -4   1 2485.81  420.20
   8  -4  -1 2976.88  490.79
  -8  -4   1 3072.37  495.08
  -8   4   0  548.11  100.69
   8   4   0  578.86  105.86
   8   4   0  617.68  113.44
  -8   4   0  651.77  117.59
  -8   4   0  415.89   75.06
   8  -4   0  686.55  130.40
  -8  -4   0  530.55   98.97
   8  -4   0  583.52  110.75
  -8  -4   0  483.61   89.14
   8   4   1  579.86  105.24
  -8   4  -1  664.94  117.91
  -8   4  -1  545.10   95.94
   8   4   1  620.29  113.42
   8   4   1  679.98  117.83
  -8   4  -1  755.50  133.60
  -8  -4  -1  672.98  121.31
  -8  -4  -1  586.19  103.46
  -8  -4  -1  645.61  111.68
   8  -4   1  828.83  152.13
  -8   4  -2   16.00    7.53
  -8   4  -2   19.45   11.75
   8   4   2   21.33    9.37
  -8   4  -2   20.45    9.25
  -8  -4  -2   18.81   11.55
   8  -4   2   18.02   17.53
  -8  -4  -2   16.94    7.93
   8   5  -4   68.83   18.65
   8   5  -4  119.59   29.23
  -8   5   4  105.50   27.70
   8  -5  -4   94.25   23.17
  -8  -5   4   84.05   23.56
   8  -5  -4   64.76   27.87
   8   5  -3  151.34   33.16
   8   5  -3  196.37   43.46
  -8   5   3  174.87   38.47
  -8   5   3  211.90   45.79
   8   5  -3  145.30   32.57
  -8  -5   3  171.40   38.05
   8  -5  -3  205.58   46.36
   8  -5  -3  157.09   37.85
   8   5  -2 2185.88  360.93
   8   5  -2 1624.52  262.59
  -8   5   2 2193.46  362.58
  -8   5   2 2496.17  405.83
   8   5  -2 2155.35  357.70
   8  -5  -2 1886.31  319.09
  -8  -5   2 2456.11  408.51
   8  -5  -2 2067.02  348.94
   8  -5  -2 1888.62  325.43
  -8   5   1    3.37   10.60
  -8   5   1    8.10   12.41
   8   5  -1    5.90   12.77
   8   5  -1    4.55   12.87
  -8   5   1    2.87    5.47
   8  -5  -1    7.06   13.93
  -8  -5   1    5.45    9.25
   8  -5  -1   47.20   20.07
   8   5   0 3230.80  527.23
   8   5   0 3133.87  505.31
  -8   5   0 2446.82  393.05
  -8   5   0 2982.10  481.22
  -8   5   0 3442.27  552.05
   8  -5   0 3604.54  593.08
  -8  -5   0 3430.75  552.27
  -8  -5   0 2782.76  463.54
   8  -5   0 3223.87  521.85
   8   5   1    4.56    6.33
  -8   5  -1    7.89    8.14
  -8   5  -1    6.56    9.68
  -8   5  -1    5.45    6.25
   8   5   1    4.72    5.60
  -8  -5  -1    9.02   16.11
  -8  -5  -1    5.55    6.52
   8  -5   1   12.95   14.62
  -8   5  -2  590.95  103.47
  -8   5  -2  815.31  139.50
   8   5   2  796.83  135.45
  -8   5  -2  677.97  116.60
   8  -5   2  870.21  155.43
  -8  -5  -2  750.08  131.25
  -8   6   4 4416.87  694.98
   8   6  -4 3353.61  531.67
   8   6  -4 2960.24  468.00
  -8  -6   4 3684.89  584.60
   8  -6  -4 3669.98  603.29
   8   6  -3  128.22   31.86
   8   6  -3  101.81   26.33
   8   6  -3  116.56   26.17
  -8   6   3  127.98   30.70
  -8   6   3  151.37   35.18
   8  -6  -3  109.46   28.91
   8  -6  -3  116.05   30.84
  -8  -6   3  133.75   38.98
  -8   6   2 2227.66  357.64
   8   6  -2 3285.68  532.86
   8   6  -2 2382.34  375.67
  -8   6   2 3520.37  562.00
   8   6  -2 3178.85  513.35
  -8   6   2 3084.97  499.80
   8  -6  -2 2932.75  485.34
   8  -6  -2 2611.97  435.45
  -8  -6   2 3496.42  562.34
   8  -6  -2 2586.01  442.52
  -8   6   1  299.67   60.18
   8   6  -1  309.06   61.18
  -8   6   1  302.74   58.72
   8   6  -1  339.60   67.41
  -8   6   1  259.21   50.86
   8  -6  -1  418.45   87.04
   8  -6  -1  286.73   60.27
  -8  -6   1  302.50   59.73
  -8   6   0   35.12   12.54
   8   6   0   37.48   12.68
  -8   6   0   38.72   15.20
  -8   6   0   32.57   13.72
   8   6   0   35.42   14.87
  -8  -6   0   33.01   13.61
   8  -6   0   36.54   20.05
  -8  -6   0   29.69   11.64
   8  -6   0   29.67   13.06
   8   6   1   41.16   13.18
   8   6   1   81.20   19.48
  -8   6  -1   41.32   18.24
  -8   6  -1   42.67   13.39
  -8   6  -1   43.80   13.19
   8  -6   1   46.44   20.38
  -8  -6  -1   44.19   15.30
  -8  -6  -1   72.15   18.96
   8   6   2  525.18   93.29
  -8   6  -2  392.51   71.84
  -8   6  -2  478.35   84.16
   8  -6   2  563.90  103.90
  -8  -6  -2  486.18   88.45
  -8   7   3 2472.62  400.14
   8   7  -3 2068.95  330.07
  -8   7   3 2674.67  427.55
   8   7  -3 2419.87  390.83
   8   7  -3 2259.96  363.47
   8  -7  -3 2324.44  384.64
   8  -7  -3 2179.72  364.46
  -8  -7   3 2563.10  414.10
  -8   7   2  960.54  159.41
   8   7  -2 1357.28  229.29
   8   7  -2 1356.41  227.34
  -8   7   2 1328.68  224.01
  -8   7   2 1341.53  222.06
   8  -7  -2 1005.90  175.69
   8  -7  -2  788.08  145.31
   8  -7  -2 1171.65  204.88
  -8  -7   2 1307.13  219.75
  -8   7   1 1082.43  181.53
  -8   7   1 1222.83  206.32
   8   7  -1 1300.34  218.76
   8   7  -1 1338.25  226.16
  -8   7   1 1172.34  194.79
  -8  -7   1 1182.04  200.80
   8  -7  -1 1140.19  198.43
   8  -7  -1 1205.01  218.88
  -8   7   0 1319.44  218.75
   8   7   0 1187.05  201.67
   8   7   0 1369.30  230.07
   8   7   0 1607.56  266.39
  -8   7   0 1468.15  242.33
  -8   7   0 1605.39  263.70
   8  -7   0 1791.20  305.74
  -8  -7   0 1738.12  288.95
   8  -7   0 1490.86  248.67
  -8   7  -1   63.71   16.91
   8   7   1   61.38   16.99
  -8   7  -1   56.89   15.02
   8   7   1   58.18   15.45
  -8   7  -1   51.96   14.89
  -8  -7  -1   57.49   21.46
  -8  -7  -1   68.68   18.62
   8  -7   1   69.58   24.66
  -8   7  -2  206.40   42.08
   8   7   2  301.71   56.66
  -8  -7  -2  198.44   38.52
   8  -7   2  295.00   59.17
   8   8  -3  368.72   68.61
  -8   8   3  375.39   69.83
   8   8  -3  294.56   52.75
  -8   8   3  373.56   66.44
   8  -8  -3  317.74   62.95
  -8  -8   3  350.95   65.60
   8   8  -2   60.56   19.05
  -8   8   2   30.98   14.61
   8   8  -2   41.99   14.71
  -8   8   2   26.86   10.13
  -8   8   2   25.07    9.23
   8  -8  -2   28.15   16.51
  -8  -8   2   27.66   13.61
   8   8  -1 3190.07  510.45
  -8   8   1 2657.27  426.14
  -8   8   1 3497.23  557.77
   8   8  -1 3308.26  529.69
  -8   8   1 2958.03  473.70
  -8  -8   1 3735.60  604.57
   8  -8  -1 2911.02  476.55
   8  -8  -1 2902.69  486.85
  -8   8   0   93.52   22.98
   8   8   0   97.22   23.03
  -8   8   0  104.42   23.91
  -8   8   0  102.08   26.60
   8   8   0  113.94   27.96
  -8  -8   0  116.09   28.66
   8  -8   0  120.42   32.72
   8   8   1 2954.59  472.89
  -8   8  -1 2285.27  365.11
  -8   8  -1 2297.39  365.47
  -8   8  -1 2463.08  390.01
   8  -8   1 3228.44  538.97
  -8  -8  -1 2282.49  388.27
  -8  -8  -1 2639.73  423.93
  -8   9   2  208.62   42.85
   8   9  -2  268.85   51.12
  -8   9   2  251.70   49.36
  -8   9   2  203.29   37.37
   8   9  -2  251.57   48.40
   8  -9  -2  240.87   50.57
  -8  -9   2  226.70   49.24
  -8   9   1  277.00   50.70
  -8   9   1  276.46   52.26
   8   9  -1  254.91   47.79
  -8   9   1  266.19   51.19
   8   9  -1  292.34   57.39
  -8  -9   1  324.34   62.65
   8  -9  -1  305.92   60.63
   8  -9  -1  241.71   47.79
   8   9   0  713.68  120.84
  -8   9   0  854.73  143.01
  -8   9   0  733.07  124.23
   8  -9   0 1022.47  182.80
  -8  -9   0  892.88  153.31
  -8  10   1  647.04  109.62
  -8  10   1  711.14  119.42
  -8 -10   1  812.70  138.67
  -8 -10   1  723.35  126.77
   8 -10  -1  736.46  128.63
   9   0  -3    9.59   10.71
  -9   0   3    0.30    5.01
   9   0  -3    0.23    8.24
   9   0  -3    0.49   12.27
  -9   0   3    0.01    4.52
  -9   0   2  307.91   57.29
  -9   0   2  285.35   55.14
  -9   0   2  299.97   56.72
   9   0  -2  429.86   85.23
   9   0  -2  385.62   78.36
  -9   0   1    7.90    8.45
   9   0  -1   30.09   16.65
   9   0  -1    1.64   21.83
  -9   0   1    3.73    9.46
  -9   0   0  653.85  115.55
   9   0   0  729.48  128.54
  -9   0   0  637.53  114.81
   9   0   0  706.55  128.00
  -9   0  -1    6.41   10.79
  -9   0  -1   -0.03    9.05
   9   0   1    2.99   12.33
  -9   0  -2 3682.17  580.92
  -9   0  -2 4022.96  634.92
  -9   1   3    2.63    4.24
   9   1  -3    3.95    8.57
   9   1  -3    4.63    8.70
  -9   1   3    3.65    6.22
   9   1  -3    3.60    7.67
   9  -1  -3   10.15   10.30
   9  -1  -3    0.15    5.97
   9  -1  -3    4.24   13.76
  -9  -1   3    4.63    6.14
  -9   1   2 1095.34  183.01
   9   1  -2 1247.37  213.73
  -9   1   2 1111.08  187.35
   9   1  -2 1414.05  243.58
  -9  -1   2 1157.79  194.43
  -9  -1   2  931.87  154.41
   9  -1  -2 1416.72  243.84
   9  -1  -2 1278.99  219.49
   9   1  -1  123.67   38.06
  -9   1   1  120.51   29.58
   9   1  -1  141.83   37.35
  -9   1   1  140.37   33.42
  -9  -1   1  120.12   27.88
   9  -1  -1  133.05   34.33
  -9  -1   1  112.78   26.58
   9  -1  -1  130.60   35.39
  -9   1   0 2352.79  382.28
   9   1   0 2795.14  459.34
  -9   1   0 2289.51  373.78
   9   1   0 2504.24  405.19
   9  -1   0 2371.01  383.29
  -9  -1   0 2504.27  409.31
  -9  -1   0 2207.55  358.09
   9  -1   0 2573.39  424.67
   9   1   1 1060.35  182.49
  -9   1  -1 1022.45  174.30
  -9   1  -1 1044.53  178.55
   9  -1   1  975.39  168.28
  -9  -1  -1 1006.96  172.61
  -9  -1  -1  976.94  165.66
   9   2  -3  319.94   62.37
   9   2  -3  224.77   42.59
   9   2  -3  327.88   62.15
  -9   2   3  308.72   57.48
   9  -2  -3  322.25   62.56
  -9  -2   3  299.73   55.94
   9  -2  -3  272.06   53.03
   9  -2  -3  218.60   41.43
   9   2  -2   59.89   22.03
  -9   2   2   51.47   15.95
  -9   2   2   45.44   15.51
   9   2  -2   52.90   18.93
  -9  -2   2   48.32   14.40
   9  -2  -2   55.38   20.06
   9  -2  -2   53.24   21.88
  -9   2   1 1861.10  306.61
   9   2  -1 2722.14  449.08
   9   2  -1 2494.44  408.48
  -9   2   1 2322.87  380.36
   9  -2  -1 2465.29  409.82
  -9  -2   1 2208.09  364.34
  -9  -2   1 2072.08  335.86
   9  -2  -1 2415.71  397.12
  -9  -2   1 1725.83  289.06
   9   2   0   35.84   16.03
  -9   2   0   28.84   14.92
  -9   2   0   30.59   14.30
   9   2   0   31.81   14.59
  -9  -2   0   24.47   13.62
   9  -2   0   31.33   16.20
   9  -2   0   27.56   12.63
  -9  -2   0   34.47   14.23
  -9   2  -1 2474.38  401.21
  -9   2  -1 2454.77  396.60
  -9  -2  -1 2205.85  356.38
   9  -2   1 2420.67  397.60
  -9  -2  -1 2337.37  380.84
  -9   3   3  386.03   70.16
   9   3  -3  412.28   74.97
   9   3  -3  404.80   75.83
   9  -3  -3  271.32   54.68
  -9  -3   3  370.37   71.01
   9  -3  -3  429.08   79.85
   9   3  -2  184.09   40.54
  -9   3   2  158.48   34.26
  -9   3   2  161.37   38.27
   9   3  -2  205.49   46.10
  -9  -3   2  167.69   34.88
   9  -3  -2  194.34   43.13
   9  -3  -2  188.58   42.61
   9   3  -1   14.74   15.04
  -9   3   1   10.43   15.00
   9   3  -1   23.72   16.62
  -9   3   1   18.10   17.18
   9  -3  -1   20.95   15.18
  -9  -3   1   12.37    7.71
   9  -3  -1   24.95   16.93
  -9  -3   1   25.16    9.71
  -9   3   0   72.96   21.99
   9   3   0   63.88   19.00
  -9   3   0   61.02   19.14
   9   3   0   74.18   21.41
   9  -3   0   73.66   23.19
   9  -3   0   70.37   18.77
  -9  -3   0   62.61   17.95
  -9   3  -1 2079.21  337.50
  -9   3  -1 2072.49  337.69
   9  -3   1 1999.25  331.30
  -9  -3  -1 1930.09  316.32
  -9   4   3   75.03   19.33
   9   4  -3   80.57   21.70
   9   4  -3   81.25   19.59
  -9  -4   3   83.63   21.13
   9  -4  -3   84.98   23.03
  -9   4   2   54.29   16.74
  -9   4   2   55.30   17.76
   9   4  -2   62.16   20.89
   9   4  -2   63.01   19.81
  -9  -4   2   60.91   16.90
   9  -4  -2   63.27   19.13
   9  -4  -2   60.63   21.18
  -9   4   1 1790.13  297.12
  -9   4   1 2013.25  334.55
   9   4  -1 2041.51  339.15
   9   4  -1 1816.05  300.62
   9  -4  -1 1811.70  301.33
   9  -4  -1 1805.56  305.31
  -9  -4   1 1461.37  239.32
   9   4   0  144.99   32.98
  -9   4   0  129.78   31.25
  -9   4   0  128.06   30.71
   9   4   0  132.87   30.03
  -9  -4   0  117.92   24.69
   9  -4   0  120.51   26.98
  -9  -4   0  117.03   26.95
   9  -4   0  139.83   34.73
  -9   4  -1 1047.54  176.36
  -9   4  -1 1074.01  180.45
  -9  -4  -1  972.38  165.43
   9  -4   1 1036.36  178.52
  -9   5   3  102.01   23.65
   9   5  -3  104.21   22.61
   9   5  -3  112.86   27.01
   9  -5  -3  110.12   26.79
  -9  -5   3  105.13   24.24
  -9   5   2  928.80  158.64
   9   5  -2 1008.93  173.17
   9   5  -2  983.36  167.21
  -9   5   2  885.57  149.47
  -9  -5   2  920.88  155.43
   9  -5  -2  949.97  165.89
   9  -5  -2 1021.15  176.25
  -9   5   1  261.22   53.13
   9   5  -1  228.73   47.71
  -9   5   1  237.83   54.03
   9   5  -1  226.51   46.68
   9  -5  -1  221.75   47.84
   9  -5  -1  234.08   49.04
  -9  -5   1  186.82   39.65
   9   5   0 2205.84  359.36
  -9   5   0 2358.57  379.18
   9   5   0 2445.21  393.99
  -9   5   0 2358.55  380.25
  -9  -5   0 2235.81  359.67
   9  -5   0 2500.18  412.95
  -9   5  -1   77.09   20.16
  -9   5  -1   79.95   19.94
  -9  -5  -1   76.40   19.37
   9  -5   1  104.38   25.78
   9   6  -2  201.47   41.21
  -9   6   2  176.92   37.16
  -9   6   2  167.79   34.53
   9   6  -2  197.98   41.37
  -9  -6   2  180.37   36.67
   9  -6  -2  186.37   46.96
   9  -6  -2  153.54   35.05
   9   6  -1  484.18   88.09
   9   6  -1  446.77   80.98
  -9   6   1  449.22   86.11
  -9   6   1  496.63   89.61
  -9  -6   1  491.48   88.75
   9  -6  -1  436.26   80.59
   9  -6  -1  421.15   80.01
   9   6   0 1125.71  187.66
  -9   6   0 1026.75  170.97
  -9   6   0 1044.14  174.47
  -9  -6   0 1050.29  174.42
   9  -6   0 1121.97  193.80
  -9   7   2  337.77   62.32
  -9   7   2  287.92   54.38
   9   7  -2  378.17   73.32
   9   7  -2  363.47   66.11
   9  -7  -2  361.37   73.78
  -9  -7   2  301.85   55.37
   9   7  -1   36.55   12.10
  -9   7   1   41.30   13.86
   9   7  -1   37.12   14.61
  -9   7   1   41.84   14.42
   9  -7  -1   35.36   13.06
  -9  -7   1   38.54   14.16
   9  -7  -1   35.70   13.33
   9   7   0 1361.43  222.08
  -9   7   0 1284.98  209.68
  -9   7   0 1227.83  201.60
   9  -7   0 1401.21  237.67
  -9  -7   0 1311.42  214.57
  10   0  -2  577.83  107.33
  10   0  -2  625.04  113.13
 -10   0   1    2.75    6.49
  10   0  -1    1.69   10.65
 -10   0   1    1.74    6.18
  10   0  -1    1.65   11.32
 -10   0   0 2054.08  331.84
  10   0   0 2424.99  394.19
 -10   0   0 2031.48  325.19
  10   1  -2 1892.38  315.38
  10   1  -2 1830.09  299.78
 -10   1   2 1650.64  266.75
  10  -1  -2 1959.90  320.72
  10  -1  -2 2152.89  353.26
  10   1  -1  476.74   87.03
 -10   1   1  466.46   83.38
 -10   1   1  425.90   76.16
  10   1  -1  540.22   99.60
  10  -1  -1  549.37  101.43
  10  -1  -1  481.17   88.01
 -10   2   1 2021.71  324.71
  10   2  -1 2470.70  403.24
  10   2  -1 2128.68  344.00
 -10   2   1 1847.75  298.42
  10  -2  -1 2472.62  406.46
  10  -2  -1 2180.69  352.18
;
_shelx_hkl_checksum              44549
loop_
_space_group_symop_id
_space_group_symop_operation_xyz
1 +X,+Y,+Z
2 -X,1/2+Y,1/2-Z
3 -X,-Y,-Z
4 +X,-1/2-Y,-1/2+Z
loop_
_atom_site_label
_atom_site_type_symbol
_atom_site_fract_x
_atom_site_fract_y
_atom_site_fract_z
_atom_site_U_iso_or_equiv
_atom_site_adp_type
_atom_site_occupancy
_atom_site_site_symmetry_order
_atom_site_calc_flag
_atom_site_refinement_flags_posn
_atom_site_refinement_flags_adp
Se1 Se 0.85619(6) 0.33785(4) 0.58425(11) 0.0161(3) Uani 1 1 d . .
Se2 Se 0.67453(6) 0.65338(4) 0.47050(12) 0.0161(3) Uani 1 1 d . .
C1 C 0.9387(5) 0.5970(4) 0.9573(9) 0.0161(3) Uani 1 1 d . .
H1 H 0.8978 0.6615 0.9303 0.019 Uiso 1 1 calc R U
C2 C 0.9466(5) 0.4253(3) 0.8377(9) 0.0161(3) Uani 1 1 d . .
C3 C 0.8849(5) 0.5213(3) 0.7909(10) 0.0161(3) Uani 1 1 d . .
C4 C 0.7696(5) 0.5295(3) 0.5610(10) 0.0161(3) Uani 1 1 d . .
C5 C 0.7415(5) 0.4452(3) 0.4308(10) 0.0161(3) Uani 1 1 d . .
H5 H 0.6704 0.4409 0.2765 0.019 Uiso 1 1 calc R U
C6 C 0.5333(5) 0.6165(3) 0.1678(9) 0.0161(3) Uani 1 1 d . .
H6A H 0.4737 0.6741 0.0958 0.019 Uiso 1 1 calc R U
H6B H 0.5974 0.5901 0.0492 0.019 Uiso 1 1 calc R U
H6C H 0.4574 0.5666 0.2050 0.019 Uiso 1 1 calc R U
loop_
_atom_site_aniso_label
_atom_site_aniso_U_11
_atom_site_aniso_U_22
_atom_site_aniso_U_33
_atom_site_aniso_U_23
_atom_site_aniso_U_13
_atom_site_aniso_U_12
Se1 0.0107(3) 0.0173(4) 0.0201(5) -0.00070(13) 0.0017(3) 0.00015(12)
Se2 0.0107(3) 0.0173(4) 0.0201(5) -0.00070(13) 0.0017(3) 0.00015(12)
C1 0.0107(3) 0.0173(4) 0.0201(5) -0.00070(13) 0.0017(3) 0.00015(12)
C2 0.0107(3) 0.0173(4) 0.0201(5) -0.00070(13) 0.0017(3) 0.00015(12)
C3 0.0107(3) 0.0173(4) 0.0201(5) -0.00070(13) 0.0017(3) 0.00015(12)
C4 0.0107(3) 0.0173(4) 0.0201(5) -0.00070(13) 0.0017(3) 0.00015(12)
C5 0.0107(3) 0.0173(4) 0.0201(5) -0.00070(13) 0.0017(3) 0.00015(12)
C6 0.0107(3) 0.0173(4) 0.0201(5) -0.00070(13) 0.0017(3) 0.00015(12)
loop_
_atom_type_symbol
_atom_type_description
_atom_type_scat_dispersion_real
_atom_type_scat_dispersion_imag
_atom_type_scat_source
C C 0.0181 0.0091
;
International Tables for Crystallography
(Vol. C, Tables 4.2.6.8 and 6.1.1.4)
;
H H 0.0000 0.0000
;
International Tables for Crystallography
(Vol. C, Table 6.1.1.4)
;
Se Se -0.7943 1.1372
;
International Tables for Crystallography
(Vol. C, Tables 4.2.6.8 and 6.1.1.4)
;
loop_
_geom_angle_atom_site_label_1
_geom_angle_atom_site_label_2
_geom_angle_atom_site_label_3
_geom_angle
_geom_angle_site_symmetry_1
C5 Se1 C2 86.9(2) .
C4 Se2 C6 99.3(2) .
C2 C1 C3 117.9(4) 3_767
C2 C1 H1 121.1 3_767
C3 C1 H1 121.1 .
C1 C2 C3 122.3(5) 3_767
C1 C2 Se1 126.4(4) 3_767
C3 C2 Se1 111.3(4) .
C1 C3 C2 119.8(4) .
C1 C3 C4 126.8(4) .
C2 C3 C4 113.4(4) .
C5 C4 C3 114.8(4) .
C5 C4 Se2 126.3(4) .
C3 C4 Se2 118.9(3) .
C4 C5 Se1 113.6(4) .
C4 C5 H5 123.2 .
Se1 C5 H5 123.2 .
Se2 C6 H6A 109.5 .
Se2 C6 H6B 109.5 .
H6A C6 H6B 109.5 .
Se2 C6 H6C 109.5 .
H6A C6 H6C 109.5 .
H6B C6 H6C 109.5 .
loop_
_geom_bond_atom_site_label_1
_geom_bond_atom_site_label_2
_geom_bond_distance
_geom_bond_site_symmetry_2
Se1 C5 1.876(5) .
Se1 C2 1.890(5) .
Se2 C4 1.903(5) .
Se2 C6 1.934(5) .
C1 C2 1.384(7) 3_767
C1 C3 1.401(7) .
C1 H1 0.9500 .
C2 C1 1.384(7) 3_767
C2 C3 1.419(6) .
C3 C4 1.456(6) .
C4 C5 1.354(7) .
C5 H5 0.9500 .
C6 H6A 0.9800 .
C6 H6B 0.9800 .
C6 H6C 0.9800 .
loop_
_geom_torsion_atom_site_label_1
_geom_torsion_atom_site_label_2
_geom_torsion_atom_site_label_3
_geom_torsion_atom_site_label_4
_geom_torsion
_geom_torsion_site_symmetry_1
_geom_torsion_site_symmetry_4
C5 Se1 C2 C1 -177.5(4) . 3_767
C5 Se1 C2 C3 0.9(4) . .
C2 C1 C3 C2 0.8(7) 3_767 .
C2 C1 C3 C4 -177.9(4) 3_767 .
C1 C2 C3 C1 -0.9(8) 3_767 .
Se1 C2 C3 C1 -179.4(3) . .
C1 C2 C3 C4 178.0(4) 3_767 .
Se1 C2 C3 C4 -0.6(5) . .
C1 C3 C4 C5 178.4(5) . .
C2 C3 C4 C5 -0.4(6) . .
C1 C3 C4 Se2 -1.4(6) . .
C2 C3 C4 Se2 179.8(3) . .
C3 C4 C5 Se1 1.1(6) . .
Se2 C4 C5 Se1 -179.0(2) . .
C2 Se1 C5 C4 -1.2(4) . .
