#------------------------------------------------------------------------------
#$Date: 2016-03-21 01:21:50 +0200 (Mon, 21 Mar 2016) $
#$Revision: 178377 $
#$URL: svn://www.crystallography.net/cod/cif/4/00/20/4002090.cif $
#------------------------------------------------------------------------------
#
# This file is available in the Crystallography Open Database (COD),
# http://www.crystallography.net/
#
# All data on this site have been placed in the public domain by the
# contributors.
#
data_4002090
loop_
_publ_author_name
'Nanthamathee, Chompoonoot'
'Ling, Sanliang'
'Slater, Ben'
'Attfield, Martin P.'
_publ_section_title
;
 Contradistinct Thermoresponsive Behavior of Isostructural MIL-53 Type
 Metal--Organic Frameworks by Modifying the Framework Inorganic Anion
;
_journal_name_full               'Chemistry of Materials'
_journal_page_first              141223143002002
_journal_paper_doi               10.1021/cm503311x
_journal_year                    2014
_chemical_formula_sum            'C8 Al F O4'
_chemical_formula_weight         206.06
_chemical_name_systematic        ' ?'
_space_group_IT_number           74
_symmetry_cell_setting           orthorhombic
_symmetry_space_group_name_Hall  '-I 2b 2'
_symmetry_space_group_name_H-M   'I m m a'
_audit_creation_date             2014-08-28T13:12
_audit_creation_method           'from EXP file using GSAS2CIF'
_audit_update_record
' 2014-08-28T13:12  Initial CIF as created by GSAS2CIF'
_cell_angle_alpha                90.0
_cell_angle_beta                 90.0
_cell_angle_gamma                90.0
_cell_formula_units_Z            4
_cell_length_a                   6.56849(15)
_cell_length_b                   16.3904(5)
_cell_length_c                   13.2097(6)
_cell_volume                     1422.16(8)
_computing_structure_refinement  GSAS
_diffrn_radiation_polarisn_ratio 0.95
_diffrn_radiation_probe          x-ray
_diffrn_radiation_wavelength     0.825993
_exptl_absorpt_correction_T_max  1.00000
_exptl_absorpt_correction_T_min  1.00000
_exptl_absorpt_process_details
;   GSAS Absorption/surface roughness correction: function number 0
 No correction is applied.
;
_pd_block_id                     2014-08-28T13:12|175K|175K|Synchrotron_I11
_pd_calc_method                  'Rietveld Refinement'
_pd_instr_location               ' ?'
_pd_meas_2theta_range_inc        0.003
_pd_meas_2theta_range_max        149.9955
_pd_meas_2theta_range_min        0.0015
_pd_meas_number_of_points        49999
_pd_phase_name                   300K
_pd_proc_2theta_range_inc        0.003
_pd_proc_2theta_range_max        150.00458
_pd_proc_2theta_range_min        0.010584
_pd_proc_info_datetime           2014-08-28T13:12:47
_pd_proc_info_excluded_regions   ' ?'
_pd_proc_ls_background_function
;   GSAS Background function number 1 with  2 terms.
 Shifted Chebyshev function of 1st kind
      1:    0.00000     2:    0.00000    
;
_pd_proc_ls_peak_cutoff          0.00010
_pd_proc_ls_profile_function
;
 CW Profile function number 4 with  18 terms
 Pseudovoigt profile coefficients as parameterized in
 P. Thompson, D.E. Cox & J.B. Hastings (1987). J. Appl. Cryst.,20,79-83.
 Asymmetry correction of L.W. Finger, D.E. Cox & A. P. Jephcoat (1994).
 J. Appl. Cryst.,27,892-900.
 Microstrain broadening by P.W. Stephens,  (1999). J. Appl. Cryst.,32,281-289.
 Peak tails are ignored  where the intensity is below 0.0001 times the peak
   Aniso. broadening axis   1.0   0.0   1.0
;
_pd_proc_ls_prof_R_factor        0.0343
_pd_proc_ls_prof_wR_expected     0.0250
_pd_proc_ls_prof_wR_factor       0.0442
_pd_proc_number_of_points        49999
_pd_spec_mounting                ' ?'
_refine_ls_goodness_of_fit_all   1.77
_refine_ls_matrix_type           full
_refine_ls_number_parameters     28
_refine_ls_number_restraints     0
_refine_ls_R_Fsqd_factor         0.26383
_refine_ls_shift/su_max          0.01
_refine_ls_shift/su_mean         0.01
_reflns_d_resolution_high        1.208
_reflns_d_resolution_low         8.195
_reflns_limit_h_max              5
_reflns_limit_h_min              0
_reflns_limit_k_max              13
_reflns_limit_k_min              0
_reflns_limit_l_max              11
_reflns_limit_l_min              0
_reflns_number_total             253
_cod_data_source_file            alf175K.cif
_cod_data_source_block           175K_publ
_cod_depositor_comments
;
The following automatic conversions were performed:

'_geom_bond_publ_flag' value 'N' changed to 'n' according to
/home/saulius/struct/COD-crude-data--automatic-downloads/rss-feeds/ACS/lib/dictionaries/cif_core.dic
dictionary named 'cif_core.dic' version 2.4.2 from 2011-04-26 (18
times).

'_geom_angle_publ_flag' value 'N' changed to 'n' according
to
/home/saulius/struct/COD-crude-data--automatic-downloads/rss-feeds/ACS/lib/dictionaries/cif_core.dic
dictionary named 'cif_core.dic' version 2.4.2 from 2011-04-26 (24
times).

Automatic conversion script
Id: cif_fix_values 2935 2014-11-11 08:27:57Z andrius 
;
_cod_database_code               4002090
#BEGIN Tags that were not found in dictionaries:
_gsas_exptl_extinct_corr_t_min   1.00000
_gsas_exptl_extinct_corr_t_max   1.00000
#END Tags that were not found in dictionaries
loop_
_symmetry_equiv_pos_site_id
_symmetry_equiv_pos_as_xyz
1 +x,+y,+z
2 -x,+y,+z
3 +x,-y+1/2,+z
4 -x,-y+1/2,+z
-1 -x,-y,-z
-2 +x,-y,-z
-3 -x,+y+1/2,-z
-4 +x,+y+1/2,-z
101 +x+1/2,+y+1/2,+z+1/2
102 -x+1/2,+y+1/2,+z+1/2
103 +x+1/2,-y,+z+1/2
104 -x+1/2,-y,+z+1/2
-101 -x+1/2,-y+1/2,-z+1/2
-102 +x+1/2,-y+1/2,-z+1/2
-103 -x+1/2,+y,-z+1/2
-104 +x+1/2,+y,-z+1/2
loop_
_atom_site_type_symbol
_atom_site_label
_atom_site_fract_x
_atom_site_fract_y
_atom_site_fract_z
_atom_site_occupancy
_atom_site_thermal_displace_type
_atom_site_U_iso_or_equiv
_atom_site_symmetry_multiplicity
Al Al1 0.25 0.25 0.75 1.0 Uiso 0.0238(19) 4
F F1 0.0 0.25 0.6939(6) 1.0 Uiso 0.0170(14) 4
O O1 0.1699(6) 0.16767(25) 0.8405(4) 1.0 Uiso 0.0170(14) 16
C C1 -0.1968(7) 0.0292(5) 0.9582(7) 1.0 Uiso 0.0178(22) 16
C C2 0.0 0.0642(6) 0.9472(9) 1.0 Uiso 0.0178(22) 8
C C3 0.0 0.1359(7) 0.8673(9) 1.0 Uiso 0.0178(22) 8
loop_
_atom_type_symbol
_atom_type_number_in_cell
_atom_type_scat_dispersion_real
_atom_type_scat_dispersion_imag
_atom_type_scat_Cromer_Mann_a1
_atom_type_scat_Cromer_Mann_a2
_atom_type_scat_Cromer_Mann_a3
_atom_type_scat_Cromer_Mann_a4
_atom_type_scat_Cromer_Mann_b1
_atom_type_scat_Cromer_Mann_b2
_atom_type_scat_Cromer_Mann_b3
_atom_type_scat_Cromer_Mann_b4
_atom_type_scat_Cromer_Mann_c
_atom_type_scat_source
Al 4.0 0.000 0.000 6.42020 3.03870 1.90020 0.74260 1.59360 31.5472 1.96460
85.0886 1.11510 International_Tables_Vol_C
F 4.0 0.000 0.000 3.53920 10.2825 2.64120 4.29440 1.51700 0.26150 1.02430
26.1476 0.27760 International_Tables_Vol_C
O 16.0 0.000 0.000 3.04850 13.2771 2.28680 5.70110 1.54630 0.32390 0.86700
32.9089 0.25080 International_Tables_Vol_C
C 32.0 0.000 0.000 2.31000 20.8439 1.02000 10.2075 1.58860 0.56870 0.86500
51.6512 0.21560 International_Tables_Vol_C
loop_
_geom_angle_atom_site_label_1
_geom_angle_atom_site_label_2
_geom_angle_atom_site_label_3
_geom_angle
_geom_angle_site_symmetry_1
_geom_angle_site_symmetry_3
_geom_angle_publ_flag
F1 Al1 F1 180.0 1_555 -101_546 n
F1 Al1 O1 90.38(19) 1_555 1_555 n
F1 Al1 O1 90.38(19) 1_555 3_555 n
F1 Al1 O1 89.62(19) 1_555 -101_566 n
F1 Al1 O1 89.62(19) 1_555 -103_566 n
F1 Al1 O1 89.62(19) -101_566 1_555 n
F1 Al1 O1 89.62(19) -101_566 3_555 n
F1 Al1 O1 90.38(19) -101_566 -101_566 n
F1 Al1 O1 90.38(19) -101_566 -103_566 n
O1 Al1 O1 91.85(32) 1_555 3_555 n
O1 Al1 O1 180.0 1_555 -101_566 n
O1 Al1 O1 88.15(32) 1_555 -103_566 n
O1 Al1 O1 88.15(32) 3_555 -101_566 n
O1 Al1 O1 180.0 3_555 -103_566 n
O1 Al1 O1 91.85(32) -101_566 -103_566 n
Al1 F1 Al1 131.4(5) 1_555 2_555 n
Al1 O1 C3 135.4(6) 1_555 1_555 n
C1 C1 C2 110.0(6) -2_557 1_555 n
C1 C2 C1 130.8(11) 1_555 2_555 n
C1 C2 C3 111.6(6) 1_555 1_555 n
C1 C2 C3 111.6(6) 2_555 1_555 n
O1 C3 O1 121.1(10) 1_555 2_555 n
O1 C3 C2 119.1(5) 1_555 1_555 n
O1 C3 C2 119.1(5) 2_555 1_555 n
loop_
_geom_bond_atom_site_label_1
_geom_bond_atom_site_label_2
_geom_bond_distance
_geom_bond_site_symmetry_2
_geom_bond_publ_flag
Al1 F1 1.8017(33) 1_555 n
Al1 F1 1.8017(33) -101_445 n
Al1 O1 1.8782(33) 1_555 n
Al1 O1 1.8782(33) 3_555 n
Al1 O1 1.8782(33) -101_445 n
Al1 O1 1.8782(33) -103_445 n
F1 Al1 1.8017(33) 1_555 n
F1 Al1 1.8017(33) 2_555 n
O1 Al1 1.8782(33) 1_555 n
O1 C3 1.281(5) 1_555 n
C1 C1 1.461(11) -2_557 n
C1 C2 1.422(6) 1_555 n
C2 C1 1.422(6) 1_555 n
C2 C1 1.422(6) 2_555 n
C2 C3 1.580(10) 1_555 n
C3 O1 1.281(5) 1_555 n
C3 O1 1.281(5) 2_555 n
C3 C2 1.580(10) 1_555 n
loop_
_pd_meas_intensity_total
_pd_proc_ls_weight
_pd_proc_intensity_bkg_calc
_pd_calc_intensity_total
18.8(23) 0.0 0.00 .
12.6(19) 0.0 0.00 .
17.6(24) 0.0 0.00 .
20.6(27) 0.0 0.00 .
41.6(34) 0.0 0.00 .
157(7) 0.0 0.0 .
130(6) 0.0 0.0 .
915(16) 0.0 0.0 .
1619(21) 0.0 0.0 .
3019(30) 0.0 0.0 .
3502(31) 0.0 0.0 .
3415(30) 0.0 0.0 .
3441(32) 0.0 0.0 .
1085(19) 0.0 0.0 .
97(5) 0.0 0.0 .
59(4) 0.0 0.0 .
58(4) 0.0 0.0 .
37.3(33) 0.0 0.00 .
31.1(30) 0.0 0.00 .
67(4) 0.0 0.0 .
218(8) 0.0 0.0 .
359(10) 0.0 0.0 .
812(16) 0.0 0.0 .
967(17) 0.0 0.0 .
1058(17) 0.0 0.0 .
1273(19) 0.0 0.0 .
1385(20) 0.0 0.0 .
1549(21) 0.0 0.0 .
1820(23) 0.0 0.0 .
1861(23) 0.0 0.0 .
2072(24) 0.0 0.0 .
2115(25) 0.0 0.0 .
1829(23) 0.0 0.0 .
1602(22) 0.0 0.0 .
1144(18) 0.0 0.0 .
654(13) 0.0 0.0 .
343(10) 0.0 0.0 .
224(8) 0.0 0.0 .
132(6) 0.0 0.0 .
74(4) 0.0 0.0 .
44.2(35) 0.0 0.00 .
44(4) 0.0 0.0 .
35.9(34) 0.0 0.00 .
27.4(28) 0.0 0.00 .
27.0(27) 0.0 0.00 .
28.1(28) 0.0 0.00 .
31.3(31) 0.0 0.00 .
27.3(26) 0.0 0.00 .
35.1(32) 0.0 0.00 .
22.9(25) 0.0 0.00 .
34.9(30) 0.0 0.00 .
30.5(30) 0.0 0.00 .
36.2(33) 0.0 0.00 .
32.6(29) 0.0 0.00 .
31.5(29) 0.0 0.00 .
30.8(30) 0.0 0.00 .
36.7(33) 0.0 0.00 .
28.5(29) 0.0 0.00 .
29.6(30) 0.0 0.00 .
25.6(27) 0.0 0.00 .
28.3(28) 0.0 0.00 .
31.2(31) 0.0 0.00 .
27.9(28) 0.0 0.00 .
41(4) 0.0 0.0 .
33.5(30) 0.0 0.00 .
33.8(30) 0.0 0.00 .
36.2(33) 0.0 0.00 .
34.6(32) 0.0 0.00 .
34.0(30) 0.0 0.00 .
34.0(30) 0.0 0.00 .
29.9(29) 0.0 0.00 .
36.5(33) 0.0 0.00 .
41(4) 0.0 0.0 .
39.5(34) 0.0 0.00 .
33.2(30) 0.0 0.00 .
35.3(31) 0.0 0.00 .
36.6(33) 0.0 0.00 .
41.6(35) 0.0 0.00 .
34.8(31) 0.0 0.00 .
34.5(31) 0.0 0.00 .
40.1(34) 0.0 0.00 .
38.7(35) 0.0 0.00 .
27.8(30) 0.0 0.00 .
31.9(31) 0.0 0.00 .
33.0(30) 0.0 0.00 .
31.6(30) 0.0 0.00 .
35.1(34) 0.0 0.00 .
31.1(31) 0.0 0.00 .
35.2(31) 0.0 0.00 .
34.9(30) 0.0 0.00 .
40.2(34) 0.0 0.00 .
43(4) 0.0 0.0 .
44(4) 0.0 0.0 .
46(4) 0.0 0.0 .
62(4) 0.0 0.0 .
61(4) 0.0 0.0 .
77(5) 0.0 0.0 .
87(5) 0.0 0.0 .
87(5) 0.0 0.0 .
103(5) 0.0 0.0 .
102(5) 0.0 0.0 .
112(6) 0.0 0.0 .
101(5) 0.0 0.0 .
137(6) 0.0 0.0 .
144(6) 0.0 0.0 .
151(7) 0.0 0.0 .
153(7) 0.0 0.0 .
167(7) 0.0 0.0 .
171(7) 0.0 0.0 .
171(7) 0.0 0.0 .
181(7) 0.0 0.0 .
205(8) 0.0 0.0 .
209(8) 0.0 0.0 .
208(7) 0.0 0.0 .
220(8) 0.0 0.0 .
249(9) 0.0 0.0 .
245(9) 0.0 0.0 .
250(8) 0.0 0.0 .
247(8) 0.0 0.0 .
253(8) 0.0 0.0 .
299(9) 0.0 0.0 .
294(9) 0.0 0.0 .
322(10) 0.0 0.0 .
311(9) 0.0 0.0 .
329(10) 0.0 0.0 .
323(10) 0.0 0.0 .
358(10) 0.0 0.0 .
333(10) 0.0 0.0 .
348(10) 0.0 0.0 .
363(10) 0.0 0.0 .
360(10) 0.0 0.0 .
383(11) 0.0 0.0 .
387(10) 0.0 0.0 .
377(10) 0.0 0.0 .
383(10) 0.0 0.0 .
417(11) 0.0 0.0 .
429(11) 0.0 0.0 .
441(11) 0.0 0.0 .
409(10) 0.0 0.0 .
447(12) 0.0 0.0 .
463(12) 0.0 0.0 .
441(11) 0.0 0.0 .
452(11) 0.0 0.0 .
447(11) 0.0 0.0 .
469(11) 0.0 0.0 .
501(12) 0.0 0.0 .
501(12) 0.0 0.0 .
499(12) 0.0 0.0 .
476(11) 0.0 0.0 .
513(12) 0.0 0.0 .
505(12) 0.0 0.0 .
518(12) 0.0 0.0 .
552(12) 0.0 0.0 .
544(12) 0.0 0.0 .
510(12) 0.0 0.0 .
569(13) 0.0 0.0 .
534(12) 0.0 0.0 .
503(12) 0.0 0.0 .
508(12) 0.0 0.0 .
559(13) 0.0 0.0 .
556(13) 0.0 0.0 .
557(13) 0.0 0.0 .
539(12) 0.0 0.0 .
558(12) 0.0 0.0 .
568(13) 0.0 0.0 .
573(13) 0.0 0.0 .
544(12) 0.0 0.0 .
586(13) 0.0 0.0 .
570(13) 0.0 0.0 .
586(13) 0.0 0.0 .
589(13) 0.0 0.0 .
586(13) 0.0 0.0 .
566(12) 0.0 0.0 .
578(13) 0.0 0.0 .
610(13) 0.0 0.0 .
607(13) 0.0 0.0 .
618(13) 0.0 0.0 .
638(13) 0.0 0.0 .
611(13) 0.0 0.0 .
633(14) 0.0 0.0 .
605(13) 0.0 0.0 .
637(13) 0.0 0.0 .
623(13) 0.0 0.0 .
611(13) 0.0 0.0 .
638(14) 0.0 0.0 .
656(14) 0.0 0.0 .
612(13) 0.0 0.0 .
634(13) 0.0 0.0 .
664(14) 0.0 0.0 .
630(14) 0.0 0.0 .
652(14) 0.0 0.0 .
687(14) 0.0 0.0 .
655(13) 0.0 0.0 .
698(14) 0.0 0.0 .
670(14) 0.0 0.0 .
661(14) 0.0 0.0 .
649(13) 0.0 0.0 .
686(14) 0.0 0.0 .
707(14) 0.0 0.0 .
724(15) 0.0 0.0 .
688(14) 0.0 0.0 .
681(13) 0.0 0.0 .
704(14) 0.0 0.0 .
692(14) 0.0 0.0 .
728(15) 0.0 0.0 .
721(15) 0.0 0.0 .
705(14) 0.0 0.0 .
669(14) 0.0 0.0 .
716(14) 0.0 0.0 .
732(15) 0.0 0.0 .
745(15) 0.0 0.0 .
726(14) 0.0 0.0 .
674(14) 0.0 0.0 .
707(14) 0.0 0.0 .
733(15) 0.0 0.0 .
718(14) 0.0 0.0 .
758(14) 0.0 0.0 .
736(14) 0.0 0.0 .
766(15) 0.0 0.0 .
736(15) 0.0 0.0 .
758(15) 0.0 0.0 .
764(14) 0.0 0.0 .
719(14) 0.0 0.0 .
755(15) 0.0 0.0 .
781(15) 0.0 0.0 .
755(15) 0.0 0.0 .
798(15) 0.0 0.0 .
795(15) 0.0 0.0 .
760(15) 0.0 0.0 .
748(15) 0.0 0.0 .
765(15) 0.0 0.0 .
818(15) 0.0 0.0 .
777(15) 0.0 0.0 .
791(15) 0.0 0.0 .
781(15) 0.0 0.0 .
780(15) 0.0 0.0 .
772(14) 0.0 0.0 .
781(15) 0.0 0.0 .
830(16) 0.0 0.0 .
842(16) 0.0 0.0 .
832(15) 0.0 0.0 .
798(15) 0.0 0.0 .
801(15) 0.0 0.0 .
870(16) 0.0 0.0 .
841(16) 0.0 0.0 .
806(15) 0.0 0.0 .
794(15) 0.0 0.0 .
840(16) 0.0 0.0 .
833(16) 0.0 0.0 .
800(15) 0.0 0.0 .
852(15) 0.0 0.0 .
846(15) 0.0 0.0 .
873(16) 0.0 0.0 .
862(16) 0.0 0.0 .
849(16) 0.0 0.0 .
827(15) 0.0 0.0 .
875(15) 0.0 0.0 .
854(16) 0.0 0.0 .
852(16) 0.0 0.0 .
872(16) 0.0 0.0 .
878(15) 0.0 0.0 .
857(15) 0.0 0.0 .
840(15) 0.0 0.0 .
902(17) 0.0 0.0 .
883(16) 0.0 0.0 .
887(15) 0.0 0.0 .
875(15) 0.0 0.0 .
865(16) 0.0 0.0 .
910(17) 0.0 0.0 .
868(16) 0.0 0.0 .
904(16) 0.0 0.0 .
845(15) 0.0 0.0 .
888(16) 0.0 0.0 .
858(16) 0.0 0.0 .
897(16) 0.0 0.0 .
881(15) 0.0 0.0 .
881(16) 0.0 0.0 .
900(16) 0.0 0.0 .
880(16) 0.0 0.0 .
885(16) 0.0 0.0 .
913(16) 0.0 0.0 .
880(16) 0.0 0.0 .
890(16) 0.0 0.0 .
928(17) 0.0 0.0 .
891(16) 0.0 0.0 .
896(16) 0.0 0.0 .
858(16) 0.0 0.0 .
888(16) 0.0 0.0 .
914(16) 0.0 0.0 .
905(16) 0.0 0.0 .
917(16) 0.0 0.0 .
931(16) 0.0 0.0 .
963(17) 0.0 0.0 .
960(17) 0.0 0.0 .
937(16) 0.0 0.0 .
893(16) 0.0 0.0 .
897(16) 0.0 0.0 .
926(17) 0.0 0.0 .
944(16) 0.0 0.0 .
933(16) 0.0 0.0 .
963(16) 0.0 0.0 .
952(17) 0.0 0.0 .
913(17) 0.0 0.0 .
964(17) 0.0 0.0 .
922(16) 0.0 0.0 .
918(16) 0.0 0.0 .
942(17) 0.0 0.0 .
939(17) 0.0 0.0 .
932(16) 0.0 0.0 .
988(16) 0.0 0.0 .
922(16) 0.0 0.0 .
985(17) 0.0 0.0 .
1009(18) 0.0 0.0 .
994(17) 0.0 0.0 .
966(16) 0.0 0.0 .
943(16) 0.0 0.0 .
1004(17) 0.0 0.0 .
1010(17) 0.0 0.0 .
965(17) 0.0 0.0 .
1010(16) 0.0 0.0 .
981(17) 0.0 0.0 .
945(17) 0.0 0.0 .
999(17) 0.0 0.0 .
988(17) 0.0 0.0 .
967(16) 0.0 0.0 .
999(17) 0.0 0.0 .
1058(18) 0.0 0.0 .
1031(17) 0.0 0.0 .
1031(17) 0.0 0.0 .
980(16) 0.0 0.0 .
1021(17) 0.0 0.0 .
1012(17) 0.0 0.0 .
1031(17) 0.0 0.0 .
1045(17) 0.0 0.0 .
1010(16) 0.0 0.0 .
1024(17) 0.0 0.0 .
988(17) 0.0 0.0 .
1048(17) 0.0 0.0 .
995(17) 0.0 0.0 .
1049(17) 0.0 0.0 .
1029(17) 0.0 0.0 .
1096(18) 0.0 0.0 .
1090(18) 0.0 0.0 .
1059(17) 0.0 0.0 .
1071(17) 0.0 0.0 .
1122(18) 0.0 0.0 .
1109(18) 0.0 0.0 .
1119(18) 0.0 0.0 .
1035(17) 0.0 0.0 .
1091(17) 0.0 0.0 .
1130(18) 0.0 0.0 .
1103(18) 0.0 0.0 .
1079(17) 0.0 0.0 .
1124(17) 0.0 0.0 .
1102(17) 0.0 0.0 .
1112(18) 0.0 0.0 .
1121(19) 0.0 0.0 .
1144(18) 0.0 0.0 .
1083(17) 0.0 0.0 .
1120(18) 0.0 0.0 .
1092(18) 0.0 0.0 .
1131(19) 0.0 0.0 .
1156(18) 0.0 0.0 .
1134(17) 0.0 0.0 .
1164(18) 0.0 0.0 .
1131(18) 0.0 0.0 .
1144(19) 0.0 0.0 .
1132(18) 0.0 0.0 .
1111(17) 0.0 0.0 .
1132(18) 0.0 0.0 .
1173(18) 0.0 0.0 .
1132(18) 0.0 0.0 .
1107(18) 0.0 0.0 .
1204(18) 0.0 0.0 .
1183(18) 0.0 0.0 .
1152(18) 0.0 0.0 .
1144(18) 0.0 0.0 .
1193(18) 0.0 0.0 .
1176(18) 0.0 0.0 .
1176(18) 0.0 0.0 .
1211(19) 0.0 0.0 .
1180(19) 0.0 0.0 .
1168(18) 0.0 0.0 .
1259(18) 0.0 0.0 .
1205(18) 0.0 0.0 .
1221(19) 0.0 0.0 .
1186(18) 0.0 0.0 .
1242(19) 0.0 0.0 .
1230(18) 0.0 0.0 .
1185(19) 0.0 0.0 .
1186(19) 0.0 0.0 .
1245(19) 0.0 0.0 .
1235(19) 0.0 0.0 .
1251(18) 0.0 0.0 .
1187(19) 0.0 0.0 .
1201(19) 0.0 0.0 .
1198(19) 0.0 0.0 .
1222(18) 0.0 0.0 .
1223(18) 0.0 0.0 .
1228(19) 0.0 0.0 .
1232(20) 0.0 0.0 .
1233(19) 0.0 0.0 .
1205(18) 0.0 0.0 .
1223(18) 0.0 0.0 .
1253(19) 0.0 0.0 .
1242(20) 0.0 0.0 .
1253(19) 0.0 0.0 .
1278(18) 0.0 0.0 .
1289(19) 0.0 0.0 .
1274(19) 0.0 0.0 .
1252(20) 0.0 0.0 .
1250(19) 0.0 0.0 .
1295(19) 0.0 0.0 .
1345(19) 0.0 0.0 .
1280(19) 0.0 0.0 .
1258(20) 0.0 0.0 .
1277(19) 0.0 0.0 .
1293(19) 0.0 0.0 .
1252(19) 0.0 0.0 .
1304(19) 0.0 0.0 .
1294(20) 0.0 0.0 .
1286(19) 0.0 0.0 .
1293(19) 0.0 0.0 .
1314(19) 0.0 0.0 .
1281(19) 0.0 0.0 .
1301(20) 0.0 0.0 .
1303(19) 0.0 0.0 .
1315(19) 0.0 0.0 .
1315(19) 0.0 0.0 .
1295(20) 0.0 0.0 .
1276(19) 0.0 0.0 .
1303(19) 0.0 0.0 .
1326(19) 0.0 0.0 .
1307(19) 0.0 0.0 .
1323(20) 0.0 0.0 .
1356(20) 0.0 0.0 .
1279(19) 0.0 0.0 .
1336(19) 0.0 0.0 .
1298(19) 0.0 0.0 .
1268(19) 0.0 0.0 .
1271(19) 0.0 0.0 .
1301(19) 0.0 0.0 .
1282(19) 0.0 0.0 .
1349(20) 0.0 0.0 .
1307(20) 0.0 0.0 .
1339(20) 0.0 0.0 .
1290(19) 0.0 0.0 .
1345(19) 0.0 0.0 .
1360(20) 0.0 0.0 .
1292(20) 0.0 0.0 .
1334(20) 0.0 0.0 .
1340(19) 0.0 0.0 .
1286(19) 0.0 0.0 .
1294(19) 0.0 0.0 .
1335(20) 0.0 0.0 .
1336(20) 0.0 0.0 .
1273(19) 0.0 0.0 .
1317(19) 0.0 0.0 .
1377(20) 0.0 0.0 .
1239(19) 0.0 0.0 .
1315(19) 0.0 0.0 .
1324(19) 0.0 0.0 .
1314(19) 0.0 0.0 .
1378(20) 0.0 0.0 .
1316(20) 0.0 0.0 .
1329(20) 0.0 0.0 .
1323(19) 0.0 0.0 .
1327(19) 0.0 0.0 .
1297(19) 0.0 0.0 .
1289(20) 0.0 0.0 .
1339(20) 0.0 0.0 .
1312(19) 0.0 0.0 .
1321(19) 0.0 0.0 .
1320(20) 0.0 0.0 .
1349(20) 0.0 0.0 .
1356(20) 0.0 0.0 .
1302(19) 0.0 0.0 .
1347(19) 0.0 0.0 .
1335(20) 0.0 0.0 .
1295(20) 0.0 0.0 .
1355(20) 0.0 0.0 .
1356(19) 0.0 0.0 .
1319(19) 0.0 0.0 .
1362(20) 0.0 0.0 .
1314(19) 0.0 0.0 .
1328(19) 0.0 0.0 .
1348(19) 0.0 0.0 .
1354(20) 0.0 0.0 .
1310(20) 0.0 0.0 .
1346(20) 0.0 0.0 .
1364(19) 0.0 0.0 .
1358(19) 0.0 0.0 .
1331(19) 0.0 0.0 .
1260(19) 0.0 0.0 .
1313(19) 0.0 0.0 .
1359(19) 0.0 0.0 .
1344(19) 0.0 0.0 .
1349(20) 0.0 0.0 .
1336(20) 0.0 0.0 .
1323(20) 0.0 0.0 .
1320(19) 0.0 0.0 .
1291(19) 0.0 0.0 .
1331(20) 0.0 0.0 .
1323(20) 0.0 0.0 .
1277(19) 0.0 0.0 .
1356(19) 0.0 0.0 .
1315(19) 0.0 0.0 .
1321(19) 0.0 0.0 .
1317(20) 0.0 0.0 .
1425(20) 0.0 0.0 .
1320(19) 0.0 0.0 .
1341(19) 0.0 0.0 .
1279(19) 0.0 0.0 .
1330(20) 0.0 0.0 .
1292(19) 0.0 0.0 .
1303(19) 0.0 0.0 .
1301(19) 0.0 0.0 .
1307(19) 0.0 0.0 .
1360(20) 0.0 0.0 .
1328(20) 0.0 0.0 .
1308(19) 0.0 0.0 .
1286(19) 0.0 0.0 .
1314(20) 0.0 0.0 .
1304(20) 0.0 0.0 .
1290(19) 0.0 0.0 .
1320(19) 0.0 0.0 .
1319(19) 0.0 0.0 .
1289(19) 0.0 0.0 .
1311(20) 0.0 0.0 .
1287(19) 0.0 0.0 .
1295(19) 0.0 0.0 .
1249(19) 0.0 0.0 .
1324(20) 0.0 0.0 .
1302(20) 0.0 0.0 .
1332(19) 0.0 0.0 .
1353(19) 0.0 0.0 .
1285(19) 0.0 0.0 .
1295(20) 0.0 0.0 .
1334(20) 0.0 0.0 .
1318(19) 0.0 0.0 .
1318(19) 0.0 0.0 .
1327(20) 0.0 0.0 .
1287(20) 0.0 0.0 .
1269(19) 0.0 0.0 .
1264(19) 0.0 0.0 .
1292(19) 0.0 0.0 .
1294(19) 0.0 0.0 .
1288(20) 0.0 0.0 .
1332(20) 0.0 0.0 .
1302(19) 0.0 0.0 .
1264(18) 0.0 0.0 .
1318(19) 0.0 0.0 .
1311(20) 0.0 0.0 .
1282(19) 0.0 0.0 .
1274(19) 0.0 0.0 .
1275(19) 0.0 0.0 .
1330(20) 0.0 0.0 .
1338(20) 0.0 0.0 .
1312(20) 0.0 0.0 .
1272(19) 0.0 0.0 .
1256(18) 0.0 0.0 .
1237(19) 0.0 0.0 .
1270(20) 0.0 0.0 .
1342(20) 0.0 0.0 .
1297(19) 0.0 0.0 .
1300(19) 0.0 0.0 .
1244(19) 0.0 0.0 .
1255(19) 0.0 0.0 .
1265(19) 0.0 0.0 .
1238(18) 0.0 0.0 .
1291(19) 0.0 0.0 .
1271(19) 0.0 0.0 .
1274(19) 0.0 0.0 .
1282(19) 0.0 0.0 .
1250(18) 0.0 0.0 .
1282(19) 0.0 0.0 .
1283(19) 0.0 0.0 .
1254(19) 0.0 0.0 .
1223(19) 0.0 0.0 .
1268(19) 0.0 0.0 .
1240(19) 0.0 0.0 .
1261(19) 0.0 0.0 .
1272(19) 0.0 0.0 .
1269(19) 0.0 0.0 .
1268(18) 0.0 0.0 .
1325(20) 0.0 0.0 .
1287(20) 0.0 0.0 .
1312(20) 0.0 0.0 .
1233(18) 0.0 0.0 .
1253(18) 0.0 0.0 .
1195(19) 0.0 0.0 .
1290(20) 0.0 0.0 .
1243(19) 0.0 0.0 .
1208(18) 0.0 0.0 .
1268(19) 0.0 0.0 .
1243(19) 0.0 0.0 .
1243(19) 0.0 0.0 .
1280(19) 0.0 0.0 .
1227(18) 0.0 0.0 .
1263(18) 0.0 0.0 .
1237(19) 0.0 0.0 .
1274(20) 0.0 0.0 .
1274(19) 0.0 0.0 .
1305(19) 0.0 0.0 .
1254(18) 0.0 0.0 .
1205(18) 0.0 0.0 .
1226(19) 0.0 0.0 .
1281(19) 0.0 0.0 .
1265(19) 0.0 0.0 .
1270(19) 0.0 0.0 .
1241(19) 0.0 0.0 .
1245(20) 0.0 0.0 .
1270(19) 0.0 0.0 .
1215(18) 0.0 0.0 .
1269(19) 0.0 0.0 .
1232(19) 0.0 0.0 .
1215(19) 0.0 0.0 .
1234(19) 0.0 0.0 .
1227(18) 0.0 0.0 .
1241(19) 0.0 0.0 .
1225(19) 0.0 0.0 .
1223(19) 0.0 0.0 .
1258(19) 0.0 0.0 .
1207(18) 0.0 0.0 .
1229(19) 0.0 0.0 .
1269(20) 0.0 0.0 .
1288(20) 0.0 0.0 .
1254(19) 0.0 0.0 .
1230(18) 0.0 0.0 .
1232(19) 0.0 0.0 .
1223(19) 0.0 0.0 .
1216(19) 0.0 0.0 .
1243(19) 0.0 0.0 .
1217(18) 0.0 0.0 .
1241(19) 0.0 0.0 .
1190(19) 0.0 0.0 .
1202(19) 0.0 0.0 .
1193(18) 0.0 0.0 .
1264(18) 0.0 0.0 .
1237(19) 0.0 0.0 .
1249(20) 0.0 0.0 .
1239(19) 0.0 0.0 .
1173(18) 0.0 0.0 .
1213(18) 0.0 0.0 .
1176(18) 0.0 0.0 .
1189(19) 0.0 0.0 .
1181(18) 0.0 0.0 .
1156(18) 0.0 0.0 .
1194(18) 0.0 0.0 .
1176(18) 0.0 0.0 .
1244(20) 0.0 0.0 .
1201(19) 0.0 0.0 .
1247(18) 0.0 0.0 .
1183(18) 0.0 0.0 .
1191(19) 0.0 0.0 .
1214(20) 0.0 0.0 .
1181(18) 0.0 0.0 .
1174(18) 0.0 0.0 .
1163(18) 0.0 0.0 .
1200(18) 0.0 0.0 .
1153(19) 0.0 0.0 .
1198(19) 0.0 0.0 .
1196(18) 0.0 0.0 .
1162(18) 0.0 0.0 .
1171(18) 0.0 0.0 .
1201(19) 0.0 0.0 .
1196(18) 0.0 0.0 .
1201(18) 0.0 0.0 .
1215(18) 0.0 0.0 .
1187(18) 0.0 0.0 .
1170(19) 0.0 0.0 .
1217(19) 0.0 0.0 .
1172(18) 0.0 0.0 .
1157(18) 0.0 0.0 .
1185(19) 0.0 0.0 .
1166(19) 0.0 0.0 .
1131(18) 0.0 0.0 .
1162(18) 0.0 0.0 .
1143(18) 0.0 0.0 .
1152(18) 0.0 0.0 .
1179(19) 0.0 0.0 .
1172(18) 0.0 0.0 .
1246(18) 0.0 0.0 .
1191(18) 0.0 0.0 .
1181(19) 0.0 0.0 .
1177(18) 0.0 0.0 .
1178(18) 0.0 0.0 .
1169(18) 0.0 0.0 .
1146(18) 0.0 0.0 .
1173(19) 0.0 0.0 .
1211(19) 0.0 0.0 .
1166(18) 0.0 0.0 .
1137(17) 0.0 0.0 .
1139(18) 0.0 0.0 .
1159(19) 0.0 0.0 .
1152(18) 0.0 0.0 .
1195(18) 0.0 0.0 .
1183(18) 0.0 0.0 .
1160(18) 0.0 0.0 .
1130(18) 0.0 0.0 .
1173(18) 0.0 0.0 .
1155(18) 0.0 0.0 .
1175(18) 0.0 0.0 .
1186(18) 0.0 0.0 .
1176(19) 0.0 0.0 .
1134(18) 0.0 0.0 .
1147(18) 0.0 0.0 .
1151(18) 0.0 0.0 .
1126(18) 0.0 0.0 .
1187(19) 0.0 0.0 .
1145(18) 0.0 0.0 .
1133(17) 0.0 0.0 .
1166(18) 0.0 0.0 .
1164(18) 0.0 0.0 .
1132(18) 0.0 0.0 .
1133(18) 0.0 0.0 .
1160(18) 0.0 0.0 .
1144(18) 0.0 0.0 .
1161(18) 0.0 0.0 .
1121(18) 0.0 0.0 .
1141(18) 0.0 0.0 .
1152(18) 0.0 0.0 .
1150(18) 0.0 0.0 .
1149(19) 0.0 0.0 .
1118(18) 0.0 0.0 .
1163(18) 0.0 0.0 .
1147(18) 0.0 0.0 .
1141(18) 0.0 0.0 .
1128(18) 0.0 0.0 .
1143(18) 0.0 0.0 .
1116(18) 0.0 0.0 .
1118(17) 0.0 0.0 .
1114(18) 0.0 0.0 .
1126(18) 0.0 0.0 .
1119(18) 0.0 0.0 .
1136(18) 0.0 0.0 .
1145(18) 0.0 0.0 .
1135(18) 0.0 0.0 .
1088(18) 0.0 0.0 .
1069(17) 0.0 0.0 .
1161(18) 0.0 0.0 .
1125(17) 0.0 0.0 .
1124(18) 0.0 0.0 .
1083(18) 0.0 0.0 .
1069(17) 0.0 0.0 .
1081(17) 0.0 0.0 .
1115(17) 0.0 0.0 .
1092(18) 0.0 0.0 .
1097(18) 0.0 0.0 .
1085(18) 0.0 0.0 .
1033(17) 0.0 0.0 .
1069(17) 0.0 0.0 .
1138(18) 0.0 0.0 .
1091(18) 0.0 0.0 .
1114(18) 0.0 0.0 .
1119(17) 0.0 0.0 .
1127(17) 0.0 0.0 .
1067(17) 0.0 0.0 .
1107(19) 0.0 0.0 .
1116(18) 0.0 0.0 .
1093(17) 0.0 0.0 .
1086(17) 0.0 0.0 .
1075(18) 0.0 0.0 .
1114(18) 0.0 0.0 .
1114(18) 0.0 0.0 .
1115(17) 0.0 0.0 .
1127(18) 0.0 0.0 .
1061(18) 0.0 0.0 .
1045(18) 0.0 0.0 .
1054(17) 0.0 0.0 .
1126(17) 0.0 0.0 .
1059(17) 0.0 0.0 .
1050(18) 0.0 0.0 .
1073(18) 0.0 0.0 .
1069(18) 0.0 0.0 .
1092(17) 0.0 0.0 .
1121(18) 0.0 0.0 .
1080(18) 0.0 0.0 .
1048(18) 0.0 0.0 .
1027(17) 0.0 0.0 .
1060(17) 0.0 0.0 .
1087(18) 0.0 0.0 .
1063(18) 0.0 0.0 .
1057(18) 0.0 0.0 .
1118(18) 0.0 0.0 .
1083(17) 0.0 0.0 .
1104(18) 0.0 0.0 .
1059(18) 0.0 0.0 .
1052(17) 0.0 0.0 .
1073(17) 0.0 0.0 .
1100(17) 0.0 0.0 .
1048(17) 0.0 0.0 .
1090(18) 0.0 0.0 .
1042(17) 0.0 0.0 .
1041(17) 0.0 0.0 .
1054(17) 0.0 0.0 .
1051(17) 0.0 0.0 .
1084(18) 0.0 0.0 .
1073(17) 0.0 0.0 .
1082(17) 0.0 0.0 .
1038(17) 0.0 0.0 .
1049(17) 0.0 0.0 .
1058(18) 0.0 0.0 .
1068(18) 0.0 0.0 .
1025(17) 0.0 0.0 .
1114(17) 0.0 0.0 .
1097(18) 0.0 0.0 .
1084(18) 0.0 0.0 .
1059(17) 0.0 0.0 .
1026(17) 0.0 0.0 .
1003(17) 0.0 0.0 .
1041(17) 0.0 0.0 .
1058(18) 0.0 0.0 .
1067(18) 0.0 0.0 .
1034(17) 0.0 0.0 .
1053(17) 0.0 0.0 .
1013(17) 0.0 0.0 .
1051(18) 0.0 0.0 .
1056(18) 0.0 0.0 .
1022(17) 0.0 0.0 .
1070(17) 0.0 0.0 .
1025(17) 0.0 0.0 .
1072(18) 0.0 0.0 .
1032(17) 0.0 0.0 .
1034(17) 0.0 0.0 .
1027(17) 0.0 0.0 .
992(17) 0.0 0.0 .
1017(17) 0.0 0.0 .
1054(17) 0.0 0.0 .
1049(17) 0.0 0.0 .
1090(18) 0.0 0.0 .
1065(18) 0.0 0.0 .
1069(18) 0.0 0.0 .
1063(17) 0.0 0.0 .
1006(16) 0.0 0.0 .
1019(17) 0.0 0.0 .
1014(17) 0.0 0.0 .
1006(17) 0.0 0.0 .
1046(17) 0.0 0.0 .
1005(16) 0.0 0.0 .
1036(17) 0.0 0.0 .
1012(17) 0.0 0.0 .
1026(17) 0.0 0.0 .
1023(17) 0.0 0.0 .
1017(16) 0.0 0.0 .
1096(18) 0.0 0.0 .
1052(18) 0.0 0.0 .
1053(18) 0.0 0.0 .
1039(17) 0.0 0.0 .
1053(17) 0.0 0.0 .
1023(17) 0.0 0.0 .
1040(18) 0.0 0.0 .
1031(17) 0.0 0.0 .
1056(17) 0.0 0.0 .
1032(17) 0.0 0.0 .
1055(17) 0.0 0.0 .
987(17) 0.0 0.0 .
971(17) 0.0 0.0 .
1002(16) 0.0 0.0 .
994(16) 0.0 0.0 .
993(17) 0.0 0.0 .
1040(18) 0.0 0.0 .
1020(17) 0.0 0.0 .
1019(17) 0.0 0.0 .
1052(17) 0.0 0.0 .
1011(17) 0.0 0.0 .
994(17) 0.0 0.0 .
990(17) 0.0 0.0 .
1023(17) 0.0 0.0 .
992(16) 0.0 0.0 .
943(17) 0.0 0.0 .
967(17) 0.0 0.0 .
1019(17) 0.0 0.0 .
987(16) 0.0 0.0 .
993(17) 0.0 0.0 .
988(17) 0.0 0.0 .
985(17) 0.0 0.0 .
1021(17) 0.0 0.0 .
1006(16) 0.0 0.0 .
1004(17) 0.0 0.0 .
1023(17) 0.0 0.0 .
981(17) 0.0 0.0 .
985(17) 0.0 0.0 .
1016(17) 0.0 0.0 .
998(17) 0.0 0.0 .
976(17) 0.0 0.0 .
995(17) 0.0 0.0 .
1023(17) 0.0 0.0 .
965(16) 0.0 0.0 .
964(17) 0.0 0.0 .
955(17) 0.0 0.0 .
986(17) 0.0 0.0 .
932(16) 0.0 0.0 .
989(16) 0.0 0.0 .
1005(17) 0.0 0.0 .
979(17) 0.0 0.0 .
1007(17) 0.0 0.0 .
1005(17) 0.0 0.0 .
1032(17) 0.0 0.0 .
954(17) 0.0 0.0 .
998(18) 0.0 0.0 .
1003(17) 0.0 0.0 .
950(16) 0.0 0.0 .
986(16) 0.0 0.0 .
960(17) 0.0 0.0 .
973(17) 0.0 0.0 .
972(17) 0.0 0.0 .
1006(17) 0.0 0.0 .
966(16) 0.0 0.0 .
946(16) 0.0 0.0 .
957(17) 0.0 0.0 .
999(17) 0.0 0.0 .
972(16) 0.0 0.0 .
988(16) 0.0 0.0 .
917(16) 0.0 0.0 .
980(17) 0.0 0.0 .
993(17) 0.0 0.0 .
1006(16) 0.0 0.0 .
952(16) 0.0 0.0 .
941(16) 0.0 0.0 .
981(17) 0.0 0.0 .
963(17) 0.0 0.0 .
959(16) 0.0 0.0 .
987(17) 0.0 0.0 .
942(16) 0.0 0.0 .
962(17) 0.0 0.0 .
961(17) 0.0 0.0 .
991(16) 0.0 0.0 .
964(16) 0.0 0.0 .
950(17) 0.0 0.0 .
955(17) 0.0 0.0 .
982(17) 0.0 0.0 .
964(16) 0.0 0.0 .
929(16) 0.0 0.0 .
970(17) 0.0 0.0 .
946(16) 0.0 0.0 .
971(16) 0.0 0.0 .
946(16) 0.0 0.0 .
943(16) 0.0 0.0 .
924(17) 0.0 0.0 .
943(17) 0.0 0.0 .
888(16) 0.0 0.0 .
903(16) 0.0 0.0 .
928(16) 0.0 0.0 .
966(17) 0.0 0.0 .
929(16) 0.0 0.0 .
904(16) 0.0 0.0 .
979(16) 0.0 0.0 .
963(17) 0.0 0.0 .
938(17) 0.0 0.0 .
895(16) 0.0 0.0 .
980(16) 0.0 0.0 .
964(16) 0.0 0.0 .
947(16) 0.0 0.0 .
959(17) 0.0 0.0 .
931(16) 0.0 0.0 .
906(16) 0.0 0.0 .
923(16) 0.0 0.0 .
924(16) 0.0 0.0 .
942(17) 0.0 0.0 .
940(16) 0.0 0.0 .
950(16) 0.0 0.0 .
894(15) 0.0 0.0 .
912(16) 0.0 0.0 .
926(17) 0.0 0.0 .
1000(17) 0.0 0.0 .
927(16) 0.0 0.0 .
901(16) 0.0 0.0 .
910(16) 0.0 0.0 .
949(17) 0.0 0.0 .
908(16) 0.0 0.0 .
923(16) 0.0 0.0 .
932(16) 0.0 0.0 .
912(16) 0.0 0.0 .
939(17) 0.0 0.0 .
918(16) 0.0 0.0 .
894(16) 0.0 0.0 .
903(16) 0.0 0.0 .
895(16) 0.0 0.0 .
917(16) 0.0 0.0 .
915(16) 0.0 0.0 .
874(15) 0.0 0.0 .
882(16) 0.0 0.0 .
929(17) 0.0 0.0 .
896(16) 0.0 0.0 .
903(16) 0.0 0.0 .
950(16) 0.0 0.0 .
932(16) 0.0 0.0 .
927(17) 0.0 0.0 .
895(16) 0.0 0.0 .
880(16) 0.0 0.0 .
932(16) 0.0 0.0 .
912(16) 0.0 0.0 .
900(16) 0.0 0.0 .
948(16) 0.0 0.0 .
916(16) 0.0 0.0 .
925(16) 0.0 0.0 .
927(16) 0.0 0.0 .
905(17) 0.0 0.0 .
905(16) 0.0 0.0 .
901(16) 0.0 0.0 .
888(15) 0.0 0.0 .
911(16) 0.0 0.0 .
897(17) 0.0 0.0 .
893(16) 0.0 0.0 .
919(16) 0.0 0.0 .
901(16) 0.0 0.0 .
918(16) 0.0 0.0 .
859(16) 0.0 0.0 .
842(15) 0.0 0.0 .
927(16) 0.0 0.0 .
899(16) 0.0 0.0 .
885(16) 0.0 0.0 .
854(16) 0.0 0.0 .
878(16) 0.0 0.0 .
877(15) 0.0 0.0 .
927(16) 0.0 0.0 .
857(16) 0.0 0.0 .
860(16) 0.0 0.0 .
893(16) 0.0 0.0 .
923(16) 0.0 0.0 .
904(16) 0.0 0.0 .
874(16) 0.0 0.0 .
857(16) 0.0 0.0 .
841(16) 0.0 0.0 .
889(15) 0.0 0.0 .
902(16) 0.0 0.0 .
883(16) 0.0 0.0 .
893(16) 0.0 0.0 .
863(16) 0.0 0.0 .
842(15) 0.0 0.0 .
882(16) 0.0 0.0 .
921(16) 0.0 0.0 .
892(16) 0.0 0.0 .
847(15) 0.0 0.0 .
883(15) 0.0 0.0 .
902(16) 0.0 0.0 .
903(16) 0.0 0.0 .
894(16) 0.0 0.0 .
861(15) 0.0 0.0 .
863(15) 0.0 0.0 .
841(16) 0.0 0.0 .
842(16) 0.0 0.0 .
885(16) 0.0 0.0 .
863(15) 0.0 0.0 .
861(15) 0.0 0.0 .
868(16) 0.0 0.0 .
871(16) 0.0 0.0 .
871(16) 0.0 0.0 .
840(15) 0.0 0.0 .
820(15) 0.0 0.0 .
854(16) 0.0 0.0 .
854(16) 0.0 0.0 .
843(16) 0.0 0.0 .
833(15) 0.0 0.0 .
849(15) 0.0 0.0 .
844(16) 0.0 0.0 .
840(16) 0.0 0.0 .
825(15) 0.0 0.0 .
850(15) 0.0 0.0 .
808(15) 0.0 0.0 .
817(15) 0.0 0.0 .
847(16) 0.0 0.0 .
819(15) 0.0 0.0 .
884(15) 0.0 0.0 .
859(15) 0.0 0.0 .
868(16) 0.0 0.0 .
849(16) 0.0 0.0 .
841(16) 0.0 0.0 .
852(15) 0.0 0.0 .
837(15) 0.0 0.0 .
820(16) 0.0 0.0 .
832(16) 0.0 0.0 .
826(15) 0.0 0.0 .
875(15) 0.0 0.0 .
837(15) 0.0 0.0 .
805(15) 0.0 0.0 .
823(15) 0.0 0.0 .
850(16) 0.0 0.0 .
824(15) 0.0 0.0 .
795(15) 0.0 0.0 .
856(16) 0.0 0.0 .
831(16) 0.0 0.0 .
866(16) 0.0 0.0 .
857(15) 0.0 0.0 .
846(15) 0.0 0.0 .
852(16) 0.0 0.0 .
830(15) 0.0 0.0 .
816(15) 0.0 0.0 .
838(15) 0.0 0.0 .
822(15) 0.0 0.0 .
857(16) 0.0 0.0 .
816(15) 0.0 0.0 .
861(15) 0.0 0.0 .
823(15) 0.0 0.0 .
852(16) 0.0 0.0 .
806(16) 0.0 0.0 .
821(15) 0.0 0.0 .
812(15) 0.0 0.0 .
816(15) 0.0 0.0 .
851(16) 0.0 0.0 .
828(16) 0.0 0.0 .
872(16) 0.0 0.0 .
822(15) 0.0 0.0 .
796(15) 0.0 0.0 .
824(16) 0.0 0.0 .
805(16) 0.0 0.0 .
815(15) 0.0 0.0 .
820(15) 0.0 0.0 .
826(15) 0.0 0.0 .
825(16) 0.0 0.0 .
810(16) 0.0 0.0 .
786(15) 0.0 0.0 .
820(15) 0.0 0.0 .
832(15) 0.0 0.0 .
847(16) 0.0 0.0 .
832(16) 0.0 0.0 .
810(15) 0.0 0.0 .
849(15) 0.0 0.0 .
816(15) 0.0 0.0 .
835(16) 0.0 0.0 .
806(16) 0.0 0.0 .
832(16) 0.0 0.0 .
816(15) 0.0 0.0 .
775(15) 0.0 0.0 .
786(15) 0.0 0.0 .
796(15) 0.0 0.0 .
811(15) 0.0 0.0 .
804(15) 0.0 0.0 .
813(15) 0.0 0.0 .
798(15) 0.0 0.0 .
786(15) 0.0 0.0 .
809(15) 0.0 0.0 .
831(15) 0.0 0.0 .
777(15) 0.0 0.0 .
790(15) 0.0 0.0 .
788(15) 0.0 0.0 .
798(15) 0.0 0.0 .
847(15) 0.0 0.0 .
796(15) 0.0 0.0 .
791(15) 0.0 0.0 .
786(15) 0.0 0.0 .
811(15) 0.0 0.0 .
784(15) 0.0 0.0 .
818(15) 0.0 0.0 .
798(15) 0.0 0.0 .
830(16) 0.0 0.0 .
800(15) 0.0 0.0 .
784(14) 0.0 0.0 .
797(15) 0.0 0.0 .
787(15) 0.0 0.0 .
807(15) 0.0 0.0 .
813(15) 0.0 0.0 .
782(14) 0.0 0.0 .
814(15) 0.0 0.0 .
812(16) 0.0 0.0 .
789(15) 0.0 0.0 .
765(14) 0.0 0.0 .
748(14) 0.0 0.0 .
764(15) 0.0 0.0 .
784(15) 0.0 0.0 .
795(15) 0.0 0.0 .
791(15) 0.0 0.0 .
754(14) 0.0 0.0 .
779(15) 0.0 0.0 .
766(15) 0.0 0.0 .
790(15) 0.0 0.0 .
776(14) 0.0 0.0 .
826(15) 0.0 0.0 .
802(15) 0.0 0.0 .
809(16) 0.0 0.0 .
833(16) 0.0 0.0 .
788(15) 0.0 0.0 .
775(15) 0.0 0.0 .
775(15) 0.0 0.0 .
773(15) 0.0 0.0 .
763(15) 0.0 0.0 .
766(14) 0.0 0.0 .
823(15) 0.0 0.0 .
769(15) 0.0 0.0 .
802(15) 0.0 0.0 .
784(15) 0.0 0.0 .
842(15) 0.0 0.0 .
799(15) 0.0 0.0 .
796(15) 0.0 0.0 .
729(14) 0.0 0.0 .
763(15) 0.0 0.0 .
789(15) 0.0 0.0 .
782(15) 0.0 0.0 .
789(15) 0.0 0.0 .
796(15) 0.0 0.0 .
762(15) 0.0 0.0 .
760(14) 0.0 0.0 .
804(15) 0.0 0.0 .
774(15) 0.0 0.0 .
771(15) 0.0 0.0 .
791(15) 0.0 0.0 .
782(15) 0.0 0.0 .
775(15) 0.0 0.0 .
765(15) 0.0 0.0 .
770(15) 0.0 0.0 .
781(15) 0.0 0.0 .
764(14) 0.0 0.0 .
735(15) 0.0 0.0 .
774(16) 0.0 0.0 .
769(15) 0.0 0.0 .
784(15) 0.0 0.0 .
744(14) 0.0 0.0 .
790(15) 0.0 0.0 .
755(15) 0.0 0.0 .
799(15) 0.0 0.0 .
739(14) 0.0 0.0 .
754(14) 0.0 0.0 .
801(15) 0.0 0.0 .
782(16) 0.0 0.0 .
762(15) 0.0 0.0 .
755(14) 0.0 0.0 .
791(15) 0.0 0.0 .
768(15) 0.0 0.0 .
755(15) 0.0 0.0 .
759(15) 0.0 0.0 .
739(14) 0.0 0.0 .
756(14) 0.0 0.0 .
770(15) 0.0 0.0 .
753(15) 0.0 0.0 .
787(15) 0.0 0.0 .
761(14) 0.0 0.0 .
740(14) 0.0 0.0 .
769(15) 0.0 0.0 .
806(15) 0.0 0.0 .
769(15) 0.0 0.0 .
783(15) 0.0 0.0 .
772(15) 0.0 0.0 .
776(15) 0.0 0.0 .
741(15) 0.0 0.0 .
747(15) 0.0 0.0 .
744(14) 0.0 0.0 .
770(15) 0.0 0.0 .
766(15) 0.0 0.0 .
761(15) 0.0 0.0 .
731(14) 0.0 0.0 .
761(14) 0.0 0.0 .
739(15) 0.0 0.0 .
776(15) 0.0 0.0 .
764(15) 0.0 0.0 .
730(14) 0.0 0.0 .
737(14) 0.0 0.0 .
744(15) 0.0 0.0 .
751(15) 0.0 0.0 .
767(15) 0.0 0.0 .
742(14) 0.0 0.0 .
719(14) 0.0 0.0 .
776(15) 0.0 0.0 .
790(16) 0.0 0.0 .
773(15) 0.0 0.0 .
777(15) 0.0 0.0 .
755(14) 0.0 0.0 .
752(15) 0.0 0.0 .
746(15) 0.0 0.0 .
733(15) 0.0 0.0 .
734(14) 0.0 0.0 .
744(14) 0.0 0.0 .
740(15) 0.0 0.0 .
738(15) 0.0 0.0 .
725(14) 0.0 0.0 .
759(14) 0.0 0.0 .
734(14) 0.0 0.0 .
731(14) 0.0 0.0 .
742(15) 0.0 0.0 .
719(14) 0.0 0.0 .
766(14) 0.0 0.0 .
788(15) 0.0 0.0 .
736(15) 0.0 0.0 .
741(15) 0.0 0.0 .
734(15) 0.0 0.0 .
722(14) 0.0 0.0 .
739(14) 0.0 0.0 .
730(15) 0.0 0.0 .
751(15) 0.0 0.0 .
693(14) 0.0 0.0 .
754(14) 0.0 0.0 .
722(14) 0.0 0.0 .
715(14) 0.0 0.0 .
780(15) 0.0 0.0 .
722(14) 0.0 0.0 .
726(14) 0.0 0.0 .
715(14) 0.0 0.0 .
719(15) 0.0 0.0 .
719(15) 0.0 0.0 .
746(14) 0.0 0.0 .
747(14) 0.0 0.0 .
720(14) 0.0 0.0 .
722(15) 0.0 0.0 .
718(15) 0.0 0.0 .
727(14) 0.0 0.0 .
773(14) 0.0 0.0 .
767(15) 0.0 0.0 .
735(15) 0.0 0.0 .
739(15) 0.0 0.0 .
724(14) 0.0 0.0 .
732(14) 0.0 0.0 .
719(14) 0.0 0.0 .
757(15) 0.0 0.0 .
752(15) 0.0 0.0 .
756(14) 0.0 0.0 .
753(14) 0.0 0.0 .
740(15) 0.0 0.0 .
727(15) 0.0 0.0 .
700(14) 0.0 0.0 .
721(14) 0.0 0.0 .
702(14) 0.0 0.0 .
734(15) 0.0 0.0 .
729(15) 0.0 0.0 .
740(15) 0.0 0.0 .
743(14) 0.0 0.0 .
753(14) 0.0 0.0 .
714(14) 0.0 0.0 .
775(16) 0.0 0.0 .
730(14) 0.0 0.0 .
736(14) 0.0 0.0 .
680(14) 0.0 0.0 .
706(14) 0.0 0.0 .
740(15) 0.0 0.0 .
704(14) 0.0 0.0 .
716(14) 0.0 0.0 .
748(14) 0.0 0.0 .
742(14) 0.0 0.0 .
746(15) 0.0 0.0 .
740(15) 0.0 0.0 .
713(14) 0.0 0.0 .
716(14) 0.0 0.0 .
714(14) 0.0 0.0 .
730(15) 0.0 0.0 .
734(14) 0.0 0.0 .
739(14) 0.0 0.0 .
731(14) 0.0 0.0 .
734(15) 0.0 0.0 .
733(15) 0.0 0.0 .
711(14) 0.0 0.0 .
714(14) 0.0 0.0 .
720(14) 0.0 0.0 .
718(15) 0.0 0.0 .
734(15) 0.0 0.0 .
726(14) 0.0 0.0 .
724(14) 0.0 0.0 .
732(15) 0.0 0.0 .
756(15) 0.0 0.0 .
749(15) 0.0 0.0 .
732(14) 0.0 0.0 .
707(14) 0.0 0.0 .
719(14) 0.0 0.0 .
710(15) 0.0 0.0 .
743(15) 0.0 0.0 .
746(14) 0.0 0.0 .
731(14) 0.0 0.0 .
705(14) 0.0 0.0 .
728(15) 0.0 0.0 .
714(14) 0.0 0.0 .
702(14) 0.0 0.0 .
705(14) 0.0 0.0 .
693(14) 0.0 0.0 .
726(15) 0.0 0.0 .
716(14) 0.0 0.0 .
695(14) 0.0 0.0 .
708(14) 0.0 0.0 .
728(14) 0.0 0.0 .
717(15) 0.0 0.0 .
700(14) 0.0 0.0 .
710(14) 0.0 0.0 .
726(14) 0.0 0.0 .
714(14) 0.0 0.0 .
736(15) 0.0 0.0 .
719(14) 0.0 0.0 .
709(14) 0.0 0.0 .
692(14) 0.0 0.0 .
703(14) 0.0 0.0 .
723(15) 0.0 0.0 .
694(14) 0.0 0.0 .
730(14) 0.0 0.0 .
706(14) 0.0 0.0 .
726(14) 0.0 0.0 .
717(15) 0.0 0.0 .
697(14) 0.0 0.0 .
685(14) 0.0 0.0 .
696(14) 0.0 0.0 .
720(15) 0.0 0.0 .
742(15) 0.0 0.0 .
751(15) 0.0 0.0 .
732(14) 0.0 0.0 .
730(14) 0.0 0.0 .
711(14) 0.0 0.0 .
688(14) 0.0 0.0 .
735(14) 0.0 0.0 .
738(14) 0.0 0.0 .
649(14) 0.0 0.0 .
709(15) 0.0 0.0 .
732(15) 0.0 0.0 .
710(14) 0.0 0.0 .
705(14) 0.0 0.0 .
677(14) 0.0 0.0 .
702(15) 0.0 0.0 .
698(14) 0.0 0.0 .
715(14) 0.0 0.0 .
669(13) 0.0 0.0 .
748(15) 0.0 0.0 .
714(15) 0.0 0.0 .
699(14) 0.0 0.0 .
698(14) 0.0 0.0 .
703(14) 0.0 0.0 .
696(14) 0.0 0.0 .
711(15) 0.0 0.0 .
761(15) 0.0 0.0 .
718(14) 0.0 0.0 .
659(13) 0.0 0.0 .
718(14) 0.0 0.0 .
724(15) 0.0 0.0 .
729(14) 0.0 0.0 .
707(14) 0.0 0.0 .
731(14) 0.0 0.0 .
696(14) 0.0 0.0 .
726(15) 0.0 0.0 .
716(14) 0.0 0.0 .
698(14) 0.0 0.0 .
724(14) 0.0 0.0 .
723(14) 0.0 0.0 .
743(15) 0.0 0.0 .
754(15) 0.0 0.0 .
711(14) 0.0 0.0 .
704(14) 0.0 0.0 .
726(15) 0.0 0.0 .
719(14) 0.0 0.0 .
752(15) 0.0 0.0 .
699(14) 0.0 0.0 .
733(14) 0.0 0.0 .
691(14) 0.0 0.0 .
718(14) 0.0 0.0 .
726(14) 0.0 0.0 .
740(14) 0.0 0.0 .
717(14) 0.0 0.0 .
729(15) 0.0 0.0 .
748(15) 0.0 0.0 .
745(14) 0.0 0.0 .
774(14) 0.0 0.0 .
734(15) 0.0 0.0 .
735(15) 0.0 0.0 .
752(15) 0.0 0.0 .
731(14) 0.0 0.0 .
737(14) 0.0 0.0 .
801(15) 0.0 0.0 .
743(15) 0.0 0.0 .
737(14) 0.0 0.0 .
722(14) 0.0 0.0 .
709(14) 0.0 0.0 .
752(15) 0.0 0.0 .
770(15) 0.0 0.0 .
765(15) 0.0 0.0 .
771(14) 0.0 0.0 .
806(15) 0.0 0.0 .
742(15) 0.0 0.0 .
747(15) 0.0 0.0 .
747(15) 0.0 0.0 .
770(14) 0.0 0.0 .
776(14) 0.0 0.0 .
751(15) 0.0 0.0 .
759(15) 0.0 0.0 .
802(15) 0.0 0.0 .
785(15) 0.0 0.0 .
809(15) 0.0 0.0 .
780(15) 0.0 0.0 .
850(16) 0.0 0.0 .
802(15) 0.0 0.0 .
814(15) 0.0 0.0 .
806(15) 0.0 0.0 .
825(15) 0.0 0.0 .
821(16) 0.0 0.0 .
810(15) 0.0 0.0 .
812(15) 0.0 0.0 .
824(15) 0.0 0.0 .
830(16) 0.0 0.0 .
821(16) 0.0 0.0 .
870(16) 0.0 0.0 .
859(15) 0.0 0.0 .
925(16) 0.0 0.0 .
909(16) 0.0 0.0 .
923(17) 0.0 0.0 .
935(16) 0.0 0.0 .
990(16) 0.0 0.0 .
1029(17) 0.0 0.0 .
1083(18) 0.0 0.0 .
1016(17) 0.0 0.0 .
1086(17) 0.0 0.0 .
1104(17) 0.0 0.0 .
1149(18) 0.0 0.0 .
1255(19) 0.0 0.0 .
1267(19) 0.0 0.0 .
1276(19) 0.0 0.0 .
1399(19) 0.0 0.0 .
1430(20) 0.0 0.0 .
1438(21) 0.0 0.0 .
1526(21) 0.0 0.0 .
1586(21) 0.0 0.0 .
1689(21) 0.0 0.0 .
1744(22) 0.0 0.0 .
1789(23) 0.0 0.0 .
1910(23) 0.0 0.0 .
2017(23) 0.0 0.0 .
2226(25) 0.0 0.0 .
2396(26) 0.0 0.0 .
2787(30) 0.0 0.0 .
3052(30) 0.0 0.0 .
3404(30) 0.0 0.0 .
4010(33) 0.0 0.0 .
4704(37) 0.0 0. .
5502(41) 0.0 0. .
6340(43) 0.0 0. .
7328(45) 0.0 0. .
8392(48) 0.0 0. .
9296(52) 0.0 0. .
10672(58) 0.0 0. .
11998(60) 0.0 0. .
13141(60) 0.0 0. .
14573(64) 0.0 0. .
15577(68) 0.0 0. .
17555(74) 0.0 0. .
19406(76) 0.0 0. .
21728(78) 0.0 0. .
24143(83) 0.0 0. .
27293(91) 0.0 0. .
31018(99) 0.0 0. .
34890(100) 0.0 0. .
38380(110) 0.0 0. .
40260(110) 0.0 0. .
38420(110) 0.0 0. .
33530(100) 0.0 0. .
28137(91) 0.0 0. .
23477(81) 0.0 0. .
19511(76) 0.0 0. .
16191(70) 0.0 0. .
13743(64) 0.0 0. .
11378(57) 0.0 0. .
9659(51) 0.0 0. .
8255(49) 0.0 0. .
6970(46) 0.0 0. .
6132(42) 0.0 0. .
5281(38) 0.0 0. .
4643(35) 0.0 0. .
4095(35) 0.0 0.0 .
3689(33) 0.0 0.0 .
3361(31) 0.0 0.0 .
3006(29) 0.0 0.0 .
2762(27) 0.0 0.0 .
2506(27) 0.0 0.0 .
2326(26) 0.0 0.0 .
2124(25) 0.0 0.0 .
1951(23) 0.0 0.0 .
1836(22) 0.0 0.0 .
1713(22) 0.0 0.0 .
1599(22) 0.0 0.0 .
1582(21) 0.0 0.0 .
1544(21) 0.0 0.0 .
1429(20) 0.0 0.0 .
1361(20) 0.0 0.0 .
1305(20) 0.0 0.0 .
1276(19) 0.0 0.0 .
1215(18) 0.0 0.0 .
1181(18) 0.0 0.0 .
1146(18) 0.0 0.0 .
1095(18) 0.0 0.0 .
1096(18) 0.0 0.0 .
1070(17) 0.0 0.0 .
1033(17) 0.0 0.0 .
981(17) 0.0 0.0 .
987(17) 0.0 0.0 .
946(17) 0.0 0.0 .
948(16) 0.0 0.0 .
954(16) 0.0 0.0 .
935(17) 0.0 0.0 .
921(17) 0.0 0.0 .
922(16) 0.0 0.0 .
896(15) 0.0 0.0 .
849(15) 0.0 0.0 .
847(16) 0.0 0.0 .
839(16) 0.0 0.0 .
869(16) 0.0 0.0 .
844(15) 0.0 0.0 .
833(15) 0.0 0.0 .
811(15) 0.0 0.0 .
784(15) 0.0 0.0 .
793(15) 0.0 0.0 .
770(14) 0.0 0.0 .
762(15) 0.0 0.0 .
771(15) 0.0 0.0 .
795(15) 0.0 0.0 .
753(14) 0.0 0.0 .
778(14) 0.0 0.0 .
762(15) 0.0 0.0 .
788(15) 0.0 0.0 .
781(15) 0.0 0.0 .
731(14) 0.0 0.0 .
743(14) 0.0 0.0 .
749(15) 0.0 0.0 .
724(15) 0.0 0.0 .
744(15) 0.0 0.0 .
711(14) 0.0 0.0 .
730(14) 0.0 0.0 .
736(15) 0.0 0.0 .
731(15) 0.0 0.0 .
754(15) 0.0 0.0 .
688(14) 0.0 0.0 .
727(14) 0.0 0.0 .
740(15) 0.0 0.0 .
739(15) 0.0 0.0 .
724(15) 0.0 0.0 .
714(14) 0.0 0.0 .
704(14) 0.0 0.0 .
729(15) 0.0 0.0 .
709(15) 0.0 0.0 .
676(14) 0.0 0.0 .
679(14) 0.0 0.0 .
689(14) 0.0 0.0 .
677(14) 0.0 0.0 .
709(15) 0.0 0.0 .
693(14) 0.0 0.0 .
712(14) 0.0 0.0 .
676(14) 0.0 0.0 .
642(14) 0.0 0.0 .
647(14) 0.0 0.0 .
713(15) 0.0 0.0 .
672(13) 0.0 0.0 .
701(14) 0.0 0.0 .
688(14) 0.0 0.0 .
661(14) 0.0 0.0 .
692(14) 0.0 0.0 .
672(13) 0.0 0.0 .
656(14) 0.0 0.0 .
643(14) 0.0 0.0 .
683(14) 0.0 0.0 .
681(14) 0.0 0.0 .
694(14) 0.0 0.0 .
653(14) 0.0 0.0 .
633(14) 0.0 0.0 .
643(14) 0.0 0.0 .
668(14) 0.0 0.0 .
723(14) 0.0 0.0 .
705(14) 0.0 0.0 .
682(14) 0.0 0.0 .
665(14) 0.0 0.0 .
667(13) 0.0 0.0 .
677(14) 0.0 0.0 .
658(14) 0.0 0.0 .
679(14) 0.0 0.0 .
687(14) 0.0 0.0 .
716(14) 0.0 0.0 .
640(13) 0.0 0.0 .
664(14) 0.0 0.0 .
675(14) 0.0 0.0 .
675(14) 0.0 0.0 .
638(13) 0.0 0.0 .
697(14) 0.0 0.0 .
627(14) 0.0 0.0 .
659(14) 0.0 0.0 .
662(14) 0.0 0.0 .
661(13) 0.0 0.0 .
664(13) 0.0 0.0 .
686(14) 0.0 0.0 .
685(15) 0.0 0.0 .
679(14) 0.0 0.0 .
653(13) 0.00538 644.9 38.5
622(13) 0.00560 644.9 37.9
652(14) 0.00516 644.9 37.4
669(14) 0.00481 644.9 36.9
683(14) 0.00492 644.9 36.3
677(14) 0.00521 644.9 35.8
647(13) 0.00545 644.8 35.3
631(13) 0.00529 644.6 34.9
665(14) 0.00478 644.4 34.4
649(14) 0.00520 644.2 33.9
650(13) 0.00541 644.0 33.5
644(13) 0.00539 643.8 33.0
706(14) 0.00465 643.6 32.6
657(14) 0.00480 643.4 32.2
614(13) 0.00533 643.2 31.7
608(13) 0.00573 643.0 31.3
648(13) 0.00526 642.8 30.9
654(14) 0.00499 642.6 30.5
624(14) 0.00515 642.4 30.1
638(13) 0.00531 642.2 29.7
605(13) 0.00583 642.0 29.4
622(13) 0.00541 641.8 29.0
643(14) 0.00503 641.6 28.7
672(14) 0.00491 641.4 28.3
655(13) 0.00525 641.2 28.0
637(13) 0.00554 641.0 27.6
632(14) 0.00518 640.8 27.3
689(14) 0.00460 640.6 27.0
662(14) 0.00494 640.4 26.6
603(13) 0.00560 640.2 26.3
637(13) 0.00558 640.0 26.0
664(14) 0.00496 639.8 25.7
636(14) 0.00506 639.6 25.4
651(14) 0.00502 639.4 25.1
641(13) 0.00532 639.2 24.8
609(13) 0.00583 639.0 24.5
644(14) 0.00498 638.8 24.3
613(14) 0.00511 638.6 24.0
600(13) 0.00544 638.4 23.7
610(13) 0.00572 638.2 23.5
603(13) 0.00581 638.0 23.2
594(13) 0.00563 637.8 23.0
625(14) 0.00489 637.7 22.7
642(14) 0.00511 637.5 22.5
668(13) 0.00530 637.3 22.2
632(13) 0.00552 637.1 22.0
613(13) 0.00527 636.9 21.7
635(14) 0.00487 636.7 21.5
624(13) 0.00542 636.5 21.3
652(13) 0.00544 636.3 21.1
587(12) 0.00605 636.1 20.8
631(14) 0.00510 635.9 20.6
619(14) 0.00505 635.7 20.4
636(14) 0.00516 635.5 20.2
606(13) 0.00576 635.3 20.0
613(13) 0.00567 635.1 19.8
626(14) 0.00523 634.9 19.6
616(13) 0.00531 634.7 19.4
621(13) 0.00534 634.5 19.2
615(13) 0.00579 634.3 19.0
646(13) 0.00527 634.1 18.9
598(13) 0.00549 633.9 18.7
597(13) 0.00530 633.7 18.5
626(13) 0.00530 633.5 18.3
613(13) 0.00575 633.3 18.1
591(13) 0.00570 633.1 18.0
627(13) 0.00528 632.9 17.8
629(14) 0.00501 632.7 17.6
607(13) 0.00546 632.5 17.5
637(13) 0.00557 632.3 17.3
608(13) 0.00560 632.1 17.1
601(13) 0.00563 631.9 17.0
657(14) 0.00503 631.7 16.8
658(14) 0.00519 631.5 16.7
658(13) 0.00542 631.3 16.5
625(13) 0.00536 631.1 16.4
613(13) 0.00540 630.9 16.2
609(13) 0.00546 630.7 16.1
623(13) 0.00549 630.5 16.0
634(13) 0.00557 630.3 15.8
612(13) 0.00538 630.1 15.7
629(14) 0.00513 629.9 15.6
596(13) 0.00556 629.7 15.4
614(13) 0.00554 629.5 15.3
609(13) 0.00581 629.3 15.2
636(14) 0.00513 629.1 15.0
630(14) 0.00491 628.9 14.9
645(14) 0.00506 628.7 14.8
605(13) 0.00578 628.5 14.7
559(12) 0.00624 628.3 14.5
588(13) 0.00569 628.1 14.4
625(14) 0.00503 627.9 14.3
632(13) 0.00524 627.7 14.2
569(12) 0.00617 627.5 14.1
629(13) 0.00561 627.3 14.0
597(13) 0.00558 627.1 13.9
622(14) 0.00500 626.9 13.8
590(13) 0.00557 626.7 13.7
613(13) 0.00570 626.5 13.6
581(13) 0.00601 626.3 13.4
606(13) 0.00554 626.1 13.3
624(14) 0.00506 625.9 13.2
642(14) 0.00511 625.7 13.2
632(13) 0.00566 625.5 13.1
626(13) 0.00558 625.3 13.0
635(14) 0.00508 625.1 12.9
577(13) 0.00553 624.9 12.8
617(13) 0.00538 624.7 12.7
612(13) 0.00576 624.5 12.6
607(13) 0.00574 624.3 12.5
603(13) 0.00548 624.1 12.4
612(13) 0.00526 623.9 12.3
601(13) 0.00527 623.7 12.2
599(13) 0.00583 623.5 12.2
600(13) 0.00564 623.4 12.1
608(13) 0.00539 623.2 12.0
574(13) 0.00584 623.0 11.9
633(13) 0.00530 622.8 11.8
636(13) 0.00556 622.6 11.8
597(13) 0.00570 622.4 11.7
605(13) 0.00528 622.2 11.6
577(13) 0.00563 622.0 11.6
622(13) 0.00545 621.8 11.5
614(13) 0.00571 621.6 11.4
574(13) 0.00582 621.4 11.3
583(13) 0.00559 621.2 11.3
599(13) 0.00527 621.0 11.2
606(13) 0.00565 620.8 11.1
617(13) 0.00570 620.6 11.1
618(13) 0.00545 620.4 11.0
607(14) 0.00521 620.2 11.0
606(14) 0.00521 620.0 10.9
608(13) 0.00575 619.8 10.8
571(12) 0.00613 619.6 10.8
568(13) 0.00578 619.4 10.7
561(13) 0.00578 619.2 10.7
613(13) 0.00530 619.0 10.6
595(13) 0.00589 618.8 10.6
571(12) 0.00617 618.6 10.5
580(13) 0.00571 618.4 10.5
612(14) 0.00516 618.2 10.4
632(13) 0.00536 618.0 10.4
600(13) 0.00587 617.8 10.3
606(13) 0.00585 617.6 10.3
626(13) 0.00525 617.4 10.2
616(14) 0.00486 617.2 10.2
574(13) 0.00567 617.0 10.1
596(13) 0.00589 616.8 10.1
625(13) 0.00563 616.6 10.1
610(13) 0.00556 616.4 10.0
565(13) 0.00560 616.2 10.0
602(13) 0.00537 616.0 9.9
597(13) 0.00589 615.8 9.9
625(13) 0.00562 615.6 9.9
615(13) 0.00548 615.4 9.8
582(13) 0.00540 615.2 9.8
590(13) 0.00546 615.0 9.8
657(13) 0.00544 614.8 9.8
608(13) 0.00570 614.6 9.7
581(13) 0.00578 614.4 9.7
601(14) 0.00519 614.2 9.7
591(13) 0.00547 614.0 9.7
550(12) 0.00632 613.8 9.6
636(13) 0.00547 613.6 9.6
614(13) 0.00532 613.4 9.6
589(13) 0.00552 613.2 9.6
595(13) 0.00550 613.0 9.6
609(13) 0.00582 612.8 9.6
591(13) 0.00582 612.6 9.6
619(14) 0.00523 612.4 9.5
607(13) 0.00527 612.2 9.5
581(13) 0.00579 612.0 9.5
590(13) 0.00595 611.8 9.5
601(13) 0.00542 611.6 9.5
616(13) 0.00532 611.4 9.5
572(13) 0.00569 611.2 9.5
572(13) 0.00592 611.0 9.6
595(13) 0.00592 610.8 9.6
621(13) 0.00527 610.6 9.6
595(13) 0.00535 610.4 9.6
579(13) 0.00562 610.2 9.6
594(13) 0.00584 610.0 9.6
589(13) 0.00593 609.8 9.7
575(13) 0.00558 609.6 9.7
594(13) 0.00530 609.4 9.7
606(13) 0.00537 609.2 9.8
588(13) 0.00595 609.0 9.8
598(13) 0.00589 608.9 9.8
590(13) 0.00561 608.7 9.9
602(13) 0.00524 608.5 9.9
614(13) 0.00546 608.3 10.0
621(13) 0.00559 608.1 10.1
595(13) 0.00595 607.9 10.1
601(13) 0.00558 607.7 10.2
614(14) 0.00508 607.5 10.3
572(13) 0.00582 607.3 10.3
585(13) 0.00590 607.1 10.4
591(13) 0.00588 606.9 10.5
588(13) 0.00561 606.7 10.6
586(14) 0.00519 606.5 10.8
610(13) 0.00542 606.3 10.9
618(13) 0.00567 606.1 11.0
593(13) 0.00590 605.9 11.1
611(13) 0.00533 605.7 11.3
619(14) 0.00513 605.5 11.4
628(13) 0.00527 605.3 11.6
586(13) 0.00602 605.1 11.8
578(13) 0.00597 604.9 12.0
573(13) 0.00573 604.7 12.2
535(13) 0.00595 604.5 12.4
570(13) 0.00560 604.3 12.7
602(13) 0.00585 604.1 12.9
588(13) 0.00586 603.9 13.2
584(13) 0.00574 603.7 13.5
612(14) 0.00517 603.5 13.9
618(13) 0.00523 603.3 14.2
600(13) 0.00587 603.1 14.6
603(13) 0.00566 602.9 15.0
597(13) 0.00544 602.7 15.5
618(14) 0.00520 602.5 16.0
612(13) 0.00552 602.3 16.5
625(13) 0.00566 602.1 17.1
604(13) 0.00555 601.9 17.7
634(14) 0.00506 601.7 18.4
602(13) 0.00542 601.5 19.1
656(14) 0.00516 601.3 20.0
587(13) 0.00599 601.1 20.9
612(13) 0.00548 600.9 21.9
614(13) 0.00524 600.7 23.0
608(13) 0.00538 600.5 24.2
610(13) 0.00570 600.3 25.6
657(13) 0.00539 600.1 27.2
632(14) 0.00521 599.9 29.0
611(13) 0.00530 599.7 31.0
652(14) 0.00507 599.5 33.4
674(14) 0.00520 599.3 36.1
676(13) 0.00524 599.1 39.4
646(14) 0.00513 598.9 43.2
654(14) 0.00493 598.7 47.7
679(14) 0.00492 598.5 53.0
646(13) 0.00539 598.3 59.4
701(14) 0.00505 598.1 66.9
674(14) 0.00502 597.9 75.8
688(15) 0.00444 597.7 86.2
716(14) 0.00464 597.5 98.4
719(14) 0.00490 597.3 112.4
709(14) 0.00496 597.1 128.3
694(14) 0.00482 596.9 146.2
748(15) 0.00413 596.7 165.9
781(15) 0.00434 596.5 187.1
752(14) 0.00473 596.3 209.1
805(15) 0.00441 596.1 231.1
761(15) 0.00449 595.9 251.5
778(15) 0.00407 595.7 268.6
812(15) 0.00414 595.5 280.6
789(15) 0.00450 595.3 285.7
775(15) 0.00455 595.1 283.3
790(15) 0.00419 594.9 273.7
777(15) 0.00412 594.7 258.2
745(15) 0.00450 594.6 238.8
723(14) 0.00489 594.4 217.2
769(15) 0.00450 594.2 195.0
684(14) 0.00490 594.0 173.3
667(14) 0.00476 593.8 153.0
654(14) 0.00496 593.6 134.4
663(13) 0.00535 593.4 117.6
629(13) 0.00541 593.2 102.9
607(13) 0.00539 593.0 90.0
600(13) 0.00539 592.8 78.9
619(13) 0.00537 592.6 69.4
605(13) 0.00580 592.4 61.3
603(13) 0.00559 592.2 54.5
644(14) 0.00494 592.0 48.7
635(14) 0.00508 591.8 43.9
624(13) 0.00539 591.6 39.8
604(13) 0.00578 591.4 36.3
604(13) 0.00548 591.2 33.4
592(13) 0.00532 591.0 30.8
558(13) 0.00579 590.8 28.6
594(13) 0.00574 590.6 26.7
610(13) 0.00573 590.4 25.0
636(14) 0.00510 590.2 23.5
603(13) 0.00525 590.0 22.2
583(13) 0.00576 589.8 21.0
591(13) 0.00586 589.6 19.9
546(12) 0.00642 589.4 18.9
568(13) 0.00564 589.2 18.0
577(13) 0.00541 589.0 17.1
605(13) 0.00544 588.8 16.4
584(13) 0.00594 588.6 15.7
579(12) 0.00609 588.4 15.0
566(13) 0.00592 588.2 14.4
582(13) 0.00536 588.0 13.9
555(12) 0.00616 587.8 13.4
585(13) 0.00595 587.6 12.9
561(12) 0.00621 587.4 12.4
585(13) 0.00577 587.2 12.0
612(14) 0.00498 587.0 11.6
589(13) 0.00561 586.8 11.3
568(12) 0.00613 586.6 10.9
552(12) 0.00643 586.4 10.6
583(13) 0.00557 586.2 10.3
545(13) 0.00572 586.0 10.0
559(13) 0.00588 585.8 9.7
564(12) 0.00623 585.6 9.5
587(13) 0.00589 585.4 9.2
595(13) 0.00564 585.2 9.0
590(13) 0.00530 585.0 8.8
565(13) 0.00573 584.8 8.6
581(13) 0.00599 584.6 8.4
529(12) 0.00658 584.4 8.2
582(13) 0.00571 584.2 8.0
561(13) 0.00591 584.0 7.9
572(13) 0.00587 583.8 7.7
576(12) 0.00611 583.6 7.6
570(13) 0.00597 583.4 7.4
567(13) 0.00575 583.2 7.3
541(13) 0.00591 583.0 7.1
573(13) 0.00562 582.8 7.0
569(12) 0.00617 582.6 6.9
594(13) 0.00579 582.4 6.8
573(13) 0.00585 582.2 6.7
592(13) 0.00549 582.0 6.5
562(13) 0.00586 581.8 6.4
552(12) 0.00634 581.6 6.3
584(13) 0.00566 581.4 6.2
530(12) 0.00606 581.2 6.2
570(13) 0.00570 581.0 6.1
561(12) 0.00609 580.8 6.0
567(12) 0.00619 580.6 5.9
560(13) 0.00590 580.4 5.8
578(13) 0.00562 580.3 5.7
588(13) 0.00565 580.1 5.7
586(13) 0.00584 579.9 5.6
572(12) 0.00612 579.7 5.5
574(13) 0.00562 579.5 5.4
571(13) 0.00547 579.3 5.4
574(13) 0.00581 579.1 5.3
566(12) 0.00611 578.9 5.2
567(12) 0.00613 578.7 5.2
604(13) 0.00543 578.5 5.1
579(13) 0.00557 578.3 5.1
573(13) 0.00591 578.1 5.0
539(12) 0.00642 577.9 5.0
530(12) 0.00664 577.7 4.9
605(13) 0.00539 577.5 4.8
557(13) 0.00545 577.3 4.8
570(13) 0.00569 577.1 4.7
586(13) 0.00594 576.9 4.7
564(12) 0.00615 576.7 4.7
546(12) 0.00609 576.5 4.6
546(13) 0.00572 576.3 4.6
585(13) 0.00553 576.1 4.5
589(13) 0.00596 575.9 4.5
604(13) 0.00571 575.7 4.4
552(13) 0.00604 575.5 4.4
547(13) 0.00572 575.3 4.4
573(13) 0.00567 575.1 4.3
546(12) 0.00642 574.9 4.3
543(12) 0.00637 574.7 4.2
569(13) 0.00589 574.5 4.2
564(13) 0.00577 574.3 4.2
576(13) 0.00558 574.1 4.1
579(12) 0.00611 573.9 4.1
551(12) 0.00629 573.7 4.1
594(13) 0.00545 573.5 4.0
580(13) 0.00540 573.3 4.0
587(13) 0.00553 573.1 4.0
575(12) 0.00610 572.9 3.9
568(13) 0.00598 572.7 3.9
551(13) 0.00595 572.5 3.9
550(13) 0.00588 572.3 3.9
536(12) 0.00627 572.1 3.8
562(12) 0.00622 571.9 3.8
582(13) 0.00585 571.7 3.8
560(13) 0.00591 571.5 3.7
570(13) 0.00566 571.3 3.7
546(12) 0.00626 571.1 3.7
545(12) 0.00645 570.9 3.7
546(12) 0.00607 570.7 3.6
575(13) 0.00553 570.5 3.6
564(13) 0.00575 570.3 3.6
552(12) 0.00626 570.1 3.6
590(13) 0.00591 569.9 3.5
563(13) 0.00583 569.7 3.5
573(13) 0.00549 569.5 3.5
567(13) 0.00583 569.3 3.5
559(12) 0.00618 569.1 3.5
551(12) 0.00639 568.9 3.4
566(13) 0.00593 568.7 3.4
586(13) 0.00526 568.5 3.4
551(13) 0.00598 568.3 3.4
556(12) 0.00624 568.1 3.3
568(12) 0.00615 567.9 3.3
569(13) 0.00581 567.7 3.3
560(13) 0.00561 567.5 3.3
578(13) 0.00581 567.3 3.3
536(12) 0.00639 567.1 3.2
544(12) 0.00647 566.9 3.2
559(13) 0.00601 566.7 3.2
573(13) 0.00538 566.5 3.2
579(13) 0.00579 566.3 3.2
603(13) 0.00585 566.1 3.2
592(13) 0.00596 566.0 3.1
547(13) 0.00602 565.8 3.1
570(13) 0.00535 565.6 3.1
582(13) 0.00557 565.4 3.1
560(12) 0.00628 565.2 3.1
575(13) 0.00604 565.0 3.1
547(13) 0.00599 564.8 3.0
588(13) 0.00539 564.6 3.0
614(13) 0.00533 564.4 3.0
595(13) 0.00594 564.2 3.0
561(12) 0.00613 564.0 3.0
585(13) 0.00560 563.8 3.0
573(13) 0.00559 563.6 2.9
548(13) 0.00604 563.4 2.9
541(12) 0.00646 563.2 2.9
575(13) 0.00601 563.0 2.9
559(13) 0.00586 562.8 2.9
553(13) 0.00578 562.6 2.9
551(12) 0.00615 562.4 2.9
577(12) 0.00610 562.2 2.8
562(13) 0.00588 562.0 2.8
538(13) 0.00597 561.8 2.8
556(13) 0.00565 561.6 2.8
553(12) 0.00610 561.4 2.8
567(12) 0.00625 561.2 2.8
587(13) 0.00553 561.0 2.8
569(13) 0.00566 560.8 2.7
588(13) 0.00547 560.6 2.7
547(12) 0.00609 560.4 2.7
588(13) 0.00599 560.2 2.7
546(13) 0.00597 560.0 2.7
560(13) 0.00575 559.8 2.7
561(13) 0.00595 559.6 2.7
574(13) 0.00601 559.4 2.7
550(12) 0.00637 559.2 2.6
547(13) 0.00595 559.0 2.6
549(13) 0.00565 558.8 2.6
564(13) 0.00579 558.6 2.6
559(12) 0.00630 558.4 2.6
538(12) 0.00653 558.4 2.6
558(13) 0.00585 558.4 2.6
543(13) 0.00560 558.4 2.6
544(13) 0.00603 558.4 2.6
596(13) 0.00569 558.4 2.5
535(12) 0.00653 558.4 2.5
571(13) 0.00565 558.4 2.5
574(14) 0.00521 558.4 2.5
559(13) 0.00587 558.4 2.5
568(12) 0.00612 558.4 2.5
568(12) 0.00610 558.4 2.5
584(13) 0.00555 558.4 2.5
579(13) 0.00533 558.4 2.5
579(13) 0.00564 558.4 2.5
553(12) 0.00635 558.4 2.4
568(12) 0.00613 558.4 2.4
604(13) 0.00544 558.4 2.4
575(13) 0.00556 558.4 2.4
566(13) 0.00582 558.4 2.4
548(12) 0.00642 558.4 2.4
554(12) 0.00619 558.4 2.7
553(13) 0.00591 558.4 2.7
545(13) 0.00582 558.4 2.7
581(13) 0.00550 558.5 2.7
553(12) 0.00640 558.5 2.6
558(12) 0.00607 558.5 2.6
558(13) 0.00593 558.5 2.6
556(13) 0.00582 558.5 2.6
556(12) 0.00613 558.5 2.6
600(13) 0.00585 558.5 2.6
558(12) 0.00619 558.5 2.6
575(13) 0.00567 558.5 2.6
571(13) 0.00566 558.5 2.6
543(12) 0.00618 558.5 2.6
565(12) 0.00628 558.5 2.6
584(13) 0.00567 558.5 2.6
577(13) 0.00558 558.5 2.6
566(13) 0.00571 558.5 2.6
579(13) 0.00591 558.5 2.5
550(12) 0.00646 558.5 2.5
557(13) 0.00581 558.5 2.5
538(13) 0.00585 558.5 2.5
554(13) 0.00573 558.5 2.5
538(12) 0.00647 558.5 2.5
550(12) 0.00637 558.5 2.5
540(12) 0.00630 558.5 2.5
573(13) 0.00567 558.5 2.5
572(13) 0.00573 558.5 2.5
566(12) 0.00612 558.5 2.5
543(12) 0.00643 558.5 2.5
537(12) 0.00618 558.5 2.5
557(13) 0.00561 558.6 2.5
567(13) 0.00579 558.6 2.5
550(12) 0.00631 558.6 2.5
562(12) 0.00627 558.6 2.4
584(13) 0.00566 558.6 2.4
546(13) 0.00566 558.6 2.4
568(13) 0.00578 558.6 2.4
556(12) 0.00633 558.6 2.4
541(12) 0.00649 558.6 2.4
605(13) 0.00535 558.6 2.4
533(13) 0.00574 558.6 2.4
530(12) 0.00614 558.6 2.4
539(12) 0.00648 558.6 2.4
517(12) 0.00671 558.6 2.4
546(13) 0.00603 558.6 2.4
561(13) 0.00559 558.6 2.4
597(13) 0.00530 558.6 2.4
541(12) 0.00655 558.6 2.4
534(12) 0.00641 558.6 2.4
576(13) 0.00565 558.6 2.4
569(13) 0.00551 558.6 2.4
521(12) 0.00624 558.6 2.4
536(12) 0.00652 558.6 2.4
568(13) 0.00597 558.6 2.3
529(12) 0.00628 558.6 2.3
558(13) 0.00577 558.6 2.3
568(13) 0.00578 558.6 2.3
564(12) 0.00624 558.6 2.3
591(13) 0.00565 558.6 2.3
601(13) 0.00527 558.7 2.3
570(13) 0.00562 558.7 2.3
538(12) 0.00626 558.7 2.3
572(12) 0.00615 558.7 2.3
559(13) 0.00593 558.7 2.3
565(13) 0.00562 558.7 2.3
554(13) 0.00594 558.7 2.3
552(12) 0.00614 558.7 2.3
579(12) 0.00612 558.7 2.3
552(13) 0.00598 558.7 2.3
598(14) 0.00521 558.7 2.3
594(13) 0.00547 558.7 2.3
552(12) 0.00619 558.7 2.3
565(12) 0.00622 558.7 2.3
563(13) 0.00591 558.7 2.3
581(13) 0.00531 558.7 2.3
544(13) 0.00605 558.7 2.3
592(13) 0.00577 558.7 2.3
548(12) 0.00643 558.7 2.3
566(13) 0.00590 558.7 2.3
551(13) 0.00565 558.7 2.3
559(13) 0.00597 558.7 2.3
551(12) 0.00619 558.7 2.3
541(12) 0.00650 558.7 2.3
568(13) 0.00592 558.7 2.2
572(13) 0.00543 558.7 2.2
603(13) 0.00547 558.7 2.2
555(12) 0.00636 558.7 2.2
571(12) 0.00609 558.7 2.2
547(12) 0.00606 558.8 2.2
586(14) 0.00523 558.8 2.2
572(13) 0.00592 558.8 2.2
571(12) 0.00611 558.8 2.2
574(12) 0.00608 558.8 2.2
578(13) 0.00563 558.8 2.2
537(13) 0.00595 558.8 2.2
567(13) 0.00581 558.8 2.2
570(12) 0.00613 558.8 2.2
568(13) 0.00596 558.8 2.2
557(13) 0.00586 558.8 2.2
543(13) 0.00578 558.8 2.2
549(13) 0.00589 558.8 2.2
589(13) 0.00599 558.8 2.2
601(13) 0.00560 558.8 2.2
571(13) 0.00581 558.8 2.2
562(13) 0.00576 558.8 2.2
599(13) 0.00563 558.8 2.2
560(12) 0.00632 558.8 2.2
543(12) 0.00610 558.8 2.2
554(13) 0.00586 558.8 2.2
574(13) 0.00570 558.8 2.2
586(13) 0.00566 558.8 2.2
544(12) 0.00645 558.8 2.2
560(13) 0.00592 558.8 2.2
549(13) 0.00584 558.8 2.2
504(12) 0.00647 558.8 2.2
559(13) 0.00595 558.8 2.2
528(12) 0.00658 558.9 2.2
556(13) 0.00591 558.9 2.2
576(13) 0.00542 558.9 2.2
539(13) 0.00604 558.9 2.2
549(12) 0.00622 558.9 2.2
543(12) 0.00644 558.9 2.2
573(13) 0.00571 558.9 2.2
554(13) 0.00577 558.9 2.2
546(13) 0.00589 558.9 2.2
527(12) 0.00646 558.9 2.2
549(12) 0.00639 558.9 2.2
577(13) 0.00579 558.9 2.2
588(13) 0.00535 558.9 2.2
560(13) 0.00582 558.9 2.2
560(12) 0.00620 558.9 2.2
603(13) 0.00586 558.9 2.2
579(13) 0.00575 558.9 2.2
563(13) 0.00535 558.9 2.3
562(13) 0.00587 558.9 2.3
557(12) 0.00631 558.9 2.3
567(12) 0.00612 558.9 2.3
577(13) 0.00558 558.9 2.3
564(13) 0.00546 558.9 2.3
580(13) 0.00557 558.9 2.3
533(12) 0.00657 558.9 2.3
533(12) 0.00650 558.9 2.3
512(12) 0.00635 558.9 2.3
573(13) 0.00542 558.9 2.3
551(12) 0.00607 558.9 2.3
561(12) 0.00618 559.0 2.3
567(12) 0.00606 559.0 2.3
526(12) 0.00620 559.0 2.3
540(13) 0.00578 559.0 2.3
544(12) 0.00615 559.0 2.3
559(12) 0.00626 559.0 2.3
551(12) 0.00620 559.0 2.3
559(13) 0.00581 559.0 2.3
553(13) 0.00576 559.0 2.3
580(13) 0.00562 559.0 2.3
547(12) 0.00640 559.0 2.4
556(12) 0.00606 559.0 2.4
535(13) 0.00599 559.0 2.4
541(13) 0.00594 559.0 2.4
550(12) 0.00611 559.0 2.4
547(12) 0.00640 559.0 2.4
553(13) 0.00598 559.0 2.4
560(13) 0.00575 559.0 2.4
545(13) 0.00604 559.0 2.4
590(13) 0.00577 559.0 2.4
584(13) 0.00604 559.0 2.4
568(13) 0.00580 559.0 2.4
534(12) 0.00608 559.0 2.5
561(13) 0.00568 559.0 2.5
542(12) 0.00630 559.0 2.5
544(12) 0.00647 559.0 2.5
578(13) 0.00564 559.0 2.5
547(13) 0.00593 559.0 2.5
553(13) 0.00601 559.0 2.5
568(13) 0.00601 559.1 2.5
561(12) 0.00626 559.1 2.6
561(13) 0.00588 559.1 2.6
563(13) 0.00555 559.1 3.0
530(12) 0.00635 559.1 3.0
549(12) 0.00630 559.1 3.0
555(12) 0.00631 559.1 3.1
556(13) 0.00588 559.1 3.1
567(13) 0.00542 559.1 3.1
574(13) 0.00576 559.1 3.1
551(12) 0.00639 559.1 3.1
557(12) 0.00629 559.1 3.2
568(13) 0.00568 559.1 3.2
543(13) 0.00557 559.1 3.2
532(12) 0.00629 559.1 3.2
570(12) 0.00612 559.1 3.3
532(12) 0.00661 559.1 3.3
563(13) 0.00597 559.1 3.3
555(13) 0.00567 559.1 3.3
570(13) 0.00580 559.1 3.4
566(12) 0.00624 559.1 3.4
569(12) 0.00614 559.1 3.4
577(13) 0.00567 559.1 3.5
583(13) 0.00542 559.1 3.5
562(13) 0.00585 559.1 3.5
567(12) 0.00620 559.1 3.6
542(12) 0.00624 559.1 3.6
541(13) 0.00598 559.1 3.7
540(13) 0.00580 559.2 3.7
514(12) 0.00624 559.2 3.8
539(12) 0.00652 559.2 3.8
587(13) 0.00577 559.2 3.9
566(13) 0.00576 559.2 3.9
570(13) 0.00543 559.2 4.0
551(13) 0.00590 559.2 4.1
562(12) 0.00629 559.2 4.1
557(13) 0.00600 559.2 4.2
571(13) 0.00559 559.2 4.3
542(13) 0.00592 559.2 4.4
550(13) 0.00588 559.2 4.4
534(12) 0.00655 559.2 4.5
590(13) 0.00560 559.2 4.6
557(13) 0.00584 559.2 4.7
545(13) 0.00598 559.2 4.8
536(12) 0.00629 559.2 5.0
569(12) 0.00619 559.2 5.1
561(13) 0.00585 559.2 5.2
554(13) 0.00570 559.2 5.4
567(13) 0.00590 559.2 5.5
569(12) 0.00606 559.2 5.7
555(12) 0.00632 559.2 5.9
580(13) 0.00572 559.2 6.1
575(13) 0.00534 559.2 6.3
555(13) 0.00582 559.2 6.5
542(12) 0.00635 559.2 6.8
532(12) 0.00658 559.2 7.1
538(12) 0.00610 559.2 7.4
547(13) 0.00578 559.3 7.7
555(13) 0.00596 559.3 8.1
556(12) 0.00618 559.3 8.5
556(12) 0.00631 559.3 8.9
545(12) 0.00614 559.3 9.4
572(13) 0.00534 559.3 10.0
580(13) 0.00576 559.3 10.5
596(13) 0.00584 559.3 11.2
582(13) 0.00605 559.3 11.9
578(13) 0.00579 559.3 12.7
576(13) 0.00530 559.3 13.5
564(13) 0.00589 559.3 14.4
543(12) 0.00649 559.3 15.4
576(13) 0.00605 559.3 16.4
607(13) 0.00549 559.3 17.5
582(13) 0.00550 559.3 18.7
599(13) 0.00537 559.3 20.0
575(12) 0.00606 559.3 21.2
596(13) 0.00584 559.3 22.5
571(13) 0.00588 559.3 23.8
569(13) 0.00550 559.3 25.0
558(13) 0.00572 559.3 26.2
558(12) 0.00624 559.3 27.1
548(12) 0.00625 559.3 27.9
534(12) 0.00606 559.3 28.5
553(13) 0.00579 559.3 28.7
580(13) 0.00578 559.3 28.7
561(12) 0.00623 559.3 28.4
565(13) 0.00580 559.3 27.9
563(13) 0.00592 559.4 27.1
586(13) 0.00545 559.4 26.1
540(12) 0.00623 559.4 25.0
586(13) 0.00600 559.4 23.7
547(12) 0.00609 559.4 22.5
536(13) 0.00602 559.4 21.2
552(13) 0.00585 559.4 19.9
555(12) 0.00620 559.4 18.7
516(12) 0.00672 559.4 17.6
564(13) 0.00588 559.4 16.5
572(13) 0.00552 559.4 15.4
549(12) 0.00606 559.4 14.5
539(12) 0.00630 559.4 13.6
572(12) 0.00610 559.4 12.8
555(13) 0.00598 559.4 12.0
574(13) 0.00555 559.4 11.3
558(13) 0.00598 559.4 10.7
536(12) 0.00650 559.4 10.2
577(12) 0.00610 559.4 9.6
567(13) 0.00587 559.4 9.2
527(13) 0.00586 559.4 8.7
545(13) 0.00596 559.4 8.3
524(12) 0.00669 559.4 8.0
566(12) 0.00619 559.4 7.7
557(13) 0.00596 559.4 7.4
531(13) 0.00575 559.4 7.1
558(13) 0.00588 559.4 6.9
573(12) 0.00617 559.4 6.6
554(12) 0.00627 559.4 6.4
568(13) 0.00568 559.5 6.3
545(13) 0.00561 559.5 6.1
560(13) 0.00588 559.5 5.9
576(12) 0.00610 559.5 5.8
544(12) 0.00643 559.5 5.7
538(13) 0.00598 559.5 5.5
523(13) 0.00598 559.5 5.4
565(13) 0.00578 559.5 5.3
560(12) 0.00620 559.5 5.2
558(12) 0.00629 559.5 5.1
580(13) 0.00560 559.5 5.1
577(13) 0.00568 559.5 5.0
557(13) 0.00583 559.5 4.9
537(12) 0.00649 559.5 4.9
596(13) 0.00573 559.5 4.8
578(13) 0.00563 559.5 4.7
550(13) 0.00585 559.5 4.7
538(12) 0.00612 559.5 4.6
537(12) 0.00656 559.5 4.6
576(13) 0.00581 559.5 4.5
569(13) 0.00577 559.5 4.5
570(13) 0.00554 559.5 4.5
557(13) 0.00584 559.5 4.4
555(12) 0.00630 559.5 4.4
536(12) 0.00626 559.5 4.4
574(13) 0.00556 559.5 4.4
537(12) 0.00612 559.5 4.3
550(12) 0.00618 559.5 4.3
564(12) 0.00618 559.6 4.3
547(13) 0.00597 559.6 4.3
518(12) 0.00630 559.6 4.2
564(13) 0.00569 559.6 4.2
546(12) 0.00623 559.6 4.2
564(12) 0.00622 559.6 4.2
557(13) 0.00594 559.6 4.2
533(12) 0.00606 559.6 4.2
580(13) 0.00566 559.6 4.2
525(12) 0.00668 559.6 4.2
584(13) 0.00602 559.6 4.2
589(13) 0.00557 559.6 4.2
567(13) 0.00554 559.6 4.2
586(13) 0.00546 559.6 4.2
566(13) 0.00599 559.6 4.1
540(12) 0.00654 559.6 4.1
574(13) 0.00577 559.6 4.1
544(13) 0.00570 559.6 4.1
549(12) 0.00606 559.6 4.1
579(13) 0.00600 559.6 4.2
548(12) 0.00644 559.6 4.2
532(12) 0.00632 559.6 4.2
553(13) 0.00551 559.6 4.2
546(13) 0.00604 559.6 4.2
530(12) 0.00655 559.6 4.2
542(12) 0.00644 559.6 4.2
561(13) 0.00581 559.6 4.2
532(13) 0.00587 559.6 4.2
518(12) 0.00633 559.6 4.2
558(12) 0.00630 559.7 4.2
560(12) 0.00619 559.7 4.2
540(12) 0.00613 559.7 4.2
536(13) 0.00594 559.7 4.3
564(13) 0.00574 559.7 4.3
568(12) 0.00623 559.7 4.3
558(12) 0.00607 559.7 4.3
551(13) 0.00596 559.7 4.3
548(13) 0.00574 559.7 4.3
552(13) 0.00597 559.7 4.3
583(13) 0.00598 559.7 4.4
555(12) 0.00613 559.7 4.4
543(13) 0.00590 559.7 4.4
542(13) 0.00594 559.7 4.4
556(13) 0.00595 559.7 4.4
574(12) 0.00608 559.7 4.5
522(12) 0.00657 559.7 4.5
553(13) 0.00573 559.7 4.5
510(12) 0.00635 559.7 4.5
562(13) 0.00597 559.7 4.5
555(12) 0.00635 559.7 4.6
569(13) 0.00594 559.7 4.6
552(13) 0.00577 559.7 4.6
560(13) 0.00584 559.7 4.6
584(13) 0.00587 559.7 4.7
579(12) 0.00609 559.7 4.7
571(13) 0.00569 559.7 4.7
560(13) 0.00571 559.7 4.7
579(13) 0.00553 559.7 4.8
564(12) 0.00611 559.9 4.8
553(12) 0.00631 560.1 4.8
531(12) 0.00624 560.3 4.9
587(13) 0.00524 560.5 4.9
564(13) 0.00577 560.7 4.9
572(12) 0.00607 560.9 5.0
582(12) 0.00607 561.1 5.0
585(13) 0.00561 561.3 5.0
575(13) 0.00528 561.5 5.1
575(13) 0.00558 561.7 5.1
581(13) 0.00601 561.9 5.1
545(12) 0.00647 562.1 5.2
529(12) 0.00622 562.3 5.2
553(13) 0.00539 562.5 5.2
562(13) 0.00573 562.7 5.3
576(12) 0.00611 562.9 5.3
556(12) 0.00625 563.1 5.4
578(13) 0.00568 563.3 5.4
574(13) 0.00549 563.5 5.5
586(13) 0.00556 563.7 5.6
584(13) 0.00601 563.9 5.6
585(13) 0.00598 564.1 5.7
564(13) 0.00577 564.3 5.7
577(13) 0.00554 564.5 5.8
563(13) 0.00593 564.7 5.8
581(13) 0.00604 564.9 5.9
563(12) 0.00613 565.1 5.9
554(13) 0.00588 565.3 6.0
559(13) 0.00557 565.5 6.0
542(13) 0.00601 565.7 6.1
551(12) 0.00640 565.9 6.1
569(13) 0.00600 566.1 6.2
553(13) 0.00601 566.3 6.2
562(13) 0.00573 566.5 6.3
568(13) 0.00572 566.7 6.4
561(12) 0.00619 566.9 6.4
567(13) 0.00600 567.1 6.5
581(13) 0.00552 567.3 6.6
581(13) 0.00553 567.5 6.6
584(13) 0.00584 567.7 6.7
565(12) 0.00624 567.9 6.8
566(13) 0.00573 568.1 6.8
552(13) 0.00588 568.3 6.9
620(13) 0.00524 568.5 7.0
589(13) 0.00582 568.7 7.1
565(12) 0.00618 568.9 7.1
565(13) 0.00585 569.1 7.2
612(14) 0.00514 569.3 7.3
581(13) 0.00560 569.5 7.4
582(13) 0.00585 569.7 7.5
565(12) 0.00625 569.9 7.6
579(13) 0.00574 570.1 7.7
547(13) 0.00585 570.3 7.8
574(13) 0.00553 570.5 7.9
549(12) 0.00629 570.7 8.0
564(12) 0.00623 570.9 8.1
602(13) 0.00537 571.1 8.2
583(13) 0.00533 571.3 8.3
582(13) 0.00576 571.5 8.4
567(12) 0.00614 571.7 8.5
552(12) 0.00636 571.9 8.6
547(13) 0.00605 572.1 8.7
593(14) 0.00519 572.3 8.8
584(13) 0.00568 572.5 9.0
583(12) 0.00605 572.7 9.1
584(13) 0.00591 572.9 9.2
599(13) 0.00546 573.1 9.4
555(13) 0.00561 573.3 9.5
545(12) 0.00607 573.5 9.7
569(12) 0.00612 573.7 9.8
567(12) 0.00620 573.9 9.9
566(13) 0.00579 574.1 10.1
558(13) 0.00563 574.3 10.3
592(13) 0.00544 574.5 10.4
585(13) 0.00604 574.7 10.6
583(13) 0.00593 574.9 10.8
579(13) 0.00581 575.1 11.0
544(13) 0.00585 575.3 11.1
565(13) 0.00577 575.5 11.3
587(13) 0.00596 575.7 11.5
584(13) 0.00582 575.9 11.7
572(13) 0.00567 576.1 11.9
574(13) 0.00565 576.3 12.2
563(13) 0.00580 576.5 12.4
551(12) 0.00635 576.7 12.6
535(12) 0.00632 576.9 12.8
567(13) 0.00582 577.1 13.1
559(13) 0.00591 577.3 13.3
591(13) 0.00555 577.5 13.6
595(13) 0.00588 577.7 13.9
567(13) 0.00582 577.9 14.2
592(13) 0.00528 578.1 14.4
556(13) 0.00585 578.3 14.7
580(13) 0.00587 578.5 15.1
599(13) 0.00583 578.7 15.4
586(13) 0.00562 578.9 15.7
594(13) 0.00533 579.1 16.1
591(13) 0.00558 579.3 16.4
574(13) 0.00597 579.5 16.8
583(13) 0.00600 579.7 17.2
565(13) 0.00566 579.9 17.6
581(13) 0.00538 580.1 18.0
554(13) 0.00586 580.3 18.4
574(13) 0.00603 580.5 18.9
590(13) 0.00588 580.7 19.4
596(13) 0.00541 580.9 19.9
594(14) 0.00509 581.1 20.4
563(13) 0.00593 581.3 20.9
592(13) 0.00592 581.5 21.5
576(13) 0.00599 581.7 22.1
592(13) 0.00556 581.9 22.7
584(13) 0.00530 582.1 23.3
613(13) 0.00533 582.3 24.0
595(13) 0.00587 582.5 24.7
610(13) 0.00567 582.7 25.4
596(13) 0.00562 582.9 26.2
581(13) 0.00542 583.1 27.0
568(13) 0.00586 583.3 27.9
592(13) 0.00590 583.5 28.8
614(13) 0.00573 583.7 29.7
627(13) 0.00528 583.9 30.7
588(13) 0.00526 584.1 31.7
578(13) 0.00563 584.3 32.8
595(13) 0.00593 584.5 34.0
596(13) 0.00583 584.7 35.2
593(13) 0.00543 584.9 36.5
586(13) 0.00536 585.1 37.9
612(13) 0.00539 585.3 39.4
609(13) 0.00576 585.5 40.9
590(13) 0.00580 585.7 42.6
589(13) 0.00566 585.9 44.3
631(14) 0.00511 586.1 46.2
614(13) 0.00532 586.3 48.2
627(13) 0.00558 586.5 50.3
633(13) 0.00547 586.7 52.6
574(13) 0.00583 586.9 55.1
625(13) 0.00523 587.1 57.7
612(13) 0.00552 587.3 60.5
627(13) 0.00568 587.5 63.6
613(13) 0.00540 587.7 66.9
609(13) 0.00554 587.9 70.4
614(13) 0.00529 588.1 74.3
589(13) 0.00563 588.3 78.5
627(13) 0.00567 588.5 83.0
618(13) 0.00543 588.7 88.0
636(14) 0.00515 588.9 93.4
660(14) 0.00495 589.1 99.4
644(13) 0.00530 589.3 106.0
644(13) 0.00550 589.5 113.2
681(14) 0.00488 589.7 121.2
688(14) 0.00467 589.9 130.1
701(14) 0.00474 590.1 140.0
716(14) 0.00490 590.3 151.1
714(14) 0.00501 590.5 163.5
710(14) 0.00475 590.7 177.6
710(15) 0.00443 590.9 193.8
764(15) 0.00433 591.1 212.4
784(15) 0.00451 591.3 234.2
808(15) 0.00444 591.5 260.1
817(15) 0.00412 591.7 291.6
900(17) 0.003483 591.9 330.4
975(17) 0.003322 592.1 379.2
1022(17) 0.003446 592.3 441.4
1157(18) 0.003132 592.5 521.3
1267(19) 0.002657 592.7 624.1
1361(20) 0.002363 592.9 755.5
1561(21) 0.002147 593.1 921.5
1794(22) 0.002020 593.3 1127.5
2012(23) 0.001820 593.5 1377.7
2324(26) 0.001475 593.7 1673.3
2470(27) 0.001311 593.9 2012.1
2820(29) 0.001205 594.1 2385.3
3226(30) 0.001136 594.3 2774.9
3603(31) 0.001008 594.5 3151.1
4094(34) 0.000840 594.7 3469.6
4487(37) 0.000726 595. 3679.
4529(36) 0.000748 595. 3736.
4398(34) 0.000834 595.3 3628.0
4003(34) 0.000882 595.5 3378.8
3528(32) 0.000963 595.7 3036.7
3069(30) 0.001087 595.9 2652.2
2688(28) 0.001271 596.1 2265.0
2433(26) 0.001505 596.3 1901.4
2141(25) 0.001634 596.5 1575.6
1824(23) 0.001891 596.7 1294.2
1726(23) 0.001931 596.9 1058.3
1590(21) 0.002175 597.1 865.3
1441(20) 0.002515 597.3 710.9
1356(20) 0.002561 597.5 589.1
1234(19) 0.002683 597.7 494.2
1123(18) 0.002946 597.9 420.4
1026(17) 0.003413 598.1 362.8
988(16) 0.00364 598.3 317.5
974(17) 0.003465 598.5 281.2
924(17) 0.00353 598.7 251.7
891(16) 0.00371 598.9 227.2
841(15) 0.00416 599.1 206.5
834(15) 0.00429 599.3 188.8
824(16) 0.00393 599.5 173.3
790(15) 0.00404 599.7 159.8
743(15) 0.00450 599.9 147.8
718(14) 0.00485 600.2 137.1
730(14) 0.00486 600.4 127.6
731(14) 0.00457 600.6 119.0
735(15) 0.00429 600.8 111.3
695(14) 0.00484 601.0 104.3
725(14) 0.00482 601.2 97.9
684(14) 0.00520 601.4 92.2
652(13) 0.00527 601.6 86.9
659(14) 0.00478 601.8 82.1
662(14) 0.00500 602.0 77.6
684(14) 0.00517 602.2 73.6
674(13) 0.00527 602.4 69.8
629(13) 0.00524 602.6 66.4
645(14) 0.00470 602.8 63.2
623(13) 0.00527 603.0 60.2
656(13) 0.00539 603.2 57.5
645(13) 0.00548 603.4 54.9
608(13) 0.00555 603.6 52.5
633(14) 0.00485 603.8 50.3
630(13) 0.00527 604.0 48.2
601(13) 0.00588 604.2 46.3
659(13) 0.00528 604.4 44.5
614(13) 0.00559 604.6 42.8
629(14) 0.00503 604.8 41.2
644(14) 0.00519 605.0 39.7
590(13) 0.00593 605.2 38.2
596(13) 0.00583 605.4 36.9
638(14) 0.00521 605.6 35.6
623(14) 0.00518 605.8 34.5
656(14) 0.00504 606.0 33.3
640(13) 0.00554 606.2 32.3
626(13) 0.00538 606.4 31.2
601(13) 0.00544 606.6 30.3
641(14) 0.00489 606.8 29.4
635(13) 0.00526 607.0 28.5
607(13) 0.00581 607.2 27.7
611(13) 0.00537 607.4 26.9
605(13) 0.00539 607.6 26.2
607(13) 0.00541 607.8 25.5
607(13) 0.00559 608.0 24.8
605(13) 0.00586 608.2 24.2
593(13) 0.00573 608.4 23.5
608(13) 0.00537 608.6 23.0
626(13) 0.00531 608.8 22.4
639(13) 0.00536 609.0 21.9
610(13) 0.00576 609.2 21.4
635(14) 0.00505 609.4 20.9
627(14) 0.00501 609.6 20.4
635(14) 0.00512 609.8 20.0
621(13) 0.00558 610.0 19.6
659(13) 0.00539 610.2 19.1
630(14) 0.00519 610.4 18.8
624(14) 0.00505 610.6 18.4
631(14) 0.00520 610.8 18.0
593(13) 0.00576 611.0 17.7
624(13) 0.00564 611.2 17.3
593(13) 0.00553 611.4 17.0
622(14) 0.00495 611.6 16.7
574(13) 0.00587 611.8 16.4
621(13) 0.00566 612.0 16.1
661(13) 0.00531 612.2 15.8
594(13) 0.00572 612.4 15.6
609(14) 0.00507 612.6 15.3
641(14) 0.00508 612.8 15.0
646(13) 0.00541 613.0 14.8
629(13) 0.00566 613.2 14.6
622(13) 0.00534 613.4 14.4
609(14) 0.00519 613.6 14.1
614(13) 0.00549 613.8 13.9
618(13) 0.00577 614.0 13.7
632(13) 0.00559 614.2 13.5
586(13) 0.00583 614.4 13.4
614(14) 0.00507 614.6 13.2
625(14) 0.00521 614.8 13.0
633(13) 0.00562 615.0 12.8
604(13) 0.00568 615.2 12.7
630(14) 0.00523 615.4 12.5
612(13) 0.00538 615.6 12.4
643(14) 0.00506 615.8 12.2
583(13) 0.00603 616.0 12.1
619(13) 0.00545 616.2 12.0
619(13) 0.00537 616.4 11.8
625(14) 0.00511 616.6 11.7
638(14) 0.00508 616.8 11.6
631(13) 0.00560 617.0 11.5
607(13) 0.00562 617.2 11.4
605(13) 0.00534 617.4 11.2
597(13) 0.00547 617.6 11.1
617(13) 0.00557 617.8 11.0
608(13) 0.00581 618.0 10.9
632(13) 0.00541 618.2 10.8
660(14) 0.00492 618.4 10.8
632(13) 0.00533 618.6 10.7
649(14) 0.00518 618.8 10.6
629(13) 0.00563 619.0 10.5
598(13) 0.00555 619.2 10.4
644(14) 0.00493 619.4 10.3
634(13) 0.00523 619.6 10.3
642(13) 0.00547 619.8 10.2
624(13) 0.00564 620.0 10.1
636(14) 0.00518 620.2 10.1
608(14) 0.00522 620.4 10.0
602(13) 0.00558 620.6 9.9
636(13) 0.00548 620.8 9.9
631(13) 0.00562 621.0 9.8
616(13) 0.00539 621.2 9.8
605(14) 0.00520 621.4 9.7
650(14) 0.00500 621.6 9.7
631(13) 0.00560 621.8 9.6
620(13) 0.00565 622.0 9.6
648(14) 0.00506 622.2 9.5
639(14) 0.00482 622.4 9.5
640(13) 0.00531 622.6 9.5
634(13) 0.00557 622.8 9.4
589(13) 0.00591 623.0 9.4
582(13) 0.00573 623.2 9.3
591(14) 0.00516 623.4 9.3
602(13) 0.00543 623.6 9.3
608(13) 0.00576 623.8 9.3
635(13) 0.00547 624.0 9.2
628(13) 0.00526 624.2 9.2
621(14) 0.00502 624.4 9.2
647(14) 0.00510 624.6 9.2
625(13) 0.00567 624.8 9.1
602(13) 0.00573 625.0 9.1
604(13) 0.00552 625.2 9.1
616(14) 0.00518 625.4 9.1
656(14) 0.00496 625.6 9.1
630(13) 0.00555 625.8 9.1
610(13) 0.00565 626.0 9.1
636(14) 0.00509 626.2 9.0
636(14) 0.00508 626.4 9.0
627(14) 0.00507 626.6 9.0
657(13) 0.00538 626.8 9.0
637(13) 0.00532 627.0 9.0
633(14) 0.00504 627.2 9.0
615(13) 0.00530 627.4 9.0
620(13) 0.00539 627.6 9.0
638(13) 0.00557 627.8 9.0
617(13) 0.00546 628.0 9.0
640(14) 0.00503 628.2 9.0
640(14) 0.00509 628.4 9.0
631(13) 0.00535 628.6 9.0
620(13) 0.00572 628.8 9.1
610(13) 0.00553 629.0 9.1
627(14) 0.00517 629.2 9.1
637(14) 0.00515 629.4 9.1
634(13) 0.00531 629.6 9.1
654(13) 0.00541 629.8 9.1
607(13) 0.00540 630.0 9.1
623(14) 0.00511 630.2 9.2
665(14) 0.00487 630.4 9.2
632(13) 0.00544 630.6 9.2
637(13) 0.00557 630.8 9.2
652(14) 0.00507 631.0 9.2
639(14) 0.00493 631.2 9.3
639(14) 0.00518 631.4 9.3
612(13) 0.00565 631.6 9.3
595(13) 0.00584 631.8 9.3
648(14) 0.00512 632.0 9.4
649(14) 0.00481 632.2 9.4
663(14) 0.00502 632.6 9.4
653(13) 0.00535 633.0 9.5
609(13) 0.00575 633.4 9.5
650(14) 0.00512 633.9 9.5
637(14) 0.00478 634.3 9.6
616(13) 0.00541 634.7 9.6
616(13) 0.00569 635.2 9.7
606(13) 0.00574 635.6 9.7
657(14) 0.00502 636.0 9.8
627(14) 0.00504 636.4 9.8
643(13) 0.00524 636.9 9.8
641(13) 0.00550 637.3 9.9
631(13) 0.00558 637.7 9.9
672(14) 0.00488 638.2 10.0
644(14) 0.00497 638.6 10.0
652(14) 0.00517 639.0 10.1
616(13) 0.00576 639.5 10.2
653(13) 0.00523 639.9 10.2
629(14) 0.00522 640.3 10.3
614(13) 0.00530 640.8 10.3
625(13) 0.00526 641.2 10.4
652(13) 0.00544 641.6 10.5
640(13) 0.00542 642.1 10.5
679(14) 0.00481 642.5 10.6
655(14) 0.00490 642.9 10.7
640(14) 0.00514 643.3 10.7
633(13) 0.00558 643.8 10.8
631(13) 0.00541 644.2 10.9
627(14) 0.00514 644.6 11.0
661(14) 0.00492 645.1 11.0
689(14) 0.00496 645.5 11.1
637(13) 0.00552 645.9 11.2
650(14) 0.00508 646.4 11.3
631(14) 0.00521 646.8 11.4
652(14) 0.00508 647.2 11.5
635(13) 0.00537 647.7 11.5
611(13) 0.00581 648.1 11.6
687(14) 0.00467 648.5 11.7
638(14) 0.00519 648.9 11.8
650(14) 0.00515 649.4 11.9
653(13) 0.00530 649.8 12.0
637(13) 0.00555 650.2 12.1
647(14) 0.00506 650.7 12.2
626(14) 0.00513 651.1 12.4
645(14) 0.00513 651.5 12.5
632(13) 0.00557 652.0 12.6
680(14) 0.00520 652.4 12.7
653(14) 0.00506 652.8 12.8
653(14) 0.00486 653.3 12.9
651(14) 0.00513 653.7 13.1
654(13) 0.00541 654.1 13.2
611(13) 0.00581 654.6 13.3
661(14) 0.00495 655.0 13.5
651(14) 0.00471 655.4 13.6
694(14) 0.00470 655.8 13.8
655(13) 0.00543 656.3 13.9
619(13) 0.00560 656.7 14.0
652(14) 0.00514 657.1 14.2
653(14) 0.00486 657.6 14.4
642(13) 0.00530 658.0 14.5
650(13) 0.00545 658.4 14.7
642(13) 0.00549 658.9 14.8
650(14) 0.00504 659.3 15.0
664(14) 0.00488 659.7 15.2
655(14) 0.00514 660.2 15.4
676(14) 0.00522 660.6 15.5
669(14) 0.00507 661.0 15.7
658(14) 0.00505 661.5 15.9
677(14) 0.00477 661.9 16.1
715(14) 0.00462 662.3 16.3
659(13) 0.00536 662.7 16.5
692(14) 0.00503 663.2 16.7
688(14) 0.00485 663.6 17.0
653(14) 0.00497 664.0 17.2
673(14) 0.00487 664.5 17.4
651(13) 0.00543 664.9 17.7
677(14) 0.00495 665.3 17.9
654(14) 0.00499 665.8 18.1
672(14) 0.00481 666.2 18.4
684(14) 0.00494 666.6 18.7
701(14) 0.00506 667.1 18.9
695(14) 0.00484 667.5 19.2
639(14) 0.00516 667.9 19.5
641(14) 0.00505 668.3 19.8
685(14) 0.00497 668.8 20.1
687(14) 0.00519 669.2 20.4
669(14) 0.00507 669.6 20.7
691(14) 0.00466 670.1 21.0
665(14) 0.00504 670.5 21.3
662(14) 0.00515 670.9 21.7
624(13) 0.00571 671.4 22.0
638(14) 0.00516 671.8 22.4
656(14) 0.00486 672.2 22.7
693(14) 0.00475 672.7 23.1
707(14) 0.00491 673.1 23.5
715(14) 0.00495 673.5 23.9
661(14) 0.00495 674.0 24.3
725(15) 0.00428 674.4 24.7
668(14) 0.00507 674.8 25.2
652(13) 0.00541 675.2 25.6
669(13) 0.00527 675.7 26.1
654(14) 0.00508 676.1 26.6
684(15) 0.00456 676.5 27.1
693(14) 0.00487 677.0 27.6
696(14) 0.00505 677.4 28.1
658(13) 0.00543 677.8 28.6
627(13) 0.00535 678.3 29.2
710(15) 0.00422 678.7 29.8
684(14) 0.00478 679.1 30.4
704(14) 0.00501 679.6 31.0
711(14) 0.00494 680.0 31.6
725(14) 0.00462 680.4 32.3
699(14) 0.00463 680.8 33.0
706(14) 0.00471 681.3 33.7
683(14) 0.00518 681.7 34.4
681(14) 0.00516 682.1 35.1
690(14) 0.00471 682.6 35.9
684(14) 0.00466 683.0 36.7
690(14) 0.00489 683.4 37.6
688(14) 0.00511 683.9 38.4
696(14) 0.00506 684.3 39.3
673(14) 0.00503 684.7 40.3
717(15) 0.00451 685.2 41.3
687(14) 0.00482 685.6 42.3
691(14) 0.00512 686.0 43.3
697(14) 0.00487 686.5 44.4
687(14) 0.00485 686.9 45.5
688(14) 0.00481 687.3 46.7
701(14) 0.00480 687.7 47.9
716(14) 0.00501 688.2 49.2
696(14) 0.00480 688.6 50.6
719(15) 0.00452 689.0 52.0
720(15) 0.00454 689.5 53.4
754(14) 0.00457 689.9 54.9
723(14) 0.00491 690.3 56.5
738(15) 0.00445 690.8 58.2
739(15) 0.00437 691.2 59.9
756(15) 0.00437 691.6 61.7
746(14) 0.00464 692.1 63.6
750(14) 0.00475 692.5 65.6
714(14) 0.00463 692.9 67.7
724(15) 0.00433 693.4 69.9
752(15) 0.00437 693.8 72.2
770(15) 0.00449 694.2 74.6
747(14) 0.00480 694.6 77.2
754(15) 0.00438 695.1 79.9
739(15) 0.00428 695.5 82.7
716(14) 0.00473 695.9 85.7
735(14) 0.00479 696.4 88.8
778(14) 0.00457 696.8 92.2
747(15) 0.00443 697.2 95.7
739(15) 0.00425 697.7 99.5
766(15) 0.00446 698.1 103.4
779(15) 0.00455 698.5 107.7
736(14) 0.00482 699.0 112.2
771(15) 0.00428 699.4 116.9
773(16) 0.00398 699.8 122.0
756(15) 0.00446 700.2 127.4
748(14) 0.00478 700.7 133.3
773(15) 0.00455 701.1 139.5
767(15) 0.00434 701.5 146.1
815(16) 0.00378 702.0 153.3
814(15) 0.00404 702.4 161.0
800(15) 0.00447 702.8 169.3
767(14) 0.00459 703.3 178.2
786(15) 0.00422 703.7 187.9
831(16) 0.00385 704.1 198.4
855(16) 0.00399 704.6 209.7
883(15) 0.00406 705.0 222.1
883(16) 0.00390 705.4 235.6
888(16) 0.00375 705.9 250.3
904(16) 0.00361 706.3 266.5
899(16) 0.00375 706.7 284.3
935(16) 0.00381 707.1 303.9
945(16) 0.00368 707.6 325.6
976(17) 0.003417 708.0 349.8
965(17) 0.003387 708.4 376.8
1025(17) 0.003351 708.9 407.2
1039(17) 0.003485 709.3 441.6
1072(18) 0.003169 709.7 481.0
1145(18) 0.002911 710.2 526.5
1184(19) 0.002835 710.6 579.5
1246(19) 0.002778 711.0 642.0
1277(19) 0.002842 711.5 716.3
1388(20) 0.002426 711.9 805.5
1555(21) 0.002122 712.3 913.1
1649(22) 0.002064 712.7 1043.3
1826(22) 0.001946 713.2 1200.9
1995(23) 0.001828 713.6 1391.0
2202(25) 0.001534 714.0 1618.8
2599(28) 0.001257 714.5 1889.3
2835(29) 0.001209 714.9 2206.9
3352(31) 0.001064 715.3 2574.1
3703(32) 0.000995 715.8 2991.7
4312(35) 0.000801 716. 3456.
4883(39) 0.000667 717. 3956.
5464(40) 0.000626 717. 4473.
6153(41) 0.000591 717. 4974.
6758(43) 0.000541 718. 5415.
7031(45) 0.000485 718. 5740.
6964(47) 0.000457 719. 5901.
6626(44) 0.000520 719. 5869.
6067(41) 0.000602 720. 5650.
5505(39) 0.000662 720. 5280.
5066(38) 0.000674 721. 4814.
4588(38) 0.000693 721. 4303.
4262(35) 0.000807 721. 3789.
3842(32) 0.000953 721.8 3300.0
3445(31) 0.001049 722.2 2850.8
3251(31) 0.001045 722.7 2449.8
2992(30) 0.001073 723.1 2099.4
2684(28) 0.001274 723.5 1797.9
2481(26) 0.001472 724.0 1542.3
2326(25) 0.001549 724.4 1327.7
2223(25) 0.001524 724.8 1149.2
1967(24) 0.001669 725.2 1001.6
1872(23) 0.001814 725.7 879.6
1859(22) 0.001960 726.1 778.9
1739(22) 0.002050 726.5 695.3
1646(22) 0.002070 727.0 625.5
1586(22) 0.002069 727.4 566.8
1498(21) 0.002243 727.8 516.9
1411(19) 0.002571 728.3 474.1
1385(20) 0.002510 728.7 436.9
1282(19) 0.002583 729.1 404.4
1265(19) 0.002577 729.6 375.8
1217(19) 0.002823 730.0 350.4
1230(18) 0.002938 730.4 327.8
1169(18) 0.002926 730.9 307.6
1104(18) 0.003004 731.3 289.4
1075(18) 0.003120 731.7 273.1
1115(18) 0.003129 732.1 258.4
1103(17) 0.003286 732.6 245.2
1087(18) 0.003086 733.0 233.3
1039(18) 0.003142 733.4 222.6
980(17) 0.003371 733.9 213.1
992(17) 0.00353 734.3 204.7
978(16) 0.00366 734.7 197.3
955(17) 0.00351 735.2 190.9
951(17) 0.003439 735.6 185.6
939(16) 0.00356 736.0 181.3
933(16) 0.00383 736.5 178.0
912(16) 0.00390 736.9 175.9
937(16) 0.00357 737.3 175.1
913(16) 0.00356 737.8 175.5
900(16) 0.00378 738.2 177.4
938(16) 0.00380 738.6 180.8
890(15) 0.00404 739.0 185.8
906(16) 0.00368 739.5 192.5
943(17) 0.003347 739.9 200.9
932(16) 0.00364 740.3 211.0
892(16) 0.00400 740.8 222.5
1029(17) 0.003499 741.2 235.2
969(17) 0.003462 741.6 248.4
992(18) 0.003092 742.1 261.2
990(17) 0.003437 742.5 272.3
1004(16) 0.00356 742.9 280.2
987(16) 0.00362 743.4 283.5
934(16) 0.00364 743.8 281.5
951(17) 0.003363 744.2 273.9
946(16) 0.00359 744.6 261.5
954(16) 0.00378 745.1 245.7
940(16) 0.00377 745.5 228.0
956(17) 0.00355 745.9 209.6
893(16) 0.00356 746.4 191.5
899(16) 0.00364 746.8 174.4
823(15) 0.00431 747.2 158.6
862(15) 0.00408 747.7 144.2
847(16) 0.00386 748.1 131.4
800(15) 0.00402 748.5 120.1
802(15) 0.00420 749.0 110.1
815(15) 0.00442 749.4 101.4
846(15) 0.00402 749.8 93.9
821(15) 0.00402 750.3 87.3
799(15) 0.00414 750.7 81.6
798(15) 0.00417 751.1 76.6
821(15) 0.00433 751.5 72.3
808(15) 0.00417 752.0 68.4
791(15) 0.00410 752.4 65.0
801(15) 0.00407 752.8 62.0
775(15) 0.00440 753.3 59.3
776(14) 0.00456 753.7 56.8
823(15) 0.00412 754.1 54.6
825(16) 0.00396 754.6 52.5
793(15) 0.00408 755.0 50.6
786(15) 0.00435 755.4 48.9
786(15) 0.00452 755.9 47.2
735(15) 0.00449 756.3 45.7
790(15) 0.00403 756.7 44.2
750(15) 0.00447 757.1 42.9
787(15) 0.00438 757.6 41.6
774(14) 0.00460 758.0 40.4
799(15) 0.00426 758.4 39.3
764(15) 0.00430 758.9 38.2
781(15) 0.00425 759.3 37.2
742(14) 0.00482 759.7 36.3
814(15) 0.00435 760.2 35.3
770(15) 0.00433 760.6 34.5
781(16) 0.00393 761.0 33.6
770(15) 0.00434 761.5 32.8
762(14) 0.00468 761.9 32.1
739(14) 0.00484 762.3 31.4
739(15) 0.00451 762.8 30.7
775(15) 0.00403 763.2 30.0
768(15) 0.00442 763.6 29.4
770(15) 0.00455 764.0 28.8
788(15) 0.00453 764.5 28.2
782(15) 0.00428 764.9 27.6
801(16) 0.00395 765.3 27.1
770(15) 0.00438 765.8 26.5
806(15) 0.00442 766.2 26.0
790(15) 0.00452 766.6 25.5
805(15) 0.00413 767.1 25.1
777(15) 0.00408 767.5 24.6
774(15) 0.00428 767.9 24.2
753(14) 0.00473 768.4 23.8
803(15) 0.00437 768.8 23.4
759(15) 0.00449 769.2 23.0
767(15) 0.00425 769.7 22.6
827(16) 0.00401 770.1 22.2
779(14) 0.00458 770.5 21.9
737(14) 0.00477 770.9 21.5
762(15) 0.00435 771.4 21.2
792(15) 0.00410 771.8 20.9
804(15) 0.00411 772.2 20.6
778(14) 0.00458 772.7 20.3
756(14) 0.00457 773.1 20.0
771(15) 0.00426 773.5 19.7
766(15) 0.00427 774.0 19.4
795(15) 0.00420 774.4 19.2
756(14) 0.00472 774.8 18.9
783(15) 0.00432 775.3 18.7
767(15) 0.00421 775.7 18.4
772(15) 0.00428 776.1 18.2
772(15) 0.00452 776.5 18.0
794(15) 0.00448 777.0 17.7
802(15) 0.00424 777.4 17.5
776(15) 0.00415 777.8 17.3
803(15) 0.00408 778.3 17.1
769(15) 0.00446 778.7 16.9
777(14) 0.00461 779.1 16.8
796(15) 0.00416 779.6 16.6
805(16) 0.00392 780.0 16.4
775(15) 0.00427 780.4 16.3
787(15) 0.00434 780.9 16.1
774(14) 0.00459 781.3 15.9
801(15) 0.00415 781.7 15.8
807(16) 0.00398 782.2 15.7
784(15) 0.00425 782.6 15.5
827(15) 0.00422 783.0 15.4
777(14) 0.00461 783.4 15.3
830(16) 0.00400 783.9 15.1
809(16) 0.00390 784.3 15.0
810(15) 0.00413 784.7 14.9
792(15) 0.00448 785.2 14.8
793(15) 0.00446 785.6 14.7
760(15) 0.00434 786.0 14.6
786(16) 0.00387 786.5 14.5
797(15) 0.00420 787.1 14.5
801(15) 0.00445 787.6 14.4
809(15) 0.00436 788.2 14.3
827(15) 0.00405 788.8 14.2
779(15) 0.00412 789.4 14.2
751(15) 0.00454 789.9 14.1
785(15) 0.00454 790.5 14.1
785(15) 0.00446 791.1 14.0
807(15) 0.00406 791.7 14.0
820(16) 0.00387 792.2 14.0
805(15) 0.00415 792.8 13.9
801(15) 0.00450 793.4 13.9
770(15) 0.00452 794.0 13.9
758(15) 0.00438 794.6 13.9
791(15) 0.00411 795.1 13.9
808(15) 0.00413 795.7 13.9
791(15) 0.00452 796.3 13.9
816(15) 0.00425 796.9 14.0
816(15) 0.00408 797.4 14.0
828(16) 0.00391 798.0 14.0
856(16) 0.00393 798.6 14.1
810(15) 0.00442 799.2 14.1
764(15) 0.00451 799.7 14.2
797(15) 0.00420 800.3 14.3
834(16) 0.00394 800.9 14.4
829(15) 0.00406 801.5 14.5
778(14) 0.00457 802.0 14.6
800(15) 0.00410 802.6 14.7
812(15) 0.00402 803.2 14.9
815(15) 0.00405 803.8 15.0
820(15) 0.00417 804.3 15.2
842(15) 0.00426 804.9 15.4
765(15) 0.00442 805.5 15.6
791(15) 0.00407 806.1 15.9
797(15) 0.00417 806.6 16.1
825(15) 0.00419 807.2 16.4
833(15) 0.00426 807.8 16.7
848(16) 0.00395 808.4 17.1
812(16) 0.00395 809.0 17.4
814(15) 0.00413 809.5 17.9
833(15) 0.00421 810.1 18.3
822(15) 0.00435 810.7 18.8
812(15) 0.00405 811.3 19.3
834(16) 0.00368 811.8 19.9
808(15) 0.00415 812.4 20.6
850(15) 0.00410 813.0 21.3
814(15) 0.00438 813.6 22.1
843(16) 0.00392 814.1 23.0
801(16) 0.00387 814.7 23.9
814(15) 0.00410 815.3 25.0
829(15) 0.00424 815.9 26.2
815(15) 0.00436 816.4 27.5
889(16) 0.00373 817.0 29.0
847(16) 0.00377 817.6 30.7
893(16) 0.00376 818.2 32.6
840(15) 0.00423 818.7 34.8
892(16) 0.00395 819.3 37.2
883(16) 0.00379 819.9 40.0
891(16) 0.00358 820.5 43.3
893(16) 0.00370 821.0 47.2
934(16) 0.00381 821.6 51.7
891(16) 0.00393 822.2 57.3
932(17) 0.003495 822.8 64.4
913(17) 0.00351 823.4 73.3
930(16) 0.00359 823.9 85.1
965(16) 0.00373 824.5 100.6
989(17) 0.003464 825.1 121.3
1021(17) 0.003267 825.7 148.6
1042(18) 0.003168 826.2 184.2
1135(18) 0.002987 826.8 229.6
1108(17) 0.003250 827.4 285.8
1159(18) 0.003022 828.0 353.2
1319(20) 0.002542 828.5 430.5
1395(20) 0.002359 829.1 514.8
1474(20) 0.002336 829.7 600.1
1512(20) 0.002415 830.3 676.6
1542(21) 0.002270 830.8 731.3
1549(21) 0.002195 831.4 751.8
1618(22) 0.002086 832.0 732.7
1516(20) 0.002337 832.6 679.1
1439(20) 0.002507 833.1 603.0
1293(19) 0.002574 833.7 517.8
1195(19) 0.002769 834.3 433.3
1118(18) 0.003006 834.9 355.6
1067(17) 0.003330 835.4 287.8
1035(17) 0.003483 836.0 231.1
970(17) 0.003398 836.6 185.2
937(17) 0.003423 837.2 149.2
988(17) 0.003352 837.8 121.5
915(16) 0.00387 838.3 100.6
944(16) 0.00380 838.9 84.8
886(16) 0.00377 839.5 72.9
919(17) 0.003444 840.1 63.7
887(16) 0.00384 840.6 56.6
883(16) 0.00401 841.2 50.9
848(15) 0.00424 841.8 46.2
862(16) 0.00390 842.4 42.3
887(17) 0.00355 842.9 38.9
897(16) 0.00374 843.5 36.0
899(16) 0.00395 844.1 33.5
833(15) 0.00425 844.7 31.3
868(16) 0.00378 845.2 29.3
864(16) 0.00361 845.8 27.5
876(16) 0.00379 846.4 26.0
905(16) 0.00393 847.0 24.6
834(15) 0.00425 847.5 23.3
843(16) 0.00397 848.1 22.1
881(16) 0.00361 848.7 21.1
839(16) 0.00400 849.3 20.2
873(15) 0.00406 849.9 19.3
894(16) 0.00391 850.4 18.5
836(16) 0.00388 851.0 17.8
815(16) 0.00389 851.6 17.1
859(16) 0.00382 852.2 16.5
868(15) 0.00412 852.7 15.9
850(15) 0.00415 853.3 15.4
869(16) 0.00383 853.9 14.9
842(16) 0.00399 854.5 14.5
864(16) 0.00389 855.0 14.1
858(15) 0.00416 855.6 13.7
907(16) 0.00381 856.2 13.3
852(16) 0.00397 856.8 13.0
884(16) 0.00372 857.3 12.7
867(16) 0.00386 857.9 12.4
879(15) 0.00408 858.5 12.1
862(16) 0.00393 859.1 11.8
882(16) 0.00373 859.6 11.6
862(16) 0.00381 860.2 11.4
855(16) 0.00398 860.8 11.2
837(15) 0.00428 861.4 11.0
852(16) 0.00395 861.9 10.8
852(16) 0.00379 862.5 10.6
880(16) 0.00380 863.1 10.4
892(16) 0.00391 863.7 10.3
832(15) 0.00430 864.3 10.1
850(16) 0.00394 864.8 10.0
848(16) 0.00382 865.4 9.9
854(16) 0.00384 866.0 9.7
834(15) 0.00418 866.6 9.6
891(15) 0.00405 867.1 9.5
860(16) 0.00395 867.7 9.4
847(16) 0.00377 868.3 9.3
867(16) 0.00391 868.9 9.2
867(15) 0.00407 869.4 9.1
929(16) 0.00386 870.0 9.0
844(15) 0.00405 870.6 9.0
862(16) 0.00366 871.2 8.9
855(16) 0.00392 871.7 8.8
923(16) 0.00384 872.3 8.8
869(15) 0.00411 872.9 8.7
880(16) 0.00388 873.5 8.6
877(16) 0.00361 874.0 8.6
871(16) 0.00386 874.6 8.5
895(15) 0.00401 875.2 8.5
917(16) 0.00387 875.8 8.5
881(16) 0.00380 876.3 8.4
910(17) 0.003503 876.9 8.4
882(16) 0.00383 877.5 8.4
886(15) 0.00408 878.1 8.3
907(16) 0.00384 878.7 8.3
902(16) 0.00372 879.2 8.3
839(16) 0.00382 879.8 8.3
895(16) 0.00367 880.4 8.3
889(15) 0.00406 881.0 8.3
860(15) 0.00409 881.5 8.2
853(16) 0.00389 882.1 8.2
865(16) 0.00372 882.7 8.2
863(16) 0.00387 883.3 8.2
869(15) 0.00412 883.8 8.2
864(15) 0.00408 884.4 8.2
903(16) 0.00365 885.0 8.2
861(16) 0.00385 885.6 8.3
861(15) 0.00404 886.1 8.3
910(16) 0.00393 886.7 8.3
915(16) 0.00374 887.3 8.3
922(17) 0.003480 887.9 8.3
857(16) 0.00395 888.4 8.3
877(16) 0.00386 889.0 8.4
882(15) 0.00408 889.6 8.4
891(16) 0.00376 890.2 8.4
924(17) 0.003456 890.8 8.5
885(16) 0.00375 891.3 8.5
884(16) 0.00395 891.8 8.5
881(15) 0.00407 892.3 8.6
874(16) 0.00373 892.8 8.6
827(16) 0.00401 893.3 8.7
887(16) 0.00373 893.8 8.7
904(16) 0.00389 894.3 8.8
921(16) 0.00389 894.8 8.8
913(16) 0.00372 895.3 8.9
916(17) 0.003449 895.9 9.0
894(16) 0.00379 896.4 9.0
917(16) 0.00389 896.9 9.1
904(16) 0.00396 897.4 9.2
948(16) 0.00358 897.9 9.2
945(17) 0.003371 898.4 9.3
896(16) 0.00376 898.9 9.4
909(16) 0.00391 899.4 9.5
865(15) 0.00418 899.9 9.6
883(16) 0.00379 900.4 9.7
919(17) 0.003418 900.9 9.8
874(16) 0.00389 901.4 9.9
901(16) 0.00398 901.9 10.0
894(16) 0.00394 902.4 10.1
949(16) 0.00358 902.9 10.2
913(17) 0.00351 903.4 10.4
913(16) 0.00369 903.9 10.5
921(16) 0.00387 904.4 10.6
920(16) 0.00382 904.9 10.8
925(16) 0.00358 905.4 10.9
909(16) 0.00357 905.9 11.1
935(16) 0.00359 906.4 11.2
914(16) 0.00389 906.9 11.4
919(16) 0.00382 907.4 11.6
953(17) 0.003501 908.0 11.7
908(16) 0.00360 908.5 11.9
891(16) 0.00370 909.0 12.1
911(16) 0.00396 909.5 12.3
915(16) 0.00378 910.0 12.5
922(16) 0.00364 910.5 12.8
923(16) 0.00357 911.0 13.0
905(16) 0.00369 911.5 13.2
890(15) 0.00403 912.0 13.5
915(16) 0.00375 912.5 13.8
858(16) 0.00389 913.0 14.0
924(16) 0.00356 913.5 14.3
932(16) 0.00370 914.0 14.6
951(16) 0.00379 914.5 14.9
911(16) 0.00358 915.0 15.3
903(16) 0.00359 915.5 15.6
936(17) 0.003476 916.0 16.0
918(16) 0.00379 916.5 16.3
920(16) 0.00389 917.0 16.7
934(16) 0.00357 917.5 17.1
939(17) 0.003457 918.0 17.6
900(16) 0.00372 918.5 18.0
902(16) 0.00386 919.0 18.5
960(16) 0.00375 919.5 19.0
948(16) 0.00359 920.1 19.5
960(17) 0.003309 920.6 20.1
945(17) 0.003483 921.1 20.6
910(16) 0.00394 921.6 21.2
939(16) 0.00377 922.1 21.9
914(16) 0.00364 922.6 22.6
951(17) 0.003236 923.1 23.3
937(16) 0.00366 923.6 24.0
933(16) 0.00381 924.1 24.8
952(16) 0.00380 924.6 25.7
930(16) 0.00360 925.1 26.6
955(17) 0.003249 925.6 27.5
964(16) 0.00356 926.1 28.5
950(16) 0.00378 926.6 29.6
970(16) 0.00360 927.1 30.7
930(16) 0.00360 927.6 32.0
937(17) 0.003479 928.1 33.3
993(17) 0.003367 928.6 34.6
955(16) 0.00380 929.1 36.1
988(16) 0.00358 929.6 37.7
942(16) 0.00360 930.1 39.4
975(17) 0.003250 930.6 41.2
981(17) 0.003438 931.1 43.1
938(16) 0.00389 931.7 45.2
968(16) 0.00365 932.2 47.5
987(17) 0.003365 932.7 50.0
984(17) 0.003219 933.2 52.6
961(17) 0.003467 933.7 55.5
1057(17) 0.003400 934.2 58.6
991(17) 0.003497 934.7 62.1
1032(17) 0.003265 935.2 65.8
985(17) 0.003332 935.7 69.9
985(17) 0.003405 936.2 74.5
1008(16) 0.00359 936.7 79.5
997(17) 0.003462 937.2 85.1
1004(17) 0.003338 937.7 91.3
1042(18) 0.003135 938.2 98.3
1012(17) 0.003395 938.7 106.2
1097(17) 0.003279 939.2 115.1
1081(18) 0.003158 939.7 125.3
1073(18) 0.003055 940.2 136.8
1094(18) 0.003009 940.7 150.0
1061(17) 0.003302 941.2 165.0
1083(17) 0.003315 941.7 182.2
1196(19) 0.002782 942.2 201.8
1177(19) 0.002785 942.7 224.2
1142(18) 0.002949 943.2 249.6
1176(18) 0.002950 943.8 278.4
1228(18) 0.002956 944.3 310.8
1258(19) 0.002610 944.8 347.1
1271(20) 0.002529 945.3 387.3
1370(20) 0.002435 945.8 431.4
1462(20) 0.002409 946.3 479.0
1506(20) 0.002428 946.8 529.4
1560(21) 0.002208 947.3 581.4
1645(22) 0.001974 947.8 632.9
1766(23) 0.001910 948.3 681.1
1721(22) 0.002097 948.8 722.8
1764(22) 0.002056 949.3 754.4
1765(23) 0.001906 949.8 772.6
1721(23) 0.001831 950.3 775.4
1710(22) 0.001980 950.8 762.5
1684(21) 0.002158 951.3 735.4
1649(21) 0.002187 951.8 696.9
1608(21) 0.002125 952.3 650.5
1502(22) 0.002113 952.8 599.8
1485(21) 0.002266 953.3 547.8
1429(20) 0.002539 953.8 496.6
1429(20) 0.002485 954.3 447.9
1308(19) 0.002584 954.8 402.4
1341(20) 0.002392 955.3 360.8
1301(19) 0.002601 955.9 323.1
1327(19) 0.002735 956.4 289.3
1306(19) 0.002705 956.9 259.3
1251(19) 0.002707 957.4 232.6
1258(19) 0.002597 957.9 209.2
1182(18) 0.002856 958.4 188.6
1175(18) 0.003073 958.9 170.6
1202(18) 0.002889 959.4 154.8
1141(18) 0.002914 959.9 141.0
1211(19) 0.002657 960.4 128.9
1150(18) 0.002969 960.9 118.2
1089(17) 0.003320 961.4 108.9
1094(18) 0.003154 961.9 100.6
1061(17) 0.003212 962.4 93.3
1133(18) 0.002948 962.9 86.8
1135(18) 0.003028 963.4 81.0
1119(17) 0.003227 963.9 75.7
1067(17) 0.003211 964.4 71.0
1100(18) 0.003014 964.9 66.7
1065(18) 0.003142 965.4 62.9
1102(18) 0.003103 965.9 59.3
1086(17) 0.003319 966.4 56.1
1020(17) 0.003366 966.9 53.1
1051(17) 0.003222 967.4 50.3
1103(18) 0.003072 968.0 47.8
1029(17) 0.003409 968.5 45.4
1046(17) 0.003437 969.0 43.3
998(17) 0.003351 969.5 41.2
1061(18) 0.003041 970.0 39.4
1084(18) 0.003098 970.5 37.6
1094(17) 0.003229 971.0 36.0
1033(17) 0.003507 971.5 34.4
1004(17) 0.003352 972.0 33.0
1048(18) 0.002968 972.5 31.7
979(17) 0.003455 973.0 30.4
1014(17) 0.00351 973.5 29.2
1037(17) 0.003477 974.0 28.1
1033(17) 0.003247 974.5 27.1
1048(18) 0.002980 975.0 26.1
1038(17) 0.003255 975.5 25.2
1028(17) 0.003460 976.0 24.3
1024(17) 0.003486 976.5 23.4
1039(17) 0.003249 977.0 22.6
1063(18) 0.002928 977.5 21.9
1055(18) 0.003109 978.0 21.2
977(16) 0.00367 978.5 20.5
1026(17) 0.003478 979.0 19.9
1005(17) 0.003349 979.6 19.3
971(17) 0.003286 980.1 18.7
1034(17) 0.003217 980.6 18.1
1054(17) 0.003427 981.1 17.6
1056(17) 0.003381 981.6 17.1
972(17) 0.003496 982.1 16.6
1005(17) 0.003212 982.6 16.2
1042(17) 0.003188 983.1 15.7
1038(17) 0.003459 983.6 15.3
1013(17) 0.00351 984.1 14.9
1002(17) 0.003393 984.6 14.5
1007(17) 0.003227 985.1 14.2
1011(17) 0.003302 985.6 13.8
1000(16) 0.00360 986.1 13.5
971(16) 0.00359 986.6 13.1
1057(18) 0.003162 987.1 12.8
1024(18) 0.003162 987.6 12.5
942(17) 0.00351 988.1 12.2
1019(17) 0.00353 988.6 12.0
965(16) 0.00357 989.1 11.7
1016(18) 0.003119 989.6 11.4
997(17) 0.003322 990.1 11.2
1020(17) 0.003416 990.6 10.9
1021(17) 0.00354 991.1 10.7
1017(17) 0.003330 991.7 10.5
1030(17) 0.003175 992.2 10.3
1053(18) 0.003161 992.7 10.1
1016(17) 0.003394 993.2 9.9
1042(17) 0.003466 993.7 9.7
1020(17) 0.003382 994.2 9.6
999(17) 0.003341 994.7 9.4
1032(17) 0.003266 995.2 9.2
1019(17) 0.003475 995.7 9.0
1024(17) 0.003503 996.2 8.9
1013(17) 0.003296 996.7 8.7
1004(18) 0.003133 997.2 8.6
1025(17) 0.003205 997.7 8.4
1014(17) 0.003470 998.2 8.3
1008(16) 0.00357 998.7 8.1
981(17) 0.003482 999.2 8.0
995(17) 0.003230 999.7 7.9
1015(17) 0.003353 1000.2 7.7
1032(17) 0.003470 1000.7 7.6
1034(17) 0.003491 1001.2 7.5
1069(18) 0.003136 1001.7 7.4
1007(18) 0.003129 1002.2 7.3
1011(17) 0.003353 1002.7 7.1
1011(17) 0.00354 1003.2 7.0
972(16) 0.00372 1003.8 6.9
986(17) 0.003450 1004.3 6.8
1046(18) 0.002972 1004.8 6.7
1054(17) 0.003174 1005.3 6.6
1019(17) 0.00351 1005.8 6.5
1072(17) 0.003314 1006.3 6.5
988(17) 0.003431 1006.8 6.4
989(17) 0.003212 1007.3 6.3
992(17) 0.003391 1007.8 6.2
1013(16) 0.00356 1008.3 6.1
1066(17) 0.003290 1008.8 6.0
1076(18) 0.003129 1009.3 6.0
1058(18) 0.002977 1009.8 5.9
1012(17) 0.003220 1010.3 5.8
1037(17) 0.003470 1010.8 5.7
1029(17) 0.003365 1011.3 5.7
1014(17) 0.003373 1011.8 5.6
1034(18) 0.003166 1012.3 5.5
995(17) 0.003393 1012.8 5.5
1037(17) 0.003463 1013.3 5.4
1019(17) 0.003355 1013.8 5.4
1000(17) 0.003368 1014.3 5.3
1046(17) 0.003176 1014.8 5.2
1061(17) 0.003202 1015.3 5.2
1035(17) 0.003503 1015.9 5.1
1025(17) 0.003298 1016.4 5.1
1044(18) 0.003090 1016.9 5.0
1017(17) 0.003300 1017.4 5.0
1000(17) 0.003487 1017.9 4.9
992(16) 0.00364 1018.4 4.9
988(17) 0.003408 1018.9 4.8
1013(17) 0.003192 1019.4 4.8
1044(17) 0.003208 1019.9 4.7
1003(16) 0.00358 1020.4 4.7
1011(17) 0.00354 1020.9 4.7
1033(17) 0.003247 1021.4 4.6
1037(18) 0.003150 1021.9 4.6
1023(17) 0.003387 1022.4 4.5
1043(17) 0.003367 1022.9 4.5
1054(17) 0.003409 1023.4 4.5
1034(17) 0.003304 1023.9 4.4
1010(17) 0.003181 1024.4 4.4
1009(17) 0.003403 1024.9 4.4
1008(17) 0.00352 1025.4 4.4
1038(17) 0.003474 1025.9 4.3
1050(17) 0.003219 1026.4 4.3
1029(18) 0.003015 1026.9 4.3
1014(17) 0.003343 1027.5 4.3
1026(17) 0.00352 1028.0 4.2
1061(17) 0.003346 1028.5 4.2
1053(17) 0.003224 1029.0 4.2
1060(18) 0.002956 1029.5 4.2
1045(17) 0.003225 1030.0 4.2
1031(17) 0.003500 1030.5 4.1
1084(17) 0.003315 1031.0 4.1
1082(18) 0.003112 1031.5 4.1
1052(18) 0.002975 1032.0 4.1
1053(17) 0.003196 1032.5 4.1
1045(17) 0.003479 1033.0 4.1
1056(17) 0.003316 1033.5 4.1
1033(17) 0.003330 1034.0 4.1
1031(17) 0.003178 1034.5 4.1
1025(17) 0.003267 1035.0 4.1
1076(17) 0.003331 1035.5 4.1
1031(17) 0.003428 1036.0 4.1
1052(17) 0.003221 1036.5 4.1
1028(17) 0.003194 1037.0 4.2
1033(17) 0.003292 1037.5 4.2
1044(17) 0.003452 1038.0 4.2
1069(17) 0.003219 1038.5 4.2
1070(18) 0.003097 1039.0 4.3
1066(18) 0.003072 1039.6 4.3
988(17) 0.003449 1040.1 4.3
982(16) 0.00367 1040.6 4.3
998(17) 0.003375 1041.1 4.4
1024(17) 0.003208 1041.6 4.4
1030(17) 0.003288 1042.1 4.4
1063(17) 0.003216 1042.6 4.5
1073(17) 0.003370 1043.1 4.5
1011(17) 0.003250 1043.6 4.5
1054(18) 0.003084 1044.1 4.5
1049(17) 0.003225 1044.5 4.5
1063(17) 0.003353 1044.5 4.5
1061(17) 0.003381 1044.4 4.5
1051(17) 0.003174 1044.3 4.5
1033(18) 0.003075 1044.3 4.5
1043(17) 0.003234 1044.2 4.4
1093(17) 0.003213 1044.2 4.4
1083(17) 0.003311 1044.1 4.3
1060(17) 0.003197 1044.1 4.3
1107(18) 0.002891 1044.0 4.2
1092(18) 0.003124 1044.0 4.2
1058(17) 0.003369 1043.9 4.1
1069(17) 0.003352 1043.9 4.0
1113(18) 0.002992 1043.8 4.0
1103(18) 0.002853 1043.8 3.9
1033(17) 0.003330 1043.7 3.9
1044(17) 0.003454 1043.7 3.8
1005(16) 0.00358 1043.6 3.7
1077(18) 0.003099 1043.6 3.7
1063(18) 0.002915 1043.5 3.6
1048(17) 0.003197 1043.5 3.6
1057(17) 0.003410 1043.4 3.5
988(16) 0.00360 1043.4 3.5
1102(18) 0.003083 1043.3 3.5
1054(18) 0.003071 1043.3 3.4
1028(17) 0.003281 1043.2 3.4
1039(17) 0.003448 1043.2 3.4
1028(17) 0.003447 1043.1 3.3
1044(17) 0.003203 1043.1 3.3
1046(18) 0.003054 1043.0 3.3
1056(17) 0.003186 1043.0 3.2
1004(16) 0.00356 1042.9 3.2
1031(17) 0.003428 1042.9 3.2
1041(17) 0.003308 1042.8 3.2
1037(18) 0.003172 1042.8 3.2
1089(18) 0.003068 1042.7 3.1
1054(17) 0.003424 1042.7 3.1
1067(17) 0.003266 1042.6 3.1
1054(18) 0.003122 1042.6 3.1
1065(18) 0.003114 1042.5 3.1
1073(17) 0.003245 1042.4 3.1
1064(17) 0.003400 1042.4 3.1
1093(18) 0.003114 1042.3 3.1
1068(18) 0.003086 1042.3 3.1
1055(18) 0.003159 1042.2 3.1
1059(17) 0.003250 1042.2 3.0
1066(17) 0.003394 1042.1 3.0
1061(18) 0.003139 1042.1 3.0
1063(18) 0.003075 1042.0 3.0
1063(17) 0.003172 1042.0 3.0
1061(17) 0.003305 1041.9 3.0
1041(17) 0.003467 1041.9 3.0
1130(18) 0.002955 1041.8 3.0
1062(18) 0.003063 1041.8 3.0
1084(18) 0.003093 1041.7 3.1
1087(17) 0.003276 1041.7 3.1
1083(17) 0.003310 1041.6 3.1
1073(17) 0.003197 1041.6 3.1
1076(18) 0.002979 1041.5 3.1
1078(18) 0.003167 1041.5 3.1
1087(17) 0.003284 1041.4 3.1
1064(17) 0.003365 1041.4 3.1
1049(17) 0.003273 1041.3 3.1
1078(18) 0.002940 1041.3 3.1
1089(18) 0.003095 1041.2 3.2
1059(17) 0.003382 1041.2 3.2
1106(17) 0.003240 1041.1 3.2
1035(17) 0.003283 1041.1 3.2
1050(18) 0.002992 1041.0 3.2
1042(17) 0.003300 1041.0 3.3
1064(17) 0.003398 1040.9 3.3
1058(17) 0.003381 1040.9 3.3
1077(18) 0.003115 1040.8 3.3
1109(18) 0.002863 1040.8 3.4
1078(18) 0.003123 1040.7 3.4
1041(17) 0.003466 1040.7 3.4
1085(17) 0.003285 1040.6 3.5
1090(18) 0.003095 1040.5 3.5
1070(18) 0.003043 1040.5 3.5
1070(18) 0.003124 1040.4 3.6
1040(17) 0.003468 1040.4 3.6
1066(17) 0.003275 1040.3 3.7
1093(18) 0.003096 1040.3 3.7
1066(18) 0.003076 1040.2 3.8
1070(18) 0.003104 1040.2 3.8
1053(17) 0.003428 1040.1 3.9
1096(17) 0.003202 1040.1 3.9
1038(18) 0.003153 1040.0 4.0
1028(18) 0.003135 1040.0 4.1
1038(17) 0.003262 1039.9 4.2
1140(18) 0.003163 1039.9 4.2
1063(17) 0.003247 1039.8 4.3
1106(18) 0.002952 1039.8 4.4
1033(17) 0.003216 1039.7 4.5
1086(17) 0.003205 1039.7 4.6
1068(17) 0.003372 1039.6 4.7
1037(17) 0.003245 1039.6 4.8
1079(18) 0.003029 1039.5 4.9
1129(18) 0.002927 1039.5 5.1
1099(18) 0.003153 1039.4 5.2
1074(17) 0.003347 1039.4 5.3
1068(18) 0.003132 1039.3 5.5
1081(18) 0.002996 1039.3 5.7
1096(18) 0.002999 1039.2 5.7
1044(17) 0.003329 1039.2 5.9
1039(17) 0.003460 1039.1 6.1
1086(18) 0.003161 1039.1 6.3
1104(18) 0.002961 1039.0 6.5
1095(18) 0.003124 1039.0 6.8
1087(17) 0.003277 1038.9 7.1
1056(17) 0.003426 1038.9 7.4
1074(18) 0.003152 1038.8 7.7
1149(19) 0.002768 1038.8 8.0
1101(18) 0.003149 1038.7 8.4
1104(17) 0.003263 1038.7 8.9
1154(18) 0.003102 1038.6 9.3
1026(17) 0.003375 1038.5 9.8
1084(18) 0.002870 1038.5 10.4
1096(18) 0.003064 1038.4 10.9
1048(17) 0.003428 1038.4 11.6
1090(17) 0.003292 1038.3 12.3
1107(18) 0.003049 1038.3 13.1
1103(18) 0.002847 1038.2 14.0
1089(18) 0.003102 1038.2 14.9
1111(17) 0.003261 1038.1 15.9
1074(17) 0.003255 1038.1 17.1
1055(17) 0.003282 1038.0 18.3
1085(18) 0.002977 1038.0 19.6
1065(18) 0.003170 1037.9 21.1
1120(17) 0.003231 1037.9 22.6
1133(18) 0.003090 1037.8 24.3
1089(18) 0.003080 1037.8 26.1
1094(18) 0.002933 1037.7 28.1
1068(18) 0.003108 1037.7 30.1
1099(17) 0.003304 1037.6 32.1
1120(18) 0.003101 1037.6 34.3
1110(18) 0.003036 1037.5 36.4
1048(17) 0.003218 1037.5 38.5
1133(18) 0.003034 1037.4 40.4
1117(17) 0.003236 1037.4 42.1
1100(18) 0.003112 1037.3 43.5
1109(18) 0.002951 1037.3 44.6
1097(18) 0.003020 1037.2 45.3
1049(17) 0.003325 1037.2 45.4
1101(17) 0.003270 1037.1 45.1
1077(17) 0.003175 1037.1 44.4
1078(18) 0.003072 1037.0 43.2
1133(18) 0.002936 1037.0 41.7
1139(18) 0.003044 1036.9 39.9
1123(17) 0.003227 1036.9 37.9
1049(17) 0.003201 1036.8 35.8
1081(18) 0.003026 1036.8 33.7
1125(18) 0.003055 1036.7 31.6
1093(17) 0.003233 1036.6 29.5
1061(17) 0.003392 1036.6 27.5
1039(17) 0.003309 1036.5 25.6
1097(18) 0.002899 1036.5 23.8
1071(18) 0.003133 1036.4 22.1
1087(17) 0.003237 1036.4 20.6
1085(17) 0.003322 1036.3 19.1
1113(18) 0.003059 1036.3 17.8
1137(19) 0.002769 1036.2 16.6
1057(17) 0.003242 1036.2 15.5
1059(17) 0.003377 1036.1 14.5
1052(17) 0.003416 1036.1 13.6
1066(17) 0.003193 1036.0 12.7
1081(18) 0.002905 1036.0 11.9
1074(18) 0.003172 1035.9 11.2
1046(17) 0.003461 1035.9 10.6
1076(17) 0.003313 1035.8 10.0
1106(18) 0.002997 1035.8 9.4
1048(18) 0.002987 1035.7 8.9
1027(17) 0.003346 1035.7 8.5
1107(17) 0.003259 1035.6 8.1
1077(17) 0.003278 1035.6 7.7
1084(18) 0.003136 1035.5 7.3
1066(18) 0.003047 1035.5 7.0
1057(17) 0.003204 1035.4 6.7
1070(17) 0.003356 1035.4 6.4
1098(17) 0.003215 1035.3 6.1
1081(17) 0.003176 1035.3 5.9
1110(18) 0.002989 1035.2 5.7
1094(18) 0.003079 1035.2 5.5
1058(17) 0.003397 1035.1 5.3
1073(17) 0.003267 1035.1 5.1
1093(18) 0.003066 1035.0 4.9
1061(18) 0.003146 1035.0 4.7
1123(18) 0.003035 1034.9 4.6
1069(17) 0.003374 1034.9 4.4
1070(17) 0.003224 1034.8 4.3
1104(18) 0.003000 1034.8 4.2
1115(18) 0.002942 1034.7 4.1
1077(17) 0.003202 1034.6 3.9
1055(17) 0.003436 1034.6 3.8
1088(18) 0.003141 1034.5 3.7
1035(17) 0.003201 1034.5 3.6
1080(18) 0.003145 1034.4 3.6
1055(17) 0.003308 1034.4 3.5
1076(17) 0.003339 1034.3 3.4
1042(17) 0.003289 1034.3 3.4
1091(18) 0.002929 1034.2 3.3
1034(17) 0.003260 1034.2 3.2
1049(17) 0.003334 1034.1 3.1
1039(17) 0.003458 1034.1 3.1
1090(18) 0.003073 1034.0 3.0
1098(18) 0.002974 1034.0 3.0
1100(18) 0.003054 1033.9 2.9
1109(17) 0.003194 1033.9 2.8
1076(17) 0.003361 1033.8 2.8
1028(17) 0.003271 1033.8 2.7
1056(18) 0.003015 1033.7 2.7
1069(17) 0.003199 1033.7 2.6
1051(17) 0.003392 1033.6 2.6
1028(17) 0.003505 1033.6 2.6
1075(18) 0.003119 1033.5 2.5
1068(18) 0.002928 1033.5 2.5
1069(18) 0.003036 1033.4 2.4
1072(17) 0.003318 1033.4 2.4
1076(17) 0.003342 1033.3 2.4
1040(17) 0.003241 1033.3 2.3
1056(18) 0.002980 1033.2 2.3
1073(18) 0.003134 1033.2 2.3
1084(17) 0.003300 1033.1 2.2
1051(17) 0.003384 1033.1 2.2
1057(17) 0.003179 1033.0 2.2
1063(18) 0.003030 1033.0 2.1
1068(17) 0.003201 1032.9 2.1
1049(17) 0.003462 1032.9 2.1
1051(17) 0.003361 1032.8 2.1
1098(18) 0.003025 1032.7 2.0
1046(18) 0.003080 1032.7 2.0
1088(18) 0.003049 1032.6 2.0
1084(17) 0.003311 1032.6 2.0
1052(17) 0.003324 1032.5 2.0
1065(18) 0.003116 1032.5 1.9
1082(18) 0.002991 1032.4 1.9
1062(18) 0.003166 1032.4 1.9
1068(17) 0.003358 1032.3 1.9
1065(17) 0.003277 1032.3 1.9
1030(17) 0.003236 1032.2 1.8
1037(17) 0.003192 1032.2 1.8
1047(17) 0.003270 1032.1 1.8
1091(17) 0.003289 1032.1 1.8
1059(17) 0.003216 1032.0 1.8
1059(18) 0.003119 1032.0 1.8
1106(18) 0.002938 1031.9 1.7
1080(18) 0.003141 1031.9 1.7
1068(17) 0.003355 1031.8 1.7
1056(18) 0.003166 1031.8 1.7
1053(18) 0.003005 1031.7 1.7
1062(18) 0.003137 1031.7 1.7
1100(17) 0.003173 1031.6 1.7
1042(17) 0.003434 1031.6 1.6
1048(17) 0.003180 1031.5 1.6
1083(18) 0.002963 1031.5 1.6
1089(18) 0.003083 1031.4 1.6
1028(17) 0.003430 1031.4 1.6
1031(17) 0.003488 1031.3 1.6
1039(17) 0.003303 1031.3 1.6
1106(18) 0.002916 1031.2 1.6
1080(17) 0.003178 1031.2 1.6
1092(17) 0.003227 1031.1 1.5
1054(17) 0.003400 1031.1 1.5
1072(18) 0.003166 1031.0 1.5
1044(18) 0.003058 1031.0 1.5
1069(18) 0.003154 1030.9 1.5
1088(17) 0.003263 1030.9 1.5
1044(17) 0.003428 1030.8 1.5
1079(18) 0.003136 1030.7 1.5
1041(18) 0.003094 1030.7 1.5
1057(17) 0.003198 1030.6 1.5
1054(17) 0.003405 1030.6 1.5
1060(17) 0.003377 1030.5 1.4
1094(18) 0.003118 1030.5 1.4
1100(18) 0.002873 1030.4 1.4
1071(18) 0.003142 1030.4 1.4
1033(17) 0.003487 1030.3 1.4
1083(17) 0.003299 1030.3 1.4
1095(18) 0.003078 1030.2 1.4
1080(18) 0.002945 1030.2 1.4
1036(17) 0.003179 1030.1 1.4
1059(17) 0.003412 1030.1 1.4
1059(17) 0.003278 1030.0 1.4
1082(18) 0.003135 1030.0 1.4
1104(18) 0.002947 1029.9 1.4
1113(18) 0.002956 1029.9 1.4
1053(17) 0.003409 1029.8 1.4
1020(17) 0.003404 1029.8 1.3
1081(18) 0.003116 1029.7 1.3
1109(18) 0.002959 1029.7 1.3
1026(17) 0.003322 1029.6 1.3
993(16) 0.00362 1029.6 1.3
1065(17) 0.003245 1029.5 1.3
1054(17) 0.003200 1029.5 1.3
1112(18) 0.002953 1029.4 1.3
1067(17) 0.003246 1029.4 1.3
1057(17) 0.003420 1029.3 1.3
1032(17) 0.003193 1029.3 1.3
1015(17) 0.003258 1029.2 1.3
1077(18) 0.003089 1029.2 1.3
1023(17) 0.003395 1029.1 1.3
1043(17) 0.003412 1029.1 1.3
1055(18) 0.003096 1029.0 1.3
1019(17) 0.003237 1029.0 1.3
1068(18) 0.003141 1028.9 1.3
1085(17) 0.003266 1028.8 1.3
1086(17) 0.003289 1028.8 1.3
1039(17) 0.003218 1028.7 1.3
1035(18) 0.003067 1028.7 1.3
1024(17) 0.003345 1028.6 1.2
1073(17) 0.003333 1028.6 1.2
1035(17) 0.003456 1028.5 1.2
1028(17) 0.003239 1028.5 1.2
1048(18) 0.003038 1028.4 1.2
1068(18) 0.003154 1028.4 1.2
1011(17) 0.00355 1028.3 1.2
1062(17) 0.003383 1028.3 1.2
1084(18) 0.003053 1028.2 1.2
1074(18) 0.002924 1028.2 1.2
1028(17) 0.003342 1028.1 1.2
1018(17) 0.00352 1028.1 1.2
1004(16) 0.00359 1028.0 1.2
1079(18) 0.003113 1028.0 1.2
1020(18) 0.003129 1027.9 1.2
1058(18) 0.003164 1027.7 1.2
1028(17) 0.00351 1027.2 1.2
1088(17) 0.003309 1026.7 1.2
1035(17) 0.003297 1026.2 1.2
1084(18) 0.002902 1025.7 1.2
1064(18) 0.003114 1025.2 1.2
1042(17) 0.003453 1024.7 1.2
1039(17) 0.003428 1024.2 1.2
1039(17) 0.003236 1023.7 1.2
1053(18) 0.003082 1023.2 1.2
1010(17) 0.003341 1022.7 1.2
1060(17) 0.003407 1022.2 1.2
1047(17) 0.003351 1021.7 1.2
1044(18) 0.003107 1021.2 1.2
996(17) 0.003295 1020.7 1.2
1040(17) 0.003298 1020.2 1.2
1049(17) 0.003440 1019.7 1.2
1051(17) 0.003314 1019.2 1.2
1057(18) 0.003161 1018.7 1.2
1040(17) 0.003224 1018.2 1.2
1035(17) 0.003370 1017.7 1.2
1019(17) 0.00355 1017.2 1.2
1042(17) 0.003219 1016.7 1.2
1015(17) 0.003261 1016.2 1.2
1021(17) 0.003303 1015.7 1.2
1012(17) 0.003421 1015.2 1.2
1006(16) 0.00357 1014.7 1.2
1010(17) 0.003304 1014.2 1.1
1065(18) 0.003052 1013.7 1.1
1039(17) 0.003190 1013.2 1.1
1045(17) 0.003356 1012.8 1.1
1026(17) 0.00352 1012.3 1.1
1024(17) 0.003333 1011.8 1.1
1018(17) 0.003186 1011.3 1.1
1012(17) 0.003358 1010.8 1.1
1048(17) 0.003400 1010.3 1.1
1050(17) 0.003411 1009.8 1.1
1036(17) 0.003200 1009.3 1.1
1031(18) 0.003034 1008.8 1.1
991(17) 0.003419 1008.3 1.1
1034(17) 0.003437 1007.8 1.1
987(16) 0.00364 1007.3 1.1
1036(17) 0.003267 1006.8 1.1
994(17) 0.003178 1006.3 1.1
1038(17) 0.003247 1005.8 1.1
978(16) 0.00364 1005.3 1.1
975(16) 0.00364 1004.8 1.1
1041(17) 0.003238 1004.3 1.1
991(17) 0.003223 1003.8 1.1
1011(17) 0.003326 1003.3 1.1
1032(17) 0.003482 1002.8 1.1
1008(17) 0.00354 1002.3 1.1
1041(17) 0.003235 1001.8 1.1
992(17) 0.003263 1001.3 1.1
1008(17) 0.003329 1000.8 1.1
1033(17) 0.003493 1000.3 1.1
1008(17) 0.003506 999.8 1.1
1017(17) 0.003248 999.3 1.1
973(17) 0.003288 998.8 1.1
1003(17) 0.003331 998.3 1.1
1051(17) 0.003414 997.9 1.1
977(17) 0.00354 997.4 1.1
999(17) 0.003363 996.9 1.1
1038(18) 0.003062 996.4 1.1
989(17) 0.003416 995.9 1.1
1030(17) 0.003501 995.4 1.1
1056(17) 0.003246 994.9 1.1
975(17) 0.003449 994.4 1.1
1009(17) 0.003239 993.9 1.1
973(17) 0.00353 993.4 1.1
1019(17) 0.00352 992.9 1.1
1014(17) 0.003389 992.4 1.1
1038(18) 0.003095 991.9 1.1
1004(17) 0.003315 991.4 1.1
1005(17) 0.003449 990.9 1.1
963(16) 0.00372 990.4 1.1
991(17) 0.003395 989.9 1.1
1010(18) 0.003160 989.4 1.1
998(17) 0.003349 988.9 1.1
1036(17) 0.003420 988.4 1.1
971(16) 0.00371 987.9 1.1
1015(17) 0.003308 987.4 1.1
1001(17) 0.003236 986.9 1.1
1000(17) 0.003318 986.4 1.1
978(16) 0.00359 985.9 1.1
973(16) 0.00369 985.4 1.1
940(16) 0.00358 984.9 1.1
967(17) 0.003274 984.4 1.1
1035(17) 0.003257 983.9 1.1
997(16) 0.00358 983.4 1.1
1000(16) 0.00358 983.0 1.1
1010(17) 0.003329 982.5 1.1
974(17) 0.003282 982.0 1.2
1015(17) 0.003406 981.5 1.2
1011(16) 0.00356 981.0 1.2
988(16) 0.00361 980.5 1.2
985(17) 0.003416 980.0 1.2
987(17) 0.003196 979.5 1.2
1010(17) 0.003366 979.0 1.2
1021(17) 0.003498 978.5 1.2
995(17) 0.00354 978.0 1.2
955(17) 0.00355 977.5 1.2
1019(17) 0.003186 977.0 1.2
1035(17) 0.003283 976.5 1.2
976(16) 0.00366 976.0 1.2
1024(17) 0.003472 975.5 1.2
962(17) 0.003500 975.0 1.2
1002(17) 0.003191 974.5 1.2
982(17) 0.003386 974.0 1.2
1029(17) 0.003507 973.5 1.2
951(16) 0.00372 973.0 1.2
984(17) 0.003431 972.5 1.2
1006(17) 0.003225 972.0 1.2
943(16) 0.00363 971.5 1.2
983(16) 0.00366 971.0 1.2
990(17) 0.003490 970.5 1.2
1000(17) 0.003323 970.0 1.2
987(17) 0.003402 969.5 1.2
1013(17) 0.003371 969.0 1.2
958(16) 0.00377 968.5 1.2
987(17) 0.003412 968.1 1.2
1019(17) 0.003205 967.6 1.2
982(17) 0.003401 967.1 1.2
965(17) 0.00352 966.6 1.2
979(16) 0.00369 966.1 1.2
1006(17) 0.003362 965.6 1.2
999(17) 0.003331 965.1 1.2
968(17) 0.003442 964.6 1.2
963(16) 0.00363 964.1 1.2
1003(16) 0.00359 963.6 1.2
1019(17) 0.003227 963.1 1.2
946(17) 0.003381 962.6 1.2
927(16) 0.00363 962.1 1.2
996(17) 0.003452 961.6 1.2
937(16) 0.00386 961.1 1.2
965(17) 0.00355 960.6 1.2
1005(18) 0.003169 960.1 1.2
973(17) 0.003384 959.6 1.3
977(16) 0.00360 959.1 1.3
962(16) 0.00374 958.6 1.3
973(17) 0.003490 958.1 1.3
1002(18) 0.003075 957.6 1.3
961(17) 0.003439 957.1 1.3
961(16) 0.00370 956.6 1.3
960(16) 0.00374 956.1 1.3
998(17) 0.003346 955.6 1.3
944(17) 0.003372 955.1 1.3
986(17) 0.003441 954.6 1.3
1020(16) 0.00356 954.1 1.3
950(16) 0.00373 953.6 1.3
950(16) 0.00357 953.2 1.3
934(17) 0.003425 952.7 1.3
921(16) 0.00366 952.2 1.3
941(16) 0.00379 951.7 1.3
950(16) 0.00374 951.2 1.3
1018(17) 0.003312 950.7 1.3
954(17) 0.003384 950.2 1.3
958(17) 0.003471 949.7 1.3
953(16) 0.00376 949.2 1.3
992(17) 0.00354 948.7 1.3
972(17) 0.003495 948.2 1.4
942(17) 0.003449 947.7 1.4
959(17) 0.00351 947.2 1.4
967(16) 0.00372 946.7 1.4
960(16) 0.00357 946.2 1.4
979(17) 0.003350 945.7 1.4
988(17) 0.003320 945.2 1.4
983(17) 0.003405 944.7 1.4
958(16) 0.00376 944.2 1.4
1007(17) 0.003354 943.7 1.4
975(17) 0.003383 943.2 1.4
969(17) 0.003429 942.7 1.4
1003(17) 0.003390 942.2 1.4
1000(16) 0.00358 941.7 1.4
951(17) 0.00355 941.2 1.4
955(17) 0.003391 940.7 1.5
923(16) 0.00364 940.2 1.5
954(16) 0.00369 939.7 1.5
982(16) 0.00365 939.2 1.5
960(17) 0.003419 938.7 1.5
917(16) 0.00358 938.3 1.5
948(17) 0.00351 937.8 1.5
896(16) 0.00389 937.3 1.5
895(16) 0.00399 936.8 1.5
927(17) 0.00356 936.3 1.5
957(17) 0.003332 935.8 1.5
955(17) 0.00352 935.3 1.5
951(16) 0.00372 934.8 1.6
935(16) 0.00383 934.3 1.6
949(16) 0.00356 933.8 1.6
923(17) 0.003456 933.3 1.6
934(17) 0.00355 932.8 1.6
890(15) 0.00404 932.3 1.6
902(16) 0.00398 931.8 1.6
941(16) 0.00366 931.3 1.6
960(17) 0.003226 930.8 1.6
962(17) 0.003493 930.3 1.6
970(16) 0.00368 929.8 1.7
930(16) 0.00388 929.3 1.7
955(17) 0.003464 928.8 1.7
933(17) 0.003432 928.3 1.7
953(17) 0.003481 927.8 1.7
913(16) 0.00395 927.3 1.7
886(16) 0.00399 926.8 1.7
927(16) 0.00364 926.3 1.7
925(17) 0.003473 925.8 1.8
911(16) 0.00366 925.3 1.8
936(16) 0.00383 924.8 1.8
955(16) 0.00371 924.4 1.8
977(17) 0.003499 923.9 1.8
932(17) 0.003493 923.4 1.8
945(17) 0.003471 922.9 1.9
918(16) 0.00389 922.4 1.9
963(16) 0.00362 921.9 1.9
950(17) 0.00352 921.4 1.9
934(17) 0.00351 920.9 1.9
925(16) 0.00367 920.4 2.0
983(16) 0.00366 919.9 2.0
904(16) 0.00378 919.4 2.0
920(16) 0.00366 918.9 2.0
929(16) 0.00362 918.4 2.0
938(16) 0.00362 917.9 2.1
930(16) 0.00386 917.5 2.1
931(16) 0.00364 917.0 2.1
925(16) 0.00356 916.5 2.1
938(17) 0.00355 916.0 2.2
928(16) 0.00372 915.5 2.2
971(16) 0.00369 915.0 2.2
943(17) 0.00352 914.5 2.3
929(17) 0.003503 914.0 2.3
904(16) 0.00371 913.5 2.3
906(16) 0.00390 913.0 2.4
913(16) 0.00393 912.5 2.4
949(17) 0.00353 912.0 2.4
935(17) 0.003439 911.5 2.5
927(16) 0.00366 911.0 2.5
870(16) 0.00401 910.6 2.6
918(16) 0.00390 910.1 2.6
900(16) 0.00374 909.6 2.7
909(16) 0.00357 909.1 2.7
927(16) 0.00365 908.6 2.8
928(16) 0.00383 908.1 2.8
940(16) 0.00380 907.6 2.9
888(16) 0.00374 907.1 2.9
897(17) 0.003388 906.6 3.0
950(17) 0.00353 906.1 3.1
920(16) 0.00388 905.6 3.1
893(15) 0.00402 905.1 3.2
919(16) 0.00362 904.6 3.3
888(17) 0.00353 904.2 3.4
887(16) 0.00385 903.7 3.5
897(16) 0.00400 903.2 3.6
915(16) 0.00389 902.7 3.7
970(17) 0.003468 902.2 3.8
930(17) 0.003402 901.7 3.9
944(17) 0.00353 901.2 4.0
899(16) 0.00399 900.7 4.2
867(15) 0.00407 900.2 4.3
895(16) 0.00368 899.7 4.5
885(16) 0.00376 899.2 4.6
924(16) 0.00366 898.7 4.8
953(16) 0.00379 898.2 5.0
908(16) 0.00386 897.7 5.2
910(16) 0.00368 897.3 5.4
885(16) 0.00372 896.8 5.7
905(16) 0.00362 896.3 5.9
869(15) 0.00414 895.8 6.2
924(16) 0.00372 895.3 6.5
894(16) 0.00368 894.8 6.8
928(17) 0.00354 894.3 7.1
934(16) 0.00367 893.8 7.5
920(16) 0.00390 893.3 7.8
931(16) 0.00360 892.8 8.2
888(16) 0.00366 892.3 8.6
888(16) 0.00371 891.8 9.0
876(16) 0.00395 891.3 9.4
901(16) 0.00398 890.8 9.8
875(16) 0.00393 890.4 10.2
884(16) 0.00370 889.9 10.6
881(16) 0.00381 889.4 11.0
867(16) 0.00401 888.9 11.3
938(16) 0.00381 888.4 11.6
890(16) 0.00374 887.9 11.9
907(16) 0.00356 887.4 12.1
891(16) 0.00376 886.9 12.2
895(16) 0.00390 886.4 12.2
893(15) 0.00402 885.9 12.2
923(16) 0.00359 885.4 12.1
906(17) 0.00352 884.9 11.9
893(16) 0.00383 884.4 11.7
926(16) 0.00381 884.0 11.4
877(15) 0.00407 883.5 11.1
862(16) 0.00383 883.0 10.8
855(16) 0.00370 882.5 10.4
889(16) 0.00386 882.0 10.0
869(15) 0.00410 881.5 9.7
857(15) 0.00418 881.0 9.3
877(16) 0.00378 880.5 8.9
857(16) 0.00362 880.0 8.6
893(16) 0.00375 879.5 8.3
888(15) 0.00406 879.0 7.9
911(16) 0.00389 878.5 7.7
894(16) 0.00374 878.0 7.4
867(16) 0.00363 877.5 7.1
882(16) 0.00377 877.1 6.9
902(16) 0.00395 876.6 6.7
893(16) 0.00398 876.1 6.5
888(16) 0.00378 875.6 6.3
893(16) 0.00360 875.1 6.1
873(16) 0.00382 874.6 5.9
879(15) 0.00408 874.1 5.8
891(16) 0.00395 873.6 5.7
895(16) 0.00377 873.1 5.5
888(16) 0.00368 872.6 5.4
876(16) 0.00378 872.1 5.3
911(16) 0.00392 871.6 5.3
862(15) 0.00402 871.1 5.2
893(16) 0.00373 870.6 5.1
894(16) 0.00371 870.2 5.1
926(16) 0.00367 869.7 5.0
895(16) 0.00399 869.2 5.0
840(15) 0.00401 868.7 4.9
901(16) 0.00366 868.2 4.9
892(16) 0.00375 867.7 4.9
888(16) 0.00383 867.2 4.8
830(15) 0.00431 866.7 4.8
883(16) 0.00383 866.2 4.8
875(16) 0.00376 865.7 4.8
916(16) 0.00363 865.2 4.8
933(16) 0.00376 864.7 4.8
855(15) 0.00417 864.2 4.8
848(16) 0.00393 863.8 4.9
854(16) 0.00383 863.3 4.9
859(16) 0.00388 862.8 4.9
832(15) 0.00418 862.3 4.9
854(15) 0.00422 861.8 4.9
873(16) 0.00390 861.3 5.0
904(17) 0.00354 860.8 5.0
904(16) 0.00370 860.3 5.1
851(15) 0.00412 859.8 5.1
832(15) 0.00429 859.3 5.1
840(16) 0.00400 858.8 5.2
845(16) 0.00378 858.3 5.3
909(16) 0.00369 857.8 5.3
878(15) 0.00407 857.3 5.4
884(15) 0.00403 856.9 5.4
846(16) 0.00396 856.4 5.5
863(16) 0.00367 855.9 5.6
883(16) 0.00382 855.4 5.7
873(15) 0.00408 854.9 5.7
858(15) 0.00415 854.4 5.8
841(16) 0.00397 853.9 5.9
826(16) 0.00384 853.4 6.0
819(15) 0.00408 852.9 6.1
840(15) 0.00426 852.4 6.2
848(15) 0.00417 851.9 6.4
834(15) 0.00404 851.4 6.5
834(16) 0.00385 850.9 6.6
841(16) 0.00399 850.4 6.7
820(15) 0.00436 850.0 6.9
852(15) 0.00415 849.5 7.0
869(16) 0.00381 849.0 7.2
864(16) 0.00375 848.5 7.3
877(16) 0.00382 848.0 7.5
808(15) 0.00439 847.5 7.7
841(15) 0.00412 847.0 7.9
848(16) 0.00392 846.5 8.1
856(16) 0.00388 846.0 8.3
839(16) 0.00400 845.5 8.5
847(15) 0.00418 845.0 8.7
878(16) 0.00394 844.5 9.0
816(15) 0.00409 844.0 9.2
844(16) 0.00380 843.6 9.5
856(16) 0.00390 843.1 9.8
864(15) 0.00415 842.6 10.1
830(16) 0.00400 842.1 10.4
852(16) 0.00396 841.6 10.8
845(15) 0.00403 841.1 11.2
877(16) 0.00395 840.6 11.5
890(15) 0.00402 840.1 12.0
814(16) 0.00400 839.6 12.4
809(15) 0.00402 839.1 12.9
848(16) 0.00386 838.6 13.4
838(15) 0.00412 838.1 14.0
802(15) 0.00448 837.6 14.5
837(16) 0.00393 837.1 15.2
854(16) 0.00381 836.7 15.9
878(16) 0.00384 836.2 16.6
841(15) 0.00421 835.7 17.4
841(15) 0.00425 835.2 18.3
863(16) 0.00393 834.7 19.2
878(16) 0.00357 834.2 20.3
798(15) 0.00430 833.7 21.4
866(15) 0.00407 833.2 22.6
845(15) 0.00419 832.7 24.0
860(16) 0.00393 832.2 25.5
833(16) 0.00384 831.7 27.1
815(15) 0.00411 831.2 28.9
839(15) 0.00424 830.7 30.9
834(15) 0.00426 830.2 33.2
908(16) 0.00371 829.8 35.7
878(17) 0.00354 829.3 38.6
843(16) 0.00391 828.8 41.8
857(15) 0.00418 828.3 45.5
847(15) 0.00415 827.8 49.8
840(15) 0.00404 827.3 54.7
842(16) 0.00383 826.8 60.4
893(16) 0.00373 826.3 67.3
896(16) 0.00401 825.8 75.6
870(16) 0.00401 825.3 85.9
889(16) 0.00385 824.8 99.0
949(17) 0.003400 824.3 115.9
949(17) 0.00354 823.8 138.0
967(16) 0.00369 823.4 167.1
998(17) 0.003478 822.9 205.1
1096(18) 0.003048 822.4 254.2
1145(18) 0.002868 821.9 316.1
1199(19) 0.002823 821.4 392.3
1278(19) 0.002844 820.9 482.7
1342(19) 0.002592 820.4 585.5
1421(20) 0.002376 819.9 695.1
1516(21) 0.002185 819.4 801.3
1644(22) 0.002078 818.9 887.7
1724(21) 0.002122 818.4 934.9
1818(23) 0.001901 817.9 929.9
1740(23) 0.001909 817.4 874.3
1533(21) 0.002213 816.9 782.9
1399(20) 0.002462 816.5 675.0
1334(19) 0.002724 816.0 566.0
1218(18) 0.002847 815.5 465.4
1181(19) 0.002714 815.0 377.6
1087(18) 0.003103 814.5 304.2
1080(17) 0.003252 814.0 244.8
1027(17) 0.00351 813.5 198.0
1021(17) 0.003252 813.0 161.9
984(17) 0.003300 812.5 134.3
959(17) 0.003440 812.0 113.3
924(16) 0.00383 811.5 97.3
916(16) 0.00389 811.0 84.9
916(16) 0.00363 810.5 75.0
900(17) 0.00351 810.0 67.1
877(16) 0.00383 809.6 60.6
838(15) 0.00425 809.1 55.1
850(15) 0.00422 808.6 50.4
846(15) 0.00401 808.1 46.4
862(16) 0.00370 807.6 42.8
852(16) 0.00395 807.1 39.8
792(15) 0.00455 806.6 37.0
846(15) 0.00418 806.1 34.6
831(15) 0.00411 805.6 32.5
842(16) 0.00375 805.1 30.6
862(16) 0.00395 804.6 28.9
850(15) 0.00421 804.1 27.4
836(15) 0.00421 803.6 26.0
814(15) 0.00412 803.2 24.8
812(16) 0.00391 802.7 23.7
817(15) 0.00415 802.2 22.6
814(15) 0.00443 801.7 21.7
847(15) 0.00411 801.2 20.9
791(15) 0.00422 800.7 20.1
782(15) 0.00410 800.2 19.4
837(16) 0.00396 799.7 18.8
820(15) 0.00434 799.2 18.2
846(15) 0.00412 798.7 17.7
791(15) 0.00423 798.2 17.2
797(15) 0.00411 797.7 16.8
811(15) 0.00413 797.2 16.4
814(15) 0.00435 796.7 16.1
820(15) 0.00417 796.3 15.7
827(16) 0.00397 795.8 15.4
820(15) 0.00401 795.3 15.2
807(15) 0.00426 794.8 14.9
805(15) 0.00444 794.3 14.7
816(15) 0.00415 793.8 14.5
800(15) 0.00408 793.3 14.3
802(15) 0.00414 792.8 14.2
816(15) 0.00424 792.3 14.1
819(15) 0.00438 791.8 14.0
866(16) 0.00388 791.3 13.9
774(15) 0.00434 790.8 13.8
786(15) 0.00428 790.3 13.7
793(15) 0.00435 789.8 13.7
788(15) 0.00451 789.4 13.7
761(15) 0.00438 788.9 13.6
803(16) 0.00397 788.4 13.6
819(15) 0.00411 787.9 13.7
819(15) 0.00430 787.4 13.7
804(15) 0.00447 786.9 13.8
781(15) 0.00435 786.4 13.8
809(16) 0.00386 785.9 13.9
799(15) 0.00413 785.4 14.0
794(15) 0.00442 784.9 14.2
756(14) 0.00470 784.4 14.3
785(15) 0.00417 783.9 14.5
775(16) 0.00401 783.4 14.7
771(15) 0.00435 782.9 15.0
792(15) 0.00449 782.4 15.2
782(15) 0.00450 781.9 15.6
774(15) 0.00439 781.4 15.9
803(16) 0.00392 781.0 16.3
796(15) 0.00423 780.5 16.7
764(14) 0.00464 780.0 17.1
770(14) 0.00462 779.5 17.5
774(15) 0.00431 779.0 17.9
787(15) 0.00403 778.5 18.2
786(15) 0.00413 778.0 18.4
757(14) 0.00472 777.5 18.5
781(15) 0.00448 777.0 18.7
781(15) 0.00414 776.5 18.8
782(15) 0.00411 776.0 18.9
803(15) 0.00424 775.5 19.1
843(15) 0.00424 775.0 19.3
802(15) 0.00442 774.5 19.6
792(15) 0.00419 774.0 19.9
792(15) 0.00402 773.5 20.3
771(15) 0.00437 773.0 20.7
794(15) 0.00450 772.5 21.2
811(15) 0.00421 772.0 21.7
767(15) 0.00429 771.5 22.2
795(15) 0.00413 771.0 22.8
808(15) 0.00417 770.5 23.4
805(15) 0.00443 770.0 24.1
796(15) 0.00431 769.5 24.8
776(15) 0.00427 769.0 25.6
762(15) 0.00427 768.5 26.4
800(15) 0.00428 768.0 27.2
796(15) 0.00450 767.5 28.2
787(15) 0.00424 767.0 29.2
792(16) 0.00400 766.5 30.2
766(15) 0.00428 766.0 31.3
749(14) 0.00467 765.5 32.5
789(15) 0.00450 765.0 33.8
797(15) 0.00412 764.5 35.1
747(15) 0.00428 764.0 36.6
767(15) 0.00441 763.5 38.2
810(15) 0.00428 763.0 39.8
799(15) 0.00447 762.5 41.6
786(15) 0.00425 762.0 43.5
775(15) 0.00419 761.5 45.6
794(15) 0.00422 761.0 47.9
836(15) 0.00423 760.5 50.3
800(15) 0.00441 760.0 52.9
765(15) 0.00432 759.5 55.8
779(15) 0.00407 759.0 58.9
795(15) 0.00428 758.5 62.2
757(14) 0.00473 758.1 65.9
784(14) 0.00457 757.6 70.0
816(16) 0.00399 757.1 74.4
801(16) 0.00386 756.6 79.3
797(15) 0.00425 756.1 84.8
822(15) 0.00432 755.6 90.8
784(15) 0.00451 755.1 97.6
802(15) 0.00419 754.6 105.1
769(15) 0.00415 754.1 113.7
854(16) 0.00381 753.6 123.3
851(15) 0.00421 753.1 134.3
888(16) 0.00391 752.6 146.8
873(16) 0.00386 752.1 161.1
898(16) 0.00356 751.6 177.4
878(16) 0.00382 751.1 196.1
968(16) 0.00369 750.6 217.4
971(16) 0.00356 750.1 241.8
979(17) 0.003409 749.6 269.5
981(17) 0.003302 749.1 301.0
1070(18) 0.003069 748.6 336.6
1107(17) 0.003210 748.1 376.4
1173(18) 0.002983 747.6 420.6
1241(19) 0.002696 747.1 469.1
1256(19) 0.002621 746.6 521.4
1400(20) 0.002377 746.1 576.3
1462(20) 0.002458 745.6 632.1
1556(21) 0.002234 745.1 686.1
1646(22) 0.002005 744.6 734.8
1629(22) 0.002060 744.1 774.0
1630(22) 0.002104 743.6 799.8
1572(21) 0.002308 743.1 809.2
1493(21) 0.002286 742.6 801.0
1474(21) 0.002248 742.1 776.2
1470(21) 0.002304 741.6 737.7
1402(20) 0.002455 741.1 689.5
1332(19) 0.002713 740.6 635.8
1283(19) 0.002615 740.1 580.1
1228(19) 0.002696 739.6 525.1
1188(19) 0.002829 739.1 472.7
1161(18) 0.003029 738.6 424.0
1113(17) 0.003208 738.1 379.5
1091(18) 0.003034 737.6 339.5
1054(18) 0.003014 737.1 303.7
1050(18) 0.003105 736.6 272.0
1009(17) 0.003473 736.1 244.1
956(16) 0.00376 735.6 219.6
914(16) 0.00362 735.2 198.1
974(18) 0.003141 734.7 179.4
955(17) 0.003482 734.2 163.0
917(16) 0.00389 733.7 148.7
937(16) 0.00380 733.2 136.1
944(17) 0.00352 732.7 125.1
878(17) 0.00352 732.2 115.5
868(16) 0.00383 731.7 106.9
857(15) 0.00417 731.2 99.4
836(15) 0.00424 730.7 92.6
859(16) 0.00399 730.2 86.6
870(16) 0.00357 729.7 81.2
853(16) 0.00394 729.2 76.4
852(15) 0.00420 728.7 72.0
793(15) 0.00442 728.2 68.0
825(16) 0.00400 727.7 64.4
798(16) 0.00398 727.2 61.1
797(15) 0.00419 726.7 58.1
777(14) 0.00461 726.2 55.3
785(15) 0.00442 725.7 52.8
833(16) 0.00390 725.2 50.5
749(15) 0.00426 724.7 48.3
753(15) 0.00433 724.2 46.4
732(14) 0.00486 723.7 44.5
804(15) 0.00427 723.2 42.9
761(15) 0.00440 722.7 41.3
845(16) 0.00378 722.2 39.9
770(15) 0.00429 721.7 38.6
771(14) 0.00465 721.2 37.4
733(14) 0.00467 720.7 36.3
728(14) 0.00460 720.2 35.3
756(15) 0.00439 719.7 34.4
768(15) 0.00447 719.2 33.5
765(14) 0.00469 718.7 32.8
763(15) 0.00439 718.2 32.1
777(15) 0.00412 717.7 31.5
752(15) 0.00445 717.2 30.9
739(14) 0.00475 716.7 30.4
740(14) 0.00479 716.2 30.0
762(15) 0.00440 715.7 29.7
777(15) 0.00407 715.2 29.4
749(15) 0.00442 714.7 29.1
733(14) 0.00465 714.2 29.0
736(14) 0.00486 713.7 28.9
730(14) 0.00461 713.2 28.9
723(15) 0.00450 712.7 28.9
750(15) 0.00442 712.2 29.0
755(14) 0.00458 711.8 29.3
768(14) 0.00464 711.3 29.5
743(15) 0.00445 710.8 29.9
768(15) 0.00409 710.3 30.4
758(15) 0.00442 709.8 31.0
741(14) 0.00473 709.3 31.8
720(14) 0.00493 708.8 32.6
738(15) 0.00449 708.3 33.7
736(15) 0.00419 707.8 34.9
747(15) 0.00449 707.3 36.3
755(14) 0.00467 706.8 37.9
767(14) 0.00459 706.3 39.7
752(15) 0.00445 705.8 41.9
775(16) 0.00394 705.3 44.3
748(15) 0.00445 704.8 47.0
759(14) 0.00471 704.3 50.2
798(15) 0.00440 703.8 53.7
776(15) 0.00434 703.3 57.5
797(16) 0.00392 702.8 61.9
759(15) 0.00441 702.3 66.6
778(14) 0.00458 701.8 71.7
799(15) 0.00440 701.3 77.2
808(15) 0.00415 700.8 82.8
779(15) 0.00413 700.3 88.5
777(15) 0.00426 699.8 94.1
813(15) 0.00437 699.3 99.2
787(15) 0.00442 698.8 103.5
810(15) 0.00415 698.3 106.6
805(15) 0.00406 697.8 108.4
788(15) 0.00423 697.3 108.7
826(15) 0.00432 696.8 107.5
769(15) 0.00447 696.3 104.9
814(15) 0.00409 695.8 101.3
809(16) 0.00401 695.3 97.0
755(15) 0.00448 694.8 92.3
762(14) 0.00468 694.3 87.5
783(15) 0.00439 693.8 82.8
773(15) 0.00426 693.3 78.5
756(15) 0.00437 692.8 74.6
773(15) 0.00448 692.3 71.2
731(14) 0.00484 691.8 68.3
749(15) 0.00440 691.3 66.0
742(15) 0.00432 690.8 64.2
730(14) 0.00456 690.3 62.9
714(14) 0.00471 689.8 62.2
740(14) 0.00479 689.3 62.0
723(14) 0.00458 688.9 62.2
734(15) 0.00433 688.4 62.9
744(15) 0.00450 687.9 64.1
717(14) 0.00490 687.4 65.6
775(14) 0.00463 686.9 67.5
745(15) 0.00447 686.4 69.8
757(15) 0.00416 685.9 72.2
737(14) 0.00462 685.4 74.8
801(15) 0.00445 684.9 77.4
777(14) 0.00457 684.4 79.9
745(14) 0.00458 683.9 82.2
762(15) 0.00408 683.4 84.0
787(15) 0.00424 682.9 85.2
788(15) 0.00447 682.4 85.7
798(15) 0.00447 681.9 85.4
728(14) 0.00472 681.4 84.3
760(15) 0.00409 680.9 82.4
749(15) 0.00452 680.4 79.8
789(15) 0.00452 679.9 76.7
725(14) 0.00488 679.4 73.1
714(14) 0.00472 678.9 69.3
746(15) 0.00417 678.4 65.4
704(14) 0.00480 677.9 61.4
752(14) 0.00474 677.4 57.5
762(14) 0.00457 676.9 53.8
767(15) 0.00433 676.4 50.2
737(15) 0.00418 675.9 46.9
674(14) 0.00485 675.4 43.8
712(14) 0.00497 674.9 40.9
705(14) 0.00492 674.4 38.2
745(15) 0.00439 673.9 35.8
728(15) 0.00450 673.4 33.6
755(15) 0.00442 672.9 31.5
708(14) 0.00498 672.4 29.6
727(14) 0.00470 671.9 28.0
718(15) 0.00447 671.4 26.4
683(14) 0.00475 670.9 25.0
675(14) 0.00491 670.4 23.7
694(14) 0.00510 669.9 22.5
718(14) 0.00466 669.4 21.5
676(14) 0.00490 668.9 20.5
656(14) 0.00512 668.4 19.6
669(14) 0.00508 667.9 18.8
726(14) 0.00490 667.4 18.1
706(14) 0.00477 666.9 17.4
651(14) 0.00502 666.4 16.8
646(14) 0.00517 665.9 16.2
664(14) 0.00522 665.5 15.7
728(14) 0.00489 665.0 15.3
693(14) 0.00475 664.5 14.8
689(15) 0.00455 664.0 14.4
683(14) 0.00489 663.5 14.1
691(14) 0.00502 663.0 13.7
650(13) 0.00542 662.5 13.4
700(14) 0.00474 662.0 13.2
664(14) 0.00487 661.5 12.9
670(14) 0.00500 661.0 12.7
651(13) 0.00542 660.5 12.5
660(13) 0.00537 660.0 12.3
674(14) 0.00497 659.5 12.2
645(14) 0.00495 659.0 12.0
664(14) 0.00504 658.5 11.9
663(13) 0.00534 658.0 11.8
718(14) 0.00491 657.5 11.7
689(14) 0.00477 657.0 11.6
624(14) 0.00499 656.5 11.5
658(14) 0.00504 656.0 11.5
654(13) 0.00534 655.5 11.5
654(13) 0.00543 655.0 11.4
707(14) 0.00469 654.5 11.5
637(14) 0.00494 654.0 11.5
667(14) 0.00497 653.5 11.5
640(13) 0.00550 653.0 11.6
689(14) 0.00515 652.5 11.8
638(13) 0.00529 652.0 11.9
644(14) 0.00494 651.5 12.1
673(14) 0.00484 651.0 12.4
686(14) 0.00516 650.5 12.8
670(13) 0.00523 650.0 13.2
658(14) 0.00504 649.5 13.8
667(14) 0.00475 649.0 14.5
666(14) 0.00491 648.5 15.5
655(13) 0.00540 648.0 16.8
651(13) 0.00531 647.5 18.6
679(14) 0.00482 647.0 21.1
682(14) 0.00478 646.5 24.8
697(14) 0.00472 646.0 30.2
676(14) 0.00520 645.5 37.9
703(14) 0.00475 645.0 48.4
727(15) 0.00449 644.5 62.3
701(14) 0.00476 644.0 79.5
768(15) 0.00441 643.5 99.4
784(15) 0.00451 643.0 120.3
784(15) 0.00439 642.6 138.8
813(15) 0.00405 642.1 150.2
819(15) 0.00404 641.6 150.4
824(15) 0.00418 641.1 139.5
738(14) 0.00483 640.6 121.1
780(15) 0.00420 640.1 100.0
726(15) 0.00440 639.6 79.8
686(14) 0.00489 639.1 62.2
705(14) 0.00489 638.6 47.9
711(14) 0.00497 638.1 36.9
687(14) 0.00483 637.6 28.9
665(14) 0.00472 637.1 23.2
628(13) 0.00539 636.6 19.2
660(13) 0.00532 636.1 16.3
629(13) 0.00561 635.6 14.3
659(14) 0.00496 635.1 12.8
634(14) 0.00499 634.6 11.6
662(14) 0.00502 634.1 10.6
647(13) 0.00541 633.6 9.8
610(13) 0.00581 633.1 9.1
646(14) 0.00509 632.6 8.6
643(14) 0.00475 632.1 8.0
650(14) 0.00511 631.6 7.6
634(13) 0.00549 631.1 7.2
648(13) 0.00543 630.6 6.9
653(14) 0.00505 630.1 6.6
647(14) 0.00490 629.6 6.3
656(14) 0.00512 629.1 6.0
625(13) 0.00565 628.6 5.8
633(13) 0.00546 628.1 5.6
603(13) 0.00549 627.6 5.4
623(14) 0.00495 627.1 5.2
620(13) 0.00543 626.6 5.1
615(13) 0.00577 626.1 4.9
629(13) 0.00554 625.6 4.8
641(13) 0.00524 625.1 4.6
641(14) 0.00503 624.6 4.5
643(14) 0.00511 624.1 4.4
662(13) 0.00533 623.6 4.3
679(14) 0.00516 623.1 4.2
628(14) 0.00522 622.6 4.1
642(14) 0.00498 622.1 4.0
581(13) 0.00575 621.6 3.9
645(13) 0.00545 621.1 3.8
638(13) 0.00538 620.6 3.8
652(14) 0.00494 620.1 3.7
625(13) 0.00525 619.6 3.6
669(14) 0.00507 619.2 3.6
614(13) 0.00573 618.7 3.5
597(13) 0.00568 618.2 3.4
614(13) 0.00530 617.7 3.4
624(13) 0.00525 617.2 3.3
625(13) 0.00533 616.7 3.3
637(13) 0.00555 616.2 3.2
607(13) 0.00546 615.7 3.2
632(14) 0.00491 615.2 3.1
624(14) 0.00519 614.7 3.1
606(13) 0.00571 614.2 3.1
586(13) 0.00593 613.7 3.0
613(13) 0.00532 613.2 3.0
627(14) 0.00504 612.7 2.9
605(13) 0.00557 612.2 2.9
624(13) 0.00553 611.7 2.9
660(13) 0.00533 611.2 2.8
681(14) 0.00482 610.7 2.8
644(14) 0.00479 610.2 2.8
624(13) 0.00525 609.7 2.7
603(13) 0.00575 609.2 2.7
600(13) 0.00587 608.7 2.7
601(13) 0.00545 608.2 2.7
584(13) 0.00531 607.7 2.6
649(14) 0.00511 607.2 2.6
641(13) 0.00548 606.7 2.6
631(13) 0.00551 606.2 2.5
606(13) 0.00548 605.7 2.6
613(14) 0.00506 605.2 2.5
650(14) 0.00498 604.7 2.5
631(13) 0.00551 604.2 2.5
577(12) 0.00608 603.7 2.5
594(13) 0.00555 603.2 2.4
600(14) 0.00506 602.7 2.4
646(14) 0.00505 602.2 2.4
631(13) 0.00561 601.7 2.4
596(13) 0.00581 601.2 2.4
602(13) 0.00542 600.7 2.3
577(13) 0.00536 600.2 2.3
597(13) 0.00540 599.7 2.3
615(13) 0.00573 599.2 2.3
599(13) 0.00570 598.7 2.3
571(13) 0.00580 598.2 2.3
576(13) 0.00575 597.7 2.2
609(13) 0.00542 597.2 2.2
610(13) 0.00578 596.7 2.2
605(13) 0.00562 596.4 2.2
594(13) 0.00543 596.1 2.2
618(14) 0.00518 595.8 2.2
663(14) 0.00509 595.5 2.2
639(13) 0.00551 595.3 2.2
618(13) 0.00540 595.0 2.1
598(13) 0.00529 594.7 2.1
586(13) 0.00543 594.4 2.1
611(13) 0.00545 594.1 2.1
617(13) 0.00576 593.9 2.1
615(13) 0.00545 593.6 2.1
606(13) 0.00534 593.3 2.1
582(13) 0.00558 593.0 2.1
587(13) 0.00580 592.8 2.1
570(12) 0.00616 592.5 2.1
599(13) 0.00547 592.2 2.0
608(13) 0.00526 591.9 2.0
620(14) 0.00519 591.6 2.0
572(13) 0.00603 591.4 2.0
635(13) 0.00552 591.1 2.0
599(13) 0.00554 590.8 2.0
594(13) 0.00523 590.5 2.0
613(13) 0.00546 590.3 2.0
602(13) 0.00576 590.0 2.0
591(13) 0.00593 589.7 2.0
621(13) 0.00529 589.4 2.0
624(14) 0.00494 589.2 2.0
607(13) 0.00543 588.9 2.0
607(13) 0.00579 588.6 2.0
606(13) 0.00580 588.3 2.0
582(13) 0.00563 588.0 2.0
575(13) 0.00540 587.8 2.0
594(13) 0.00556 587.5 2.0
595(13) 0.00591 587.2 2.0
601(13) 0.00573 586.9 2.0
576(13) 0.00576 586.7 2.0
578(13) 0.00542 586.4 2.0
597(13) 0.00553 586.1 2.0
587(12) 0.00606 585.8 2.0
569(12) 0.00608 585.5 2.0
601(13) 0.00538 585.3 2.0
606(13) 0.00524 585.0 2.0
614(13) 0.00538 584.7 2.0
604(13) 0.00584 584.4 2.0
619(13) 0.00553 584.2 2.0
594(13) 0.00558 583.9 2.0
621(13) 0.00536 583.6 2.1
637(14) 0.00522 583.3 2.1
591(13) 0.00594 583.0 2.1
589(13) 0.00579 582.8 2.1
571(13) 0.00570 582.5 2.1
568(13) 0.00571 582.2 2.1
604(13) 0.00547 581.9 2.2
579(12) 0.00612 581.7 2.2
615(13) 0.00548 581.4 2.2
587(13) 0.00561 581.1 2.2
585(13) 0.00554 580.8 2.3
581(13) 0.00574 580.6 2.3
527(12) 0.00670 580.3 2.3
594(13) 0.00547 580.0 2.4
571(13) 0.00563 579.7 2.4
593(13) 0.00545 579.4 2.4
599(13) 0.00574 579.2 2.4
588(13) 0.00594 578.9 2.5
599(13) 0.00542 578.6 2.5
612(14) 0.00523 578.3 2.5
607(13) 0.00535 578.1 2.5
573(13) 0.00592 577.8 2.5
585(13) 0.00598 577.5 2.5
571(13) 0.00574 577.2 2.5
590(13) 0.00535 576.9 2.4
599(13) 0.00546 576.7 2.4
582(13) 0.00595 576.4 2.4
610(13) 0.00578 576.1 2.4
585(13) 0.00567 575.8 2.4
584(13) 0.00536 575.6 2.4
597(13) 0.00548 575.3 2.4
553(12) 0.00636 575.0 2.3
585(13) 0.00598 574.7 2.3
578(13) 0.00577 574.5 2.3
561(13) 0.00553 574.2 2.3
546(12) 0.00611 573.9 2.3
554(12) 0.00626 573.6 2.3
587(13) 0.00602 573.3 2.3
573(13) 0.00579 573.1 2.3
564(13) 0.00553 572.8 2.3
569(13) 0.00578 572.5 2.3
576(12) 0.00608 572.2 2.3
587(13) 0.00591 572.0 2.4
589(13) 0.00555 571.7 2.4
594(13) 0.00525 571.4 2.4
561(13) 0.00581 571.1 2.4
586(13) 0.00604 570.8 2.4
545(12) 0.00633 570.6 2.4
562(13) 0.00576 570.3 2.5
585(13) 0.00546 570.0 2.5
578(13) 0.00564 569.7 2.5
578(12) 0.00605 569.5 2.6
573(13) 0.00594 569.2 2.6
596(13) 0.00544 568.9 2.6
589(13) 0.00535 568.6 2.7
570(13) 0.00585 568.3 2.7
580(12) 0.00608 568.1 2.8
546(12) 0.00608 567.8 2.8
588(13) 0.00542 567.5 2.9
574(13) 0.00556 567.2 3.0
552(12) 0.00613 567.0 3.0
556(12) 0.00627 566.7 3.1
547(13) 0.00595 566.4 3.2
538(13) 0.00587 566.1 3.3
600(13) 0.00538 565.9 3.4
586(13) 0.00589 565.6 3.5
592(13) 0.00595 565.3 3.6
558(13) 0.00598 565.0 3.7
544(12) 0.00610 564.7 3.8
583(13) 0.00569 564.5 4.0
561(12) 0.00616 564.2 4.1
578(13) 0.00604 563.9 4.3
566(13) 0.00589 563.6 4.5
571(13) 0.00561 563.4 4.7
572(13) 0.00575 563.1 4.9
565(12) 0.00609 562.8 5.1
557(12) 0.00631 562.5 5.4
545(13) 0.00600 562.2 5.7
553(13) 0.00558 562.0 6.0
551(12) 0.00612 561.7 6.4
619(13) 0.00559 561.4 6.8
574(12) 0.00607 561.1 7.3
591(13) 0.00558 560.9 7.8
573(13) 0.00536 560.6 8.4
573(13) 0.00555 560.3 9.1
615(13) 0.00568 560.0 9.9
604(13) 0.00586 559.8 10.8
564(13) 0.00579 559.5 11.9
556(13) 0.00553 559.2 13.3
602(13) 0.00559 558.9 14.9
585(13) 0.00604 558.6 16.9
581(13) 0.00601 558.4 19.5
615(13) 0.00546 558.1 23.0
575(13) 0.00563 557.8 27.5
598(13) 0.00545 557.5 33.4
605(13) 0.00577 557.3 41.2
616(13) 0.00573 557.0 51.2
612(13) 0.00553 556.7 63.7
624(14) 0.00513 556.4 78.9
692(14) 0.00478 556.1 96.6
707(14) 0.00503 555.9 116.1
711(14) 0.00482 555.6 135.5
746(15) 0.00449 555.3 151.8
758(15) 0.00430 555.0 161.4
743(15) 0.00448 554.8 161.2
751(14) 0.00473 554.5 151.4
672(14) 0.00511 554.2 134.9
704(14) 0.00470 553.9 115.5
671(14) 0.00489 553.7 96.1
630(13) 0.00539 553.4 78.5
612(13) 0.00577 553.1 63.4
602(13) 0.00553 552.8 50.9
595(13) 0.00542 552.5 41.0
612(13) 0.00539 552.3 33.3
612(13) 0.00552 552.0 27.5
569(12) 0.00613 551.7 23.0
578(13) 0.00573 551.4 19.6
592(13) 0.00537 551.2 17.1
580(13) 0.00576 550.9 15.1
587(13) 0.00591 550.6 13.5
563(12) 0.00625 550.3 12.2
540(13) 0.00604 550.0 11.1
574(13) 0.00552 549.8 10.2
559(13) 0.00577 549.5 9.4
577(13) 0.00600 549.2 8.7
613(13) 0.00578 548.9 8.1
584(13) 0.00554 548.7 7.6
560(13) 0.00570 548.4 7.2
536(12) 0.00640 548.1 6.8
559(12) 0.00621 547.8 6.4
531(12) 0.00661 547.5 6.1
541(12) 0.00620 547.3 5.9
582(13) 0.00534 547.0 5.6
561(13) 0.00584 546.7 5.4
530(12) 0.00645 546.4 5.2
520(12) 0.00670 546.2 5.0
536(13) 0.00594 545.9 4.9
525(13) 0.00589 545.6 4.7
557(13) 0.00593 545.3 4.6
560(12) 0.00628 545.1 4.5
559(12) 0.00621 544.8 4.4
565(13) 0.00581 544.5 4.3
535(13) 0.00590 544.2 4.2
546(13) 0.00593 543.9 4.2
551(12) 0.00640 543.7 4.1
550(12) 0.00621 543.4 4.1
559(13) 0.00583 543.1 4.0
556(13) 0.00566 542.8 4.0
526(12) 0.00636 542.6 4.0
542(12) 0.00647 542.3 3.9
561(12) 0.00616 542.0 3.9
560(13) 0.00581 541.7 3.9
551(13) 0.00568 541.4 3.9
561(13) 0.00591 541.2 3.9
541(12) 0.00648 540.9 3.9
552(12) 0.00610 540.6 3.9
565(13) 0.00582 540.3 3.9
557(13) 0.00569 540.1 4.0
533(12) 0.00625 539.8 4.0
554(12) 0.00633 539.5 4.0
552(13) 0.00596 539.2 4.1
543(12) 0.00612 539.0 4.1
560(13) 0.00586 538.7 4.1
564(13) 0.00600 538.4 4.2
561(12) 0.00626 538.1 4.3
540(13) 0.00604 537.8 4.3
535(13) 0.00587 537.6 4.4
535(12) 0.00610 537.3 4.5
522(12) 0.00651 537.0 4.6
519(12) 0.00674 536.7 4.7
543(13) 0.00576 536.5 4.8
532(13) 0.00576 536.2 4.9
529(12) 0.00619 535.9 5.0
546(12) 0.00625 535.6 5.1
550(12) 0.00634 535.3 5.3
540(12) 0.00611 535.1 5.4
572(13) 0.00534 534.8 5.6
562(13) 0.00589 534.5 5.7
549(12) 0.00640 534.2 5.9
543(12) 0.00648 534.0 6.1
541(13) 0.00592 533.7 6.3
544(13) 0.00565 533.4 6.5
570(13) 0.00572 533.1 6.8
520(12) 0.00671 532.8 7.0
534(12) 0.00651 532.6 7.3
501(12) 0.00658 532.3 7.6
513(13) 0.00603 532.0 7.9
544(13) 0.00596 531.7 8.2
554(12) 0.00625 531.5 8.5
550(12) 0.00639 531.2 8.9
535(12) 0.00608 530.9 9.3
563(13) 0.00553 530.6 9.7
535(12) 0.00620 530.4 10.1
562(12) 0.00629 530.1 10.5
570(12) 0.00610 529.8 11.0
533(12) 0.00619 529.5 11.5
536(13) 0.00568 529.2 12.0
521(12) 0.00626 529.0 12.5
549(12) 0.00637 528.7 13.1
545(12) 0.00630 528.4 13.6
555(13) 0.00594 528.1 14.2
541(13) 0.00586 527.9 14.8
537(12) 0.00621 527.6 15.3
563(12) 0.00631 527.3 15.9
543(12) 0.00627 527.0 16.4
591(13) 0.00538 526.7 16.9
580(13) 0.00550 526.5 17.4
587(13) 0.00568 526.2 17.8
536(12) 0.00652 525.9 18.2
554(13) 0.00591 525.6 18.5
525(12) 0.00623 525.4 18.7
563(13) 0.00574 525.1 18.9
570(13) 0.00593 524.8 19.0
549(12) 0.00635 524.5 19.0
579(13) 0.00576 524.3 18.9
570(13) 0.00574 524.0 18.7
532(12) 0.00629 523.7 18.5
553(12) 0.00607 523.4 18.1
573(12) 0.00613 523.1 17.8
561(13) 0.00579 522.9 17.3
535(13) 0.00598 522.6 16.9
531(12) 0.00625 522.3 16.4
516(12) 0.00666 522.0 15.9
539(12) 0.00649 521.8 15.4
543(12) 0.00611 521.5 14.9
585(14) 0.00521 521.2 14.4
527(12) 0.00608 520.9 13.9
544(12) 0.00628 520.6 13.4
549(12) 0.00627 520.4 13.1
556(13) 0.00582 520.1 12.7
549(13) 0.00560 519.8 12.5
543(12) 0.00618 519.5 12.3
543(12) 0.00648 519.3 12.1
535(12) 0.00658 519.0 12.0
580(13) 0.00573 518.7 12.0
569(13) 0.00525 518.4 12.0
516(12) 0.00635 518.2 11.9
529(12) 0.00654 517.9 11.6
524(12) 0.00666 517.6 11.2
532(12) 0.00629 517.3 10.6
514(12) 0.00619 517.0 10.0
535(12) 0.00610 516.8 9.3
520(12) 0.00672 516.5 8.6
513(12) 0.00670 516.2 8.0
545(13) 0.00585 515.9 7.5
528(13) 0.00581 515.7 7.0
535(13) 0.00596 515.4 6.5
519(12) 0.00673 515.1 6.2
509(12) 0.00661 514.8 5.9
480(12) 0.00702 514.5 5.6
519(12) 0.00606 514.3 5.3
510(12) 0.00645 514.0 5.1
558(12) 0.00624 513.7 4.9
510(12) 0.00667 513.4 4.7
552(13) 0.00589 513.2 4.5
530(13) 0.00602 512.9 4.4
537(13) 0.00596 512.6 4.2
549(12) 0.00637 512.3 4.1
527(12) 0.00639 512.0 4.0
550(13) 0.00592 511.8 3.8
520(12) 0.00622 511.5 3.7
520(12) 0.00646 511.2 3.6
511(12) 0.00681 510.9 3.5
494(12) 0.00679 510.7 3.4
520(12) 0.00614 510.4 3.3
509(12) 0.00640 510.1 3.2
520(12) 0.00645 509.8 3.2
528(12) 0.00666 509.6 3.1
530(12) 0.00619 509.3 3.0
532(13) 0.00583 509.0 2.9
505(12) 0.00631 508.7 2.9
511(12) 0.00664 508.4 2.8
504(12) 0.00699 508.2 2.7
495(12) 0.00662 507.9 2.7
480(12) 0.00653 507.6 2.6
516(12) 0.00641 507.3 2.6
528(12) 0.00647 507.1 2.5
495(12) 0.00704 506.8 2.5
535(13) 0.00604 506.5 2.4
533(13) 0.00599 506.2 2.4
510(12) 0.00647 505.9 2.3
496(12) 0.00691 505.7 2.3
490(11) 0.00716 505.4 2.3
531(13) 0.00597 505.1 2.2
517(13) 0.00580 504.8 2.2
491(12) 0.00673 504.6 2.1
472(11) 0.00729 504.3 2.1
505(12) 0.00687 504.0 2.1
523(12) 0.00622 503.7 2.0
522(13) 0.00596 503.5 2.0
519(12) 0.00641 503.2 2.0
489(11) 0.00708 502.9 2.0
516(12) 0.00669 502.6 1.9
521(12) 0.00636 502.3 1.9
524(13) 0.00586 502.1 1.9
538(13) 0.00593 501.8 1.9
515(12) 0.00669 501.5 1.8
516(12) 0.00667 501.2 1.8
507(12) 0.00624 501.0 1.8
499(12) 0.00609 500.7 1.8
500(12) 0.00656 500.4 1.7
509(12) 0.00680 500.1 1.7
522(12) 0.00654 499.8 1.7
511(12) 0.00641 499.6 1.7
521(12) 0.00610 499.3 1.7
504(12) 0.00652 499.0 1.7
470(11) 0.00738 498.7 1.6
525(12) 0.00639 498.5 1.6
489(12) 0.00663 498.2 1.6
506(12) 0.00629 497.9 1.6
531(12) 0.00616 497.6 1.6
519(12) 0.00667 497.3 1.6
481(12) 0.00695 497.1 1.5
518(12) 0.00618 496.8 1.5
495(12) 0.00652 496.5 1.5
500(12) 0.00660 496.2 1.5
500(12) 0.00696 496.0 1.5
514(12) 0.00621 495.7 1.5
509(12) 0.00614 495.4 1.5
499(12) 0.00643 495.1 1.5
502(12) 0.00671 494.9 1.5
530(12) 0.00658 494.6 1.4
510(12) 0.00642 494.3 1.4
505(12) 0.00629 494.0 1.4
485(12) 0.00697 493.7 1.4
485(12) 0.00707 493.5 1.4
505(12) 0.00682 493.2 1.4
496(12) 0.00667 492.9 1.4
516(13) 0.00602 492.6 1.4
481(12) 0.00686 492.4 1.4
489(12) 0.00708 492.1 1.4
483(11) 0.00709 491.8 1.4
491(12) 0.00669 491.5 1.4
534(13) 0.00561 491.2 1.4
492(12) 0.00674 491.0 1.3
488(12) 0.00702 490.7 1.3
511(12) 0.00673 490.4 1.3
510(12) 0.00648 490.1 1.3
503(12) 0.00608 489.9 1.3
495(12) 0.00659 489.6 1.3
469(11) 0.00726 489.3 1.3
473(11) 0.00731 489.0 1.3
531(13) 0.00590 488.8 1.3
498(12) 0.00623 488.6 1.3
490(12) 0.00676 488.4 1.3
498(12) 0.00691 488.2 1.3
470(11) 0.00724 488.0 1.3
543(13) 0.00587 487.9 1.3
488(12) 0.00650 487.7 1.3
478(12) 0.00691 487.5 1.3
513(12) 0.00687 487.3 1.3
493(12) 0.00678 487.1 1.3
465(12) 0.00680 486.9 1.3
494(12) 0.00638 486.7 1.3
490(12) 0.00679 486.5 1.3
482(11) 0.00725 486.4 1.3
478(12) 0.00702 486.2 1.3
495(12) 0.00648 486.0 1.3
500(12) 0.00627 485.8 1.3
514(12) 0.00637 485.6 1.3
508(12) 0.00690 485.4 1.3
475(12) 0.00703 485.2 1.3
452(11) 0.00729 485.0 1.3
502(12) 0.00636 484.9 1.3
506(12) 0.00667 484.7 1.3
485(11) 0.00718 484.5 1.3
493(12) 0.00671 484.3 1.3
489(12) 0.00650 484.1 1.3
505(12) 0.00618 483.9 1.3
485(12) 0.00693 483.7 1.3
489(11) 0.00709 483.5 1.3
501(12) 0.00647 483.4 1.3
453(11) 0.00715 483.2 1.3
509(12) 0.00635 483.0 1.3
496(12) 0.00685 482.8 1.3
483(11) 0.00714 482.6 1.3
497(12) 0.00656 482.4 1.4
502(12) 0.00630 482.2 1.4
477(12) 0.00678 482.0 1.4
480(11) 0.00725 481.9 1.4
512(12) 0.00681 481.7 1.4
498(12) 0.00656 481.5 1.4
456(12) 0.00694 481.3 1.4
511(12) 0.00651 481.1 1.4
472(11) 0.00721 480.9 1.4
506(12) 0.00687 480.7 1.5
462(11) 0.00727 480.5 1.5
516(13) 0.00598 480.4 1.5
499(12) 0.00665 480.2 1.5
466(11) 0.00745 480.0 1.5
482(11) 0.00721 479.8 1.6
469(11) 0.00722 479.6 1.6
475(12) 0.00658 479.4 1.6
489(12) 0.00671 479.2 1.6
492(11) 0.00714 479.0 1.7
500(12) 0.00676 478.8 1.7
483(12) 0.00688 478.7 1.7
491(12) 0.00644 478.5 1.8
502(12) 0.00635 478.3 1.8
481(11) 0.00720 478.1 1.9
490(11) 0.00709 477.9 1.9
499(12) 0.00664 477.7 2.0
509(12) 0.00620 477.5 2.1
501(12) 0.00643 477.3 2.1
475(11) 0.00728 477.2 2.2
506(12) 0.00657 477.0 2.3
468(12) 0.00695 476.8 2.4
472(12) 0.00655 476.6 2.5
459(12) 0.00696 476.4 2.7
484(11) 0.00717 476.2 2.8
473(12) 0.00699 476.0 3.0
462(12) 0.00695 475.8 3.2
485(12) 0.00665 475.7 3.4
468(11) 0.00717 475.5 3.7
462(11) 0.00748 475.3 4.0
485(12) 0.00661 475.1 4.4
482(12) 0.00651 474.9 4.8
484(12) 0.00674 474.7 5.3
493(12) 0.00691 474.5 5.9
475(11) 0.00733 474.3 6.5
488(12) 0.00667 474.2 7.3
479(12) 0.00677 474.0 8.1
473(12) 0.00698 473.8 9.0
474(11) 0.00725 473.6 10.0
488(11) 0.00715 473.4 11.0
482(12) 0.00692 473.2 12.0
498(12) 0.00639 473.0 12.9
480(12) 0.00680 472.8 13.6
474(11) 0.00720 472.7 14.0
507(12) 0.00689 472.5 14.1
497(12) 0.00641 472.3 13.8
493(12) 0.00634 472.1 13.2
489(12) 0.00677 471.9 12.3
483(11) 0.00720 471.7 11.4
486(11) 0.00721 471.5 10.3
495(12) 0.00671 471.3 9.4
488(12) 0.00626 471.2 8.4
507(12) 0.00650 471.0 7.6
482(11) 0.00721 470.8 6.8
437(11) 0.00777 470.6 6.2
468(12) 0.00696 470.4 5.6
463(12) 0.00645 470.2 5.1
484(12) 0.00696 470.0 4.6
473(11) 0.00730 469.8 4.3
456(11) 0.00753 469.7 3.9
486(12) 0.00667 469.5 3.7
469(12) 0.00679 469.3 3.4
498(12) 0.00637 469.1 3.2
460(11) 0.00751 468.9 3.1
481(12) 0.00696 468.7 2.9
509(12) 0.00613 468.5 2.8
513(12) 0.00610 468.3 2.7
485(12) 0.00670 468.2 2.6
469(11) 0.00732 468.0 2.5
478(11) 0.00713 467.8 2.5
467(12) 0.00688 467.6 2.4
450(11) 0.00714 467.4 2.4
485(12) 0.00668 467.2 2.3
460(11) 0.00753 467.0 2.3
465(11) 0.00726 466.8 2.2
495(12) 0.00637 466.6 2.2
470(12) 0.00700 466.5 2.2
487(12) 0.00685 466.3 2.2
467(11) 0.00739 466.1 2.2
445(11) 0.00758 465.9 2.2
505(12) 0.00636 465.7 2.2
478(12) 0.00677 465.5 2.2
479(12) 0.00700 465.3 2.2
485(11) 0.00720 465.1 2.2
495(12) 0.00664 465.0 2.2
509(12) 0.00624 464.8 2.2
500(12) 0.00648 464.6 2.2
456(11) 0.00748 464.4 2.2
445(11) 0.00780 464.2 2.3
446(11) 0.00739 464.0 2.3
446(11) 0.00712 463.8 2.3
453(11) 0.00712 463.6 2.4
486(12) 0.00698 463.5 2.4
495(12) 0.00706 463.3 2.4
474(12) 0.00693 463.1 2.5
467(12) 0.00667 462.9 2.5
489(12) 0.00670 462.7 2.6
484(11) 0.00718 462.5 2.6
472(11) 0.00737 462.3 2.7
455(11) 0.00722 462.1 2.8
463(12) 0.00659 462.0 2.8
466(11) 0.00714 461.8 2.9
492(11) 0.00712 461.6 2.9
465(11) 0.00741 461.4 3.0
484(12) 0.00662 461.2 3.0
477(12) 0.00642 461.0 3.1
487(12) 0.00679 460.8 3.1
476(11) 0.00728 460.6 3.2
485(12) 0.00702 460.5 3.2
452(11) 0.00723 460.3 3.2
440(12) 0.00694 460.1 3.3
472(12) 0.00691 459.9 3.3
469(11) 0.00732 459.7 3.3
494(12) 0.00703 459.5 3.3
497(12) 0.00656 459.3 3.3
433(11) 0.00728 459.1 3.3
441(11) 0.00713 459.0 3.2
474(11) 0.00740 458.8 3.2
459(11) 0.00742 458.6 3.2
460(12) 0.00697 458.4 3.1
451(12) 0.00707 458.2 3.1
471(12) 0.00692 458.0 3.0
485(11) 0.00722 457.8 2.9
454(11) 0.00731 457.6 2.9
453(11) 0.00708 457.5 2.8
469(12) 0.00662 457.3 2.7
469(11) 0.00709 457.1 2.7
454(11) 0.00757 456.9 2.6
452(11) 0.00729 456.7 2.6
452(12) 0.00694 456.5 2.5
451(11) 0.00709 456.3 2.4
458(11) 0.00737 456.1 2.4
464(11) 0.00748 456.0 2.3
478(12) 0.00678 455.8 2.3
457(12) 0.00676 455.6 2.2
436(11) 0.00745 455.4 2.2
469(12) 0.00706 455.2 2.1
462(11) 0.00750 455.0 2.1
465(11) 0.00711 454.8 2.0
467(12) 0.00660 454.6 2.0
461(12) 0.00694 454.4 2.0
465(11) 0.00733 454.3 1.9
508(12) 0.00689 454.1 1.9
458(11) 0.00719 453.9 1.9
481(12) 0.00647 453.7 1.8
482(12) 0.00689 453.5 1.8
475(11) 0.00735 453.3 1.8
477(11) 0.00727 453.1 1.8
452(11) 0.00709 452.9 1.7
464(12) 0.00662 452.8 1.7
455(11) 0.00730 452.6 1.7
492(12) 0.00696 452.4 1.7
477(11) 0.00719 452.2 1.7
468(11) 0.00721 452.0 1.7
452(12) 0.00691 451.8 1.6
461(12) 0.00701 451.6 1.6
451(11) 0.00761 451.4 1.6
434(11) 0.00799 451.3 1.6
457(12) 0.00707 451.1 1.6
446(12) 0.00691 450.9 1.6
435(11) 0.00749 450.7 1.6
445(11) 0.00787 450.5 1.6
439(11) 0.00770 450.3 1.6
428(11) 0.00780 450.1 1.5
445(11) 0.00710 449.9 1.5
456(11) 0.00727 449.8 1.5
439(11) 0.00788 449.6 1.5
450(11) 0.00758 449.4 1.5
468(12) 0.00707 449.2 1.5
467(12) 0.00678 449.0 1.5
467(12) 0.00694 448.8 1.5
457(11) 0.00758 448.6 1.5
465(11) 0.00723 448.4 1.5
462(12) 0.00678 448.3 1.5
457(12) 0.00707 448.1 1.5
471(12) 0.00697 447.9 1.5
420(11) 0.00822 447.7 1.5
419(11) 0.00788 447.5 1.5
441(11) 0.00726 447.3 1.5
456(12) 0.00692 447.1 1.5
449(11) 0.00742 446.9 1.5
437(11) 0.00789 446.8 1.5
459(11) 0.00724 446.6 1.5
451(11) 0.00713 446.4 1.5
432(11) 0.00732 446.2 1.5
461(11) 0.00725 446.0 1.5
455(11) 0.00764 445.8 1.5
440(11) 0.00720 445.6 1.5
464(12) 0.00695 445.4 1.5
476(12) 0.00682 445.3 1.5
458(11) 0.00737 445.1 1.5
475(11) 0.00732 444.9 1.5
460(12) 0.00697 444.7 1.5
443(11) 0.00712 444.5 1.5
445(11) 0.00726 444.3 1.5
436(11) 0.00779 444.1 1.5
451(11) 0.00769 443.9 1.5
448(11) 0.00735 443.8 1.5
392(11) 0.00813 443.6 1.5
436(11) 0.00728 443.4 1.5
439(11) 0.00774 443.2 1.5
423(11) 0.00820 443.0 1.5
438(11) 0.00726 442.8 1.5
431(12) 0.00683 442.6 1.5
460(12) 0.00705 442.4 1.6
487(12) 0.00705 442.3 1.6
441(11) 0.00774 442.1 1.6
444(11) 0.00737 441.9 1.6
440(12) 0.00685 441.7 1.6
462(11) 0.00713 441.5 1.6
475(11) 0.00725 441.3 1.6
450(11) 0.00758 441.1 1.6
457(12) 0.00707 440.9 1.6
439(12) 0.00704 440.7 1.6
453(11) 0.00715 440.6 1.6
452(11) 0.00764 440.4 1.6
433(11) 0.00781 440.2 1.6
445(12) 0.00707 440.0 1.6
431(12) 0.00706 439.8 1.6
442(11) 0.00737 439.6 1.7
457(11) 0.00751 439.4 1.7
452(11) 0.00750 439.2 1.7
442(11) 0.00724 439.1 1.7
444(12) 0.00698 438.9 1.7
458(11) 0.00709 438.7 1.7
436(11) 0.00794 438.5 1.7
425(11) 0.00774 438.3 1.7
468(12) 0.00663 438.1 1.7
451(11) 0.00715 438.0 1.7
450(11) 0.00728 437.9 1.7
424(11) 0.00817 437.8 1.8
453(11) 0.00722 437.7 1.8
428(11) 0.00733 437.6 1.8
411(11) 0.00772 437.5 1.8
457(11) 0.00720 437.3 1.8
451(11) 0.00763 437.2 1.8
446(11) 0.00725 437.1 1.8
460(12) 0.00663 437.0 1.8
466(12) 0.00683 436.9 1.8
456(11) 0.00750 436.8 1.9
453(11) 0.00757 436.7 1.9
479(12) 0.00659 436.6 1.9
418(11) 0.00762 436.5 1.9
438(11) 0.00739 436.4 1.9
455(11) 0.00745 436.3 1.9
437(11) 0.00780 436.2 1.9
433(11) 0.00734 436.0 1.9
406(11) 0.00753 435.9 2.0
424(11) 0.00769 435.8 2.0
445(11) 0.00775 435.7 2.0
440(11) 0.00781 435.6 2.0
462(11) 0.00716 435.5 2.0
428(11) 0.00714 435.4 2.0
458(12) 0.00700 435.3 2.1
452(11) 0.00767 435.2 2.1
436(11) 0.00785 435.1 2.1
423(11) 0.00775 435.0 2.1
389(11) 0.00803 434.8 2.1
446(11) 0.00715 434.7 2.1
456(11) 0.00762 434.6 2.2
433(11) 0.00798 434.5 2.2
445(11) 0.00732 434.4 2.2
461(12) 0.00675 434.3 2.2
434(11) 0.00757 434.2 2.2
433(11) 0.00790 434.1 2.3
459(11) 0.00741 434.0 2.3
452(11) 0.00717 433.9 2.3
440(11) 0.00727 433.8 2.3
461(12) 0.00705 433.7 2.3
439(11) 0.00793 433.5 2.4
419(11) 0.00804 433.4 2.4
431(11) 0.00722 433.3 2.4
428(11) 0.00752 433.2 2.4
449(11) 0.00726 433.1 2.5
448(11) 0.00775 433.0 2.5
453(11) 0.00736 432.9 2.5
453(11) 0.00740 432.8 2.5
453(12) 0.00700 432.7 2.6
440(11) 0.00746 432.6 2.6
446(11) 0.00777 432.5 2.6
406(11) 0.00825 432.3 2.7
467(12) 0.00696 432.2 2.7
452(11) 0.00711 432.1 2.7
434(11) 0.00772 432.0 2.8
453(11) 0.00768 431.9 2.8
419(11) 0.00762 431.8 2.8
460(12) 0.00706 431.7 2.9
454(11) 0.00748 431.6 2.9
428(11) 0.00792 431.5 2.9
430(11) 0.00802 431.4 3.0
445(11) 0.00728 431.3 3.0
422(11) 0.00750 431.1 3.0
442(11) 0.00744 431.0 3.1
452(11) 0.00749 430.9 3.1
428(11) 0.00810 430.8 3.2
466(12) 0.00692 430.7 3.2
445(12) 0.00685 430.6 3.3
433(11) 0.00754 430.5 3.3
404(10) 0.00847 430.4 3.3
417(11) 0.00814 430.3 3.4
446(11) 0.00723 430.2 3.4
431(11) 0.00732 430.1 3.5
445(11) 0.00736 430.0 3.6
441(11) 0.00779 429.8 3.6
426(11) 0.00804 429.7 3.7
432(11) 0.00755 429.6 3.7
418(11) 0.00712 429.5 3.8
429(11) 0.00766 429.4 3.8
453(11) 0.00767 429.3 3.9
431(11) 0.00788 429.2 4.0
450(12) 0.00708 429.1 4.1
415(11) 0.00745 429.0 4.1
414(11) 0.00775 428.9 4.2
425(11) 0.00803 428.8 4.3
427(11) 0.00795 428.6 4.4
408(11) 0.00786 428.5 4.4
436(12) 0.00696 428.4 4.5
422(11) 0.00773 428.3 4.6
436(11) 0.00794 428.2 4.7
418(11) 0.00793 428.1 4.8
408(11) 0.00786 428.0 4.9
413(11) 0.00741 427.9 5.0
418(11) 0.00749 427.8 5.1
417(11) 0.00834 427.7 5.2
428(11) 0.00789 427.6 5.4
434(11) 0.00736 427.5 5.5
414(11) 0.00767 427.3 5.6
432(11) 0.00763 427.2 5.8
434(11) 0.00796 427.1 5.9
430(11) 0.00750 427.0 6.0
431(11) 0.00739 426.9 6.2
439(11) 0.00723 426.8 6.4
422(11) 0.00789 426.7 6.5
436(11) 0.00793 426.6 6.7
438(11) 0.00727 426.5 6.9
441(11) 0.00743 426.4 7.1
433(11) 0.00737 426.3 7.3
441(11) 0.00765 426.1 7.6
423(11) 0.00813 426.0 7.8
437(11) 0.00741 425.9 8.1
442(12) 0.00703 425.8 8.3
413(11) 0.00790 425.7 8.6
463(11) 0.00732 425.6 9.0
430(11) 0.00803 425.5 9.3
437(11) 0.00739 425.4 9.6
422(11) 0.00745 425.3 10.0
416(11) 0.00788 425.2 10.4
400(10) 0.00860 425.1 10.9
429(11) 0.00805 425.0 11.3
408(11) 0.00807 424.8 11.8
425(11) 0.00718 424.7 12.4
433(11) 0.00743 424.6 13.0
414(11) 0.00822 424.5 13.6
438(11) 0.00794 424.4 14.4
430(11) 0.00743 424.3 15.1
421(11) 0.00737 424.2 16.0
425(11) 0.00769 424.1 16.9
451(11) 0.00768 424.0 18.0
457(11) 0.00739 423.9 19.1
438(11) 0.00739 423.8 20.4
425(11) 0.00728 423.6 21.9
410(11) 0.00807 423.5 23.5
428(11) 0.00806 423.4 25.3
457(11) 0.00753 423.3 27.5
460(12) 0.00691 423.2 29.9
445(12) 0.00681 423.1 32.8
449(12) 0.00706 423.0 36.1
478(11) 0.00727 422.9 40.1
454(11) 0.00740 422.8 44.8
466(12) 0.00699 422.7 50.5
510(12) 0.00616 422.6 57.4
491(12) 0.00671 422.5 65.6
483(11) 0.00713 422.3 75.5
518(12) 0.00664 422.2 87.3
518(12) 0.00630 422.1 101.2
532(13) 0.00602 422.0 117.3
597(13) 0.00568 421.9 135.8
630(13) 0.00558 421.8 156.3
652(14) 0.00506 421.7 178.1
664(14) 0.00507 421.6 199.7
704(14) 0.00468 421.5 218.8
717(14) 0.00470 421.4 232.6
731(14) 0.00486 421.3 238.6
684(14) 0.00478 421.1 235.3
658(14) 0.00485 421.0 223.7
603(13) 0.00545 420.9 206.2
623(13) 0.00559 420.8 185.5
605(13) 0.00578 420.7 164.1
529(12) 0.00606 420.6 143.8
514(12) 0.00612 420.5 125.5
513(12) 0.00660 420.4 109.4
525(12) 0.00652 420.3 95.7
515(12) 0.00675 420.2 84.1
507(12) 0.00652 420.1 74.6
485(12) 0.00659 420.0 66.9
499(12) 0.00644 419.8 60.7
469(11) 0.00732 419.7 55.9
496(12) 0.00704 419.6 52.2
525(12) 0.00620 419.5 49.4
491(12) 0.00618 419.4 47.6
496(12) 0.00644 419.3 46.5
473(11) 0.00733 419.2 46.2
480(11) 0.00723 419.1 46.7
483(12) 0.00692 419.0 47.9
498(12) 0.00616 418.9 49.9
482(12) 0.00688 418.8 52.8
496(12) 0.00699 418.6 56.5
487(11) 0.00711 418.5 61.1
502(12) 0.00663 418.4 66.5
493(12) 0.00623 418.3 72.5
502(12) 0.00650 418.2 78.6
476(11) 0.00730 418.1 84.4
517(12) 0.00663 418.0 88.8
537(12) 0.00619 417.9 91.0
512(12) 0.00611 417.8 90.5
491(12) 0.00654 417.7 87.4
546(12) 0.00641 417.6 82.2
526(12) 0.00658 417.4 76.0
442(11) 0.00749 417.3 69.4
448(12) 0.00706 417.2 63.2
458(12) 0.00700 417.1 57.5
474(11) 0.00735 417.0 52.6
454(11) 0.00749 416.9 48.4
473(12) 0.00676 416.8 45.0
445(11) 0.00722 416.7 42.3
428(11) 0.00772 416.6 40.2
437(11) 0.00789 416.5 38.6
425(11) 0.00800 416.4 37.4
438(11) 0.00745 416.3 36.7
462(12) 0.00699 416.1 36.3
444(11) 0.00761 416.0 36.2
419(11) 0.00812 415.9 36.4
469(12) 0.00687 415.8 36.9
444(11) 0.00722 415.7 37.5
452(12) 0.00701 415.6 38.4
446(11) 0.00739 415.5 39.5
423(11) 0.00812 415.4 40.8
438(11) 0.00725 415.3 42.3
448(12) 0.00708 415.2 44.1
452(11) 0.00712 415.1 46.1
450(11) 0.00761 414.9 48.4
436(11) 0.00787 414.8 51.0
442(11) 0.00729 414.7 54.0
439(12) 0.00702 414.6 57.4
462(12) 0.00705 414.5 61.2
459(11) 0.00723 414.4 65.6
476(11) 0.00734 414.3 70.6
464(12) 0.00707 414.2 76.3
483(12) 0.00661 414.1 83.0
500(12) 0.00656 414.0 90.8
505(12) 0.00685 413.9 100.1
533(12) 0.00661 413.8 111.3
506(12) 0.00673 413.6 124.8
540(13) 0.00568 413.5 141.5
567(13) 0.00578 413.4 162.0
562(12) 0.00619 413.3 187.3
612(13) 0.00569 413.2 218.3
636(13) 0.00526 413.1 256.2
688(15) 0.00445 413.0 301.8
717(14) 0.00479 412.9 355.6
812(15) 0.00438 412.8 417.5
861(15) 0.00411 412.7 485.8
953(17) 0.003475 412.6 556.4
1029(18) 0.003077 412.4 621.8
1097(18) 0.003099 412.3 671.3
1134(17) 0.003185 412.2 693.8
1062(17) 0.003368 412.1 683.5
990(17) 0.003329 412.0 642.9
902(16) 0.00358 411.9 581.7
868(16) 0.00376 411.8 511.2
813(15) 0.00438 411.7 440.4
761(14) 0.00458 411.6 374.7
726(15) 0.00455 411.5 316.8
688(14) 0.00469 411.4 267.2
650(14) 0.00510 411.3 225.8
631(13) 0.00558 411.1 191.7
605(13) 0.00563 411.0 163.8
565(13) 0.00572 410.9 141.2
562(13) 0.00572 410.8 123.0
543(12) 0.00612 410.7 108.2
554(12) 0.00636 410.6 96.1
520(12) 0.00637 410.5 86.1
524(12) 0.00620 410.4 77.8
512(12) 0.00633 410.3 70.8
495(12) 0.00673 410.2 64.8
498(12) 0.00701 410.1 59.6
509(12) 0.00631 409.9 55.1
486(12) 0.00643 409.8 51.1
452(12) 0.00708 409.7 47.6
488(12) 0.00672 409.6 44.5
474(11) 0.00737 409.5 41.7
445(11) 0.00712 409.4 39.3
444(11) 0.00714 409.3 37.0
467(12) 0.00700 409.2 35.0
457(11) 0.00756 409.1 33.2
435(11) 0.00790 409.0 31.6
461(12) 0.00689 408.9 30.1
434(11) 0.00724 408.8 28.8
448(11) 0.00727 408.6 27.5
445(11) 0.00782 408.5 26.4
440(11) 0.00781 408.4 25.4
450(11) 0.00736 408.3 24.5
419(11) 0.00747 408.2 23.6
431(11) 0.00760 408.1 22.8
467(11) 0.00731 408.0 22.1
427(11) 0.00811 407.9 21.5
401(11) 0.00808 407.8 20.9
434(12) 0.00672 407.7 20.4
424(11) 0.00757 407.6 19.9
410(11) 0.00837 407.4 19.4
473(11) 0.00732 407.3 19.0
436(11) 0.00753 407.2 18.7
446(12) 0.00692 407.1 18.4
419(11) 0.00776 407.0 18.1
436(11) 0.00793 406.9 17.8
409(11) 0.00828 406.8 17.6
426(11) 0.00748 406.7 17.5
395(11) 0.00804 406.6 17.3
418(11) 0.00753 406.5 17.2
424(11) 0.00808 406.4 17.1
408(11) 0.00821 406.3 17.0
412(11) 0.00781 406.1 17.0
413(11) 0.00769 406.0 17.0
418(11) 0.00771 405.9 17.1
428(11) 0.00803 405.8 17.1
418(11) 0.00802 405.7 17.2
423(11) 0.00770 405.6 17.4
397(11) 0.00829 405.5 17.5
432(11) 0.00735 405.4 17.7
406(10) 0.00843 405.3 18.0
423(11) 0.00771 405.2 18.2
433(11) 0.00715 405.1 18.6
425(11) 0.00742 404.9 18.9
435(11) 0.00757 404.8 19.3
429(11) 0.00800 404.7 19.8
439(11) 0.00735 404.6 20.3
422(11) 0.00729 404.5 20.9
433(11) 0.00730 404.4 21.6
452(11) 0.00744 404.3 22.3
470(11) 0.00737 404.2 23.1
453(12) 0.00703 404.1 24.0
449(12) 0.00701 404.0 25.0
451(12) 0.00701 403.9 26.1
448(11) 0.00766 403.7 27.3
432(11) 0.00798 403.6 28.7
456(11) 0.00714 403.5 30.3
468(12) 0.00664 403.4 32.0
449(11) 0.00716 403.3 33.9
454(11) 0.00750 403.2 36.1
456(11) 0.00760 403.1 38.6
471(12) 0.00692 403.0 41.4
455(12) 0.00686 402.9 44.6
427(11) 0.00782 402.8 48.2
473(11) 0.00716 402.7 52.2
468(11) 0.00741 402.6 56.9
469(12) 0.00686 402.4 62.1
452(12) 0.00663 402.3 68.1
476(12) 0.00680 402.2 74.8
511(12) 0.00679 402.1 82.4
515(12) 0.00676 402.0 90.9
521(12) 0.00616 401.9 100.3
512(13) 0.00592 401.8 110.8
499(12) 0.00660 401.7 122.1
526(12) 0.00660 401.6 134.2
563(12) 0.00614 401.5 146.7
559(13) 0.00584 401.4 159.3
555(13) 0.00572 401.2 171.2
599(13) 0.00546 401.1 181.7
561(12) 0.00626 401.0 189.8
619(13) 0.00554 400.9 194.8
615(13) 0.00528 400.8 196.1
615(14) 0.00521 400.7 193.5
582(13) 0.00552 400.6 187.3
588(13) 0.00593 400.5 178.2
584(13) 0.00583 400.4 167.1
557(13) 0.00604 400.3 154.8
566(13) 0.00570 400.2 142.1
550(12) 0.00610 400.1 129.6
517(12) 0.00670 399.9 117.7
490(12) 0.00682 399.8 106.5
481(12) 0.00673 399.7 96.4
477(12) 0.00683 399.6 87.2
476(12) 0.00689 399.5 78.9
491(12) 0.00702 399.4 71.5
475(12) 0.00674 399.3 65.0
486(12) 0.00651 399.2 59.2
478(12) 0.00667 399.1 54.1
434(11) 0.00768 399.0 49.6
447(11) 0.00767 398.9 45.6
424(11) 0.00751 398.7 42.0
429(11) 0.00721 398.6 38.9
430(11) 0.00755 398.5 36.1
437(11) 0.00772 398.4 33.7
405(10) 0.00856 398.3 31.5
424(11) 0.00723 398.2 29.5
396(11) 0.00771 398.1 27.8
412(11) 0.00773 398.0 26.2
410(11) 0.00833 397.9 24.7
404(10) 0.00853 397.8 23.4
410(11) 0.00791 397.7 22.3
401(11) 0.00765 397.6 21.2
400(11) 0.00816 397.4 20.2
448(11) 0.00760 397.3 19.3
401(10) 0.00850 397.2 18.5
408(11) 0.00789 397.1 17.7
412(11) 0.00735 397.0 17.0
389(11) 0.00801 396.9 16.4
396(10) 0.00859 396.8 15.8
405(10) 0.00845 396.7 15.2
381(11) 0.00823 396.6 14.7
375(11) 0.00809 396.5 14.2
366(10) 0.00884 396.4 13.8
401(10) 0.00846 396.2 13.4
409(11) 0.00838 396.1 13.0
422(11) 0.00777 396.0 12.6
386(11) 0.00790 395.9 12.3
378(10) 0.00849 395.8 12.0
370(10) 0.00911 395.7 11.7
393(10) 0.00862 395.6 11.4
390(10) 0.00842 395.5 11.2
415(11) 0.00762 395.4 10.9
410(11) 0.00815 395.3 10.7
385(10) 0.00887 395.2 10.5
377(10) 0.00875 395.1 10.3
394(11) 0.00811 394.9 10.1
389(11) 0.00780 394.8 9.9
408(11) 0.00789 394.7 9.8
424(11) 0.00810 394.6 9.6
388(10) 0.00868 394.5 9.5
367(10) 0.00867 394.4 9.4
391(11) 0.00809 394.3 9.3
397(11) 0.00831 394.2 9.1
398(10) 0.00864 394.1 9.0
384(11) 0.00836 394.0 8.9
378(11) 0.00822 393.9 8.9
408(11) 0.00779 393.7 8.8
415(11) 0.00805 393.6 8.7
399(10) 0.00860 393.5 8.6
412(11) 0.00783 393.4 8.6
432(11) 0.00716 393.3 8.5
397(11) 0.00809 393.2 8.5
394(10) 0.00849 393.1 8.4
420(11) 0.00821 393.0 8.4
385(11) 0.00826 392.9 8.4
393(11) 0.00770 392.7 8.4
393(11) 0.00809 392.6 8.3
395(11) 0.00836 392.5 8.3
377(10) 0.00910 392.4 8.3
417(11) 0.00776 392.3 8.3
416(11) 0.00764 392.1 8.3
424(11) 0.00774 392.0 8.3
408(10) 0.00841 391.9 8.4
395(10) 0.00873 391.8 8.4
388(11) 0.00831 391.7 8.4
363(11) 0.00817 391.5 8.5
398(11) 0.00821 391.4 8.5
390(10) 0.00876 391.3 8.6
368(10) 0.00931 391.2 8.6
395(11) 0.00798 391.1 8.7
389(11) 0.00788 390.9 8.7
373(10) 0.00871 390.8 8.8
387(10) 0.00875 390.7 8.9
379(10) 0.00895 390.6 9.0
367(10) 0.00870 390.5 9.1
368(11) 0.00838 390.3 9.3
404(11) 0.00807 390.2 9.4
398(10) 0.00871 390.1 9.6
389(10) 0.00883 390.0 9.8
391(11) 0.00825 389.9 10.0
384(11) 0.00811 389.7 10.2
388(11) 0.00836 389.6 10.5
417(11) 0.00827 389.5 10.8
410(11) 0.00799 389.4 11.1
381(10) 0.00866 389.3 11.5
407(11) 0.00777 389.1 12.1
385(10) 0.00859 389.0 12.7
370(10) 0.00930 388.9 13.6
412(11) 0.00784 388.8 14.7
389(11) 0.00814 388.7 16.2
381(10) 0.00849 388.5 18.2
385(10) 0.00855 388.4 20.9
407(10) 0.00841 388.3 24.2
401(11) 0.00793 388.2 28.1
419(11) 0.00758 388.1 32.5
420(11) 0.00769 387.9 36.9
429(11) 0.00778 387.8 40.2
424(11) 0.00818 387.7 41.5
419(11) 0.00772 387.6 40.2
439(11) 0.00713 387.5 37.0
398(11) 0.00810 387.3 33.0
403(11) 0.00824 387.2 29.0
411(10) 0.00842 387.1 25.5
379(11) 0.00834 387.0 22.7
414(11) 0.00734 386.9 20.6
395(11) 0.00820 386.7 19.1
404(11) 0.00822 386.6 18.0
393(10) 0.00858 386.5 17.4
382(11) 0.00838 386.4 17.0
423(11) 0.00711 386.3 16.8
397(11) 0.00829 386.1 16.7
418(11) 0.00808 386.0 16.7
383(10) 0.00882 385.9 16.8
414(11) 0.00774 385.8 17.0
381(11) 0.00794 385.7 17.2
373(10) 0.00847 385.5 17.4
393(10) 0.00846 385.4 17.7
411(11) 0.00828 385.3 18.1
397(11) 0.00834 385.2 18.4
424(12) 0.00691 385.1 18.8
400(11) 0.00804 384.9 19.3
398(10) 0.00848 384.8 19.7
415(11) 0.00830 384.7 20.2
390(10) 0.00847 384.6 20.7
398(11) 0.00767 384.5 21.2
411(11) 0.00786 384.3 21.8
410(10) 0.00844 384.2 22.3
416(11) 0.00797 384.1 22.9
412(11) 0.00771 384.0 23.6
415(11) 0.00755 383.9 24.2
424(11) 0.00746 383.7 24.9
386(10) 0.00898 383.6 25.6
400(11) 0.00830 383.5 26.3
423(11) 0.00744 383.4 27.0
407(11) 0.00774 383.3 27.7
405(11) 0.00816 383.1 28.5
404(10) 0.00845 383.0 29.3
425(11) 0.00781 382.9 30.1
428(11) 0.00751 382.8 30.9
393(11) 0.00797 382.7 31.7
411(11) 0.00800 382.5 32.6
412(11) 0.00837 382.4 33.5
379(10) 0.00874 382.3 34.4
441(12) 0.00702 382.2 35.3
398(11) 0.00823 382.1 36.3
392(10) 0.00850 381.9 37.3
430(11) 0.00804 381.8 38.3
415(11) 0.00784 381.7 39.5
398(11) 0.00787 381.6 40.6
420(11) 0.00786 381.5 41.9
392(10) 0.00856 381.3 43.3
416(11) 0.00834 381.2 44.7
431(11) 0.00724 381.1 46.3
425(11) 0.00748 381.0 48.0
443(11) 0.00727 380.9 49.8
430(11) 0.00786 380.7 51.8
448(11) 0.00766 380.6 53.9
471(12) 0.00687 380.5 56.2
444(12) 0.00690 380.4 58.6
429(11) 0.00763 380.3 61.2
443(11) 0.00759 380.1 63.8
470(11) 0.00734 380.0 66.4
460(12) 0.00703 379.9 68.9
447(12) 0.00692 379.8 71.3
490(12) 0.00667 379.7 73.4
486(12) 0.00698 379.5 75.0
469(11) 0.00743 379.4 76.2
477(12) 0.00667 379.3 76.7
460(12) 0.00671 379.2 76.6
435(11) 0.00760 379.0 75.8
419(11) 0.00822 378.9 74.4
441(11) 0.00776 378.8 72.6
418(11) 0.00781 378.7 70.3
464(12) 0.00673 378.6 67.9
458(11) 0.00725 378.4 65.2
464(11) 0.00751 378.3 62.5
448(11) 0.00757 378.2 59.9
448(11) 0.00709 378.1 57.4
429(11) 0.00716 378.0 55.0
412(11) 0.00794 377.8 52.8
410(10) 0.00842 377.7 50.8
406(11) 0.00828 377.6 49.0
435(11) 0.00734 377.5 47.4
427(11) 0.00717 377.4 45.9
399(11) 0.00805 377.2 44.7
428(11) 0.00806 377.1 43.7
429(11) 0.00779 377.0 42.8
417(11) 0.00746 376.9 42.1
400(11) 0.00779 376.8 41.6
420(11) 0.00772 376.6 41.2
419(11) 0.00820 376.5 41.0
418(11) 0.00778 376.4 40.9
430(11) 0.00748 376.3 40.9
430(11) 0.00751 376.2 41.1
420(11) 0.00794 376.0 41.4
434(11) 0.00795 375.9 41.9
429(11) 0.00766 375.8 42.5
408(11) 0.00790 375.7 43.2
406(11) 0.00772 375.6 44.1
395(10) 0.00853 375.4 45.2
425(11) 0.00814 375.3 46.4
413(11) 0.00779 375.2 47.8
433(11) 0.00712 375.1 49.3
423(11) 0.00758 375.0 51.1
414(11) 0.00794 374.8 53.0
436(11) 0.00793 374.7 55.2
447(11) 0.00724 374.6 57.6
399(11) 0.00782 374.5 60.4
445(12) 0.00706 374.4 63.4
434(11) 0.00784 374.2 66.8
441(11) 0.00780 374.1 70.5
439(11) 0.00752 374.0 74.7
430(11) 0.00724 373.9 79.3
463(12) 0.00697 373.8 84.5
459(11) 0.00738 373.6 90.3
435(11) 0.00803 373.5 96.7
447(11) 0.00732 373.4 103.8
483(12) 0.00609 373.3 111.8
483(12) 0.00671 373.2 120.6
482(11) 0.00716 373.0 130.4
490(12) 0.00704 372.9 141.2
510(12) 0.00642 372.8 153.2
519(13) 0.00600 372.7 166.3
547(12) 0.00610 372.6 180.7
572(12) 0.00617 372.4 196.3
578(13) 0.00601 372.3 213.1
607(13) 0.00545 372.2 230.9
633(14) 0.00502 372.1 249.4
648(14) 0.00508 372.0 268.2
705(14) 0.00505 371.8 286.8
705(14) 0.00496 371.7 304.3
731(15) 0.00446 371.6 319.9
679(14) 0.00469 371.5 332.7
669(14) 0.00488 371.4 341.8
667(13) 0.00531 371.2 346.5
670(13) 0.00527 371.1 346.4
683(14) 0.00484 371.0 341.8
624(14) 0.00508 370.9 333.1
622(13) 0.00531 370.8 321.0
618(13) 0.00570 370.6 306.5
575(13) 0.00588 370.5 290.6
567(13) 0.00579 370.4 274.2
581(13) 0.00556 370.3 257.9
539(12) 0.00619 370.2 242.4
578(12) 0.00606 370.0 227.9
569(13) 0.00587 369.9 214.9
516(12) 0.00633 369.8 203.3
530(13) 0.00601 369.7 193.2
537(12) 0.00633 369.6 184.6
538(12) 0.00651 369.4 177.3
524(12) 0.00630 369.3 171.2
517(13) 0.00603 369.2 165.9
550(13) 0.00571 369.1 161.1
536(12) 0.00634 369.0 156.5
498(12) 0.00704 368.8 151.7
494(12) 0.00659 368.7 146.3
503(12) 0.00610 368.6 140.3
512(12) 0.00642 368.5 133.5
467(11) 0.00726 368.4 126.2
467(11) 0.00744 368.2 118.5
481(12) 0.00662 368.1 110.6
464(12) 0.00666 368.0 102.9
469(11) 0.00716 367.9 95.5
458(11) 0.00762 367.8 88.5
492(12) 0.00702 367.6 82.0
439(11) 0.00743 367.5 76.0
440(12) 0.00676 367.4 70.5
444(12) 0.00708 367.3 65.5
423(11) 0.00813 367.2 61.0
442(11) 0.00768 367.0 56.9
443(11) 0.00714 366.9 53.2
422(11) 0.00716 366.8 49.8
409(11) 0.00802 366.7 46.8
401(10) 0.00859 366.6 44.1
409(11) 0.00833 366.4 41.6
398(11) 0.00813 366.3 39.3
401(11) 0.00757 366.2 37.2
398(11) 0.00799 366.1 35.3
405(10) 0.00849 366.0 33.6
382(10) 0.00893 365.8 32.0
394(11) 0.00807 365.7 30.5
409(11) 0.00759 365.6 29.1
402(11) 0.00811 365.5 27.9
404(10) 0.00841 365.4 26.7
392(10) 0.00859 365.2 25.6
375(10) 0.00873 365.1 24.6
411(11) 0.00774 365.0 23.7
380(11) 0.00837 364.9 22.8
376(10) 0.00903 364.8 22.0
383(10) 0.00879 364.6 21.2
389(11) 0.00816 364.5 20.5
361(10) 0.00887 364.4 19.8
384(11) 0.00829 364.3 19.2
415(11) 0.00829 364.2 18.6
420(11) 0.00769 364.0 18.0
379(11) 0.00810 363.9 17.5
370(10) 0.00854 363.8 17.0
370(10) 0.00872 363.7 16.5
405(10) 0.00858 363.6 16.0
380(10) 0.00860 363.4 15.6
364(11) 0.00826 363.3 15.2
374(11) 0.00836 363.2 14.8
391(10) 0.00855 363.1 14.4
385(10) 0.00898 363.0 14.1
372(10) 0.00860 362.8 13.8
364(10) 0.00845 362.7 13.5
377(10) 0.00863 362.6 13.2
385(10) 0.00865 362.5 12.9
394(10) 0.00870 362.4 12.7
358(10) 0.00884 362.2 12.4
340(10) 0.00902 362.1 12.2
388(11) 0.00829 362.0 12.0
353(10) 0.00964 361.9 11.8
365(10) 0.00924 361.8 11.6
355(10) 0.00915 361.6 11.4
389(11) 0.00765 361.5 11.3
378(11) 0.00831 361.4 11.1
351(10) 0.00964 361.3 11.0
381(10) 0.00880 361.2 10.9
358(10) 0.00890 361.0 10.8
391(11) 0.00779 360.9 10.7
375(10) 0.00904 360.8 10.6
341(10) 0.00971 360.7 10.5
366(10) 0.00938 360.6 10.5
366(10) 0.00872 360.4 10.5
374(11) 0.00798 360.3 10.5
358(10) 0.00896 360.2 10.5
360(10) 0.00945 360.1 10.5
372(10) 0.00890 360.0 10.5
344(10) 0.00931 359.8 10.6
353(10) 0.00876 359.7 10.7
377(11) 0.00834 359.6 10.8
356(10) 0.00954 359.5 10.9
369(10) 0.00873 359.4 11.1
378(10) 0.00858 359.2 11.3
390(11) 0.00799 359.1 11.5
354(10) 0.00914 359.0 11.8
373(10) 0.00915 358.9 12.1
360(10) 0.00903 358.8 12.4
387(11) 0.00811 358.6 12.7
374(10) 0.00854 358.5 13.1
376(10) 0.00866 358.4 13.5
351(10) 0.00965 358.3 13.9
353(10) 0.00940 358.2 14.3
350(10) 0.00894 358.0 14.7
372(10) 0.00860 357.9 15.0
365(10) 0.00907 357.8 15.4
373(10) 0.00916 357.7 15.6
375(10) 0.00848 357.6 15.8
363(10) 0.00840 357.4 15.9
341(10) 0.00906 357.3 15.9
332(10) 0.00979 357.2 15.7
375(10) 0.00909 357.1 15.5
358(10) 0.00896 357.0 15.2
353(10) 0.00879 356.8 14.8
347(10) 0.00909 356.7 14.3
349(10) 0.00953 356.6 13.8
338(10) 0.01002 356.5 13.3
334(10) 0.00953 356.4 12.7
368(11) 0.00830 356.2 12.2
374(10) 0.00892 356.1 11.7
380(10) 0.00882 356.0 11.2
343(10) 0.00988 355.9 10.7
355(10) 0.00899 355.8 10.2
327(10) 0.00915 355.6 9.8
340(10) 0.00948 355.5 9.4
377(10) 0.00898 355.4 9.1
353(10) 0.00944 355.3 8.7
366(10) 0.00855 355.2 8.4
352(10) 0.00839 355.0 8.1
349(10) 0.00915 354.9 7.8
361(10) 0.00937 354.8 7.6
387(10) 0.00885 354.7 7.4
367(10) 0.00870 354.6 7.2
358(11) 0.00835 354.4 7.0
351(10) 0.00919 354.3 6.8
368(10) 0.00924 354.2 6.6
359(10) 0.00927 354.1 6.5
366(10) 0.00853 354.0 6.3
355(10) 0.00876 353.8 6.2
327(10) 0.00990 353.7 6.1
360(10) 0.00937 353.6 6.0
359(10) 0.00918 353.5 5.9
349(10) 0.00915 353.4 5.8
355(10) 0.00844 353.2 5.7
347(10) 0.00904 353.1 5.6
353(10) 0.00964 353.0 5.5
346(10) 0.00957 352.9 5.5
350(10) 0.00916 352.8 5.4
341(10) 0.00913 352.6 5.3
350(10) 0.00903 352.5 5.3
369(10) 0.00926 352.4 5.2
348(10) 0.00962 352.3 5.2
361(10) 0.00862 352.2 5.2
346(10) 0.00895 352.0 5.1
340(10) 0.00960 351.9 5.1
377(10) 0.00904 351.8 5.1
362(10) 0.00899 351.7 5.0
348(10) 0.00868 351.6 5.0
349(10) 0.00910 351.4 5.0
371(10) 0.00909 351.3 5.0
385(10) 0.00885 351.2 5.0
390(11) 0.00808 351.1 5.0
357(10) 0.00869 350.9 5.0
351(10) 0.00905 350.8 5.0
365(10) 0.00886 350.7 5.0
332(9) 0.01028 350.6 5.0
352(10) 0.00896 350.5 5.0
319(10) 0.00977 350.3 5.0
355(10) 0.00873 350.2 5.0
325(9) 0.01029 350.1 5.0
336(10) 0.01000 350.0 5.0
358(10) 0.00882 349.9 5.1
354(10) 0.00860 349.7 5.1
356(10) 0.00901 349.6 5.1
349(10) 0.00968 349.5 5.2
334(9) 0.01019 349.4 5.2
319(10) 0.00997 349.3 5.3
377(11) 0.00762 349.1 5.3
354(10) 0.00890 349.0 5.4
345(10) 0.00977 348.9 5.4
353(10) 0.00961 348.8 5.5
367(10) 0.00892 348.7 5.6
380(11) 0.00783 348.5 5.6
348(10) 0.00927 348.4 5.7
348(10) 0.00972 348.3 5.8
370(10) 0.00905 348.2 5.9
366(10) 0.00879 348.1 6.0
353(10) 0.00851 347.9 6.1
363(10) 0.00866 347.8 6.3
370(10) 0.00918 347.7 6.4
344(10) 0.00984 347.6 6.5
376(10) 0.00851 347.5 6.7
365(10) 0.00856 347.3 6.9
366(10) 0.00868 347.2 7.0
316(9) 0.01058 347.1 7.3
364(10) 0.00904 347.0 7.5
353(10) 0.00925 346.9 7.7
338(10) 0.00928 346.7 7.9
349(10) 0.00898 346.6 8.2
362(10) 0.00941 346.5 8.5
364(10) 0.00892 346.4 8.8
354(10) 0.00922 346.3 9.1
343(10) 0.00940 346.1 9.4
362(10) 0.00904 346.0 9.8
353(10) 0.00973 345.9 10.2
366(10) 0.00873 345.8 10.6
336(10) 0.00924 345.7 11.1
331(10) 0.00957 345.5 11.6
372(10) 0.00888 345.4 12.1
385(10) 0.00886 345.3 12.7
347(10) 0.00924 345.2 13.3
347(10) 0.00864 345.1 14.0
362(10) 0.00877 344.9 14.6
381(10) 0.00861 344.8 15.4
363(10) 0.00931 344.7 16.1
394(11) 0.00800 344.6 17.0
350(10) 0.00871 344.5 17.8
360(10) 0.00868 344.3 18.7
359(10) 0.00928 344.2 19.6
368(10) 0.00923 344.1 20.5
386(11) 0.00817 344.0 21.4
337(10) 0.00919 343.9 22.2
354(10) 0.00900 343.7 23.1
353(10) 0.00955 343.6 23.9
368(10) 0.00918 343.5 24.6
373(10) 0.00873 343.4 25.2
366(11) 0.00790 343.3 25.7
352(10) 0.00897 343.1 26.0
372(10) 0.00910 343.0 26.2
355(10) 0.00948 342.9 26.2
364(10) 0.00875 342.8 26.1
354(10) 0.00851 342.7 25.8
374(10) 0.00848 342.5 25.4
366(10) 0.00938 342.4 24.8
369(10) 0.00916 342.3 24.2
400(11) 0.00761 342.2 23.4
353(10) 0.00877 342.1 22.6
388(11) 0.00811 341.9 21.8
349(10) 0.00976 341.8 20.9
360(10) 0.00928 341.7 20.0
402(11) 0.00783 341.6 19.1
332(10) 0.00961 341.5 18.3
376(11) 0.00837 341.3 17.5
378(10) 0.00898 341.2 16.7
348(10) 0.00924 341.1 15.9
354(10) 0.00884 341.0 15.2
329(10) 0.00954 340.9 14.5
355(10) 0.00894 340.7 13.9
352(10) 0.00958 340.6 13.3
341(10) 0.00972 340.5 12.7
340(10) 0.00940 340.4 12.2
343(10) 0.00926 340.3 11.8
363(10) 0.00880 340.1 11.3
334(9) 0.01009 340.0 10.9
342(10) 0.00938 339.9 10.5
336(10) 0.00951 339.8 10.2
352(10) 0.00893 339.7 9.9
336(10) 0.00989 339.5 9.6
362(10) 0.00941 339.4 9.4
363(10) 0.00902 339.3 9.1
345(10) 0.00925 339.2 8.9
339(10) 0.00946 339.1 8.7
325(9) 0.01023 338.9 8.5
342(10) 0.01000 338.8 8.4
343(10) 0.00893 338.7 8.3
347(10) 0.00889 338.6 8.1
333(10) 0.00955 338.5 8.0
347(10) 0.00969 338.3 7.9
326(9) 0.01027 338.2 7.9
345(10) 0.00888 338.1 7.8
340(10) 0.00898 338.0 7.7
356(10) 0.00901 337.9 7.7
355(10) 0.00922 337.7 7.7
339(10) 0.00982 337.6 7.7
328(10) 0.00989 337.5 7.7
306(10) 0.00973 337.4 7.7
355(10) 0.00882 337.3 7.7
350(10) 0.00968 337.1 7.7
331(9) 0.01027 337.0 7.7
340(10) 0.00924 336.9 7.8
362(10) 0.00839 336.8 7.8
362(10) 0.00904 336.7 7.8
340(10) 0.00980 336.5 7.9
341(10) 0.00985 336.4 7.9
363(10) 0.00879 336.3 8.0
373(11) 0.00794 336.2 8.1
342(10) 0.00933 336.1 8.1
378(10) 0.00906 335.9 8.2
349(10) 0.00962 335.8 8.2
341(10) 0.00949 335.7 8.3
341(10) 0.00906 335.6 8.3
337(10) 0.00923 335.5 8.4
358(10) 0.00952 335.3 8.4
325(9) 0.01039 335.2 8.4
350(10) 0.00894 335.1 8.5
341(10) 0.00901 335.0 8.5
325(10) 0.00969 334.9 8.5
323(9) 0.01037 334.7 8.4
321(9) 0.01025 334.6 8.4
337(10) 0.00936 334.5 8.4
345(10) 0.00904 334.4 8.3
346(10) 0.00939 334.3 8.3
346(10) 0.00964 334.1 8.2
350(10) 0.00939 334.0 8.1
327(10) 0.00968 333.9 8.0
342(10) 0.00886 333.8 7.9
350(10) 0.00905 333.7 7.8
337(10) 0.01000 333.5 7.6
357(10) 0.00916 333.4 7.5
360(10) 0.00868 333.3 7.4
347(10) 0.00908 333.2 7.2
347(10) 0.00936 333.1 7.1
336(9) 0.01013 332.9 6.9
354(10) 0.00876 332.8 6.8
314(10) 0.01004 332.7 6.6
333(10) 0.00942 332.6 6.5
330(10) 0.01006 332.5 6.3
343(10) 0.00991 332.3 6.2
352(10) 0.00902 332.2 6.0
337(10) 0.00927 332.1 5.9
333(10) 0.00957 332.0 5.7
325(9) 0.01013 331.9 5.6
337(10) 0.00998 331.7 5.5
343(10) 0.00917 331.6 5.3
328(10) 0.00910 331.5 5.2
341(10) 0.00910 331.4 5.1
341(10) 0.00987 331.3 5.0
340(10) 0.00990 331.1 4.8
349(10) 0.00863 331.0 4.7
324(10) 0.00903 330.9 4.6
352(10) 0.00886 330.8 4.5
336(9) 0.01011 330.7 4.4
328(9) 0.01026 330.5 4.3
333(10) 0.00941 330.4 4.2
333(10) 0.00874 330.3 4.1
338(10) 0.00927 330.2 4.0
325(9) 0.01029 330.1 4.0
354(10) 0.00934 329.9 3.9
336(10) 0.00938 329.8 3.8
335(10) 0.00913 329.7 3.7
338(10) 0.00924 329.6 3.7
349(10) 0.00972 329.5 3.6
332(10) 0.00989 329.3 3.5
320(10) 0.00996 329.2 3.5
324(10) 0.00951 329.1 3.4
332(10) 0.00954 329.0 3.3
340(10) 0.00999 328.9 3.3
315(9) 0.01057 328.7 3.2
351(10) 0.00909 328.6 3.2
328(10) 0.00953 328.5 3.1
335(10) 0.00932 328.4 3.1
337(10) 0.01004 328.3 3.0
334(10) 0.00957 328.1 3.0
334(10) 0.00935 328.0 3.0
319(10) 0.00977 327.9 2.9
339(10) 0.00928 327.8 2.9
316(9) 0.01055 327.7 2.8
327(10) 0.00956 327.5 2.8
319(9) 0.01011 327.4 2.8
340(10) 0.00922 327.3 2.7
334(10) 0.00977 327.2 2.7
337(10) 0.01003 327.1 2.7
337(10) 0.00928 326.9 2.7
332(10) 0.00915 326.8 2.6
343(10) 0.00923 326.7 2.6
341(10) 0.00996 326.6 2.6
355(10) 0.00948 326.5 2.5
319(10) 0.00987 326.3 2.5
336(10) 0.00894 326.2 2.5
334(10) 0.00968 326.1 2.5
344(10) 0.00954 326.0 2.5
352(10) 0.00961 325.9 2.4
343(10) 0.00896 325.7 2.4
314(10) 0.00950 325.6 2.4
325(10) 0.00967 325.5 2.4
322(9) 0.01034 325.4 2.4
329(9) 0.01041 325.3 2.4
346(10) 0.00916 325.1 2.3
336(10) 0.00901 325.0 2.3
357(10) 0.00875 324.9 2.3
317(9) 0.01054 324.8 2.3
326(9) 0.01053 324.7 2.3
344(10) 0.00939 324.5 2.3
340(10) 0.00872 324.4 2.3
329(10) 0.00974 324.3 2.3
316(9) 0.01059 324.2 2.2
309(9) 0.01073 324.1 2.2
343(10) 0.00938 323.9 2.2
307(10) 0.00980 323.8 2.2
302(9) 0.01040 323.7 2.2
335(10) 0.01001 323.6 2.2
341(10) 0.00972 323.5 2.2
329(10) 0.00960 323.4 2.2
311(10) 0.00988 323.4 2.2
315(9) 0.01021 323.3 2.2
325(9) 0.01027 323.3 2.2
326(10) 0.00998 323.2 2.2
313(10) 0.01005 323.1 2.2
340(10) 0.00902 323.1 2.2
330(10) 0.00962 323.0 2.2
357(10) 0.00941 322.9 2.2
371(10) 0.00861 322.9 2.2
334(10) 0.00923 322.8 2.2
330(10) 0.00926 322.7 2.2
294(9) 0.01067 322.7 2.2
319(9) 0.01052 322.6 2.2
324(10) 0.01005 322.6 2.2
320(10) 0.00958 322.5 2.2
328(10) 0.00912 322.4 2.2
322(10) 0.00996 322.4 2.2
332(9) 0.01017 322.3 2.2
321(10) 0.00977 322.2 2.2
314(9) 0.01008 322.2 2.2
354(10) 0.00869 322.1 2.3
340(10) 0.00951 322.1 2.3
306(9) 0.01096 322.0 2.3
274(9) 0.01134 321.9 2.3
330(10) 0.00895 321.9 2.3
348(10) 0.00903 321.8 2.3
338(10) 0.00979 321.7 2.3
329(9) 0.01012 321.7 2.4
327(10) 0.00970 321.6 2.4
321(10) 0.00947 321.6 2.4
340(10) 0.00926 321.5 2.4
326(9) 0.01022 321.4 2.5
338(10) 0.00990 321.4 2.5
326(10) 0.00990 321.3 2.5
311(10) 0.00958 321.2 2.6
334(10) 0.00953 321.2 2.6
298(9) 0.01121 321.1 2.6
302(9) 0.01084 321.0 2.7
324(10) 0.00995 321.0 2.7
318(10) 0.00928 320.9 2.8
339(10) 0.00925 320.9 2.8
322(9) 0.01045 320.8 2.9
318(9) 0.01053 320.7 3.0
328(10) 0.00948 320.7 3.0
322(10) 0.00920 320.6 3.1
303(9) 0.01029 320.5 3.2
298(9) 0.01122 320.5 3.3
325(9) 0.01037 320.4 3.4
293(9) 0.01108 320.4 3.5
316(10) 0.00964 320.3 3.7
326(10) 0.00957 320.2 3.8
326(9) 0.01033 320.2 4.0
349(10) 0.00934 320.1 4.1
322(10) 0.00957 320.0 4.3
304(10) 0.00995 320.0 4.6
309(9) 0.01029 319.9 4.8
329(9) 0.01032 319.8 5.1
313(9) 0.01032 319.8 5.4
324(10) 0.00973 319.7 5.8
355(10) 0.00892 319.7 6.3
357(10) 0.00906 319.6 6.8
314(9) 0.01083 319.5 7.5
332(10) 0.00950 319.5 8.2
321(10) 0.00950 319.4 9.1
312(10) 0.00996 319.3 10.2
320(10) 0.00988 319.3 11.4
337(10) 0.01007 319.2 12.9
327(10) 0.00977 319.2 14.7
319(10) 0.00978 319.1 16.7
335(10) 0.00941 319.0 18.9
349(10) 0.00956 319.0 21.4
336(10) 0.01004 318.9 23.9
344(10) 0.00917 318.8 26.4
360(10) 0.00867 318.8 28.3
336(10) 0.00957 318.7 29.6
323(9) 0.01017 318.6 29.8
329(9) 0.01034 318.6 29.0
345(10) 0.00953 318.5 27.3
353(10) 0.00872 318.5 25.1
341(10) 0.00941 318.4 22.6
344(10) 0.00963 318.3 20.1
339(9) 0.01009 318.3 17.9
333(10) 0.00942 318.2 15.8
307(10) 0.00976 318.1 14.1
331(10) 0.00953 318.1 12.6
348(10) 0.00964 318.0 11.3
325(9) 0.01049 318.0 10.2
335(10) 0.00963 317.9 9.3
339(10) 0.00843 317.8 8.6
309(9) 0.01040 317.8 8.0
337(10) 0.00996 317.7 7.5
331(10) 0.00994 317.6 7.1
334(10) 0.00922 317.6 6.8
311(10) 0.00944 317.5 6.5
326(10) 0.00975 317.4 6.2
326(9) 0.01045 317.4 6.1
328(9) 0.01012 317.3 5.9
344(10) 0.00937 317.3 5.8
350(10) 0.00847 317.2 5.6
314(10) 0.00983 317.1 5.6
321(9) 0.01053 317.1 5.5
324(9) 0.01025 317.0 5.4
336(10) 0.00955 316.9 5.4
334(10) 0.00919 316.9 5.3
323(10) 0.00976 316.8 5.3
314(9) 0.01072 316.8 5.3
323(10) 0.00997 316.7 5.3
302(9) 0.01046 316.6 5.3
327(10) 0.00918 316.6 5.3
319(10) 0.00975 316.5 5.3
311(9) 0.01083 316.4 5.3
315(9) 0.01030 316.4 5.4
334(10) 0.00925 316.3 5.5
310(10) 0.00953 316.2 5.5
330(10) 0.00980 316.2 5.6
312(9) 0.01070 316.1 5.8
326(10) 0.00986 316.1 5.9
313(9) 0.01023 316.0 6.1
340(10) 0.00910 315.9 6.2
336(10) 0.00981 315.9 6.4
330(9) 0.01024 315.8 6.6
318(9) 0.01014 315.7 6.8
311(9) 0.01023 315.7 7.0
346(10) 0.00919 315.6 7.1
326(9) 0.01016 315.6 7.1
299(9) 0.01119 315.5 7.1
289(9) 0.01134 315.4 7.0
319(10) 0.00931 315.4 6.8
305(10) 0.01005 315.3 6.6
330(10) 0.00989 315.2 6.4
316(9) 0.01052 315.2 6.2
308(9) 0.01041 315.1 5.9
306(10) 0.01002 315.0 5.7
326(10) 0.00990 315.0 5.6
330(9) 0.01023 314.9 5.4
302(9) 0.01097 314.9 5.3
316(9) 0.01030 314.8 5.2
320(10) 0.00943 314.7 5.1
321(10) 0.01003 314.7 5.0
309(9) 0.01089 314.6 5.0
311(9) 0.01077 314.5 4.9
313(10) 0.01004 314.5 4.9
301(10) 0.00961 314.4 4.9
302(9) 0.01056 314.4 4.9
300(9) 0.01118 314.3 4.9
301(9) 0.01104 314.2 4.9
299(9) 0.01062 314.2 5.0
305(10) 0.00980 314.1 5.0
300(9) 0.01071 314.0 5.1
314(9) 0.01069 314.0 5.1
293(9) 0.01127 313.9 5.2
309(10) 0.01001 313.8 5.3
313(10) 0.00946 313.8 5.3
315(10) 0.00988 313.7 5.4
303(9) 0.01112 313.7 5.5
320(9) 0.01018 313.6 5.6
340(10) 0.00907 313.5 5.8
300(9) 0.01009 313.5 5.9
313(10) 0.00970 313.4 6.0
308(9) 0.01098 313.3 6.1
337(10) 0.00963 313.3 6.3
325(10) 0.00960 313.2 6.5
328(10) 0.00912 313.2 6.6
309(9) 0.01052 313.1 6.8
344(10) 0.00980 313.0 7.0
329(10) 0.00980 313.0 7.2
310(9) 0.01019 312.9 7.4
298(9) 0.01090 312.8 7.6
320(9) 0.01039 312.8 7.8
333(9) 0.01012 312.7 8.0
333(10) 0.00965 312.6 8.2
320(10) 0.00955 312.6 8.5
299(9) 0.01052 312.5 8.7
315(9) 0.01054 312.5 9.0
323(9) 0.01050 312.4 9.2
308(9) 0.01044 312.3 9.5
311(10) 0.00993 312.3 9.8
340(10) 0.00900 312.2 10.1
307(9) 0.01086 312.1 10.3
320(9) 0.01038 312.1 10.6
314(10) 0.00989 312.0 10.9
310(10) 0.00996 312.0 11.1
330(10) 0.00997 311.9 11.4
347(10) 0.00969 311.8 11.6
307(9) 0.01110 311.8 11.9
313(10) 0.00997 311.7 12.1
317(10) 0.00924 311.6 12.3
332(10) 0.00935 311.6 12.5
326(9) 0.01021 311.5 12.6
319(9) 0.01056 311.4 12.7
337(10) 0.00952 311.4 12.8
299(9) 0.01009 311.3 12.9
326(10) 0.00944 311.3 13.0
319(9) 0.01067 311.2 13.0
329(10) 0.00987 311.1 13.0
316(10) 0.00970 311.1 13.0
305(10) 0.00995 311.0 12.9
336(10) 0.00926 310.9 12.9
322(9) 0.01033 310.9 12.8
316(9) 0.01062 310.8 12.7
315(10) 0.00958 310.8 12.6
313(10) 0.00966 310.7 12.4
320(10) 0.00988 310.6 12.3
336(10) 0.00998 310.6 12.2
340(10) 0.00941 310.5 12.1
306(9) 0.01048 310.4 11.9
326(10) 0.00923 310.4 11.8
312(9) 0.01025 310.3 11.7
298(9) 0.01114 310.3 11.6
324(10) 0.00992 310.2 11.5
308(9) 0.01013 310.1 11.4
325(10) 0.00943 310.1 11.3
308(9) 0.01060 310.0 11.3
325(9) 0.01036 309.9 11.3
304(9) 0.01042 309.9 11.2
292(9) 0.01078 309.8 11.2
310(9) 0.01036 309.7 11.3
332(10) 0.01003 309.7 11.3
361(10) 0.00943 309.6 11.4
341(10) 0.00952 309.6 11.5
306(9) 0.01018 309.5 11.6
306(9) 0.01028 309.4 11.7
304(9) 0.01059 309.4 11.9
330(9) 0.01029 309.3 12.1
311(9) 0.01018 309.2 12.3
337(10) 0.00909 309.2 12.6
330(10) 0.00948 309.1 12.9
316(9) 0.01074 309.1 13.2
329(9) 0.01022 309.0 13.6
315(10) 0.01004 308.9 14.0
317(10) 0.00943 308.9 14.4
337(10) 0.00928 308.8 14.9
327(9) 0.01037 308.7 15.4
306(9) 0.01091 308.7 15.9
315(9) 0.01020 308.6 16.4
330(10) 0.00913 308.5 17.0
363(10) 0.00883 308.5 17.6
374(10) 0.00907 308.4 18.3
324(9) 0.01019 308.4 18.9
341(10) 0.00906 308.3 19.5
341(10) 0.00899 308.2 20.2
349(10) 0.00939 308.2 20.8
371(10) 0.00914 308.1 21.4
348(10) 0.00954 308.0 21.9
340(10) 0.00944 308.0 22.4
362(11) 0.00820 307.9 22.8
339(10) 0.00944 307.9 23.1
364(10) 0.00944 307.8 23.3
375(10) 0.00872 307.7 23.4
348(10) 0.00904 307.7 23.4
353(10) 0.00863 307.6 23.2
340(10) 0.00932 307.5 23.0
361(10) 0.00935 307.5 22.6
338(10) 0.00976 307.4 22.2
308(10) 0.01002 307.3 21.7
334(10) 0.00928 307.3 21.1
341(10) 0.00944 307.2 20.4
323(9) 0.01056 307.2 19.8
324(9) 0.01012 307.1 19.0
328(10) 0.00976 307.0 18.3
366(10) 0.00841 307.0 17.6
355(10) 0.00922 306.9 16.9
315(9) 0.01073 306.8 16.1
318(9) 0.01017 306.8 15.4
315(10) 0.01004 306.7 14.8
306(9) 0.01021 306.7 14.1
323(10) 0.01001 306.6 13.5
335(9) 0.01008 306.5 12.9
318(9) 0.01010 306.5 12.3
346(10) 0.00916 306.4 11.8
329(10) 0.00984 306.3 11.3
314(9) 0.01065 306.3 10.8
317(9) 0.01065 306.2 10.4
347(10) 0.00889 306.1 10.0
325(10) 0.00930 306.1 9.6
320(9) 0.01009 306.0 9.2
312(9) 0.01049 306.0 8.9
300(9) 0.01125 305.9 8.6
326(10) 0.00956 305.8 8.3
325(10) 0.00937 305.8 8.0
318(10) 0.00966 305.7 7.7
305(9) 0.01092 305.6 7.5
305(9) 0.01086 305.6 7.3
315(10) 0.00972 305.5 7.0
319(10) 0.00919 305.5 6.9
314(10) 0.00985 305.4 6.7
301(9) 0.01092 305.3 6.5
326(9) 0.01032 305.3 6.4
326(10) 0.00964 305.2 6.2
310(10) 0.00943 305.1 6.1
327(10) 0.00949 305.1 6.0
305(9) 0.01088 305.0 5.9
307(9) 0.01103 304.9 5.8
306(9) 0.01065 304.9 5.7
316(10) 0.00947 304.8 5.6
318(10) 0.00997 304.8 5.5
323(9) 0.01035 304.7 5.5
304(9) 0.01097 304.6 5.4
319(10) 0.00985 304.6 5.4
284(9) 0.01052 304.5 5.3
306(10) 0.00994 304.4 5.3
345(10) 0.00991 304.4 5.3
319(9) 0.01052 304.3 5.3
327(10) 0.00964 304.3 5.2
286(9) 0.01103 304.2 5.2
301(9) 0.01037 304.1 5.2
284(9) 0.01168 304.1 5.2
318(9) 0.01032 304.0 5.2
324(10) 0.00968 303.9 5.2
304(9) 0.01024 303.9 5.3
298(9) 0.01091 303.8 5.3
311(9) 0.01081 303.7 5.3
311(9) 0.01029 303.7 5.3
308(10) 0.01001 303.6 5.3
313(10) 0.00966 303.6 5.3
303(9) 0.01054 303.5 5.2
286(9) 0.01151 303.4 5.2
309(9) 0.01034 303.4 5.2
297(9) 0.01050 303.3 5.2
303(9) 0.01034 303.2 5.1
322(10) 0.00986 303.2 5.1
294(9) 0.01142 303.1 5.0
307(9) 0.01019 303.1 4.9
303(10) 0.00990 303.0 4.8
300(9) 0.01031 302.9 4.8
292(9) 0.01117 302.9 4.7
336(10) 0.01003 302.8 4.6
330(10) 0.01001 302.7 4.5
304(9) 0.01033 302.7 4.4
316(10) 0.00999 302.6 4.3
300(9) 0.01102 302.5 4.2
304(9) 0.01092 302.5 4.1
297(9) 0.01036 302.4 4.0
312(10) 0.00935 302.4 3.9
280(9) 0.01118 302.3 3.8
314(9) 0.01028 302.2 3.7
300(9) 0.01094 302.2 3.6
305(9) 0.01018 302.1 3.6
299(10) 0.00964 302.0 3.5
313(10) 0.01005 302.0 3.4
319(9) 0.01049 301.9 3.3
320(9) 0.01058 301.9 3.3
293(9) 0.01122 301.8 3.2
298(10) 0.00976 301.7 3.1
299(9) 0.01023 301.7 3.1
312(9) 0.01066 301.6 3.0
310(9) 0.01090 301.5 3.0
325(10) 0.00951 301.5 2.9
291(9) 0.01030 301.4 2.9
307(9) 0.01025 301.3 2.8
289(9) 0.01151 301.3 2.8
294(9) 0.01120 301.2 2.8
303(10) 0.01002 301.2 2.7
281(9) 0.01095 301.1 2.7
324(10) 0.00938 301.0 2.7
300(9) 0.01113 301.0 2.6
319(9) 0.01044 300.9 2.6
329(10) 0.00926 300.8 2.6
310(10) 0.00978 300.8 2.5
322(10) 0.00942 300.7 2.5
289(9) 0.01146 300.7 2.5
308(9) 0.01035 300.6 2.5
298(9) 0.01031 300.5 2.5
320(10) 0.00932 300.5 2.5
289(9) 0.01064 300.4 2.5
272(9) 0.01217 300.3 2.4
279(9) 0.01175 300.3 2.4
298(9) 0.01028 300.2 2.4
288(9) 0.01070 300.2 2.4
289(9) 0.01123 300.1 2.4
295(9) 0.01129 300.0 2.4
302(9) 0.01017 300.0 2.4
312(10) 0.00946 299.9 2.4
305(9) 0.01014 299.8 2.4
302(9) 0.01093 299.8 2.5
294(9) 0.01128 299.7 2.5
321(9) 0.01009 299.6 2.5
306(10) 0.00971 299.6 2.5
315(10) 0.00999 299.5 2.5
289(9) 0.01123 299.5 2.5
312(9) 0.01080 299.4 2.5
318(9) 0.01015 299.3 2.5
308(10) 0.00976 299.3 2.4
299(9) 0.01013 299.2 2.4
277(9) 0.01159 299.1 2.4
281(9) 0.01181 299.1 2.4
321(10) 0.00952 299.0 2.3
275(9) 0.01084 299.0 2.3
294(9) 0.01064 298.9 2.3
298(9) 0.01130 298.8 2.2
304(9) 0.01106 298.8 2.2
308(9) 0.01043 298.7 2.2
283(9) 0.01036 298.6 2.2
301(9) 0.01048 298.6 2.1
277(9) 0.01202 298.5 2.1
306(9) 0.01063 298.4 2.1
276(9) 0.01148 298.4 2.1
307(10) 0.00940 298.3 2.1
291(9) 0.01076 298.3 2.1
288(9) 0.01150 298.2 2.0
303(9) 0.01094 298.1 2.0
292(9) 0.01098 298.1 2.0
273(9) 0.01125 298.0 2.0
276(9) 0.01138 297.9 2.0
281(9) 0.01192 297.9 2.0
309(9) 0.01035 297.8 2.0
286(9) 0.01084 297.8 2.0
288(9) 0.01069 297.7 2.0
306(9) 0.01033 297.6 2.0
298(9) 0.01113 297.6 2.0
283(9) 0.01136 297.5 2.0
310(10) 0.00992 297.4 2.0
262(9) 0.01196 297.4 2.0
322(10) 0.00971 297.3 1.9
289(9) 0.01154 297.2 1.9
308(9) 0.01032 297.2 1.9
310(9) 0.01023 297.1 1.9
282(9) 0.01089 297.1 1.9
279(9) 0.01146 297.0 1.9
313(9) 0.01066 296.9 1.9
286(9) 0.01082 296.9 1.9
292(9) 0.01013 296.8 1.9
318(10) 0.00994 296.7 1.9
321(9) 0.01036 296.7 1.9
308(9) 0.01084 296.6 1.9
287(9) 0.01116 296.6 1.9
302(10) 0.01006 296.5 1.9
271(9) 0.01123 296.4 1.9
277(9) 0.01194 296.4 1.9
298(9) 0.01128 296.3 1.9
306(9) 0.01016 296.2 1.9
289(9) 0.01048 296.2 2.0
302(9) 0.01058 296.1 2.0
285(9) 0.01158 296.0 2.0
279(9) 0.01182 296.0 2.0
295(9) 0.01063 295.9 2.0
301(10) 0.01007 295.9 2.0
299(9) 0.01063 295.8 2.0
269(9) 0.01225 295.7 2.0
269(8) 0.01235 295.7 2.0
281(9) 0.01104 295.6 2.0
295(10) 0.00955 295.5 2.0
280(9) 0.01132 295.5 2.0
277(9) 0.01202 295.4 2.0
284(9) 0.01163 295.4 2.0
268(9) 0.01165 295.3 2.0
308(10) 0.00965 295.2 2.0
287(9) 0.01129 295.2 2.0
277(9) 0.01201 295.1 2.0
303(9) 0.01085 295.0 2.0
300(9) 0.01046 295.0 2.0
292(9) 0.01011 294.9 2.0
278(9) 0.01115 294.8 2.1
295(9) 0.01147 294.8 2.1
296(9) 0.01116 294.7 2.1
288(9) 0.01103 294.7 2.1
295(9) 0.01048 294.6 2.1
307(10) 0.00990 294.5 2.1
301(9) 0.01114 294.5 2.1
301(9) 0.01100 294.5 2.1
283(9) 0.01105 294.5 2.1
287(9) 0.01090 294.6 2.1
298(9) 0.01080 294.6 2.1
302(9) 0.01107 294.6 2.1
310(9) 0.01022 294.6 2.2
294(9) 0.01047 294.6 2.2
306(9) 0.01008 294.7 2.2
309(9) 0.01062 294.7 2.2
321(9) 0.01047 294.7 2.2
303(9) 0.01044 294.7 2.2
302(10) 0.01002 294.7 2.2
286(9) 0.01084 294.7 2.2
297(9) 0.01101 294.8 2.2
285(9) 0.01165 294.8 2.3
305(9) 0.01031 294.8 2.3
329(10) 0.00906 294.8 2.3
300(9) 0.01015 294.8 2.3
304(9) 0.01067 294.8 2.3
288(9) 0.01157 294.9 2.3
307(9) 0.01037 294.9 2.3
288(9) 0.01049 294.9 2.4
286(9) 0.01057 294.9 2.4
293(9) 0.01106 294.9 2.4
287(9) 0.01138 295.0 2.4
321(10) 0.00976 295.0 2.4
298(9) 0.01015 295.0 2.4
304(9) 0.01038 295.0 2.5
285(9) 0.01155 295.0 2.5
290(9) 0.01148 295.0 2.5
284(9) 0.01109 295.1 2.5
288(9) 0.01021 295.1 2.5
314(10) 0.00999 295.1 2.6
312(9) 0.01092 295.1 2.6
298(9) 0.01110 295.1 2.6
278(9) 0.01095 295.2 2.6
282(9) 0.01045 295.2 2.6
304(9) 0.01046 295.2 2.7
325(9) 0.01034 295.2 2.7
319(9) 0.01045 295.2 2.7
305(9) 0.01019 295.2 2.8
296(10) 0.00981 295.3 2.8
301(9) 0.01041 295.3 2.8
292(9) 0.01142 295.3 2.8
306(9) 0.01065 295.3 2.9
314(10) 0.00955 295.3 2.9
300(9) 0.01030 295.3 2.9
297(9) 0.01041 295.4 3.0
293(9) 0.01143 295.4 3.0
309(9) 0.01067 295.4 3.1
303(9) 0.01054 295.4 3.1
324(10) 0.00945 295.4 3.1
301(9) 0.01054 295.5 3.2
295(9) 0.01141 295.5 3.2
296(9) 0.01095 295.5 3.3
302(10) 0.00999 295.5 3.3
300(9) 0.01013 295.5 3.3
288(9) 0.01120 295.5 3.4
292(9) 0.01136 295.6 3.4
318(10) 0.00999 295.6 3.5
294(9) 0.01036 295.6 3.5
267(9) 0.01135 295.6 3.5
300(9) 0.01049 295.6 3.6
305(9) 0.01102 295.7 3.6
295(9) 0.01039 295.7 3.6
297(9) 0.01054 295.7 3.6
296(9) 0.01071 295.7 3.7
278(9) 0.01170 295.7 3.7
318(9) 0.01056 295.7 3.7
296(9) 0.01089 295.8 3.7
303(10) 0.00990 295.8 3.7
302(9) 0.01026 295.8 3.8
290(9) 0.01127 295.8 3.8
290(9) 0.01145 295.8 3.8
301(9) 0.01051 295.8 3.8
299(9) 0.01018 295.9 3.8
288(9) 0.01080 295.9 3.8
289(9) 0.01141 295.9 3.9
320(9) 0.01052 295.9 3.9
296(9) 0.01063 295.9 3.9
292(10) 0.00984 296.0 3.9
287(9) 0.01101 296.0 4.0
292(9) 0.01130 296.0 4.0
276(9) 0.01223 296.0 4.0
329(10) 0.00955 296.0 4.1
286(9) 0.01071 296.0 4.1
329(10) 0.00983 296.1 4.1
283(9) 0.01180 296.1 4.2
287(9) 0.01137 296.1 4.2
270(9) 0.01138 296.1 4.3
272(9) 0.01096 296.1 4.3
305(9) 0.01046 296.2 4.4
302(9) 0.01118 296.2 4.4
305(9) 0.01063 296.2 4.5
289(9) 0.01082 296.2 4.5
286(9) 0.01032 296.2 4.6
286(9) 0.01096 296.2 4.6
288(9) 0.01155 296.3 4.7
299(9) 0.01078 296.3 4.7
296(9) 0.01032 296.3 4.8
291(9) 0.01058 296.3 4.9
293(9) 0.01120 296.3 4.9
295(9) 0.01149 296.3 5.0
303(9) 0.01064 296.4 5.1
287(9) 0.01103 296.4 5.1
301(9) 0.01027 296.4 5.2
298(9) 0.01102 296.4 5.3
305(9) 0.01101 296.4 5.4
293(9) 0.01103 296.5 5.4
301(9) 0.01016 296.5 5.5
316(10) 0.00982 296.5 5.6
297(9) 0.01108 296.5 5.7
294(9) 0.01139 296.5 5.8
295(10) 0.00997 296.5 5.9
307(10) 0.00968 296.6 6.0
286(9) 0.01103 296.6 6.1
292(9) 0.01111 296.6 6.2
311(9) 0.01088 296.6 6.3
296(9) 0.01069 296.6 6.4
293(9) 0.01031 296.7 6.5
299(9) 0.01060 296.7 6.6
319(9) 0.01026 296.7 6.7
312(9) 0.01091 296.7 6.9
303(9) 0.01034 296.7 7.0
302(10) 0.00972 296.7 7.1
303(9) 0.01049 296.8 7.3
311(9) 0.01084 296.8 7.4
298(9) 0.01133 296.8 7.5
279(9) 0.01070 296.8 7.7
294(10) 0.00949 296.8 7.8
287(9) 0.01101 296.8 8.0
318(9) 0.01051 296.9 8.2
314(9) 0.01063 296.9 8.3
303(9) 0.01052 296.9 8.5
301(10) 0.00957 296.9 8.7
307(9) 0.01024 296.9 8.9
288(9) 0.01146 297.0 9.1
297(9) 0.01109 297.0 9.3
315(10) 0.00998 297.0 9.5
303(10) 0.00986 297.0 9.7
297(9) 0.01066 297.0 9.9
317(9) 0.01060 297.0 10.1
307(9) 0.01064 297.1 10.4
313(10) 0.01004 297.1 10.6
315(10) 0.00932 297.1 10.9
298(10) 0.01007 297.1 11.1
288(9) 0.01158 297.1 11.4
309(9) 0.01063 297.2 11.7
291(9) 0.01079 297.2 12.0
283(9) 0.01089 297.2 12.3
309(9) 0.01036 297.2 12.6
301(9) 0.01112 297.2 12.9
315(9) 0.01023 297.2 13.3
318(10) 0.00963 297.3 13.6
292(9) 0.01034 297.3 14.0
326(10) 0.00967 297.3 14.4
288(9) 0.01161 297.3 14.8
322(9) 0.01015 297.3 15.2
319(10) 0.00965 297.3 15.6
300(9) 0.01044 297.4 16.1
316(10) 0.00998 297.4 16.6
333(9) 0.01013 297.4 17.0
306(9) 0.01048 297.4 17.5
325(10) 0.00929 297.4 18.1
311(9) 0.01017 297.5 18.6
314(9) 0.01027 297.5 19.2
300(9) 0.01111 297.5 19.8
304(9) 0.01035 297.5 20.4
320(10) 0.00936 297.5 21.1
301(9) 0.01069 297.5 21.7
319(9) 0.01056 297.6 22.4
339(10) 0.00997 297.6 23.2
304(9) 0.01037 297.6 23.9
308(10) 0.00985 297.6 24.8
326(10) 0.00976 297.6 25.6
332(9) 0.01016 297.7 26.5
316(9) 0.01068 297.7 27.4
312(10) 0.00993 297.7 28.4
304(10) 0.00950 297.7 29.5
308(10) 0.00997 297.7 30.6
333(9) 0.01017 297.7 31.7
342(10) 0.00963 297.8 33.0
341(10) 0.00934 297.8 34.3
334(10) 0.00903 297.8 35.7
337(10) 0.00966 297.8 37.2
345(10) 0.00963 297.8 38.8
321(9) 0.01057 297.8 40.6
327(9) 0.01011 297.9 42.5
322(10) 0.00943 297.9 44.5
343(10) 0.00917 297.9 46.8
334(9) 0.01008 297.9 49.2
331(10) 0.01003 297.9 51.9
362(10) 0.00894 298.0 54.9
364(10) 0.00846 298.0 58.1
344(10) 0.00920 298.0 61.8
365(10) 0.00936 298.0 65.9
377(10) 0.00865 298.0 70.5
391(11) 0.00826 298.0 75.7
388(11) 0.00824 298.1 81.7
371(10) 0.00839 298.1 88.4
420(11) 0.00819 298.1 96.2
403(11) 0.00822 298.1 105.2
424(11) 0.00749 298.1 115.6
463(12) 0.00675 298.2 127.7
454(12) 0.00697 298.2 141.8
437(11) 0.00794 298.2 158.2
454(11) 0.00737 298.2 177.3
483(12) 0.00662 298.2 199.6
520(12) 0.00606 298.2 225.3
539(12) 0.00618 298.3 254.6
574(12) 0.00608 298.3 287.6
638(14) 0.00513 298.3 323.6
668(14) 0.00491 298.3 361.4
725(14) 0.00466 298.3 398.6
736(14) 0.00467 298.3 431.8
789(15) 0.00452 298.4 457.1
769(15) 0.00427 298.4 471.2
732(15) 0.00435 298.4 472.6
729(15) 0.00453 298.4 462.6
717(14) 0.00483 298.4 444.4
695(14) 0.00508 298.5 422.3
676(14) 0.00490 298.5 400.2
679(14) 0.00478 298.5 380.8
688(14) 0.00482 298.5 365.8
662(13) 0.00525 298.5 355.9
675(14) 0.00522 298.5 351.0
655(14) 0.00503 298.6 350.2
681(14) 0.00457 298.6 352.3
665(14) 0.00511 298.6 355.1
658(13) 0.00539 298.6 356.5
678(14) 0.00521 298.6 353.9
712(14) 0.00475 298.7 345.8
688(15) 0.00453 298.7 331.5
644(14) 0.00515 298.7 312.0
626(13) 0.00559 298.7 288.7
604(13) 0.00586 298.7 263.5
549(12) 0.00612 298.7 238.2
512(13) 0.00600 298.8 214.0
495(12) 0.00658 298.8 191.7
500(12) 0.00695 298.8 171.6
472(11) 0.00725 298.8 153.6
487(12) 0.00655 298.8 137.9
423(11) 0.00738 298.8 124.0
425(11) 0.00741 298.9 112.0
434(11) 0.00803 298.9 101.5
422(11) 0.00777 298.9 92.3
395(10) 0.00847 298.9 84.3
403(11) 0.00772 298.9 77.3
385(11) 0.00805 299.0 71.1
375(10) 0.00913 299.0 65.7
354(10) 0.00914 299.0 60.9
355(10) 0.00901 299.0 56.6
330(10) 0.00963 299.0 52.8
347(10) 0.00944 299.0 49.4
354(10) 0.00955 299.1 46.3
351(10) 0.00931 299.1 43.5
338(10) 0.00913 299.1 41.0
322(9) 0.01018 299.1 38.8
353(10) 0.00936 299.1 36.7
346(10) 0.00986 299.2 34.8
340(10) 0.00916 299.2 33.0
328(10) 0.00956 299.2 31.4
311(9) 0.01015 299.2 30.0
320(9) 0.01015 299.2 28.6
349(10) 0.00984 299.2 27.4
328(10) 0.00969 299.3 26.2
341(10) 0.00904 299.3 25.1
336(10) 0.00950 299.3 24.1
344(10) 0.00958 299.3 23.2
324(9) 0.01042 299.3 22.3
333(10) 0.00947 299.4 21.5
341(10) 0.00891 299.4 20.8
324(10) 0.00985 299.4 20.1
308(9) 0.01057 299.4 19.4
290(9) 0.01157 299.4 18.8
286(9) 0.01102 299.4 18.2
335(10) 0.00876 299.5 17.7
311(10) 0.01003 299.5 17.2
314(9) 0.01046 299.5 16.7
290(9) 0.01150 299.5 16.3
313(9) 0.01012 299.5 15.8
313(10) 0.00919 299.5 15.4
309(10) 0.01001 299.6 15.1
327(10) 0.01007 299.6 14.7
317(9) 0.01053 299.6 14.4
301(9) 0.01057 299.6 14.1
305(10) 0.00976 299.6 13.9
320(10) 0.00983 299.7 13.6
326(9) 0.01031 299.7 13.4
317(9) 0.01055 299.7 13.1
291(9) 0.01090 299.7 13.0
301(10) 0.00997 299.7 12.8
316(9) 0.01014 299.7 12.6
297(9) 0.01130 299.8 12.5
298(9) 0.01085 299.8 12.4
347(10) 0.00897 299.8 12.3
329(10) 0.00929 299.8 12.2
318(9) 0.01011 299.8 12.1
301(9) 0.01119 299.9 12.1
301(9) 0.01061 299.9 12.1
300(9) 0.01030 299.9 12.1
305(10) 0.00983 299.9 12.1
297(9) 0.01043 299.9 12.2
318(9) 0.01056 299.9 12.3
335(10) 0.00928 300.0 12.5
305(9) 0.01044 300.0 12.7
296(9) 0.01050 300.0 12.9
308(9) 0.01031 300.0 13.2
295(9) 0.01137 300.0 13.6
305(9) 0.01061 300.0 14.0
303(9) 0.01020 300.1 14.5
308(9) 0.01027 300.1 15.2
303(9) 0.01080 300.1 16.0
307(9) 0.01091 300.1 16.9
325(10) 0.00970 300.1 18.1
332(10) 0.00924 300.2 19.5
341(10) 0.00936 300.2 21.4
323(9) 0.01034 300.2 23.7
357(10) 0.00954 300.2 26.6
339(10) 0.00977 300.2 30.4
358(10) 0.00880 300.2 35.3
345(10) 0.00940 300.3 41.6
350(10) 0.00958 300.3 49.6
397(10) 0.00850 300.3 59.7
391(11) 0.00808 300.3 71.8
388(11) 0.00794 300.3 85.6
396(11) 0.00830 300.4 99.3
428(11) 0.00796 300.4 110.0
419(11) 0.00823 300.4 114.1
405(11) 0.00798 300.4 109.9
405(11) 0.00745 300.4 99.0
396(11) 0.00797 300.4 85.2
365(10) 0.00927 300.5 71.3
367(10) 0.00930 300.5 59.1
389(10) 0.00852 300.5 48.9
378(11) 0.00785 300.5 40.7
351(10) 0.00915 300.5 34.3
326(9) 0.01038 300.5 29.3
331(9) 0.01009 300.6 25.4
333(10) 0.00929 300.6 22.3
295(9) 0.01028 300.6 19.9
326(10) 0.00952 300.6 17.9
304(9) 0.01120 300.6 16.4
320(9) 0.01025 300.7 15.1
337(10) 0.00941 300.7 14.0
301(10) 0.00965 300.7 13.0
289(9) 0.01048 300.7 12.2
293(9) 0.01133 300.7 11.6
306(9) 0.01066 300.7 11.0
321(10) 0.00999 300.8 10.5
311(10) 0.01001 300.8 10.0
318(10) 0.00988 300.8 9.6
310(9) 0.01076 300.8 9.3
329(10) 0.01005 300.8 8.9
318(10) 0.01003 300.9 8.7
313(10) 0.01005 300.9 8.4
321(10) 0.00983 300.9 8.2
310(9) 0.01086 300.9 8.0
325(10) 0.00992 300.9 7.8
309(9) 0.01029 300.9 7.6
293(9) 0.01095 301.0 7.5
302(9) 0.01067 301.0 7.3
286(9) 0.01153 301.0 7.2
292(9) 0.01085 301.0 7.1
306(9) 0.01016 301.0 7.0
313(10) 0.00992 301.0 6.9
304(9) 0.01080 301.1 6.8
311(9) 0.01071 301.1 6.7
303(10) 0.01007 301.1 6.6
287(9) 0.01018 301.1 6.6
292(9) 0.01061 301.1 6.5
286(9) 0.01172 301.2 6.5
307(9) 0.01097 301.2 6.4
308(10) 0.01002 301.2 6.4
305(10) 0.00962 301.2 6.3
304(9) 0.01014 301.2 6.3
298(9) 0.01096 301.2 6.3
315(9) 0.01064 301.3 6.2
286(9) 0.01142 301.3 6.2
306(10) 0.00982 301.3 6.2
309(10) 0.00995 301.3 6.2
314(9) 0.01052 301.3 6.1
328(9) 0.01040 301.4 6.1
314(9) 0.01017 301.4 6.1
310(10) 0.00955 301.4 6.1
290(9) 0.01077 301.4 6.1
300(9) 0.01082 301.4 6.1
328(9) 0.01023 301.4 6.1
311(9) 0.01022 301.5 6.1
291(9) 0.01026 301.5 6.1
304(9) 0.01043 301.5 6.2
310(9) 0.01092 301.5 6.2
290(9) 0.01138 301.5 6.2
292(9) 0.01043 301.5 6.2
299(10) 0.00997 301.6 6.2
303(10) 0.00984 301.6 6.2
309(9) 0.01085 301.6 6.3
316(9) 0.01043 301.6 6.3
292(9) 0.01117 301.6 6.3
290(9) 0.01046 301.7 6.4
294(9) 0.01071 301.7 6.4
311(9) 0.01070 301.7 6.4
284(9) 0.01160 301.7 6.5
309(9) 0.01027 301.7 6.5
298(9) 0.01029 301.7 6.6
293(9) 0.01057 301.8 6.6
306(9) 0.01105 301.8 6.7
315(9) 0.01020 301.8 6.7
303(9) 0.01033 301.8 6.8
277(9) 0.01129 301.8 6.9
293(9) 0.01068 301.9 6.9
305(9) 0.01102 301.9 7.0
283(9) 0.01101 301.9 7.1
305(9) 0.01027 301.9 7.1
295(9) 0.01103 301.9 7.2
324(9) 0.01021 301.9 7.3
286(9) 0.01167 302.0 7.4
310(10) 0.01002 302.0 7.5
314(10) 0.00962 302.0 7.6
321(10) 0.00968 302.0 7.6
345(10) 0.00948 302.0 7.7
302(9) 0.01115 302.0 7.8
300(9) 0.01046 302.1 7.9
302(10) 0.00979 302.1 8.0
324(10) 0.00952 302.1 8.1
299(9) 0.01120 302.1 8.2
311(9) 0.01080 302.1 8.3
320(10) 0.00985 302.1 8.5
314(10) 0.00968 302.1 8.6
306(9) 0.01020 302.1 8.7
305(9) 0.01107 302.1 8.8
295(9) 0.01117 302.1 8.9
299(9) 0.01058 302.1 9.0
324(10) 0.00914 302.1 9.1
330(10) 0.00957 302.1 9.2
296(9) 0.01147 302.1 9.4
309(9) 0.01072 302.1 9.5
314(9) 0.01025 302.0 9.6
337(10) 0.00882 302.0 9.7
313(9) 0.01017 302.0 9.8
319(9) 0.01050 302.0 9.9
315(9) 0.01059 302.0 10.0
289(9) 0.01093 302.0 10.1
301(10) 0.00976 302.0 10.2
318(10) 0.00976 302.0 10.2
291(9) 0.01146 302.0 10.3
307(9) 0.01073 302.0 10.4
303(9) 0.01028 302.0 10.5
292(9) 0.01057 302.0 10.5
303(10) 0.00987 302.0 10.6
334(9) 0.01013 302.0 10.6
331(10) 0.01005 302.0 10.7
332(10) 0.00980 302.0 10.8
300(9) 0.01061 302.0 10.8
328(10) 0.00949 302.0 10.8
288(9) 0.01157 302.0 10.9
311(9) 0.01020 302.0 10.9
277(9) 0.01132 302.0 11.0
312(10) 0.00965 301.9 11.0
306(9) 0.01044 301.9 11.1
293(9) 0.01149 301.9 11.1
288(9) 0.01098 301.9 11.2
313(10) 0.00982 301.9 11.2
314(10) 0.01000 301.9 11.3
306(9) 0.01078 301.9 11.3
329(9) 0.01018 301.9 11.4
312(9) 0.01008 301.9 11.5
320(10) 0.00993 301.9 11.5
326(10) 0.00990 301.9 11.6
320(9) 0.01047 301.9 11.7
339(10) 0.01000 301.9 11.8
298(9) 0.01078 301.9 11.9
306(10) 0.00983 301.9 12.0
329(10) 0.00942 301.9 12.2
313(9) 0.01069 301.9 12.3
320(9) 0.01046 301.9 12.5
314(10) 0.00998 301.9 12.6
323(10) 0.00964 301.9 12.8
306(9) 0.01074 301.9 13.0
313(9) 0.01059 301.8 13.2
312(9) 0.01069 301.8 13.4
327(10) 0.00927 301.8 13.6
319(10) 0.00913 301.8 13.9
321(10) 0.01002 301.8 14.2
299(9) 0.01122 301.8 14.5
304(9) 0.01101 301.8 14.8
340(10) 0.00936 301.8 15.1
299(10) 0.00993 301.8 15.5
323(10) 0.00975 301.8 15.9
342(10) 0.00990 301.8 16.3
325(9) 0.01033 301.8 16.8
330(10) 0.00966 301.8 17.3
325(10) 0.00929 301.8 17.8
306(9) 0.01079 301.8 18.4
328(9) 0.01027 301.8 19.1
318(9) 0.01037 301.8 19.8
309(9) 0.01020 301.8 20.5
317(10) 0.00977 301.8 21.4
326(10) 0.00985 301.8 22.3
327(9) 0.01031 301.7 23.3
323(9) 0.01015 301.7 24.4
339(10) 0.00925 301.7 25.7
332(10) 0.00908 301.7 27.1
311(9) 0.01028 301.7 28.7
325(9) 0.01041 301.7 30.5
344(10) 0.00930 301.7 32.5
352(10) 0.00907 301.7 34.8
345(10) 0.00935 301.7 37.5
334(10) 0.00957 301.7 40.6
365(10) 0.00945 301.7 44.3
339(10) 0.00948 301.7 48.7
382(11) 0.00810 301.7 54.1
364(10) 0.00859 301.7 60.7
356(10) 0.00910 301.7 69.1
389(10) 0.00882 301.7 79.9
426(11) 0.00757 301.7 94.5
412(11) 0.00778 301.7 114.2
463(12) 0.00695 301.7 141.5
504(12) 0.00668 301.7 178.5
529(12) 0.00663 301.7 227.8
604(13) 0.00542 301.6 289.9
627(14) 0.00522 301.6 359.0
739(15) 0.00443 301.6 417.5
815(15) 0.00423 301.6 438.1
748(14) 0.00476 301.6 409.2
709(14) 0.00459 301.6 348.6
657(14) 0.00473 301.6 283.1
604(13) 0.00546 301.6 226.9
572(13) 0.00596 301.6 183.7
526(12) 0.00672 301.6 152.2
473(12) 0.00708 301.6 130.0
477(12) 0.00623 301.6 114.5
493(12) 0.00641 301.6 103.8
408(10) 0.00855 301.6 96.4
434(11) 0.00785 301.6 91.1
391(10) 0.00840 301.6 87.4
415(11) 0.00723 301.6 84.6
421(11) 0.00788 301.6 82.4
414(10) 0.00839 301.6 80.7
392(10) 0.00866 301.6 79.3
374(10) 0.00849 301.5 78.0
375(11) 0.00799 301.5 76.8
398(11) 0.00811 301.5 75.5
395(10) 0.00869 301.5 74.3
396(10) 0.00846 301.5 73.0
403(11) 0.00797 301.5 71.8
411(11) 0.00758 301.5 70.6
391(10) 0.00852 301.5 69.4
400(10) 0.00856 301.5 68.3
400(11) 0.00821 301.5 67.3
382(10) 0.00846 301.5 66.5
373(10) 0.00853 301.5 65.9
347(10) 0.00937 301.5 65.4
377(10) 0.00904 301.5 65.1
359(10) 0.00917 301.5 65.0
394(11) 0.00800 301.5 65.2
407(11) 0.00761 301.5 65.5
356(10) 0.00906 301.5 66.0
387(10) 0.00878 301.5 66.7
380(10) 0.00859 301.5 67.6
357(10) 0.00889 301.5 68.6
389(11) 0.00770 301.4 69.6
361(10) 0.00908 301.4 70.8
390(10) 0.00874 301.4 71.9
383(10) 0.00854 301.4 73.1
375(11) 0.00825 301.4 74.1
384(11) 0.00808 301.4 75.0
374(10) 0.00890 301.4 75.7
394(10) 0.00877 301.4 76.2
385(11) 0.00826 301.4 76.3
414(11) 0.00761 301.4 76.2
377(10) 0.00875 301.4 75.7
396(10) 0.00853 301.4 74.9
363(10) 0.00937 301.4 73.8
366(10) 0.00872 301.4 72.5
368(11) 0.00811 301.4 70.9
390(11) 0.00805 301.4 69.3
355(10) 0.00964 301.4 67.5
361(10) 0.00939 301.4 65.6
341(10) 0.00934 301.4 63.8
359(11) 0.00828 301.4 62.0
363(10) 0.00887 301.3 60.1
367(10) 0.00901 301.3 58.1
380(10) 0.00903 301.3 56.0
348(10) 0.00935 301.3 53.8
356(11) 0.00803 301.3 51.6
358(10) 0.00891 301.3 49.5
344(10) 0.00994 301.3 47.5
360(10) 0.00938 301.3 45.7
341(10) 0.00959 301.3 44.0
319(10) 0.00952 301.3 42.5
330(10) 0.00972 301.3 41.2
337(10) 0.01007 301.3 39.9
322(9) 0.01026 301.3 38.9
340(10) 0.00924 301.3 37.9
337(10) 0.00910 301.3 37.0
305(9) 0.01045 301.3 36.2
314(9) 0.01066 301.3 35.5
318(9) 0.01014 301.3 34.9
319(10) 0.00953 301.3 34.4
309(10) 0.00972 301.3 33.9
307(9) 0.01035 301.3 33.5
330(9) 0.01024 301.2 33.2
332(10) 0.00991 301.2 33.0
329(10) 0.00948 301.2 32.8
323(10) 0.00951 301.2 32.6
334(10) 0.00951 301.2 32.5
335(9) 0.01013 301.2 32.5
336(10) 0.00974 301.2 32.5
330(10) 0.00962 301.2 32.6
332(10) 0.00900 301.2 32.7
307(9) 0.01056 301.2 32.8
344(10) 0.00978 301.2 33.0
311(9) 0.01022 301.2 33.3
329(10) 0.00913 301.2 33.6
324(10) 0.00974 301.2 34.0
329(10) 0.01003 301.2 34.3
353(10) 0.00959 301.2 34.8
333(10) 0.00966 301.2 35.3
334(10) 0.00941 301.2 35.8
340(10) 0.00939 301.2 36.4
315(9) 0.01049 301.2 37.1
323(9) 0.01055 301.2 37.8
373(10) 0.00847 301.1 38.5
324(10) 0.00960 301.1 39.4
328(10) 0.00981 301.1 40.2
338(10) 0.00995 301.1 41.2
362(10) 0.00926 301.1 42.2
358(10) 0.00876 301.1 43.3
343(10) 0.00853 301.1 44.4
345(10) 0.00915 301.1 45.7
369(10) 0.00913 301.1 47.0
344(10) 0.00990 301.1 48.4
348(10) 0.00909 301.1 49.9
395(11) 0.00750 301.1 51.6
376(10) 0.00875 301.1 53.3
374(10) 0.00916 301.1 55.2
357(10) 0.00941 301.1 57.2
353(10) 0.00926 301.1 59.4
357(10) 0.00854 301.1 61.7
377(10) 0.00853 301.1 64.2
379(10) 0.00905 301.1 67.0
378(10) 0.00899 301.1 69.9
379(10) 0.00873 301.0 73.1
418(12) 0.00705 301.0 76.6
379(10) 0.00855 301.0 80.4
399(10) 0.00855 301.0 84.6
374(10) 0.00902 301.0 89.1
384(11) 0.00824 301.0 94.0
399(11) 0.00769 301.0 99.3
401(11) 0.00803 301.0 105.1
404(10) 0.00849 301.0 111.3
418(11) 0.00786 301.0 118.1
435(11) 0.00740 301.0 125.2
421(11) 0.00760 301.0 132.7
409(11) 0.00782 301.0 140.4
452(11) 0.00763 301.0 148.3
510(12) 0.00667 301.0 156.0
451(11) 0.00715 301.0 163.3
451(12) 0.00688 301.0 170.0
470(12) 0.00688 301.0 175.7
463(11) 0.00759 301.0 180.2
493(12) 0.00684 301.0 183.4
504(12) 0.00650 301.0 185.2
472(12) 0.00692 300.9 185.9
482(12) 0.00682 300.9 185.7
494(12) 0.00702 300.9 184.9
493(12) 0.00648 300.9 183.8
474(12) 0.00684 300.9 183.0
476(12) 0.00675 300.9 182.7
464(11) 0.00731 300.9 183.3
489(11) 0.00710 300.9 185.1
473(12) 0.00696 300.9 188.3
500(12) 0.00624 300.9 193.3
486(12) 0.00670 300.9 200.1
472(11) 0.00732 300.9 209.2
495(12) 0.00702 300.9 220.6
527(12) 0.00623 300.9 234.5
547(13) 0.00576 300.9 250.6
545(12) 0.00609 300.9 268.4
567(12) 0.00610 300.9 286.9
614(13) 0.00577 300.9 304.2
579(13) 0.00564 300.9 318.2
610(14) 0.00503 300.9 327.4
605(13) 0.00550 300.8 330.9
590(13) 0.00595 300.8 329.8
621(13) 0.00562 300.8 326.0
603(13) 0.00556 300.8 321.6
644(14) 0.00474 300.8 318.1
608(13) 0.00535 300.8 316.7
647(13) 0.00549 300.8 317.6
659(13) 0.00528 300.8 321.0
674(14) 0.00482 300.8 326.5
699(15) 0.00445 300.8 333.7
724(14) 0.00459 300.8 342.0
730(14) 0.00490 300.8 351.0
697(14) 0.00504 300.8 359.8
701(14) 0.00479 300.8 367.9
732(15) 0.00428 300.8 374.4
708(14) 0.00463 300.8 378.8
624(13) 0.00566 300.8 380.6
659(14) 0.00517 300.8 379.4
679(14) 0.00476 300.8 375.1
650(14) 0.00484 300.8 367.8
618(14) 0.00513 300.8 357.7
641(13) 0.00550 300.7 345.2
574(13) 0.00589 300.7 330.9
565(13) 0.00590 300.7 315.3
595(13) 0.00544 300.7 299.1
546(13) 0.00603 300.7 282.5
497(12) 0.00698 300.7 266.0
518(12) 0.00630 300.7 250.0
512(12) 0.00645 300.7 234.6
518(12) 0.00628 300.7 220.1
526(12) 0.00643 300.7 206.4
496(12) 0.00702 300.7 193.6
479(12) 0.00674 300.7 181.7
481(12) 0.00662 300.7 170.5
483(12) 0.00676 300.7 160.0
477(11) 0.00722 300.7 150.1
482(11) 0.00714 300.7 140.8
469(12) 0.00671 300.7 132.1
449(11) 0.00710 300.7 124.0
414(11) 0.00796 300.7 116.5
412(11) 0.00831 300.7 109.6
446(11) 0.00777 300.7 103.3
420(11) 0.00786 300.6 97.5
415(11) 0.00742 300.6 92.2
412(11) 0.00785 300.6 87.3
401(10) 0.00850 300.6 82.9
397(10) 0.00859 300.6 78.7
394(11) 0.00818 300.6 74.9
376(11) 0.00817 300.6 71.4
396(11) 0.00805 300.6 68.1
370(10) 0.00921 300.6 65.1
383(10) 0.00885 300.6 62.3
371(10) 0.00839 300.6 59.7
373(11) 0.00820 300.6 57.3
392(11) 0.00810 300.6 55.0
376(10) 0.00909 300.6 52.9
355(10) 0.00954 300.6 51.0
375(10) 0.00843 300.6 49.1
396(11) 0.00744 300.6 47.4
354(10) 0.00904 300.6 45.8
368(10) 0.00929 300.6 44.3
365(10) 0.00886 300.6 42.9
365(10) 0.00858 300.5 41.5
364(10) 0.00852 300.5 40.3
352(10) 0.00897 300.5 39.1
371(10) 0.00908 300.5 38.0
357(10) 0.00943 300.5 36.9
337(10) 0.00944 300.5 35.9
365(11) 0.00805 300.5 34.9
338(10) 0.00939 300.5 34.0
345(10) 0.00987 300.5 33.1
359(10) 0.00902 300.5 32.2
313(9) 0.01049 300.5 31.4
364(10) 0.00839 300.5 30.6
332(10) 0.00980 300.5 29.9
337(10) 0.00995 300.5 29.1
329(10) 0.00979 300.5 28.4
336(10) 0.00917 300.5 27.7
354(10) 0.00848 300.5 27.1
340(10) 0.00946 300.5 26.4
340(10) 0.01001 300.5 25.8
346(10) 0.00924 300.5 25.2
343(10) 0.00900 300.5 24.6
348(10) 0.00893 300.4 24.0
333(10) 0.00993 300.4 23.5
322(9) 0.01043 300.4 23.0
343(10) 0.00932 300.4 22.5
314(9) 0.01013 300.4 22.0
311(9) 0.01022 300.4 21.5
327(10) 0.00994 300.4 21.1
307(9) 0.01073 300.4 20.6
308(10) 0.01001 300.4 20.2
316(10) 0.00927 300.4 19.8
333(10) 0.00949 300.4 19.5
307(9) 0.01086 300.4 19.1
294(9) 0.01128 300.4 18.8
334(10) 0.00961 300.4 18.5
344(10) 0.00894 300.4 18.2
322(9) 0.01033 300.4 17.9
331(9) 0.01016 300.4 17.6
320(9) 0.01049 300.4 17.4
311(10) 0.00993 300.4 17.1
326(10) 0.00876 300.4 16.9
320(10) 0.00959 300.3 16.7
314(9) 0.01070 300.3 16.6
333(10) 0.00999 300.3 16.4
309(9) 0.01018 300.3 16.3
356(11) 0.00832 300.3 16.2
328(10) 0.00968 300.3 16.1
311(9) 0.01080 300.3 16.0
321(9) 0.01028 300.3 15.9
300(9) 0.01070 300.3 15.9
319(10) 0.00968 300.3 15.9
337(10) 0.00908 300.3 15.9
333(9) 0.01020 300.3 16.0
320(9) 0.01040 300.3 16.1
324(10) 0.00958 300.3 16.2
316(10) 0.00953 300.3 16.3
324(10) 0.00932 300.3 16.5
315(9) 0.01063 300.3 16.7
347(10) 0.00940 300.3 17.0
312(9) 0.01026 300.3 17.3
328(10) 0.00921 300.3 17.7
314(10) 0.00999 300.3 18.1
302(9) 0.01112 300.2 18.7
340(10) 0.00967 300.2 19.3
314(10) 0.00994 300.2 19.9
330(10) 0.00913 300.2 20.7
325(10) 0.00991 300.2 21.6
332(9) 0.01014 300.2 22.6
329(10) 0.00974 300.2 23.7
316(10) 0.00996 300.2 24.9
315(10) 0.00996 300.2 26.3
327(10) 0.00993 300.2 27.8
343(10) 0.00987 300.2 29.4
325(10) 0.00964 300.2 31.1
332(10) 0.00881 300.2 32.9
333(10) 0.00918 300.2 34.6
357(10) 0.00929 300.2 36.3
355(10) 0.00959 300.2 37.7
335(10) 0.00969 300.2 38.9
333(10) 0.00919 300.2 39.7
353(10) 0.00896 300.2 40.0
335(10) 0.01000 300.2 39.9
344(10) 0.00977 300.2 39.2
334(10) 0.00957 300.1 38.1
336(10) 0.00886 300.1 36.6
336(10) 0.00919 300.1 34.9
344(10) 0.00981 300.1 33.1
325(9) 0.01031 300.1 31.1
345(10) 0.00894 300.1 29.2
341(10) 0.00856 300.1 27.4
311(9) 0.01022 300.1 25.6
314(9) 0.01063 300.1 24.0
315(9) 0.01044 300.1 22.5
301(9) 0.01057 300.1 21.1
319(10) 0.00901 300.1 19.8
317(9) 0.01010 300.1 18.7
307(9) 0.01056 300.1 17.6
318(9) 0.01050 300.1 16.7
324(10) 0.00959 300.1 15.9
332(10) 0.00920 300.1 15.1
342(10) 0.00901 300.1 14.4
305(9) 0.01099 300.1 13.8
330(10) 0.00998 300.1 13.2
293(9) 0.01089 300.0 12.7
306(10) 0.00995 300.0 12.2
290(9) 0.01121 300.0 11.8
334(9) 0.01009 300.0 11.4
328(10) 0.00987 300.0 11.1
300(9) 0.01065 300.0 10.7
330(10) 0.00925 300.0 10.4
350(10) 0.00887 300.0 10.1
326(9) 0.01033 300.0 9.9
329(10) 0.00964 300.0 9.7
328(10) 0.00942 300.0 9.4
323(10) 0.00960 300.0 9.2
329(10) 0.00959 300.0 9.1
323(9) 0.01035 300.0 8.9
295(9) 0.01089 300.0 8.7
326(10) 0.00937 300.0 8.6
319(10) 0.00968 300.0 8.5
330(10) 0.00981 300.0 8.3
333(9) 0.01008 300.0 8.2
296(9) 0.01093 300.0 8.1
311(10) 0.00995 300.0 8.0
322(10) 0.00999 299.9 8.0
299(9) 0.01080 299.9 7.9
305(9) 0.01095 299.9 7.8
314(10) 0.00988 299.9 7.8
301(10) 0.01002 299.9 7.7
299(9) 0.01079 299.9 7.7
325(10) 0.00997 299.9 7.6
304(9) 0.01104 299.9 7.6
324(10) 0.00972 299.9 7.6
306(10) 0.00971 299.9 7.6
284(9) 0.01055 299.9 7.6
277(9) 0.01193 299.9 7.6
317(9) 0.01075 299.9 7.6
305(9) 0.01032 299.9 7.6
317(10) 0.00940 299.9 7.7
303(9) 0.01025 299.9 7.7
314(9) 0.01040 299.9 7.8
288(9) 0.01147 299.9 7.9
311(10) 0.01003 299.9 7.9
320(10) 0.00917 299.9 8.0
319(10) 0.00984 299.8 8.2
333(10) 0.01007 299.8 8.3
311(9) 0.01069 299.8 8.4
320(10) 0.00979 299.8 8.6
304(10) 0.00989 299.8 8.8
327(10) 0.00977 299.8 9.0
325(9) 0.01033 299.8 9.2
291(9) 0.01133 299.8 9.5
305(9) 0.01056 299.8 9.8
329(10) 0.00917 299.8 10.1
299(9) 0.01078 299.8 10.5
298(9) 0.01124 299.8 10.9
319(9) 0.01032 299.8 11.4
293(9) 0.01091 299.8 11.9
316(10) 0.00951 299.8 12.4
291(9) 0.01064 299.8 13.1
298(9) 0.01121 299.8 13.7
282(9) 0.01127 299.8 14.5
330(10) 0.00927 299.8 15.3
303(9) 0.01035 299.8 16.2
316(9) 0.01021 299.8 17.1
285(9) 0.01160 299.7 18.0
310(9) 0.01025 299.7 19.0
304(9) 0.01025 299.7 19.9
329(10) 0.00926 299.7 20.7
313(9) 0.01029 299.7 21.5
328(9) 0.01040 299.7 22.1
329(10) 0.00962 299.7 22.6
343(10) 0.00921 299.7 22.8
312(10) 0.00978 299.7 22.7
294(9) 0.01084 299.7 22.5
312(9) 0.01077 299.7 22.0
353(10) 0.00870 299.7 21.3
303(9) 0.01031 299.7 20.5
328(10) 0.00977 299.7 19.6
338(10) 0.01003 299.7 18.6
323(9) 0.01046 299.7 17.6
295(9) 0.01085 299.7 16.6
297(9) 0.01031 299.7 15.7
319(9) 0.01008 299.7 14.8
333(10) 0.00972 299.7 13.9
315(9) 0.01082 299.7 13.2
306(9) 0.01044 299.6 12.4
300(10) 0.00957 299.6 11.8
281(9) 0.01117 299.6 11.2
331(10) 0.01005 299.6 10.6
311(9) 0.01077 299.6 10.1
309(9) 0.01024 299.6 9.7
320(10) 0.00942 299.6 9.3
329(10) 0.00965 299.6 8.9
305(9) 0.01106 299.6 8.6
296(9) 0.01098 299.6 8.3
300(9) 0.01019 299.6 8.0
300(10) 0.00982 299.6 7.7
322(10) 0.00990 299.6 7.5
294(9) 0.01141 299.6 7.3
307(9) 0.01077 299.6 7.1
316(10) 0.00947 299.6 6.9
285(9) 0.01044 299.6 6.7
281(9) 0.01140 299.6 6.6
307(9) 0.01096 299.6 6.4
321(9) 0.01045 299.6 6.3
337(10) 0.00929 299.5 6.2
297(9) 0.01045 299.5 6.1
306(9) 0.01014 299.5 6.0
308(9) 0.01094 299.5 5.9
281(9) 0.01183 299.5 5.8
286(9) 0.01082 299.5 5.7
306(9) 0.01014 299.5 5.6
312(9) 0.01043 299.5 5.6
291(9) 0.01150 299.5 5.5
306(9) 0.01089 299.5 5.4
317(10) 0.01003 299.5 5.4
287(9) 0.01099 299.5 5.3
302(9) 0.01061 299.5 5.3
291(9) 0.01149 299.5 5.2
287(9) 0.01105 299.5 5.2
294(9) 0.01036 299.5 5.2
291(9) 0.01060 299.5 5.1
305(9) 0.01057 299.5 5.1
301(9) 0.01113 299.5 5.1
283(9) 0.01097 299.5 5.1
283(9) 0.01090 299.5 5.0
301(9) 0.01044 299.4 5.0
276(9) 0.01188 299.4 5.0
283(9) 0.01176 299.4 5.0
309(10) 0.01000 299.4 5.0
304(10) 0.00981 299.4 5.0
306(10) 0.01007 299.4 5.0
303(9) 0.01076 299.4 4.9
299(9) 0.01120 299.4 4.9
306(9) 0.01058 299.4 4.9
317(10) 0.00931 299.4 4.9
277(9) 0.01148 299.4 4.9
304(9) 0.01075 299.4 4.9
277(9) 0.01207 299.4 4.9
321(10) 0.01007 299.4 4.9
313(10) 0.00972 299.4 5.0
298(9) 0.01065 299.4 5.0
288(9) 0.01166 299.4 5.0
311(9) 0.01076 299.4 5.0
282(9) 0.01146 299.4 5.0
298(9) 0.01032 299.4 5.0
306(9) 0.01022 299.3 5.0
309(9) 0.01074 299.3 5.0
300(9) 0.01103 299.3 5.1
318(10) 0.00945 299.3 5.1
308(10) 0.00996 299.3 5.1
298(9) 0.01051 299.3 5.1
310(9) 0.01090 299.2 5.2
317(9) 0.01037 299.2 5.2
316(9) 0.01017 299.2 5.2
303(10) 0.00996 299.1 5.3
304(9) 0.01008 299.1 5.3
306(9) 0.01100 299.1 5.3
330(10) 0.01005 299.1 5.4
310(9) 0.01016 299.0 5.4
285(9) 0.01130 299.0 5.4
295(9) 0.01109 299.0 5.5
316(9) 0.01061 299.0 5.5
316(9) 0.01049 298.9 5.6
291(9) 0.01066 298.9 5.6
293(9) 0.01028 298.9 5.7
290(9) 0.01092 298.9 5.7
301(9) 0.01112 298.8 5.8
336(10) 0.00946 298.8 5.9
308(10) 0.01000 298.8 5.9
315(10) 0.01005 298.7 6.0
307(9) 0.01038 298.7 6.1
304(9) 0.01102 298.7 6.1
299(9) 0.01035 298.7 6.2
307(10) 0.01001 298.6 6.3
309(9) 0.01024 298.6 6.4
299(9) 0.01095 298.6 6.4
270(8) 0.01231 298.6 6.5
303(10) 0.01006 298.5 6.6
306(10) 0.01007 298.5 6.7
312(9) 0.01025 298.5 6.8
304(9) 0.01100 298.4 6.9
294(9) 0.01138 298.4 7.0
313(10) 0.01006 298.4 7.1
318(10) 0.00955 298.4 7.3
307(9) 0.01047 298.3 7.4
281(9) 0.01166 298.3 7.5
322(9) 0.01048 298.3 7.7
310(10) 0.00998 298.3 7.8
269(9) 0.01066 298.2 8.0
292(9) 0.01060 298.2 8.1
302(9) 0.01102 298.2 8.3
322(9) 0.01052 298.2 8.5
318(10) 0.00979 298.1 8.6
307(10) 0.00940 298.1 8.8
306(9) 0.01066 298.1 9.0
305(9) 0.01101 298.0 9.3
303(9) 0.01096 298.0 9.5
329(10) 0.00964 298.0 9.7
301(10) 0.00998 298.0 10.0
313(10) 0.00979 297.9 10.3
304(9) 0.01112 297.9 10.5
333(10) 0.00976 297.9 10.8
315(10) 0.01002 297.9 11.2
302(9) 0.01032 297.8 11.5
316(10) 0.01000 297.8 11.9
323(9) 0.01036 297.8 12.3
297(9) 0.01117 297.8 12.7
308(10) 0.00967 297.7 13.1
296(10) 0.00991 297.7 13.6
309(9) 0.01018 297.7 14.1
316(9) 0.01072 297.6 14.6
329(10) 0.00971 297.6 15.2
292(9) 0.01100 297.6 15.9
295(9) 0.01086 297.6 16.6
309(9) 0.01056 297.5 17.3
329(9) 0.01029 297.5 18.1
326(10) 0.00976 297.5 19.0
314(10) 0.00973 297.5 19.9
321(10) 0.00966 297.4 21.0
332(10) 0.00969 297.4 22.1
306(9) 0.01097 297.4 23.4
327(10) 0.00942 297.3 24.8
319(10) 0.00966 297.3 26.3
332(10) 0.00944 297.3 28.0
339(10) 0.00967 297.3 29.8
308(9) 0.01084 297.2 31.9
311(9) 0.01017 297.2 34.1
365(11) 0.00821 297.2 36.6
340(10) 0.00921 297.2 39.3
350(10) 0.00944 297.1 42.2
346(10) 0.00975 297.1 45.4
354(10) 0.00912 297.1 48.7
356(11) 0.00831 297.1 52.3
354(10) 0.00878 297.0 55.9
354(10) 0.00933 297.0 59.4
363(10) 0.00936 297.0 62.7
341(10) 0.00941 296.9 65.7
350(11) 0.00817 296.9 68.1
357(10) 0.00902 296.9 69.8
378(10) 0.00908 296.9 70.7
387(10) 0.00880 296.8 70.8
360(10) 0.00905 296.8 70.0
365(11) 0.00827 296.8 68.6
335(10) 0.00966 296.8 66.8
373(10) 0.00911 296.7 64.6
359(10) 0.00932 296.7 62.2
371(10) 0.00846 296.7 59.8
340(10) 0.00875 296.7 57.5
346(10) 0.00886 296.6 55.4
338(9) 0.01011 296.6 53.4
333(9) 0.01010 296.6 51.5
345(10) 0.00955 296.5 49.9
361(10) 0.00849 296.5 48.3
343(10) 0.00920 296.5 47.0
336(9) 0.01009 296.5 45.7
349(10) 0.00952 296.4 44.5
364(10) 0.00872 296.4 43.5
361(10) 0.00867 296.4 42.4
338(10) 0.00943 296.4 41.5
359(10) 0.00944 296.3 40.6
354(10) 0.00933 296.3 39.8
345(10) 0.00914 296.3 39.0
367(11) 0.00825 296.2 38.2
340(10) 0.00951 296.2 37.5
325(9) 0.01042 296.2 36.8
318(9) 0.01013 296.2 36.2
326(10) 0.00973 296.1 35.6
330(10) 0.00967 296.1 35.1
373(10) 0.00879 296.1 34.6
351(10) 0.00960 296.1 34.2
363(10) 0.00892 296.0 33.8
336(10) 0.00941 296.0 33.4
354(10) 0.00910 296.0 33.1
363(10) 0.00934 296.0 32.8
330(9) 0.01024 295.9 32.5
346(10) 0.00931 295.9 32.3
344(10) 0.00898 295.9 32.1
344(10) 0.00903 295.8 31.9
314(9) 0.01043 295.8 31.8
315(9) 0.01073 295.8 31.7
312(9) 0.01012 295.8 31.5
344(10) 0.00884 295.7 31.4
338(10) 0.00922 295.7 31.3
319(9) 0.01053 295.7 31.3
324(9) 0.01036 295.7 31.2
314(10) 0.01006 295.6 31.1
336(10) 0.00899 295.6 31.1
320(10) 0.00979 295.6 31.1
310(9) 0.01073 295.6 31.1
322(9) 0.01060 295.5 31.1
335(10) 0.00964 295.5 31.1
335(10) 0.00898 295.5 31.2
312(9) 0.01028 295.4 31.3
322(9) 0.01031 295.4 31.4
329(9) 0.01019 295.4 31.6
327(10) 0.00957 295.4 31.8
322(10) 0.00958 295.3 32.1
325(10) 0.00985 295.3 32.5
331(9) 0.01021 295.3 33.0
305(9) 0.01079 295.3 33.6
333(10) 0.00963 295.2 34.3
354(10) 0.00887 295.2 35.2
349(10) 0.00925 295.2 36.2
377(10) 0.00888 295.1 37.5
356(10) 0.00960 295.1 39.0
346(10) 0.00911 295.1 40.8
341(10) 0.00888 295.1 43.0
383(11) 0.00803 295.0 45.6
359(10) 0.00943 295.0 48.8
355(10) 0.00945 295.0 52.5
404(11) 0.00803 295.0 56.7
392(11) 0.00797 294.9 61.5
400(11) 0.00779 294.9 66.4
382(10) 0.00906 294.9 71.0
413(11) 0.00789 294.9 74.5
423(11) 0.00751 294.8 76.2
395(11) 0.00813 294.8 75.7
405(11) 0.00815 294.8 73.3
373(10) 0.00919 294.7 69.6
382(10) 0.00852 294.7 65.4
380(11) 0.00823 294.7 61.2
357(10) 0.00875 294.7 57.5
353(10) 0.00944 294.6 54.2
369(10) 0.00919 294.6 51.4
354(10) 0.00902 294.6 49.2
364(11) 0.00838 294.6 47.3
337(10) 0.00985 294.5 45.7
351(10) 0.00955 294.5 44.4
330(9) 0.01020 294.5 43.3
357(10) 0.00882 294.5 42.3
328(10) 0.00917 294.4 41.5
343(10) 0.00926 294.4 40.7
331(10) 0.01001 294.4 40.0
341(10) 0.00997 294.3 39.3
321(10) 0.01002 294.3 38.7
349(10) 0.00845 294.3 38.1
357(10) 0.00887 294.3 37.5
330(9) 0.01018 294.2 37.0
308(9) 0.01082 294.2 36.4
329(10) 0.00977 294.2 35.9
326(10) 0.00922 294.2 35.3
346(10) 0.00912 294.1 34.8
306(9) 0.01100 294.1 34.3
320(9) 0.01045 294.1 33.7
316(9) 0.01029 294.0 33.2
315(10) 0.00972 294.0 32.7
334(10) 0.00968 294.0 32.1
324(9) 0.01048 294.0 31.6
341(10) 0.00964 293.9 31.1
334(10) 0.00946 293.9 30.6
335(10) 0.00879 293.9 30.0
309(9) 0.01019 293.9 29.5
310(9) 0.01093 293.8 29.0
310(9) 0.01058 293.8 28.5
300(9) 0.01054 293.8 28.0
335(10) 0.00916 293.8 27.5
322(10) 0.00998 293.7 27.0
327(9) 0.01046 293.7 26.6
308(9) 0.01053 293.7 26.1
327(10) 0.00966 293.6 25.7
328(10) 0.00963 293.6 25.3
364(10) 0.00858 293.6 25.0
316(9) 0.01063 293.6 24.6
311(9) 0.01039 293.5 24.3
314(10) 0.00964 293.5 24.1
314(10) 0.00996 293.5 23.8
315(10) 0.01004 293.5 23.6
315(9) 0.01058 293.4 23.5
299(9) 0.01086 293.4 23.3
325(10) 0.00961 293.4 23.2
314(9) 0.01021 293.3 23.1
305(9) 0.01067 293.3 23.1
312(9) 0.01071 293.3 23.1
301(9) 0.01074 293.3 23.0
310(9) 0.01016 293.2 23.1
330(10) 0.00949 293.2 23.1
325(9) 0.01032 293.2 23.1
343(10) 0.00985 293.2 23.2
323(10) 0.00955 293.1 23.2
310(9) 0.01017 293.1 23.2
289(9) 0.01115 293.1 23.2
317(9) 0.01047 293.1 23.2
335(9) 0.01012 293.0 23.1
308(9) 0.01040 293.0 23.1
335(10) 0.00927 293.0 22.9
348(10) 0.00892 292.9 22.8
315(9) 0.01056 292.9 22.5
352(10) 0.00968 292.9 22.3
318(10) 0.00997 292.9 22.0
336(10) 0.00855 292.8 21.7
310(10) 0.00996 292.8 21.3
302(9) 0.01110 292.8 20.9
314(9) 0.01070 292.8 20.5
318(10) 0.00998 292.7 20.1
316(10) 0.00943 292.7 19.7
324(10) 0.00988 292.7 19.3
318(9) 0.01059 292.7 18.9
291(9) 0.01136 292.6 18.4
321(10) 0.01006 292.6 18.0
285(9) 0.01081 292.6 17.7
300(9) 0.01051 292.5 17.3
300(9) 0.01129 292.5 16.9
307(9) 0.01065 292.5 16.6
307(9) 0.01011 292.5 16.3
324(10) 0.00928 292.4 16.0
330(10) 0.00975 292.4 15.7
322(9) 0.01044 292.4 15.5
315(9) 0.01051 292.4 15.3
311(9) 0.01021 292.3 15.1
310(10) 0.01004 292.3 14.9
319(10) 0.00966 292.3 14.8
322(9) 0.01057 292.2 14.6
342(10) 0.00946 292.2 14.5
311(9) 0.01040 292.2 14.5
312(10) 0.00989 292.2 14.4
288(9) 0.01107 292.1 14.4
315(9) 0.01071 292.1 14.4
315(10) 0.01006 292.1 14.4
294(9) 0.01045 292.1 14.5
293(9) 0.01080 292.0 14.6
306(9) 0.01045 292.0 14.7
289(9) 0.01153 292.0 14.8
291(9) 0.01071 292.0 15.0
308(9) 0.01010 291.9 15.2
318(10) 0.00981 291.9 15.4
311(9) 0.01056 291.9 15.7
315(9) 0.01068 291.8 16.0
315(10) 0.00976 291.8 16.3
294(9) 0.01030 291.8 16.7
314(10) 0.00978 291.8 17.2
313(9) 0.01065 291.7 17.7
315(9) 0.01075 291.7 18.2
331(10) 0.00976 291.7 18.9
309(10) 0.00964 291.7 19.6
312(9) 0.01018 291.6 20.4
325(9) 0.01033 291.6 21.3
332(10) 0.01007 291.6 22.3
310(9) 0.01029 291.6 23.4
338(10) 0.00842 291.5 24.7
308(9) 0.01054 291.5 26.1
329(9) 0.01039 291.5 27.8
328(9) 0.01023 291.4 29.6
346(10) 0.00909 291.4 31.8
330(10) 0.00892 291.4 34.2
332(10) 0.00952 291.4 36.9
357(10) 0.00955 291.3 40.0
336(9) 0.01014 291.3 43.5
360(10) 0.00874 291.3 47.3
351(10) 0.00863 291.3 51.5
350(10) 0.00871 291.2 55.9
347(10) 0.00969 291.2 60.3
358(10) 0.00916 291.2 64.6
382(10) 0.00853 291.1 68.3
356(10) 0.00882 291.1 71.4
374(10) 0.00847 291.1 73.8
381(10) 0.00896 291.1 75.7
383(10) 0.00869 291.0 77.2
413(11) 0.00768 291.0 78.8
401(11) 0.00764 291.0 80.7
416(11) 0.00744 291.0 83.3
399(10) 0.00858 290.9 86.7
416(11) 0.00791 290.9 91.1
418(11) 0.00773 290.9 96.5
434(11) 0.00738 290.9 102.8
414(11) 0.00789 290.8 110.1
454(11) 0.00760 290.8 118.0
514(12) 0.00645 290.8 126.3
495(12) 0.00678 290.7 134.5
529(12) 0.00617 290.7 142.0
502(12) 0.00677 290.7 148.1
538(12) 0.00649 290.7 152.1
488(12) 0.00659 290.6 153.5
449(12) 0.00702 290.6 152.1
457(12) 0.00700 290.6 147.8
442(11) 0.00768 290.6 141.3
462(11) 0.00745 290.5 133.0
438(11) 0.00735 290.5 123.7
427(11) 0.00736 290.5 113.9
429(11) 0.00756 290.5 104.3
423(11) 0.00802 290.4 95.0
411(11) 0.00835 290.4 86.4
406(11) 0.00787 290.4 78.5
376(11) 0.00820 290.3 71.3
386(10) 0.00847 290.3 64.9
363(10) 0.00956 290.3 59.2
380(10) 0.00892 290.3 54.2
352(10) 0.00910 290.2 49.6
360(10) 0.00845 290.2 45.6
381(11) 0.00834 290.2 42.1
326(9) 0.01016 290.2 38.9
351(10) 0.00957 290.1 36.1
357(10) 0.00896 290.1 33.6
323(10) 0.00938 290.1 31.4
333(10) 0.00938 290.0 29.4
348(10) 0.00956 290.0 27.6
309(9) 0.01071 290.0 26.0
312(9) 0.01039 290.0 24.5
325(10) 0.00914 289.9 23.2
337(10) 0.00934 289.9 22.0
325(9) 0.01032 289.9 20.9
315(9) 0.01039 289.9 19.9
312(9) 0.01034 289.8 19.0
327(10) 0.00916 289.8 18.2
323(10) 0.00984 289.8 17.4
307(9) 0.01100 289.8 16.7
311(9) 0.01061 289.7 16.1
321(10) 0.00993 289.7 15.5
302(10) 0.01001 289.7 15.0
323(10) 0.00931 289.6 14.5
325(9) 0.01040 289.6 14.1
281(9) 0.01130 289.6 13.7
293(9) 0.01060 289.6 13.3
312(10) 0.00993 289.5 13.0
302(9) 0.01062 289.5 12.7
305(9) 0.01106 289.5 12.4
283(9) 0.01110 289.5 12.1
317(10) 0.00982 289.4 11.9
301(9) 0.01072 289.4 11.7
310(9) 0.01059 289.4 11.5
329(9) 0.01026 289.4 11.3
301(9) 0.01075 289.3 11.2
299(9) 0.01025 289.3 11.0
324(10) 0.00958 289.3 10.9
293(9) 0.01116 289.2 10.8
286(9) 0.01162 289.2 10.8
323(10) 0.00946 289.2 10.7
280(9) 0.01076 289.2 10.7
294(9) 0.01048 289.1 10.7
295(9) 0.01112 289.1 10.7
293(9) 0.01136 289.1 10.7
295(9) 0.01080 289.1 10.7
288(9) 0.01032 289.0 10.8
282(9) 0.01084 289.0 10.8
273(9) 0.01212 289.0 10.9
279(9) 0.01164 288.9 11.1
287(9) 0.01063 288.9 11.2
320(10) 0.00934 288.9 11.3
294(9) 0.01086 288.9 11.5
300(9) 0.01122 288.8 11.7
294(9) 0.01135 288.8 11.9
290(9) 0.01070 288.8 12.2
272(9) 0.01063 288.8 12.5
273(9) 0.01165 288.7 12.7
292(9) 0.01148 288.7 13.1
288(9) 0.01154 288.7 13.4
283(9) 0.01141 288.7 13.8
285(9) 0.01056 288.6 14.1
302(9) 0.01070 288.6 14.5
297(9) 0.01134 288.6 14.9
303(9) 0.01079 288.5 15.4
296(9) 0.01085 288.5 15.8
286(9) 0.01052 288.5 16.2
274(9) 0.01141 288.5 16.6
290(9) 0.01139 288.4 17.0
306(9) 0.01062 288.4 17.3
315(9) 0.01009 288.4 17.6
322(10) 0.00968 288.4 17.9
316(9) 0.01020 288.3 18.1
294(9) 0.01138 288.3 18.3
289(9) 0.01130 288.3 18.3
310(10) 0.01006 288.3 18.3
293(9) 0.01045 288.2 18.2
290(9) 0.01073 288.2 18.1
318(9) 0.01069 288.2 17.9
315(9) 0.01013 288.1 17.6
301(9) 0.01012 288.1 17.3
321(10) 0.00954 288.1 16.9
310(9) 0.01054 288.1 16.5
288(9) 0.01154 288.0 16.0
293(9) 0.01091 288.0 15.6
294(9) 0.01015 288.0 15.1
306(9) 0.01010 288.0 14.7
301(9) 0.01062 287.9 14.2
278(9) 0.01201 287.9 13.8
311(9) 0.01008 287.9 13.4
285(9) 0.01083 287.8 13.0
303(9) 0.01055 287.8 12.6
299(9) 0.01064 287.8 12.2
262(8) 0.01254 287.8 11.9
274(9) 0.01133 287.7 11.5
293(9) 0.01052 287.7 11.2
280(9) 0.01151 287.7 11.0
296(9) 0.01097 287.7 10.7
272(9) 0.01213 287.6 10.5
268(9) 0.01134 287.6 10.2
296(9) 0.01032 287.6 10.0
297(9) 0.01039 287.6 9.8
277(9) 0.01169 287.5 9.6
278(9) 0.01180 287.5 9.5
282(9) 0.01130 287.5 9.3
280(9) 0.01066 287.4 9.2
295(9) 0.01054 287.4 9.1
295(9) 0.01126 287.4 9.0
306(9) 0.01093 287.4 8.8
288(9) 0.01130 287.3 8.8
292(9) 0.01043 287.3 8.7
300(9) 0.01055 287.3 8.6
293(9) 0.01103 287.3 8.5
281(9) 0.01172 287.2 8.4
295(9) 0.01047 287.2 8.4
278(9) 0.01052 287.2 8.3
293(10) 0.01007 287.1 8.3
283(9) 0.01166 287.1 8.2
299(9) 0.01082 287.1 8.2
310(9) 0.01046 287.1 8.1
327(10) 0.00925 287.0 8.1
283(9) 0.01117 287.0 8.0
272(9) 0.01221 287.0 8.0
258(8) 0.01258 287.0 8.0
299(9) 0.01050 286.9 7.9
301(9) 0.01022 286.9 7.9
295(9) 0.01040 286.9 7.8
278(9) 0.01185 286.9 7.8
299(9) 0.01061 286.8 7.8
278(9) 0.01090 286.8 7.7
252(9) 0.01194 286.8 7.7
297(9) 0.01033 286.7 7.6
299(9) 0.01118 286.7 7.6
278(9) 0.01180 286.7 7.5
282(9) 0.01106 286.7 7.4
288(9) 0.01098 286.6 7.4
289(9) 0.01100 286.6 7.3
265(8) 0.01249 286.6 7.3
285(9) 0.01117 286.6 7.2
292(9) 0.01052 286.5 7.1
276(9) 0.01121 286.5 7.1
275(9) 0.01180 286.5 7.0
272(9) 0.01218 286.5 6.9
300(9) 0.01054 286.4 6.8
255(9) 0.01231 286.4 6.8
258(8) 0.01237 286.4 6.7
295(9) 0.01090 286.3 6.6
284(9) 0.01184 286.3 6.5
282(9) 0.01136 286.3 6.4
293(9) 0.01040 286.3 6.4
297(9) 0.01077 286.2 6.3
286(9) 0.01154 286.2 6.2
290(9) 0.01132 286.2 6.1
284(9) 0.01126 286.2 6.0
285(9) 0.01051 286.1 5.9
291(9) 0.01059 286.1 5.9
284(9) 0.01167 286.1 5.8
292(9) 0.01127 286.0 5.7
292(9) 0.01069 286.0 5.6
284(9) 0.01012 286.0 5.6
280(9) 0.01092 286.0 5.5
277(9) 0.01197 285.9 5.4
299(9) 0.01104 285.9 5.3
290(9) 0.01095 285.9 5.3
314(10) 0.00903 285.9 5.2
267(9) 0.01167 285.8 5.1
271(8) 0.01236 285.8 5.1
277(9) 0.01152 285.8 5.0
295(10) 0.00987 285.8 4.9
289(9) 0.01021 285.7 4.9
280(9) 0.01090 285.7 4.8
308(9) 0.01087 285.7 4.7
252(8) 0.01319 285.6 4.7
269(9) 0.01131 285.6 4.6
274(9) 0.01119 285.6 4.6
290(9) 0.01101 285.6 4.5
293(9) 0.01141 285.5 4.5
280(9) 0.01161 285.5 4.4
299(9) 0.01068 285.5 4.4
298(9) 0.01013 285.5 4.3
279(9) 0.01167 285.4 4.3
260(8) 0.01260 285.4 4.2
282(9) 0.01105 285.4 4.2
280(9) 0.01096 285.4 4.2
283(9) 0.01094 285.3 4.1
284(9) 0.01138 285.3 4.1
265(8) 0.01235 285.3 4.0
275(9) 0.01125 285.2 4.0
290(9) 0.01040 285.2 4.0
301(9) 0.01023 285.2 3.9
280(9) 0.01178 285.2 3.9
282(9) 0.01173 285.1 3.9
286(9) 0.01077 285.1 3.8
259(9) 0.01206 285.1 3.8
275(9) 0.01099 285.1 3.8
272(9) 0.01208 285.0 3.8
282(9) 0.01176 285.0 3.7
279(9) 0.01124 285.0 3.7
295(10) 0.01002 284.9 3.7
300(10) 0.01001 284.9 3.7
288(9) 0.01140 284.9 3.6
296(9) 0.01121 284.9 3.6
288(9) 0.01078 284.8 3.6
291(10) 0.01007 284.8 3.6
299(9) 0.01077 284.8 3.6
299(9) 0.01108 284.8 3.5
276(9) 0.01203 284.8 3.5
300(9) 0.01027 284.8 3.5
292(9) 0.01024 284.7 3.5
265(9) 0.01182 284.7 3.5
279(9) 0.01178 284.7 3.5
284(9) 0.01177 284.7 3.4
274(9) 0.01131 284.7 3.4
290(10) 0.00995 284.7 3.4
285(9) 0.01099 284.7 3.4
278(9) 0.01192 284.6 3.4
284(9) 0.01156 284.6 3.4
266(9) 0.01209 284.6 3.4
292(9) 0.01023 284.6 3.4
309(9) 0.01015 284.6 3.4
277(9) 0.01191 284.6 3.4
277(9) 0.01175 284.6 3.3
274(9) 0.01146 284.6 3.3
302(10) 0.00995 284.5 3.3
304(9) 0.01026 284.5 3.3
290(9) 0.01141 284.5 3.3
269(9) 0.01174 284.5 3.3
265(9) 0.01164 284.5 3.3
277(9) 0.01096 284.5 3.3
284(9) 0.01073 284.5 3.3
256(8) 0.01290 284.4 3.3
278(9) 0.01159 284.4 3.3
313(10) 0.00973 284.4 3.3
275(9) 0.01106 284.4 3.3
268(9) 0.01189 284.4 3.3
273(9) 0.01211 284.4 3.3
300(9) 0.01036 284.4 3.3
276(9) 0.01080 284.4 3.3
270(9) 0.01187 284.3 3.3
266(8) 0.01236 284.3 3.3
278(9) 0.01200 284.3 3.3
293(9) 0.01053 284.3 3.4
281(9) 0.01094 284.3 3.4
271(9) 0.01147 284.3 3.4
269(9) 0.01191 284.3 3.4
290(9) 0.01142 284.2 3.4
274(9) 0.01149 284.2 3.4
297(9) 0.01019 284.2 3.4
314(9) 0.01015 284.2 3.4
296(9) 0.01103 284.2 3.4
284(9) 0.01158 284.2 3.4
290(9) 0.01063 284.2 3.4
286(9) 0.01015 284.1 3.5
267(9) 0.01209 284.1 3.5
284(9) 0.01136 284.1 3.5
295(9) 0.01139 284.1 3.5
295(9) 0.01094 284.1 3.5
284(10) 0.01003 284.1 3.5
270(9) 0.01170 284.1 3.6
291(9) 0.01127 284.1 3.6
277(9) 0.01194 284.0 3.6
281(9) 0.01107 284.0 3.6
276(9) 0.01033 284.0 3.6
261(9) 0.01194 284.0 3.7
269(8) 0.01240 284.0 3.7
285(9) 0.01160 284.0 3.7
258(8) 0.01234 284.0 3.7
265(9) 0.01111 283.9 3.8
270(9) 0.01176 283.9 3.8
295(9) 0.01134 283.9 3.8
294(9) 0.01139 283.9 3.9
292(9) 0.01059 283.9 3.9
312(10) 0.00991 283.9 3.9
299(9) 0.01059 283.9 4.0
269(9) 0.01228 283.9 4.0
288(9) 0.01139 283.8 4.0
283(9) 0.01121 283.8 4.1
311(10) 0.00957 283.8 4.1
311(10) 0.00979 283.8 4.2
314(9) 0.01060 283.8 4.2
306(9) 0.01082 283.8 4.3
275(9) 0.01131 283.8 4.3
274(9) 0.01115 283.7 4.4
268(9) 0.01188 283.7 4.4
285(9) 0.01171 283.7 4.5
294(9) 0.01080 283.7 4.6
295(9) 0.01077 283.7 4.6
293(9) 0.01091 283.7 4.7
297(9) 0.01083 283.7 4.8
290(9) 0.01150 283.6 4.9
298(9) 0.01053 283.6 5.0
303(10) 0.00987 283.6 5.1
290(9) 0.01079 283.6 5.2
300(9) 0.01088 283.6 5.3
290(9) 0.01151 283.6 5.4
303(9) 0.01015 283.6 5.5
288(9) 0.01073 283.6 5.7
286(9) 0.01097 283.5 5.8
274(9) 0.01168 283.5 6.0
307(9) 0.01093 283.5 6.2
263(9) 0.01194 283.5 6.4
281(9) 0.01083 283.5 6.6
319(10) 0.00972 283.5 6.9
272(9) 0.01203 283.5 7.2
276(9) 0.01198 283.4 7.5
283(9) 0.01149 283.4 7.9
308(10) 0.00961 283.4 8.3
309(9) 0.01014 283.4 8.8
301(9) 0.01092 283.4 9.3
265(8) 0.01257 283.4 10.0
287(9) 0.01118 283.4 10.7
300(10) 0.00978 283.3 11.6
307(9) 0.01010 283.3 12.7
276(9) 0.01209 283.3 13.9
294(9) 0.01110 283.3 15.4
307(9) 0.01037 283.3 17.1
312(10) 0.00937 283.3 19.1
289(9) 0.01112 283.3 21.3
304(9) 0.01102 283.3 23.6
307(9) 0.01053 283.2 26.0
315(10) 0.00996 283.2 28.0
317(10) 0.00939 283.2 29.4
331(10) 0.00918 283.2 29.8
330(9) 0.01022 283.2 29.3
317(9) 0.01051 283.2 28.0
311(9) 0.01025 283.2 26.1
318(10) 0.00956 283.1 23.9
311(9) 0.01036 283.1 21.8
306(9) 0.01091 283.1 19.8
289(9) 0.01123 283.1 18.1
298(9) 0.01050 283.1 16.7
291(9) 0.01112 283.1 15.5
301(9) 0.01064 283.1 14.5
291(9) 0.01147 283.1 13.7
291(9) 0.01099 283.0 13.0
307(10) 0.00992 283.0 12.5
284(9) 0.01103 283.0 12.2
285(9) 0.01131 283.0 11.9
300(9) 0.01127 283.0 11.7
315(10) 0.00995 283.0 11.5
291(9) 0.01058 283.0 11.5
318(10) 0.00982 282.9 11.4
306(9) 0.01055 282.9 11.5
315(9) 0.01074 282.9 11.6
261(9) 0.01202 282.9 11.7
267(9) 0.01137 282.9 11.9
281(9) 0.01151 282.9 12.1
299(9) 0.01104 282.9 12.4
297(9) 0.01144 282.8 12.7
298(9) 0.01023 282.8 13.1
294(9) 0.01014 282.8 13.5
298(9) 0.01044 282.8 14.0
297(9) 0.01104 282.8 14.5
295(9) 0.01140 282.8 15.1
306(9) 0.01063 282.8 15.9
305(10) 0.00995 282.8 16.6
306(9) 0.01024 282.7 17.5
281(9) 0.01179 282.7 18.5
290(9) 0.01150 282.7 19.6
287(9) 0.01105 282.7 20.9
296(10) 0.00993 282.7 22.2
296(9) 0.01081 282.7 23.7
290(9) 0.01154 282.7 25.3
289(9) 0.01143 282.6 27.0
261(9) 0.01205 282.6 28.7
291(9) 0.01018 282.6 30.3
312(10) 0.01005 282.6 31.8
297(9) 0.01121 282.6 33.1
309(9) 0.01083 282.6 34.1
330(10) 0.00935 282.6 34.6
302(10) 0.00990 282.6 34.7
282(9) 0.01108 282.5 34.3
296(9) 0.01120 282.5 33.6
290(9) 0.01114 282.5 32.7
289(9) 0.01058 282.5 31.6
305(10) 0.00976 282.5 30.4
317(9) 0.01010 282.5 29.3
290(9) 0.01145 282.5 28.3
305(9) 0.01048 282.4 27.3
290(9) 0.01083 282.4 26.6
276(9) 0.01134 282.4 25.9
296(9) 0.01078 282.4 25.4
282(9) 0.01166 282.4 25.0
293(9) 0.01097 282.4 24.8
311(10) 0.00982 282.4 24.6
307(9) 0.01015 282.3 24.6
294(9) 0.01102 282.3 24.7
290(9) 0.01142 282.3 24.9
302(9) 0.01048 282.3 25.2
303(10) 0.00992 282.3 25.6
310(10) 0.00970 282.3 26.1
309(9) 0.01036 282.3 26.7
322(9) 0.01044 282.3 27.3
319(10) 0.00971 282.2 28.1
306(10) 0.00993 282.2 28.9
311(9) 0.01043 282.2 29.9
298(9) 0.01125 282.2 30.9
323(9) 0.01047 282.2 32.1
325(9) 0.01015 282.2 33.3
330(10) 0.00903 282.2 34.7
323(10) 0.00966 282.1 36.2
329(9) 0.01027 282.1 37.8
328(9) 0.01028 282.1 39.6
323(10) 0.00982 282.1 41.5
331(10) 0.00925 282.1 43.5
323(10) 0.00977 282.1 45.7
320(9) 0.01058 282.1 48.1
344(10) 0.00970 282.0 50.6
358(10) 0.00902 282.0 53.2
337(10) 0.00882 282.0 56.0
367(10) 0.00886 282.0 58.9
356(10) 0.00955 282.0 61.9
346(10) 0.00967 282.0 65.0
395(11) 0.00763 282.0 68.1
380(11) 0.00825 282.0 71.2
389(11) 0.00837 281.9 74.1
386(10) 0.00895 281.9 76.9
377(10) 0.00897 281.9 79.5
372(10) 0.00887 281.9 81.7
377(11) 0.00799 281.9 83.5
343(10) 0.00931 281.9 84.8
373(10) 0.00916 281.9 85.6
350(10) 0.00946 281.8 85.8
331(10) 0.00972 281.8 85.4
370(11) 0.00832 281.8 84.4
355(10) 0.00894 281.8 83.0
364(10) 0.00934 281.8 81.2
341(10) 0.00966 281.8 79.0
343(10) 0.00925 281.8 76.5
365(11) 0.00819 281.8 73.9
339(10) 0.00956 281.7 71.1
321(9) 0.01049 281.7 68.4
363(10) 0.00888 281.7 65.6
359(10) 0.00849 281.7 63.0
355(10) 0.00872 281.7 60.4
350(10) 0.00930 281.7 58.0
334(9) 0.01008 281.7 55.7
342(10) 0.00956 281.6 53.6
302(9) 0.01055 281.6 51.6
344(10) 0.00911 281.6 49.8
337(10) 0.00947 281.6 48.1
326(9) 0.01033 281.6 46.6
307(9) 0.01021 281.6 45.2
301(9) 0.01026 281.6 44.0
318(10) 0.01005 281.5 42.8
343(10) 0.00975 281.5 41.9
318(9) 0.01051 281.5 41.0
325(10) 0.00962 281.5 40.2
310(10) 0.00958 281.5 39.5
303(9) 0.01025 281.5 39.0
297(9) 0.01131 281.5 38.5
333(9) 0.01014 281.5 38.0
322(10) 0.00971 281.4 37.7
326(10) 0.00939 281.4 37.4
321(10) 0.00971 281.4 37.1
317(9) 0.01069 281.4 36.9
314(9) 0.01068 281.4 36.8
287(9) 0.01048 281.4 36.7
296(10) 0.00973 281.4 36.5
294(9) 0.01066 281.3 36.5
307(9) 0.01078 281.3 36.4
288(9) 0.01151 281.3 36.3
336(10) 0.00927 281.3 36.2
314(10) 0.00943 281.3 36.1
333(10) 0.00943 281.3 36.0
319(9) 0.01053 281.3 35.9
330(9) 0.01012 281.3 35.7
288(9) 0.01113 281.2 35.5
305(10) 0.00987 281.2 35.2
306(9) 0.01058 281.2 35.0
314(9) 0.01068 281.2 34.7
317(9) 0.01046 281.2 34.3
347(10) 0.00903 281.2 33.9
324(10) 0.00915 281.2 33.5
305(10) 0.01004 281.1 33.0
334(10) 0.01000 281.1 32.5
308(9) 0.01087 281.1 31.9
298(9) 0.01033 281.1 31.4
306(10) 0.00990 281.1 30.8
313(10) 0.00996 281.1 30.2
324(9) 0.01034 281.1 29.6
317(10) 0.01007 281.0 28.9
310(9) 0.01015 281.0 28.3
303(9) 0.01051 281.0 27.7
311(9) 0.01014 281.0 27.0
317(9) 0.01066 281.0 26.4
301(9) 0.01036 281.0 25.8
290(9) 0.01058 281.0 25.2
301(9) 0.01010 281.0 24.6
286(9) 0.01092 280.9 24.0
312(9) 0.01089 280.9 23.4
319(10) 0.00978 280.9 22.9
312(10) 0.00972 280.9 22.3
303(9) 0.01030 280.9 21.8
315(9) 0.01029 280.9 21.3
315(9) 0.01050 280.9 20.9
277(9) 0.01112 280.8 20.4
312(10) 0.00960 280.8 20.0
294(9) 0.01050 280.8 19.6
273(9) 0.01206 280.8 19.2
293(9) 0.01129 280.8 18.8
291(9) 0.01086 280.8 18.4
318(10) 0.00917 280.8 18.1
290(9) 0.01090 280.8 17.8
273(9) 0.01194 280.7 17.5
283(9) 0.01159 280.7 17.2
289(9) 0.01086 280.7 16.9
293(10) 0.00994 280.7 16.7
274(9) 0.01130 280.7 16.5
267(8) 0.01233 280.7 16.3
279(9) 0.01201 280.7 16.1
299(10) 0.00991 280.6 15.9
275(9) 0.01092 280.6 15.7
261(9) 0.01204 280.6 15.6
287(9) 0.01154 280.6 15.5
312(9) 0.01073 280.6 15.3
306(9) 0.01033 280.6 15.2
277(9) 0.01112 280.6 15.1
301(9) 0.01013 280.5 15.1
282(9) 0.01173 280.5 15.0
315(9) 0.01053 280.5 15.0
280(9) 0.01161 280.5 14.9
274(9) 0.01095 280.5 14.9
296(9) 0.01065 280.5 14.9
265(8) 0.01245 280.5 14.9
286(9) 0.01125 280.5 15.0
283(9) 0.01086 280.4 15.0
295(9) 0.01049 280.4 15.0
289(9) 0.01083 280.4 15.1
293(9) 0.01129 280.4 15.2
298(9) 0.01070 280.4 15.3
287(9) 0.01048 280.4 15.4
283(9) 0.01059 280.4 15.5
278(9) 0.01150 280.3 15.7
296(9) 0.01130 280.3 15.8
307(9) 0.01024 280.3 16.0
293(9) 0.01038 280.3 16.2
261(9) 0.01213 280.3 16.4
264(9) 0.01228 280.3 16.6
290(9) 0.01153 280.3 16.8
293(9) 0.01072 280.2 17.1
295(9) 0.01033 280.2 17.4
297(9) 0.01049 280.2 17.6
304(9) 0.01086 280.2 17.9
319(9) 0.01055 280.2 18.2
293(9) 0.01085 280.2 18.5
280(9) 0.01094 280.2 18.8
288(9) 0.01049 280.2 19.1
280(9) 0.01158 280.1 19.4
293(9) 0.01141 280.1 19.7
322(10) 0.00932 280.1 20.0
328(10) 0.00918 280.1 20.3
342(10) 0.00924 280.1 20.5
317(9) 0.01022 280.1 20.8
288(9) 0.01155 280.1 21.0
291(9) 0.01075 280.0 21.2
292(9) 0.01032 280.0 21.4
322(10) 0.00972 280.0 21.6
296(9) 0.01104 280.0 21.7
318(9) 0.01062 280.0 21.9
298(9) 0.01061 280.0 22.0
296(10) 0.00945 280.0 22.1
284(9) 0.01044 280.0 22.2
309(9) 0.01091 279.9 22.2
300(9) 0.01119 279.9 22.3
306(9) 0.01012 279.9 22.3
287(9) 0.01017 279.9 22.3
288(9) 0.01098 279.9 22.3
322(9) 0.01059 279.9 22.3
315(9) 0.01062 279.9 22.2
319(10) 0.00986 279.8 22.2
273(9) 0.01139 279.8 22.1
311(10) 0.00999 279.8 22.0
285(9) 0.01176 279.8 21.9
318(9) 0.01008 279.8 21.8
303(9) 0.01034 279.8 21.6
299(9) 0.01042 279.8 21.5
313(10) 0.00961 279.7 21.3
304(9) 0.01106 279.7 21.2
311(9) 0.01031 279.7 21.0
293(9) 0.01106 279.7 20.8
305(10) 0.00993 279.7 20.7
274(9) 0.01164 279.7 20.5
285(9) 0.01161 279.7 20.3
309(9) 0.01045 279.7 20.2
290(9) 0.01070 279.6 20.0
312(10) 0.00971 279.6 19.8
300(9) 0.01076 279.6 19.7
304(9) 0.01104 279.6 19.5
313(9) 0.01025 279.6 19.4
304(9) 0.01033 279.6 19.3
279(9) 0.01125 279.6 19.2
290(9) 0.01125 279.5 19.1
300(9) 0.01106 279.5 19.0
304(9) 0.01009 279.5 18.9
299(10) 0.00990 279.5 18.8
288(9) 0.01069 279.5 18.8
295(9) 0.01085 279.5 18.8
282(9) 0.01170 279.5 18.8
283(9) 0.01123 279.5 18.8
284(9) 0.01029 279.4 18.8
294(9) 0.01067 279.4 18.9
300(9) 0.01119 279.4 18.9
300(9) 0.01120 279.4 19.0
286(9) 0.01117 279.4 19.2
299(9) 0.01014 279.4 19.3
300(9) 0.01065 279.4 19.5
298(9) 0.01137 279.3 19.7
301(9) 0.01093 279.3 19.9
299(9) 0.01032 279.3 20.2
293(10) 0.00999 279.3 20.6
284(9) 0.01096 279.3 20.9
292(9) 0.01149 279.3 21.4
303(9) 0.01086 279.3 21.9
281(9) 0.01149 279.2 22.5
289(10) 0.00993 279.2 23.1
288(9) 0.01084 279.2 23.9
318(9) 0.01059 279.2 24.8
307(9) 0.01079 279.2 25.8
313(9) 0.01039 279.2 27.0
311(9) 0.01017 279.2 28.4
309(9) 0.01044 279.2 30.0
305(9) 0.01085 279.1 31.9
346(10) 0.00949 279.1 34.0
331(10) 0.00941 279.1 36.4
340(10) 0.00894 279.1 39.1
331(10) 0.00954 279.1 41.9
343(10) 0.00984 279.1 44.9
363(10) 0.00926 279.1 47.6
358(10) 0.00897 279.0 49.9
352(10) 0.00877 279.0 51.4
368(10) 0.00870 279.0 51.8
347(10) 0.00972 279.0 51.1
340(10) 0.00954 279.0 49.5
337(10) 0.00927 279.0 47.2
332(10) 0.00910 279.0 44.7
316(10) 0.00994 278.9 42.2
318(9) 0.01055 278.9 39.9
317(9) 0.01023 278.9 37.8
324(10) 0.00958 278.9 36.0
346(10) 0.00916 278.9 34.5
328(9) 0.01011 278.9 33.4
326(9) 0.01028 278.9 32.5
308(9) 0.01021 278.9 31.9
315(10) 0.00987 278.8 31.5
306(9) 0.01085 278.8 31.3
318(9) 0.01024 278.8 31.1
310(9) 0.01076 278.8 31.1
296(9) 0.01051 278.8 30.9
313(10) 0.00934 278.8 30.7
298(9) 0.01063 278.8 30.3
295(9) 0.01102 278.7 29.7
324(9) 0.01027 278.7 29.0
299(9) 0.01066 278.7 28.1
288(9) 0.01073 278.7 27.2
299(9) 0.01043 278.7 26.3
288(9) 0.01147 278.7 25.5
310(9) 0.01082 278.7 24.7
299(9) 0.01031 278.7 24.0
298(9) 0.01011 278.6 23.4
309(9) 0.01037 278.6 22.9
290(9) 0.01141 278.6 22.4
297(9) 0.01116 278.6 22.0
292(9) 0.01081 278.6 21.7
285(9) 0.01063 278.6 21.5
287(9) 0.01081 278.6 21.3
271(9) 0.01223 278.5 21.1
289(9) 0.01146 278.5 21.1
283(9) 0.01116 278.5 21.0
300(10) 0.01004 278.5 21.0
306(9) 0.01071 278.5 21.0
277(9) 0.01194 278.5 21.1
291(9) 0.01143 278.5 21.2
308(9) 0.01018 278.4 21.4
301(9) 0.01008 278.4 21.5
285(9) 0.01109 278.4 21.7
305(9) 0.01100 278.4 21.9
296(9) 0.01090 278.4 22.2
320(10) 0.00976 278.4 22.4
303(9) 0.01037 278.4 22.7
282(9) 0.01122 278.4 23.0
266(8) 0.01259 278.3 23.2
286(9) 0.01137 278.3 23.5
309(9) 0.01023 278.3 23.7
291(9) 0.01061 278.3 24.0
284(9) 0.01148 278.3 24.2
292(9) 0.01135 278.3 24.4
294(9) 0.01080 278.3 24.5
298(9) 0.01047 278.2 24.6
292(9) 0.01072 278.2 24.7
276(9) 0.01172 278.2 24.7
290(9) 0.01144 278.2 24.7
287(9) 0.01115 278.2 24.6
298(9) 0.01018 278.2 24.5
283(9) 0.01103 278.2 24.4
320(9) 0.01017 278.2 24.2
284(9) 0.01161 278.1 24.0
300(9) 0.01054 278.1 23.8
270(9) 0.01124 278.1 23.5
294(9) 0.01058 278.1 23.3
303(9) 0.01059 278.1 23.1
310(9) 0.01075 278.1 22.9
297(9) 0.01059 278.1 22.7
321(10) 0.00934 278.0 22.6
311(9) 0.01025 278.0 22.5
306(9) 0.01074 278.0 22.4
304(9) 0.01114 278.0 22.4
307(9) 0.01043 278.0 22.5
297(10) 0.00966 278.0 22.6
297(9) 0.01037 278.0 22.8
281(9) 0.01175 277.9 23.1
317(9) 0.01068 277.9 23.5
310(9) 0.01020 277.9 24.0
291(10) 0.00998 277.9 24.5
310(10) 0.00996 277.9 25.1
298(9) 0.01115 277.9 25.8
317(9) 0.01063 277.9 26.4
307(9) 0.01050 277.9 27.0
281(9) 0.01061 277.8 27.6
301(9) 0.01048 277.8 28.1
299(9) 0.01111 277.8 28.5
309(9) 0.01037 277.8 28.8
315(10) 0.01001 277.8 29.1
291(9) 0.01091 277.8 29.5
314(10) 0.00981 277.8 30.1
322(9) 0.01045 277.7 30.9
302(9) 0.01084 277.7 32.0
313(9) 0.01024 277.7 33.4
323(10) 0.00976 277.7 35.3
312(9) 0.01012 277.7 37.7
298(9) 0.01125 277.7 40.6
306(9) 0.01070 277.7 43.9
353(10) 0.00890 277.6 47.3
373(11) 0.00834 277.6 50.5
361(10) 0.00885 277.6 52.8
360(10) 0.00944 277.6 53.9
347(10) 0.00946 277.6 53.8
370(11) 0.00822 277.6 52.9
355(10) 0.00874 277.6 51.7
322(9) 0.01035 277.6 50.8
338(10) 0.01001 277.5 50.2
334(10) 0.00969 277.5 50.1
359(10) 0.00839 277.5 50.5
321(10) 0.01001 277.5 51.2
345(10) 0.00946 277.5 52.1
326(9) 0.01036 277.5 53.1
324(10) 0.00967 277.5 54.1
335(10) 0.00911 277.4 54.9
314(10) 0.00998 277.4 55.3
316(9) 0.01028 277.4 55.4
323(9) 0.01045 277.4 55.1
340(10) 0.00933 277.4 54.4
320(10) 0.00929 277.4 53.3
336(10) 0.00930 277.4 52.0
319(9) 0.01027 277.4 50.4
322(9) 0.01049 277.3 48.8
308(9) 0.01041 277.3 47.2
319(10) 0.00918 277.3 45.7
299(9) 0.01066 277.3 44.3
302(9) 0.01087 277.3 43.0
295(9) 0.01136 277.3 42.0
312(9) 0.01011 277.3 41.2
321(10) 0.00903 277.2 40.6
303(9) 0.01022 277.2 40.2
304(9) 0.01091 277.2 40.1
317(9) 0.01059 277.2 40.2
292(9) 0.01105 277.2 40.5
297(10) 0.00975 277.2 41.0
307(10) 0.00996 277.2 41.8
308(9) 0.01085 277.1 42.8
322(9) 0.01032 277.1 44.0
312(10) 0.01005 277.1 45.4
324(10) 0.00917 277.1 47.0
314(10) 0.01000 277.1 48.7
288(9) 0.01161 277.1 50.6
360(10) 0.00929 277.1 52.5
353(10) 0.00913 277.1 54.5
355(10) 0.00859 277.0 56.4
355(10) 0.00887 277.0 58.2
353(10) 0.00962 277.0 59.8
335(10) 0.00974 277.0 61.2
325(10) 0.00984 277.0 62.2
343(10) 0.00923 277.0 62.9
339(10) 0.00961 277.0 63.2
334(9) 0.01010 276.9 63.1
291(9) 0.01110 276.9 62.7
356(10) 0.00866 276.9 62.0
328(10) 0.00948 276.9 61.0
311(9) 0.01041 276.9 59.9
330(9) 0.01031 276.9 58.7
337(10) 0.00932 276.9 57.4
319(10) 0.00988 276.9 56.0
327(10) 0.00976 276.8 54.5
325(10) 0.01005 276.8 52.9
298(9) 0.01117 276.8 51.2
310(9) 0.01042 276.8 49.2
337(10) 0.00938 276.8 47.1
317(10) 0.00981 276.8 44.9
332(10) 0.00971 276.8 42.5
323(9) 0.01055 276.7 40.1
323(10) 0.00958 276.7 37.7
307(10) 0.00974 276.7 35.3
300(10) 0.00984 276.7 33.1
314(9) 0.01032 276.7 31.0
300(9) 0.01131 276.7 29.1
287(9) 0.01088 276.7 27.3
281(9) 0.01052 276.6 25.7
296(9) 0.01053 276.6 24.2
279(9) 0.01183 276.6 22.9
314(9) 0.01056 276.6 21.7
280(9) 0.01159 276.6 20.6
316(10) 0.00932 276.6 19.6
288(9) 0.01115 276.6 18.7
299(9) 0.01113 276.6 17.8
295(9) 0.01109 276.5 17.1
284(9) 0.01085 276.5 16.4
294(10) 0.00991 276.5 15.8
285(9) 0.01112 276.5 15.3
272(9) 0.01230 276.5 14.8
296(9) 0.01116 276.5 14.3
277(9) 0.01117 276.5 13.9
267(9) 0.01078 276.4 13.5
271(9) 0.01200 276.4 13.2
281(9) 0.01165 276.4 12.9
279(9) 0.01182 276.4 12.7
285(9) 0.01102 276.4 12.4
286(9) 0.01029 276.4 12.2
285(9) 0.01105 276.4 12.1
289(9) 0.01153 276.3 11.9
267(9) 0.01189 276.3 11.8
300(9) 0.01014 276.3 11.8
274(9) 0.01102 276.3 11.7
274(9) 0.01120 276.3 11.7
297(9) 0.01123 276.3 11.7
289(9) 0.01096 276.3 11.8
290(9) 0.01055 276.3 11.9
275(9) 0.01166 276.2 12.0
274(9) 0.01138 276.2 12.1
266(9) 0.01227 276.2 12.3
265(9) 0.01211 276.2 12.5
285(9) 0.01067 276.2 12.7
299(9) 0.01042 276.2 12.9
293(9) 0.01104 276.2 13.2
277(9) 0.01198 276.1 13.4
267(9) 0.01159 276.1 13.7
275(9) 0.01100 276.1 13.9
300(10) 0.01002 276.1 14.1
282(9) 0.01097 276.1 14.3
267(8) 0.01255 276.1 14.3
295(9) 0.01091 276.1 14.4
271(9) 0.01176 276.1 14.3
269(9) 0.01165 276.0 14.2
257(8) 0.01237 276.0 13.9
283(9) 0.01175 276.0 13.7
300(9) 0.01030 276.0 13.4
276(9) 0.01101 276.0 13.0
298(9) 0.01069 276.0 12.6
309(9) 0.01069 276.0 12.3
290(9) 0.01141 275.9 11.9
284(9) 0.01070 275.9 11.5
280(9) 0.01057 275.9 11.2
255(8) 0.01274 275.9 10.9
265(8) 0.01234 275.9 10.6
268(9) 0.01224 275.9 10.3
282(9) 0.01119 275.9 10.0
283(9) 0.01022 275.8 9.8
271(9) 0.01121 275.8 9.6
262(8) 0.01243 275.8 9.4
282(9) 0.01169 275.8 9.3
299(9) 0.01014 275.8 9.1
277(9) 0.01045 275.8 9.0
277(9) 0.01109 275.8 8.9
261(8) 0.01250 275.8 8.8
259(8) 0.01259 275.8 8.7
269(9) 0.01129 275.8 8.7
279(9) 0.01066 275.8 8.6
263(9) 0.01186 275.8 8.6
295(9) 0.01111 275.8 8.6
302(9) 0.01096 275.8 8.6
261(9) 0.01198 275.8 8.6
304(10) 0.00951 275.8 8.6
282(9) 0.01082 275.8 8.7
277(9) 0.01202 275.8 8.7
262(9) 0.01190 275.8 8.8
264(9) 0.01140 275.8 8.8
287(9) 0.01050 275.8 8.9
276(9) 0.01104 275.8 9.0
279(9) 0.01199 275.8 9.1
270(9) 0.01184 275.8 9.2
295(9) 0.01043 275.8 9.4
286(9) 0.01078 275.8 9.5
293(9) 0.01104 275.8 9.6
288(9) 0.01141 275.8 9.8
272(9) 0.01193 275.8 10.0
285(9) 0.01053 275.8 10.2
260(9) 0.01195 275.8 10.4
270(9) 0.01170 275.8 10.6
273(9) 0.01196 275.8 10.9
281(9) 0.01101 275.8 11.1
288(9) 0.01027 275.8 11.4
275(9) 0.01097 275.8 11.7
270(9) 0.01209 275.8 12.0
270(9) 0.01224 275.8 12.4
271(9) 0.01130 275.8 12.7
268(9) 0.01110 275.8 13.1
285(9) 0.01110 275.7 13.6
274(9) 0.01204 275.7 14.0
287(9) 0.01152 275.7 14.5
273(9) 0.01162 275.7 15.0
284(10) 0.00978 275.7 15.6
274(9) 0.01102 275.7 16.2
272(9) 0.01224 275.7 16.9
320(9) 0.01038 275.7 17.6
295(9) 0.01048 275.7 18.3
292(10) 0.00980 275.7 19.1
297(9) 0.01039 275.7 20.0
299(9) 0.01128 275.7 21.0
285(9) 0.01150 275.7 22.0
290(9) 0.01090 275.7 23.0
298(10) 0.00995 275.7 24.2
303(9) 0.01025 275.7 25.4
286(9) 0.01166 275.7 26.8
317(9) 0.01057 275.7 28.2
318(10) 0.00985 275.7 29.7
316(10) 0.00984 275.7 31.3
317(10) 0.01003 275.7 33.0
315(9) 0.01067 275.7 34.8
312(9) 0.01057 275.7 36.7
302(9) 0.01044 275.7 38.6
318(10) 0.00987 275.7 40.6
341(10) 0.00925 275.7 42.7
326(9) 0.01026 275.7 44.8
313(9) 0.01041 275.7 46.9
314(10) 0.00974 275.7 48.9
337(10) 0.00950 275.7 50.9
338(10) 0.00949 275.7 52.7
324(9) 0.01045 275.7 54.3
327(10) 0.00989 275.7 55.7
322(10) 0.00941 275.7 56.8
340(10) 0.00891 275.7 57.6
316(9) 0.01014 275.7 58.0
319(9) 0.01062 275.7 58.1
326(10) 0.00978 275.7 57.8
331(10) 0.00942 275.7 57.1
317(10) 0.00979 275.7 56.1
311(9) 0.01059 275.7 54.8
298(9) 0.01112 275.7 53.2
312(9) 0.01014 275.7 51.5
308(9) 0.01015 275.7 49.6
291(9) 0.01083 275.7 47.6
324(9) 0.01033 275.7 45.5
347(10) 0.00971 275.7 43.4
291(9) 0.01100 275.7 41.4
309(10) 0.00961 275.7 39.3
324(10) 0.00987 275.7 37.4
309(9) 0.01075 275.7 35.5
323(9) 0.01046 275.7 33.7
303(9) 0.01021 275.7 31.9
260(9) 0.01163 275.7 30.3
308(9) 0.01015 275.7 28.8
280(9) 0.01166 275.7 27.4
304(9) 0.01104 275.7 26.0
281(9) 0.01107 275.7 24.7
287(9) 0.01014 275.7 23.6
287(9) 0.01094 275.7 22.5
290(9) 0.01149 275.6 21.5
284(9) 0.01171 275.6 20.5
278(9) 0.01135 275.6 19.6
274(9) 0.01049 275.6 18.8
293(9) 0.01068 275.6 18.1
315(9) 0.01076 275.6 17.4
302(9) 0.01097 275.6 16.7
303(9) 0.01015 275.6 16.1
278(9) 0.01079 275.6 15.5
282(9) 0.01122 275.6 15.0
291(9) 0.01157 275.6 14.5
298(9) 0.01113 275.6 14.0
309(9) 0.01022 275.6 13.6
275(9) 0.01075 275.6 13.2
257(9) 0.01212 275.6 12.9
296(9) 0.01123 275.6 12.5
285(9) 0.01125 275.6 12.2
290(9) 0.01068 275.6 11.9
287(9) 0.01048 275.6 11.7
286(9) 0.01077 275.6 11.4
288(9) 0.01153 275.6 11.2
281(9) 0.01139 275.6 11.0
293(9) 0.01065 275.6 10.8
293(9) 0.01052 275.6 10.6
268(9) 0.01203 275.6 10.4
282(9) 0.01169 275.6 10.3
280(9) 0.01115 275.6 10.2
279(9) 0.01101 275.6 10.0
292(9) 0.01057 275.6 9.9
301(9) 0.01107 275.6 9.9
291(9) 0.01137 275.6 9.8
268(9) 0.01149 275.6 9.7
276(9) 0.01138 275.6 9.7
295(9) 0.01050 275.6 9.6
295(9) 0.01100 275.6 9.6
284(9) 0.01172 275.6 9.6
276(9) 0.01134 275.6 9.6
300(10) 0.00975 275.6 9.6
288(9) 0.01099 275.6 9.6
277(9) 0.01173 275.6 9.6
288(9) 0.01162 275.6 9.6
285(9) 0.01100 275.6 9.7
277(9) 0.01072 275.6 9.8
264(9) 0.01197 275.6 9.8
251(8) 0.01297 275.6 9.9
280(9) 0.01194 275.6 10.0
275(9) 0.01154 275.6 10.2
292(10) 0.00998 275.6 10.3
303(9) 0.01019 275.6 10.5
262(8) 0.01261 275.6 10.6
270(9) 0.01224 275.6 10.8
288(9) 0.01092 275.6 11.1
280(9) 0.01013 275.6 11.3
276(9) 0.01124 275.6 11.6
283(9) 0.01176 275.6 11.8
282(9) 0.01162 275.6 12.2
271(9) 0.01158 275.6 12.5
308(10) 0.00944 275.6 12.9
285(9) 0.01128 275.6 13.3
272(9) 0.01223 275.6 13.8
284(9) 0.01173 275.6 14.3
265(9) 0.01212 275.5 14.8
282(9) 0.01045 275.5 15.4
285(9) 0.01042 275.5 16.0
283(9) 0.01182 275.5 16.8
296(9) 0.01119 275.5 17.5
311(10) 0.01005 275.5 18.4
282(9) 0.01084 275.5 19.3
301(9) 0.01044 275.5 20.3
310(9) 0.01079 275.5 21.4
298(9) 0.01057 275.5 22.6
299(9) 0.01043 275.5 23.9
301(10) 0.01003 275.5 25.3
306(9) 0.01037 275.5 26.9
293(9) 0.01143 275.5 28.5
304(9) 0.01043 275.5 30.2
292(9) 0.01063 275.5 32.1
291(9) 0.01096 275.5 34.0
319(9) 0.01027 275.5 36.1
309(9) 0.01102 275.5 38.1
301(9) 0.01054 275.5 40.1
296(9) 0.01012 275.5 42.1
315(10) 0.01000 275.5 44.0
314(9) 0.01056 275.5 45.6
298(9) 0.01111 275.5 47.0
323(10) 0.00943 275.5 48.0
314(10) 0.00979 275.5 48.7
313(9) 0.01019 275.5 48.9
337(10) 0.00967 275.5 48.6
318(9) 0.01054 275.5 48.0
311(9) 0.01017 275.5 47.0
321(10) 0.00934 275.5 45.6
304(9) 0.01031 275.5 44.1
338(10) 0.00983 275.5 42.3
294(9) 0.01135 275.5 40.5
319(10) 0.00955 275.5 38.6
308(10) 0.00955 275.5 36.8
292(9) 0.01095 275.5 35.0
277(9) 0.01211 275.5 33.3
302(9) 0.01123 275.5 31.7
295(9) 0.01061 275.5 30.2
306(10) 0.00963 275.5 28.9
309(9) 0.01036 275.5 27.6
286(9) 0.01174 275.5 26.5
310(9) 0.01060 275.5 25.5
286(9) 0.01106 275.5 24.6
290(9) 0.01024 275.5 23.9
278(9) 0.01169 275.5 23.2
302(9) 0.01122 275.5 22.6
296(9) 0.01132 275.5 22.1
301(9) 0.01034 275.5 21.7
281(9) 0.01064 275.5 21.4
304(9) 0.01033 275.5 21.2
294(9) 0.01142 275.5 21.0
297(9) 0.01076 275.5 20.9
289(9) 0.01079 275.5 20.8
269(9) 0.01119 275.5 20.8
287(9) 0.01089 275.5 20.8
298(9) 0.01120 275.5 21.0
291(9) 0.01121 275.5 21.1
299(9) 0.01056 275.5 21.3
284(9) 0.01057 275.4 21.5
302(10) 0.01006 275.4 21.8
288(9) 0.01158 275.4 22.0
310(9) 0.01044 275.4 22.3
309(9) 0.01042 275.4 22.6
316(10) 0.01005 275.4 22.9
316(10) 0.00994 275.4 23.2
318(9) 0.01065 275.4 23.5
297(9) 0.01049 275.4 23.8
287(9) 0.01066 275.4 24.1
289(9) 0.01085 275.4 24.3
305(9) 0.01089 275.4 24.4
300(9) 0.01112 275.4 24.5
321(10) 0.01000 275.4 24.6
326(10) 0.00903 275.4 24.6
314(9) 0.01016 275.4 24.5
301(9) 0.01086 275.4 24.4
293(9) 0.01139 275.4 24.2
307(9) 0.01041 275.4 24.0
297(9) 0.01051 275.4 23.7
307(9) 0.01029 275.4 23.4
303(9) 0.01099 275.4 23.0
290(9) 0.01121 275.4 22.6
287(9) 0.01105 275.4 22.2
292(10) 0.01007 275.4 21.7
302(9) 0.01030 275.4 21.3
296(9) 0.01135 275.4 20.8
295(9) 0.01124 275.4 20.4
304(9) 0.01037 275.4 19.9
314(10) 0.00913 275.4 19.4
311(9) 0.01010 275.4 19.0
289(9) 0.01144 275.4 18.6
288(9) 0.01149 275.4 18.2
278(9) 0.01093 275.4 17.8
285(9) 0.01049 275.4 17.4
292(9) 0.01031 275.4 17.0
282(9) 0.01168 275.4 16.7
293(9) 0.01128 275.4 16.4
285(9) 0.01091 275.4 16.0
281(9) 0.01060 275.4 15.7
287(9) 0.01054 275.4 15.4
258(8) 0.01289 275.4 15.1
263(8) 0.01239 275.4 14.9
275(9) 0.01129 275.4 14.6
287(9) 0.01048 275.4 14.4
295(9) 0.01067 275.4 14.1
307(9) 0.01078 275.4 13.9
254(8) 0.01260 275.4 13.7
290(9) 0.01032 275.4 13.4
253(9) 0.01215 275.4 13.2
279(9) 0.01130 275.4 13.1
288(9) 0.01168 275.4 12.9
290(9) 0.01099 275.4 12.7
276(9) 0.01130 275.4 12.6
280(9) 0.01119 275.4 12.4
276(9) 0.01144 275.4 12.3
265(8) 0.01245 275.4 12.2
297(9) 0.01065 275.4 12.2
286(9) 0.01090 275.4 12.1
293(9) 0.01086 275.4 12.0
284(9) 0.01156 275.4 12.0
254(8) 0.01290 275.3 12.0
277(9) 0.01150 275.3 12.0
280(9) 0.01094 275.3 12.0
266(9) 0.01179 275.3 12.1
273(9) 0.01186 275.3 12.1
278(9) 0.01195 275.3 12.2
299(10) 0.01007 275.3 12.3
297(10) 0.01000 275.3 12.4
284(9) 0.01072 275.3 12.5
271(9) 0.01231 275.3 12.7
288(9) 0.01157 275.3 12.8
290(9) 0.01066 275.3 13.0
288(9) 0.01021 275.3 13.2
277(9) 0.01146 275.3 13.4
260(8) 0.01233 275.3 13.7
267(8) 0.01242 275.3 13.9
284(9) 0.01063 275.3 14.2
279(9) 0.01025 275.3 14.5
294(9) 0.01071 275.3 14.9
284(9) 0.01150 275.3 15.2
286(9) 0.01157 275.3 15.6
305(9) 0.01039 275.3 16.0
288(9) 0.01023 275.3 16.4
263(9) 0.01179 275.3 16.8
284(9) 0.01159 275.3 17.3
295(9) 0.01112 275.3 17.8
303(9) 0.01054 275.3 18.3
287(9) 0.01024 275.3 18.8
293(9) 0.01042 275.3 19.3
314(9) 0.01055 275.3 19.9
306(9) 0.01082 275.3 20.4
292(9) 0.01077 275.3 21.0
280(9) 0.01107 275.3 21.6
309(10) 0.01002 275.3 22.1
307(9) 0.01104 275.3 22.7
316(9) 0.01015 275.3 23.2
292(9) 0.01067 275.3 23.7
310(10) 0.01003 275.3 24.2
313(10) 0.01006 275.3 24.6
293(9) 0.01139 275.3 25.0
291(9) 0.01122 275.3 25.4
304(10) 0.00999 275.3 25.7
329(10) 0.00914 275.3 25.9
270(9) 0.01159 275.3 26.1
283(9) 0.01168 275.3 26.2
319(10) 0.00994 275.3 26.2
294(9) 0.01038 275.3 26.2
294(9) 0.01054 275.3 26.0
321(9) 0.01015 275.3 25.8
291(9) 0.01146 275.3 25.6
293(9) 0.01062 275.3 25.2
299(10) 0.01003 275.3 24.9
289(9) 0.01083 275.3 24.4
300(9) 0.01101 275.3 24.0
272(9) 0.01215 275.3 23.4
279(9) 0.01125 275.3 22.9
299(10) 0.00982 275.3 22.3
286(9) 0.01083 275.3 21.8
287(9) 0.01117 275.3 21.2
277(9) 0.01202 275.3 20.6
302(9) 0.01062 275.3 20.0
309(10) 0.00986 275.2 19.4
284(9) 0.01130 275.2 18.8
305(9) 0.01093 275.2 18.3
291(9) 0.01151 275.2 17.7
275(9) 0.01137 275.2 17.2
270(9) 0.01058 275.2 16.7
282(9) 0.01109 275.2 16.2
276(9) 0.01185 275.2 15.7
280(9) 0.01186 275.2 15.2
300(9) 0.01029 275.2 14.8
291(9) 0.01027 275.2 14.4
272(9) 0.01134 275.2 14.0
267(8) 0.01242 275.2 13.6
286(9) 0.01143 275.2 13.3
272(9) 0.01167 275.2 12.9
270(9) 0.01091 275.2 12.6
264(9) 0.01204 275.2 12.3
314(9) 0.01065 275.2 12.0
298(9) 0.01108 275.2 11.7
277(9) 0.01120 275.2 11.5
247(8) 0.01241 275.2 11.3
269(9) 0.01179 275.2 11.0
270(9) 0.01224 275.2 10.8
273(9) 0.01136 275.2 10.6
275(9) 0.01134 275.2 10.5
296(10) 0.00995 275.2 10.3
292(9) 0.01063 275.2 10.1
284(9) 0.01175 275.2 10.0
280(9) 0.01164 275.2 9.9
251(8) 0.01259 275.2 9.7
290(9) 0.01048 275.2 9.6
282(9) 0.01103 275.2 9.5
259(8) 0.01264 275.2 9.4
271(9) 0.01163 275.2 9.3
293(9) 0.01021 275.2 9.3
308(10) 0.01006 275.2 9.2
285(9) 0.01127 275.2 9.1
262(8) 0.01265 275.2 9.1
277(9) 0.01134 275.2 9.0
283(9) 0.01028 275.2 9.0
286(9) 0.01066 275.2 8.9
293(9) 0.01080 275.2 8.9
284(9) 0.01173 275.2 8.8
262(9) 0.01197 275.2 8.8
254(9) 0.01169 275.2 8.8
258(9) 0.01185 275.2 8.7
255(8) 0.01246 275.2 8.7
281(9) 0.01190 275.2 8.7
262(9) 0.01172 275.2 8.7
277(9) 0.01030 275.2 8.7
289(9) 0.01102 275.2 8.7
281(9) 0.01155 275.2 8.6
275(9) 0.01218 275.2 8.6
282(9) 0.01109 275.2 8.6
268(9) 0.01071 275.2 8.6
282(9) 0.01123 275.2 8.6
289(9) 0.01154 275.2 8.6
268(9) 0.01208 275.2 8.6
276(9) 0.01105 275.2 8.6
265(9) 0.01117 275.2 8.6
293(9) 0.01089 275.1 8.6
287(9) 0.01168 275.1 8.6
276(9) 0.01182 275.1 8.6
275(9) 0.01121 275.1 8.6
279(9) 0.01052 275.1 8.6
270(9) 0.01183 275.1 8.7
296(9) 0.01132 275.1 8.7
271(9) 0.01177 275.1 8.7
286(9) 0.01121 275.1 8.8
302(10) 0.00985 275.1 8.8
289(9) 0.01078 275.1 8.9
267(9) 0.01227 275.1 8.9
262(8) 0.01233 275.1 9.0
273(9) 0.01132 275.1 9.1
278(9) 0.01084 275.1 9.2
260(9) 0.01217 275.1 9.3
277(9) 0.01175 275.1 9.4
280(9) 0.01165 275.1 9.5
283(9) 0.01082 275.1 9.6
286(9) 0.01049 275.1 9.7
269(9) 0.01140 275.1 9.9
270(8) 0.01238 275.1 10.0
292(9) 0.01079 275.1 10.1
281(9) 0.01109 275.1 10.3
264(9) 0.01193 275.1 10.4
259(8) 0.01232 275.1 10.6
295(9) 0.01143 275.1 10.7
285(9) 0.01092 275.1 10.9
282(9) 0.01064 275.0 11.0
279(9) 0.01067 275.0 11.2
253(8) 0.01260 275.0 11.3
288(9) 0.01158 275.0 11.4
281(9) 0.01128 275.0 11.5
264(9) 0.01173 275.0 11.6
269(9) 0.01177 275.0 11.7
292(9) 0.01107 275.0 11.7
282(9) 0.01184 275.0 11.7
284(9) 0.01091 275.0 11.8
273(9) 0.01126 275.0 11.8
284(9) 0.01085 275.0 11.7
269(9) 0.01204 275.0 11.7
284(9) 0.01172 275.0 11.7
263(9) 0.01174 275.0 11.7
275(9) 0.01055 274.9 11.6
274(9) 0.01119 274.9 11.6
273(9) 0.01178 274.9 11.5
282(9) 0.01178 274.9 11.5
292(9) 0.01054 274.9 11.4
300(10) 0.00961 274.9 11.4
264(9) 0.01170 274.9 11.4
259(8) 0.01279 274.9 11.4
277(9) 0.01185 274.9 11.4
262(9) 0.01176 274.9 11.4
278(9) 0.01032 274.9 11.4
278(9) 0.01111 274.9 11.5
303(9) 0.01109 274.9 11.5
280(9) 0.01166 274.9 11.6
262(9) 0.01185 274.9 11.7
254(9) 0.01172 274.8 11.8
277(9) 0.01108 274.8 11.9
275(9) 0.01209 274.8 12.1
296(9) 0.01110 274.8 12.3
274(9) 0.01157 274.8 12.4
292(9) 0.01038 274.8 12.7
299(9) 0.01051 274.8 12.9
283(9) 0.01163 274.8 13.2
289(9) 0.01125 274.8 13.5
284(9) 0.01073 274.8 13.8
280(9) 0.01097 274.8 14.1
279(9) 0.01155 274.8 14.5
286(9) 0.01144 274.8 15.0
303(9) 0.01049 274.8 15.5
284(9) 0.01135 274.7 16.0
289(9) 0.01111 274.7 16.7
292(9) 0.01096 274.7 17.4
291(9) 0.01142 274.7 18.2
254(9) 0.01213 274.7 19.2
323(10) 0.00928 274.7 20.4
317(10) 0.01006 274.7 21.8
320(9) 0.01034 274.7 23.5
299(9) 0.01112 274.7 25.5
302(9) 0.01031 274.7 28.1
302(10) 0.00976 274.7 31.1
288(9) 0.01066 274.7 34.8
320(9) 0.01024 274.7 39.2
333(9) 0.01021 274.7 44.3
305(9) 0.01054 274.7 49.8
288(9) 0.01065 274.6 55.2
307(9) 0.01048 274.6 59.7
316(9) 0.01034 274.6 62.4
309(9) 0.01087 274.6 62.5
317(10) 0.00995 274.6 60.0
317(10) 0.00939 274.6 55.9
329(10) 0.00930 274.6 51.1
279(9) 0.01175 274.6 46.4
312(9) 0.01075 274.6 42.2
316(10) 0.00982 274.6 38.6
298(10) 0.00989 274.6 35.7
306(9) 0.01034 274.6 33.4
312(9) 0.01069 274.6 31.5
298(9) 0.01139 274.6 30.1
294(9) 0.01073 274.5 29.0
304(10) 0.00970 274.5 28.2
297(9) 0.01027 274.5 27.5
301(9) 0.01129 274.5 26.9
307(9) 0.01048 274.5 26.5
301(9) 0.01063 274.5 26.1
309(10) 0.00977 274.5 25.8
318(10) 0.00971 274.5 25.4
291(9) 0.01152 274.5 25.1
303(9) 0.01077 274.5 24.8
287(9) 0.01103 274.5 24.5
307(10) 0.00978 274.5 24.2
298(9) 0.01033 274.5 23.9
311(9) 0.01086 274.5 23.5
305(9) 0.01064 274.5 23.2
296(9) 0.01090 274.4 22.8
302(9) 0.01033 274.4 22.4
312(9) 0.01023 274.4 22.1
284(9) 0.01171 274.4 21.7
306(9) 0.01040 274.4 21.3
274(9) 0.01131 274.4 20.9
282(9) 0.01106 274.4 20.5
289(9) 0.01087 274.4 20.1
273(9) 0.01216 274.4 19.6
319(10) 0.00975 274.4 19.2
298(9) 0.01037 274.4 18.8
292(9) 0.01110 274.4 18.4
306(9) 0.01064 274.4 18.0
293(9) 0.01134 274.4 17.6
294(9) 0.01074 274.3 17.2
293(9) 0.01030 274.3 16.8
275(9) 0.01132 274.3 16.5
284(9) 0.01152 274.3 16.1
298(9) 0.01130 274.3 15.8
290(9) 0.01042 274.3 15.4
275(9) 0.01095 274.3 15.1
278(9) 0.01121 274.3 14.8
275(9) 0.01185 274.3 14.5
288(9) 0.01157 274.3 14.2
316(10) 0.00923 274.3 13.9
263(9) 0.01142 274.3 13.6
291(9) 0.01067 274.3 13.4
286(9) 0.01150 274.3 13.1
257(8) 0.01279 274.3 12.9
278(9) 0.01112 274.2 12.6
277(9) 0.01052 274.2 12.4
297(9) 0.01013 274.2 12.2
292(9) 0.01143 274.2 12.0
274(9) 0.01200 274.2 11.8
260(9) 0.01192 274.2 11.7
289(9) 0.01028 274.2 11.5
288(9) 0.01080 274.2 11.3
283(9) 0.01180 274.2 11.2
296(9) 0.01128 274.2 11.0
299(9) 0.01070 274.2 10.9
269(9) 0.01128 274.2 10.8
283(9) 0.01072 274.2 10.7
291(9) 0.01155 274.2 10.6
279(9) 0.01168 274.1 10.5
285(9) 0.01074 274.1 10.4
279(9) 0.01070 274.1 10.3
285(9) 0.01128 274.1 10.2
275(9) 0.01204 274.1 10.1
279(9) 0.01152 274.1 10.0
262(9) 0.01203 274.1 10.0
287(9) 0.01080 274.1 9.9
266(9) 0.01154 274.1 9.9
282(9) 0.01181 274.1 9.8
282(9) 0.01146 274.1 9.8
285(9) 0.01085 274.1 9.7
283(9) 0.01084 274.1 9.7
263(9) 0.01192 274.1 9.7
281(9) 0.01181 274.1 9.6
298(9) 0.01080 274.0 9.6
273(9) 0.01132 274.0 9.6
299(9) 0.01015 274.0 9.6
265(9) 0.01208 274.0 9.6
278(9) 0.01203 274.0 9.6
272(9) 0.01118 274.0 9.6
288(9) 0.01046 274.0 9.6
287(9) 0.01067 274.0 9.6
259(8) 0.01256 274.0 9.7
290(9) 0.01153 274.0 9.7
269(9) 0.01180 274.0 9.8
270(9) 0.01112 274.0 9.8
276(9) 0.01171 274.0 9.9
286(9) 0.01164 274.0 10.0
291(9) 0.01152 273.9 10.1
294(9) 0.01070 273.9 10.2
296(10) 0.00989 273.9 10.4
298(9) 0.01031 273.9 10.5
273(9) 0.01203 273.9 10.7
274(9) 0.01218 273.9 11.0
256(8) 0.01233 273.9 11.2
307(10) 0.00928 273.9 11.6
301(9) 0.01038 273.9 11.9
290(9) 0.01127 273.9 12.4
278(9) 0.01188 273.9 12.9
289(9) 0.01060 273.9 13.5
302(10) 0.00971 273.9 14.3
304(9) 0.01020 273.9 15.2
305(9) 0.01105 273.9 16.3
296(9) 0.01090 273.8 17.6
307(9) 0.01042 273.8 19.3
294(10) 0.00997 273.8 21.4
290(9) 0.01054 273.8 23.9
317(9) 0.01069 273.8 27.0
333(10) 0.00991 273.8 30.6
317(10) 0.00996 273.8 35.0
330(10) 0.00942 273.8 40.0
344(10) 0.00923 273.8 45.5
340(10) 0.00993 273.8 51.2
331(10) 0.00988 273.8 56.4
357(10) 0.00896 273.8 60.3
358(11) 0.00818 273.8 62.0
317(10) 0.00986 273.8 61.1
307(9) 0.01094 273.7 57.8
317(9) 0.01031 273.7 52.8
324(10) 0.00993 273.7 47.2
325(10) 0.00953 273.7 41.5
303(9) 0.01043 273.7 36.3
308(9) 0.01102 273.7 31.7
313(9) 0.01028 273.7 27.8
292(9) 0.01057 273.7 24.6
275(9) 0.01060 273.7 21.9
285(9) 0.01118 273.7 19.6
270(9) 0.01230 273.7 17.8
290(9) 0.01063 273.7 16.3
283(9) 0.01066 273.7 15.1
301(9) 0.01044 273.7 14.1
290(9) 0.01127 273.7 13.3
281(9) 0.01165 273.6 12.6
297(9) 0.01031 273.6 11.9
301(9) 0.01011 273.6 11.4
305(9) 0.01030 273.6 11.0
286(9) 0.01131 273.6 10.6
281(9) 0.01188 273.6 10.2
290(9) 0.01065 273.6 9.9
283(9) 0.01042 273.6 9.6
275(9) 0.01144 273.6 9.3
265(9) 0.01199 273.6 9.1
293(9) 0.01145 273.6 8.9
295(9) 0.01027 273.6 8.7
291(10) 0.00997 273.6 8.5
272(9) 0.01143 273.6 8.3
289(9) 0.01130 273.5 8.2
288(9) 0.01155 273.5 8.0
278(9) 0.01175 273.5 7.9
291(10) 0.00986 273.5 7.7
269(9) 0.01129 273.5 7.6
271(9) 0.01222 273.5 7.5
280(9) 0.01190 273.5 7.4
290(9) 0.01068 273.5 7.3
268(9) 0.01127 273.5 7.2
265(9) 0.01185 273.5 7.1
281(9) 0.01188 273.5 7.0
264(8) 0.01234 273.5 6.9
288(9) 0.01051 273.5 6.8
279(9) 0.01041 273.5 6.7
289(9) 0.01096 273.5 6.7
304(9) 0.01095 273.4 6.6
288(9) 0.01131 273.4 6.5
282(9) 0.01122 273.4 6.5
281(9) 0.01084 273.4 6.4
286(9) 0.01103 273.4 6.4
270(8) 0.01233 273.4 6.3
291(9) 0.01101 273.4 6.3
303(9) 0.01016 273.4 6.3
286(9) 0.01065 273.4 6.3
272(9) 0.01137 273.4 6.3
296(9) 0.01116 273.4 6.3
260(8) 0.01248 273.4 6.3
276(9) 0.01107 273.4 6.3
291(9) 0.01038 273.4 6.3
277(9) 0.01132 273.3 6.4
277(9) 0.01194 273.3 6.5
259(8) 0.01239 273.3 6.6
300(10) 0.00987 273.3 6.8
299(9) 0.01031 273.3 7.0
278(9) 0.01132 273.3 7.2
285(9) 0.01173 273.3 7.5
264(9) 0.01155 273.3 7.9
298(9) 0.01027 273.3 8.3
298(9) 0.01038 273.3 8.6
284(9) 0.01125 273.3 9.0
291(9) 0.01135 273.3 9.2
278(9) 0.01135 273.3 9.2
287(9) 0.01034 273.3 9.1
295(9) 0.01080 273.3 8.8
290(9) 0.01139 273.2 8.4
292(9) 0.01121 273.2 8.0
278(9) 0.01124 273.2 7.6
264(9) 0.01157 273.2 7.2
280(9) 0.01123 273.2 6.9
266(8) 0.01237 273.2 6.6
270(9) 0.01210 273.2 6.4
283(9) 0.01105 273.2 6.2
303(10) 0.00965 273.2 6.0
264(9) 0.01185 273.2 5.9
273(9) 0.01231 273.2 5.8
274(9) 0.01199 273.2 5.7
270(9) 0.01186 273.2 5.7
268(9) 0.01089 273.2 5.6
287(9) 0.01100 273.1 5.6
296(9) 0.01130 273.1 5.6
269(9) 0.01210 273.1 5.5
293(9) 0.01061 273.1 5.5
304(10) 0.00984 273.1 5.5
281(9) 0.01166 273.1 5.5
262(8) 0.01256 273.1 5.5
276(9) 0.01171 273.1 5.5
270(9) 0.01149 273.1 5.5
270(9) 0.01147 273.1 5.6
288(9) 0.01080 273.1 5.6
273(9) 0.01217 273.1 5.6
289(9) 0.01109 273.1 5.6
283(9) 0.01055 273.1 5.6
284(9) 0.01030 273.1 5.7
253(9) 0.01197 273.1 5.7
257(8) 0.01279 273.1 5.7
271(9) 0.01182 273.1 5.8
268(9) 0.01123 273.2 5.8
293(9) 0.01029 273.2 5.9
284(9) 0.01123 273.2 5.9
265(8) 0.01246 273.2 6.0
275(9) 0.01169 273.3 6.0
288(9) 0.01091 273.3 6.1
295(9) 0.01039 273.3 6.1
268(9) 0.01181 273.3 6.2
273(9) 0.01220 273.4 6.3
293(9) 0.01021 273.4 6.3
260(9) 0.01148 273.4 6.4
253(9) 0.01227 273.4 6.5
280(9) 0.01193 273.5 6.6
298(9) 0.01109 273.5 6.6
275(9) 0.01038 273.5 6.7
277(9) 0.01070 273.5 6.8
293(9) 0.01046 273.6 6.9
285(9) 0.01131 273.6 7.0
265(8) 0.01238 273.6 7.1
284(9) 0.01066 273.7 7.2
279(9) 0.01043 273.7 7.3
268(9) 0.01155 273.7 7.4
295(9) 0.01113 273.7 7.6
278(9) 0.01204 273.8 7.7
268(9) 0.01188 273.8 7.8
296(10) 0.00960 273.8 7.9
294(9) 0.01039 273.8 8.1
286(9) 0.01162 273.9 8.2
307(9) 0.01078 273.9 8.4
284(9) 0.01050 273.9 8.5
285(10) 0.01003 273.9 8.7
257(8) 0.01236 274.0 8.9
294(9) 0.01142 274.0 9.0
296(9) 0.01136 274.0 9.2
272(9) 0.01199 274.0 9.4
282(9) 0.01093 274.1 9.6
298(9) 0.01060 274.1 9.8
301(9) 0.01118 274.1 10.1
294(9) 0.01126 274.2 10.3
272(9) 0.01110 274.2 10.5
270(9) 0.01129 274.2 10.8
318(10) 0.00964 274.2 11.1
282(9) 0.01189 274.3 11.4
275(9) 0.01159 274.3 11.7
275(9) 0.01124 274.3 12.0
287(9) 0.01043 274.3 12.4
276(9) 0.01130 274.4 12.8
292(9) 0.01140 274.4 13.2
293(9) 0.01066 274.4 13.6
302(9) 0.01040 274.4 14.1
285(9) 0.01051 274.5 14.7
266(9) 0.01178 274.5 15.2
284(9) 0.01178 274.5 15.9
279(9) 0.01172 274.6 16.5
283(9) 0.01088 274.6 17.3
278(9) 0.01125 274.6 18.1
279(9) 0.01136 274.6 19.0
305(9) 0.01103 274.7 19.9
303(9) 0.01051 274.7 20.9
299(9) 0.01008 274.7 21.9
332(10) 0.00977 274.7 23.0
308(9) 0.01083 274.8 24.0
294(9) 0.01118 274.8 25.0
303(9) 0.01060 274.8 25.9
323(10) 0.01003 274.8 26.7
284(9) 0.01138 274.9 27.3
296(9) 0.01127 274.9 27.8
317(10) 0.00976 274.9 28.1
307(10) 0.00967 274.9 28.4
303(9) 0.01034 275.0 28.5
300(9) 0.01078 275.0 28.5
292(9) 0.01143 275.0 28.4
307(10) 0.00987 275.1 28.3
306(9) 0.01018 275.1 28.0
303(9) 0.01057 275.1 27.7
309(9) 0.01071 275.1 27.2
293(9) 0.01153 275.2 26.7
298(9) 0.01106 275.2 26.0
310(10) 0.00957 275.2 25.3
300(9) 0.01058 275.2 24.5
294(9) 0.01143 275.3 23.7
279(9) 0.01187 275.3 22.9
293(9) 0.01039 275.3 22.1
300(10) 0.00971 275.3 21.3
300(9) 0.01011 275.4 20.6
288(9) 0.01168 275.4 19.9
312(9) 0.01077 275.4 19.3
306(10) 0.00989 275.4 18.8
279(9) 0.01064 275.5 18.2
270(9) 0.01161 275.5 17.7
279(9) 0.01195 275.5 17.3
288(9) 0.01120 275.6 16.8
291(9) 0.01088 275.6 16.4
293(10) 0.01005 275.6 16.1
299(9) 0.01050 275.6 15.7
306(9) 0.01096 275.7 15.3
300(9) 0.01082 275.7 15.0
293(9) 0.01051 275.7 14.7
277(9) 0.01106 275.7 14.4
284(9) 0.01112 275.8 14.1
278(9) 0.01195 275.8 13.8
302(9) 0.01058 275.8 13.5
280(9) 0.01101 275.8 13.2
279(9) 0.01075 275.9 12.9
289(9) 0.01115 275.9 12.7
268(8) 0.01234 275.9 12.4
285(9) 0.01112 275.9 12.2
299(9) 0.01011 276.0 12.0
295(9) 0.01078 276.0 11.8
285(9) 0.01130 276.0 11.5
285(9) 0.01158 276.1 11.3
303(9) 0.01008 276.1 11.1
256(9) 0.01198 276.1 11.0
286(9) 0.01096 276.1 10.8
297(9) 0.01127 276.2 10.6
295(9) 0.01127 276.2 10.5
293(9) 0.01043 276.2 10.3
307(10) 0.00970 276.2 10.2
276(9) 0.01166 276.3 10.0
271(9) 0.01205 276.3 9.9
291(9) 0.01141 276.3 9.8
287(9) 0.01111 276.3 9.7
298(9) 0.01011 276.4 9.6
280(9) 0.01134 276.4 9.5
285(9) 0.01160 276.4 9.4
263(8) 0.01247 276.5 9.3
269(9) 0.01183 276.5 9.2
290(10) 0.00999 276.5 9.1
268(9) 0.01147 276.5 9.1
294(9) 0.01108 276.6 9.0
280(9) 0.01184 276.6 9.0
288(9) 0.01082 276.6 8.9
306(10) 0.00942 276.6 8.9
291(9) 0.01096 276.7 8.9
314(9) 0.01059 276.7 8.9
290(9) 0.01135 276.7 8.8
262(9) 0.01190 276.7 8.8
267(9) 0.01096 276.8 8.8
268(9) 0.01094 276.8 8.8
280(9) 0.01188 276.8 8.8
295(9) 0.01113 276.8 8.8
284(9) 0.01160 276.9 8.9
295(9) 0.01072 276.9 8.9
291(9) 0.01067 276.9 8.9
311(9) 0.01077 277.0 8.9
281(9) 0.01155 277.0 9.0
281(9) 0.01058 277.0 9.0
274(9) 0.01147 277.0 9.0
285(9) 0.01097 277.1 9.1
293(9) 0.01134 277.1 9.1
273(9) 0.01193 277.1 9.2
282(9) 0.01117 277.1 9.2
309(10) 0.00944 277.2 9.3
263(8) 0.01245 277.2 9.3
296(9) 0.01129 277.2 9.4
287(9) 0.01112 277.2 9.4
307(10) 0.00989 277.3 9.5
285(9) 0.01066 277.3 9.5
265(9) 0.01181 277.3 9.6
268(8) 0.01237 277.3 9.6
276(9) 0.01168 277.4 9.7
262(9) 0.01213 277.4 9.7
276(9) 0.01108 277.4 9.8
273(9) 0.01212 277.5 9.8
320(9) 0.01045 277.5 9.8
300(9) 0.01029 277.5 9.9
264(9) 0.01138 277.5 9.9
258(9) 0.01215 277.6 9.9
273(9) 0.01196 277.6 10.0
294(9) 0.01148 277.6 10.0
282(9) 0.01115 277.6 10.0
285(9) 0.01054 277.7 10.1
295(9) 0.01042 277.7 10.1
273(9) 0.01230 277.7 10.1
284(9) 0.01149 277.7 10.2
299(9) 0.01080 277.8 10.2
298(9) 0.01028 277.8 10.2
268(9) 0.01185 277.8 10.3
280(9) 0.01175 277.9 10.3
294(9) 0.01128 277.9 10.4
286(9) 0.01104 277.9 10.4
268(9) 0.01123 277.9 10.5
266(9) 0.01181 278.0 10.6
291(9) 0.01119 278.0 10.7
294(9) 0.01128 278.0 10.8
254(8) 0.01263 278.0 10.9
274(9) 0.01053 278.1 11.0
276(9) 0.01118 278.1 11.2
300(9) 0.01115 278.1 11.4
287(9) 0.01159 278.1 11.5
308(9) 0.01015 278.2 11.8
305(9) 0.01033 278.2 12.0
289(9) 0.01134 278.2 12.3
313(9) 0.01065 278.2 12.6
286(9) 0.01126 278.3 13.0
303(9) 0.01051 278.3 13.4
279(9) 0.01142 278.3 13.9
295(9) 0.01042 278.4 14.5
272(9) 0.01200 278.4 15.2
280(9) 0.01108 278.4 16.0
271(9) 0.01125 278.4 17.0
293(9) 0.01027 278.5 18.1
286(9) 0.01106 278.5 19.5
298(9) 0.01125 278.5 21.1
296(9) 0.01088 278.5 23.0
322(10) 0.00970 278.6 25.1
293(9) 0.01062 278.6 27.4
294(9) 0.01077 278.6 29.9
313(9) 0.01067 278.6 32.4
299(9) 0.01059 278.7 34.7
293(9) 0.01065 278.7 36.3
314(9) 0.01011 278.7 37.0
305(9) 0.01072 278.7 36.8
325(9) 0.01038 278.8 35.7
297(9) 0.01043 278.8 34.0
304(10) 0.01003 278.8 32.0
309(9) 0.01046 278.9 29.9
302(9) 0.01075 278.9 28.1
315(9) 0.01066 278.9 26.4
330(10) 0.00961 278.9 25.1
306(10) 0.00999 279.0 23.9
315(10) 0.00985 279.0 23.1
315(9) 0.01070 279.0 22.4
309(9) 0.01074 279.0 21.9
290(9) 0.01057 279.1 21.6
305(10) 0.00977 279.1 21.4
317(10) 0.00977 279.1 21.3
302(9) 0.01087 279.1 21.3
301(9) 0.01113 279.2 21.3
300(9) 0.01045 279.2 21.5
298(10) 0.00972 279.2 21.6
297(9) 0.01067 279.2 21.9
292(9) 0.01150 279.3 22.1
325(9) 0.01023 279.3 22.4
318(10) 0.00986 279.3 22.7
323(10) 0.00931 279.4 23.1
300(9) 0.01078 279.4 23.5
304(9) 0.01115 279.4 23.9
296(9) 0.01087 279.4 24.4
305(9) 0.01044 279.5 24.9
310(10) 0.00999 279.5 25.5
300(9) 0.01043 279.5 26.1
319(9) 0.01053 279.5 26.8
342(10) 0.00965 279.6 27.6
284(9) 0.01117 279.6 28.5
301(9) 0.01024 279.6 29.6
310(10) 0.00977 279.6 30.8
310(9) 0.01075 279.7 32.2
325(10) 0.01003 279.7 33.9
329(10) 0.00968 279.7 35.8
335(10) 0.00935 279.8 38.2
308(9) 0.01057 279.8 40.9
331(9) 0.01019 279.8 44.0
322(9) 0.01011 279.8 47.7
331(10) 0.00942 279.9 51.9
316(10) 0.00999 279.9 56.7
310(9) 0.01039 279.9 61.9
353(10) 0.00972 279.9 67.6
355(10) 0.00912 280.0 73.4
332(10) 0.00961 280.0 78.9
358(10) 0.00849 280.0 83.5
321(9) 0.01013 280.0 86.6
352(10) 0.00962 280.1 87.8
345(10) 0.00894 280.1 86.9
322(10) 0.00969 280.1 84.0
349(10) 0.00926 280.1 79.8
334(10) 0.00982 280.2 74.7
329(9) 0.01039 280.2 69.5
332(10) 0.00947 280.2 64.5
330(10) 0.00873 280.3 60.0
348(10) 0.00885 280.3 56.2
330(9) 0.01009 280.3 53.1
330(9) 0.01013 280.3 50.8
321(9) 0.01012 280.4 49.3
325(10) 0.00927 280.4 48.4
349(10) 0.00904 280.4 48.0
356(10) 0.00947 280.4 48.1
355(10) 0.00954 280.5 48.5
303(9) 0.01070 280.5 48.9
313(10) 0.00942 280.5 49.0
315(9) 0.01008 280.5 48.6
345(10) 0.00992 280.6 47.5
340(10) 0.00988 280.6 45.9
337(10) 0.00920 280.6 43.8
353(10) 0.00854 280.6 41.5
334(10) 0.00955 280.7 39.2
319(9) 0.01056 280.7 37.0
305(9) 0.01065 280.7 35.1
313(9) 0.01009 280.8 33.5
334(10) 0.00929 280.8 32.2
360(10) 0.00857 280.8 31.1
303(9) 0.01120 280.8 30.3
318(10) 0.01003 280.9 29.8
320(10) 0.01007 280.9 29.5
303(10) 0.01005 280.9 29.4
300(9) 0.01049 280.9 29.5
325(9) 0.01038 281.0 29.7
314(9) 0.01061 281.0 30.0
337(10) 0.00939 281.0 30.3
337(10) 0.00927 281.0 30.7
296(9) 0.01095 281.1 31.1
311(9) 0.01077 281.1 31.5
293(9) 0.01098 281.1 31.8
287(9) 0.01053 281.2 32.0
287(9) 0.01074 281.2 32.1
305(9) 0.01058 281.2 32.2
307(9) 0.01087 281.2 32.1
303(9) 0.01044 281.3 32.0
294(9) 0.01032 281.3 31.9
277(9) 0.01138 281.3 31.8
296(9) 0.01103 281.3 31.8
304(9) 0.01089 281.4 31.8
289(9) 0.01105 281.4 31.9
308(10) 0.00987 281.4 32.0
319(10) 0.00978 281.4 32.3
280(9) 0.01168 281.5 32.7
292(9) 0.01136 281.5 33.3
303(9) 0.01017 281.5 33.9
297(9) 0.01014 281.5 34.7
320(10) 0.00974 281.6 35.5
307(9) 0.01069 281.6 36.4
326(9) 0.01033 281.6 37.4
320(9) 0.01011 281.7 38.4
324(10) 0.00904 281.7 39.3
305(9) 0.01012 281.7 40.3
309(9) 0.01079 281.7 41.1
324(9) 0.01039 281.8 41.7
313(9) 0.01012 281.8 42.2
318(10) 0.00880 281.8 42.4
317(10) 0.00983 281.8 42.4
304(9) 0.01089 281.9 42.1
330(10) 0.00998 281.9 41.6
313(9) 0.01010 281.9 40.9
307(9) 0.01019 281.9 39.9
321(10) 0.00966 282.0 38.8
332(9) 0.01009 282.0 37.5
299(9) 0.01090 282.0 36.1
295(9) 0.01048 282.0 34.7
298(10) 0.00972 282.1 33.3
290(9) 0.01106 282.1 31.9
299(9) 0.01111 282.1 30.6
289(9) 0.01112 282.2 29.3
310(10) 0.00990 282.2 28.1
331(10) 0.00896 282.2 27.0
295(9) 0.01075 282.2 25.9
309(9) 0.01079 282.3 25.0
312(9) 0.01054 282.3 24.1
272(9) 0.01171 282.3 23.3
296(9) 0.01042 282.3 22.6
294(9) 0.01076 282.4 22.0
312(9) 0.01071 282.4 21.5
304(9) 0.01064 282.4 21.0
286(9) 0.01084 282.4 20.6
287(9) 0.01018 282.5 20.3
302(9) 0.01062 282.5 20.0
309(9) 0.01090 282.5 19.8
312(9) 0.01034 282.5 19.6
295(9) 0.01027 282.6 19.5
294(9) 0.01057 282.6 19.4
304(9) 0.01043 282.6 19.3
305(9) 0.01106 282.7 19.2
299(9) 0.01027 282.7 19.2
286(9) 0.01099 282.7 19.1
301(9) 0.01024 282.7 19.1
290(9) 0.01140 282.8 19.2
302(9) 0.01112 282.8 19.3
311(10) 0.00994 282.8 19.4
311(10) 0.00972 282.8 19.6
304(9) 0.01025 282.9 19.9
271(9) 0.01201 282.9 20.3
301(9) 0.01105 282.9 20.8
293(9) 0.01093 282.9 21.5
303(10) 0.01000 283.0 22.3
318(10) 0.00984 283.0 23.3
312(9) 0.01083 283.0 24.5
315(9) 0.01069 283.1 25.9
311(9) 0.01012 283.1 27.5
308(10) 0.00989 283.1 29.3
296(9) 0.01045 283.1 31.4
314(9) 0.01070 283.2 33.6
331(9) 0.01015 283.2 36.0
324(10) 0.00942 283.2 38.5
335(10) 0.00876 283.2 40.8
338(10) 0.00960 283.3 42.9
344(10) 0.00986 283.3 44.4
328(10) 0.01006 283.3 45.3
351(10) 0.00904 283.3 45.4
376(11) 0.00801 283.4 44.7
332(10) 0.00974 283.4 43.2
342(10) 0.00987 283.4 41.2
313(9) 0.01042 283.4 38.8
314(10) 0.00969 283.5 36.2
288(9) 0.01091 283.5 33.7
332(10) 0.00948 283.5 31.2
298(9) 0.01115 283.6 28.9
295(9) 0.01112 283.6 26.9
306(9) 0.01011 283.6 25.0
294(9) 0.01035 283.6 23.4
295(9) 0.01032 283.7 22.0
312(9) 0.01080 283.7 20.7
309(9) 0.01021 283.7 19.7
318(10) 0.00961 283.7 18.8
305(9) 0.01037 283.8 18.0
313(9) 0.01020 283.8 17.4
320(9) 0.01057 283.8 16.8
310(9) 0.01021 283.8 16.4
318(10) 0.00951 283.9 16.1
293(9) 0.01033 283.9 15.9
282(9) 0.01103 283.9 15.7
300(9) 0.01128 283.9 15.6
301(9) 0.01047 284.0 15.6
311(9) 0.01016 284.0 15.7
300(9) 0.01078 284.0 15.8
328(9) 0.01018 284.1 16.0
301(9) 0.01104 284.1 16.3
317(9) 0.01019 284.1 16.6
315(10) 0.00978 284.1 17.0
293(9) 0.01044 284.2 17.5
301(9) 0.01114 284.2 18.1
311(9) 0.01062 284.2 18.8
291(9) 0.01061 284.2 19.6
307(10) 0.00940 284.3 20.6
296(9) 0.01045 284.3 21.6
312(9) 0.01064 284.3 22.8
282(9) 0.01180 284.3 24.1
300(9) 0.01015 284.4 25.6
312(10) 0.00918 284.4 27.3
314(9) 0.01016 284.4 29.1
321(9) 0.01036 284.5 31.1
305(9) 0.01090 284.5 33.3
316(9) 0.01026 284.5 35.7
332(10) 0.00892 284.5 38.2
330(10) 0.00949 284.6 40.9
342(10) 0.00991 284.6 43.5
307(9) 0.01088 284.6 46.2
291(9) 0.01113 284.6 48.7
342(10) 0.00881 284.7 50.9
316(9) 0.01033 284.7 52.8
328(9) 0.01032 284.7 54.0
329(10) 0.00994 284.7 54.7
314(9) 0.01037 284.8 54.6
308(10) 0.00998 284.8 53.8
330(10) 0.00977 284.8 52.5
340(10) 0.00993 284.8 50.5
343(10) 0.00947 284.9 48.2
351(10) 0.00922 284.9 45.7
317(10) 0.00983 284.9 43.0
306(9) 0.01027 285.0 40.2
314(9) 0.01066 285.0 37.6
299(9) 0.01110 285.0 35.0
316(10) 0.00995 285.0 32.6
323(10) 0.00957 285.1 30.4
323(10) 0.00963 285.1 28.3
321(9) 0.01049 285.1 26.5
296(9) 0.01101 285.1 24.8
314(10) 0.00978 285.2 23.3
310(9) 0.01023 285.2 21.9
323(10) 0.01003 285.2 20.7
288(9) 0.01154 285.2 19.6
316(9) 0.01032 285.3 18.7
295(9) 0.01020 285.3 17.8
288(9) 0.01024 285.3 17.1
316(9) 0.01019 285.3 16.5
304(9) 0.01100 285.4 15.9
281(9) 0.01088 285.4 15.5
278(9) 0.01056 285.4 15.1
296(9) 0.01034 285.5 14.8
286(9) 0.01167 285.5 14.6
279(9) 0.01171 285.5 14.4
288(9) 0.01033 285.5 14.3
291(9) 0.01037 285.6 14.3
308(10) 0.01005 285.6 14.4
310(9) 0.01045 285.6 14.5
320(9) 0.01051 285.6 14.7
309(10) 0.01003 285.7 15.0
315(10) 0.00913 285.7 15.3
283(9) 0.01110 285.7 15.7
296(9) 0.01115 285.7 16.1
326(9) 0.01035 285.8 16.5
298(9) 0.01050 285.8 16.9
294(10) 0.01003 285.8 17.3
325(10) 0.00959 285.8 17.6
286(9) 0.01166 285.9 17.8
335(10) 0.00975 285.9 17.9
310(9) 0.01011 285.9 17.8
304(10) 0.00961 286.0 17.5
298(9) 0.01080 286.0 17.1
300(9) 0.01120 286.0 16.6
351(10) 0.00945 286.0 16.0
284(9) 0.01094 286.1 15.4
265(9) 0.01079 286.1 14.7
289(9) 0.01076 286.1 14.1
291(9) 0.01145 286.1 13.5
294(9) 0.01109 286.2 12.9
300(9) 0.01056 286.2 12.4
307(10) 0.00958 286.2 11.9
305(10) 0.01004 286.2 11.5
282(9) 0.01170 286.3 11.1
283(9) 0.01128 286.3 10.8
283(9) 0.01134 286.3 10.5
305(9) 0.01044 286.4 10.3
302(9) 0.01043 286.4 10.0
283(9) 0.01184 286.4 9.9
305(9) 0.01045 286.4 9.7
291(9) 0.01093 286.5 9.6
314(10) 0.00943 286.5 9.6
265(9) 0.01204 286.5 9.5
288(9) 0.01162 286.5 9.5
286(9) 0.01124 286.6 9.5
313(10) 0.00973 286.6 9.5
308(10) 0.00988 286.6 9.6
291(9) 0.01134 286.6 9.7
299(9) 0.01135 286.7 9.8
319(10) 0.00978 286.7 9.9
308(9) 0.01014 286.7 10.1
286(9) 0.01144 286.7 10.3
296(9) 0.01086 286.8 10.6
298(9) 0.01131 286.8 10.9
289(9) 0.01028 286.8 11.2
314(10) 0.00942 286.9 11.6
301(9) 0.01019 286.9 12.1
312(9) 0.01059 286.9 12.6
319(9) 0.01050 286.9 13.2
307(9) 0.01048 287.0 13.9
289(9) 0.01041 287.0 14.7
294(9) 0.01060 287.0 15.7
304(9) 0.01098 287.0 16.7
288(9) 0.01160 287.1 17.8
275(9) 0.01150 287.1 19.1
317(10) 0.00911 287.1 20.6
300(9) 0.01077 287.1 22.1
319(9) 0.01062 287.2 23.8
317(9) 0.01033 287.2 25.4
295(9) 0.01090 287.2 27.1
333(10) 0.00877 287.2 28.6
309(9) 0.01013 287.3 29.9
293(9) 0.01133 287.3 30.8
319(9) 0.01037 287.3 31.3
307(9) 0.01060 287.4 31.4
299(9) 0.01033 287.4 31.0
305(9) 0.01061 287.4 30.3
316(9) 0.01066 287.4 29.4
331(10) 0.01005 287.5 28.4
293(9) 0.01095 287.5 27.5
298(10) 0.00992 287.5 26.6
329(10) 0.00957 287.5 25.9
299(9) 0.01114 287.6 25.3
295(9) 0.01076 287.6 24.9
292(9) 0.01041 287.6 24.7
290(9) 0.01057 287.6 24.6
307(9) 0.01038 287.7 24.7
305(9) 0.01101 287.7 24.9
315(10) 0.01002 287.7 25.3
303(9) 0.01033 287.8 25.8
299(10) 0.01000 287.8 26.4
293(9) 0.01107 287.8 27.2
317(9) 0.01069 287.8 28.0
330(10) 0.00953 287.9 29.0
302(9) 0.01062 287.9 30.0
321(10) 0.00984 287.9 31.0
324(9) 0.01018 287.9 32.2
307(9) 0.01095 288.0 33.3
310(9) 0.01057 288.0 34.4
334(10) 0.00923 288.0 35.4
315(9) 0.01009 288.0 36.4
309(9) 0.01061 288.1 37.3
344(10) 0.00986 288.1 38.0
302(9) 0.01030 288.1 38.6
315(10) 0.00969 288.1 39.0
311(9) 0.01020 288.2 39.1
284(9) 0.01174 288.2 39.1
345(10) 0.00977 288.2 38.8
329(10) 0.00992 288.3 38.3
323(10) 0.00920 288.3 37.6
320(10) 0.00980 288.3 36.7
334(10) 0.00988 288.3 35.7
289(9) 0.01142 288.4 34.6
319(10) 0.00986 288.4 33.3
300(9) 0.01025 288.4 32.0
305(9) 0.01056 288.4 30.7
324(9) 0.01041 288.5 29.4
306(9) 0.01089 288.5 28.1
313(9) 0.01021 288.5 26.8
292(9) 0.01022 288.5 25.5
308(10) 0.01005 288.6 24.3
280(9) 0.01189 288.6 23.1
302(9) 0.01099 288.6 22.0
305(10) 0.01003 288.6 21.0
297(9) 0.01033 288.7 20.0
329(10) 0.00962 288.7 19.1
300(9) 0.01121 288.7 18.2
294(9) 0.01138 288.8 17.4
300(9) 0.01029 288.8 16.7
282(9) 0.01046 288.8 16.0
322(10) 0.00938 288.8 15.3
307(9) 0.01100 288.9 14.8
287(9) 0.01148 288.9 14.2
302(9) 0.01035 288.9 13.7
300(9) 0.01027 288.9 13.2
296(9) 0.01071 289.0 12.8
299(9) 0.01121 289.0 12.4
316(9) 0.01020 289.0 12.0
289(9) 0.01068 289.0 11.7
292(9) 0.01040 289.1 11.4
312(9) 0.01033 289.1 11.1
308(9) 0.01088 289.1 10.8
304(9) 0.01048 289.1 10.6
293(9) 0.01063 289.2 10.4
319(10) 0.00974 289.2 10.2
311(9) 0.01037 289.2 10.0
305(9) 0.01092 289.3 9.9
300(9) 0.01061 289.3 9.7
309(9) 0.01026 289.3 9.6
280(9) 0.01124 289.3 9.5
279(9) 0.01153 289.4 9.4
315(9) 0.01061 289.4 9.3
306(9) 0.01059 289.4 9.3
313(10) 0.00946 289.4 9.2
285(9) 0.01091 289.5 9.2
298(9) 0.01080 289.5 9.1
298(9) 0.01123 289.5 9.1
300(9) 0.01022 289.5 9.1
292(10) 0.01005 289.6 9.0
301(9) 0.01054 289.6 9.0
300(9) 0.01108 289.6 9.0
290(9) 0.01152 289.7 8.9
283(9) 0.01111 289.7 8.9
307(10) 0.00966 289.7 8.9
296(9) 0.01085 289.7 8.8
306(9) 0.01072 289.8 8.8
300(9) 0.01121 289.8 8.7
299(9) 0.01038 289.8 8.7
298(9) 0.01020 289.8 8.6
316(10) 0.00994 289.9 8.5
297(9) 0.01121 289.9 8.4
281(9) 0.01189 289.9 8.3
296(9) 0.01062 289.9 8.2
296(9) 0.01019 290.0 8.1
294(9) 0.01077 290.0 8.0
299(9) 0.01122 290.0 7.9
296(9) 0.01098 290.0 7.8
284(9) 0.01115 290.1 7.6
297(10) 0.01004 290.1 7.5
289(9) 0.01100 290.1 7.4
298(9) 0.01114 290.2 7.2
292(9) 0.01106 290.2 7.1
282(9) 0.01146 290.2 7.0
307(10) 0.00959 290.2 6.9
286(9) 0.01112 290.3 6.7
312(9) 0.01070 290.3 6.6
315(9) 0.01063 290.3 6.5
287(9) 0.01107 290.3 6.4
298(9) 0.01038 290.4 6.3
305(9) 0.01048 290.4 6.2
297(9) 0.01123 290.4 6.1
271(9) 0.01156 290.4 6.0
288(9) 0.01037 290.5 5.9
294(9) 0.01054 290.5 5.8
314(9) 0.01031 290.5 5.8
300(9) 0.01116 290.5 5.7
297(9) 0.01084 290.6 5.6
314(10) 0.00972 290.6 5.6
292(9) 0.01087 290.6 5.5
302(9) 0.01060 290.7 5.5
315(9) 0.01058 290.7 5.4
316(10) 0.00995 290.7 5.4
304(9) 0.01027 290.7 5.4
287(9) 0.01077 290.8 5.3
286(9) 0.01143 290.8 5.3
291(9) 0.01156 290.8 5.3
321(10) 0.00998 290.8 5.3
305(9) 0.01032 290.9 5.3
314(10) 0.00992 290.9 5.3
326(10) 0.00991 290.9 5.3
286(9) 0.01172 290.9 5.3
293(9) 0.01034 291.0 5.3
291(10) 0.00962 291.0 5.3
294(9) 0.01060 291.0 5.4
287(9) 0.01174 291.1 5.4
288(9) 0.01144 291.1 5.4
302(9) 0.01051 291.1 5.5
291(9) 0.01033 291.1 5.6
294(9) 0.01051 291.2 5.6
297(9) 0.01113 291.2 5.7
280(9) 0.01193 291.2 5.8
253(9) 0.01196 291.2 5.9
298(10) 0.00988 291.3 6.0
306(9) 0.01077 291.3 6.2
292(9) 0.01154 291.3 6.3
276(9) 0.01226 291.3 6.5
322(10) 0.00948 291.4 6.7
307(10) 0.00981 291.4 6.9
317(9) 0.01032 291.4 7.2
315(9) 0.01071 291.4 7.5
293(9) 0.01095 291.5 7.9
292(9) 0.01070 291.5 8.3
335(10) 0.00883 291.5 8.7
307(9) 0.01013 291.6 9.2
310(9) 0.01081 291.6 9.9
324(9) 0.01032 291.6 10.6
313(9) 0.01054 291.6 11.4
315(10) 0.00988 291.7 12.3
300(9) 0.01055 291.7 13.4
294(9) 0.01132 291.7 14.7
296(9) 0.01107 291.7 16.1
329(10) 0.00918 291.8 17.6
322(10) 0.00977 291.8 19.3
313(9) 0.01024 291.8 21.2
328(9) 0.01029 291.8 23.1
331(10) 0.00960 291.9 25.0
301(9) 0.01026 291.9 26.8
301(9) 0.01013 291.9 28.3
317(9) 0.01012 291.9 29.4
306(9) 0.01099 292.0 30.1
306(9) 0.01022 292.0 30.1
327(10) 0.00928 292.0 29.6
328(10) 0.00959 292.1 28.5
317(9) 0.01021 292.1 27.1
313(9) 0.01075 292.1 25.4
317(10) 0.00976 292.1 23.6
276(9) 0.01088 292.2 21.7
316(9) 0.01014 292.2 19.9
319(9) 0.01043 292.2 18.2
282(9) 0.01174 292.2 16.7
297(9) 0.01013 292.3 15.3
291(9) 0.01024 292.3 14.0
290(9) 0.01126 292.3 13.0
311(9) 0.01065 292.3 12.0
315(9) 0.01054 292.4 11.2
306(9) 0.01031 292.4 10.5
303(10) 0.00926 292.4 9.8
299(9) 0.01075 292.4 9.3
317(9) 0.01049 292.5 8.9
287(9) 0.01158 292.5 8.5
306(9) 0.01011 292.5 8.1
291(9) 0.01015 292.6 7.8
288(9) 0.01087 292.6 7.6
324(9) 0.01026 292.6 7.3
298(9) 0.01132 292.6 7.2
319(9) 0.01014 292.7 7.0
298(10) 0.01001 292.7 6.8
271(9) 0.01137 292.7 6.7
308(9) 0.01104 292.7 6.6
325(9) 0.01015 292.8 6.5
300(9) 0.01054 292.8 6.4
304(10) 0.00999 292.8 6.4
301(9) 0.01049 292.8 6.3
278(9) 0.01182 292.9 6.3
291(9) 0.01141 292.9 6.2
280(9) 0.01128 292.9 6.2
297(9) 0.01037 293.0 6.2
313(9) 0.01014 293.0 6.1
307(9) 0.01092 293.0 6.1
296(9) 0.01086 293.0 6.1
314(10) 0.00973 293.1 6.1
317(10) 0.00966 293.1 6.1
296(9) 0.01034 293.1 6.1
279(9) 0.01199 293.1 6.2
293(10) 0.01007 293.2 6.2
305(10) 0.00996 293.2 6.2
288(9) 0.01100 293.2 6.2
306(9) 0.01032 293.2 6.3
327(9) 0.01036 293.3 6.3
301(9) 0.01033 293.3 6.3
310(10) 0.00982 293.3 6.4
314(10) 0.00987 293.3 6.4
318(10) 0.00993 293.4 6.5
286(9) 0.01154 293.4 6.6
313(10) 0.00992 293.4 6.6
285(9) 0.01036 293.5 6.7
325(10) 0.00937 293.5 6.8
299(9) 0.01101 293.5 6.8
270(9) 0.01216 293.5 6.9
296(9) 0.01065 293.6 7.0
295(10) 0.01002 293.6 7.1
304(9) 0.01053 293.6 7.2
307(9) 0.01072 293.6 7.3
288(9) 0.01164 293.7 7.4
293(9) 0.01100 293.7 7.5
311(10) 0.00942 293.7 7.7
328(10) 0.00951 293.7 7.8
316(9) 0.01053 293.8 7.9
314(9) 0.01057 293.8 8.1
284(9) 0.01113 293.8 8.3
286(10) 0.01005 293.8 8.4
299(9) 0.01067 293.9 8.6
306(9) 0.01090 293.9 8.8
282(9) 0.01171 293.9 9.0
320(10) 0.00972 294.0 9.2
327(10) 0.00944 294.0 9.5
317(10) 0.00979 294.0 9.7
291(9) 0.01145 294.0 10.0
307(9) 0.01090 294.1 10.3
294(9) 0.01100 294.1 10.6
297(10) 0.00998 294.1 10.9
302(9) 0.01034 294.1 11.3
310(9) 0.01081 294.2 11.6
311(9) 0.01026 294.2 12.1
341(10) 0.00890 294.2 12.5
300(10) 0.00981 294.2 13.0
335(10) 0.00927 294.3 13.6
326(9) 0.01033 294.3 14.2
310(9) 0.01057 294.3 14.9
316(10) 0.00982 294.4 15.7
311(10) 0.00974 294.4 16.6
326(10) 0.00969 294.4 17.6
324(9) 0.01045 294.4 18.7
334(10) 0.00944 294.5 19.9
329(10) 0.00955 294.5 21.3
339(10) 0.00920 294.5 22.9
342(10) 0.00935 294.5 24.7
325(9) 0.01043 294.6 26.6
318(9) 0.01020 294.6 28.7
360(10) 0.00865 294.6 31.1
317(9) 0.01016 294.6 33.5
348(10) 0.00946 294.7 36.0
360(10) 0.00939 294.7 38.5
342(10) 0.00926 294.7 40.7
363(11) 0.00828 294.7 42.6
364(10) 0.00859 294.8 43.9
346(10) 0.00963 294.8 44.5
374(10) 0.00915 294.8 44.5
336(10) 0.00953 294.9 43.9
332(10) 0.00939 294.9 42.8
367(10) 0.00882 294.9 41.5
374(10) 0.00900 294.9 40.1
357(10) 0.00952 295.0 38.7
363(10) 0.00888 295.0 37.5
350(10) 0.00893 295.0 36.4
331(10) 0.00974 295.0 35.6
332(9) 0.01015 295.1 35.1
351(10) 0.00951 295.1 34.8
321(10) 0.00995 295.1 34.9
349(10) 0.00847 295.1 35.1
334(10) 0.01000 295.2 35.7
360(10) 0.00939 295.2 36.5
337(10) 0.00976 295.2 37.6
357(10) 0.00900 295.2 38.9
361(10) 0.00845 295.3 40.6
353(10) 0.00895 295.3 42.6
353(10) 0.00969 295.3 44.8
345(10) 0.00984 295.4 47.4
364(10) 0.00905 295.4 50.3
362(10) 0.00871 295.4 53.4
341(10) 0.00947 295.4 56.8
378(10) 0.00912 295.5 60.4
368(10) 0.00904 295.5 64.1
384(10) 0.00842 295.5 67.7
413(11) 0.00741 295.5 70.9
391(10) 0.00851 295.6 73.7
390(10) 0.00876 295.6 75.6
379(10) 0.00887 295.6 76.6
385(11) 0.00814 295.6 76.4
376(11) 0.00831 295.7 75.2
370(10) 0.00839 295.7 73.1
378(10) 0.00909 295.7 70.2
367(10) 0.00915 295.7 66.8
351(10) 0.00884 295.8 63.2
368(11) 0.00838 295.8 59.5
329(10) 0.00993 295.8 55.9
338(9) 0.01011 295.9 52.4
356(10) 0.00901 295.9 49.2
360(10) 0.00850 295.9 46.2
344(10) 0.00946 295.9 43.5
335(10) 0.00989 296.0 41.1
349(10) 0.00977 296.0 38.9
367(10) 0.00895 296.0 36.9
370(11) 0.00835 296.0 35.1
339(10) 0.00940 296.1 33.5
340(10) 0.00945 296.1 32.1
350(10) 0.00980 296.1 30.8
354(10) 0.00893 296.1 29.6
324(10) 0.00960 296.2 28.6
319(10) 0.01002 296.2 27.6
311(9) 0.01037 296.2 26.8
365(10) 0.00936 296.3 26.0
313(9) 0.01047 296.3 25.3
335(10) 0.00885 296.3 24.6
319(10) 0.01006 296.3 24.0
319(9) 0.01063 296.4 23.5
314(9) 0.01073 296.4 23.0
327(10) 0.00987 296.4 22.5
324(10) 0.00897 296.4 22.1
314(10) 0.00976 296.5 21.8
293(9) 0.01134 296.5 21.4
303(9) 0.01105 296.5 21.1
322(10) 0.00972 296.5 20.8
339(10) 0.00862 296.6 20.6
327(10) 0.00982 296.6 20.4
327(9) 0.01038 296.6 20.2
330(10) 0.01001 296.6 20.0
321(10) 0.00995 296.7 19.9
306(10) 0.00977 296.7 19.8
308(9) 0.01022 296.7 19.7
312(9) 0.01077 296.8 19.7
279(9) 0.01181 296.8 19.6
324(10) 0.00929 296.8 19.6
321(10) 0.00952 296.8 19.6
321(10) 0.01002 296.9 19.7
321(9) 0.01048 296.9 19.8
337(10) 0.00958 296.9 19.9
315(10) 0.00957 296.9 20.0
310(9) 0.01013 297.0 20.2
310(9) 0.01029 297.0 20.4
324(9) 0.01040 297.0 20.6
332(10) 0.01005 297.0 20.9
287(9) 0.01097 297.1 21.2
301(10) 0.00994 297.1 21.5
334(10) 0.00930 297.1 21.9
348(10) 0.00975 297.1 22.3
296(9) 0.01116 297.2 22.7
314(9) 0.01011 297.2 23.2
301(9) 0.01039 297.2 23.8
322(9) 0.01032 297.3 24.3
317(9) 0.01046 297.3 25.0
308(9) 0.01020 297.3 25.7
312(10) 0.00978 297.3 26.4
308(10) 0.01002 297.4 27.2
322(9) 0.01009 297.4 28.1
318(9) 0.01068 297.4 29.0
343(10) 0.00918 297.4 30.0
312(10) 0.00992 297.5 31.0
314(10) 0.00996 297.5 32.1
327(10) 0.01004 297.5 33.2
327(9) 0.01021 297.5 34.3
335(10) 0.00995 297.6 35.5
342(10) 0.00906 297.6 36.7
331(10) 0.00984 297.6 37.9
336(10) 0.00989 297.7 39.0
379(10) 0.00906 297.7 40.2
355(10) 0.00909 297.7 41.3
339(10) 0.00893 297.7 42.3
339(10) 0.00930 297.8 43.2
344(10) 0.00985 297.8 44.0
322(9) 0.01052 297.8 44.7
358(10) 0.00874 297.8 45.3
351(10) 0.00894 297.9 45.7
362(10) 0.00853 297.9 46.0
324(9) 0.01033 297.9 46.2
326(9) 0.01026 297.9 46.2
337(10) 0.00931 298.0 46.1
320(10) 0.00972 298.0 45.9
355(10) 0.00890 298.0 45.6
348(10) 0.00963 298.0 45.1
320(9) 0.01064 298.1 44.6
307(9) 0.01063 298.1 43.9
315(10) 0.00990 298.1 43.3
329(10) 0.00931 298.2 42.5
333(9) 0.01012 298.2 41.8
318(9) 0.01008 298.2 41.0
321(10) 0.01005 298.2 40.2
336(10) 0.00925 298.3 39.5
316(10) 0.01004 298.3 38.7
333(9) 0.01018 298.3 38.0
332(10) 0.00989 298.3 37.3
339(10) 0.00919 298.4 36.7
323(10) 0.00959 298.4 36.1
329(10) 0.00968 298.4 35.6
307(9) 0.01093 298.4 35.1
340(10) 0.00945 298.5 34.6
327(10) 0.00970 298.5 34.2
324(10) 0.00949 298.5 33.9
333(10) 0.00992 298.5 33.6
320(9) 0.01057 298.6 33.4
327(10) 0.00953 298.6 33.2
360(10) 0.00845 298.6 33.0
331(10) 0.00978 298.7 32.9
350(10) 0.00949 298.7 32.8
331(9) 0.01028 298.7 32.8
344(10) 0.00920 298.7 32.7
350(10) 0.00869 298.8 32.7
333(10) 0.00943 298.8 32.7
309(9) 0.01082 298.8 32.7
339(10) 0.01001 298.8 32.8
349(10) 0.00908 298.9 32.8
341(10) 0.00854 298.9 32.8
320(10) 0.00997 298.9 32.8
340(10) 0.00977 298.9 32.8
339(10) 0.01007 299.0 32.8
324(10) 0.00985 299.0 32.8
329(10) 0.00927 299.0 32.7
325(10) 0.00976 299.0 32.6
360(10) 0.00947 299.1 32.6
352(10) 0.00954 299.1 32.5
348(10) 0.00939 299.1 32.4
335(10) 0.00870 299.2 32.3
328(10) 0.00965 299.2 32.1
329(9) 0.01024 299.2 32.0
338(10) 0.01007 299.2 31.9
347(10) 0.00940 299.3 31.8
324(10) 0.00954 299.3 31.7
297(9) 0.01080 299.3 31.6
333(9) 0.01010 299.3 31.6
330(10) 0.01002 299.4 31.6
316(9) 0.01015 299.4 31.7
323(10) 0.00937 299.4 31.8
353(10) 0.00897 299.4 32.0
336(10) 0.01005 299.5 32.2
340(10) 0.00962 299.5 32.6
314(10) 0.00993 299.5 33.1
334(10) 0.00924 299.6 33.7
328(10) 0.00981 299.6 34.4
322(9) 0.01046 299.6 35.2
330(10) 0.00982 299.6 36.3
340(10) 0.00881 299.7 37.5
338(10) 0.00920 299.7 38.9
356(10) 0.00905 299.7 40.4
340(10) 0.01001 299.7 42.2
366(10) 0.00909 299.8 44.2
397(11) 0.00806 299.8 46.3
365(10) 0.00873 299.8 48.5
339(10) 0.00957 299.8 50.8
346(10) 0.00984 299.9 53.1
375(10) 0.00877 299.9 55.2
358(10) 0.00869 299.9 57.0
330(10) 0.00948 299.9 58.4
345(10) 0.00928 300.0 59.2
361(10) 0.00940 300.0 59.3
362(10) 0.00866 300.0 58.7
360(10) 0.00863 300.1 57.4
349(10) 0.00889 300.1 55.6
366(10) 0.00920 300.1 53.3
390(10) 0.00873 300.1 50.7
334(10) 0.00968 300.2 47.9
345(10) 0.00895 300.2 45.1
348(10) 0.00929 300.2 42.3
339(10) 0.00993 300.2 39.7
350(10) 0.00975 300.3 37.2
315(10) 0.00988 300.3 34.9
307(10) 0.00998 300.3 32.8
322(10) 0.00978 300.3 30.8
332(9) 0.01022 300.4 29.1
330(9) 0.01016 300.4 27.5
321(10) 0.00953 300.4 26.1
309(10) 0.00959 300.4 24.8
330(10) 0.00964 300.5 23.6
319(9) 0.01062 300.5 22.6
331(10) 0.00990 300.5 21.7
327(10) 0.00946 300.6 20.9
347(11) 0.00832 300.6 20.1
312(9) 0.01034 300.6 19.4
330(9) 0.01032 300.6 18.9
315(9) 0.01039 300.7 18.3
320(10) 0.00990 300.7 17.8
334(10) 0.00900 300.7 17.4
314(10) 0.00977 300.7 17.0
319(9) 0.01049 300.8 16.6
308(9) 0.01053 300.8 16.3
320(10) 0.01003 300.8 16.0
310(10) 0.00989 300.8 15.8
317(10) 0.00970 300.9 15.5
316(9) 0.01051 300.9 15.3
311(9) 0.01058 300.9 15.1
330(10) 0.00954 301.0 14.9
314(10) 0.00961 301.0 14.7
292(9) 0.01073 301.0 14.6
294(9) 0.01138 301.0 14.5
296(9) 0.01075 301.1 14.3
318(10) 0.00966 301.1 14.2
314(10) 0.00982 301.1 14.1
297(9) 0.01077 301.1 14.0
305(9) 0.01092 301.2 13.9
294(9) 0.01077 301.2 13.8
284(9) 0.01071 301.2 13.7
325(10) 0.00919 301.2 13.7
323(9) 0.01010 301.3 13.6
322(9) 0.01045 301.3 13.5
319(10) 0.00971 301.3 13.5
277(9) 0.01132 301.3 13.4
302(9) 0.01034 301.4 13.3
325(9) 0.01021 301.4 13.3
327(9) 0.01037 301.4 13.2
333(10) 0.00951 301.5 13.2
326(10) 0.00900 301.5 13.1
312(10) 0.01002 301.5 13.1
319(9) 0.01045 301.5 13.0
299(9) 0.01105 301.6 13.0
293(9) 0.01067 301.6 12.9
324(10) 0.00903 301.6 12.9
292(9) 0.01113 301.6 12.9
298(9) 0.01114 301.7 12.8
299(9) 0.01118 301.7 12.8
285(9) 0.01137 301.7 12.8
306(10) 0.00997 301.7 12.7
320(10) 0.00981 301.8 12.7
313(9) 0.01065 301.8 12.7
311(9) 0.01073 301.8 12.7
300(9) 0.01067 301.8 12.7
293(9) 0.01010 301.9 12.8
296(9) 0.01043 301.9 12.8
323(9) 0.01042 301.9 12.9
328(9) 0.01023 302.0 12.9
330(10) 0.00907 302.0 13.0
310(10) 0.00983 302.0 13.1
307(9) 0.01079 302.0 13.3
323(9) 0.01051 302.1 13.4
337(10) 0.00998 302.1 13.6
315(10) 0.00997 302.1 13.8
334(10) 0.00916 302.1 14.0
323(10) 0.00975 302.2 14.2
314(9) 0.01069 302.2 14.5
315(9) 0.01048 302.2 14.7
323(10) 0.00931 302.2 15.0
303(9) 0.01017 302.3 15.3
360(10) 0.00850 302.3 15.5
330(9) 0.01018 302.3 15.8
318(9) 0.01028 302.3 16.0
327(10) 0.00982 302.4 16.2
321(10) 0.00970 302.4 16.3
307(9) 0.01042 302.4 16.3
331(9) 0.01025 302.5 16.2
343(10) 0.00914 302.5 16.1
329(10) 0.00934 302.5 15.9
363(10) 0.00851 302.5 15.6
326(10) 0.01003 302.6 15.3
328(9) 0.01027 302.6 14.8
310(9) 0.01034 302.6 14.4
294(9) 0.01043 302.6 13.9
321(10) 0.00977 302.7 13.5
333(10) 0.00976 302.7 13.0
299(9) 0.01123 302.7 12.5
301(9) 0.01013 302.7 12.0
303(9) 0.01021 302.8 11.6
301(9) 0.01033 302.8 11.2
303(9) 0.01087 302.8 10.7
313(9) 0.01071 302.9 10.4
327(10) 0.00969 302.9 10.0
314(10) 0.00949 302.9 9.7
315(10) 0.00997 302.9 9.4
317(9) 0.01037 303.0 9.1
305(9) 0.01095 303.0 8.8
308(9) 0.01020 303.0 8.5
309(10) 0.00966 303.0 8.3
297(9) 0.01064 303.1 8.1
297(9) 0.01125 303.1 7.9
302(9) 0.01091 303.1 7.7
282(9) 0.01094 303.1 7.5
297(10) 0.00953 303.2 7.4
300(10) 0.00982 303.2 7.2
311(9) 0.01062 303.2 7.1
322(9) 0.01033 303.2 7.0
293(9) 0.01060 303.3 6.8
314(10) 0.00942 303.3 6.7
337(10) 0.00930 303.3 6.6
327(9) 0.01025 303.4 6.5
290(9) 0.01148 303.4 6.4
287(9) 0.01076 303.4 6.3
322(10) 0.00894 303.4 6.3
298(9) 0.01054 303.5 6.2
304(9) 0.01099 303.5 6.1
281(9) 0.01167 303.5 6.0
305(9) 0.01034 303.5 6.0
314(10) 0.00978 303.6 5.9
292(9) 0.01090 303.6 5.9
293(9) 0.01149 303.6 5.8
289(9) 0.01075 303.6 5.8
286(9) 0.01078 303.7 5.8
316(10) 0.00938 303.7 5.7
309(10) 0.01003 303.7 5.7
315(9) 0.01068 303.7 5.7
314(9) 0.01009 303.8 5.6
329(10) 0.00979 303.8 5.6
311(9) 0.01022 303.8 5.6
282(9) 0.01149 303.9 5.6
292(9) 0.01151 303.9 5.6
310(9) 0.01012 303.9 5.5
329(10) 0.00921 303.9 5.5
328(10) 0.00940 304.0 5.5
329(10) 0.00999 304.0 5.5
315(9) 0.01042 304.0 5.5
275(9) 0.01092 304.0 5.5
304(9) 0.01012 304.1 5.5
299(9) 0.01083 304.1 5.5
286(9) 0.01127 304.1 5.5
299(9) 0.01122 304.1 5.5
318(10) 0.00995 304.2 5.5
288(9) 0.01036 304.2 5.5
278(9) 0.01144 304.2 5.5
306(9) 0.01080 304.3 5.5
316(9) 0.01071 304.3 5.5
306(9) 0.01046 304.3 5.5
294(10) 0.00981 304.3 5.5
299(9) 0.01050 304.4 5.5
313(9) 0.01035 304.4 5.5
299(9) 0.01118 304.4 5.6
285(9) 0.01092 304.4 5.6
271(9) 0.01088 304.5 5.6
305(9) 0.01022 304.5 5.6
321(9) 0.01044 304.5 5.6
315(9) 0.01048 304.5 5.7
328(10) 0.00954 304.6 5.7
311(10) 0.00957 304.6 5.7
319(10) 0.00969 304.6 5.8
324(9) 0.01046 304.6 5.8
306(9) 0.01084 304.7 5.8
289(9) 0.01099 304.7 5.9
305(10) 0.00967 304.7 5.9
319(10) 0.00961 304.8 6.0
302(9) 0.01105 304.8 6.0
327(9) 0.01028 304.8 6.1
305(9) 0.01046 304.8 6.1
322(10) 0.00959 304.9 6.2
322(10) 0.00984 304.9 6.2
292(9) 0.01138 304.9 6.3
294(9) 0.01106 304.8 6.4
314(9) 0.01016 304.8 6.4
305(10) 0.00982 304.8 6.5
301(9) 0.01014 304.8 6.6
307(9) 0.01090 304.8 6.6
323(9) 0.01009 304.7 6.7
317(10) 0.00996 304.7 6.8
333(10) 0.00926 304.7 6.8
317(9) 0.01032 304.7 6.9
296(9) 0.01131 304.7 7.0
302(9) 0.01025 304.6 7.0
316(10) 0.00990 304.6 7.1
299(9) 0.01066 304.6 7.1
318(9) 0.01017 304.6 7.2
303(9) 0.01082 304.6 7.2
320(10) 0.00998 304.5 7.3
309(10) 0.01003 304.5 7.3
290(9) 0.01043 304.5 7.4
282(9) 0.01164 304.5 7.4
324(9) 0.01054 304.5 7.5
299(9) 0.01073 304.4 7.5
291(9) 0.01028 304.4 7.6
280(9) 0.01076 304.4 7.6
291(9) 0.01131 304.4 7.6
284(9) 0.01164 304.4 7.7
312(9) 0.01020 304.3 7.7
333(10) 0.00905 304.3 7.7
312(9) 0.01032 304.3 7.7
313(9) 0.01054 304.3 7.8
302(9) 0.01113 304.3 7.8
318(10) 0.01001 304.2 7.8
317(10) 0.00908 304.2 7.8
307(9) 0.01027 304.2 7.7
285(9) 0.01162 304.2 7.7
328(9) 0.01028 304.2 7.7
324(9) 0.01008 304.1 7.7
314(10) 0.00913 304.1 7.6
295(9) 0.01074 304.1 7.6
294(9) 0.01127 304.1 7.5
301(9) 0.01109 304.1 7.5
314(9) 0.01010 304.0 7.4
304(10) 0.00949 304.0 7.3
303(10) 0.01003 304.0 7.3
297(9) 0.01130 304.0 7.2
304(9) 0.01102 304.0 7.1
299(9) 0.01047 303.9 7.0
310(10) 0.00970 303.9 7.0
318(10) 0.00994 303.9 6.9
312(9) 0.01078 303.9 6.8
338(10) 0.00976 303.9 6.7
315(9) 0.01027 303.8 6.7
310(9) 0.01016 303.8 6.6
298(9) 0.01081 303.8 6.5
302(9) 0.01105 303.8 6.4
328(10) 0.00970 303.8 6.3
313(10) 0.01002 303.7 6.3
287(9) 0.01101 303.7 6.2
305(9) 0.01032 303.7 6.1
341(10) 0.00992 303.7 6.0
344(10) 0.00942 303.7 6.0
306(9) 0.01047 303.7 5.9
315(10) 0.00959 303.6 5.8
316(9) 0.01026 303.6 5.8
300(9) 0.01113 303.6 5.7
330(10) 0.00945 303.6 5.6
316(10) 0.00979 303.6 5.6
300(9) 0.01032 303.5 5.5
282(9) 0.01160 303.5 5.5
319(9) 0.01049 303.5 5.4
315(10) 0.00978 303.5 5.3
316(10) 0.00964 303.5 5.3
328(10) 0.00959 303.4 5.3
277(9) 0.01188 303.4 5.2
298(9) 0.01122 303.4 5.2
302(9) 0.01041 303.4 5.1
297(9) 0.01010 303.4 5.1
293(9) 0.01056 303.3 5.0
312(9) 0.01069 303.3 5.0
316(9) 0.01057 303.3 5.0
314(10) 0.00992 303.3 5.0
291(9) 0.01035 303.3 4.9
309(9) 0.01034 303.2 4.9
288(9) 0.01151 303.2 4.9
317(9) 0.01062 303.2 4.9
305(9) 0.01033 303.2 4.8
308(10) 0.00977 303.2 4.8
309(9) 0.01023 303.1 4.8
316(9) 0.01052 303.1 4.8
299(9) 0.01101 303.1 4.8
276(9) 0.01109 303.1 4.8
306(10) 0.00934 303.1 4.8
312(9) 0.01029 303.0 4.8
331(10) 0.01006 303.0 4.8
310(9) 0.01065 303.0 4.8
320(10) 0.00989 303.0 4.8
316(10) 0.00960 303.0 4.8
292(9) 0.01070 302.9 4.8
307(9) 0.01091 302.9 4.8
293(9) 0.01133 302.9 4.9
304(9) 0.01012 302.9 4.9
284(9) 0.01039 302.9 4.9
297(9) 0.01056 302.8 4.9
301(9) 0.01118 302.8 5.0
302(9) 0.01019 302.8 5.0
285(9) 0.01098 302.8 5.0
276(9) 0.01103 302.8 5.1
286(9) 0.01083 302.7 5.1
329(9) 0.01028 302.7 5.2
309(9) 0.01040 302.7 5.2
316(10) 0.00960 302.7 5.3
292(9) 0.01054 302.7 5.4
302(9) 0.01053 302.6 5.4
289(9) 0.01152 302.6 5.5
284(9) 0.01114 302.6 5.6
306(10) 0.01001 302.6 5.7
314(10) 0.00993 302.6 5.7
315(9) 0.01026 302.5 5.8
271(9) 0.01209 302.5 5.9
305(9) 0.01021 302.5 6.0
292(9) 0.01035 302.5 6.2
289(9) 0.01106 302.5 6.3
289(9) 0.01134 302.4 6.4
307(9) 0.01088 302.4 6.5
289(9) 0.01086 302.4 6.7
322(10) 0.00899 302.4 6.8
329(10) 0.00946 302.4 7.0
332(9) 0.01015 302.3 7.2
319(9) 0.01062 302.3 7.4
303(9) 0.01046 302.3 7.6
283(9) 0.01088 302.3 7.8
313(10) 0.01002 302.3 8.0
302(9) 0.01120 302.2 8.3
318(9) 0.01033 302.2 8.6
314(10) 0.01005 302.2 8.9
300(10) 0.00981 302.2 9.2
313(10) 0.00981 302.2 9.5
308(9) 0.01090 302.1 9.9
313(9) 0.01047 302.1 10.2
304(9) 0.01045 302.1 10.6
305(10) 0.00983 302.1 11.1
310(10) 0.00981 302.1 11.5
284(9) 0.01179 302.0 12.0
302(9) 0.01105 302.0 12.5
297(9) 0.01085 302.0 13.0
293(9) 0.01060 302.0 13.5
309(9) 0.01020 302.0 14.0
323(9) 0.01039 301.9 14.6
324(9) 0.01023 301.9 15.1
319(10) 0.00989 301.9 15.6
318(10) 0.00967 301.9 16.0
313(10) 0.00998 301.9 16.4
306(9) 0.01094 301.9 16.7
299(9) 0.01099 301.8 16.9
320(10) 0.00965 301.8 17.1
306(10) 0.01004 301.8 17.1
326(10) 0.00992 301.8 17.1
306(9) 0.01099 301.8 17.0
314(9) 0.01010 301.7 16.7
324(10) 0.00939 301.7 16.5
323(10) 0.00953 301.7 16.1
292(9) 0.01094 301.7 15.7
297(9) 0.01123 301.7 15.3
303(9) 0.01064 301.6 14.9
299(9) 0.01047 301.6 14.4
327(10) 0.00968 301.6 14.0
316(9) 0.01032 301.6 13.6
297(9) 0.01120 301.6 13.2
305(10) 0.00989 301.5 12.8
313(10) 0.00973 301.5 12.4
322(10) 0.00961 301.5 12.1
312(9) 0.01044 301.5 11.8
293(9) 0.01134 301.5 11.5
302(10) 0.01003 301.4 11.3
314(10) 0.00963 301.4 11.1
322(10) 0.00998 301.4 10.9
277(9) 0.01191 301.4 10.7
325(9) 0.01021 301.4 10.6
307(9) 0.01030 301.3 10.5
293(9) 0.01034 301.3 10.4
301(9) 0.01027 301.3 10.3
300(9) 0.01127 301.3 10.2
303(9) 0.01107 301.3 10.2
312(9) 0.01014 301.2 10.2
323(10) 0.00886 301.2 10.2
314(9) 0.01037 301.2 10.2
301(9) 0.01112 301.2 10.2
292(9) 0.01136 301.2 10.2
303(9) 0.01010 301.1 10.2
325(10) 0.00906 301.1 10.3
313(10) 0.01007 301.1 10.3
318(9) 0.01057 301.1 10.4
297(9) 0.01111 301.1 10.5
333(10) 0.00940 301.0 10.6
306(10) 0.00983 301.0 10.6
305(10) 0.01001 301.0 10.7
302(9) 0.01106 301.0 10.8
311(9) 0.01060 301.0 11.0
306(9) 0.01030 300.9 11.1
316(10) 0.00991 300.9 11.2
326(10) 0.00979 300.9 11.4
325(9) 0.01045 300.9 11.5
303(9) 0.01060 300.9 11.7
317(10) 0.00996 300.8 11.9
320(10) 0.00981 300.8 12.2
328(10) 0.00971 300.8 12.4
308(9) 0.01087 300.8 12.7
339(10) 0.00958 300.8 13.0
338(10) 0.00907 300.7 13.4
313(10) 0.00983 300.7 13.7
325(10) 0.01000 300.7 14.2
290(9) 0.01146 300.7 14.7
316(10) 0.00971 300.7 15.2
315(10) 0.00976 300.6 15.8
322(10) 0.00982 300.6 16.5
320(9) 0.01034 300.6 17.2
323(9) 0.01032 300.6 18.0
330(10) 0.00983 300.6 18.8
336(10) 0.00888 300.5 19.7
317(10) 0.01000 300.5 20.7
326(10) 0.00999 300.5 21.7
323(9) 0.01044 300.5 22.7
329(10) 0.00964 300.5 23.8
317(10) 0.00967 300.4 24.9
324(10) 0.00995 300.4 25.9
319(9) 0.01041 300.4 26.8
360(10) 0.00939 300.4 27.7
341(10) 0.00929 300.4 28.3
339(10) 0.00864 300.3 28.8
337(10) 0.00928 300.3 29.1
305(9) 0.01098 300.3 29.1
330(10) 0.01006 300.3 28.8
331(10) 0.00972 300.3 28.4
313(10) 0.00936 300.2 27.7
316(9) 0.01014 300.2 26.8
337(10) 0.00991 300.2 25.8
339(10) 0.00990 300.2 24.8
342(10) 0.00937 300.2 23.7
310(10) 0.00926 300.1 22.5
300(9) 0.01059 300.1 21.4
336(10) 0.00998 300.1 20.3
298(9) 0.01107 300.1 19.3
315(9) 0.01011 300.1 18.3
312(9) 0.01009 300.1 17.4
320(10) 0.00988 300.0 16.5
318(9) 0.01069 300.0 15.7
303(9) 0.01042 300.0 15.0
321(10) 0.00950 300.0 14.3
337(10) 0.00879 300.0 13.7
328(10) 0.00957 299.9 13.2
303(9) 0.01091 299.9 12.7
288(9) 0.01126 299.9 12.3
307(9) 0.01031 299.9 11.9
314(10) 0.00945 299.9 11.5
299(9) 0.01015 299.8 11.2
315(9) 0.01067 299.8 10.9
320(9) 0.01023 299.8 10.7
312(10) 0.00998 299.8 10.5
340(10) 0.00877 299.8 10.3
308(9) 0.01061 299.7 10.1
307(9) 0.01085 299.7 9.9
312(9) 0.01015 299.7 9.8
327(10) 0.00934 299.7 9.6
334(10) 0.00901 299.7 9.5
323(10) 0.00985 299.6 9.3
287(9) 0.01161 299.6 9.2
299(9) 0.01031 299.6 9.0
295(9) 0.01056 299.6 8.9
304(9) 0.01057 299.6 8.7
319(9) 0.01043 299.5 8.6
328(9) 0.01020 299.5 8.4
326(10) 0.00979 299.5 8.3
300(9) 0.01017 299.5 8.1
298(9) 0.01060 299.5 7.9
299(9) 0.01108 299.4 7.8
302(9) 0.01099 299.4 7.6
298(9) 0.01066 299.4 7.5
281(9) 0.01059 299.4 7.3
311(10) 0.01006 299.4 7.2
313(9) 0.01078 299.3 7.0
285(9) 0.01163 299.3 6.9
299(9) 0.01066 299.3 6.7
314(10) 0.00940 299.3 6.6
326(10) 0.00945 299.3 6.5
320(9) 0.01066 299.2 6.4
328(10) 0.01008 299.2 6.3
311(9) 0.01045 299.2 6.2
281(9) 0.01088 299.2 6.1
292(9) 0.01089 299.2 6.0
303(9) 0.01095 299.1 5.9
298(9) 0.01143 299.1 5.8
302(9) 0.01037 299.1 5.8
306(10) 0.00961 299.1 5.7
308(9) 0.01027 299.1 5.7
299(9) 0.01126 299.0 5.6
317(9) 0.01057 299.0 5.6
316(9) 0.01009 299.0 5.5
291(9) 0.01034 299.0 5.5
306(9) 0.01039 299.0 5.5
312(9) 0.01073 298.9 5.4
310(9) 0.01046 298.9 5.4
301(9) 0.01052 298.9 5.4
316(10) 0.00948 298.9 5.4
334(10) 0.00929 298.9 5.4
305(9) 0.01101 298.8 5.4
305(9) 0.01073 298.8 5.4
285(9) 0.01113 298.8 5.4
312(10) 0.00956 298.8 5.4
307(9) 0.01022 298.8 5.4
302(9) 0.01113 298.7 5.5
295(9) 0.01083 298.7 5.5
308(9) 0.01017 298.7 5.5
300(9) 0.01033 298.7 5.6
280(9) 0.01152 298.7 5.6
312(9) 0.01069 298.6 5.6
270(9) 0.01173 298.6 5.7
298(9) 0.01028 298.6 5.7
310(9) 0.01028 298.6 5.8
301(9) 0.01104 298.6 5.9
290(9) 0.01138 298.6 5.9
318(10) 0.00917 298.6 6.0
294(9) 0.01009 298.6 6.1
293(9) 0.01037 298.6 6.2
294(9) 0.01111 298.6 6.3
311(9) 0.01083 298.6 6.4
310(9) 0.01038 298.6 6.5
300(9) 0.01069 298.6 6.7
304(9) 0.01057 298.6 6.8
294(9) 0.01132 298.6 6.9
312(9) 0.01072 298.6 7.1
317(10) 0.00990 298.6 7.3
321(10) 0.00959 298.6 7.5
331(10) 0.00965 298.6 7.7
303(9) 0.01100 298.6 7.9
306(9) 0.01100 298.6 8.2
312(9) 0.01028 298.6 8.4
301(9) 0.01019 298.6 8.7
313(9) 0.01025 298.6 9.1
324(9) 0.01034 298.6 9.4
326(9) 0.01027 298.6 9.9
307(9) 0.01018 298.6 10.3
329(10) 0.00909 298.6 10.8
344(10) 0.00918 298.6 11.3
284(9) 0.01160 298.6 11.9
323(9) 0.01022 298.6 12.5
311(10) 0.01000 298.6 13.1
321(10) 0.00958 298.6 13.8
338(10) 0.00934 298.6 14.5
329(9) 0.01033 298.6 15.2
333(10) 0.00986 298.6 15.9
311(9) 0.01043 298.6 16.5
320(10) 0.00960 298.6 17.1
291(9) 0.01100 298.6 17.5
309(9) 0.01092 298.6 17.8
310(9) 0.01033 298.6 17.9
325(10) 0.00978 298.6 18.0
325(10) 0.00965 298.6 17.9
330(10) 0.00962 298.6 17.8
318(9) 0.01057 298.6 17.7
337(10) 0.00954 298.6 17.6
325(10) 0.00924 298.6 17.5
330(10) 0.00952 298.6 17.4
322(10) 0.00986 298.6 17.4
321(9) 0.01053 298.6 17.4
319(9) 0.01017 298.6 17.5
345(10) 0.00904 298.6 17.6
328(10) 0.00957 298.6 17.8
328(9) 0.01020 298.6 18.0
338(10) 0.00993 298.6 18.3
349(10) 0.00894 298.6 18.5
308(9) 0.01026 298.6 18.8
337(10) 0.00946 298.6 19.2
340(10) 0.00955 298.6 19.5
333(9) 0.01019 298.6 19.8
325(10) 0.00974 298.6 20.1
331(10) 0.00909 298.6 20.4
345(10) 0.00933 298.6 20.7
341(10) 0.00977 298.6 20.9
328(9) 0.01025 298.6 21.1
316(9) 0.01029 298.6 21.3
318(10) 0.00943 298.6 21.4
320(10) 0.00990 298.6 21.4
324(9) 0.01046 298.6 21.4
309(9) 0.01079 298.6 21.4
342(10) 0.00925 298.6 21.3
319(10) 0.00911 298.6 21.2
310(10) 0.00997 298.6 21.0
299(9) 0.01109 298.6 20.8
322(9) 0.01037 298.6 20.6
313(9) 0.01010 298.6 20.4
313(10) 0.00945 298.6 20.2
309(10) 0.01000 298.6 19.9
312(9) 0.01070 298.6 19.7
312(9) 0.01071 298.6 19.4
316(10) 0.01000 298.6 19.2
313(10) 0.00964 298.6 18.9
325(10) 0.00958 298.6 18.7
316(9) 0.01060 298.6 18.5
327(9) 0.01028 298.6 18.3
327(10) 0.00938 298.6 18.1
312(10) 0.00935 298.6 17.9
323(10) 0.00961 298.6 17.7
314(9) 0.01070 298.6 17.6
320(9) 0.01035 298.6 17.5
330(10) 0.00977 298.6 17.4
325(10) 0.00964 298.6 17.3
322(10) 0.00992 298.6 17.3
306(9) 0.01101 298.6 17.3
310(9) 0.01022 298.6 17.4
286(9) 0.01090 298.6 17.5
322(10) 0.00910 298.6 17.6
316(10) 0.00999 298.6 17.8
338(10) 0.00990 298.6 18.0
329(10) 0.00971 298.6 18.3
326(10) 0.00957 298.6 18.6
351(10) 0.00876 298.6 19.0
330(10) 0.00988 298.6 19.5
320(9) 0.01038 298.6 20.0
341(10) 0.00907 298.6 20.6
337(10) 0.00914 298.6 21.2
320(10) 0.00996 298.6 21.9
328(10) 0.00992 298.6 22.6
322(9) 0.01043 298.6 23.3
304(9) 0.01029 298.6 24.0
290(9) 0.01040 298.6 24.7
340(10) 0.00918 298.6 25.2
324(9) 0.01038 298.6 25.6
333(9) 0.01014 298.6 25.9
328(10) 0.00984 298.6 25.9
310(10) 0.01003 298.6 25.7
330(10) 0.00975 298.6 25.4
344(10) 0.00994 298.6 24.8
314(9) 0.01079 298.6 24.1
330(10) 0.00958 298.6 23.2
323(10) 0.00907 298.6 22.3
323(10) 0.00924 298.6 21.3
291(9) 0.01160 298.6 20.2
313(9) 0.01064 298.6 19.2
325(10) 0.00959 298.6 18.3
293(9) 0.01025 298.6 17.4
300(9) 0.01018 298.6 16.5
317(9) 0.01071 298.6 15.7
309(9) 0.01066 298.6 14.9
313(9) 0.01014 298.6 14.2
320(10) 0.00953 298.6 13.6
301(9) 0.01066 298.6 13.0
329(9) 0.01023 298.6 12.5
298(9) 0.01115 298.6 12.0
297(9) 0.01038 298.6 11.6
308(10) 0.00962 298.6 11.2
284(9) 0.01089 298.6 10.9
297(9) 0.01122 298.6 10.6
289(9) 0.01135 298.6 10.3
308(10) 0.01004 298.6 10.1
319(10) 0.00955 298.6 9.9
320(10) 0.00991 298.6 9.7
330(9) 0.01022 298.6 9.5
321(9) 0.01016 298.6 9.4
288(9) 0.01122 298.6 9.3
339(10) 0.00902 298.6 9.2
311(9) 0.01060 298.6 9.1
323(9) 0.01044 298.6 9.1
321(10) 0.00996 298.6 9.0
319(10) 0.00991 298.6 9.0
316(10) 0.01002 298.6 9.1
308(9) 0.01044 298.6 9.1
312(9) 0.01075 298.6 9.2
299(9) 0.01045 298.6 9.3
303(9) 0.01031 298.6 9.4
310(9) 0.01019 298.6 9.5
316(9) 0.01022 298.6 9.7
275(9) 0.01208 298.6 9.9
310(9) 0.01036 298.6 10.1
313(10) 0.00984 298.6 10.4
307(9) 0.01040 298.6 10.7
320(9) 0.01030 298.6 11.1
325(9) 0.01019 298.6 11.5
330(10) 0.00974 298.6 12.0
299(10) 0.01001 298.6 12.5
271(9) 0.01194 298.6 13.0
323(9) 0.01032 298.6 13.7
297(9) 0.01134 298.6 14.4
320(10) 0.00949 298.6 15.1
306(10) 0.00964 298.6 15.9
335(10) 0.00936 298.6 16.8
307(9) 0.01096 298.6 17.6
308(9) 0.01078 298.6 18.6
315(10) 0.00974 298.6 19.5
315(10) 0.00927 298.6 20.4
324(10) 0.00974 298.6 21.2
280(9) 0.01194 298.6 21.9
321(9) 0.01054 298.6 22.4
302(9) 0.01032 298.6 22.8
306(10) 0.00960 298.6 23.0
332(10) 0.00971 298.6 22.9
311(9) 0.01086 298.6 22.6
326(9) 0.01027 298.6 22.2
338(10) 0.00936 298.6 21.5
313(10) 0.00983 298.6 20.8
324(10) 0.00972 298.6 20.0
313(9) 0.01076 298.6 19.1
315(9) 0.01048 298.6 18.2
317(10) 0.00983 298.6 17.3
316(10) 0.00948 298.6 16.5
314(10) 0.00978 298.6 15.7
288(9) 0.01165 298.6 15.0
317(9) 0.01047 298.6 14.3
311(10) 0.00990 298.6 13.7
289(9) 0.01059 298.6 13.2
308(9) 0.01012 298.6 12.8
322(9) 0.01037 298.6 12.4
309(9) 0.01059 298.6 12.0
337(10) 0.00913 298.6 11.8
334(10) 0.00915 298.6 11.6
315(9) 0.01009 298.6 11.5
304(9) 0.01102 298.6 11.4
314(9) 0.01043 298.6 11.5
325(10) 0.00943 298.6 11.6
321(10) 0.00980 298.6 11.8
330(10) 0.00974 298.6 12.1
302(9) 0.01104 298.6 12.5
291(9) 0.01067 298.6 13.1
313(10) 0.00956 298.6 13.7
320(10) 0.00981 298.6 14.4
315(9) 0.01046 298.6 15.3
320(9) 0.01059 298.6 16.2
330(10) 0.00940 298.6 17.1
297(9) 0.01032 298.6 18.0
323(10) 0.00986 298.6 18.7
337(10) 0.00977 298.6 19.2
312(9) 0.01081 298.6 19.3
328(10) 0.00933 298.6 19.1
264(9) 0.01136 298.6 18.6
313(10) 0.00972 298.6 17.8
333(10) 0.00992 298.6 16.9
303(9) 0.01096 298.6 16.0
317(9) 0.01032 298.6 15.1
314(10) 0.00988 298.6 14.3
309(9) 0.01046 298.6 13.6
314(9) 0.01057 298.6 13.0
312(9) 0.01064 298.6 12.4
297(9) 0.01060 298.6 12.0
316(10) 0.00909 298.6 11.7
300(9) 0.01022 298.6 11.4
302(9) 0.01111 298.6 11.2
326(9) 0.01035 298.6 11.1
344(10) 0.00940 298.6 11.0
329(10) 0.00930 298.6 11.0
328(10) 0.00942 298.6 11.0
299(9) 0.01130 298.6 11.0
337(10) 0.00978 298.6 11.1
314(9) 0.01015 298.6 11.2
316(10) 0.00948 298.6 11.3
313(10) 0.00982 298.6 11.4
301(9) 0.01115 298.6 11.6
294(9) 0.01117 298.6 11.7
299(9) 0.01020 298.6 11.9
306(10) 0.00959 298.6 12.1
294(9) 0.01048 298.6 12.4
291(9) 0.01149 298.6 12.6
286(9) 0.01128 298.6 12.9
315(10) 0.00975 298.6 13.2
301(9) 0.01028 298.6 13.5
306(9) 0.01032 298.6 13.9
304(9) 0.01104 298.6 14.2
323(10) 0.00976 298.6 14.6
333(10) 0.00944 298.6 15.1
333(10) 0.00921 298.6 15.5
341(10) 0.00964 298.6 16.0
325(9) 0.01041 298.6 16.6
328(10) 0.00983 298.6 17.2
337(10) 0.00897 298.6 17.8
313(10) 0.00994 298.6 18.6
313(9) 0.01057 298.6 19.3
312(9) 0.01066 298.6 20.2
338(10) 0.00950 298.6 21.1
323(10) 0.00944 298.6 22.1
321(10) 0.00975 298.6 23.3
339(10) 0.00983 298.6 24.5
328(9) 0.01019 298.6 25.9
344(10) 0.00934 298.6 27.4
341(10) 0.00888 298.6 29.2
341(10) 0.00924 298.6 31.1
353(10) 0.00952 298.6 33.2
341(10) 0.00988 298.6 35.5
348(10) 0.00912 298.6 38.2
372(11) 0.00804 298.6 41.1
365(10) 0.00902 298.6 44.4
369(10) 0.00928 298.6 48.0
387(10) 0.00885 298.6 52.0
363(10) 0.00887 298.6 56.4
401(11) 0.00763 298.6 61.2
412(11) 0.00789 298.6 66.5
378(10) 0.00903 298.6 72.1
401(10) 0.00868 298.6 78.0
384(10) 0.00870 298.6 84.2
407(11) 0.00751 298.6 90.4
404(11) 0.00801 298.6 96.5
419(11) 0.00816 298.6 102.3
419(11) 0.00806 298.6 107.4
436(11) 0.00738 298.6 111.5
448(12) 0.00682 298.6 114.3
441(11) 0.00714 298.6 115.7
425(11) 0.00813 298.6 115.6
417(11) 0.00802 298.6 113.8
424(11) 0.00749 298.6 110.7
440(11) 0.00710 298.6 106.4
421(11) 0.00784 298.6 101.2
398(10) 0.00866 298.6 95.4
384(11) 0.00835 298.6 89.3
400(11) 0.00773 298.6 83.2
383(11) 0.00828 298.6 77.2
377(10) 0.00848 298.6 71.5
380(10) 0.00902 298.6 66.1
360(10) 0.00876 298.6 61.1
327(10) 0.00943 298.6 56.5
347(10) 0.00898 298.6 52.2
353(10) 0.00926 298.6 48.3
350(10) 0.00974 298.6 44.8
323(10) 0.00977 298.6 41.6
346(10) 0.00858 298.6 38.7
340(10) 0.00910 298.6 36.0
328(9) 0.01012 298.6 33.6
342(10) 0.00994 298.6 31.4
329(10) 0.00943 298.6 29.5
318(10) 0.00959 298.6 27.7
310(9) 0.01035 298.6 26.1
324(9) 0.01030 298.6 24.7
344(10) 0.00988 298.6 23.4
319(9) 0.01015 298.6 22.2
322(10) 0.00946 298.6 21.1
318(10) 0.00990 298.6 20.1
339(10) 0.00991 298.6 19.3
355(10) 0.00962 298.6 18.5
325(10) 0.01005 298.6 17.8
303(10) 0.00948 298.6 17.2
322(10) 0.00979 298.6 16.6
313(9) 0.01082 298.6 16.1
329(10) 0.01006 298.6 15.6
296(9) 0.01063 298.6 15.2
316(10) 0.00932 298.6 14.9
335(10) 0.00943 298.6 14.5
303(9) 0.01101 298.6 14.3
315(9) 0.01047 298.6 14.0
311(10) 0.00978 298.6 13.8
293(9) 0.01042 298.6 13.6
307(9) 0.01029 298.6 13.5
297(9) 0.01130 298.6 13.4
319(9) 0.01023 298.6 13.3
324(10) 0.00984 298.6 13.2
316(10) 0.00920 298.6 13.1
295(9) 0.01032 298.6 13.0
316(9) 0.01074 298.6 13.0
307(9) 0.01079 298.6 12.9
301(9) 0.01022 298.6 12.8
294(9) 0.01043 298.6 12.7
295(9) 0.01092 298.6 12.6
302(9) 0.01107 298.6 12.4
304(9) 0.01076 298.6 12.2
315(9) 0.01019 298.6 12.0
316(10) 0.00949 298.6 11.8
315(9) 0.01022 298.6 11.6
339(10) 0.00996 298.6 11.4
309(9) 0.01032 298.6 11.1
315(10) 0.00980 298.6 10.8
290(9) 0.01096 298.6 10.6
301(9) 0.01040 298.6 10.3
312(9) 0.01075 298.6 10.1
324(10) 0.00941 298.6 9.8
335(10) 0.00934 298.6 9.6
319(10) 0.01005 298.6 9.4
317(9) 0.01060 298.6 9.2
291(9) 0.01131 298.6 9.0
305(9) 0.01042 298.6 8.8
327(10) 0.00912 298.6 8.6
305(9) 0.01022 298.6 8.5
293(9) 0.01127 298.6 8.3
318(9) 0.01069 298.6 8.2
306(9) 0.01045 298.6 8.1
299(10) 0.01004 298.6 8.0
289(9) 0.01102 298.6 7.9
305(9) 0.01094 298.6 7.8
311(9) 0.01073 298.6 7.7
305(9) 0.01044 298.6 7.6
340(10) 0.00856 298.6 7.6
297(9) 0.01070 298.6 7.5
307(9) 0.01089 298.6 7.5
321(9) 0.01049 298.6 7.4
345(10) 0.00938 298.6 7.4
314(10) 0.00948 298.6 7.4
295(9) 0.01021 298.6 7.4
287(9) 0.01176 298.6 7.4
318(9) 0.01041 298.6 7.4
293(9) 0.01102 298.6 7.4
300(9) 0.01010 298.6 7.4
301(9) 0.01047 298.6 7.4
336(10) 0.01000 298.6 7.5
317(9) 0.01034 298.6 7.5
330(10) 0.00941 298.6 7.5
309(10) 0.00992 298.6 7.6
322(10) 0.00992 298.6 7.7
310(9) 0.01083 298.6 7.7
317(9) 0.01039 298.6 7.8
302(9) 0.01063 298.6 7.9
325(10) 0.00942 298.6 7.9
317(10) 0.00998 298.6 8.0
294(9) 0.01140 298.6 8.1
320(9) 0.01018 298.6 8.2
301(9) 0.01042 298.6 8.3
325(10) 0.00953 298.6 8.4
306(9) 0.01028 298.6 8.5
293(9) 0.01146 298.6 8.6
329(10) 0.00994 298.6 8.7
328(10) 0.00982 298.6 8.8
302(9) 0.01039 298.6 8.9
303(9) 0.01097 298.6 9.0
312(9) 0.01077 298.6 9.1
305(9) 0.01047 298.6 9.2
311(10) 0.00981 298.6 9.3
281(9) 0.01131 298.6 9.3
300(9) 0.01080 298.6 9.4
278(9) 0.01195 298.6 9.5
270(9) 0.01130 298.6 9.5
298(10) 0.01007 298.6 9.6
294(9) 0.01060 298.6 9.7
302(9) 0.01077 298.6 9.7
303(9) 0.01104 298.6 9.8
295(9) 0.01052 298.6 9.8
304(10) 0.00967 298.6 9.8
303(9) 0.01012 298.6 9.9
312(9) 0.01033 298.6 9.9
326(9) 0.01026 298.6 9.9
302(9) 0.01067 298.6 10.0
293(9) 0.01019 298.6 10.0
302(9) 0.01037 298.6 10.0
301(9) 0.01122 298.6 10.0
301(9) 0.01103 298.6 10.1
269(9) 0.01127 298.6 10.1
283(9) 0.01043 298.6 10.1
303(10) 0.01003 298.6 10.1
277(9) 0.01191 298.6 10.2
306(9) 0.01086 298.6 10.2
316(10) 0.00985 298.5 10.2
296(9) 0.01013 298.5 10.2
315(10) 0.00999 298.5 10.3
323(9) 0.01049 298.5 10.3
338(10) 0.00985 298.5 10.3
297(9) 0.01072 298.5 10.4
289(9) 0.01049 298.5 10.4
321(10) 0.00993 298.5 10.5
345(10) 0.00965 298.5 10.5
304(9) 0.01103 298.5 10.6
310(9) 0.01032 298.5 10.7
328(10) 0.00916 298.5 10.8
312(9) 0.01027 298.5 10.9
334(10) 0.01003 298.4 11.0
317(9) 0.01017 298.4 11.1
312(10) 0.00999 298.4 11.2
328(10) 0.00959 298.4 11.3
300(9) 0.01104 298.4 11.4
323(9) 0.01037 298.4 11.6
305(9) 0.01027 298.4 11.8
307(9) 0.01030 298.4 11.9
331(10) 0.00912 298.4 12.1
297(9) 0.01110 298.4 12.3
312(9) 0.01072 298.4 12.5
295(9) 0.01062 298.4 12.8
287(9) 0.01090 298.4 13.0
301(9) 0.01030 298.4 13.3
316(9) 0.01020 298.3 13.6
323(9) 0.01033 298.3 13.9
293(9) 0.01053 298.3 14.2
309(10) 0.00967 298.3 14.6
321(10) 0.00978 298.3 14.9
316(9) 0.01037 298.3 15.3
290(9) 0.01156 298.3 15.7
316(10) 0.01001 298.3 16.2
328(10) 0.00941 298.3 16.6
330(10) 0.01002 298.3 17.1
320(9) 0.01046 298.3 17.7
323(9) 0.01050 298.3 18.2
325(10) 0.01004 298.3 18.8
332(10) 0.00932 298.3 19.4
310(9) 0.01018 298.2 20.1
316(9) 0.01049 298.2 20.8
308(9) 0.01084 298.2 21.6
324(10) 0.00986 298.2 22.4
322(10) 0.00930 298.2 23.2
311(9) 0.01009 298.2 24.1
306(9) 0.01095 298.2 25.0
343(10) 0.00996 298.2 26.0
304(9) 0.01065 298.2 27.0
360(11) 0.00808 298.2 28.1
330(10) 0.00967 298.2 29.2
353(10) 0.00951 298.2 30.3
312(9) 0.01071 298.2 31.5
312(10) 0.01000 298.2 32.8
342(10) 0.00844 298.1 34.0
326(9) 0.01013 298.1 35.3
326(9) 0.01026 298.1 36.6
375(10) 0.00898 298.1 37.9
397(11) 0.00805 298.1 39.2
351(10) 0.00871 298.1 40.5
366(10) 0.00842 298.1 41.7
373(10) 0.00911 298.1 42.9
353(10) 0.00934 298.1 44.0
357(10) 0.00860 298.1 45.1
357(11) 0.00838 298.1 46.0
386(11) 0.00799 298.1 46.8
358(10) 0.00950 298.1 47.5
352(10) 0.00947 298.0 48.0
381(11) 0.00805 298.0 48.4
370(11) 0.00825 298.0 48.7
341(10) 0.00961 298.0 48.9
371(10) 0.00920 298.0 48.9
354(10) 0.00912 298.0 48.8
387(11) 0.00776 298.0 48.7
367(10) 0.00844 298.0 48.5
363(10) 0.00902 298.0 48.2
330(9) 0.01033 298.0 47.8
350(10) 0.00893 298.0 47.5
358(11) 0.00836 298.0 47.1
318(9) 0.01011 298.0 46.8
351(10) 0.00931 298.0 46.5
386(10) 0.00888 297.9 46.2
369(10) 0.00876 297.9 45.9
339(10) 0.00975 297.9 45.8
346(10) 0.00922 297.9 45.7
333(10) 0.00990 297.9 45.6
350(10) 0.00970 297.9 45.7
351(10) 0.00891 297.9 45.8
353(10) 0.00872 297.9 46.0
384(11) 0.00819 297.9 46.2
343(10) 0.00971 297.9 46.5
339(10) 0.01003 297.9 46.9
346(10) 0.00905 297.9 47.3
361(11) 0.00820 297.9 47.7
355(10) 0.00895 297.9 48.1
373(10) 0.00923 297.8 48.5
352(10) 0.00962 297.8 48.8
338(10) 0.00945 297.8 49.0
338(10) 0.00881 297.8 49.1
342(10) 0.00939 297.8 49.1
351(10) 0.00963 297.8 48.9
347(10) 0.00966 297.8 48.5
336(10) 0.00975 297.8 48.0
373(11) 0.00784 297.8 47.3
342(10) 0.00912 297.8 46.4
347(10) 0.00981 297.8 45.4
334(10) 0.00994 297.8 44.3
364(10) 0.00873 297.8 43.1
334(10) 0.00924 297.7 41.9
337(10) 0.00930 297.7 40.6
374(10) 0.00916 297.7 39.3
338(10) 0.00968 297.7 38.0
341(10) 0.00902 297.7 36.7
333(10) 0.00918 297.7 35.4
317(9) 0.01015 297.7 34.2
336(10) 0.01005 297.7 33.0
355(10) 0.00934 297.7 31.9
348(10) 0.00905 297.7 30.8
342(10) 0.00902 297.7 29.7
319(9) 0.01020 297.7 28.7
326(9) 0.01032 297.7 27.8
342(10) 0.00924 297.7 26.9
306(9) 0.01013 297.6 26.0
342(10) 0.00881 297.6 25.2
330(10) 0.00965 297.6 24.5
336(9) 0.01009 297.6 23.7
337(10) 0.00936 297.6 23.0
329(10) 0.00961 297.6 22.4
324(10) 0.00985 297.6 21.7
328(10) 0.00975 297.6 21.1
308(9) 0.01089 297.6 20.6
315(10) 0.00980 297.6 20.0
326(10) 0.00954 297.6 19.5
306(9) 0.01055 297.6 19.0
329(9) 0.01018 297.6 18.6
338(10) 0.00998 297.6 18.1
296(9) 0.01079 297.5 17.7
292(9) 0.01018 297.5 17.3
298(9) 0.01078 297.5 16.9
317(9) 0.01034 297.5 16.5
308(9) 0.01083 297.5 16.2
320(10) 0.00992 297.5 15.8
304(9) 0.01028 297.5 15.5
314(10) 0.01007 297.5 15.2
333(10) 0.00982 297.5 14.9
294(9) 0.01131 297.5 14.6
303(10) 0.01002 297.5 14.3
303(10) 0.00980 297.5 14.1
316(9) 0.01025 297.5 13.8
289(9) 0.01149 297.4 13.6
314(9) 0.01068 297.4 13.3
312(9) 0.01024 297.4 13.1
293(9) 0.01055 297.4 12.9
308(9) 0.01017 297.4 12.7
315(9) 0.01076 297.4 12.5
303(9) 0.01077 297.4 12.3
297(9) 0.01092 297.4 12.1
295(9) 0.01014 297.4 11.9
280(9) 0.01141 297.4 11.8
303(9) 0.01097 297.4 11.6
307(9) 0.01067 297.4 11.4
280(9) 0.01154 297.4 11.3
308(10) 0.00995 297.4 11.2
292(9) 0.01068 297.3 11.0
303(9) 0.01110 297.3 10.9
300(9) 0.01053 297.3 10.8
310(10) 0.00982 297.3 10.6
313(10) 0.00969 297.3 10.5
292(9) 0.01104 297.3 10.4
336(9) 0.01014 297.3 10.3
298(9) 0.01074 297.3 10.2
325(10) 0.00946 297.3 10.1
311(10) 0.00976 297.3 10.0
308(9) 0.01035 297.3 9.9
312(9) 0.01068 297.3 9.8
324(10) 0.00964 297.3 9.7
320(10) 0.00924 297.3 9.7
302(10) 0.01006 297.2 9.6
288(9) 0.01116 297.2 9.5
281(9) 0.01191 297.2 9.4
279(9) 0.01093 297.2 9.4
295(10) 0.00999 297.2 9.3
297(9) 0.01030 297.2 9.2
286(9) 0.01150 297.2 9.2
307(9) 0.01085 297.2 9.1
299(9) 0.01050 297.2 9.1
293(9) 0.01041 297.2 9.0
271(9) 0.01159 297.2 9.0
293(9) 0.01122 297.2 9.0
293(9) 0.01143 297.2 8.9
283(9) 0.01087 297.2 8.9
276(9) 0.01087 297.1 8.9
305(9) 0.01060 297.1 8.9
319(9) 0.01044 297.1 8.8
283(9) 0.01185 297.1 8.8
277(9) 0.01188 297.1 8.8
338(11) 0.00821 297.1 8.8
294(9) 0.01054 297.1 8.8
299(9) 0.01118 297.1 8.8
304(9) 0.01094 297.1 8.8
295(9) 0.01073 297.1 8.8
313(10) 0.00935 297.1 8.8
300(9) 0.01090 297.1 8.8
298(9) 0.01105 297.1 8.9
288(9) 0.01139 297.0 8.9
289(9) 0.01084 297.0 8.9
277(9) 0.01103 297.0 8.9
302(9) 0.01011 297.0 9.0
285(9) 0.01163 297.0 9.0
316(9) 0.01021 297.0 9.0
309(10) 0.00969 297.0 9.1
320(10) 0.00912 297.0 9.1
305(9) 0.01040 297.0 9.2
311(9) 0.01085 297.0 9.2
300(9) 0.01057 297.0 9.3
307(9) 0.01024 297.0 9.3
298(9) 0.01057 297.0 9.4
301(9) 0.01038 297.0 9.5
290(9) 0.01147 296.9 9.5
307(9) 0.01040 296.9 9.6
299(9) 0.01057 296.9 9.7
323(10) 0.00955 296.9 9.8
311(9) 0.01041 296.9 9.8
301(9) 0.01113 296.9 9.9
292(9) 0.01082 296.9 10.0
293(9) 0.01056 296.9 10.1
327(10) 0.00972 296.9 10.2
314(9) 0.01029 296.9 10.3
286(9) 0.01157 296.9 10.4
289(9) 0.01071 296.9 10.5
286(9) 0.01069 296.9 10.6
323(10) 0.00980 296.9 10.7
330(9) 0.01012 296.8 10.8
291(9) 0.01138 296.8 10.9
299(9) 0.01049 296.8 11.0
278(9) 0.01058 296.8 11.1
307(10) 0.00998 296.8 11.2
281(9) 0.01155 296.8 11.3
291(9) 0.01152 296.8 11.4
300(9) 0.01066 296.8 11.5
313(10) 0.00969 296.8 11.6
327(10) 0.00980 296.8 11.7
285(9) 0.01148 296.8 11.8
300(9) 0.01104 296.8 11.8
291(9) 0.01092 296.8 11.9
308(10) 0.00933 296.7 12.0
285(9) 0.01145 296.7 12.0
307(9) 0.01088 296.7 12.1
311(9) 0.01064 296.7 12.1
310(9) 0.01018 296.7 12.2
305(10) 0.00951 296.7 12.2
272(9) 0.01137 296.7 12.2
302(9) 0.01114 296.7 12.3
336(10) 0.01005 296.7 12.3
309(9) 0.01017 296.7 12.3
311(10) 0.00933 296.7 12.3
312(10) 0.00975 296.7 12.3
305(9) 0.01085 296.7 12.3
319(9) 0.01019 296.7 12.2
290(9) 0.01091 296.6 12.2
292(9) 0.01064 296.6 12.2
283(9) 0.01115 296.6 12.2
286(9) 0.01160 296.6 12.2
309(9) 0.01019 296.6 12.2
305(9) 0.01026 296.6 12.1
335(10) 0.00922 296.6 12.1
288(9) 0.01114 296.6 12.1
288(9) 0.01147 296.6 12.1
287(9) 0.01143 296.6 12.1
311(9) 0.01019 296.6 12.0
288(9) 0.01088 296.6 12.0
289(9) 0.01101 296.6 12.0
308(9) 0.01084 296.6 12.0
320(9) 0.01019 296.5 12.0
317(10) 0.00991 296.5 12.0
287(9) 0.01088 296.5 12.0
307(9) 0.01016 296.5 12.1
293(9) 0.01133 296.5 12.1
325(10) 0.00977 296.5 12.1
323(10) 0.00934 296.5 12.1
319(10) 0.00977 296.5 12.1
311(9) 0.01046 296.5 12.2
306(9) 0.01107 296.5 12.2
292(9) 0.01077 296.5 12.3
328(10) 0.00923 296.5 12.3
304(9) 0.01067 296.5 12.3
301(9) 0.01087 296.5 12.4
321(9) 0.01062 296.4 12.5
311(9) 0.01016 296.4 12.5
309(10) 0.00976 296.4 12.6
324(10) 0.00967 296.4 12.6
315(9) 0.01043 296.4 12.7
304(9) 0.01122 296.4 12.7
291(9) 0.01083 296.4 12.8
298(9) 0.01034 296.4 12.8
305(9) 0.01076 296.4 12.9
309(9) 0.01075 296.4 12.9
311(9) 0.01068 296.4 12.9
309(9) 0.01048 296.4 13.0
309(10) 0.00952 296.4 13.0
317(10) 0.00949 296.3 13.0
321(9) 0.01035 296.3 13.0
307(9) 0.01087 296.3 13.0
305(9) 0.01033 296.3 13.0
287(9) 0.01038 296.3 12.9
326(10) 0.00957 296.3 12.9
306(9) 0.01094 296.3 12.8
327(10) 0.01000 296.3 12.8
305(9) 0.01039 296.3 12.7
292(9) 0.01051 296.3 12.7
308(9) 0.01033 296.3 12.6
291(9) 0.01146 296.3 12.5
322(10) 0.01003 296.3 12.4
343(10) 0.00913 296.3 12.3
313(9) 0.01011 296.2 12.3
320(10) 0.00983 296.2 12.2
303(9) 0.01111 296.2 12.1
289(9) 0.01147 296.2 12.0
306(10) 0.01001 296.2 11.9
296(9) 0.01031 296.2 11.8
304(9) 0.01074 296.2 11.7
321(9) 0.01044 296.2 11.5
284(9) 0.01138 296.2 11.4
295(10) 0.01000 296.2 11.3
300(9) 0.01033 296.2 11.2
316(9) 0.01022 296.2 11.1
337(9) 0.01012 296.2 11.0
309(9) 0.01019 296.2 10.9
297(9) 0.01011 296.1 10.8
311(10) 0.00979 296.1 10.7
328(9) 0.01016 296.1 10.6
323(9) 0.01052 296.1 10.5
305(9) 0.01021 296.1 10.4
324(10) 0.00936 296.1 10.3
290(9) 0.01080 296.1 10.3
261(8) 0.01249 296.1 10.2
293(9) 0.01139 296.1 10.1
301(9) 0.01041 296.1 10.0
304(10) 0.00995 296.1 9.9
286(9) 0.01085 296.1 9.9
293(9) 0.01117 296.1 9.8
280(9) 0.01191 296.0 9.7
314(9) 0.01023 296.0 9.7
294(10) 0.01001 296.0 9.6
307(10) 0.01000 296.0 9.6
293(9) 0.01125 296.0 9.5
289(9) 0.01150 296.0 9.5
298(9) 0.01077 296.0 9.4
303(10) 0.00956 296.0 9.4
300(9) 0.01050 296.0 9.4
306(9) 0.01095 296.0 9.4
288(9) 0.01146 296.0 9.4
292(9) 0.01111 296.0 9.4
302(10) 0.00989 296.0 9.4
306(9) 0.01020 296.0 9.4
307(9) 0.01102 295.9 9.4
307(9) 0.01051 295.9 9.4
289(9) 0.01105 295.9 9.5
299(10) 0.00977 295.9 9.5
287(9) 0.01055 295.9 9.6
299(9) 0.01106 295.9 9.7
292(9) 0.01125 295.9 9.8
298(9) 0.01031 295.9 9.9
332(10) 0.00917 295.9 10.0
304(9) 0.01043 295.9 10.1
302(9) 0.01091 295.9 10.3
285(9) 0.01119 295.9 10.5
294(10) 0.00989 295.9 10.8
305(10) 0.00989 295.9 11.1
318(10) 0.00998 295.8 11.4
306(9) 0.01087 295.8 11.8
306(9) 0.01093 295.8 12.3
305(9) 0.01010 295.8 12.8
330(10) 0.00941 295.8 13.5
323(10) 0.01001 295.8 14.3
298(9) 0.01116 295.8 15.3
293(9) 0.01099 295.8 16.4
337(10) 0.00890 295.8 17.7
327(10) 0.00927 295.8 19.3
315(9) 0.01026 295.8 21.0
311(9) 0.01060 295.8 23.1
321(10) 0.00994 295.8 25.3
296(9) 0.01039 295.8 27.8
310(10) 0.00990 295.7 30.5
331(10) 0.00998 295.7 33.2
330(9) 0.01023 295.7 35.8
329(10) 0.00985 295.7 38.1
353(10) 0.00864 295.7 39.8
355(10) 0.00874 295.7 40.7
344(10) 0.00971 295.7 40.6
345(10) 0.00971 295.7 39.6
342(10) 0.00922 295.7 37.8
305(10) 0.01002 295.7 35.5
328(10) 0.00975 295.7 32.9
293(9) 0.01135 295.7 30.3
315(9) 0.01065 295.7 27.8
313(9) 0.01022 295.6 25.4
304(10) 0.00964 295.6 23.4
307(9) 0.01036 295.6 21.5
318(9) 0.01052 295.6 19.9
309(9) 0.01075 295.6 18.5
321(10) 0.00972 295.6 17.4
315(10) 0.00942 295.6 16.4
313(9) 0.01020 295.6 15.6
336(9) 0.01014 295.6 15.0
303(9) 0.01093 295.6 14.4
292(9) 0.01092 295.6 14.0
313(10) 0.00991 295.6 13.7
328(10) 0.00999 295.6 13.4
319(9) 0.01063 295.6 13.2
291(9) 0.01139 295.5 13.0
319(10) 0.00983 295.5 12.9
326(10) 0.00937 295.5 12.8
304(9) 0.01038 295.5 12.8
319(9) 0.01056 295.5 12.7
324(9) 0.01009 295.5 12.7
286(9) 0.01106 295.5 12.8
312(10) 0.00984 295.5 12.8
319(10) 0.00970 295.5 12.9
305(9) 0.01103 295.5 13.0
289(9) 0.01125 295.5 13.1
313(10) 0.00980 295.5 13.2
327(10) 0.00913 295.5 13.3
309(10) 0.00993 295.5 13.5
292(9) 0.01152 295.4 13.6
300(9) 0.01055 295.4 13.8
303(9) 0.01018 295.4 14.0
302(9) 0.01063 295.4 14.2
295(9) 0.01102 295.4 14.4
305(9) 0.01091 295.4 14.7
311(10) 0.00958 295.4 15.0
308(10) 0.00947 295.4 15.2
322(10) 0.00998 295.4 15.5
315(10) 0.01004 295.4 15.9
292(9) 0.01142 295.4 16.2
325(10) 0.00966 295.4 16.5
318(10) 0.00954 295.4 16.9
306(9) 0.01038 295.3 17.2
325(9) 0.01033 295.3 17.6
310(9) 0.01080 295.3 18.0
316(10) 0.00979 295.3 18.3
300(10) 0.00977 295.3 18.6
309(10) 0.01003 295.3 19.0
316(9) 0.01040 295.3 19.3
305(9) 0.01106 295.3 19.5
319(10) 0.00997 295.3 19.8
318(10) 0.00913 295.3 20.1
289(9) 0.01084 295.3 20.3
301(9) 0.01112 295.3 20.6
325(9) 0.01038 295.3 20.9
310(9) 0.01035 295.3 21.2
323(10) 0.00936 295.2 21.5
322(10) 0.00979 295.2 21.8
302(9) 0.01095 295.2 22.1
313(9) 0.01058 295.2 22.5
349(10) 0.00910 295.2 22.8
339(10) 0.00913 295.2 23.2
301(9) 0.01061 295.2 23.6
323(9) 0.01057 295.2 24.0
325(10) 0.00983 295.2 24.4
314(10) 0.01006 295.2 24.8
286(9) 0.01086 295.2 25.2
317(10) 0.00987 295.2 25.6
336(10) 0.01001 295.2 26.1
313(10) 0.00994 295.2 26.5
333(10) 0.00953 295.1 26.9
337(10) 0.00935 295.1 27.3
323(10) 0.00990 295.1 27.7
314(9) 0.01064 295.1 28.1
342(10) 0.00971 295.1 28.5
335(10) 0.00943 295.1 28.9
345(10) 0.00910 295.1 29.3
354(10) 0.00890 295.1 29.6
352(10) 0.00970 295.1 29.9
313(9) 0.01042 295.1 30.2
325(10) 0.00975 295.1 30.5
347(10) 0.00891 295.1 30.7
326(10) 0.01007 295.1 30.9
313(9) 0.01085 295.0 31.0
335(10) 0.00942 295.0 31.1
321(10) 0.00997 295.0 31.2
327(10) 0.00993 295.0 31.2
350(10) 0.00956 295.0 31.2
335(9) 0.01013 295.0 31.1
326(10) 0.00926 295.0 31.0
329(10) 0.00878 295.0 30.8
326(10) 0.00953 295.0 30.6
326(9) 0.01012 295.0 30.3
327(9) 0.01027 295.0 30.1
352(10) 0.00899 295.0 29.8
333(10) 0.00870 295.0 29.4
323(10) 0.00973 295.0 29.1
315(9) 0.01059 294.9 28.7
279(9) 0.01182 294.9 28.3
320(10) 0.00984 294.9 28.0
310(10) 0.00957 294.9 27.6
313(9) 0.01032 294.9 27.2
331(9) 0.01020 294.9 26.8
301(9) 0.01111 294.9 26.4
313(9) 0.01025 294.9 26.1
336(10) 0.00873 294.9 25.7
327(10) 0.00987 294.9 25.4
323(9) 0.01050 294.9 25.1
315(9) 0.01056 294.9 24.8
365(10) 0.00841 294.9 24.6
342(10) 0.00889 294.9 24.3
340(10) 0.00927 294.8 24.1
316(9) 0.01065 294.8 23.8
311(9) 0.01062 294.8 23.5
322(10) 0.00968 294.8 23.3
314(10) 0.00953 294.8 22.9
324(10) 0.00954 294.8 22.6
319(9) 0.01046 294.8 22.2
325(10) 0.01004 294.8 21.7
326(10) 0.00972 294.8 21.2
333(10) 0.00904 294.8 20.7
300(9) 0.01082 294.8 20.2
306(9) 0.01097 294.8 19.6
317(9) 0.01020 294.8 19.1
305(9) 0.01027 294.8 18.5
313(10) 0.00967 294.7 18.0
322(10) 0.00984 294.7 17.5
305(9) 0.01098 294.7 17.1
312(9) 0.01029 294.7 16.6
319(10) 0.00972 294.7 16.3
321(10) 0.00956 294.7 15.9
309(9) 0.01037 294.7 15.6
296(9) 0.01122 294.7 15.3
306(9) 0.01043 294.7 15.1
337(10) 0.00896 294.7 14.9
298(9) 0.01059 294.7 14.7
295(9) 0.01107 294.7 14.7
312(9) 0.01078 294.7 14.6
300(9) 0.01021 294.6 14.7
320(10) 0.00926 294.6 14.8
302(9) 0.01031 294.6 15.0
304(9) 0.01084 294.6 15.3
325(9) 0.01027 294.6 15.7
314(9) 0.01036 294.6 16.2
345(10) 0.00897 294.6 16.8
303(9) 0.01036 294.6 17.5
292(9) 0.01127 294.6 18.4
316(9) 0.01067 294.6 19.3
291(9) 0.01098 294.6 20.4
301(9) 0.01009 294.6 21.6
310(9) 0.01039 294.6 22.7
342(10) 0.00987 294.6 23.8
291(9) 0.01139 294.5 24.8
318(9) 0.01025 294.5 25.4
290(10) 0.01000 294.5 25.7
295(9) 0.01029 294.5 25.6
299(9) 0.01119 294.5 25.1
317(9) 0.01043 294.5 24.3
311(9) 0.01017 294.5 23.2
325(10) 0.00914 294.5 22.1
301(9) 0.01073 294.5 20.9
300(9) 0.01120 294.5 19.8
299(9) 0.01080 294.5 18.7
288(9) 0.01063 294.5 17.8
305(10) 0.00995 294.5 16.9
311(10) 0.01007 294.5 16.2
277(9) 0.01208 294.4 15.6
324(10) 0.01006 294.4 15.1
334(10) 0.00960 294.4 14.7
321(10) 0.00942 294.4 14.4
295(9) 0.01061 294.4 14.1
298(9) 0.01116 294.4 13.9
304(9) 0.01054 294.4 13.7
290(9) 0.01076 294.4 13.6
313(9) 0.01018 294.4 13.5
301(9) 0.01049 294.4 13.4
296(9) 0.01135 294.4 13.3
307(9) 0.01041 294.4 13.2
287(9) 0.01067 294.4 13.2
305(10) 0.00977 294.3 13.2
304(9) 0.01038 294.3 13.2
283(9) 0.01172 294.3 13.2
298(9) 0.01059 294.3 13.3
307(9) 0.01029 294.3 13.4
328(10) 0.00968 294.3 13.5
297(9) 0.01096 294.3 13.7
315(9) 0.01070 294.3 13.9
308(10) 0.01004 294.3 14.2
292(10) 0.01004 294.3 14.4
296(9) 0.01051 294.3 14.8
330(10) 0.00992 294.3 15.2
316(9) 0.01069 294.3 15.6
317(9) 0.01016 294.3 16.1
319(10) 0.00952 294.2 16.6
296(9) 0.01074 294.2 17.2
314(9) 0.01033 294.2 17.9
292(9) 0.01146 294.2 18.6
309(9) 0.01025 294.2 19.3
316(10) 0.00953 294.2 20.0
321(10) 0.00982 294.2 20.8
337(10) 0.00974 294.2 21.6
310(9) 0.01083 294.2 22.3
305(9) 0.01027 294.2 23.1
302(10) 0.00941 294.2 23.8
301(9) 0.01033 294.2 24.4
306(9) 0.01105 294.2 25.0
307(9) 0.01073 294.2 25.6
305(9) 0.01023 294.1 26.0
284(9) 0.01073 294.1 26.5
346(10) 0.00886 294.1 26.9
320(9) 0.01055 294.1 27.3
343(10) 0.00953 294.1 27.8
317(10) 0.00977 294.1 28.3
322(10) 0.00920 294.1 28.8
314(9) 0.01010 294.1 29.3
314(9) 0.01059 294.1 29.8
327(9) 0.01031 294.1 30.3
330(10) 0.00946 294.1 30.7
327(10) 0.00920 294.1 30.9
311(9) 0.01016 294.1 30.9
322(9) 0.01049 294.1 30.7
332(10) 0.00969 294.0 30.3
329(10) 0.00957 294.0 29.8
309(10) 0.00999 294.0 29.1
310(9) 0.01049 294.0 28.5
306(9) 0.01102 294.0 27.8
305(9) 0.01048 294.0 27.1
319(10) 0.00990 294.0 26.4
324(10) 0.00970 294.0 25.8
337(10) 0.00947 294.0 25.1
337(10) 0.00995 294.0 24.5
324(10) 0.00995 294.0 23.9
304(9) 0.01026 294.0 23.4
315(10) 0.01000 294.0 22.8
297(9) 0.01082 293.9 22.2
335(10) 0.01005 293.9 21.6
288(9) 0.01086 293.9 21.0
299(10) 0.00980 293.9 20.5
310(10) 0.00950 293.9 19.9
317(9) 0.01039 293.9 19.4
305(9) 0.01095 293.9 19.0
326(10) 0.00976 293.9 18.5
315(10) 0.00948 293.9 18.1
293(9) 0.01067 293.9 17.7
288(9) 0.01146 293.9 17.3
285(9) 0.01172 293.9 17.0
303(9) 0.01042 293.9 16.6
338(10) 0.00886 293.9 16.3
301(9) 0.01080 293.8 16.0
292(9) 0.01144 293.8 15.7
318(9) 0.01067 293.8 15.3
289(9) 0.01121 293.8 15.0
302(9) 0.01010 293.8 14.6
312(9) 0.01050 293.8 14.3
327(9) 0.01029 293.8 13.9
287(9) 0.01178 293.8 13.5
306(9) 0.01027 293.8 13.1
299(10) 0.00987 293.8 12.8
295(9) 0.01052 293.8 12.4
280(9) 0.01164 293.8 12.0
301(9) 0.01110 293.8 11.6
301(9) 0.01021 293.8 11.2
303(10) 0.00946 293.7 10.8
297(9) 0.01030 293.7 10.4
310(9) 0.01088 293.7 10.0
268(9) 0.01194 293.7 9.7
277(9) 0.01115 293.7 9.4
300(10) 0.01006 293.7 9.0
303(9) 0.01038 293.7 8.7
291(9) 0.01142 293.7 8.4
305(9) 0.01072 293.7 8.1
300(9) 0.01062 293.7 7.9
303(9) 0.01019 293.7 7.6
282(9) 0.01085 293.7 7.4
277(9) 0.01192 293.7 7.1
294(9) 0.01078 293.6 6.9
289(9) 0.01076 293.6 6.7
306(9) 0.01016 293.6 6.5
299(9) 0.01085 293.6 6.3
281(9) 0.01175 293.6 6.2
289(9) 0.01112 293.6 6.0
295(9) 0.01055 293.6 5.8
288(9) 0.01093 293.6 5.7
283(9) 0.01142 293.6 5.6
304(9) 0.01097 293.6 5.4
297(9) 0.01041 293.6 5.3
298(9) 0.01015 293.6 5.2
290(9) 0.01104 293.6 5.1
305(9) 0.01069 293.6 5.0
300(9) 0.01121 293.5 4.9
293(9) 0.01076 293.5 4.8
290(9) 0.01023 293.5 4.7
283(9) 0.01095 293.5 4.6
302(9) 0.01105 293.5 4.5
304(9) 0.01093 293.5 4.4
299(9) 0.01030 293.5 4.4
297(10) 0.00933 293.5 4.3
290(9) 0.01082 293.5 4.2
313(9) 0.01072 293.5 4.2
311(9) 0.01064 293.5 4.1
279(9) 0.01088 293.5 4.0
287(10) 0.00983 293.5 4.0
290(9) 0.01055 293.5 3.9
294(9) 0.01113 293.4 3.9
299(9) 0.01110 293.4 3.8
298(10) 0.01006 293.4 3.8
304(10) 0.00968 293.4 3.7
299(9) 0.01076 293.4 3.7
315(9) 0.01069 293.4 3.7
305(9) 0.01085 293.4 3.6
315(9) 0.01041 293.4 3.6
317(10) 0.00961 293.4 3.6
298(9) 0.01042 293.4 3.5
291(9) 0.01142 293.4 3.5
293(9) 0.01143 293.4 3.5
305(9) 0.01050 293.4 3.5
299(9) 0.01013 293.3 3.4
288(9) 0.01089 293.3 3.4
274(9) 0.01188 293.3 3.4
304(9) 0.01095 293.3 3.4
285(9) 0.01117 293.3 3.4
281(9) 0.01053 293.3 3.3
292(9) 0.01098 293.3 3.3
285(9) 0.01168 293.3 3.3
289(9) 0.01095 293.3 3.3
293(9) 0.01094 293.3 3.3
283(9) 0.01138 293.3 3.3
283(9) 0.01141 293.3 3.3
306(9) 0.01092 293.3 3.3
300(9) 0.01061 293.3 3.2
312(10) 0.00975 293.2 3.2
303(9) 0.01016 293.2 3.2
283(9) 0.01137 293.2 3.2
280(9) 0.01179 293.2 3.2
306(9) 0.01016 293.2 3.2
292(9) 0.01037 293.2 3.2
304(9) 0.01033 293.2 3.2
300(9) 0.01080 293.2 3.2
289(9) 0.01161 293.2 3.2
308(10) 0.00989 293.2 3.2
304(10) 0.00986 293.2 3.2
288(9) 0.01117 293.2 3.2
300(9) 0.01087 293.2 3.3
293(9) 0.01131 293.2 3.3
308(9) 0.01011 293.1 3.3
285(9) 0.01093 293.1 3.3
303(9) 0.01042 293.1 3.3
293(9) 0.01133 293.1 3.3
298(9) 0.01117 293.1 3.3
293(9) 0.01069 293.1 3.4
321(10) 0.00915 293.1 3.4
269(9) 0.01212 293.1 3.4
289(9) 0.01137 293.1 3.4
286(9) 0.01172 293.1 3.4
302(9) 0.01062 293.1 3.5
296(10) 0.00993 293.1 3.5
296(9) 0.01030 293.1 3.5
294(9) 0.01118 293.1 3.5
313(9) 0.01058 293.2 3.6
317(10) 0.00999 293.2 3.6
280(9) 0.01098 293.2 3.6
272(9) 0.01171 293.2 3.7
269(8) 0.01231 293.2 3.7
295(9) 0.01119 293.2 3.8
286(9) 0.01103 293.2 3.8
271(9) 0.01094 293.2 3.8
269(9) 0.01164 293.2 3.9
292(9) 0.01132 293.2 3.9
298(9) 0.01094 293.2 4.0
309(9) 0.01019 293.2 4.1
293(9) 0.01020 293.2 4.1
288(9) 0.01079 293.2 4.2
302(9) 0.01100 293.2 4.2
305(9) 0.01053 293.2 4.3
280(9) 0.01123 293.2 4.4
304(9) 0.01013 293.2 4.4
310(9) 0.01014 293.2 4.5
280(9) 0.01180 293.2 4.6
280(9) 0.01154 293.2 4.7
284(9) 0.01063 293.2 4.8
304(10) 0.00985 293.2 4.9
298(9) 0.01052 293.2 4.9
295(9) 0.01137 293.2 5.0
291(9) 0.01077 293.2 5.1
297(9) 0.01024 293.2 5.2
288(9) 0.01063 293.2 5.3
295(9) 0.01076 293.2 5.4
291(9) 0.01165 293.2 5.6
281(9) 0.01078 293.2 5.7
297(9) 0.01028 293.2 5.8
287(9) 0.01094 293.2 5.9
289(9) 0.01142 293.2 6.0
289(9) 0.01148 293.2 6.1
298(9) 0.01073 293.3 6.2
297(9) 0.01026 293.3 6.3
299(9) 0.01037 293.3 6.4
296(9) 0.01096 293.3 6.5
313(9) 0.01047 293.3 6.6
276(9) 0.01126 293.3 6.7
295(9) 0.01027 293.3 6.8
280(9) 0.01179 293.3 6.8
286(9) 0.01173 293.3 6.9
311(9) 0.01071 293.3 6.9
279(9) 0.01148 293.3 7.0
311(10) 0.00927 293.3 7.0
288(9) 0.01052 293.3 7.0
281(9) 0.01143 293.3 7.0
298(9) 0.01122 293.3 7.0
295(9) 0.01104 293.3 7.0
301(10) 0.00993 293.3 6.9
312(9) 0.01030 293.3 6.9
290(9) 0.01145 293.3 6.8
297(9) 0.01127 293.3 6.8
301(9) 0.01070 293.3 6.7
304(10) 0.00994 293.3 6.7
309(9) 0.01011 293.3 6.6
285(9) 0.01174 293.3 6.6
275(9) 0.01197 293.3 6.5
292(9) 0.01083 293.3 6.5
271(9) 0.01122 293.3 6.4
284(9) 0.01089 293.3 6.4
302(9) 0.01097 293.3 6.3
284(9) 0.01135 293.3 6.3
279(9) 0.01137 293.3 6.3
296(9) 0.01059 293.3 6.2
287(9) 0.01105 293.3 6.2
288(9) 0.01164 293.3 6.2
312(9) 0.01010 293.4 6.2
279(9) 0.01141 293.4 6.2
297(9) 0.01048 293.4 6.2
328(10) 0.00976 293.4 6.2
303(9) 0.01104 293.4 6.2
302(9) 0.01070 293.4 6.2
307(10) 0.00997 293.4 6.2
281(9) 0.01115 293.4 6.3
278(9) 0.01153 293.4 6.3
286(9) 0.01162 293.4 6.3
302(9) 0.01041 293.4 6.4
304(9) 0.01038 293.4 6.4
314(9) 0.01016 293.4 6.5
288(9) 0.01114 293.4 6.5
299(9) 0.01126 293.4 6.6
286(9) 0.01123 293.4 6.7
284(9) 0.01080 293.4 6.8
297(9) 0.01040 293.4 6.8
271(9) 0.01222 293.4 6.9
275(9) 0.01191 293.4 7.0
300(9) 0.01027 293.4 7.1
297(10) 0.00989 293.4 7.2
318(10) 0.01001 293.4 7.4
318(9) 0.01034 293.4 7.5
301(9) 0.01121 293.4 7.6
285(9) 0.01081 293.4 7.7
293(10) 0.00995 293.4 7.9
299(9) 0.01057 293.4 8.0
311(9) 0.01062 293.4 8.2
302(9) 0.01102 293.4 8.4
326(10) 0.00969 293.4 8.6
321(10) 0.00922 293.4 8.8
322(10) 0.01006 293.4 9.0
323(9) 0.01054 293.4 9.2
308(9) 0.01082 293.4 9.4
296(9) 0.01029 293.5 9.7
293(9) 0.01021 293.5 9.9
288(9) 0.01088 293.5 10.2
306(9) 0.01097 293.5 10.5
279(9) 0.01188 293.5 10.8
289(9) 0.01067 293.5 11.1
298(10) 0.01003 293.5 11.5
320(10) 0.00971 293.5 11.9
308(9) 0.01093 293.5 12.3
320(9) 0.01008 293.5 12.7
307(9) 0.01036 293.5 13.1
318(10) 0.00965 293.5 13.6
308(9) 0.01021 293.5 14.1
334(9) 0.01016 293.5 14.6
312(9) 0.01044 293.5 15.2
315(10) 0.00978 293.5 15.8
319(10) 0.00990 293.5 16.4
306(9) 0.01053 293.5 17.1
338(10) 0.01004 293.5 17.7
297(9) 0.01057 293.5 18.4
322(10) 0.00948 293.5 19.2
319(10) 0.00991 293.5 19.9
317(9) 0.01010 293.5 20.6
286(9) 0.01163 293.5 21.3
308(9) 0.01053 293.5 22.0
316(10) 0.00966 293.5 22.7
318(10) 0.01002 293.5 23.3
319(9) 0.01016 293.5 23.9
311(9) 0.01077 293.5 24.4
327(10) 0.00972 293.5 24.9
289(9) 0.01074 293.5 25.2
309(10) 0.00988 293.5 25.4
318(9) 0.01018 293.5 25.6
299(9) 0.01122 293.5 25.6
314(10) 0.01005 293.5 25.5
330(10) 0.00929 293.6 25.4
311(9) 0.01046 293.6 25.1
301(9) 0.01119 293.6 24.8
323(9) 0.01044 293.6 24.4
323(10) 0.00961 293.6 24.0
300(10) 0.00992 293.6 23.5
299(9) 0.01057 293.6 23.0
302(9) 0.01098 293.6 22.4
290(9) 0.01147 293.6 21.9
295(9) 0.01072 293.6 21.4
308(10) 0.00950 293.6 20.9
326(10) 0.00991 293.6 20.4
307(9) 0.01090 293.6 20.0
300(9) 0.01113 293.6 19.6
299(9) 0.01037 293.6 19.2
304(10) 0.00983 293.6 18.8
318(10) 0.00991 293.6 18.5
320(9) 0.01055 293.6 18.2
306(9) 0.01103 293.6 18.0
305(9) 0.01039 293.6 17.8
290(9) 0.01057 293.6 17.7
304(9) 0.01045 293.6 17.7
307(9) 0.01102 293.6 17.7
282(9) 0.01174 293.6 17.8
298(9) 0.01058 293.6 17.9
304(10) 0.01001 293.6 18.1
300(9) 0.01054 293.6 18.4
310(9) 0.01079 293.6 18.8
312(9) 0.01044 293.6 19.2
329(10) 0.00991 293.6 19.8
318(10) 0.00986 293.6 20.4
325(10) 0.00988 293.6 21.0
290(9) 0.01157 293.6 21.6
330(10) 0.00992 293.6 22.3
327(10) 0.00952 293.7 22.8
317(10) 0.00958 293.7 23.2
334(10) 0.00950 293.7 23.4
305(9) 0.01108 293.7 23.4
325(10) 0.00974 293.7 23.2
316(10) 0.01003 293.7 22.6
317(10) 0.01006 293.7 21.9
319(9) 0.01057 293.7 21.0
312(9) 0.01055 293.7 20.1
305(10) 0.00998 293.7 19.0
303(10) 0.00995 293.7 18.0
307(9) 0.01016 293.7 17.1
307(9) 0.01053 293.7 16.1
319(9) 0.01055 293.7 15.2
340(10) 0.00909 293.7 14.4
321(10) 0.00958 293.7 13.7
301(9) 0.01050 293.7 13.0
316(9) 0.01064 293.7 12.4
320(9) 0.01046 293.7 11.9
295(9) 0.01095 293.7 11.4
303(10) 0.00954 293.7 10.9
307(9) 0.01018 293.7 10.5
313(9) 0.01079 293.7 10.1
286(9) 0.01143 293.7 9.8
290(9) 0.01040 293.7 9.5
314(10) 0.00900 293.7 9.2
280(9) 0.01124 293.7 8.9
290(9) 0.01128 293.7 8.7
301(9) 0.01111 293.7 8.5
298(9) 0.01062 293.7 8.3
298(9) 0.01019 293.7 8.1
297(9) 0.01088 293.7 7.9
271(9) 0.01202 293.7 7.7
297(9) 0.01141 293.7 7.6
318(10) 0.00985 293.7 7.4
288(9) 0.01072 293.8 7.3
297(9) 0.01042 293.8 7.1
309(9) 0.01096 293.8 7.0
310(9) 0.01074 293.8 6.9
299(9) 0.01047 293.8 6.8
275(9) 0.01116 293.8 6.7
297(9) 0.01034 293.8 6.6
278(9) 0.01201 293.8 6.5
294(9) 0.01068 293.8 6.4
277(9) 0.01144 293.8 6.3
317(10) 0.00935 293.8 6.3
304(9) 0.01025 293.8 6.2
300(9) 0.01113 293.8 6.1
303(9) 0.01080 293.8 6.1
305(9) 0.01049 293.8 6.0
315(10) 0.01005 293.8 6.0
303(9) 0.01065 293.8 5.9
309(9) 0.01094 293.8 5.9
285(9) 0.01125 293.8 5.9
300(10) 0.01004 293.8 5.8
290(9) 0.01063 293.8 5.8
295(9) 0.01101 293.8 5.8
275(9) 0.01214 293.8 5.7
305(10) 0.00972 293.8 5.7
273(9) 0.01126 293.8 5.7
338(10) 0.00932 293.8 5.7
305(9) 0.01097 293.8 5.7
301(9) 0.01109 293.8 5.7
278(9) 0.01134 293.8 5.7
284(9) 0.01054 293.8 5.7
282(9) 0.01091 293.8 5.7
282(9) 0.01155 293.8 5.7
278(9) 0.01197 293.8 5.7
305(9) 0.01009 293.8 5.7
304(10) 0.00987 293.9 5.8
305(9) 0.01072 293.9 5.8
301(9) 0.01091 293.9 5.8
303(9) 0.01117 293.9 5.9
296(9) 0.01079 293.9 5.9
291(10) 0.00996 293.9 6.0
300(9) 0.01048 293.9 6.0
284(9) 0.01168 293.9 6.1
309(9) 0.01076 293.9 6.1
290(9) 0.01065 293.9 6.2
302(10) 0.00986 293.9 6.3
287(9) 0.01120 293.9 6.4
300(9) 0.01111 293.9 6.5
300(9) 0.01103 293.9 6.6
300(9) 0.01033 293.9 6.7
280(9) 0.01039 293.9 6.8
304(10) 0.01004 293.9 6.9
304(9) 0.01111 293.9 7.1
310(9) 0.01069 293.9 7.3
280(9) 0.01126 293.9 7.4
294(9) 0.01037 293.9 7.6
290(9) 0.01106 293.9 7.9
297(9) 0.01129 293.9 8.1
299(9) 0.01092 293.9 8.4
318(10) 0.00986 293.9 8.6
291(9) 0.01064 293.9 9.0
296(9) 0.01058 293.9 9.3
324(9) 0.01037 293.9 9.7
289(9) 0.01134 293.9 10.1
292(9) 0.01067 293.9 10.5
311(10) 0.00995 293.9 11.0
306(9) 0.01049 293.9 11.5
280(9) 0.01199 293.9 11.9
300(9) 0.01051 293.9 12.4
327(10) 0.00942 293.9 12.9
322(10) 0.00964 294.0 13.4
314(10) 0.01005 294.0 13.8
300(9) 0.01110 294.0 14.1
288(9) 0.01101 294.0 14.4
295(9) 0.01085 294.0 14.6
309(9) 0.01028 294.0 14.6
286(9) 0.01143 294.0 14.5
317(9) 0.01049 294.0 14.4
324(10) 0.00981 294.0 14.2
306(10) 0.00995 294.0 13.9
302(9) 0.01075 294.0 13.6
303(9) 0.01098 294.0 13.4
314(9) 0.01050 294.0 13.1
294(9) 0.01068 294.0 12.8
278(9) 0.01052 294.0 12.5
295(9) 0.01013 294.0 12.3
302(9) 0.01099 294.0 12.1
311(9) 0.01074 294.0 11.9
318(10) 0.00971 294.0 11.8
303(10) 0.00985 294.0 11.7
290(9) 0.01053 294.0 11.6
313(9) 0.01068 294.0 11.5
297(9) 0.01128 294.0 11.5
311(9) 0.01046 294.0 11.4
321(10) 0.00946 294.0 11.4
325(10) 0.00963 294.0 11.4
303(9) 0.01110 294.0 11.5
317(9) 0.01056 294.0 11.5
316(10) 0.00993 294.0 11.5
302(10) 0.00976 294.0 11.6
290(9) 0.01074 294.0 11.7
309(9) 0.01102 294.0 11.7
307(9) 0.01072 294.0 11.8
311(9) 0.01020 294.0 11.9
301(9) 0.01031 294.1 12.0
326(10) 0.00956 294.1 12.0
289(9) 0.01155 294.1 12.1
296(9) 0.01090 294.1 12.2
305(9) 0.01047 294.1 12.3
314(10) 0.00986 294.1 12.4
313(10) 0.01007 294.1 12.5
305(9) 0.01101 294.1 12.5
274(9) 0.01152 294.1 12.6
306(10) 0.01001 294.1 12.7
297(9) 0.01030 294.1 12.8
298(9) 0.01052 294.1 12.8
317(9) 0.01056 294.1 12.9
296(9) 0.01075 294.1 12.9
316(10) 0.00986 294.1 13.0
340(10) 0.00926 294.1 13.0
301(9) 0.01080 294.1 13.0
278(9) 0.01187 294.1 13.1
308(10) 0.01004 294.1 13.1
290(9) 0.01066 294.1 13.1
303(9) 0.01061 294.1 13.1
311(9) 0.01053 294.1 13.1
311(9) 0.01074 294.1 13.1
317(9) 0.01025 294.1 13.0
311(10) 0.00987 294.1 13.0
311(10) 0.00989 294.1 13.0
304(9) 0.01084 294.1 12.9
334(10) 0.01007 294.1 12.8
317(10) 0.00976 294.1 12.8
303(10) 0.00982 294.1 12.7
323(10) 0.00970 294.1 12.6
314(9) 0.01067 294.1 12.5
303(9) 0.01105 294.1 12.4
323(10) 0.00981 294.1 12.3
320(10) 0.00920 294.1 12.2
317(10) 0.00975 294.2 12.1
292(9) 0.01135 294.2 12.0
285(9) 0.01163 294.2 11.9
284(9) 0.01081 294.2 11.7
304(10) 0.00957 294.2 11.6
316(10) 0.00991 294.2 11.5
307(9) 0.01091 294.2 11.3
301(9) 0.01105 294.2 11.2
295(9) 0.01099 294.2 11.1
299(9) 0.01022 294.2 10.9
302(9) 0.01049 294.2 10.8
300(9) 0.01115 294.2 10.7
312(9) 0.01046 294.2 10.5
304(9) 0.01045 294.2 10.4
314(10) 0.00964 294.2 10.3
304(9) 0.01072 294.2 10.1
305(9) 0.01096 294.2 10.0
288(9) 0.01108 294.2 9.9
276(9) 0.01146 294.2 9.8
316(10) 0.00989 294.2 9.6
299(9) 0.01075 294.2 9.5
297(9) 0.01120 294.2 9.4
306(9) 0.01078 294.2 9.3
283(9) 0.01137 294.2 9.2
302(9) 0.01043 294.2 9.1
298(9) 0.01042 294.2 9.0
327(9) 0.01034 294.2 8.9
321(10) 0.00978 294.2 8.8
311(10) 0.01007 294.2 8.6
308(10) 0.00987 294.2 8.5
288(9) 0.01139 294.2 8.4
281(9) 0.01174 294.2 8.3
316(10) 0.01003 294.2 8.2
303(9) 0.01049 294.2 8.1
294(9) 0.01081 294.3 8.0
316(9) 0.01037 294.3 7.9
303(9) 0.01105 294.3 7.8
311(10) 0.00990 294.3 7.7
316(10) 0.00949 294.3 7.6
299(9) 0.01041 294.3 7.5
309(9) 0.01063 294.3 7.4
305(9) 0.01099 294.3 7.3
302(9) 0.01056 294.3 7.2
306(10) 0.00954 294.3 7.1
280(9) 0.01141 294.3 7.0
280(9) 0.01156 294.3 6.9
307(9) 0.01083 294.3 6.9
323(10) 0.00979 294.3 6.8
310(10) 0.00957 294.3 6.7
295(9) 0.01103 294.3 6.6
315(9) 0.01062 294.3 6.5
300(9) 0.01121 294.3 6.4
307(9) 0.01038 294.3 6.3
301(10) 0.00935 294.3 6.3
316(10) 0.00930 294.3 6.2
294(9) 0.01127 294.3 6.1
319(9) 0.01048 294.3 6.0
285(9) 0.01117 294.3 6.0
308(10) 0.00947 294.3 5.9
280(9) 0.01126 294.3 5.8
307(9) 0.01102 294.3 5.8
296(9) 0.01107 294.3 5.7
310(10) 0.00988 294.3 5.7
302(10) 0.00997 294.3 5.6
302(9) 0.01050 294.3 5.5
310(9) 0.01097 294.3 5.5
280(9) 0.01158 294.3 5.5
299(9) 0.01016 294.3 5.4
290(9) 0.01068 294.3 5.4
277(9) 0.01158 294.4 5.3
279(9) 0.01195 294.4 5.3
300(9) 0.01095 294.4 5.3
299(9) 0.01045 294.4 5.2
279(9) 0.01089 294.4 5.2
302(9) 0.01062 294.4 5.2
291(9) 0.01149 294.4 5.2
262(9) 0.01202 294.4 5.1
318(10) 0.00976 294.4 5.1
293(9) 0.01081 294.4 5.1
296(9) 0.01085 294.4 5.1
299(9) 0.01120 294.4 5.1
298(9) 0.01058 294.4 5.1
323(10) 0.00920 294.4 5.0
295(9) 0.01032 294.4 5.0
283(9) 0.01158 294.4 5.0
305(9) 0.01106 294.4 5.0
303(9) 0.01044 294.4 5.0
316(10) 0.00978 294.4 5.0
275(9) 0.01171 294.4 5.0
313(9) 0.01042 294.4 5.0
280(9) 0.01185 294.4 5.0
287(9) 0.01065 294.4 5.1
284(9) 0.01032 294.4 5.1
291(9) 0.01070 294.4 5.1
284(9) 0.01159 294.4 5.1
297(9) 0.01126 294.4 5.1
294(9) 0.01067 294.4 5.1
313(10) 0.00960 294.4 5.1
293(9) 0.01113 294.4 5.1
305(9) 0.01069 294.4 5.2
281(9) 0.01192 294.4 5.2
286(9) 0.01145 294.4 5.2
291(9) 0.01060 294.4 5.2
299(9) 0.01064 294.5 5.3
302(9) 0.01115 294.5 5.3
276(9) 0.01172 294.5 5.3
264(9) 0.01184 294.5 5.3
283(9) 0.01024 294.5 5.4
293(9) 0.01106 294.5 5.4
298(9) 0.01123 294.5 5.4
297(9) 0.01112 294.5 5.5
270(9) 0.01148 294.5 5.5
274(9) 0.01074 294.5 5.5
296(9) 0.01037 294.5 5.6
296(9) 0.01117 294.5 5.6
304(9) 0.01099 294.5 5.7
300(9) 0.01105 294.5 5.7
309(9) 0.01009 294.5 5.7
313(9) 0.01010 294.5 5.8
287(9) 0.01158 294.5 5.8
303(9) 0.01082 294.5 5.9
304(9) 0.01052 294.5 5.9
285(9) 0.01044 294.5 6.0
297(9) 0.01020 294.5 6.0
295(9) 0.01125 294.5 6.1
304(9) 0.01051 294.5 6.1
294(9) 0.01079 294.5 6.1
321(10) 0.00975 294.5 6.2
263(9) 0.01198 294.5 6.2
284(9) 0.01171 294.5 6.3
293(9) 0.01074 294.5 6.3
282(9) 0.01126 294.5 6.4
296(9) 0.01052 294.5 6.5
285(9) 0.01124 294.5 6.5
303(9) 0.01098 294.5 6.6
293(9) 0.01092 294.5 6.6
260(9) 0.01192 294.5 6.7
275(9) 0.01151 294.5 6.7
292(9) 0.01134 294.5 6.8
292(9) 0.01150 294.5 6.8
293(9) 0.01032 294.5 6.9
300(10) 0.00970 294.5 6.9
290(9) 0.01083 294.5 7.0
288(9) 0.01145 294.5 7.0
322(9) 0.01047 294.5 7.1
293(9) 0.01057 294.5 7.2
283(9) 0.01066 294.5 7.2
323(10) 0.00955 294.5 7.3
313(9) 0.01075 294.5 7.3
324(9) 0.01035 294.5 7.4
295(9) 0.01072 294.5 7.4
277(9) 0.01049 294.5 7.5
292(9) 0.01044 294.5 7.5
289(9) 0.01130 294.5 7.6
300(9) 0.01112 294.5 7.7
305(9) 0.01016 294.5 7.7
306(10) 0.00998 294.5 7.8
316(9) 0.01041 294.5 7.8
312(9) 0.01075 294.5 7.9
289(9) 0.01132 294.5 7.9
285(9) 0.01091 294.5 8.0
269(9) 0.01083 294.5 8.0
290(9) 0.01084 294.5 8.1
296(9) 0.01134 294.5 8.1
313(9) 0.01057 294.5 8.1
280(9) 0.01149 294.5 8.2
295(9) 0.01028 294.5 8.2
303(9) 0.01021 294.5 8.3
284(9) 0.01172 294.5 8.3
291(9) 0.01128 294.5 8.3
291(9) 0.01080 294.5 8.4
299(9) 0.01021 294.5 8.4
292(9) 0.01048 294.5 8.5
297(9) 0.01119 294.5 8.5
273(9) 0.01194 294.5 8.5
298(9) 0.01019 294.5 8.6
287(9) 0.01044 294.5 8.6
296(9) 0.01097 294.5 8.7
310(9) 0.01083 294.5 8.8
281(9) 0.01175 294.5 8.8
317(10) 0.00945 294.5 8.9
300(9) 0.01016 294.5 9.0
314(10) 0.00999 294.5 9.1
268(8) 0.01233 294.5 9.2
284(9) 0.01089 294.5 9.4
307(10) 0.00976 294.5 9.5
308(10) 0.00979 294.5 9.7
290(9) 0.01111 294.5 9.9
297(9) 0.01124 294.5 10.0
300(9) 0.01059 294.5 10.2
282(9) 0.01102 294.5 10.4
308(9) 0.01032 294.5 10.7
304(9) 0.01075 294.5 10.9
301(9) 0.01103 294.5 11.0
289(9) 0.01093 294.5 11.2
309(10) 0.00952 294.5 11.3
284(9) 0.01087 294.5 11.4
279(9) 0.01197 294.5 11.4
268(9) 0.01231 294.5 11.3
301(9) 0.01035 294.5 11.2
289(9) 0.01071 294.5 11.1
304(9) 0.01025 294.5 11.0
311(9) 0.01071 294.5 10.8
305(9) 0.01094 294.5 10.6
304(9) 0.01047 294.5 10.4
299(10) 0.00970 294.5 10.3
323(10) 0.00965 294.5 10.1
319(9) 0.01048 294.5 9.9
322(9) 0.01042 294.5 9.8
304(9) 0.01017 294.5 9.7
316(10) 0.00977 294.5 9.6
323(10) 0.00998 294.5 9.5
308(9) 0.01091 294.5 9.4
295(9) 0.01108 294.5 9.4
288(9) 0.01089 294.5 9.3
310(10) 0.00966 294.5 9.3
310(9) 0.01016 294.5 9.3
315(9) 0.01062 294.5 9.3
297(9) 0.01075 294.5 9.3
289(9) 0.01066 294.5 9.3
322(10) 0.00908 294.5 9.3
280(9) 0.01111 294.5 9.4
289(9) 0.01152 294.5 9.4
307(9) 0.01067 294.5 9.5
300(9) 0.01054 294.5 9.6
299(9) 0.01071 294.5 9.6
297(9) 0.01075 294.5 9.7
308(9) 0.01089 294.5 9.8
308(9) 0.01060 294.5 9.9
310(10) 0.00969 294.5 10.1
297(9) 0.01030 294.5 10.2
297(9) 0.01086 294.5 10.4
301(9) 0.01109 294.5 10.6
298(9) 0.01075 294.5 10.8
304(9) 0.01048 294.5 11.0
301(9) 0.01086 294.5 11.2
310(9) 0.01051 294.5 11.5
300(9) 0.01117 294.5 11.8
298(9) 0.01064 294.5 12.1
312(10) 0.00980 294.5 12.4
287(9) 0.01069 294.5 12.8
299(9) 0.01077 294.5 13.2
326(9) 0.01030 294.5 13.6
319(10) 0.00964 294.5 14.0
309(10) 0.00969 294.5 14.4
335(10) 0.00928 294.5 14.8
310(9) 0.01076 294.5 15.1
305(9) 0.01093 294.5 15.4
287(9) 0.01071 294.5 15.6
298(10) 0.00997 294.5 15.8
312(10) 0.01000 294.5 15.9
321(9) 0.01030 294.5 16.0
310(9) 0.01088 294.5 16.1
312(9) 0.01038 294.5 16.2
299(10) 0.01005 294.5 16.2
326(10) 0.00957 294.5 16.3
318(9) 0.01057 294.5 16.4
308(9) 0.01074 294.5 16.5
313(10) 0.01004 294.5 16.6
314(10) 0.00967 294.5 16.7
315(10) 0.00996 294.5 16.8
318(9) 0.01059 294.5 16.9
312(9) 0.01072 294.5 17.0
287(9) 0.01121 294.5 17.1
288(9) 0.01049 294.5 17.2
298(9) 0.01088 294.5 17.3
297(9) 0.01122 294.5 17.3
330(10) 0.00981 294.5 17.3
298(9) 0.01074 294.5 17.3
302(10) 0.01003 294.5 17.2
328(10) 0.00921 294.5 17.1
297(9) 0.01136 294.5 17.1
319(9) 0.01014 294.5 16.9
302(9) 0.01029 294.5 16.8
293(9) 0.01037 294.5 16.7
298(9) 0.01048 294.5 16.5
342(10) 0.00995 294.5 16.4
300(9) 0.01073 294.5 16.2
327(10) 0.00972 294.5 16.0
329(10) 0.00962 294.5 15.9
311(9) 0.01034 294.5 15.7
324(9) 0.01050 294.5 15.5
305(9) 0.01057 294.5 15.3
291(9) 0.01043 294.5 15.1
282(9) 0.01095 294.5 14.9
336(10) 0.00921 294.5 14.7
326(9) 0.01035 294.5 14.5
313(9) 0.01041 294.5 14.3
312(10) 0.00976 294.5 14.1
281(9) 0.01137 294.5 13.9
310(9) 0.01066 294.5 13.7
315(9) 0.01068 294.5 13.5
312(10) 0.01006 294.5 13.3
302(9) 0.01030 294.5 13.1
321(10) 0.00989 294.5 12.9
295(9) 0.01131 294.5 12.7
315(9) 0.01063 294.5 12.5
307(9) 0.01039 294.5 12.4
288(9) 0.01056 294.5 12.2
291(9) 0.01097 294.5 12.1
317(9) 0.01043 294.5 11.9
286(9) 0.01169 294.5 11.8
297(9) 0.01040 294.5 11.7
293(9) 0.01045 294.5 11.6
298(9) 0.01120 294.5 11.4
295(9) 0.01112 294.5 11.3
302(9) 0.01132 294.5 11.2
307(9) 0.01061 294.5 11.1
279(9) 0.01092 294.5 11.0
298(9) 0.01037 294.5 10.9
333(10) 0.01004 294.5 10.8
296(9) 0.01118 294.5 10.7
300(10) 0.00996 294.5 10.7
306(10) 0.00974 294.5 10.6
301(9) 0.01040 294.5 10.5
298(9) 0.01124 294.5 10.4
294(9) 0.01117 294.5 10.4
302(9) 0.01043 294.5 10.3
299(10) 0.01007 294.5 10.3
296(9) 0.01060 294.5 10.2
294(9) 0.01138 294.5 10.2
283(9) 0.01146 294.5 10.1
299(10) 0.01007 294.5 10.1
299(9) 0.01047 294.5 10.1
304(9) 0.01053 294.5 10.1
306(9) 0.01105 294.5 10.1
302(9) 0.01087 294.5 10.1
308(10) 0.01004 294.5 10.1
268(9) 0.01139 294.5 10.1
280(9) 0.01116 294.5 10.1
300(9) 0.01109 294.5 10.1
294(9) 0.01008 294.5 10.2
297(9) 0.01043 294.5 10.2
296(9) 0.01073 294.5 10.3
292(9) 0.01104 294.5 10.3
292(9) 0.01151 294.5 10.4
318(10) 0.00985 294.5 10.4
309(10) 0.00989 294.5 10.5
284(9) 0.01094 294.5 10.6
298(9) 0.01083 294.5 10.7
312(9) 0.01059 294.5 10.8
284(9) 0.01077 294.5 10.8
311(10) 0.00966 294.5 10.9
274(9) 0.01142 294.5 11.0
272(9) 0.01217 294.5 11.1
265(9) 0.01227 294.5 11.1
289(9) 0.01101 294.5 11.2
321(10) 0.00919 294.5 11.2
306(9) . . .
305(9) . . .
274(9) . . .
311(10) . . .
299(10) . . .
303(9) . . .
280(9) . . .
294(9) . . .
307(9) . . .
306(10) . . .
283(9) . . .
296(9) . . .
301(9) . . .
321(10) . . .
292(10) . . .
278(9) . . .
319(9) . . .
306(9) . . .
312(9) . . .
312(10) . . .
278(9) . . .
309(9) . . .
293(9) . . .
284(9) . . .
298(9) . . .
305(9) . . .
291(9) . . .
289(9) . . .
287(9) . . .
296(9) . . .
298(9) . . .
319(9) . . .
312(9) . . .
309(9) . . .
317(10) . . .
295(9) . . .
280(9) . . .
300(9) . . .
304(10) . . .
316(9) . . .
309(9) . . .
307(9) . . .
308(9) . . .
310(10) . . .
291(9) . . .
305(9) . . .
335(9) . . .
319(10) . . .
300(10) . . .
280(9) . . .
286(9) . . .
306(9) . . .
312(10) . . .
306(10) . . .
285(9) . . .
297(9) . . .
285(9) . . .
295(9) . . .
308(10) . . .
299(9) . . .
295(9) . . .
300(9) . . .
288(9) . . .
289(9) . . .
287(9) . . .
274(9) . . .
290(9) . . .
295(9) . . .
297(9) . . .
297(9) . . .
309(9) . . .
296(9) . . .
290(9) . . .
288(9) . . .
285(9) . . .
265(8) . . .
291(9) . . .
288(9) . . .
278(9) . . .
296(9) . . .
292(9) . . .
298(9) . . .
332(10) . . .
317(10) . . .
301(9) . . .
296(9) . . .
290(9) . . .
273(9) . . .
300(9) . . .
293(9) . . .
284(9) . . .
269(9) . . .
284(9) . . .
296(9) . . .
298(9) . . .
286(9) . . .
303(10) . . .
270(9) . . .
296(9) . . .
300(9) . . .
308(9) . . .
286(9) . . .
317(10) . . .
307(10) . . .
267(8) . . .
267(8) . . .
294(9) . . .
302(10) . . .
301(9) . . .
308(9) . . .
292(9) . . .
288(9) . . .
276(9) . . .
302(9) . . .
304(9) . . .
315(9) . . .
291(9) . . .
307(10) . . .
273(9) . . .
303(9) . . .
302(9) . . .
281(9) . . .
265(9) . . .
299(10) . . .
285(9) . . .
297(9) . . .
295(9) . . .
300(10) . . .
275(9) . . .
298(9) . . .
280(9) . . .
276(9) . . .
273(9) . . .
307(9) . . .
287(9) . . .
294(9) . . .
299(9) . . .
269(9) . . .
282(9) . . .
279(9) . . .
268(9) . . .
282(9) . . .
285(9) . . .
281(9) . . .
301(9) . . .
281(9) . . .
270(9) . . .
280(9) . . .
288(9) . . .
275(9) . . .
287(9) . . .
283(9) . . .
267(9) . . .
281(9) . . .
264(8) . . .
300(9) . . .
270(9) . . .
289(9) . . .
279(9) . . .
294(9) . . .
277(9) . . .
278(9) . . .
284(9) . . .
265(8) . . .
269(9) . . .
276(9) . . .
269(9) . . .
254(9) . . .
254(8) . . .
248(8) . . .
304(9) . . .
305(10) . . .
271(9) . . .
258(8) . . .
288(9) . . .
284(9) . . .
289(9) . . .
320(10) . . .
277(9) . . .
300(9) . . .
276(9) . . .
278(9) . . .
292(9) . . .
273(9) . . .
275(9) . . .
257(9) . . .
252(9) . . .
275(9) . . .
280(9) . . .
268(9) . . .
270(9) . . .
291(9) . . .
277(9) . . .
286(9) . . .
265(9) . . .
264(9) . . .
288(9) . . .
289(9) . . .
293(9) . . .
306(10) . . .
272(9) . . .
293(9) . . .
284(9) . . .
250(8) . . .
248(8) . . .
269(9) . . .
268(9) . . .
282(9) . . .
313(9) . . .
286(9) . . .
277(9) . . .
273(9) . . .
254(8) . . .
268(8) . . .
274(9) . . .
289(9) . . .
280(9) . . .
284(9) . . .
271(8) . . .
301(9) . . .
306(10) . . .
268(9) . . .
289(9) . . .
278(9) . . .
283(9) . . .
280(9) . . .
264(9) . . .
290(9) . . .
254(9) . . .
274(9) . . .
275(9) . . .
256(8) . . .
276(9) . . .
289(9) . . .
289(9) . . .
297(9) . . .
292(9) . . .
275(9) . . .
256(9) . . .
268(9) . . .
258(9) . . .
270(9) . . .
303(9) . . .
274(9) . . .
270(9) . . .
290(9) . . .
263(8) . . .
307(9) . . .
290(9) . . .
305(10) . . .
284(9) . . .
296(9) . . .
301(9) . . .
250(8) . . .
278(9) . . .
294(9) . . .
286(9) . . .
283(9) . . .
276(9) . . .
285(9) . . .
285(9) . . .
295(9) . . .
270(8) . . .
275(9) . . .
279(9) . . .
268(9) . . .
274(9) . . .
270(9) . . .
272(9) . . .
276(9) . . .
276(9) . . .
272(9) . . .
285(9) . . .
270(9) . . .
259(9) . . .
286(9) . . .
281(9) . . .
260(8) . . .
250(8) . . .
286(9) . . .
276(9) . . .
280(9) . . .
287(9) . . .
276(9) . . .
296(9) . . .
269(9) . . .
296(9) . . .
263(9) . . .
273(9) . . .
309(9) . . .
296(9) . . .
270(8) . . .
293(9) . . .
282(9) . . .
281(9) . . .
284(9) . . .
294(9) . . .
292(9) . . .
304(9) . . .
304(9) . . .
289(9) . . .
292(9) . . .
338(10) . . .
303(9) . . .
295(9) . . .
306(9) . . .
297(9) . . .
288(9) . . .
282(9) . . .
308(9) . . .
297(9) . . .
318(9) . . .
296(9) . . .
312(10) . . .
305(9) . . .
282(9) . . .
305(9) . . .
297(9) . . .
276(9) . . .
295(9) . . .
306(9) . . .
296(9) . . .
300(9) . . .
276(9) . . .
293(9) . . .
302(9) . . .
296(9) . . .
266(9) . . .
287(9) . . .
275(9) . . .
275(9) . . .
277(9) . . .
290(9) . . .
263(9) . . .
259(9) . . .
280(9) . . .
277(9) . . .
258(9) . . .
282(9) . . .
282(9) . . .
283(9) . . .
280(9) . . .
297(9) . . .
288(9) . . .
265(9) . . .
262(8) . . .
284(9) . . .
284(9) . . .
287(9) . . .
285(9) . . .
289(9) . . .
306(9) . . .
270(9) . . .
290(9) . . .
283(9) . . .
272(9) . . .
268(9) . . .
283(9) . . .
279(9) . . .
274(9) . . .
285(9) . . .
273(9) . . .
305(10) . . .
310(9) . . .
289(9) . . .
304(9) . . .
276(9) . . .
297(10) . . .
272(9) . . .
286(9) . . .
297(9) . . .
287(9) . . .
290(9) . . .
316(10) . . .
296(9) . . .
282(9) . . .
296(9) . . .
283(9) . . .
281(9) . . .
295(9) . . .
300(9) . . .
248(8) . . .
315(10) . . .
298(9) . . .
268(9) . . .
275(9) . . .
304(9) . . .
320(10) . . .
315(10) . . .
276(9) . . .
294(9) . . .
303(10) . . .
282(9) . . .
280(9) . . .
265(8) . . .
297(9) . . .
291(9) . . .
295(9) . . .
291(9) . . .
266(8) . . .
299(9) . . .
299(10) . . .
284(9) . . .
297(9) . . .
302(9) . . .
273(9) . . .
294(9) . . .
275(9) . . .
297(9) . . .
316(9) . . .
281(9) . . .
299(10) . . .
293(9) . . .
278(9) . . .
296(9) . . .
273(9) . . .
297(10) . . .
293(9) . . .
295(9) . . .
304(9) . . .
298(9) . . .
267(9) . . .
287(9) . . .
294(9) . . .
295(9) . . .
262(9) . . .
284(9) . . .
271(9) . . .
291(9) . . .
278(9) . . .
289(9) . . .
288(9) . . .
277(9) . . .
282(9) . . .
304(9) . . .
281(9) . . .
298(9) . . .
296(9) . . .
290(9) . . .
273(9) . . .
284(9) . . .
288(9) . . .
275(9) . . .
261(8) . . .
287(9) . . .
266(9) . . .
268(9) . . .
268(8) . . .
286(9) . . .
255(9) . . .
277(9) . . .
280(9) . . .
253(8) . . .
266(8) . . .
270(9) . . .
303(10) . . .
257(9) . . .
263(8) . . .
276(9) . . .
274(9) . . .
280(9) . . .
285(9) . . .
277(9) . . .
255(8) . . .
266(9) . . .
267(9) . . .
281(9) . . .
240(8) . . .
266(9) . . .
271(9) . . .
285(9) . . .
281(9) . . .
274(9) . . .
277(9) . . .
264(9) . . .
286(9) . . .
243(9) . . .
280(9) . . .
272(9) . . .
258(9) . . .
241(8) . . .
269(9) . . .
279(9) . . .
287(9) . . .
260(9) . . .
266(9) . . .
246(8) . . .
251(8) . . .
261(9) . . .
264(9) . . .
278(9) . . .
260(8) . . .
257(8) . . .
254(9) . . .
271(9) . . .
294(9) . . .
270(9) . . .
247(8) . . .
274(9) . . .
268(9) . . .
250(8) . . .
260(8) . . .
251(8) . . .
255(9) . . .
260(9) . . .
265(9) . . .
267(8) . . .
253(8) . . .
256(9) . . .
294(10) . . .
267(9) . . .
264(8) . . .
269(9) . . .
254(8) . . .
245(9) . . .
244(8) . . .
265(9) . . .
262(9) . . .
286(9) . . .
272(9) . . .
259(9) . . .
256(8) . . .
270(9) . . .
251(9) . . .
262(9) . . .
266(9) . . .
293(9) . . .
270(9) . . .
260(9) . . .
267(9) . . .
255(8) . . .
286(9) . . .
249(8) . . .
256(9) . . .
263(9) . . .
254(9) . . .
269(8) . . .
251(8) . . .
271(9) . . .
271(9) . . .
276(9) . . .
270(9) . . .
267(9) . . .
255(9) . . .
257(9) . . .
247(8) . . .
270(8) . . .
264(9) . . .
265(9) . . .
253(9) . . .
250(8) . . .
259(8) . . .
240(8) . . .
275(9) . . .
234(8) . . .
252(8) . . .
239(8) . . .
239(8) . . .
263(9) . . .
265(9) . . .
260(8) . . .
241(8) . . .
276(9) . . .
241(8) . . .
264(9) . . .
275(9) . . .
271(9) . . .
267(9) . . .
272(9) . . .
260(9) . . .
274(9) . . .
268(9) . . .
268(9) . . .
284(9) . . .
263(9) . . .
242(8) . . .
266(9) . . .
253(8) . . .
263(9) . . .
250(8) . . .
254(8) . . .
268(9) . . .
255(9) . . .
277(9) . . .
242(8) . . .
246(8) . . .
259(8) . . .
254(9) . . .
254(9) . . .
247(8) . . .
265(8) . . .
260(9) . . .
245(9) . . .
238(8) . . .
243(8) . . .
250(8) . . .
248(9) . . .
269(9) . . .
244(8) . . .
259(8) . . .
251(8) . . .
244(8) . . .
251(9) . . .
264(9) . . .
247(8) . . .
267(8) . . .
259(9) . . .
279(9) . . .
277(9) . . .
237(8) . . .
250(8) . . .
255(9) . . .
257(9) . . .
251(8) . . .
287(9) . . .
276(9) . . .
251(9) . . .
244(8) . . .
269(9) . . .
245(8) . . .
267(8) . . .
274(9) . . .
271(9) . . .
249(8) . . .
255(8) . . .
274(9) . . .
261(9) . . .
282(9) . . .
241(8) . . .
276(9) . . .
245(8) . . .
266(9) . . .
264(9) . . .
244(8) . . .
270(9) . . .
266(9) . . .
239(8) . . .
265(9) . . .
269(9) . . .
287(9) . . .
257(9) . . .
276(9) . . .
273(9) . . .
272(9) . . .
249(8) . . .
269(9) . . .
253(9) . . .
256(9) . . .
271(9) . . .
261(8) . . .
265(9) . . .
262(9) . . .
269(9) . . .
278(9) . . .
263(8) . . .
259(8) . . .
279(9) . . .
261(9) . . .
245(8) . . .
288(9) . . .
249(8) . . .
249(9) . . .
251(9) . . .
238(8) . . .
268(9) . . .
254(8) . . .
253(9) . . .
240(8) . . .
259(8) . . .
259(8) . . .
277(9) . . .
285(9) . . .
263(9) . . .
251(8) . . .
222(8) . . .
238(8) . . .
256(9) . . .
251(9) . . .
238(8) . . .
236(8) . . .
262(9) . . .
256(9) . . .
237(8) . . .
238(8) . . .
269(9) . . .
248(9) . . .
265(9) . . .
273(9) . . .
246(8) . . .
254(8) . . .
232(8) . . .
252(9) . . .
243(8) . . .
252(8) . . .
272(9) . . .
239(9) . . .
260(9) . . .
265(9) . . .
258(8) . . .
261(9) . . .
273(9) . . .
248(8) . . .
260(8) . . .
243(8) . . .
280(9) . . .
259(9) . . .
270(9) . . .
237(8) . . .
263(8) . . .
266(9) . . .
255(9) . . .
263(9) . . .
268(9) . . .
253(8) . . .
263(9) . . .
270(9) . . .
237(8) . . .
254(8) . . .
239(8) . . .
239(8) . . .
260(9) . . .
242(8) . . .
234(8) . . .
255(8) . . .
252(9) . . .
250(9) . . .
245(9) . . .
244(8) . . .
252(8) . . .
255(8) . . .
265(9) . . .
272(9) . . .
235(8) . . .
251(8) . . .
261(9) . . .
248(9) . . .
255(8) . . .
256(8) . . .
253(9) . . .
247(9) . . .
232(8) . . .
236(8) . . .
242(8) . . .
255(9) . . .
256(9) . . .
242(8) . . .
246(8) . . .
265(8) . . .
249(8) . . .
241(8) . . .
242(8) . . .
251(8) . . .
244(8) . . .
253(9) . . .
251(9) . . .
230(8) . . .
251(8) . . .
253(8) . . .
273(9) . . .
251(9) . . .
258(9) . . .
236(8) . . .
275(9) . . .
250(8) . . .
280(9) . . .
257(9) . . .
249(8) . . .
264(9) . . .
270(9) . . .
274(9) . . .
256(9) . . .
288(9) . . .
256(8) . . .
253(9) . . .
264(9) . . .
262(9) . . .
266(8) . . .
271(9) . . .
276(9) . . .
254(9) . . .
258(9) . . .
241(8) . . .
268(9) . . .
258(9) . . .
245(9) . . .
261(9) . . .
270(9) . . .
234(8) . . .
229(8) . . .
266(9) . . .
262(9) . . .
238(8) . . .
260(9) . . .
254(9) . . .
239(8) . . .
221(8) . . .
244(8) . . .
248(9) . . .
246(9) . . .
243(8) . . .
238(8) . . .
234(8) . . .
246(8) . . .
241(9) . . .
239(8) . . .
223(8) . . .
236(8) . . .
225(8) . . .
228(8) . . .
248(9) . . .
239(8) . . .
240(8) . . .
232(8) . . .
231(8) . . .
231(8) . . .
242(8) . . .
241(8) . . .
235(8) . . .
228(8) . . .
234(9) . . .
226(8) . . .
211(8) . . .
240(8) . . .
230(8) . . .
243(8) . . .
244(8) . . .
219(8) . . .
230(8) . . .
222(8) . . .
234(8) . . .
244(8) . . .
219(8) . . .
229(8) . . .
212(8) . . .
228(8) . . .
232(8) . . .
227(8) . . .
228(8) . . .
214(8) . . .
239(8) . . .
221(8) . . .
247(9) . . .
256(9) . . .
226(8) . . .
221(8) . . .
218(8) . . .
210(8) . . .
232(9) . . .
243(8) . . .
203(8) . . .
237(8) . . .
224(8) . . .
212(8) . . .
229(8) . . .
236(8) . . .
238(8) . . .
233(8) . . .
233(8) . . .
239(8) . . .
249(8) . . .
226(8) . . .
228(8) . . .
254(9) . . .
246(9) . . .
229(8) . . .
229(8) . . .
219(8) . . .
212(8) . . .
228(8) . . .
233(8) . . .
238(8) . . .
229(8) . . .
227(8) . . .
241(8) . . .
228(8) . . .
260(9) . . .
215(8) . . .
218(8) . . .
223(8) . . .
193(7) . . .
198(7) . . .
223(8) . . .
247(9) . . .
247(9) . . .
216(8) . . .
225(8) . . .
220(8) . . .
208(8) . . .
207(8) . . .
235(8) . . .
242(8) . . .
229(8) . . .
240(8) . . .
232(8) . . .
218(8) . . .
230(8) . . .
226(8) . . .
230(8) . . .
226(8) . . .
201(7) . . .
217(8) . . .
223(8) . . .
201(7) . . .
223(8) . . .
212(8) . . .
229(8) . . .
213(8) . . .
210(8) . . .
225(8) . . .
232(8) . . .
247(8) . . .
230(8) . . .
217(8) . . .
253(9) . . .
223(8) . . .
234(8) . . .
220(8) . . .
206(8) . . .
220(8) . . .
219(8) . . .
249(9) . . .
224(8) . . .
220(8) . . .
247(8) . . .
216(8) . . .
220(8) . . .
218(8) . . .
213(8) . . .
210(8) . . .
223(8) . . .
216(8) . . .
245(9) . . .
234(8) . . .
231(8) . . .
238(8) . . .
228(8) . . .
234(8) . . .
264(9) . . .
214(8) . . .
208(7) . . .
226(8) . . .
213(8) . . .
224(8) . . .
251(8) . . .
234(8) . . .
221(8) . . .
210(8) . . .
202(7) . . .
234(8) . . .
229(8) . . .
216(8) . . .
218(8) . . .
224(8) . . .
217(8) . . .
225(8) . . .
228(8) . . .
202(8) . . .
227(8) . . .
218(8) . . .
227(8) . . .
211(8) . . .
202(8) . . .
207(7) . . .
232(8) . . .
221(8) . . .
236(9) . . .
232(8) . . .
209(8) . . .
232(8) . . .
239(8) . . .
227(8) . . .
230(8) . . .
195(7) . . .
237(8) . . .
231(8) . . .
214(8) . . .
219(8) . . .
237(8) . . .
228(8) . . .
207(8) . . .
244(8) . . .
250(8) . . .
230(8) . . .
231(8) . . .
229(8) . . .
232(8) . . .
226(8) . . .
210(8) . . .
203(7) . . .
236(9) . . .
201(8) . . .
200(8) . . .
207(7) . . .
204(8) . . .
228(8) . . .
226(8) . . .
207(8) . . .
221(8) . . .
221(8) . . .
220(8) . . .
214(8) . . .
236(8) . . .
215(8) . . .
234(8) . . .
214(8) . . .
233(8) . . .
241(8) . . .
216(8) . . .
215(8) . . .
215(8) . . .
231(8) . . .
221(8) . . .
195(7) . . .
205(8) . . .
242(9) . . .
206(8) . . .
214(8) . . .
212(8) . . .
221(8) . . .
229(8) . . .
216(8) . . .
205(7) . . .
213(8) . . .
226(8) . . .
223(8) . . .
247(8) . . .
239(8) . . .
224(8) . . .
218(8) . . .
213(8) . . .
225(8) . . .
227(8) . . .
232(8) . . .
221(8) . . .
225(8) . . .
239(8) . . .
216(8) . . .
218(8) . . .
236(8) . . .
220(8) . . .
229(8) . . .
221(8) . . .
215(8) . . .
205(8) . . .
212(8) . . .
211(8) . . .
213(8) . . .
219(8) . . .
211(8) . . .
210(8) . . .
224(8) . . .
233(8) . . .
212(8) . . .
192(8) . . .
223(8) . . .
229(8) . . .
231(8) . . .
217(8) . . .
228(8) . . .
227(8) . . .
232(8) . . .
223(8) . . .
228(8) . . .
231(8) . . .
232(8) . . .
211(8) . . .
221(8) . . .
218(8) . . .
217(8) . . .
208(8) . . .
227(8) . . .
232(8) . . .
244(8) . . .
215(8) . . .
220(8) . . .
220(8) . . .
232(8) . . .
244(9) . . .
204(8) . . .
226(8) . . .
224(8) . . .
248(8) . . .
216(8) . . .
239(8) . . .
221(8) . . .
220(8) . . .
230(8) . . .
243(9) . . .
240(8) . . .
217(8) . . .
234(8) . . .
216(8) . . .
218(8) . . .
230(8) . . .
218(8) . . .
220(8) . . .
214(8) . . .
211(8) . . .
227(8) . . .
206(8) . . .
224(8) . . .
214(8) . . .
226(8) . . .
223(8) . . .
223(8) . . .
230(8) . . .
223(8) . . .
209(8) . . .
197(8) . . .
217(8) . . .
214(8) . . .
220(8) . . .
216(8) . . .
220(8) . . .
215(8) . . .
201(7) . . .
197(8) . . .
225(9) . . .
206(8) . . .
217(8) . . .
215(8) . . .
205(8) . . .
225(8) . . .
223(8) . . .
218(8) . . .
240(8) . . .
212(8) . . .
226(8) . . .
231(8) . . .
227(8) . . .
204(8) . . .
209(8) . . .
195(8) . . .
208(8) . . .
205(7) . . .
220(8) . . .
214(8) . . .
208(8) . . .
214(8) . . .
224(8) . . .
211(8) . . .
183(7) . . .
208(8) . . .
205(8) . . .
214(8) . . .
203(8) . . .
220(8) . . .
203(8) . . .
204(8) . . .
223(8) . . .
214(8) . . .
207(8) . . .
195(8) . . .
206(8) . . .
215(8) . . .
200(8) . . .
199(8) . . .
218(8) . . .
189(7) . . .
209(8) . . .
220(8) . . .
197(8) . . .
212(8) . . .
224(8) . . .
212(8) . . .
216(8) . . .
235(9) . . .
222(8) . . .
216(8) . . .
221(8) . . .
229(8) . . .
207(8) . . .
198(8) . . .
198(7) . . .
203(7) . . .
214(8) . . .
207(8) . . .
193(8) . . .
195(7) . . .
218(8) . . .
186(7) . . .
197(8) . . .
208(8) . . .
224(8) . . .
221(8) . . .
193(7) . . .
201(8) . . .
198(8) . . .
211(8) . . .
202(8) . . .
208(8) . . .
211(8) . . .
216(8) . . .
203(7) . . .
217(8) . . .
234(8) . . .
192(7) . . .
194(7) . . .
193(7) . . .
206(8) . . .
189(7) . . .
209(8) . . .
200(7) . . .
211(7) . . .
218(8) . . .
197(8) . . .
221(8) . . .
203(7) . . .
188(7) . . .
230(8) . . .
199(8) . . .
198(8) . . .
205(7) . . .
211(7) . . .
201(8) . . .
176(7) . . .
189(7) . . .
204(7) . . .
198(7) . . .
205(8) . . .
221(8) . . .
205(8) . . .
215(8) . . .
188(7) . . .
184(7) . . .
210(8) . . .
174(7) . . .
215(8) . . .
210(8) . . .
212(8) . . .
208(8) . . .
215(8) . . .
209(7) . . .
214(8) . . .
205(8) . . .
213(8) . . .
192(7) . . .
207(7) . . .
195(7) . . .
196(8) . . .
215(8) . . .
200(8) . . .
202(7) . . .
197(7) . . .
217(8) . . .
215(8) . . .
204(7) . . .
208(7) . . .
218(8) . . .
210(8) . . .
208(8) . . .
193(7) . . .
183(7) . . .
207(8) . . .
204(8) . . .
208(8) . . .
189(7) . . .
206(7) . . .
220(8) . . .
206(8) . . .
206(8) . . .
204(7) . . .
208(8) . . .
203(8) . . .
181(7) . . .
202(8) . . .
223(8) . . .
228(8) . . .
226(8) . . .
187(7) . . .
206(8) . . .
185(7) . . .
208(7) . . .
216(8) . . .
196(8) . . .
178(7) . . .
206(7) . . .
196(7) . . .
231(8) . . .
212(8) . . .
204(7) . . .
208(7) . . .
214(8) . . .
195(8) . . .
195(8) . . .
189(7) . . .
194(7) . . .
212(8) . . .
190(8) . . .
189(7) . . .
222(8) . . .
204(7) . . .
208(8) . . .
202(8) . . .
188(7) . . .
180(7) . . .
226(8) . . .
225(8) . . .
196(8) . . .
196(8) . . .
178(7) . . .
204(7) . . .
219(8) . . .
225(8) . . .
207(8) . . .
201(7) . . .
183(7) . . .
199(8) . . .
215(8) . . .
183(7) . . .
196(7) . . .
219(8) . . .
228(8) . . .
187(8) . . .
187(7) . . .
205(8) . . .
211(8) . . .
206(8) . . .
222(8) . . .
213(8) . . .
214(8) . . .
212(8) . . .
182(7) . . .
209(8) . . .
190(7) . . .
210(7) . . .
214(8) . . .
214(8) . . .
203(8) . . .
215(8) . . .
201(7) . . .
187(7) . . .
225(8) . . .
211(8) . . .
206(8) . . .
235(8) . . .
229(8) . . .
227(8) . . .
195(7) . . .
216(8) . . .
241(8) . . .
228(8) . . .
238(8) . . .
206(8) . . .
193(7) . . .
217(8) . . .
232(8) . . .
214(8) . . .
222(8) . . .
195(7) . . .
196(7) . . .
193(8) . . .
189(7) . . .
200(8) . . .
205(7) . . .
208(7) . . .
218(8) . . .
187(8) . . .
217(8) . . .
204(7) . . .
200(7) . . .
176(7) . . .
202(8) . . .
209(8) . . .
206(8) . . .
176(7) . . .
190(7) . . .
202(8) . . .
198(8) . . .
211(8) . . .
196(7) . . .
196(8) . . .
194(8) . . .
190(8) . . .
205(7) . . .
193(7) . . .
198(8) . . .
185(7) . . .
195(8) . . .
215(8) . . .
209(8) . . .
184(7) . . .
179(7) . . .
181(7) . . .
201(7) . . .
198(7) . . .
193(7) . . .
197(8) . . .
190(8) . . .
194(7) . . .
188(7) . . .
198(8) . . .
194(7) . . .
190(7) . . .
200(7) . . .
183(7) . . .
190(8) . . .
198(8) . . .
182(7) . . .
183(7) . . .
204(8) . . .
194(8) . . .
193(8) . . .
205(7) . . .
213(8) . . .
196(7) . . .
198(8) . . .
194(7) . . .
187(7) . . .
196(7) . . .
209(8) . . .
196(8) . . .
194(7) . . .
187(7) . . .
194(7) . . .
199(8) . . .
193(8) . . .
209(8) . . .
187(7) . . .
181(7) . . .
191(7) . . .
181(7) . . .
190(7) . . .
185(7) . . .
199(7) . . .
212(8) . . .
180(7) . . .
200(8) . . .
198(7) . . .
211(8) . . .
197(7) . . .
198(8) . . .
215(8) . . .
227(8) . . .
229(8) . . .
187(7) . . .
206(8) . . .
205(8) . . .
201(7) . . .
187(7) . . .
207(8) . . .
193(7) . . .
187(7) . . .
185(7) . . .
182(7) . . .
185(7) . . .
215(8) . . .
204(8) . . .
205(7) . . .
194(7) . . .
205(8) . . .
208(8) . . .
232(8) . . .
209(8) . . .
205(8) . . .
213(8) . . .
208(8) . . .
208(8) . . .
215(8) . . .
203(8) . . .
188(7) . . .
179(7) . . .
178(7) . . .
199(7) . . .
196(7) . . .
199(8) . . .
194(8) . . .
196(7) . . .
208(7) . . .
192(7) . . .
202(8) . . .
174(7) . . .
183(7) . . .
185(7) . . .
169(7) . . .
178(7) . . .
181(7) . . .
200(7) . . .
174(7) . . .
175(7) . . .
165(7) . . .
183(7) . . .
184(7) . . .
189(7) . . .
192(7) . . .
196(7) . . .
190(7) . . .
195(7) . . .
197(7) . . .
209(8) . . .
188(8) . . .
191(7) . . .
192(7) . . .
193(7) . . .
197(8) . . .
178(7) . . .
186(7) . . .
192(7) . . .
181(7) . . .
203(8) . . .
190(8) . . .
201(8) . . .
189(7) . . .
182(7) . . .
179(7) . . .
196(8) . . .
177(7) . . .
186(7) . . .
205(8) . . .
189(8) . . .
183(7) . . .
183(7) . . .
183(7) . . .
186(7) . . .
192(8) . . .
202(8) . . .
181(7) . . .
165(7) . . .
191(8) . . .
188(8) . . .
186(7) . . .
198(7) . . .
202(7) . . .
200(8) . . .
184(7) . . .
186(7) . . .
201(7) . . .
185(7) . . .
198(8) . . .
188(8) . . .
187(7) . . .
181(7) . . .
187(7) . . .
181(7) . . .
184(8) . . .
188(7) . . .
186(7) . . .
183(7) . . .
191(7) . . .
184(7) . . .
184(7) . . .
192(7) . . .
206(8) . . .
187(7) . . .
187(7) . . .
203(8) . . .
181(7) . . .
171(7) . . .
176(7) . . .
192(7) . . .
173(7) . . .
192(7) . . .
192(7) . . .
184(7) . . .
177(7) . . .
170(7) . . .
188(7) . . .
177(7) . . .
192(8) . . .
193(7) . . .
182(7) . . .
187(7) . . .
174(7) . . .
190(8) . . .
195(7) . . .
179(7) . . .
196(7) . . .
197(8) . . .
175(7) . . .
180(7) . . .
188(7) . . .
196(7) . . .
195(8) . . .
192(8) . . .
178(7) . . .
190(7) . . .
191(7) . . .
188(7) . . .
199(8) . . .
192(7) . . .
199(7) . . .
186(7) . . .
193(8) . . .
188(8) . . .
187(7) . . .
203(7) . . .
193(7) . . .
196(8) . . .
181(7) . . .
187(7) . . .
171(7) . . .
187(7) . . .
190(8) . . .
204(8) . . .
182(7) . . .
182(7) . . .
186(7) . . .
172(7) . . .
200(8) . . .
188(7) . . .
199(7) . . .
179(7) . . .
179(7) . . .
184(7) . . .
199(8) . . .
185(7) . . .
177(7) . . .
200(8) . . .
188(7) . . .
205(8) . . .
188(7) . . .
201(8) . . .
184(7) . . .
183(7) . . .
179(7) . . .
188(7) . . .
207(8) . . .
183(7) . . .
191(7) . . .
193(7) . . .
170(7) . . .
182(8) . . .
193(8) . . .
195(8) . . .
211(8) . . .
185(7) . . .
178(7) . . .
181(7) . . .
184(7) . . .
194(7) . . .
176(7) . . .
200(8) . . .
189(8) . . .
180(7) . . .
203(7) . . .
175(7) . . .
179(7) . . .
195(8) . . .
194(7) . . .
206(7) . . .
183(7) . . .
189(8) . . .
188(8) . . .
186(7) . . .
186(7) . . .
170(7) . . .
189(7) . . .
191(8) . . .
187(7) . . .
184(7) . . .
203(7) . . .
200(8) . . .
203(8) . . .
214(8) . . .
216(8) . . .
206(8) . . .
191(7) . . .
195(8) . . .
183(7) . . .
194(7) . . .
194(7) . . .
195(8) . . .
211(8) . . .
195(7) . . .
182(7) . . .
194(7) . . .
186(8) . . .
195(7) . . .
189(7) . . .
195(7) . . .
193(8) . . .
185(8) . . .
189(7) . . .
184(7) . . .
188(7) . . .
199(7) . . .
205(8) . . .
187(7) . . .
185(7) . . .
204(7) . . .
190(7) . . .
194(8) . . .
206(8) . . .
183(7) . . .
198(7) . . .
201(8) . . .
178(7) . . .
197(8) . . .
182(7) . . .
189(7) . . .
186(7) . . .
188(7) . . .
208(8) . . .
186(7) . . .
183(7) . . .
196(8) . . .
192(8) . . .
197(8) . . .
191(7) . . .
189(7) . . .
202(8) . . .
179(7) . . .
190(7) . . .
202(7) . . .
185(7) . . .
215(8) . . .
200(8) . . .
191(7) . . .
191(7) . . .
184(7) . . .
196(8) . . .
178(7) . . .
179(7) . . .
171(7) . . .
186(7) . . .
177(7) . . .
208(8) . . .
189(7) . . .
184(7) . . .
176(7) . . .
185(8) . . .
180(7) . . .
195(7) . . .
218(8) . . .
195(7) . . .
187(8) . . .
185(7) . . .
180(7) . . .
205(8) . . .
196(8) . . .
187(7) . . .
176(7) . . .
180(7) . . .
175(7) . . .
192(8) . . .
176(7) . . .
192(7) . . .
182(7) . . .
183(7) . . .
178(7) . . .
177(7) . . .
166(7) . . .
181(7) . . .
192(7) . . .
187(8) . . .
184(8) . . .
194(7) . . .
190(7) . . .
172(7) . . .
180(7) . . .
182(7) . . .
164(7) . . .
182(7) . . .
204(8) . . .
175(7) . . .
171(7) . . .
170(7) . . .
183(7) . . .
190(7) . . .
174(7) . . .
179(7) . . .
174(7) . . .
184(7) . . .
195(8) . . .
180(7) . . .
174(7) . . .
174(7) . . .
172(7) . . .
200(8) . . .
191(8) . . .
194(7) . . .
181(7) . . .
172(7) . . .
186(7) . . .
186(8) . . .
191(7) . . .
185(7) . . .
175(7) . . .
192(8) . . .
172(7) . . .
188(7) . . .
204(7) . . .
183(7) . . .
192(8) . . .
188(8) . . .
201(8) . . .
194(7) . . .
177(7) . . .
169(7) . . .
164(7) . . .
206(8) . . .
195(7) . . .
179(7) . . .
207(8) . . .
182(7) . . .
186(7) . . .
187(7) . . .
201(8) . . .
197(8) . . .
190(7) . . .
184(7) . . .
177(7) . . .
208(8) . . .
183(7) . . .
187(7) . . .
201(7) . . .
185(7) . . .
200(8) . . .
183(7) . . .
191(7) . . .
181(7) . . .
171(7) . . .
173(7) . . .
201(8) . . .
165(7) . . .
160(7) . . .
176(7) . . .
163(7) . . .
186(8) . . .
181(7) . . .
191(7) . . .
167(7) . . .
180(7) . . .
183(8) . . .
186(7) . . .
165(7) . . .
161(7) . . .
187(7) . . .
183(8) . . .
163(7) . . .
175(7) . . .
172(7) . . .
173(7) . . .
177(7) . . .
185(7) . . .
188(7) . . .
187(7) . . .
171(7) . . .
162(7) . . .
189(7) . . .
188(7) . . .
178(7) . . .
169(7) . . .
200(8) . . .
193(7) . . .
187(7) . . .
168(7) . . .
194(8) . . .
184(7) . . .
192(7) . . .
184(7) . . .
195(8) . . .
173(7) . . .
188(7) . . .
179(7) . . .
169(7) . . .
179(7) . . .
167(7) . . .
174(7) . . .
199(7) . . .
191(7) . . .
169(7) . . .
159(7) . . .
168(7) . . .
184(7) . . .
181(7) . . .
196(8) . . .
167(7) . . .
183(7) . . .
179(7) . . .
169(7) . . .
179(7) . . .
194(8) . . .
181(7) . . .
182(7) . . .
181(7) . . .
185(7) . . .
177(7) . . .
185(7) . . .
171(7) . . .
181(7) . . .
158(7) . . .
179(7) . . .
180(7) . . .
179(7) . . .
183(7) . . .
171(7) . . .
190(8) . . .
193(8) . . .
164(7) . . .
169(7) . . .
169(7) . . .
175(7) . . .
164(7) . . .
154(7) . . .
181(7) . . .
159(7) . . .
184(7) . . .
174(7) . . .
175(7) . . .
177(7) . . .
180(7) . . .
201(8) . . .
186(7) . . .
168(7) . . .
194(8) . . .
184(7) . . .
168(7) . . .
178(7) . . .
191(7) . . .
160(7) . . .
164(7) . . .
185(8) . . .
183(7) . . .
178(7) . . .
169(7) . . .
181(8) . . .
169(7) . . .
171(7) . . .
187(7) . . .
173(7) . . .
188(8) . . .
165(7) . . .
162(7) . . .
183(7) . . .
193(7) . . .
176(7) . . .
182(7) . . .
173(7) . . .
186(7) . . .
171(7) . . .
167(7) . . .
196(8) . . .
176(7) . . .
185(7) . . .
185(8) . . .
160(7) . . .
176(7) . . .
182(7) . . .
194(7) . . .
204(8) . . .
183(7) . . .
194(8) . . .
179(7) . . .
178(7) . . .
198(8) . . .
192(8) . . .
192(7) . . .
193(7) . . .
184(7) . . .
197(8) . . .
189(8) . . .
181(7) . . .
188(7) . . .
191(8) . . .
171(7) . . .
193(7) . . .
182(7) . . .
192(7) . . .
191(7) . . .
186(8) . . .
191(8) . . .
190(7) . . .
201(7) . . .
168(7) . . .
159(7) . . .
169(7) . . .
172(7) . . .
181(7) . . .
167(7) . . .
172(7) . . .
179(7) . . .
164(7) . . .
152(6) . . .
184(7) . . .
177(7) . . .
186(8) . . .
169(7) . . .
170(7) . . .
170(7) . . .
185(8) . . .
172(7) . . .
188(7) . . .
186(7) . . .
179(7) . . .
178(7) . . .
173(7) . . .
186(7) . . .
177(7) . . .
176(7) . . .
165(7) . . .
195(7) . . .
176(7) . . .
177(7) . . .
191(8) . . .
159(7) . . .
165(7) . . .
184(7) . . .
177(7) . . .
172(7) . . .
158(7) . . .
185(7) . . .
173(7) . . .
184(7) . . .
167(7) . . .
177(7) . . .
192(7) . . .
183(7) . . .
184(7) . . .
195(8) . . .
178(7) . . .
182(7) . . .
180(7) . . .
180(7) . . .
168(7) . . .
164(7) . . .
179(7) . . .
167(7) . . .
176(7) . . .
182(8) . . .
188(7) . . .
178(7) . . .
171(7) . . .
183(7) . . .
175(7) . . .
183(7) . . .
170(7) . . .
174(7) . . .
167(7) . . .
194(8) . . .
167(7) . . .
171(7) . . .
162(7) . . .
183(7) . . .
175(7) . . .
177(7) . . .
171(7) . . .
178(7) . . .
188(7) . . .
178(7) . . .
197(8) . . .
172(7) . . .
170(7) . . .
189(8) . . .
179(7) . . .
177(7) . . .
177(7) . . .
169(7) . . .
188(8) . . .
194(8) . . .
184(7) . . .
168(7) . . .
195(7) . . .
188(8) . . .
169(7) . . .
181(7) . . .
160(7) . . .
176(7) . . .
157(7) . . .
166(7) . . .
183(7) . . .
169(7) . . .
176(7) . . .
169(7) . . .
175(7) . . .
178(7) . . .
180(7) . . .
177(7) . . .
179(7) . . .
182(7) . . .
183(7) . . .
174(7) . . .
183(7) . . .
164(7) . . .
159(7) . . .
162(7) . . .
156(6) . . .
171(7) . . .
161(7) . . .
175(7) . . .
180(7) . . .
172(7) . . .
184(7) . . .
192(8) . . .
185(7) . . .
183(7) . . .
183(7) . . .
159(7) . . .
163(7) . . .
190(7) . . .
178(7) . . .
175(7) . . .
171(7) . . .
188(7) . . .
181(7) . . .
190(7) . . .
167(7) . . .
152(7) . . .
165(7) . . .
170(7) . . .
168(7) . . .
166(7) . . .
166(7) . . .
168(7) . . .
163(7) . . .
189(7) . . .
166(7) . . .
155(7) . . .
166(7) . . .
156(7) . . .
194(7) . . .
163(7) . . .
151(7) . . .
169(7) . . .
191(7) . . .
167(7) . . .
172(7) . . .
168(7) . . .
172(7) . . .
176(7) . . .
172(7) . . .
169(7) . . .
181(8) . . .
182(7) . . .
155(6) . . .
171(7) . . .
172(7) . . .
180(8) . . .
169(7) . . .
191(7) . . .
169(7) . . .
168(7) . . .
193(8) . . .
185(7) . . .
163(7) . . .
179(7) . . .
185(7) . . .
179(7) . . .
174(7) . . .
154(6) . . .
178(7) . . .
172(7) . . .
171(7) . . .
171(7) . . .
171(7) . . .
189(7) . . .
182(7) . . .
168(7) . . .
175(7) . . .
172(7) . . .
179(7) . . .
170(7) . . .
172(7) . . .
177(7) . . .
176(7) . . .
180(7) . . .
192(7) . . .
171(7) . . .
168(7) . . .
176(7) . . .
198(8) . . .
166(7) . . .
168(7) . . .
177(7) . . .
170(7) . . .
182(7) . . .
172(7) . . .
152(7) . . .
184(7) . . .
145(6) . . .
177(7) . . .
187(7) . . .
162(7) . . .
183(7) . . .
182(7) . . .
183(7) . . .
178(7) . . .
180(7) . . .
188(7) . . .
157(6) . . .
184(7) . . .
186(8) . . .
188(7) . . .
172(7) . . .
173(7) . . .
177(7) . . .
182(7) . . .
177(7) . . .
167(7) . . .
179(7) . . .
177(7) . . .
183(7) . . .
193(8) . . .
182(7) . . .
169(7) . . .
172(7) . . .
172(7) . . .
173(7) . . .
179(7) . . .
178(7) . . .
170(7) . . .
173(7) . . .
185(7) . . .
163(7) . . .
157(7) . . .
180(7) . . .
166(7) . . .
166(7) . . .
173(7) . . .
187(8) . . .
181(7) . . .
169(7) . . .
146(6) . . .
180(7) . . .
173(7) . . .
180(7) . . .
174(7) . . .
177(7) . . .
185(7) . . .
183(7) . . .
180(8) . . .
173(7) . . .
186(7) . . .
170(7) . . .
179(7) . . .
176(7) . . .
176(7) . . .
163(7) . . .
157(7) . . .
171(7) . . .
169(7) . . .
164(7) . . .
189(7) . . .
155(7) . . .
186(7) . . .
182(7) . . .
190(7) . . .
167(7) . . .
163(7) . . .
187(8) . . .
170(7) . . .
174(7) . . .
159(7) . . .
179(7) . . .
178(7) . . .
185(7) . . .
163(7) . . .
160(7) . . .
162(7) . . .
166(7) . . .
175(7) . . .
156(7) . . .
188(7) . . .
179(7) . . .
186(7) . . .
183(7) . . .
174(7) . . .
183(7) . . .
182(7) . . .
175(7) . . .
170(7) . . .
167(7) . . .
182(7) . . .
150(6) . . .
174(7) . . .
177(7) . . .
183(7) . . .
190(7) . . .
168(7) . . .
165(7) . . .
171(7) . . .
186(7) . . .
186(7) . . .
182(7) . . .
184(8) . . .
192(7) . . .
177(7) . . .
196(7) . . .
175(7) . . .
181(7) . . .
183(7) . . .
162(7) . . .
173(7) . . .
168(7) . . .
171(7) . . .
166(7) . . .
174(7) . . .
177(7) . . .
176(7) . . .
175(7) . . .
164(7) . . .
173(7) . . .
173(7) . . .
163(7) . . .
188(8) . . .
168(7) . . .
173(7) . . .
173(7) . . .
173(7) . . .
185(7) . . .
176(7) . . .
167(7) . . .
183(7) . . .
162(7) . . .
176(7) . . .
186(7) . . .
159(7) . . .
172(7) . . .
170(7) . . .
174(7) . . .
173(7) . . .
181(7) . . .
196(8) . . .
182(7) . . .
168(7) . . .
174(7) . . .
186(7) . . .
196(7) . . .
192(7) . . .
178(7) . . .
169(7) . . .
168(7) . . .
185(7) . . .
183(7) . . .
167(7) . . .
169(7) . . .
181(7) . . .
172(7) . . .
181(7) . . .
186(7) . . .
181(7) . . .
197(7) . . .
170(7) . . .
190(8) . . .
188(7) . . .
213(8) . . .
169(7) . . .
180(7) . . .
170(7) . . .
176(7) . . .
177(7) . . .
182(7) . . .
192(8) . . .
180(7) . . .
172(7) . . .
165(7) . . .
170(7) . . .
193(8) . . .
190(7) . . .
180(7) . . .
164(7) . . .
175(7) . . .
180(7) . . .
182(7) . . .
175(7) . . .
188(7) . . .
166(7) . . .
171(7) . . .
159(7) . . .
187(7) . . .
187(7) . . .
180(7) . . .
165(7) . . .
181(7) . . .
158(6) . . .
167(7) . . .
166(7) . . .
183(8) . . .
195(8) . . .
181(7) . . .
165(7) . . .
177(7) . . .
184(8) . . .
176(7) . . .
154(6) . . .
182(7) . . .
191(7) . . .
166(7) . . .
159(7) . . .
165(7) . . .
184(7) . . .
176(7) . . .
168(7) . . .
183(7) . . .
182(7) . . .
169(7) . . .
174(7) . . .
184(8) . . .
163(7) . . .
190(7) . . .
202(7) . . .
203(8) . . .
183(7) . . .
185(7) . . .
181(7) . . .
192(7) . . .
191(7) . . .
193(8) . . .
191(7) . . .
185(7) . . .
199(7) . . .
187(7) . . .
188(7) . . .
194(7) . . .
186(7) . . .
216(8) . . .
207(8) . . .
189(7) . . .
190(7) . . .
204(7) . . .
205(8) . . .
186(8) . . .
163(7) . . .
189(7) . . .
169(7) . . .
169(7) . . .
184(8) . . .
167(7) . . .
174(7) . . .
196(7) . . .
180(7) . . .
173(7) . . .
171(7) . . .
181(7) . . .
177(7) . . .
162(7) . . .
179(8) . . .
194(8) . . .
191(7) . . .
184(7) . . .
182(7) . . .
179(7) . . .
182(7) . . .
172(7) . . .
187(7) . . .
182(7) . . .
172(7) . . .
192(8) . . .
152(6) . . .
190(7) . . .
175(7) . . .
193(8) . . .
176(7) . . .
177(7) . . .
166(7) . . .
186(7) . . .
188(8) . . .
180(7) . . .
184(7) . . .
178(7) . . .
169(7) . . .
197(8) . . .
203(7) . . .
195(7) . . .
158(7) . . .
172(7) . . .
172(7) . . .
197(7) . . .
173(7) . . .
158(7) . . .
176(7) . . .
182(7) . . .
157(7) . . .
176(7) . . .
186(7) . . .
177(7) . . .
180(7) . . .
188(7) . . .
172(7) . . .
167(7) . . .
161(7) . . .
192(8) . . .
186(7) . . .
196(7) . . .
180(7) . . .
185(7) . . .
169(7) . . .
167(7) . . .
156(6) . . .
161(7) . . .
194(8) . . .
188(7) . . .
184(7) . . .
184(7) . . .
162(7) . . .
186(8) . . .
168(7) . . .
194(7) . . .
178(7) . . .
180(7) . . .
191(8) . . .
177(7) . . .
158(7) . . .
160(7) . . .
163(7) . . .
184(7) . . .
158(7) . . .
170(7) . . .
168(7) . . .
155(7) . . .
160(7) . . .
165(7) . . .
176(7) . . .
174(7) . . .
166(7) . . .
176(7) . . .
165(7) . . .
177(7) . . .
190(8) . . .
172(7) . . .
166(7) . . .
182(7) . . .
180(7) . . .
185(7) . . .
175(7) . . .
185(7) . . .
165(7) . . .
160(7) . . .
161(7) . . .
177(7) . . .
164(7) . . .
184(7) . . .
182(7) . . .
180(7) . . .
171(7) . . .
163(7) . . .
171(7) . . .
173(7) . . .
144(6) . . .
154(7) . . .
195(8) . . .
179(7) . . .
173(7) . . .
183(7) . . .
171(7) . . .
186(7) . . .
165(7) . . .
203(8) . . .
203(8) . . .
186(7) . . .
193(8) . . .
176(7) . . .
167(7) . . .
171(7) . . .
175(7) . . .
167(7) . . .
174(7) . . .
173(7) . . .
162(7) . . .
191(8) . . .
157(7) . . .
159(7) . . .
181(7) . . .
181(7) . . .
184(7) . . .
171(7) . . .
161(7) . . .
175(7) . . .
141(6) . . .
157(7) . . .
160(7) . . .
167(7) . . .
167(7) . . .
159(7) . . .
158(7) . . .
177(7) . . .
179(7) . . .
163(7) . . .
179(8) . . .
174(7) . . .
176(7) . . .
167(7) . . .
191(7) . . .
178(7) . . .
171(7) . . .
175(7) . . .
178(7) . . .
173(7) . . .
182(7) . . .
185(7) . . .
173(7) . . .
170(7) . . .
175(7) . . .
163(7) . . .
163(7) . . .
202(7) . . .
179(7) . . .
177(7) . . .
200(8) . . .
176(7) . . .
180(7) . . .
177(7) . . .
166(7) . . .
175(7) . . .
175(7) . . .
183(7) . . .
166(7) . . .
170(7) . . .
155(7) . . .
162(7) . . .
171(7) . . .
165(7) . . .
167(7) . . .
160(7) . . .
176(7) . . .
170(7) . . .
163(7) . . .
162(7) . . .
168(7) . . .
187(7) . . .
177(7) . . .
181(7) . . .
185(7) . . .
177(7) . . .
181(7) . . .
196(7) . . .
200(8) . . .
197(8) . . .
173(7) . . .
172(7) . . .
182(7) . . .
200(8) . . .
180(8) . . .
174(7) . . .
185(7) . . .
162(7) . . .
172(7) . . .
167(7) . . .
164(7) . . .
169(7) . . .
177(7) . . .
169(7) . . .
173(7) . . .
169(7) . . .
188(7) . . .
170(7) . . .
166(7) . . .
168(7) . . .
161(7) . . .
157(7) . . .
183(7) . . .
191(7) . . .
169(7) . . .
164(7) . . .
159(7) . . .
178(7) . . .
166(7) . . .
170(7) . . .
168(7) . . .
183(7) . . .
176(7) . . .
170(7) . . .
177(7) . . .
176(7) . . .
162(7) . . .
197(8) . . .
186(7) . . .
173(7) . . .
174(7) . . .
176(7) . . .
189(7) . . .
191(7) . . .
157(7) . . .
162(7) . . .
168(7) . . .
161(7) . . .
187(8) . . .
187(7) . . .
167(7) . . .
164(7) . . .
184(7) . . .
172(7) . . .
173(7) . . .
154(6) . . .
171(7) . . .
174(7) . . .
166(7) . . .
156(7) . . .
162(7) . . .
166(7) . . .
160(7) . . .
164(7) . . .
186(7) . . .
180(7) . . .
167(7) . . .
198(8) . . .
184(8) . . .
154(7) . . .
196(7) . . .
181(7) . . .
169(7) . . .
168(7) . . .
169(7) . . .
190(7) . . .
194(7) . . .
177(7) . . .
173(7) . . .
172(7) . . .
154(6) . . .
171(7) . . .
178(7) . . .
192(8) . . .
171(7) . . .
188(7) . . .
186(7) . . .
183(7) . . .
174(7) . . .
181(7) . . .
167(7) . . .
174(7) . . .
181(8) . . .
158(7) . . .
163(7) . . .
160(7) . . .
176(7) . . .
177(7) . . .
159(7) . . .
179(7) . . .
181(7) . . .
157(7) . . .
177(7) . . .
185(7) . . .
168(7) . . .
188(7) . . .
179(7) . . .
172(7) . . .
178(7) . . .
168(7) . . .
170(7) . . .
180(7) . . .
182(7) . . .
170(7) . . .
198(7) . . .
195(7) . . .
180(7) . . .
179(7) . . .
192(7) . . .
170(7) . . .
184(7) . . .
176(7) . . .
186(7) . . .
171(7) . . .
180(7) . . .
198(7) . . .
183(7) . . .
196(8) . . .
180(7) . . .
179(7) . . .
190(7) . . .
174(7) . . .
195(8) . . .
179(7) . . .
191(7) . . .
204(8) . . .
188(7) . . .
201(8) . . .
158(7) . . .
178(7) . . .
186(8) . . .
200(8) . . .
186(7) . . .
167(7) . . .
175(7) . . .
187(7) . . .
191(7) . . .
195(7) . . .
200(7) . . .
154(6) . . .
171(7) . . .
178(7) . . .
187(7) . . .
183(7) . . .
194(7) . . .
191(7) . . .
180(7) . . .
188(7) . . .
188(7) . . .
178(7) . . .
169(7) . . .
174(7) . . .
180(7) . . .
177(7) . . .
191(7) . . .
183(7) . . .
188(8) . . .
175(7) . . .
173(7) . . .
203(7) . . .
169(7) . . .
164(7) . . .
166(7) . . .
182(7) . . .
169(7) . . .
162(7) . . .
168(7) . . .
167(7) . . .
174(7) . . .
190(7) . . .
187(8) . . .
179(7) . . .
157(7) . . .
180(7) . . .
175(7) . . .
178(7) . . .
185(7) . . .
182(7) . . .
154(6) . . .
157(7) . . .
175(7) . . .
167(7) . . .
187(7) . . .
180(7) . . .
169(7) . . .
154(7) . . .
173(7) . . .
185(7) . . .
169(7) . . .
173(7) . . .
191(8) . . .
165(7) . . .
161(7) . . .
211(8) . . .
161(7) . . .
159(7) . . .
160(7) . . .
152(6) . . .
167(7) . . .
170(7) . . .
162(7) . . .
176(7) . . .
168(7) . . .
171(7) . . .
176(7) . . .
172(7) . . .
167(7) . . .
152(6) . . .
182(7) . . .
159(7) . . .
186(8) . . .
173(7) . . .
179(7) . . .
173(7) . . .
182(7) . . .
190(8) . . .
163(7) . . .
159(7) . . .
167(7) . . .
180(7) . . .
159(7) . . .
158(7) . . .
155(6) . . .
163(7) . . .
189(8) . . .
185(7) . . .
160(7) . . .
174(7) . . .
185(7) . . .
150(6) . . .
157(7) . . .
173(7) . . .
156(7) . . .
162(7) . . .
168(7) . . .
173(7) . . .
183(7) . . .
171(7) . . .
166(7) . . .
162(7) . . .
187(7) . . .
182(7) . . .
153(6) . . .
174(7) . . .
176(8) . . .
159(7) . . .
166(7) . . .
170(7) . . .
192(7) . . .
172(7) . . .
167(7) . . .
185(7) . . .
180(7) . . .
167(7) . . .
191(8) . . .
189(8) . . .
184(7) . . .
184(7) . . .
164(7) . . .
175(7) . . .
176(7) . . .
176(7) . . .
184(7) . . .
181(7) . . .
192(8) . . .
179(7) . . .
167(7) . . .
181(7) . . .
204(8) . . .
178(7) . . .
152(7) . . .
197(7) . . .
171(7) . . .
180(7) . . .
158(7) . . .
189(8) . . .
158(7) . . .
176(7) . . .
181(7) . . .
174(7) . . .
162(7) . . .
157(7) . . .
169(7) . . .
183(8) . . .
171(7) . . .
191(7) . . .
173(7) . . .
190(8) . . .
178(7) . . .
182(7) . . .
178(7) . . .
170(7) . . .
157(7) . . .
166(7) . . .
180(7) . . .
173(7) . . .
159(7) . . .
163(7) . . .
174(7) . . .
143(6) . . .
156(7) . . .
162(7) . . .
175(7) . . .
172(7) . . .
177(7) . . .
185(7) . . .
164(7) . . .
161(7) . . .
173(7) . . .
173(7) . . .
178(7) . . .
175(7) . . .
158(7) . . .
142(6) . . .
146(6) . . .
157(7) . . .
182(7) . . .
170(7) . . .
179(7) . . .
174(7) . . .
161(7) . . .
169(7) . . .
172(7) . . .
177(7) . . .
159(7) . . .
157(6) . . .
168(7) . . .
151(7) . . .
170(7) . . .
162(7) . . .
180(7) . . .
171(7) . . .
178(7) . . .
189(7) . . .
185(7) . . .
162(7) . . .
175(7) . . .
193(8) . . .
170(7) . . .
171(7) . . .
170(7) . . .
179(7) . . .
160(7) . . .
173(7) . . .
166(7) . . .
164(7) . . .
179(7) . . .
167(7) . . .
160(7) . . .
183(7) . . .
180(7) . . .
176(7) . . .
153(7) . . .
157(7) . . .
175(7) . . .
170(7) . . .
164(7) . . .
188(8) . . .
169(7) . . .
170(7) . . .
170(7) . . .
190(8) . . .
152(7) . . .
160(7) . . .
163(7) . . .
179(7) . . .
161(7) . . .
181(7) . . .
182(7) . . .
167(7) . . .
161(7) . . .
173(7) . . .
206(8) . . .
184(7) . . .
180(7) . . .
190(7) . . .
150(6) . . .
179(7) . . .
167(7) . . .
173(7) . . .
168(7) . . .
184(7) . . .
163(7) . . .
160(7) . . .
174(7) . . .
175(7) . . .
189(8) . . .
181(8) . . .
179(7) . . .
170(7) . . .
169(7) . . .
169(7) . . .
187(7) . . .
197(7) . . .
160(7) . . .
174(7) . . .
157(7) . . .
174(7) . . .
167(7) . . .
175(7) . . .
171(7) . . .
165(7) . . .
160(7) . . .
179(7) . . .
176(7) . . .
181(7) . . .
179(7) . . .
163(7) . . .
167(7) . . .
171(7) . . .
149(6) . . .
172(7) . . .
166(7) . . .
162(7) . . .
140(6) . . .
152(7) . . .
154(7) . . .
165(7) . . .
157(7) . . .
159(7) . . .
157(7) . . .
157(7) . . .
166(7) . . .
161(7) . . .
178(7) . . .
178(8) . . .
160(7) . . .
165(7) . . .
173(7) . . .
173(7) . . .
158(7) . . .
167(7) . . .
181(7) . . .
176(7) . . .
187(7) . . .
184(7) . . .
166(7) . . .
174(7) . . .
174(7) . . .
157(7) . . .
175(7) . . .
180(7) . . .
177(7) . . .
169(7) . . .
162(7) . . .
181(8) . . .
169(7) . . .
164(7) . . .
161(7) . . .
187(8) . . .
158(7) . . .
174(7) . . .
157(7) . . .
178(7) . . .
157(7) . . .
153(7) . . .
181(7) . . .
181(7) . . .
159(7) . . .
193(8) . . .
166(7) . . .
164(7) . . .
155(6) . . .
182(7) . . .
180(7) . . .
168(7) . . .
172(7) . . .
183(7) . . .
182(7) . . .
167(7) . . .
153(7) . . .
167(7) . . .
164(7) . . .
179(7) . . .
170(7) . . .
147(6) . . .
170(7) . . .
184(7) . . .
170(7) . . .
148(7) . . .
169(7) . . .
154(7) . . .
182(7) . . .
176(7) . . .
162(7) . . .
180(7) . . .
196(7) . . .
173(7) . . .
146(6) . . .
167(7) . . .
189(8) . . .
158(7) . . .
172(7) . . .
189(7) . . .
172(7) . . .
165(7) . . .
161(7) . . .
157(7) . . .
156(7) . . .
188(8) . . .
181(7) . . .
160(7) . . .
162(7) . . .
183(7) . . .
165(7) . . .
165(7) . . .
156(6) . . .
170(7) . . .
169(7) . . .
163(7) . . .
173(7) . . .
167(7) . . .
184(7) . . .
172(7) . . .
195(8) . . .
182(7) . . .
181(7) . . .
167(7) . . .
157(7) . . .
156(7) . . .
164(7) . . .
132(6) . . .
157(7) . . .
151(7) . . .
154(7) . . .
184(7) . . .
168(7) . . .
164(7) . . .
176(7) . . .
164(7) . . .
183(7) . . .
201(7) . . .
176(7) . . .
164(7) . . .
158(7) . . .
165(7) . . .
174(7) . . .
147(7) . . .
170(7) . . .
150(7) . . .
162(7) . . .
163(7) . . .
157(7) . . .
189(8) . . .
150(6) . . .
156(7) . . .
146(6) . . .
171(7) . . .
157(7) . . .
161(7) . . .
145(6) . . .
158(6) . . .
175(7) . . .
171(7) . . .
160(7) . . .
186(7) . . .
157(7) . . .
177(7) . . .
169(7) . . .
182(7) . . .
180(7) . . .
173(7) . . .
171(7) . . .
172(7) . . .
168(7) . . .
169(7) . . .
172(7) . . .
164(7) . . .
185(7) . . .
168(7) . . .
166(7) . . .
167(7) . . .
170(7) . . .
175(7) . . .
171(7) . . .
160(7) . . .
143(6) . . .
171(7) . . .
152(7) . . .
150(7) . . .
150(6) . . .
153(7) . . .
154(7) . . .
161(7) . . .
163(7) . . .
163(7) . . .
166(7) . . .
170(7) . . .
153(6) . . .
169(7) . . .
162(7) . . .
165(7) . . .
162(7) . . .
148(6) . . .
158(7) . . .
174(7) . . .
176(7) . . .
153(7) . . .
172(7) . . .
177(7) . . .
171(7) . . .
160(7) . . .
157(7) . . .
174(7) . . .
167(7) . . .
154(6) . . .
167(7) . . .
159(7) . . .
147(7) . . .
165(7) . . .
165(7) . . .
163(7) . . .
163(7) . . .
186(7) . . .
178(7) . . .
157(7) . . .
169(7) . . .
184(7) . . .
176(7) . . .
179(7) . . .
149(6) . . .
162(7) . . .
172(7) . . .
171(7) . . .
170(7) . . .
185(7) . . .
155(7) . . .
162(7) . . .
167(7) . . .
150(6) . . .
174(7) . . .
162(7) . . .
171(7) . . .
159(7) . . .
134(6) . . .
153(7) . . .
175(7) . . .
177(7) . . .
167(7) . . .
174(7) . . .
173(7) . . .
165(7) . . .
176(7) . . .
165(7) . . .
186(7) . . .
162(7) . . .
160(7) . . .
169(7) . . .
174(7) . . .
166(7) . . .
174(7) . . .
172(7) . . .
183(7) . . .
197(7) . . .
170(7) . . .
159(7) . . .
172(7) . . .
170(7) . . .
170(7) . . .
166(7) . . .
181(7) . . .
172(7) . . .
154(7) . . .
158(7) . . .
170(7) . . .
169(7) . . .
158(7) . . .
162(7) . . .
149(6) . . .
165(7) . . .
166(7) . . .
180(7) . . .
160(7) . . .
181(7) . . .
173(7) . . .
170(7) . . .
173(7) . . .
159(7) . . .
172(7) . . .
164(7) . . .
160(7) . . .
153(7) . . .
160(7) . . .
184(7) . . .
197(8) . . .
161(7) . . .
162(7) . . .
163(7) . . .
164(7) . . .
161(7) . . .
159(7) . . .
174(7) . . .
162(7) . . .
168(7) . . .
149(6) . . .
167(7) . . .
166(7) . . .
182(7) . . .
172(7) . . .
163(7) . . .
165(7) . . .
181(7) . . .
190(7) . . .
152(6) . . .
167(7) . . .
163(7) . . .
162(7) . . .
150(6) . . .
154(6) . . .
177(7) . . .
154(7) . . .
163(7) . . .
155(7) . . .
182(7) . . .
180(7) . . .
150(6) . . .
158(7) . . .
142(6) . . .
166(7) . . .
154(7) . . .
163(7) . . .
166(7) . . .
192(7) . . .
170(7) . . .
167(7) . . .
147(7) . . .
161(7) . . .
164(7) . . .
177(7) . . .
157(7) . . .
159(7) . . .
178(7) . . .
166(7) . . .
185(7) . . .
187(8) . . .
164(7) . . .
178(7) . . .
176(7) . . .
187(7) . . .
188(8) . . .
178(7) . . .
168(7) . . .
150(6) . . .
192(8) . . .
184(7) . . .
153(7) . . .
169(7) . . .
160(7) . . .
160(7) . . .
172(7) . . .
180(7) . . .
184(7) . . .
156(6) . . .
162(7) . . .
163(7) . . .
161(7) . . .
180(7) . . .
187(7) . . .
185(7) . . .
188(8) . . .
176(7) . . .
184(7) . . .
168(7) . . .
168(7) . . .
158(7) . . .
169(7) . . .
181(7) . . .
165(7) . . .
170(7) . . .
166(7) . . .
170(7) . . .
157(6) . . .
171(7) . . .
159(7) . . .
155(7) . . .
172(7) . . .
168(7) . . .
173(7) . . .
173(7) . . .
173(7) . . .
184(7) . . .
171(7) . . .
160(7) . . .
150(7) . . .
150(7) . . .
166(7) . . .
173(7) . . .
152(7) . . .
170(7) . . .
161(7) . . .
168(7) . . .
176(7) . . .
161(7) . . .
175(7) . . .
165(7) . . .
166(7) . . .
174(7) . . .
174(7) . . .
165(7) . . .
151(7) . . .
166(7) . . .
171(7) . . .
168(7) . . .
167(7) . . .
189(8) . . .
177(7) . . .
196(7) . . .
166(7) . . .
163(7) . . .
186(8) . . .
170(7) . . .
158(7) . . .
156(7) . . .
170(7) . . .
170(7) . . .
156(6) . . .
170(7) . . .
169(7) . . .
171(7) . . .
143(6) . . .
171(7) . . .
147(6) . . .
152(7) . . .
156(7) . . .
169(7) . . .
169(7) . . .
163(7) . . .
171(7) . . .
149(7) . . .
158(7) . . .
175(7) . . .
155(7) . . .
165(7) . . .
171(7) . . .
170(7) . . .
154(6) . . .
175(7) . . .
173(7) . . .
177(7) . . .
164(7) . . .
167(7) . . .
181(7) . . .
159(7) . . .
167(7) . . .
170(7) . . .
168(7) . . .
150(7) . . .
154(7) . . .
162(7) . . .
170(7) . . .
184(7) . . .
176(7) . . .
151(7) . . .
177(7) . . .
168(7) . . .
160(7) . . .
148(6) . . .
160(7) . . .
162(7) . . .
159(7) . . .
163(7) . . .
147(6) . . .
176(7) . . .
158(7) . . .
168(7) . . .
145(6) . . .
174(7) . . .
158(7) . . .
155(7) . . .
142(6) . . .
152(7) . . .
162(7) . . .
169(7) . . .
155(7) . . .
171(7) . . .
149(6) . . .
164(7) . . .
173(7) . . .
159(7) . . .
163(7) . . .
162(7) . . .
180(7) . . .
160(7) . . .
161(7) . . .
162(7) . . .
171(7) . . .
173(7) . . .
179(7) . . .
142(6) . . .
173(7) . . .
169(7) . . .
174(7) . . .
172(7) . . .
177(7) . . .
161(7) . . .
180(7) . . .
169(7) . . .
178(7) . . .
164(7) . . .
165(7) . . .
169(7) . . .
161(7) . . .
161(7) . . .
176(7) . . .
154(7) . . .
170(7) . . .
161(7) . . .
173(7) . . .
154(6) . . .
159(7) . . .
175(7) . . .
166(7) . . .
159(7) . . .
173(7) . . .
158(7) . . .
156(7) . . .
176(7) . . .
160(7) . . .
152(6) . . .
155(7) . . .
163(7) . . .
162(7) . . .
178(7) . . .
176(7) . . .
151(6) . . .
176(7) . . .
166(7) . . .
163(7) . . .
143(6) . . .
147(6) . . .
160(7) . . .
190(7) . . .
163(7) . . .
163(7) . . .
165(7) . . .
163(7) . . .
151(6) . . .
178(7) . . .
165(7) . . .
166(7) . . .
163(7) . . .
149(6) . . .
158(7) . . .
155(6) . . .
161(7) . . .
181(7) . . .
172(7) . . .
145(6) . . .
153(6) . . .
166(7) . . .
157(7) . . .
154(7) . . .
168(7) . . .
176(7) . . .
179(7) . . .
156(7) . . .
169(7) . . .
154(7) . . .
138(6) . . .
147(7) . . .
148(7) . . .
172(7) . . .
159(7) . . .
144(6) . . .
159(7) . . .
155(7) . . .
149(7) . . .
177(7) . . .
152(6) . . .
175(7) . . .
173(7) . . .
153(7) . . .
157(6) . . .
162(7) . . .
157(7) . . .
148(7) . . .
149(7) . . .
172(7) . . .
173(7) . . .
172(7) . . .
177(7) . . .
176(7) . . .
162(7) . . .
151(7) . . .
154(7) . . .
168(7) . . .
148(6) . . .
142(6) . . .
170(7) . . .
151(7) . . .
153(7) . . .
154(6) . . .
146(6) . . .
168(7) . . .
164(7) . . .
155(7) . . .
169(7) . . .
176(7) . . .
168(7) . . .
160(7) . . .
160(7) . . .
163(7) . . .
174(7) . . .
159(7) . . .
135(6) . . .
164(7) . . .
154(6) . . .
150(6) . . .
139(6) . . .
160(7) . . .
173(7) . . .
185(7) . . .
149(6) . . .
156(7) . . .
169(7) . . .
159(7) . . .
163(7) . . .
158(6) . . .
155(6) . . .
162(7) . . .
153(7) . . .
143(6) . . .
163(7) . . .
169(7) . . .
160(7) . . .
166(7) . . .
157(7) . . .
170(7) . . .
159(7) . . .
167(7) . . .
178(7) . . .
149(6) . . .
153(7) . . .
148(7) . . .
171(7) . . .
155(7) . . .
168(7) . . .
155(7) . . .
155(7) . . .
153(7) . . .
160(7) . . .
163(7) . . .
172(7) . . .
169(7) . . .
158(7) . . .
168(7) . . .
140(6) . . .
158(7) . . .
164(7) . . .
148(7) . . .
160(7) . . .
152(6) . . .
155(7) . . .
158(7) . . .
159(7) . . .
167(7) . . .
153(6) . . .
177(7) . . .
162(7) . . .
154(7) . . .
168(7) . . .
149(6) . . .
142(7) . . .
153(7) . . .
174(7) . . .
157(7) . . .
161(7) . . .
137(6) . . .
144(6) . . .
149(7) . . .
157(7) . . .
161(7) . . .
158(7) . . .
170(7) . . .
167(7) . . .
166(7) . . .
162(7) . . .
166(7) . . .
157(7) . . .
163(7) . . .
165(7) . . .
160(7) . . .
157(7) . . .
148(6) . . .
165(7) . . .
165(7) . . .
152(7) . . .
152(7) . . .
163(7) . . .
164(7) . . .
180(7) . . .
165(7) . . .
169(7) . . .
177(7) . . .
151(6) . . .
147(6) . . .
159(7) . . .
153(7) . . .
143(6) . . .
168(7) . . .
153(6) . . .
175(7) . . .
155(7) . . .
161(7) . . .
142(6) . . .
170(7) . . .
149(6) . . .
165(7) . . .
163(7) . . .
175(7) . . .
169(7) . . .
148(7) . . .
166(7) . . .
166(7) . . .
161(7) . . .
161(7) . . .
161(7) . . .
157(7) . . .
165(7) . . .
162(7) . . .
158(7) . . .
160(7) . . .
162(7) . . .
166(7) . . .
177(7) . . .
152(6) . . .
162(7) . . .
153(7) . . .
154(7) . . .
152(6) . . .
167(7) . . .
169(7) . . .
162(7) . . .
152(7) . . .
144(6) . . .
153(7) . . .
149(7) . . .
161(7) . . .
148(6) . . .
171(7) . . .
153(7) . . .
146(7) . . .
156(7) . . .
147(6) . . .
165(7) . . .
181(7) . . .
166(7) . . .
159(7) . . .
174(7) . . .
171(7) . . .
171(7) . . .
148(7) . . .
158(7) . . .
148(6) . . .
156(6) . . .
164(7) . . .
154(7) . . .
174(7) . . .
165(7) . . .
154(6) . . .
157(7) . . .
150(7) . . .
153(7) . . .
172(7) . . .
182(7) . . .
159(7) . . .
150(7) . . .
165(7) . . .
154(7) . . .
159(7) . . .
160(7) . . .
151(7) . . .
138(6) . . .
160(7) . . .
147(6) . . .
152(7) . . .
171(7) . . .
159(7) . . .
157(7) . . .
159(7) . . .
144(6) . . .
157(7) . . .
169(7) . . .
149(6) . . .
162(7) . . .
146(7) . . .
143(6) . . .
156(7) . . .
163(7) . . .
137(6) . . .
142(6) . . .
156(7) . . .
158(7) . . .
150(6) . . .
166(7) . . .
162(7) . . .
150(7) . . .
164(7) . . .
139(6) . . .
159(7) . . .
144(7) . . .
155(7) . . .
156(6) . . .
172(7) . . .
167(7) . . .
156(7) . . .
144(7) . . .
160(7) . . .
165(7) . . .
158(7) . . .
157(7) . . .
166(7) . . .
180(7) . . .
172(7) . . .
172(7) . . .
160(7) . . .
160(7) . . .
157(6) . . .
155(7) . . .
167(7) . . .
150(7) . . .
168(7) . . .
164(7) . . .
158(7) . . .
164(7) . . .
165(7) . . .
154(7) . . .
160(7) . . .
174(7) . . .
183(7) . . .
150(7) . . .
171(7) . . .
160(7) . . .
151(6) . . .
163(7) . . .
177(7) . . .
153(7) . . .
155(6) . . .
173(7) . . .
155(7) . . .
164(7) . . .
173(7) . . .
159(7) . . .
153(6) . . .
155(7) . . .
148(7) . . .
171(7) . . .
158(6) . . .
164(7) . . .
167(7) . . .
169(7) . . .
167(7) . . .
175(7) . . .
161(7) . . .
161(7) . . .
172(7) . . .
179(7) . . .
161(7) . . .
162(7) . . .
167(7) . . .
158(7) . . .
169(7) . . .
165(7) . . .
175(7) . . .
155(7) . . .
156(7) . . .
164(7) . . .
155(6) . . .
171(7) . . .
169(7) . . .
150(7) . . .
180(7) . . .
159(7) . . .
179(7) . . .
150(7) . . .
177(7) . . .
170(7) . . .
170(7) . . .
166(7) . . .
157(7) . . .
155(7) . . .
180(7) . . .
158(7) . . .
144(7) . . .
162(7) . . .
158(7) . . .
163(7) . . .
149(7) . . .
168(7) . . .
154(7) . . .
161(7) . . .
149(6) . . .
167(7) . . .
170(7) . . .
161(7) . . .
171(7) . . .
185(7) . . .
163(7) . . .
180(7) . . .
167(7) . . .
145(6) . . .
161(7) . . .
176(7) . . .
161(7) . . .
170(7) . . .
168(7) . . .
151(6) . . .
157(7) . . .
147(7) . . .
150(7) . . .
154(6) . . .
166(7) . . .
175(7) . . .
145(6) . . .
157(7) . . .
152(6) . . .
154(7) . . .
162(7) . . .
150(7) . . .
160(7) . . .
141(6) . . .
168(7) . . .
161(7) . . .
154(7) . . .
151(7) . . .
150(6) . . .
161(7) . . .
163(7) . . .
152(7) . . .
154(7) . . .
151(6) . . .
166(7) . . .
167(7) . . .
158(7) . . .
150(7) . . .
165(7) . . .
155(7) . . .
150(7) . . .
157(7) . . .
161(7) . . .
156(7) . . .
155(7) . . .
170(7) . . .
150(7) . . .
148(6) . . .
157(6) . . .
152(7) . . .
166(7) . . .
150(7) . . .
163(7) . . .
158(7) . . .
155(7) . . .
155(7) . . .
169(7) . . .
171(7) . . .
147(6) . . .
159(7) . . .
142(7) . . .
146(6) . . .
148(6) . . .
156(6) . . .
178(7) . . .
147(7) . . .
165(7) . . .
154(7) . . .
168(7) . . .
151(7) . . .
153(7) . . .
176(7) . . .
182(7) . . .
161(7) . . .
159(7) . . .
155(7) . . .
155(7) . . .
166(7) . . .
174(7) . . .
169(7) . . .
167(7) . . .
174(7) . . .
153(6) . . .
150(6) . . .
154(7) . . .
165(7) . . .
165(7) . . .
166(7) . . .
149(7) . . .
155(7) . . .
171(7) . . .
157(7) . . .
151(6) . . .
143(6) . . .
148(7) . . .
159(7) . . .
158(7) . . .
163(7) . . .
147(6) . . .
148(7) . . .
140(6) . . .
162(7) . . .
169(7) . . .
151(6) . . .
166(7) . . .
166(7) . . .
159(7) . . .
169(7) . . .
164(7) . . .
160(7) . . .
159(7) . . .
167(7) . . .
164(7) . . .
130(6) . . .
154(7) . . .
161(7) . . .
159(7) . . .
137(6) . . .
150(7) . . .
173(7) . . .
155(7) . . .
164(7) . . .
159(7) . . .
146(6) . . .
137(6) . . .
148(7) . . .
166(7) . . .
149(6) . . .
154(7) . . .
168(7) . . .
169(7) . . .
159(7) . . .
160(7) . . .
161(7) . . .
160(7) . . .
161(7) . . .
163(7) . . .
136(6) . . .
141(6) . . .
160(7) . . .
166(7) . . .
157(7) . . .
154(7) . . .
157(7) . . .
152(7) . . .
157(7) . . .
150(6) . . .
153(7) . . .
151(7) . . .
152(7) . . .
157(7) . . .
169(7) . . .
136(6) . . .
149(7) . . .
159(7) . . .
138(6) . . .
156(6) . . .
152(7) . . .
143(7) . . .
167(7) . . .
170(7) . . .
150(6) . . .
153(7) . . .
164(7) . . .
156(7) . . .
159(7) . . .
151(6) . . .
154(7) . . .
157(7) . . .
148(6) . . .
145(6) . . .
153(6) . . .
151(7) . . .
152(7) . . .
153(6) . . .
156(7) . . .
163(7) . . .
155(7) . . .
159(7) . . .
149(6) . . .
159(7) . . .
171(7) . . .
171(7) . . .
181(7) . . .
159(7) . . .
172(7) . . .
162(7) . . .
172(7) . . .
141(6) . . .
154(6) . . .
159(7) . . .
135(6) . . .
159(7) . . .
179(7) . . .
162(7) . . .
161(7) . . .
164(7) . . .
161(7) . . .
172(7) . . .
163(7) . . .
166(7) . . .
144(6) . . .
152(7) . . .
153(7) . . .
178(7) . . .
158(7) . . .
163(7) . . .
161(7) . . .
150(7) . . .
149(6) . . .
148(6) . . .
145(6) . . .
163(7) . . .
152(7) . . .
157(6) . . .
166(7) . . .
173(7) . . .
155(7) . . .
152(7) . . .
159(6) . . .
175(7) . . .
151(6) . . .
155(7) . . .
153(7) . . .
131(6) . . .
151(7) . . .
172(7) . . .
146(7) . . .
163(7) . . .
186(7) . . .
147(6) . . .
157(7) . . .
164(7) . . .
155(7) . . .
175(7) . . .
154(7) . . .
142(6) . . .
136(6) . . .
148(7) . . .
159(7) . . .
139(6) . . .
147(7) . . .
170(7) . . .
166(7) . . .
180(7) . . .
148(7) . . .
146(6) . . .
160(7) . . .
159(7) . . .
141(6) . . .
134(6) . . .
148(7) . . .
166(7) . . .
131(6) . . .
146(6) . . .
145(6) . . .
146(7) . . .
145(6) . . .
143(6) . . .
135(6) . . .
145(7) . . .
147(7) . . .
162(7) . . .
163(7) . . .
166(7) . . .
154(7) . . .
147(7) . . .
160(7) . . .
142(6) . . .
156(6) . . .
151(7) . . .
140(6) . . .
141(6) . . .
160(7) . . .
164(7) . . .
143(6) . . .
142(7) . . .
141(6) . . .
159(7) . . .
145(6) . . .
137(6) . . .
149(6) . . .
166(7) . . .
157(7) . . .
162(7) . . .
168(7) . . .
153(7) . . .
160(7) . . .
160(7) . . .
163(7) . . .
155(7) . . .
171(7) . . .
149(6) . . .
163(7) . . .
143(7) . . .
163(7) . . .
150(7) . . .
140(6) . . .
165(7) . . .
164(7) . . .
175(7) . . .
157(7) . . .
141(6) . . .
154(6) . . .
138(6) . . .
151(7) . . .
146(7) . . .
154(6) . . .
169(7) . . .
174(7) . . .
149(7) . . .
157(7) . . .
167(7) . . .
170(7) . . .
155(7) . . .
160(7) . . .
156(7) . . .
143(6) . . .
156(6) . . .
157(7) . . .
157(7) . . .
153(7) . . .
148(6) . . .
152(6) . . .
162(7) . . .
151(7) . . .
143(7) . . .
155(6) . . .
162(7) . . .
161(7) . . .
142(6) . . .
152(6) . . .
167(7) . . .
142(6) . . .
153(6) . . .
147(6) . . .
151(6) . . .
153(6) . . .
151(7) . . .
153(7) . . .
163(7) . . .
161(7) . . .
168(7) . . .
152(7) . . .
140(6) . . .
162(7) . . .
165(7) . . .
161(7) . . .
146(6) . . .
144(7) . . .
131(6) . . .
164(7) . . .
164(7) . . .
172(7) . . .
161(7) . . .
148(6) . . .
148(6) . . .
144(6) . . .
171(7) . . .
149(7) . . .
139(7) . . .
151(6) . . .
159(7) . . .
164(7) . . .
161(7) . . .
165(7) . . .
157(6) . . .
134(6) . . .
147(6) . . .
156(7) . . .
157(7) . . .
162(7) . . .
153(6) . . .
156(7) . . .
158(7) . . .
152(7) . . .
154(6) . . .
159(7) . . .
151(6) . . .
158(7) . . .
164(7) . . .
155(6) . . .
156(7) . . .
162(7) . . .
157(7) . . .
145(6) . . .
153(6) . . .
150(7) . . .
140(6) . . .
155(7) . . .
142(6) . . .
136(6) . . .
160(7) . . .
158(7) . . .
177(7) . . .
165(7) . . .
159(7) . . .
135(6) . . .
148(7) . . .
152(7) . . .
155(6) . . .
163(7) . . .
150(6) . . .
151(7) . . .
168(7) . . .
143(6) . . .
160(7) . . .
146(6) . . .
140(6) . . .
150(7) . . .
137(6) . . .
148(6) . . .
147(6) . . .
137(6) . . .
147(7) . . .
146(6) . . .
157(6) . . .
162(7) . . .
168(7) . . .
160(7) . . .
155(7) . . .
151(6) . . .
164(7) . . .
156(7) . . .
159(7) . . .
147(6) . . .
154(6) . . .
163(7) . . .
162(7) . . .
158(7) . . .
149(6) . . .
159(7) . . .
151(7) . . .
155(7) . . .
137(6) . . .
149(6) . . .
152(7) . . .
148(7) . . .
152(7) . . .
151(7) . . .
149(6) . . .
148(7) . . .
142(7) . . .
155(7) . . .
148(6) . . .
137(6) . . .
152(7) . . .
133(6) . . .
154(7) . . .
155(6) . . .
137(6) . . .
136(6) . . .
151(7) . . .
155(7) . . .
165(7) . . .
132(6) . . .
154(7) . . .
160(7) . . .
151(7) . . .
132(6) . . .
145(6) . . .
142(6) . . .
148(7) . . .
144(6) . . .
149(6) . . .
158(7) . . .
137(6) . . .
146(7) . . .
149(6) . . .
124(6) . . .
136(6) . . .
142(7) . . .
159(7) . . .
159(7) . . .
150(6) . . .
162(7) . . .
163(7) . . .
146(7) . . .
157(7) . . .
153(6) . . .
152(6) . . .
151(7) . . .
160(7) . . .
152(7) . . .
146(6) . . .
128(6) . . .
153(7) . . .
144(6) . . .
149(6) . . .
130(6) . . .
151(7) . . .
157(7) . . .
148(7) . . .
129(6) . . .
147(6) . . .
160(7) . . .
156(7) . . .
173(7) . . .
158(7) . . .
161(7) . . .
152(7) . . .
158(7) . . .
156(7) . . .
148(6) . . .
156(7) . . .
148(6) . . .
149(7) . . .
153(7) . . .
141(6) . . .
152(6) . . .
158(7) . . .
136(6) . . .
153(7) . . .
130(6) . . .
146(6) . . .
160(7) . . .
163(7) . . .
138(6) . . .
147(6) . . .
153(6) . . .
149(6) . . .
163(7) . . .
142(7) . . .
148(6) . . .
172(7) . . .
146(6) . . .
150(7) . . .
146(7) . . .
138(6) . . .
142(6) . . .
159(7) . . .
148(7) . . .
146(7) . . .
149(6) . . .
146(6) . . .
151(7) . . .
153(7) . . .
151(7) . . .
157(6) . . .
150(7) . . .
131(6) . . .
149(7) . . .
142(6) . . .
136(6) . . .
152(7) . . .
152(7) . . .
155(7) . . .
125(6) . . .
166(7) . . .
165(7) . . .
167(7) . . .
167(7) . . .
165(7) . . .
163(7) . . .
168(7) . . .
165(7) . . .
178(7) . . .
163(7) . . .
149(6) . . .
167(7) . . .
153(7) . . .
160(7) . . .
154(6) . . .
183(7) . . .
177(7) . . .
180(7) . . .
187(7) . . .
160(7) . . .
165(7) . . .
135(6) . . .
153(7) . . .
154(7) . . .
160(7) . . .
138(6) . . .
135(6) . . .
173(7) . . .
170(7) . . .
161(7) . . .
160(7) . . .
160(7) . . .
151(6) . . .
165(7) . . .
151(6) . . .
164(7) . . .
166(7) . . .
159(7) . . .
141(6) . . .
166(7) . . .
179(7) . . .
169(7) . . .
178(7) . . .
156(7) . . .
165(7) . . .
149(6) . . .
157(7) . . .
146(7) . . .
163(7) . . .
161(7) . . .
174(7) . . .
145(7) . . .
161(7) . . .
143(6) . . .
168(7) . . .
161(7) . . .
162(7) . . .
159(7) . . .
146(6) . . .
158(7) . . .
159(7) . . .
147(7) . . .
162(7) . . .
147(6) . . .
177(7) . . .
167(7) . . .
154(7) . . .
158(7) . . .
152(6) . . .
180(7) . . .
149(6) . . .
149(7) . . .
155(7) . . .
136(6) . . .
148(6) . . .
156(7) . . .
162(7) . . .
149(6) . . .
162(7) . . .
149(6) . . .
148(7) . . .
143(7) . . .
142(7) . . .
148(6) . . .
158(7) . . .
170(7) . . .
175(7) . . .
133(6) . . .
164(7) . . .
153(7) . . .
164(7) . . .
154(7) . . .
147(6) . . .
141(6) . . .
148(6) . . .
137(6) . . .
149(7) . . .
162(7) . . .
157(7) . . .
145(6) . . .
150(7) . . .
152(7) . . .
143(6) . . .
143(6) . . .
159(7) . . .
150(7) . . .
141(6) . . .
135(6) . . .
130(6) . . .
147(7) . . .
144(7) . . .
152(7) . . .
159(7) . . .
149(6) . . .
152(7) . . .
141(7) . . .
142(6) . . .
158(7) . . .
156(7) . . .
160(7) . . .
160(7) . . .
147(7) . . .
148(6) . . .
155(7) . . .
149(6) . . .
150(7) . . .
132(6) . . .
137(6) . . .
141(6) . . .
146(6) . . .
165(7) . . .
158(7) . . .
143(6) . . .
161(7) . . .
150(6) . . .
166(7) . . .
156(7) . . .
159(7) . . .
146(6) . . .
150(7) . . .
142(6) . . .
140(6) . . .
135(6) . . .
151(7) . . .
171(7) . . .
158(7) . . .
172(7) . . .
168(7) . . .
168(7) . . .
166(7) . . .
146(6) . . .
149(6) . . .
146(6) . . .
143(6) . . .
141(7) . . .
170(7) . . .
155(7) . . .
170(7) . . .
152(7) . . .
164(7) . . .
152(7) . . .
147(6) . . .
148(6) . . .
158(7) . . .
148(7) . . .
147(7) . . .
162(7) . . .
158(7) . . .
156(7) . . .
157(7) . . .
143(7) . . .
150(6) . . .
153(6) . . .
163(7) . . .
158(7) . . .
151(7) . . .
152(6) . . .
145(6) . . .
142(6) . . .
159(7) . . .
152(7) . . .
138(6) . . .
155(6) . . .
151(7) . . .
161(7) . . .
167(7) . . .
152(6) . . .
161(7) . . .
146(7) . . .
135(6) . . .
152(6) . . .
157(7) . . .
149(7) . . .
159(7) . . .
157(7) . . .
142(6) . . .
142(6) . . .
162(7) . . .
155(7) . . .
168(7) . . .
149(6) . . .
154(6) . . .
134(6) . . .
138(6) . . .
141(6) . . .
148(6) . . .
133(6) . . .
143(6) . . .
140(6) . . .
161(7) . . .
162(7) . . .
135(6) . . .
153(7) . . .
144(7) . . .
146(6) . . .
147(6) . . .
160(7) . . .
138(6) . . .
149(7) . . .
151(7) . . .
161(7) . . .
159(7) . . .
137(6) . . .
137(6) . . .
158(7) . . .
159(7) . . .
150(6) . . .
146(6) . . .
146(7) . . .
158(7) . . .
161(7) . . .
143(6) . . .
136(6) . . .
142(7) . . .
145(7) . . .
144(6) . . .
148(6) . . .
170(7) . . .
157(7) . . .
171(7) . . .
160(7) . . .
143(6) . . .
153(7) . . .
146(7) . . .
151(6) . . .
158(7) . . .
168(7) . . .
145(6) . . .
130(6) . . .
157(7) . . .
150(6) . . .
138(6) . . .
156(7) . . .
154(7) . . .
154(7) . . .
143(6) . . .
135(6) . . .
142(7) . . .
145(6) . . .
158(7) . . .
147(6) . . .
143(7) . . .
135(6) . . .
139(6) . . .
146(6) . . .
145(6) . . .
146(6) . . .
145(7) . . .
148(6) . . .
142(6) . . .
155(7) . . .
143(6) . . .
145(7) . . .
147(6) . . .
151(6) . . .
130(6) . . .
154(7) . . .
151(7) . . .
142(6) . . .
141(6) . . .
151(7) . . .
144(6) . . .
145(6) . . .
144(6) . . .
153(6) . . .
155(7) . . .
145(6) . . .
143(6) . . .
167(7) . . .
161(7) . . .
161(7) . . .
151(7) . . .
146(6) . . .
145(6) . . .
149(6) . . .
129(6) . . .
133(6) . . .
136(6) . . .
130(6) . . .
144(6) . . .
150(7) . . .
146(7) . . .
122(6) . . .
148(6) . . .
146(6) . . .
139(6) . . .
146(7) . . .
137(6) . . .
148(6) . . .
153(6) . . .
144(7) . . .
156(7) . . .
137(6) . . .
145(6) . . .
160(7) . . .
142(7) . . .
144(7) . . .
144(6) . . .
148(6) . . .
145(6) . . .
133(6) . . .
135(6) . . .
149(7) . . .
149(6) . . .
141(6) . . .
142(6) . . .
134(6) . . .
139(6) . . .
148(6) . . .
135(6) . . .
136(6) . . .
151(7) . . .
139(6) . . .
152(6) . . .
149(6) . . .
138(6) . . .
129(6) . . .
148(7) . . .
138(6) . . .
139(6) . . .
139(6) . . .
144(6) . . .
146(6) . . .
155(6) . . .
150(7) . . .
160(7) . . .
153(7) . . .
164(7) . . .
135(6) . . .
139(7) . . .
150(7) . . .
150(7) . . .
148(6) . . .
137(6) . . .
152(7) . . .
146(7) . . .
169(7) . . .
153(6) . . .
151(6) . . .
134(6) . . .
134(6) . . .
158(7) . . .
123(6) . . .
131(6) . . .
143(6) . . .
159(7) . . .
133(6) . . .
135(6) . . .
137(6) . . .
134(6) . . .
142(7) . . .
130(6) . . .
154(6) . . .
144(6) . . .
152(7) . . .
142(6) . . .
133(6) . . .
147(6) . . .
144(6) . . .
139(6) . . .
150(7) . . .
141(6) . . .
156(7) . . .
145(6) . . .
146(6) . . .
139(6) . . .
149(6) . . .
147(6) . . .
140(6) . . .
132(6) . . .
157(7) . . .
160(7) . . .
140(6) . . .
124(6) . . .
142(6) . . .
135(6) . . .
128(6) . . .
149(6) . . .
131(6) . . .
139(6) . . .
139(6) . . .
143(6) . . .
151(6) . . .
141(7) . . .
136(7) . . .
153(7) . . .
136(6) . . .
128(6) . . .
131(6) . . .
154(7) . . .
128(6) . . .
127(6) . . .
139(6) . . .
151(7) . . .
137(7) . . .
130(6) . . .
148(6) . . .
147(6) . . .
143(7) . . .
142(6) . . .
149(7) . . .
162(7) . . .
133(6) . . .
142(7) . . .
135(6) . . .
158(7) . . .
151(6) . . .
161(7) . . .
133(6) . . .
146(7) . . .
145(6) . . .
160(7) . . .
138(6) . . .
142(6) . . .
129(6) . . .
139(7) . . .
124(6) . . .
131(6) . . .
143(7) . . .
136(6) . . .
126(6) . . .
137(6) . . .
140(6) . . .
135(6) . . .
138(6) . . .
122(6) . . .
127(6) . . .
137(6) . . .
117(6) . . .
133(6) . . .
152(7) . . .
138(6) . . .
135(7) . . .
120(6) . . .
133(6) . . .
134(6) . . .
157(6) . . .
150(7) . . .
139(6) . . .
136(6) . . .
125(6) . . .
144(6) . . .
137(6) . . .
148(7) . . .
141(6) . . .
147(6) . . .
144(6) . . .
151(7) . . .
147(7) . . .
144(6) . . .
133(6) . . .
143(6) . . .
158(7) . . .
144(7) . . .
132(6) . . .
152(6) . . .
153(7) . . .
145(6) . . .
142(7) . . .
137(6) . . .
140(6) . . .
131(6) . . .
132(6) . . .
133(6) . . .
143(6) . . .
146(6) . . .
144(6) . . .
158(7) . . .
134(6) . . .
127(6) . . .
147(6) . . .
144(6) . . .
124(6) . . .
144(6) . . .
154(7) . . .
130(6) . . .
134(6) . . .
149(7) . . .
147(7) . . .
139(6) . . .
144(6) . . .
136(6) . . .
132(6) . . .
142(6) . . .
135(6) . . .
122(6) . . .
126(6) . . .
123(6) . . .
144(6) . . .
155(6) . . .
156(7) . . .
147(6) . . .
152(7) . . .
150(7) . . .
134(6) . . .
156(6) . . .
154(7) . . .
137(6) . . .
154(7) . . .
154(7) . . .
137(6) . . .
129(6) . . .
139(7) . . .
141(6) . . .
147(6) . . .
151(7) . . .
140(6) . . .
150(7) . . .
167(7) . . .
142(6) . . .
139(6) . . .
144(7) . . .
143(7) . . .
144(6) . . .
151(6) . . .
137(6) . . .
141(6) . . .
153(7) . . .
138(6) . . .
141(6) . . .
138(6) . . .
165(7) . . .
154(7) . . .
140(6) . . .
132(6) . . .
142(6) . . .
148(7) . . .
155(7) . . .
133(6) . . .
142(6) . . .
149(7) . . .
145(7) . . .
134(6) . . .
130(6) . . .
144(6) . . .
151(7) . . .
141(7) . . .
140(6) . . .
128(6) . . .
130(6) . . .
151(7) . . .
142(7) . . .
146(7) . . .
139(6) . . .
145(6) . . .
138(6) . . .
144(7) . . .
153(7) . . .
140(6) . . .
144(6) . . .
137(6) . . .
125(6) . . .
140(6) . . .
141(6) . . .
143(6) . . .
140(6) . . .
146(7) . . .
131(6) . . .
144(6) . . .
138(6) . . .
145(6) . . .
133(6) . . .
135(6) . . .
154(6) . . .
145(6) . . .
151(7) . . .
118(6) . . .
134(6) . . .
130(6) . . .
142(6) . . .
146(6) . . .
149(6) . . .
158(7) . . .
134(6) . . .
146(6) . . .
152(7) . . .
144(7) . . .
138(6) . . .
140(6) . . .
153(7) . . .
148(7) . . .
133(6) . . .
138(6) . . .
131(6) . . .
151(7) . . .
126(6) . . .
145(7) . . .
128(6) . . .
150(6) . . .
147(6) . . .
141(7) . . .
126(6) . . .
154(6) . . .
153(6) . . .
131(6) . . .
135(6) . . .
164(7) . . .
141(6) . . .
154(6) . . .
148(6) . . .
131(6) . . .
142(6) . . .
152(6) . . .
134(6) . . .
154(7) . . .
125(6) . . .
126(6) . . .
150(6) . . .
140(6) . . .
140(6) . . .
135(6) . . .
130(6) . . .
129(6) . . .
127(6) . . .
139(6) . . .
142(6) . . .
154(7) . . .
132(6) . . .
137(6) . . .
141(6) . . .
129(6) . . .
140(6) . . .
137(6) . . .
143(6) . . .
149(7) . . .
135(6) . . .
138(6) . . .
144(6) . . .
151(7) . . .
145(6) . . .
129(6) . . .
148(6) . . .
146(6) . . .
118(6) . . .
138(7) . . .
120(6) . . .
137(6) . . .
141(6) . . .
145(7) . . .
143(7) . . .
125(6) . . .
112(5) . . .
127(6) . . .
144(7) . . .
145(7) . . .
142(6) . . .
153(6) . . .
136(6) . . .
123(6) . . .
130(6) . . .
141(6) . . .
123(6) . . .
136(6) . . .
137(6) . . .
127(6) . . .
128(6) . . .
135(6) . . .
126(6) . . .
126(6) . . .
144(7) . . .
124(6) . . .
131(6) . . .
134(6) . . .
146(6) . . .
137(6) . . .
129(6) . . .
137(6) . . .
123(6) . . .
139(6) . . .
139(6) . . .
131(6) . . .
138(6) . . .
131(6) . . .
121(6) . . .
137(6) . . .
132(6) . . .
125(6) . . .
143(6) . . .
132(6) . . .
143(6) . . .
151(6) . . .
133(6) . . .
128(6) . . .
154(7) . . .
134(6) . . .
137(6) . . .
142(6) . . .
122(6) . . .
136(6) . . .
132(6) . . .
138(6) . . .
144(6) . . .
129(6) . . .
135(7) . . .
137(6) . . .
161(7) . . .
150(6) . . .
120(6) . . .
117(6) . . .
126(6) . . .
129(6) . . .
133(6) . . .
136(6) . . .
129(6) . . .
120(6) . . .
140(6) . . .
118(6) . . .
123(6) . . .
129(6) . . .
124(6) . . .
145(6) . . .
114(6) . . .
121(6) . . .
144(7) . . .
127(6) . . .
135(6) . . .
121(6) . . .
135(6) . . .
139(6) . . .
160(7) . . .
149(6) . . .
158(7) . . .
157(7) . . .
137(6) . . .
129(6) . . .
126(6) . . .
145(6) . . .
161(7) . . .
141(6) . . .
138(6) . . .
146(6) . . .
141(6) . . .
126(6) . . .
141(6) . . .
138(6) . . .
145(6) . . .
141(6) . . .
134(6) . . .
137(7) . . .
137(6) . . .
139(6) . . .
146(6) . . .
145(7) . . .
140(6) . . .
134(6) . . .
148(6) . . .
132(6) . . .
125(6) . . .
147(7) . . .
141(6) . . .
118(6) . . .
134(6) . . .
128(6) . . .
130(6) . . .
134(6) . . .
144(6) . . .
151(7) . . .
123(6) . . .
133(6) . . .
154(6) . . .
126(6) . . .
139(7) . . .
135(7) . . .
143(6) . . .
141(6) . . .
128(6) . . .
129(6) . . .
130(6) . . .
136(6) . . .
144(6) . . .
156(7) . . .
138(6) . . .
126(6) . . .
147(7) . . .
148(6) . . .
131(6) . . .
124(6) . . .
135(6) . . .
132(6) . . .
138(6) . . .
145(6) . . .
132(6) . . .
137(6) . . .
125(6) . . .
116(6) . . .
126(6) . . .
128(6) . . .
133(6) . . .
125(6) . . .
129(6) . . .
124(6) . . .
132(6) . . .
134(6) . . .
148(6) . . .
150(6) . . .
138(6) . . .
139(7) . . .
133(6) . . .
150(6) . . .
136(6) . . .
135(6) . . .
124(6) . . .
131(6) . . .
137(6) . . .
138(6) . . .
146(6) . . .
139(6) . . .
125(6) . . .
130(6) . . .
134(6) . . .
141(6) . . .
145(7) . . .
127(6) . . .
139(6) . . .
133(6) . . .
132(6) . . .
136(6) . . .
124(6) . . .
147(6) . . .
131(6) . . .
126(6) . . .
132(6) . . .
144(6) . . .
138(6) . . .
149(7) . . .
135(6) . . .
144(7) . . .
121(6) . . .
146(6) . . .
138(6) . . .
143(6) . . .
134(6) . . .
143(6) . . .
148(6) . . .
121(6) . . .
132(6) . . .
139(6) . . .
144(6) . . .
145(6) . . .
135(6) . . .
133(7) . . .
139(6) . . .
142(6) . . .
135(6) . . .
142(6) . . .
141(6) . . .
149(7) . . .
151(6) . . .
150(7) . . .
131(6) . . .
145(7) . . .
133(6) . . .
123(6) . . .
142(6) . . .
133(6) . . .
131(6) . . .
127(6) . . .
134(6) . . .
124(6) . . .
132(6) . . .
109(6) . . .
137(6) . . .
127(6) . . .
128(6) . . .
143(6) . . .
137(6) . . .
101(5) . . .
134(6) . . .
144(6) . . .
134(6) . . .
129(6) . . .
118(6) . . .
138(6) . . .
127(6) . . .
142(6) . . .
139(6) . . .
135(6) . . .
138(6) . . .
129(6) . . .
136(6) . . .
131(6) . . .
153(7) . . .
139(6) . . .
124(6) . . .
134(6) . . .
146(7) . . .
116(6) . . .
122(6) . . .
130(6) . . .
117(6) . . .
130(6) . . .
132(6) . . .
137(6) . . .
140(6) . . .
152(7) . . .
142(6) . . .
120(6) . . .
131(6) . . .
141(6) . . .
141(7) . . .
150(7) . . .
138(6) . . .
121(6) . . .
146(6) . . .
142(6) . . .
137(6) . . .
127(6) . . .
136(6) . . .
152(7) . . .
138(6) . . .
123(6) . . .
137(6) . . .
126(6) . . .
150(7) . . .
125(6) . . .
120(6) . . .
129(6) . . .
137(6) . . .
122(6) . . .
142(7) . . .
134(6) . . .
147(6) . . .
142(6) . . .
136(6) . . .
141(6) . . .
136(6) . . .
129(6) . . .
140(6) . . .
132(6) . . .
155(7) . . .
162(7) . . .
124(6) . . .
121(6) . . .
144(6) . . .
144(7) . . .
126(6) . . .
141(6) . . .
138(6) . . .
141(7) . . .
141(6) . . .
135(6) . . .
110(5) . . .
128(6) . . .
130(6) . . .
150(7) . . .
133(6) . . .
135(6) . . .
130(6) . . .
133(6) . . .
136(6) . . .
141(6) . . .
146(6) . . .
147(6) . . .
145(7) . . .
168(7) . . .
125(6) . . .
128(6) . . .
117(6) . . .
133(7) . . .
149(7) . . .
128(6) . . .
141(6) . . .
136(6) . . .
146(7) . . .
137(6) . . .
131(6) . . .
141(6) . . .
130(6) . . .
127(6) . . .
133(6) . . .
132(6) . . .
116(6) . . .
133(6) . . .
148(7) . . .
136(6) . . .
142(6) . . .
127(6) . . .
133(6) . . .
121(6) . . .
133(6) . . .
149(6) . . .
158(7) . . .
138(6) . . .
125(6) . . .
129(6) . . .
123(6) . . .
131(6) . . .
140(6) . . .
143(7) . . .
141(6) . . .
117(6) . . .
145(7) . . .
141(7) . . .
126(6) . . .
128(6) . . .
131(6) . . .
134(6) . . .
140(7) . . .
137(6) . . .
136(6) . . .
138(6) . . .
132(6) . . .
143(7) . . .
131(6) . . .
146(6) . . .
132(6) . . .
140(6) . . .
131(6) . . .
127(6) . . .
143(6) . . .
132(6) . . .
123(6) . . .
118(6) . . .
119(6) . . .
124(6) . . .
129(6) . . .
134(6) . . .
123(6) . . .
135(7) . . .
146(6) . . .
149(6) . . .
141(6) . . .
147(7) . . .
136(6) . . .
136(6) . . .
123(6) . . .
142(6) . . .
129(6) . . .
120(6) . . .
133(6) . . .
139(6) . . .
136(6) . . .
124(6) . . .
138(6) . . .
127(6) . . .
134(6) . . .
116(6) . . .
148(7) . . .
143(6) . . .
138(6) . . .
136(6) . . .
146(7) . . .
126(6) . . .
122(6) . . .
106(5) . . .
135(6) . . .
153(7) . . .
139(6) . . .
140(6) . . .
128(6) . . .
145(6) . . .
143(7) . . .
153(7) . . .
144(6) . . .
136(6) . . .
137(6) . . .
139(7) . . .
129(6) . . .
149(6) . . .
131(6) . . .
128(6) . . .
135(6) . . .
140(6) . . .
144(6) . . .
132(6) . . .
122(6) . . .
130(6) . . .
142(6) . . .
132(6) . . .
134(6) . . .
147(7) . . .
118(6) . . .
131(6) . . .
135(6) . . .
132(6) . . .
138(6) . . .
107(6) . . .
140(6) . . .
131(6) . . .
135(6) . . .
134(6) . . .
149(7) . . .
135(6) . . .
129(6) . . .
120(6) . . .
135(6) . . .
137(6) . . .
145(6) . . .
128(6) . . .
136(6) . . .
159(7) . . .
127(6) . . .
125(6) . . .
138(6) . . .
141(6) . . .
141(7) . . .
138(6) . . .
149(6) . . .
127(6) . . .
126(6) . . .
131(7) . . .
146(7) . . .
132(6) . . .
148(6) . . .
153(7) . . .
127(6) . . .
145(7) . . .
141(6) . . .
132(6) . . .
127(6) . . .
127(6) . . .
139(6) . . .
142(6) . . .
141(6) . . .
125(6) . . .
157(7) . . .
123(6) . . .
118(6) . . .
135(6) . . .
128(6) . . .
136(6) . . .
135(6) . . .
135(6) . . .
142(6) . . .
125(6) . . .
135(6) . . .
148(7) . . .
136(6) . . .
132(6) . . .
126(6) . . .
128(6) . . .
142(6) . . .
130(6) . . .
146(6) . . .
135(6) . . .
135(6) . . .
143(6) . . .
130(6) . . .
135(6) . . .
118(6) . . .
124(6) . . .
146(6) . . .
130(6) . . .
151(7) . . .
137(6) . . .
150(7) . . .
145(6) . . .
138(6) . . .
156(7) . . .
132(6) . . .
142(6) . . .
127(6) . . .
109(5) . . .
129(6) . . .
133(6) . . .
138(7) . . .
132(6) . . .
138(6) . . .
138(6) . . .
129(6) . . .
149(7) . . .
121(6) . . .
162(7) . . .
128(6) . . .
136(6) . . .
149(7) . . .
121(6) . . .
140(6) . . .
140(6) . . .
140(6) . . .
138(6) . . .
144(6) . . .
155(7) . . .
146(7) . . .
130(6) . . .
142(6) . . .
132(6) . . .
122(6) . . .
134(6) . . .
150(7) . . .
134(6) . . .
157(6) . . .
139(6) . . .
120(6) . . .
139(6) . . .
147(6) . . .
143(6) . . .
130(6) . . .
131(6) . . .
128(6) . . .
137(6) . . .
129(6) . . .
137(6) . . .
128(6) . . .
98(5) . . .
118(6) . . .
132(6) . . .
128(6) . . .
122(6) . . .
127(6) . . .
133(6) . . .
137(6) . . .
133(6) . . .
136(6) . . .
124(6) . . .
133(6) . . .
136(6) . . .
123(6) . . .
122(6) . . .
126(6) . . .
136(6) . . .
138(6) . . .
131(6) . . .
124(6) . . .
127(6) . . .
123(6) . . .
125(6) . . .
114(6) . . .
140(6) . . .
131(6) . . .
139(6) . . .
142(6) . . .
127(6) . . .
128(6) . . .
140(6) . . .
141(6) . . .
131(6) . . .
131(6) . . .
146(7) . . .
137(6) . . .
123(6) . . .
110(6) . . .
129(6) . . .
130(6) . . .
119(6) . . .
135(6) . . .
141(7) . . .
130(6) . . .
138(6) . . .
129(6) . . .
134(6) . . .
141(7) . . .
119(6) . . .
122(6) . . .
132(6) . . .
132(6) . . .
131(6) . . .
133(6) . . .
119(6) . . .
130(6) . . .
140(6) . . .
128(6) . . .
129(6) . . .
121(6) . . .
125(6) . . .
123(6) . . .
140(6) . . .
129(6) . . .
120(6) . . .
144(6) . . .
131(6) . . .
136(6) . . .
144(7) . . .
137(6) . . .
137(6) . . .
139(6) . . .
150(7) . . .
141(7) . . .
131(6) . . .
143(6) . . .
108(5) . . .
121(6) . . .
128(6) . . .
126(6) . . .
142(6) . . .
129(6) . . .
138(6) . . .
125(6) . . .
125(6) . . .
135(6) . . .
129(6) . . .
129(6) . . .
135(6) . . .
131(6) . . .
132(6) . . .
118(6) . . .
123(6) . . .
141(6) . . .
144(6) . . .
129(6) . . .
116(6) . . .
127(6) . . .
126(6) . . .
124(6) . . .
148(6) . . .
137(6) . . .
136(6) . . .
110(5) . . .
120(6) . . .
125(6) . . .
145(6) . . .
126(6) . . .
126(6) . . .
115(6) . . .
131(6) . . .
151(7) . . .
123(6) . . .
130(6) . . .
128(6) . . .
121(6) . . .
123(6) . . .
126(6) . . .
136(6) . . .
138(6) . . .
125(6) . . .
124(6) . . .
133(6) . . .
117(6) . . .
114(6) . . .
136(6) . . .
122(6) . . .
133(6) . . .
118(6) . . .
135(6) . . .
122(6) . . .
119(6) . . .
124(6) . . .
134(6) . . .
123(6) . . .
126(6) . . .
130(6) . . .
123(6) . . .
107(5) . . .
131(6) . . .
149(6) . . .
151(7) . . .
136(6) . . .
116(6) . . .
136(6) . . .
138(6) . . .
134(6) . . .
127(6) . . .
146(6) . . .
122(6) . . .
127(6) . . .
117(6) . . .
122(6) . . .
130(6) . . .
138(6) . . .
128(6) . . .
141(7) . . .
135(6) . . .
127(6) . . .
132(6) . . .
120(6) . . .
125(6) . . .
141(6) . . .
149(6) . . .
132(6) . . .
136(6) . . .
143(7) . . .
153(7) . . .
137(6) . . .
130(6) . . .
124(6) . . .
130(6) . . .
115(6) . . .
133(6) . . .
119(6) . . .
128(6) . . .
146(7) . . .
125(6) . . .
141(6) . . .
130(6) . . .
120(6) . . .
139(6) . . .
142(6) . . .
131(6) . . .
125(6) . . .
133(6) . . .
127(6) . . .
132(6) . . .
138(6) . . .
124(6) . . .
102(5) . . .
119(6) . . .
120(6) . . .
126(6) . . .
126(6) . . .
123(6) . . .
139(6) . . .
136(6) . . .
134(6) . . .
138(6) . . .
142(7) . . .
130(6) . . .
122(6) . . .
128(6) . . .
127(6) . . .
137(6) . . .
141(6) . . .
136(6) . . .
135(6) . . .
129(6) . . .
124(6) . . .
134(6) . . .
126(6) . . .
121(6) . . .
115(6) . . .
115(6) . . .
131(6) . . .
144(6) . . .
136(6) . . .
122(6) . . .
141(7) . . .
138(6) . . .
131(6) . . .
130(6) . . .
118(6) . . .
140(6) . . .
134(6) . . .
131(6) . . .
130(6) . . .
129(6) . . .
121(6) . . .
118(6) . . .
129(6) . . .
141(6) . . .
129(6) . . .
133(6) . . .
109(6) . . .
131(6) . . .
116(6) . . .
110(5) . . .
131(6) . . .
129(6) . . .
135(6) . . .
126(6) . . .
136(6) . . .
136(6) . . .
132(6) . . .
120(6) . . .
139(6) . . .
135(7) . . .
128(6) . . .
133(6) . . .
140(6) . . .
109(5) . . .
127(6) . . .
133(6) . . .
133(6) . . .
132(6) . . .
120(6) . . .
131(7) . . .
131(6) . . .
133(6) . . .
140(6) . . .
129(6) . . .
120(6) . . .
126(6) . . .
130(6) . . .
136(6) . . .
129(6) . . .
117(6) . . .
127(6) . . .
149(6) . . .
136(6) . . .
113(6) . . .
124(6) . . .
120(6) . . .
142(6) . . .
129(6) . . .
120(6) . . .
136(6) . . .
130(6) . . .
148(6) . . .
134(6) . . .
136(6) . . .
132(6) . . .
127(6) . . .
123(6) . . .
113(6) . . .
123(6) . . .
125(6) . . .
133(6) . . .
132(6) . . .
128(6) . . .
124(6) . . .
130(6) . . .
142(6) . . .
146(6) . . .
123(6) . . .
134(6) . . .
127(6) . . .
112(6) . . .
138(6) . . .
130(6) . . .
141(7) . . .
123(6) . . .
130(6) . . .
111(5) . . .
121(6) . . .
126(6) . . .
131(6) . . .
120(6) . . .
123(6) . . .
126(6) . . .
123(6) . . .
138(6) . . .
119(6) . . .
136(6) . . .
141(6) . . .
135(7) . . .
126(6) . . .
137(6) . . .
146(6) . . .
130(6) . . .
122(6) . . .
119(6) . . .
122(6) . . .
130(6) . . .
125(6) . . .
116(6) . . .
110(6) . . .
134(6) . . .
128(6) . . .
129(6) . . .
121(6) . . .
125(6) . . .
132(6) . . .
127(6) . . .
120(6) . . .
115(6) . . .
116(6) . . .
119(6) . . .
139(6) . . .
141(7) . . .
120(6) . . .
119(6) . . .
120(6) . . .
144(7) . . .
130(6) . . .
123(6) . . .
122(6) . . .
125(6) . . .
118(6) . . .
135(6) . . .
126(6) . . .
134(6) . . .
131(6) . . .
136(6) . . .
132(6) . . .
124(6) . . .
118(6) . . .
128(6) . . .
139(6) . . .
129(6) . . .
118(6) . . .
118(6) . . .
146(6) . . .
136(6) . . .
139(7) . . .
126(6) . . .
120(6) . . .
125(6) . . .
120(6) . . .
136(7) . . .
126(6) . . .
130(6) . . .
121(6) . . .
136(6) . . .
124(6) . . .
119(6) . . .
141(6) . . .
127(6) . . .
134(6) . . .
134(6) . . .
132(6) . . .
134(6) . . .
130(6) . . .
141(7) . . .
126(6) . . .
115(6) . . .
122(6) . . .
125(6) . . .
132(6) . . .
127(6) . . .
133(6) . . .
131(6) . . .
140(6) . . .
127(6) . . .
106(5) . . .
108(5) . . .
136(6) . . .
127(6) . . .
123(6) . . .
116(6) . . .
136(6) . . .
124(6) . . .
134(6) . . .
119(6) . . .
120(6) . . .
130(6) . . .
133(6) . . .
134(6) . . .
127(6) . . .
130(6) . . .
123(6) . . .
134(6) . . .
135(6) . . .
135(6) . . .
133(6) . . .
151(6) . . .
142(6) . . .
134(6) . . .
130(6) . . .
144(7) . . .
129(6) . . .
126(6) . . .
139(6) . . .
149(7) . . .
134(6) . . .
128(6) . . .
139(6) . . .
144(6) . . .
141(6) . . .
156(7) . . .
145(6) . . .
140(6) . . .
143(6) . . .
138(6) . . .
153(7) . . .
143(6) . . .
143(6) . . .
136(6) . . .
142(7) . . .
137(6) . . .
143(6) . . .
136(6) . . .
151(7) . . .
151(7) . . .
142(6) . . .
141(6) . . .
135(6) . . .
143(7) . . .
140(6) . . .
126(6) . . .
123(6) . . .
145(7) . . .
126(6) . . .
124(6) . . .
152(6) . . .
137(6) . . .
122(6) . . .
144(7) . . .
139(6) . . .
129(6) . . .
146(6) . . .
130(6) . . .
132(6) . . .
115(6) . . .
136(6) . . .
134(6) . . .
133(6) . . .
133(6) . . .
128(6) . . .
135(6) . . .
131(6) . . .
126(6) . . .
123(6) . . .
139(6) . . .
133(6) . . .
152(7) . . .
134(6) . . .
132(6) . . .
130(6) . . .
123(6) . . .
132(6) . . .
127(6) . . .
148(7) . . .
110(6) . . .
130(6) . . .
128(6) . . .
122(6) . . .
126(6) . . .
125(6) . . .
121(6) . . .
129(6) . . .
144(7) . . .
132(6) . . .
135(6) . . .
130(6) . . .
128(6) . . .
128(6) . . .
139(6) . . .
116(6) . . .
146(6) . . .
138(6) . . .
127(6) . . .
115(6) . . .
132(6) . . .
128(6) . . .
130(6) . . .
118(6) . . .
122(6) . . .
127(6) . . .
127(6) . . .
117(6) . . .
110(6) . . .
138(6) . . .
137(6) . . .
135(6) . . .
141(6) . . .
132(6) . . .
124(6) . . .
124(6) . . .
115(6) . . .
130(6) . . .
121(6) . . .
116(6) . . .
131(6) . . .
127(6) . . .
134(6) . . .
143(6) . . .
133(6) . . .
110(5) . . .
138(6) . . .
142(7) . . .
142(7) . . .
139(6) . . .
122(6) . . .
135(6) . . .
139(6) . . .
122(6) . . .
146(6) . . .
124(6) . . .
122(6) . . .
129(6) . . .
134(6) . . .
130(6) . . .
141(6) . . .
123(6) . . .
119(6) . . .
124(6) . . .
133(6) . . .
133(6) . . .
140(6) . . .
126(6) . . .
140(6) . . .
141(6) . . .
144(6) . . .
139(6) . . .
137(7) . . .
134(6) . . .
142(6) . . .
140(6) . . .
142(6) . . .
127(6) . . .
131(6) . . .
140(6) . . .
123(6) . . .
138(6) . . .
133(7) . . .
126(6) . . .
133(6) . . .
148(6) . . .
137(6) . . .
140(6) . . .
139(6) . . .
137(6) . . .
162(7) . . .
153(7) . . .
138(6) . . .
138(6) . . .
147(6) . . .
129(6) . . .
130(6) . . .
145(7) . . .
122(6) . . .
131(6) . . .
134(6) . . .
133(6) . . .
123(6) . . .
140(6) . . .
130(6) . . .
132(6) . . .
118(6) . . .
123(6) . . .
129(6) . . .
141(6) . . .
138(6) . . .
140(7) . . .
146(7) . . .
143(6) . . .
135(6) . . .
134(6) . . .
139(7) . . .
141(6) . . .
146(6) . . .
139(6) . . .
132(6) . . .
127(6) . . .
139(6) . . .
142(6) . . .
139(6) . . .
130(6) . . .
132(6) . . .
139(6) . . .
141(6) . . .
118(6) . . .
139(6) . . .
147(7) . . .
142(7) . . .
123(6) . . .
142(6) . . .
141(6) . . .
124(6) . . .
135(6) . . .
134(6) . . .
127(6) . . .
128(6) . . .
132(6) . . .
125(6) . . .
120(6) . . .
129(6) . . .
137(6) . . .
134(6) . . .
126(6) . . .
133(6) . . .
123(6) . . .
143(7) . . .
139(7) . . .
119(6) . . .
131(6) . . .
137(6) . . .
111(6) . . .
128(6) . . .
131(6) . . .
132(6) . . .
132(6) . . .
135(6) . . .
134(6) . . .
127(6) . . .
131(6) . . .
136(6) . . .
136(6) . . .
136(6) . . .
126(6) . . .
123(6) . . .
123(6) . . .
122(6) . . .
128(6) . . .
150(6) . . .
132(6) . . .
126(6) . . .
110(6) . . .
139(6) . . .
135(6) . . .
133(6) . . .
114(6) . . .
124(6) . . .
116(6) . . .
139(6) . . .
134(6) . . .
120(6) . . .
126(6) . . .
142(7) . . .
132(6) . . .
130(6) . . .
139(6) . . .
134(6) . . .
131(6) . . .
122(6) . . .
145(6) . . .
117(6) . . .
132(6) . . .
135(6) . . .
139(6) . . .
128(6) . . .
124(6) . . .
127(6) . . .
118(6) . . .
126(6) . . .
145(7) . . .
129(6) . . .
150(7) . . .
126(6) . . .
122(6) . . .
125(6) . . .
112(6) . . .
132(6) . . .
127(6) . . .
122(6) . . .
133(6) . . .
128(6) . . .
133(6) . . .
119(6) . . .
130(6) . . .
124(6) . . .
132(6) . . .
128(6) . . .
116(6) . . .
135(6) . . .
120(6) . . .
132(6) . . .
134(6) . . .
128(6) . . .
126(6) . . .
135(6) . . .
126(6) . . .
120(6) . . .
138(6) . . .
119(6) . . .
126(6) . . .
116(6) . . .
130(6) . . .
129(6) . . .
120(6) . . .
132(6) . . .
116(6) . . .
125(6) . . .
124(6) . . .
124(6) . . .
109(6) . . .
125(6) . . .
120(6) . . .
121(6) . . .
122(6) . . .
126(6) . . .
122(6) . . .
123(6) . . .
126(6) . . .
116(6) . . .
129(6) . . .
135(6) . . .
126(6) . . .
125(6) . . .
131(6) . . .
133(6) . . .
125(6) . . .
124(6) . . .
127(6) . . .
130(6) . . .
130(6) . . .
123(6) . . .
121(6) . . .
135(6) . . .
116(6) . . .
130(6) . . .
135(6) . . .
135(6) . . .
134(6) . . .
131(6) . . .
152(7) . . .
119(6) . . .
125(6) . . .
104(5) . . .
113(6) . . .
143(7) . . .
138(6) . . .
143(6) . . .
154(7) . . .
125(6) . . .
118(6) . . .
123(6) . . .
119(6) . . .
135(6) . . .
130(6) . . .
127(6) . . .
118(6) . . .
134(6) . . .
139(6) . . .
136(6) . . .
132(6) . . .
120(6) . . .
129(6) . . .
125(6) . . .
127(6) . . .
131(6) . . .
130(6) . . .
105(5) . . .
135(6) . . .
146(7) . . .
129(6) . . .
127(6) . . .
114(6) . . .
136(6) . . .
107(6) . . .
119(6) . . .
136(6) . . .
130(6) . . .
106(5) . . .
132(6) . . .
119(6) . . .
117(6) . . .
124(6) . . .
133(6) . . .
152(7) . . .
120(6) . . .
117(6) . . .
116(6) . . .
125(6) . . .
116(6) . . .
124(6) . . .
147(6) . . .
121(6) . . .
130(6) . . .
150(7) . . .
140(6) . . .
131(6) . . .
123(6) . . .
128(6) . . .
122(6) . . .
131(6) . . .
127(6) . . .
135(6) . . .
134(6) . . .
115(6) . . .
129(6) . . .
137(6) . . .
118(6) . . .
120(6) . . .
137(6) . . .
140(6) . . .
128(6) . . .
129(6) . . .
132(6) . . .
146(7) . . .
132(6) . . .
134(6) . . .
112(6) . . .
119(6) . . .
137(6) . . .
152(7) . . .
129(6) . . .
126(6) . . .
131(6) . . .
150(7) . . .
149(6) . . .
129(6) . . .
130(6) . . .
116(6) . . .
125(6) . . .
153(6) . . .
122(6) . . .
134(6) . . .
146(7) . . .
125(6) . . .
151(6) . . .
124(6) . . .
136(6) . . .
131(6) . . .
136(6) . . .
117(6) . . .
118(6) . . .
121(6) . . .
138(7) . . .
129(6) . . .
122(6) . . .
140(6) . . .
128(6) . . .
135(6) . . .
133(6) . . .
117(6) . . .
127(6) . . .
125(6) . . .
139(6) . . .
143(6) . . .
137(6) . . .
119(6) . . .
120(6) . . .
125(6) . . .
138(6) . . .
128(6) . . .
127(6) . . .
135(6) . . .
125(6) . . .
114(6) . . .
137(6) . . .
140(6) . . .
148(7) . . .
143(6) . . .
138(6) . . .
134(6) . . .
134(6) . . .
124(6) . . .
129(6) . . .
124(6) . . .
149(6) . . .
140(7) . . .
148(7) . . .
122(6) . . .
123(6) . . .
129(6) . . .
129(6) . . .
122(6) . . .
130(6) . . .
141(6) . . .
110(5) . . .
132(6) . . .
122(6) . . .
121(6) . . .
118(6) . . .
125(6) . . .
123(6) . . .
124(6) . . .
124(6) . . .
123(6) . . .
128(6) . . .
124(6) . . .
122(6) . . .
156(7) . . .
126(6) . . .
145(6) . . .
116(6) . . .
121(6) . . .
132(6) . . .
123(6) . . .
140(6) . . .
148(7) . . .
133(6) . . .
137(6) . . .
118(6) . . .
117(6) . . .
132(6) . . .
136(6) . . .
137(6) . . .
120(6) . . .
126(6) . . .
124(6) . . .
120(6) . . .
128(6) . . .
132(6) . . .
124(6) . . .
133(6) . . .
114(6) . . .
129(6) . . .
131(6) . . .
132(6) . . .
131(6) . . .
121(6) . . .
132(6) . . .
118(6) . . .
117(6) . . .
136(6) . . .
133(6) . . .
149(6) . . .
122(6) . . .
124(6) . . .
129(6) . . .
149(7) . . .
125(6) . . .
116(6) . . .
112(6) . . .
125(6) . . .
127(6) . . .
118(6) . . .
131(6) . . .
145(6) . . .
143(7) . . .
140(6) . . .
136(6) . . .
132(6) . . .
116(6) . . .
134(6) . . .
126(6) . . .
135(6) . . .
126(6) . . .
138(6) . . .
117(6) . . .
138(6) . . .
153(6) . . .
122(6) . . .
112(6) . . .
123(6) . . .
127(6) . . .
118(6) . . .
120(6) . . .
135(6) . . .
120(6) . . .
109(5) . . .
121(6) . . .
112(6) . . .
123(6) . . .
120(6) . . .
122(6) . . .
121(6) . . .
113(6) . . .
126(6) . . .
123(6) . . .
119(6) . . .
120(6) . . .
122(6) . . .
128(6) . . .
119(6) . . .
115(6) . . .
112(6) . . .
126(6) . . .
124(6) . . .
119(6) . . .
128(6) . . .
116(6) . . .
135(6) . . .
132(6) . . .
128(6) . . .
122(6) . . .
129(6) . . .
128(6) . . .
123(6) . . .
115(6) . . .
108(6) . . .
105(5) . . .
102(5) . . .
116(6) . . .
128(6) . . .
127(6) . . .
117(6) . . .
126(6) . . .
117(6) . . .
112(6) . . .
110(6) . . .
126(6) . . .
111(5) . . .
124(6) . . .
129(6) . . .
125(6) . . .
111(6) . . .
112(6) . . .
114(6) . . .
115(6) . . .
122(6) . . .
125(6) . . .
104(5) . . .
119(6) . . .
114(6) . . .
102(6) . . .
107(6) . . .
134(6) . . .
128(6) . . .
114(6) . . .
112(6) . . .
127(6) . . .
130(6) . . .
114(6) . . .
125(6) . . .
135(6) . . .
114(6) . . .
123(6) . . .
128(6) . . .
138(6) . . .
118(6) . . .
116(6) . . .
123(6) . . .
112(6) . . .
108(5) . . .
120(6) . . .
126(6) . . .
127(6) . . .
125(6) . . .
132(6) . . .
118(6) . . .
119(6) . . .
126(6) . . .
107(6) . . .
124(6) . . .
128(6) . . .
120(6) . . .
128(6) . . .
128(6) . . .
144(7) . . .
134(6) . . .
121(6) . . .
124(6) . . .
120(6) . . .
119(6) . . .
129(6) . . .
126(6) . . .
123(6) . . .
117(6) . . .
127(6) . . .
127(6) . . .
124(6) . . .
122(6) . . .
116(6) . . .
115(6) . . .
121(6) . . .
138(6) . . .
99(5) . . .
120(6) . . .
120(6) . . .
113(6) . . .
116(6) . . .
128(6) . . .
127(6) . . .
115(6) . . .
102(5) . . .
129(6) . . .
105(5) . . .
123(6) . . .
124(6) . . .
134(6) . . .
111(6) . . .
109(6) . . .
119(6) . . .
117(6) . . .
112(6) . . .
126(6) . . .
123(6) . . .
112(6) . . .
138(7) . . .
144(6) . . .
121(6) . . .
121(6) . . .
132(7) . . .
119(6) . . .
130(6) . . .
114(6) . . .
111(6) . . .
123(6) . . .
124(6) . . .
115(6) . . .
118(6) . . .
111(6) . . .
119(6) . . .
106(5) . . .
100(5) . . .
117(6) . . .
115(6) . . .
128(6) . . .
127(6) . . .
137(6) . . .
113(6) . . .
119(6) . . .
119(6) . . .
132(6) . . .
120(6) . . .
141(7) . . .
121(6) . . .
133(6) . . .
127(6) . . .
116(6) . . .
117(6) . . .
117(6) . . .
120(6) . . .
113(6) . . .
121(6) . . .
110(6) . . .
125(6) . . .
119(6) . . .
112(6) . . .
120(6) . . .
136(6) . . .
114(6) . . .
126(6) . . .
127(6) . . .
134(6) . . .
140(7) . . .
120(6) . . .
118(6) . . .
114(6) . . .
112(6) . . .
129(6) . . .
135(7) . . .
114(6) . . .
116(6) . . .
130(6) . . .
109(6) . . .
130(6) . . .
126(6) . . .
133(6) . . .
122(6) . . .
115(6) . . .
119(6) . . .
114(6) . . .
120(6) . . .
131(6) . . .
119(6) . . .
129(6) . . .
116(6) . . .
114(6) . . .
103(5) . . .
111(6) . . .
125(6) . . .
129(6) . . .
116(6) . . .
125(6) . . .
135(6) . . .
123(6) . . .
122(6) . . .
138(6) . . .
124(6) . . .
128(6) . . .
128(6) . . .
117(6) . . .
122(6) . . .
114(6) . . .
122(6) . . .
118(6) . . .
128(6) . . .
127(6) . . .
116(6) . . .
119(6) . . .
114(6) . . .
123(6) . . .
116(6) . . .
133(6) . . .
133(6) . . .
110(6) . . .
129(6) . . .
137(6) . . .
134(6) . . .
120(6) . . .
111(6) . . .
126(6) . . .
116(6) . . .
134(7) . . .
125(6) . . .
131(6) . . .
106(5) . . .
120(6) . . .
119(6) . . .
123(6) . . .
133(6) . . .
122(6) . . .
124(6) . . .
115(6) . . .
119(6) . . .
137(6) . . .
137(6) . . .
114(6) . . .
122(6) . . .
107(5) . . .
125(6) . . .
121(6) . . .
128(6) . . .
129(6) . . .
120(6) . . .
115(6) . . .
114(6) . . .
119(6) . . .
108(6) . . .
119(6) . . .
125(6) . . .
119(6) . . .
130(6) . . .
126(6) . . .
115(6) . . .
114(5) . . .
126(6) . . .
122(6) . . .
115(6) . . .
122(6) . . .
132(6) . . .
129(6) . . .
136(6) . . .
113(6) . . .
109(6) . . .
116(6) . . .
118(6) . . .
118(6) . . .
115(6) . . .
128(6) . . .
114(6) . . .
111(6) . . .
128(6) . . .
133(6) . . .
128(6) . . .
123(6) . . .
119(6) . . .
135(6) . . .
126(6) . . .
135(6) . . .
141(6) . . .
113(6) . . .
128(6) . . .
121(6) . . .
132(6) . . .
134(6) . . .
114(6) . . .
122(6) . . .
113(6) . . .
116(6) . . .
125(6) . . .
112(6) . . .
128(6) . . .
123(6) . . .
114(6) . . .
143(6) . . .
114(6) . . .
119(6) . . .
132(6) . . .
132(6) . . .
129(6) . . .
134(6) . . .
130(6) . . .
124(6) . . .
124(6) . . .
103(5) . . .
107(6) . . .
129(6) . . .
136(6) . . .
122(6) . . .
122(6) . . .
127(6) . . .
122(6) . . .
126(6) . . .
118(6) . . .
125(6) . . .
139(6) . . .
123(6) . . .
122(6) . . .
134(6) . . .
129(6) . . .
142(6) . . .
125(6) . . .
145(6) . . .
130(6) . . .
127(6) . . .
118(6) . . .
143(7) . . .
130(6) . . .
118(6) . . .
115(6) . . .
107(6) . . .
109(6) . . .
123(6) . . .
127(6) . . .
136(6) . . .
111(6) . . .
116(6) . . .
114(6) . . .
118(6) . . .
128(6) . . .
125(6) . . .
109(6) . . .
126(6) . . .
124(6) . . .
110(5) . . .
103(5) . . .
123(6) . . .
113(5) . . .
125(6) . . .
123(6) . . .
129(6) . . .
116(6) . . .
119(6) . . .
118(6) . . .
126(6) . . .
118(6) . . .
124(6) . . .
127(6) . . .
132(6) . . .
130(6) . . .
128(6) . . .
113(6) . . .
123(6) . . .
131(6) . . .
113(6) . . .
121(6) . . .
119(6) . . .
125(6) . . .
123(6) . . .
127(6) . . .
138(6) . . .
126(6) . . .
118(6) . . .
140(6) . . .
119(6) . . .
109(6) . . .
102(5) . . .
124(6) . . .
133(6) . . .
128(6) . . .
143(7) . . .
134(6) . . .
120(6) . . .
110(6) . . .
123(6) . . .
120(6) . . .
127(6) . . .
127(6) . . .
130(6) . . .
132(6) . . .
121(6) . . .
123(6) . . .
122(6) . . .
127(6) . . .
127(6) . . .
124(6) . . .
121(6) . . .
123(6) . . .
123(6) . . .
121(6) . . .
133(6) . . .
123(6) . . .
124(6) . . .
113(6) . . .
128(6) . . .
121(6) . . .
131(6) . . .
121(6) . . .
121(6) . . .
120(6) . . .
128(6) . . .
111(6) . . .
124(6) . . .
115(6) . . .
126(6) . . .
117(6) . . .
122(6) . . .
119(6) . . .
121(6) . . .
117(6) . . .
118(6) . . .
116(6) . . .
116(6) . . .
110(6) . . .
123(6) . . .
127(6) . . .
117(6) . . .
114(6) . . .
126(6) . . .
113(6) . . .
121(6) . . .
111(5) . . .
117(6) . . .
139(6) . . .
131(6) . . .
114(6) . . .
120(6) . . .
107(5) . . .
122(6) . . .
118(6) . . .
125(6) . . .
115(6) . . .
118(6) . . .
139(6) . . .
128(6) . . .
125(6) . . .
118(6) . . .
108(5) . . .
135(7) . . .
121(6) . . .
118(6) . . .
127(6) . . .
121(6) . . .
106(6) . . .
121(6) . . .
106(5) . . .
112(5) . . .
123(6) . . .
110(6) . . .
102(5) . . .
116(6) . . .
115(6) . . .
104(5) . . .
113(6) . . .
111(6) . . .
122(6) . . .
133(6) . . .
132(6) . . .
117(6) . . .
132(6) . . .
119(6) . . .
109(5) . . .
127(6) . . .
108(6) . . .
110(6) . . .
132(6) . . .
133(6) . . .
128(6) . . .
111(6) . . .
119(6) . . .
124(6) . . .
130(6) . . .
132(6) . . .
123(6) . . .
116(6) . . .
123(6) . . .
108(5) . . .
118(6) . . .
113(6) . . .
107(6) . . .
119(6) . . .
126(6) . . .
137(6) . . .
122(6) . . .
120(6) . . .
127(6) . . .
124(6) . . .
127(6) . . .
126(6) . . .
123(6) . . .
123(6) . . .
131(6) . . .
127(6) . . .
132(6) . . .
117(6) . . .
130(6) . . .
142(7) . . .
132(6) . . .
129(6) . . .
130(6) . . .
118(6) . . .
126(6) . . .
125(6) . . .
143(6) . . .
121(6) . . .
112(6) . . .
120(6) . . .
120(6) . . .
113(6) . . .
137(6) . . .
117(6) . . .
110(6) . . .
122(7) . . .
102(6) . . .
119(6) . . .
130(6) . . .
122(6) . . .
123(6) . . .
116(6) . . .
114(6) . . .
125(6) . . .
126(6) . . .
103(5) . . .
121(6) . . .
111(5) . . .
114(6) . . .
131(6) . . .
112(6) . . .
122(6) . . .
119(6) . . .
121(6) . . .
111(5) . . .
141(7) . . .
122(6) . . .
114(6) . . .
116(6) . . .
128(6) . . .
127(6) . . .
117(6) . . .
115(6) . . .
116(6) . . .
134(6) . . .
117(6) . . .
141(6) . . .
126(6) . . .
134(6) . . .
137(6) . . .
123(6) . . .
108(6) . . .
125(6) . . .
121(6) . . .
118(6) . . .
105(6) . . .
114(6) . . .
111(6) . . .
113(6) . . .
112(6) . . .
127(6) . . .
126(6) . . .
119(6) . . .
123(6) . . .
125(6) . . .
118(6) . . .
126(6) . . .
113(6) . . .
115(6) . . .
128(6) . . .
126(6) . . .
118(6) . . .
129(6) . . .
115(6) . . .
133(6) . . .
131(6) . . .
115(6) . . .
116(6) . . .
124(6) . . .
128(6) . . .
113(6) . . .
128(6) . . .
130(6) . . .
124(6) . . .
129(6) . . .
124(6) . . .
107(5) . . .
124(6) . . .
120(6) . . .
130(6) . . .
118(6) . . .
112(6) . . .
126(6) . . .
131(6) . . .
121(6) . . .
112(6) . . .
123(6) . . .
132(6) . . .
129(6) . . .
116(6) . . .
127(6) . . .
127(6) . . .
131(6) . . .
116(6) . . .
136(6) . . .
123(6) . . .
122(6) . . .
122(6) . . .
114(6) . . .
119(6) . . .
133(6) . . .
127(6) . . .
122(6) . . .
126(6) . . .
122(6) . . .
126(6) . . .
127(6) . . .
121(6) . . .
132(6) . . .
133(6) . . .
126(6) . . .
123(6) . . .
133(6) . . .
112(6) . . .
131(6) . . .
129(6) . . .
137(6) . . .
135(6) . . .
119(6) . . .
119(6) . . .
130(6) . . .
130(6) . . .
121(6) . . .
131(6) . . .
134(6) . . .
122(6) . . .
130(6) . . .
123(6) . . .
120(6) . . .
128(6) . . .
126(6) . . .
118(6) . . .
121(6) . . .
132(6) . . .
118(6) . . .
117(6) . . .
126(6) . . .
123(6) . . .
125(6) . . .
126(6) . . .
129(6) . . .
123(6) . . .
133(6) . . .
117(6) . . .
132(6) . . .
112(5) . . .
119(6) . . .
107(6) . . .
122(6) . . .
122(6) . . .
119(6) . . .
129(6) . . .
128(6) . . .
125(6) . . .
142(6) . . .
129(6) . . .
140(6) . . .
138(7) . . .
119(6) . . .
99(5) . . .
126(6) . . .
127(6) . . .
117(6) . . .
120(6) . . .
135(6) . . .
124(6) . . .
131(6) . . .
121(6) . . .
111(6) . . .
146(6) . . .
131(6) . . .
118(6) . . .
122(6) . . .
128(6) . . .
123(6) . . .
144(6) . . .
124(6) . . .
133(6) . . .
121(6) . . .
115(6) . . .
143(7) . . .
128(6) . . .
141(7) . . .
116(6) . . .
117(6) . . .
141(6) . . .
136(6) . . .
123(6) . . .
137(6) . . .
141(6) . . .
136(6) . . .
138(6) . . .
145(7) . . .
132(6) . . .
124(6) . . .
133(6) . . .
129(6) . . .
119(6) . . .
132(6) . . .
131(6) . . .
120(6) . . .
128(6) . . .
121(6) . . .
145(6) . . .
134(6) . . .
135(6) . . .
151(7) . . .
155(7) . . .
123(6) . . .
125(6) . . .
112(6) . . .
129(6) . . .
121(6) . . .
122(6) . . .
130(6) . . .
124(6) . . .
121(6) . . .
124(6) . . .
142(6) . . .
125(6) . . .
134(6) . . .
121(6) . . .
130(6) . . .
123(6) . . .
137(6) . . .
132(6) . . .
122(6) . . .
116(6) . . .
145(6) . . .
127(6) . . .
144(7) . . .
131(6) . . .
140(6) . . .
116(6) . . .
140(6) . . .
127(6) . . .
122(6) . . .
109(5) . . .
120(6) . . .
116(6) . . .
127(6) . . .
138(6) . . .
110(5) . . .
130(6) . . .
128(6) . . .
129(6) . . .
128(6) . . .
117(6) . . .
138(6) . . .
132(7) . . .
132(7) . . .
140(6) . . .
135(6) . . .
119(6) . . .
125(6) . . .
124(6) . . .
129(6) . . .
121(6) . . .
114(6) . . .
119(6) . . .
127(6) . . .
119(6) . . .
128(6) . . .
129(6) . . .
128(6) . . .
126(6) . . .
132(6) . . .
138(6) . . .
131(6) . . .
130(6) . . .
120(6) . . .
122(6) . . .
132(6) . . .
130(6) . . .
121(6) . . .
136(6) . . .
124(6) . . .
125(6) . . .
120(6) . . .
141(7) . . .
135(6) . . .
122(6) . . .
132(6) . . .
121(6) . . .
130(6) . . .
149(7) . . .
118(6) . . .
131(6) . . .
142(6) . . .
119(6) . . .
138(6) . . .
119(6) . . .
116(6) . . .
117(6) . . .
124(6) . . .
139(6) . . .
131(6) . . .
132(6) . . .
125(6) . . .
146(7) . . .
133(6) . . .
130(6) . . .
129(6) . . .
123(6) . . .
129(6) . . .
129(6) . . .
124(6) . . .
135(6) . . .
122(6) . . .
117(6) . . .
138(6) . . .
129(6) . . .
121(6) . . .
145(6) . . .
128(6) . . .
117(6) . . .
144(6) . . .
122(6) . . .
131(6) . . .
131(6) . . .
115(6) . . .
128(6) . . .
126(6) . . .
132(6) . . .
118(6) . . .
127(6) . . .
141(6) . . .
129(6) . . .
129(6) . . .
122(6) . . .
119(6) . . .
128(6) . . .
120(6) . . .
120(6) . . .
112(6) . . .
123(6) . . .
123(6) . . .
121(6) . . .
122(6) . . .
134(6) . . .
137(6) . . .
135(6) . . .
117(6) . . .
151(7) . . .
126(6) . . .
116(6) . . .
128(6) . . .
123(6) . . .
119(6) . . .
126(6) . . .
124(6) . . .
122(6) . . .
133(6) . . .
120(6) . . .
122(6) . . .
137(6) . . .
133(6) . . .
121(6) . . .
116(6) . . .
137(6) . . .
120(6) . . .
122(6) . . .
128(6) . . .
126(6) . . .
129(6) . . .
133(6) . . .
140(6) . . .
126(6) . . .
128(6) . . .
132(6) . . .
132(6) . . .
126(6) . . .
129(6) . . .
114(6) . . .
127(6) . . .
121(6) . . .
135(6) . . .
132(6) . . .
126(6) . . .
119(6) . . .
118(6) . . .
137(6) . . .
113(6) . . .
130(6) . . .
135(6) . . .
123(6) . . .
125(6) . . .
119(6) . . .
119(6) . . .
123(6) . . .
117(6) . . .
119(6) . . .
126(6) . . .
123(6) . . .
128(6) . . .
129(6) . . .
113(6) . . .
116(6) . . .
119(6) . . .
122(6) . . .
108(5) . . .
144(7) . . .
121(6) . . .
134(6) . . .
125(6) . . .
123(6) . . .
119(6) . . .
129(6) . . .
121(6) . . .
126(6) . . .
114(6) . . .
126(6) . . .
125(6) . . .
123(6) . . .
133(6) . . .
135(6) . . .
106(5) . . .
116(6) . . .
125(6) . . .
123(6) . . .
112(5) . . .
120(6) . . .
129(6) . . .
131(6) . . .
129(6) . . .
119(6) . . .
128(6) . . .
133(6) . . .
141(6) . . .
128(6) . . .
127(6) . . .
117(6) . . .
121(6) . . .
120(6) . . .
138(6) . . .
131(6) . . .
125(6) . . .
128(6) . . .
151(7) . . .
115(6) . . .
123(6) . . .
125(6) . . .
137(6) . . .
127(6) . . .
116(6) . . .
133(6) . . .
116(6) . . .
124(6) . . .
122(6) . . .
135(6) . . .
129(6) . . .
132(7) . . .
138(6) . . .
133(6) . . .
124(6) . . .
128(6) . . .
129(6) . . .
115(6) . . .
121(6) . . .
125(6) . . .
124(6) . . .
135(7) . . .
127(6) . . .
124(6) . . .
122(6) . . .
128(6) . . .
121(6) . . .
129(6) . . .
117(6) . . .
121(6) . . .
117(6) . . .
117(6) . . .
124(6) . . .
111(5) . . .
130(6) . . .
123(6) . . .
120(6) . . .
132(6) . . .
119(6) . . .
129(6) . . .
117(6) . . .
125(6) . . .
117(6) . . .
127(6) . . .
131(6) . . .
129(6) . . .
142(6) . . .
120(6) . . .
117(6) . . .
113(6) . . .
115(6) . . .
127(6) . . .
120(6) . . .
135(6) . . .
134(6) . . .
132(6) . . .
134(6) . . .
136(6) . . .
121(6) . . .
126(6) . . .
116(6) . . .
127(6) . . .
148(6) . . .
126(6) . . .
117(6) . . .
130(7) . . .
124(6) . . .
119(6) . . .
99(5) . . .
129(6) . . .
128(6) . . .
110(6) . . .
126(6) . . .
125(6) . . .
123(6) . . .
137(6) . . .
138(6) . . .
129(6) . . .
107(5) . . .
124(6) . . .
129(6) . . .
122(6) . . .
126(6) . . .
142(6) . . .
128(6) . . .
141(6) . . .
123(6) . . .
128(6) . . .
134(6) . . .
115(6) . . .
130(6) . . .
119(6) . . .
114(6) . . .
138(6) . . .
121(6) . . .
130(6) . . .
136(6) . . .
144(6) . . .
115(6) . . .
122(6) . . .
123(6) . . .
137(6) . . .
122(6) . . .
123(6) . . .
122(6) . . .
133(6) . . .
112(5) . . .
136(6) . . .
121(6) . . .
118(6) . . .
124(6) . . .
130(6) . . .
114(6) . . .
119(6) . . .
125(6) . . .
133(6) . . .
122(6) . . .
120(6) . . .
138(6) . . .
123(6) . . .
128(6) . . .
124(6) . . .
131(6) . . .
113(6) . . .
141(7) . . .
134(6) . . .
131(6) . . .
125(6) . . .
130(6) . . .
125(6) . . .
119(6) . . .
130(6) . . .
128(6) . . .
121(6) . . .
125(6) . . .
126(6) . . .
123(6) . . .
129(6) . . .
118(6) . . .
126(6) . . .
118(6) . . .
136(6) . . .
117(6) . . .
122(6) . . .
119(6) . . .
136(6) . . .
124(6) . . .
118(6) . . .
134(6) . . .
133(6) . . .
125(6) . . .
127(6) . . .
128(6) . . .
130(6) . . .
123(6) . . .
144(6) . . .
123(6) . . .
116(6) . . .
129(6) . . .
133(6) . . .
132(6) . . .
122(6) . . .
129(6) . . .
121(6) . . .
130(6) . . .
119(6) . . .
119(6) . . .
135(6) . . .
118(6) . . .
125(6) . . .
130(6) . . .
107(5) . . .
125(6) . . .
141(7) . . .
124(6) . . .
125(6) . . .
136(6) . . .
129(6) . . .
138(6) . . .
120(6) . . .
109(5) . . .
123(6) . . .
127(6) . . .
118(6) . . .
121(6) . . .
119(6) . . .
131(6) . . .
139(6) . . .
129(6) . . .
133(6) . . .
109(5) . . .
129(6) . . .
116(6) . . .
121(6) . . .
140(6) . . .
131(6) . . .
133(6) . . .
131(6) . . .
124(6) . . .
123(6) . . .
109(5) . . .
140(7) . . .
121(6) . . .
103(6) . . .
121(6) . . .
122(6) . . .
138(6) . . .
130(6) . . .
133(6) . . .
121(6) . . .
129(6) . . .
131(6) . . .
119(6) . . .
134(6) . . .
124(6) . . .
128(6) . . .
133(6) . . .
137(7) . . .
132(6) . . .
116(6) . . .
126(6) . . .
114(6) . . .
121(6) . . .
135(6) . . .
131(6) . . .
117(6) . . .
125(6) . . .
139(6) . . .
112(6) . . .
119(6) . . .
134(6) . . .
125(6) . . .
118(6) . . .
128(6) . . .
126(6) . . .
128(6) . . .
133(6) . . .
127(6) . . .
123(6) . . .
121(6) . . .
121(6) . . .
128(6) . . .
133(6) . . .
123(6) . . .
112(6) . . .
112(6) . . .
117(6) . . .
129(6) . . .
129(6) . . .
122(6) . . .
121(6) . . .
122(6) . . .
127(6) . . .
140(6) . . .
127(6) . . .
115(6) . . .
117(6) . . .
129(6) . . .
106(5) . . .
126(6) . . .
118(6) . . .
135(7) . . .
108(6) . . .
120(6) . . .
130(6) . . .
117(6) . . .
122(6) . . .
121(6) . . .
120(6) . . .
119(6) . . .
110(5) . . .
128(6) . . .
129(6) . . .
119(6) . . .
120(6) . . .
118(6) . . .
112(6) . . .
118(6) . . .
117(6) . . .
137(6) . . .
129(6) . . .
128(6) . . .
116(6) . . .
118(6) . . .
113(5) . . .
140(6) . . .
123(6) . . .
118(6) . . .
123(6) . . .
112(6) . . .
137(6) . . .
106(6) . . .
124(6) . . .
119(6) . . .
118(6) . . .
119(6) . . .
126(6) . . .
131(6) . . .
125(6) . . .
125(6) . . .
116(6) . . .
113(6) . . .
119(6) . . .
126(6) . . .
125(6) . . .
130(6) . . .
111(6) . . .
132(6) . . .
120(6) . . .
110(6) . . .
119(6) . . .
127(6) . . .
118(6) . . .
125(6) . . .
117(6) . . .
133(7) . . .
125(6) . . .
125(6) . . .
124(6) . . .
127(6) . . .
139(7) . . .
111(6) . . .
124(6) . . .
130(6) . . .
123(6) . . .
134(6) . . .
120(6) . . .
125(6) . . .
126(6) . . .
133(6) . . .
126(6) . . .
136(6) . . .
114(6) . . .
119(6) . . .
126(6) . . .
119(6) . . .
128(6) . . .
144(6) . . .
134(6) . . .
121(6) . . .
122(6) . . .
130(6) . . .
114(6) . . .
135(6) . . .
126(6) . . .
123(6) . . .
130(6) . . .
122(6) . . .
139(6) . . .
124(6) . . .
125(6) . . .
111(6) . . .
128(6) . . .
122(6) . . .
128(6) . . .
128(6) . . .
124(6) . . .
125(6) . . .
131(6) . . .
113(6) . . .
128(6) . . .
133(6) . . .
125(6) . . .
110(5) . . .
131(6) . . .
142(7) . . .
135(6) . . .
147(6) . . .
117(6) . . .
119(6) . . .
124(6) . . .
117(6) . . .
121(6) . . .
130(6) . . .
128(6) . . .
140(6) . . .
125(6) . . .
136(6) . . .
130(6) . . .
113(6) . . .
127(6) . . .
130(6) . . .
121(6) . . .
111(6) . . .
129(6) . . .
131(6) . . .
134(6) . . .
124(6) . . .
143(7) . . .
134(6) . . .
122(6) . . .
129(6) . . .
126(6) . . .
121(6) . . .
119(6) . . .
129(6) . . .
118(6) . . .
124(6) . . .
122(6) . . .
124(6) . . .
133(6) . . .
125(6) . . .
130(6) . . .
121(6) . . .
124(6) . . .
125(6) . . .
117(6) . . .
115(6) . . .
132(6) . . .
131(6) . . .
133(6) . . .
124(6) . . .
134(6) . . .
128(6) . . .
137(6) . . .
120(6) . . .
115(6) . . .
123(6) . . .
116(6) . . .
120(6) . . .
118(6) . . .
118(6) . . .
124(6) . . .
111(6) . . .
125(6) . . .
128(6) . . .
118(6) . . .
123(6) . . .
126(6) . . .
106(5) . . .
128(6) . . .
121(6) . . .
127(6) . . .
127(6) . . .
138(6) . . .
124(6) . . .
124(6) . . .
115(6) . . .
126(6) . . .
135(6) . . .
125(6) . . .
121(6) . . .
133(6) . . .
126(6) . . .
119(6) . . .
136(6) . . .
153(7) . . .
122(6) . . .
119(6) . . .
117(6) . . .
126(6) . . .
133(6) . . .
123(6) . . .
114(6) . . .
114(6) . . .
109(5) . . .
122(6) . . .
123(6) . . .
123(6) . . .
109(6) . . .
114(6) . . .
133(6) . . .
124(6) . . .
120(6) . . .
128(6) . . .
122(6) . . .
123(6) . . .
146(7) . . .
128(6) . . .
128(6) . . .
122(6) . . .
128(6) . . .
132(7) . . .
119(6) . . .
134(6) . . .
116(6) . . .
123(6) . . .
133(6) . . .
126(6) . . .
128(6) . . .
118(6) . . .
105(5) . . .
122(6) . . .
121(6) . . .
122(6) . . .
128(6) . . .
123(6) . . .
125(6) . . .
118(6) . . .
132(6) . . .
120(6) . . .
131(6) . . .
123(6) . . .
109(5) . . .
121(6) . . .
146(7) . . .
120(6) . . .
131(6) . . .
148(6) . . .
146(6) . . .
132(6) . . .
123(6) . . .
119(6) . . .
121(6) . . .
116(6) . . .
117(6) . . .
122(6) . . .
144(7) . . .
135(6) . . .
124(6) . . .
119(6) . . .
134(6) . . .
135(6) . . .
120(6) . . .
133(6) . . .
115(6) . . .
121(6) . . .
130(6) . . .
119(6) . . .
127(6) . . .
119(6) . . .
119(6) . . .
127(6) . . .
120(6) . . .
116(6) . . .
135(6) . . .
132(6) . . .
127(6) . . .
137(6) . . .
115(6) . . .
124(6) . . .
135(6) . . .
118(6) . . .
118(6) . . .
121(6) . . .
114(6) . . .
119(6) . . .
127(6) . . .
127(6) . . .
128(6) . . .
113(6) . . .
114(6) . . .
141(6) . . .
119(6) . . .
124(6) . . .
119(6) . . .
119(6) . . .
115(6) . . .
130(6) . . .
130(6) . . .
127(6) . . .
127(6) . . .
126(6) . . .
116(6) . . .
122(6) . . .
138(6) . . .
118(6) . . .
130(6) . . .
133(6) . . .
121(6) . . .
121(6) . . .
120(6) . . .
133(6) . . .
138(6) . . .
135(6) . . .
116(6) . . .
130(6) . . .
127(6) . . .
108(5) . . .
124(6) . . .
123(6) . . .
120(6) . . .
141(6) . . .
124(6) . . .
113(6) . . .
123(6) . . .
113(6) . . .
114(6) . . .
129(6) . . .
129(6) . . .
125(6) . . .
119(6) . . .
112(6) . . .
112(5) . . .
128(6) . . .
115(6) . . .
114(6) . . .
119(6) . . .
114(6) . . .
120(6) . . .
136(6) . . .
120(6) . . .
117(6) . . .
122(6) . . .
117(6) . . .
126(6) . . .
130(6) . . .
137(6) . . .
114(6) . . .
134(6) . . .
131(6) . . .
123(6) . . .
134(6) . . .
118(6) . . .
109(6) . . .
120(6) . . .
106(5) . . .
116(6) . . .
121(6) . . .
122(6) . . .
134(6) . . .
133(6) . . .
134(6) . . .
138(6) . . .
121(6) . . .
131(6) . . .
130(6) . . .
113(6) . . .
115(6) . . .
111(6) . . .
117(6) . . .
117(6) . . .
139(6) . . .
127(6) . . .
123(6) . . .
123(6) . . .
122(6) . . .
136(6) . . .
131(6) . . .
124(6) . . .
127(6) . . .
121(6) . . .
115(6) . . .
117(6) . . .
127(6) . . .
133(6) . . .
126(6) . . .
130(6) . . .
120(6) . . .
117(6) . . .
114(6) . . .
127(6) . . .
130(6) . . .
122(6) . . .
139(6) . . .
146(6) . . .
117(6) . . .
102(6) . . .
127(6) . . .
116(6) . . .
119(6) . . .
122(6) . . .
118(6) . . .
110(6) . . .
130(6) . . .
117(6) . . .
118(6) . . .
125(6) . . .
111(6) . . .
128(6) . . .
130(6) . . .
126(6) . . .
125(6) . . .
119(6) . . .
125(6) . . .
134(6) . . .
103(5) . . .
120(6) . . .
132(6) . . .
118(6) . . .
121(6) . . .
134(6) . . .
121(6) . . .
118(6) . . .
115(6) . . .
125(6) . . .
113(6) . . .
117(6) . . .
128(6) . . .
155(7) . . .
125(6) . . .
116(6) . . .
123(6) . . .
106(6) . . .
121(6) . . .
137(6) . . .
132(6) . . .
139(6) . . .
133(6) . . .
126(6) . . .
121(6) . . .
118(6) . . .
122(6) . . .
128(6) . . .
123(6) . . .
130(6) . . .
121(6) . . .
128(6) . . .
111(6) . . .
125(6) . . .
120(6) . . .
131(6) . . .
139(7) . . .
117(6) . . .
125(6) . . .
122(6) . . .
122(6) . . .
118(6) . . .
129(6) . . .
130(6) . . .
116(6) . . .
127(6) . . .
124(6) . . .
132(6) . . .
101(5) . . .
125(6) . . .
131(6) . . .
121(6) . . .
134(6) . . .
130(6) . . .
114(6) . . .
124(6) . . .
120(6) . . .
124(6) . . .
122(6) . . .
116(6) . . .
118(6) . . .
117(6) . . .
142(6) . . .
119(6) . . .
122(6) . . .
124(6) . . .
115(6) . . .
133(6) . . .
122(6) . . .
136(6) . . .
126(6) . . .
132(7) . . .
119(6) . . .
122(6) . . .
109(6) . . .
128(6) . . .
115(6) . . .
103(5) . . .
102(5) . . .
112(6) . . .
121(6) . . .
133(6) . . .
119(6) . . .
107(5) . . .
132(6) . . .
126(6) . . .
129(6) . . .
131(6) . . .
131(6) . . .
117(6) . . .
109(6) . . .
110(6) . . .
131(6) . . .
116(6) . . .
121(6) . . .
109(6) . . .
116(6) . . .
125(6) . . .
118(6) . . .
123(6) . . .
121(6) . . .
121(6) . . .
103(5) . . .
120(6) . . .
119(6) . . .
134(6) . . .
129(6) . . .
111(5) . . .
111(5) . . .
108(6) . . .
131(6) . . .
114(6) . . .
128(6) . . .
127(6) . . .
110(6) . . .
127(6) . . .
134(6) . . .
134(6) . . .
130(6) . . .
109(6) . . .
122(6) . . .
97(5) . . .
108(5) . . .
113(6) . . .
121(6) . . .
108(6) . . .
109(6) . . .
115(6) . . .
123(6) . . .
115(6) . . .
108(6) . . .
130(6) . . .
118(6) . . .
120(6) . . .
131(6) . . .
133(6) . . .
135(6) . . .
129(6) . . .
112(6) . . .
110(6) . . .
111(6) . . .
106(5) . . .
130(6) . . .
124(6) . . .
125(6) . . .
118(6) . . .
120(6) . . .
115(6) . . .
106(5) . . .
113(6) . . .
116(6) . . .
130(6) . . .
117(6) . . .
117(6) . . .
116(6) . . .
120(6) . . .
116(6) . . .
122(6) . . .
119(6) . . .
119(6) . . .
117(6) . . .
131(6) . . .
116(6) . . .
135(6) . . .
127(6) . . .
114(6) . . .
114(6) . . .
117(6) . . .
132(6) . . .
110(6) . . .
110(6) . . .
122(6) . . .
135(6) . . .
131(6) . . .
114(6) . . .
121(6) . . .
124(6) . . .
117(6) . . .
136(6) . . .
125(6) . . .
114(6) . . .
122(6) . . .
127(6) . . .
120(6) . . .
106(6) . . .
119(6) . . .
130(6) . . .
130(6) . . .
138(6) . . .
131(6) . . .
114(6) . . .
117(6) . . .
125(6) . . .
119(6) . . .
117(6) . . .
118(6) . . .
126(6) . . .
116(6) . . .
117(6) . . .
118(6) . . .
106(5) . . .
136(6) . . .
114(6) . . .
128(6) . . .
118(6) . . .
117(6) . . .
109(5) . . .
125(6) . . .
121(6) . . .
134(6) . . .
111(5) . . .
121(6) . . .
120(6) . . .
113(6) . . .
112(6) . . .
122(6) . . .
118(6) . . .
112(6) . . .
122(6) . . .
113(6) . . .
122(6) . . .
111(6) . . .
124(6) . . .
124(6) . . .
120(6) . . .
128(6) . . .
119(6) . . .
127(6) . . .
123(6) . . .
122(6) . . .
125(6) . . .
121(6) . . .
130(6) . . .
124(6) . . .
117(6) . . .
116(6) . . .
123(6) . . .
125(6) . . .
128(6) . . .
124(6) . . .
122(6) . . .
121(6) . . .
118(6) . . .
119(6) . . .
131(6) . . .
136(6) . . .
107(6) . . .
122(6) . . .
130(6) . . .
125(6) . . .
124(6) . . .
135(6) . . .
123(6) . . .
114(6) . . .
124(6) . . .
118(6) . . .
122(6) . . .
113(6) . . .
105(5) . . .
135(6) . . .
127(6) . . .
119(6) . . .
119(6) . . .
118(6) . . .
139(6) . . .
99(5) . . .
119(6) . . .
109(6) . . .
132(6) . . .
124(6) . . .
113(6) . . .
107(6) . . .
119(6) . . .
107(5) . . .
116(6) . . .
113(6) . . .
111(6) . . .
123(6) . . .
112(6) . . .
114(6) . . .
131(6) . . .
117(6) . . .
105(6) . . .
101(5) . . .
107(5) . . .
128(6) . . .
103(6) . . .
129(6) . . .
113(6) . . .
114(6) . . .
121(6) . . .
107(6) . . .
114(6) . . .
123(6) . . .
117(6) . . .
129(6) . . .
110(6) . . .
130(6) . . .
121(6) . . .
136(6) . . .
123(6) . . .
111(6) . . .
134(6) . . .
129(6) . . .
119(6) . . .
129(6) . . .
120(6) . . .
125(6) . . .
114(6) . . .
119(6) . . .
126(6) . . .
111(6) . . .
114(6) . . .
127(6) . . .
126(6) . . .
98(5) . . .
113(6) . . .
126(6) . . .
120(6) . . .
109(6) . . .
106(5) . . .
121(6) . . .
114(6) . . .
125(6) . . .
130(6) . . .
115(6) . . .
126(6) . . .
123(6) . . .
115(6) . . .
114(6) . . .
122(6) . . .
125(6) . . .
117(6) . . .
123(6) . . .
118(6) . . .
120(6) . . .
123(6) . . .
117(6) . . .
122(6) . . .
141(6) . . .
127(6) . . .
128(6) . . .
104(5) . . .
121(6) . . .
119(6) . . .
112(6) . . .
119(6) . . .
119(6) . . .
114(6) . . .
122(6) . . .
117(6) . . .
130(6) . . .
130(6) . . .
113(6) . . .
117(6) . . .
123(6) . . .
120(6) . . .
116(6) . . .
122(6) . . .
125(6) . . .
115(6) . . .
127(6) . . .
129(6) . . .
136(6) . . .
127(6) . . .
126(6) . . .
124(6) . . .
109(5) . . .
121(6) . . .
117(6) . . .
123(6) . . .
124(6) . . .
140(6) . . .
129(6) . . .
125(6) . . .
112(6) . . .
119(6) . . .
113(6) . . .
122(6) . . .
124(6) . . .
113(6) . . .
125(6) . . .
118(6) . . .
128(6) . . .
129(6) . . .
127(6) . . .
134(6) . . .
136(6) . . .
126(6) . . .
134(6) . . .
129(6) . . .
124(6) . . .
112(5) . . .
121(6) . . .
121(6) . . .
115(6) . . .
117(6) . . .
116(6) . . .
122(6) . . .
131(6) . . .
116(6) . . .
131(6) . . .
122(6) . . .
135(6) . . .
130(6) . . .
121(6) . . .
127(6) . . .
108(5) . . .
128(6) . . .
111(6) . . .
117(6) . . .
112(6) . . .
136(6) . . .
113(6) . . .
131(6) . . .
106(5) . . .
127(6) . . .
129(6) . . .
127(6) . . .
117(6) . . .
118(6) . . .
123(6) . . .
121(6) . . .
112(6) . . .
130(6) . . .
121(6) . . .
115(6) . . .
121(6) . . .
135(6) . . .
130(6) . . .
137(6) . . .
122(6) . . .
126(6) . . .
106(6) . . .
131(6) . . .
124(6) . . .
126(6) . . .
115(6) . . .
117(6) . . .
119(6) . . .
124(6) . . .
105(5) . . .
115(6) . . .
115(6) . . .
116(6) . . .
115(6) . . .
118(6) . . .
120(6) . . .
101(5) . . .
117(6) . . .
118(6) . . .
133(6) . . .
126(6) . . .
123(6) . . .
134(6) . . .
119(6) . . .
117(6) . . .
114(6) . . .
116(6) . . .
107(5) . . .
119(6) . . .
120(6) . . .
128(6) . . .
110(6) . . .
113(6) . . .
116(6) . . .
121(6) . . .
120(6) . . .
117(6) . . .
128(6) . . .
129(6) . . .
106(5) . . .
125(6) . . .
113(6) . . .
108(6) . . .
118(6) . . .
107(5) . . .
115(6) . . .
109(6) . . .
125(6) . . .
126(6) . . .
112(6) . . .
128(6) . . .
114(6) . . .
117(6) . . .
120(6) . . .
118(6) . . .
114(6) . . .
113(6) . . .
129(6) . . .
107(5) . . .
123(6) . . .
119(6) . . .
115(6) . . .
115(6) . . .
131(6) . . .
120(6) . . .
116(6) . . .
105(5) . . .
113(6) . . .
116(6) . . .
95(5) . . .
115(6) . . .
106(5) . . .
123(6) . . .
110(5) . . .
121(6) . . .
106(6) . . .
131(6) . . .
122(6) . . .
108(5) . . .
126(6) . . .
126(6) . . .
120(6) . . .
126(6) . . .
130(6) . . .
118(6) . . .
103(5) . . .
108(5) . . .
139(6) . . .
107(5) . . .
116(6) . . .
115(6) . . .
115(6) . . .
115(6) . . .
125(6) . . .
124(6) . . .
114(6) . . .
136(7) . . .
124(6) . . .
113(6) . . .
127(6) . . .
115(6) . . .
116(6) . . .
112(5) . . .
116(6) . . .
118(6) . . .
118(6) . . .
116(6) . . .
135(6) . . .
121(6) . . .
134(6) . . .
113(6) . . .
109(5) . . .
121(6) . . .
113(6) . . .
115(6) . . .
114(6) . . .
115(6) . . .
108(5) . . .
112(6) . . .
112(6) . . .
106(5) . . .
118(6) . . .
115(6) . . .
118(6) . . .
124(6) . . .
119(6) . . .
127(6) . . .
114(6) . . .
126(6) . . .
114(6) . . .
130(6) . . .
126(6) . . .
122(6) . . .
114(6) . . .
110(6) . . .
108(6) . . .
120(6) . . .
120(6) . . .
112(6) . . .
109(6) . . .
107(5) . . .
120(6) . . .
125(6) . . .
125(6) . . .
116(6) . . .
111(6) . . .
102(5) . . .
129(6) . . .
118(6) . . .
116(6) . . .
124(6) . . .
132(6) . . .
126(6) . . .
123(6) . . .
125(6) . . .
136(6) . . .
126(6) . . .
118(6) . . .
117(6) . . .
121(6) . . .
119(6) . . .
138(6) . . .
114(6) . . .
125(6) . . .
122(6) . . .
119(6) . . .
114(6) . . .
121(6) . . .
115(6) . . .
119(6) . . .
101(5) . . .
103(5) . . .
123(6) . . .
115(6) . . .
122(6) . . .
122(6) . . .
107(5) . . .
108(6) . . .
124(6) . . .
110(6) . . .
108(5) . . .
115(6) . . .
119(6) . . .
125(6) . . .
105(5) . . .
111(6) . . .
108(5) . . .
127(6) . . .
103(5) . . .
110(6) . . .
114(6) . . .
127(6) . . .
103(5) . . .
128(6) . . .
124(6) . . .
127(6) . . .
121(6) . . .
125(6) . . .
118(6) . . .
128(6) . . .
129(6) . . .
116(6) . . .
109(6) . . .
114(6) . . .
124(6) . . .
138(6) . . .
108(6) . . .
111(6) . . .
118(6) . . .
113(6) . . .
110(5) . . .
130(6) . . .
120(6) . . .
112(6) . . .
111(6) . . .
105(5) . . .
114(6) . . .
117(6) . . .
121(6) . . .
121(6) . . .
122(6) . . .
129(6) . . .
127(6) . . .
132(6) . . .
127(6) . . .
120(6) . . .
111(6) . . .
110(6) . . .
124(6) . . .
104(5) . . .
120(6) . . .
104(5) . . .
120(6) . . .
107(6) . . .
93(5) . . .
120(6) . . .
110(6) . . .
109(6) . . .
108(6) . . .
113(6) . . .
112(6) . . .
123(6) . . .
116(6) . . .
100(5) . . .
102(5) . . .
119(6) . . .
127(6) . . .
132(6) . . .
116(6) . . .
105(5) . . .
126(6) . . .
123(6) . . .
130(6) . . .
109(6) . . .
112(6) . . .
126(6) . . .
135(6) . . .
111(6) . . .
100(5) . . .
117(6) . . .
111(6) . . .
114(6) . . .
114(6) . . .
119(6) . . .
127(6) . . .
123(6) . . .
115(6) . . .
114(6) . . .
107(5) . . .
123(6) . . .
143(7) . . .
117(6) . . .
120(6) . . .
114(6) . . .
115(6) . . .
116(6) . . .
116(6) . . .
101(5) . . .
117(6) . . .
124(6) . . .
117(6) . . .
132(6) . . .
116(6) . . .
123(6) . . .
121(6) . . .
117(6) . . .
112(6) . . .
118(6) . . .
114(6) . . .
98(5) . . .
102(5) . . .
104(5) . . .
124(6) . . .
111(5) . . .
112(6) . . .
112(6) . . .
104(6) . . .
101(5) . . .
112(6) . . .
121(6) . . .
137(6) . . .
117(6) . . .
124(6) . . .
121(6) . . .
113(6) . . .
118(6) . . .
107(6) . . .
117(6) . . .
109(5) . . .
107(6) . . .
122(6) . . .
114(6) . . .
133(6) . . .
117(6) . . .
120(6) . . .
117(6) . . .
120(6) . . .
118(6) . . .
112(6) . . .
98(5) . . .
115(6) . . .
117(6) . . .
139(6) . . .
119(6) . . .
111(5) . . .
131(6) . . .
117(6) . . .
134(6) . . .
126(6) . . .
117(6) . . .
105(6) . . .
113(6) . . .
115(6) . . .
124(6) . . .
98(5) . . .
124(6) . . .
130(6) . . .
107(5) . . .
108(5) . . .
118(6) . . .
132(6) . . .
128(6) . . .
117(6) . . .
132(6) . . .
115(6) . . .
117(6) . . .
106(6) . . .
121(6) . . .
125(6) . . .
112(6) . . .
112(6) . . .
123(6) . . .
121(6) . . .
116(6) . . .
131(7) . . .
116(6) . . .
101(5) . . .
111(5) . . .
117(6) . . .
115(6) . . .
109(6) . . .
116(6) . . .
108(5) . . .
108(5) . . .
110(6) . . .
106(5) . . .
120(6) . . .
127(6) . . .
125(6) . . .
122(6) . . .
111(6) . . .
111(5) . . .
110(6) . . .
107(5) . . .
123(6) . . .
108(6) . . .
117(6) . . .
111(5) . . .
132(6) . . .
111(6) . . .
112(6) . . .
106(5) . . .
120(6) . . .
124(6) . . .
93(5) . . .
114(6) . . .
104(5) . . .
107(5) . . .
121(6) . . .
117(6) . . .
111(6) . . .
119(6) . . .
120(6) . . .
115(6) . . .
115(6) . . .
114(6) . . .
112(6) . . .
115(6) . . .
116(6) . . .
114(6) . . .
107(5) . . .
102(5) . . .
107(6) . . .
121(6) . . .
122(6) . . .
130(6) . . .
106(5) . . .
124(6) . . .
119(6) . . .
112(6) . . .
117(6) . . .
115(6) . . .
107(6) . . .
110(6) . . .
109(6) . . .
121(6) . . .
112(6) . . .
130(6) . . .
111(6) . . .
114(6) . . .
117(6) . . .
126(6) . . .
109(6) . . .
105(6) . . .
129(6) . . .
108(5) . . .
121(6) . . .
112(6) . . .
122(6) . . .
121(6) . . .
112(5) . . .
122(6) . . .
125(6) . . .
115(6) . . .
122(6) . . .
96(5) . . .
112(6) . . .
113(6) . . .
105(6) . . .
104(5) . . .
117(6) . . .
113(6) . . .
99(5) . . .
108(6) . . .
115(6) . . .
129(6) . . .
115(6) . . .
117(6) . . .
105(5) . . .
119(6) . . .
113(6) . . .
99(5) . . .
113(6) . . .
114(6) . . .
119(6) . . .
121(6) . . .
111(6) . . .
102(6) . . .
106(5) . . .
123(6) . . .
93(5) . . .
119(6) . . .
116(6) . . .
131(6) . . .
111(6) . . .
107(5) . . .
104(5) . . .
111(6) . . .
103(6) . . .
125(6) . . .
108(5) . . .
111(6) . . .
104(6) . . .
104(5) . . .
112(6) . . .
114(6) . . .
121(6) . . .
111(6) . . .
105(6) . . .
119(6) . . .
118(6) . . .
101(5) . . .
113(6) . . .
108(6) . . .
113(6) . . .
115(6) . . .
110(6) . . .
119(6) . . .
115(6) . . .
112(6) . . .
107(5) . . .
104(5) . . .
108(6) . . .
122(6) . . .
106(5) . . .
116(6) . . .
118(6) . . .
107(6) . . .
119(6) . . .
111(6) . . .
111(6) . . .
110(6) . . .
107(6) . . .
114(6) . . .
126(6) . . .
106(5) . . .
104(6) . . .
101(5) . . .
108(6) . . .
106(5) . . .
118(6) . . .
105(5) . . .
110(6) . . .
108(5) . . .
114(6) . . .
123(6) . . .
128(6) . . .
98(5) . . .
99(5) . . .
103(5) . . .
109(6) . . .
125(6) . . .
107(6) . . .
125(6) . . .
104(5) . . .
112(6) . . .
134(7) . . .
114(6) . . .
117(6) . . .
116(6) . . .
114(6) . . .
104(6) . . .
118(6) . . .
124(6) . . .
115(6) . . .
111(6) . . .
117(6) . . .
115(6) . . .
103(5) . . .
118(6) . . .
116(6) . . .
112(6) . . .
115(6) . . .
124(6) . . .
107(5) . . .
116(6) . . .
118(6) . . .
118(6) . . .
112(5) . . .
114(6) . . .
127(6) . . .
116(6) . . .
107(5) . . .
130(6) . . .
111(6) . . .
114(6) . . .
100(5) . . .
111(6) . . .
96(5) . . .
97(5) . . .
109(6) . . .
109(6) . . .
113(6) . . .
113(6) . . .
133(6) . . .
128(6) . . .
118(6) . . .
110(6) . . .
121(6) . . .
118(6) . . .
107(6) . . .
116(6) . . .
122(6) . . .
112(6) . . .
115(6) . . .
107(6) . . .
126(6) . . .
124(6) . . .
102(5) . . .
102(5) . . .
109(6) . . .
106(6) . . .
105(5) . . .
116(6) . . .
114(6) . . .
114(6) . . .
115(6) . . .
123(6) . . .
112(6) . . .
104(5) . . .
121(6) . . .
124(6) . . .
108(5) . . .
123(6) . . .
108(6) . . .
127(6) . . .
108(5) . . .
111(5) . . .
108(5) . . .
106(6) . . .
118(6) . . .
118(6) . . .
125(6) . . .
114(6) . . .
100(5) . . .
101(5) . . .
115(6) . . .
125(6) . . .
121(6) . . .
117(6) . . .
111(6) . . .
101(5) . . .
111(5) . . .
102(5) . . .
109(6) . . .
114(6) . . .
119(6) . . .
121(6) . . .
123(6) . . .
122(6) . . .
126(6) . . .
122(6) . . .
112(6) . . .
120(6) . . .
121(6) . . .
122(6) . . .
116(6) . . .
102(5) . . .
96(5) . . .
103(6) . . .
122(6) . . .
112(6) . . .
105(5) . . .
116(6) . . .
103(6) . . .
108(6) . . .
114(6) . . .
108(5) . . .
106(5) . . .
105(6) . . .
99(5) . . .
122(6) . . .
112(6) . . .
111(6) . . .
107(6) . . .
120(6) . . .
122(6) . . .
107(5) . . .
107(6) . . .
113(6) . . .
102(5) . . .
102(5) . . .
115(6) . . .
102(6) . . .
113(6) . . .
118(6) . . .
113(6) . . .
98(5) . . .
120(6) . . .
116(6) . . .
123(6) . . .
119(6) . . .
104(6) . . .
104(6) . . .
125(6) . . .
117(6) . . .
117(6) . . .
128(6) . . .
110(6) . . .
111(6) . . .
108(5) . . .
106(5) . . .
116(6) . . .
112(6) . . .
107(5) . . .
113(6) . . .
102(5) . . .
108(6) . . .
115(6) . . .
115(6) . . .
113(6) . . .
114(6) . . .
104(5) . . .
104(6) . . .
116(6) . . .
95(5) . . .
102(5) . . .
105(6) . . .
107(6) . . .
115(6) . . .
117(6) . . .
118(6) . . .
116(6) . . .
106(6) . . .
109(6) . . .
120(6) . . .
111(6) . . .
102(5) . . .
116(6) . . .
117(6) . . .
103(5) . . .
110(6) . . .
104(5) . . .
116(6) . . .
108(6) . . .
117(6) . . .
100(5) . . .
105(6) . . .
118(6) . . .
115(6) . . .
103(5) . . .
113(6) . . .
105(6) . . .
110(6) . . .
112(6) . . .
117(6) . . .
96(5) . . .
106(6) . . .
115(6) . . .
118(6) . . .
108(5) . . .
113(6) . . .
101(5) . . .
110(6) . . .
98(5) . . .
118(6) . . .
109(6) . . .
110(6) . . .
98(5) . . .
127(6) . . .
113(6) . . .
123(6) . . .
124(6) . . .
122(6) . . .
119(6) . . .
114(6) . . .
113(6) . . .
124(6) . . .
96(5) . . .
110(5) . . .
132(6) . . .
126(6) . . .
115(6) . . .
106(5) . . .
110(5) . . .
101(5) . . .
101(6) . . .
109(6) . . .
100(5) . . .
116(6) . . .
115(6) . . .
107(6) . . .
113(6) . . .
110(6) . . .
105(5) . . .
108(6) . . .
111(6) . . .
113(6) . . .
114(6) . . .
110(5) . . .
108(6) . . .
127(6) . . .
110(6) . . .
109(6) . . .
111(5) . . .
102(6) . . .
120(6) . . .
106(5) . . .
114(6) . . .
112(6) . . .
115(6) . . .
112(6) . . .
105(6) . . .
123(6) . . .
107(5) . . .
116(6) . . .
110(6) . . .
112(6) . . .
107(5) . . .
107(5) . . .
118(6) . . .
114(6) . . .
113(6) . . .
106(5) . . .
118(6) . . .
126(6) . . .
113(6) . . .
99(5) . . .
108(5) . . .
101(5) . . .
112(6) . . .
113(6) . . .
111(6) . . .
96(5) . . .
113(6) . . .
99(5) . . .
106(6) . . .
106(5) . . .
105(5) . . .
98(5) . . .
113(6) . . .
118(6) . . .
127(6) . . .
103(5) . . .
116(6) . . .
114(6) . . .
116(6) . . .
113(6) . . .
123(6) . . .
110(6) . . .
114(6) . . .
112(6) . . .
97(5) . . .
118(6) . . .
107(6) . . .
110(6) . . .
105(6) . . .
97(5) . . .
100(5) . . .
104(6) . . .
118(6) . . .
110(6) . . .
115(6) . . .
109(5) . . .
122(6) . . .
115(6) . . .
102(5) . . .
110(5) . . .
114(6) . . .
104(5) . . .
107(6) . . .
92(5) . . .
119(6) . . .
111(5) . . .
107(5) . . .
102(6) . . .
118(6) . . .
112(5) . . .
115(6) . . .
119(6) . . .
115(6) . . .
112(6) . . .
101(5) . . .
103(5) . . .
113(6) . . .
107(6) . . .
110(6) . . .
126(6) . . .
109(6) . . .
118(6) . . .
102(5) . . .
102(5) . . .
117(6) . . .
93(5) . . .
106(6) . . .
116(6) . . .
109(6) . . .
116(6) . . .
97(5) . . .
113(6) . . .
109(6) . . .
104(5) . . .
106(5) . . .
123(6) . . .
102(5) . . .
100(5) . . .
107(6) . . .
114(6) . . .
102(5) . . .
107(6) . . .
120(6) . . .
104(5) . . .
118(6) . . .
113(6) . . .
113(6) . . .
104(6) . . .
121(6) . . .
119(6) . . .
125(6) . . .
101(5) . . .
121(6) . . .
112(5) . . .
105(5) . . .
101(5) . . .
115(6) . . .
109(6) . . .
104(5) . . .
108(5) . . .
107(5) . . .
99(6) . . .
100(5) . . .
125(6) . . .
118(6) . . .
95(5) . . .
99(6) . . .
124(6) . . .
106(5) . . .
110(6) . . .
107(6) . . .
122(6) . . .
118(6) . . .
112(5) . . .
109(6) . . .
95(5) . . .
98(5) . . .
114(6) . . .
108(5) . . .
127(6) . . .
110(5) . . .
131(6) . . .
114(6) . . .
101(5) . . .
108(5) . . .
106(5) . . .
114(6) . . .
113(6) . . .
111(6) . . .
104(6) . . .
112(6) . . .
109(6) . . .
111(5) . . .
108(5) . . .
103(5) . . .
116(6) . . .
108(6) . . .
100(5) . . .
105(5) . . .
114(6) . . .
111(6) . . .
113(6) . . .
96(5) . . .
108(5) . . .
112(6) . . .
115(6) . . .
109(5) . . .
117(6) . . .
108(5) . . .
101(5) . . .
96(5) . . .
121(6) . . .
115(6) . . .
116(6) . . .
114(6) . . .
98(5) . . .
106(6) . . .
115(6) . . .
112(6) . . .
93(5) . . .
114(6) . . .
112(6) . . .
95(5) . . .
103(5) . . .
106(5) . . .
98(6) . . .
96(5) . . .
109(5) . . .
116(6) . . .
123(6) . . .
105(6) . . .
113(6) . . .
109(5) . . .
97(5) . . .
106(6) . . .
100(5) . . .
102(5) . . .
103(5) . . .
102(6) . . .
108(6) . . .
111(6) . . .
93(5) . . .
110(5) . . .
104(5) . . .
106(6) . . .
118(6) . . .
110(5) . . .
124(6) . . .
107(6) . . .
95(5) . . .
107(6) . . .
113(6) . . .
101(5) . . .
107(6) . . .
118(6) . . .
103(5) . . .
120(6) . . .
109(5) . . .
98(5) . . .
105(6) . . .
117(6) . . .
98(5) . . .
110(6) . . .
98(5) . . .
120(6) . . .
106(6) . . .
116(6) . . .
124(6) . . .
95(5) . . .
121(6) . . .
118(6) . . .
125(6) . . .
111(6) . . .
116(6) . . .
112(6) . . .
96(5) . . .
96(5) . . .
104(6) . . .
122(6) . . .
111(6) . . .
101(5) . . .
109(5) . . .
109(6) . . .
102(6) . . .
102(5) . . .
115(6) . . .
114(6) . . .
131(6) . . .
116(6) . . .
123(6) . . .
117(6) . . .
99(5) . . .
124(6) . . .
108(6) . . .
108(6) . . .
100(5) . . .
100(5) . . .
110(5) . . .
113(6) . . .
113(6) . . .
103(5) . . .
110(5) . . .
109(6) . . .
116(6) . . .
113(6) . . .
96(5) . . .
107(5) . . .
106(6) . . .
102(6) . . .
122(6) . . .
115(6) . . .
111(5) . . .
117(6) . . .
122(6) . . .
102(5) . . .
95(5) . . .
116(6) . . .
116(6) . . .
116(6) . . .
112(6) . . .
107(5) . . .
116(6) . . .
110(6) . . .
104(6) . . .
101(5) . . .
119(6) . . .
101(6) . . .
106(6) . . .
107(6) . . .
116(6) . . .
110(5) . . .
96(5) . . .
110(6) . . .
113(6) . . .
111(5) . . .
111(6) . . .
136(6) . . .
113(6) . . .
112(6) . . .
121(6) . . .
130(6) . . .
112(6) . . .
112(6) . . .
105(5) . . .
110(6) . . .
102(5) . . .
111(6) . . .
111(6) . . .
91(5) . . .
103(5) . . .
96(5) . . .
129(6) . . .
115(6) . . .
113(6) . . .
125(6) . . .
121(6) . . .
102(5) . . .
111(6) . . .
118(6) . . .
116(6) . . .
111(6) . . .
108(6) . . .
101(5) . . .
108(6) . . .
107(5) . . .
122(6) . . .
106(5) . . .
102(5) . . .
108(6) . . .
106(5) . . .
106(5) . . .
105(5) . . .
98(5) . . .
98(5) . . .
106(5) . . .
113(6) . . .
101(5) . . .
120(6) . . .
93(5) . . .
113(5) . . .
97(5) . . .
111(6) . . .
104(6) . . .
109(6) . . .
102(5) . . .
107(5) . . .
98(5) . . .
94(5) . . .
110(6) . . .
88(5) . . .
114(6) . . .
111(6) . . .
103(5) . . .
109(5) . . .
106(5) . . .
108(6) . . .
101(6) . . .
102(5) . . .
107(5) . . .
111(6) . . .
99(5) . . .
101(6) . . .
120(6) . . .
104(5) . . .
106(5) . . .
109(6) . . .
109(6) . . .
113(6) . . .
108(5) . . .
106(5) . . .
119(6) . . .
105(6) . . .
104(5) . . .
109(5) . . .
110(6) . . .
123(6) . . .
95(5) . . .
113(6) . . .
120(6) . . .
108(5) . . .
96(5) . . .
102(6) . . .
102(5) . . .
112(6) . . .
100(5) . . .
104(5) . . .
98(5) . . .
100(5) . . .
86(5) . . .
105(6) . . .
100(5) . . .
96(5) . . .
95(5) . . .
101(5) . . .
106(6) . . .
95(5) . . .
117(6) . . .
105(5) . . .
104(5) . . .
97(5) . . .
102(6) . . .
95(5) . . .
94(5) . . .
113(6) . . .
101(5) . . .
115(6) . . .
110(6) . . .
96(5) . . .
89(5) . . .
108(5) . . .
92(5) . . .
108(6) . . .
104(5) . . .
108(5) . . .
104(5) . . .
103(6) . . .
106(5) . . .
99(5) . . .
109(5) . . .
88(5) . . .
110(6) . . .
93(5) . . .
98(5) . . .
99(5) . . .
101(5) . . .
106(6) . . .
115(6) . . .
110(5) . . .
95(5) . . .
108(6) . . .
105(5) . . .
99(5) . . .
99(5) . . .
102(6) . . .
111(6) . . .
106(6) . . .
113(6) . . .
115(6) . . .
118(6) . . .
101(5) . . .
104(5) . . .
111(6) . . .
122(6) . . .
105(5) . . .
104(5) . . .
112(6) . . .
112(6) . . .
110(5) . . .
121(6) . . .
105(6) . . .
101(5) . . .
112(6) . . .
91(5) . . .
107(5) . . .
101(5) . . .
109(6) . . .
106(5) . . .
104(5) . . .
110(6) . . .
118(6) . . .
96(5) . . .
110(6) . . .
113(6) . . .
110(6) . . .
101(5) . . .
118(6) . . .
118(6) . . .
111(5) . . .
102(5) . . .
116(6) . . .
102(5) . . .
127(6) . . .
112(6) . . .
100(5) . . .
99(5) . . .
98(5) . . .
113(5) . . .
106(5) . . .
109(6) . . .
88(5) . . .
107(6) . . .
113(6) . . .
114(6) . . .
118(6) . . .
113(6) . . .
105(5) . . .
104(5) . . .
115(6) . . .
109(6) . . .
121(6) . . .
120(6) . . .
112(5) . . .
112(6) . . .
100(5) . . .
86(5) . . .
107(5) . . .
107(5) . . .
115(6) . . .
109(6) . . .
109(6) . . .
91(5) . . .
100(5) . . .
105(5) . . .
123(6) . . .
89(5) . . .
91(5) . . .
106(5) . . .
101(5) . . .
106(6) . . .
93(5) . . .
109(6) . . .
120(6) . . .
92(5) . . .
106(6) . . .
105(5) . . .
96(5) . . .
103(5) . . .
121(6) . . .
114(6) . . .
100(5) . . .
95(5) . . .
97(5) . . .
124(6) . . .
101(6) . . .
101(5) . . .
103(5) . . .
101(5) . . .
107(6) . . .
97(5) . . .
103(6) . . .
111(5) . . .
102(5) . . .
109(6) . . .
84(5) . . .
107(5) . . .
96(5) . . .
109(6) . . .
92(5) . . .
113(6) . . .
105(5) . . .
113(5) . . .
106(5) . . .
90(5) . . .
124(6) . . .
107(5) . . .
102(5) . . .
120(6) . . .
106(6) . . .
111(6) . . .
104(5) . . .
104(5) . . .
105(5) . . .
106(6) . . .
103(5) . . .
115(6) . . .
105(5) . . .
107(6) . . .
99(5) . . .
105(6) . . .
109(5) . . .
104(5) . . .
102(5) . . .
105(6) . . .
105(5) . . .
107(5) . . .
108(5) . . .
103(6) . . .
114(6) . . .
114(6) . . .
112(5) . . .
101(5) . . .
107(6) . . .
96(6) . . .
108(6) . . .
106(5) . . .
113(6) . . .
104(5) . . .
114(6) . . .
113(6) . . .
108(5) . . .
118(6) . . .
104(5) . . .
110(6) . . .
112(6) . . .
126(6) . . .
118(6) . . .
90(5) . . .
107(6) . . .
114(6) . . .
94(5) . . .
101(5) . . .
100(6) . . .
108(6) . . .
97(5) . . .
111(5) . . .
102(5) . . .
104(5) . . .
113(6) . . .
98(5) . . .
112(5) . . .
95(5) . . .
122(6) . . .
99(5) . . .
99(6) . . .
103(5) . . .
104(5) . . .
114(6) . . .
107(6) . . .
116(6) . . .
100(5) . . .
92(5) . . .
124(6) . . .
116(6) . . .
115(6) . . .
96(5) . . .
96(5) . . .
114(6) . . .
102(5) . . .
102(5) . . .
121(6) . . .
113(6) . . .
105(6) . . .
103(5) . . .
97(5) . . .
116(6) . . .
111(6) . . .
110(6) . . .
110(6) . . .
114(6) . . .
116(6) . . .
95(5) . . .
97(5) . . .
97(5) . . .
109(5) . . .
105(5) . . .
104(6) . . .
116(6) . . .
123(6) . . .
111(5) . . .
99(5) . . .
96(5) . . .
116(6) . . .
108(5) . . .
112(5) . . .
110(6) . . .
96(5) . . .
105(6) . . .
113(6) . . .
110(5) . . .
101(6) . . .
102(5) . . .
109(6) . . .
119(6) . . .
102(5) . . .
97(5) . . .
97(5) . . .
111(6) . . .
112(6) . . .
126(6) . . .
94(5) . . .
97(5) . . .
107(5) . . .
89(5) . . .
97(5) . . .
102(5) . . .
108(6) . . .
106(6) . . .
100(5) . . .
95(5) . . .
96(5) . . .
110(6) . . .
116(6) . . .
106(5) . . .
99(5) . . .
104(5) . . .
120(6) . . .
105(5) . . .
95(5) . . .
94(5) . . .
96(5) . . .
94(5) . . .
122(6) . . .
100(5) . . .
112(5) . . .
118(6) . . .
102(6) . . .
115(6) . . .
113(6) . . .
108(6) . . .
109(6) . . .
110(6) . . .
110(6) . . .
106(5) . . .
110(6) . . .
90(5) . . .
103(6) . . .
107(6) . . .
98(5) . . .
88(5) . . .
123(6) . . .
107(6) . . .
109(6) . . .
96(5) . . .
115(6) . . .
110(6) . . .
99(5) . . .
116(6) . . .
99(5) . . .
91(5) . . .
101(6) . . .
104(5) . . .
96(5) . . .
104(5) . . .
101(5) . . .
101(6) . . .
110(6) . . .
89(5) . . .
100(5) . . .
96(5) . . .
90(5) . . .
91(5) . . .
107(5) . . .
90(5) . . .
103(5) . . .
96(5) . . .
95(5) . . .
99(5) . . .
105(6) . . .
95(5) . . .
106(6) . . .
111(6) . . .
96(5) . . .
111(6) . . .
111(6) . . .
96(5) . . .
106(6) . . .
111(5) . . .
96(5) . . .
107(6) . . .
110(6) . . .
112(6) . . .
103(5) . . .
93(5) . . .
99(5) . . .
105(6) . . .
88(5) . . .
109(5) . . .
111(6) . . .
101(5) . . .
108(6) . . .
106(6) . . .
95(5) . . .
103(5) . . .
107(6) . . .
107(6) . . .
90(5) . . .
107(5) . . .
107(6) . . .
97(5) . . .
102(5) . . .
104(5) . . .
104(5) . . .
102(5) . . .
116(6) . . .
108(5) . . .
112(5) . . .
95(5) . . .
95(5) . . .
96(5) . . .
99(5) . . .
99(5) . . .
112(5) . . .
115(6) . . .
110(6) . . .
92(5) . . .
117(6) . . .
106(5) . . .
104(6) . . .
106(6) . . .
101(6) . . .
107(5) . . .
100(5) . . .
106(5) . . .
122(6) . . .
113(6) . . .
107(5) . . .
117(6) . . .
98(5) . . .
90(5) . . .
105(6) . . .
110(5) . . .
104(5) . . .
96(5) . . .
94(5) . . .
95(5) . . .
120(6) . . .
107(6) . . .
110(6) . . .
110(6) . . .
105(5) . . .
106(5) . . .
110(6) . . .
101(5) . . .
108(6) . . .
95(5) . . .
91(5) . . .
92(5) . . .
105(6) . . .
102(5) . . .
122(6) . . .
103(5) . . .
102(5) . . .
117(6) . . .
110(6) . . .
107(5) . . .
91(5) . . .
103(5) . . .
103(6) . . .
99(5) . . .
96(5) . . .
106(5) . . .
92(5) . . .
95(6) . . .
104(5) . . .
105(5) . . .
96(5) . . .
90(5) . . .
93(5) . . .
100(5) . . .
97(5) . . .
107(6) . . .
101(5) . . .
107(6) . . .
107(6) . . .
93(5) . . .
92(5) . . .
104(6) . . .
100(5) . . .
109(6) . . .
109(5) . . .
98(5) . . .
107(6) . . .
97(5) . . .
90(5) . . .
114(6) . . .
105(6) . . .
90(5) . . .
106(5) . . .
115(6) . . .
106(5) . . .
99(5) . . .
97(5) . . .
89(5) . . .
103(5) . . .
96(5) . . .
89(5) . . .
102(6) . . .
91(5) . . .
98(5) . . .
99(5) . . .
104(5) . . .
101(5) . . .
107(6) . . .
106(5) . . .
97(5) . . .
102(5) . . .
107(6) . . .
99(5) . . .
107(5) . . .
95(5) . . .
92(5) . . .
98(6) . . .
100(5) . . .
109(5) . . .
105(5) . . .
98(5) . . .
111(6) . . .
105(5) . . .
105(5) . . .
101(5) . . .
85(5) . . .
104(6) . . .
102(6) . . .
90(5) . . .
111(5) . . .
105(5) . . .
93(5) . . .
112(6) . . .
111(5) . . .
95(5) . . .
114(6) . . .
104(5) . . .
105(5) . . .
116(6) . . .
105(5) . . .
103(6) . . .
104(6) . . .
99(5) . . .
96(5) . . .
106(6) . . .
113(6) . . .
108(6) . . .
96(5) . . .
94(5) . . .
96(5) . . .
103(6) . . .
94(5) . . .
83(5) . . .
113(5) . . .
100(5) . . .
115(6) . . .
98(5) . . .
111(5) . . .
124(6) . . .
102(5) . . .
98(6) . . .
95(5) . . .
101(5) . . .
85(5) . . .
94(5) . . .
98(6) . . .
87(5) . . .
100(5) . . .
92(5) . . .
83(5) . . .
95(5) . . .
95(5) . . .
100(5) . . .
97(5) . . .
103(5) . . .
98(6) . . .
92(5) . . .
96(5) . . .
103(5) . . .
89(5) . . .
103(6) . . .
102(5) . . .
105(5) . . .
91(5) . . .
96(5) . . .
117(6) . . .
97(5) . . .
91(5) . . .
90(5) . . .
96(5) . . .
93(5) . . .
102(6) . . .
99(5) . . .
102(5) . . .
111(6) . . .
106(5) . . .
102(5) . . .
103(5) . . .
94(5) . . .
103(6) . . .
98(6) . . .
100(5) . . .
103(5) . . .
95(5) . . .
101(5) . . .
101(5) . . .
95(5) . . .
97(5) . . .
101(5) . . .
100(5) . . .
98(5) . . .
105(5) . . .
90(5) . . .
97(5) . . .
81(5) . . .
78(5) . . .
122(6) . . .
106(5) . . .
101(5) . . .
114(6) . . .
103(5) . . .
107(5) . . .
90(5) . . .
96(5) . . .
95(5) . . .
114(6) . . .
106(5) . . .
96(5) . . .
109(6) . . .
89(5) . . .
97(5) . . .
97(5) . . .
93(5) . . .
88(5) . . .
93(5) . . .
102(5) . . .
106(5) . . .
96(5) . . .
99(5) . . .
103(6) . . .
108(6) . . .
111(5) . . .
110(5) . . .
104(6) . . .
92(5) . . .
99(5) . . .
96(5) . . .
116(6) . . .
100(5) . . .
94(5) . . .
101(5) . . .
102(5) . . .
106(5) . . .
96(5) . . .
89(5) . . .
98(5) . . .
99(5) . . .
101(5) . . .
112(6) . . .
88(5) . . .
96(5) . . .
110(5) . . .
99(5) . . .
109(6) . . .
97(5) . . .
80(5) . . .
100(5) . . .
96(5) . . .
82(5) . . .
86(5) . . .
112(5) . . .
97(5) . . .
95(5) . . .
95(6) . . .
97(5) . . .
96(5) . . .
108(5) . . .
110(6) . . .
106(5) . . .
101(6) . . .
86(5) . . .
105(5) . . .
118(6) . . .
106(6) . . .
96(5) . . .
106(5) . . .
97(5) . . .
105(6) . . .
107(5) . . .
106(5) . . .
100(5) . . .
98(5) . . .
95(5) . . .
93(5) . . .
110(6) . . .
92(5) . . .
100(5) . . .
100(5) . . .
104(6) . . .
109(5) . . .
100(5) . . .
89(5) . . .
94(5) . . .
96(5) . . .
87(5) . . .
105(5) . . .
95(5) . . .
104(6) . . .
108(6) . . .
99(5) . . .
82(5) . . .
92(5) . . .
93(5) . . .
95(5) . . .
104(5) . . .
106(5) . . .
102(5) . . .
95(6) . . .
86(5) . . .
92(5) . . .
83(5) . . .
83(5) . . .
95(5) . . .
117(6) . . .
90(5) . . .
117(6) . . .
103(6) . . .
100(5) . . .
102(5) . . .
92(5) . . .
97(5) . . .
99(5) . . .
105(6) . . .
91(5) . . .
118(6) . . .
109(5) . . .
112(6) . . .
93(5) . . .
91(5) . . .
82(5) . . .
94(5) . . .
104(5) . . .
106(6) . . .
101(5) . . .
104(5) . . .
104(5) . . .
92(5) . . .
97(6) . . .
91(5) . . .
84(5) . . .
101(6) . . .
110(6) . . .
99(5) . . .
100(5) . . .
98(5) . . .
92(5) . . .
104(6) . . .
102(6) . . .
97(5) . . .
109(5) . . .
105(6) . . .
107(6) . . .
94(5) . . .
95(5) . . .
103(5) . . .
98(6) . . .
84(5) . . .
105(6) . . .
98(5) . . .
97(5) . . .
96(5) . . .
107(6) . . .
98(5) . . .
97(5) . . .
94(5) . . .
98(5) . . .
101(6) . . .
95(5) . . .
93(5) . . .
107(5) . . .
96(5) . . .
97(5) . . .
93(5) . . .
95(5) . . .
89(5) . . .
103(6) . . .
94(5) . . .
106(6) . . .
114(6) . . .
100(5) . . .
97(5) . . .
100(5) . . .
105(5) . . .
89(5) . . .
97(5) . . .
90(5) . . .
105(6) . . .
94(5) . . .
86(5) . . .
96(5) . . .
97(5) . . .
102(6) . . .
101(5) . . .
102(5) . . .
92(5) . . .
104(6) . . .
107(6) . . .
100(5) . . .
89(5) . . .
92(5) . . .
91(5) . . .
103(5) . . .
103(5) . . .
99(5) . . .
99(5) . . .
92(6) . . .
104(6) . . .
104(5) . . .
101(5) . . .
103(5) . . .
104(5) . . .
106(6) . . .
85(5) . . .
93(5) . . .
110(6) . . .
116(6) . . .
99(5) . . .
93(5) . . .
99(5) . . .
96(5) . . .
86(5) . . .
98(6) . . .
90(5) . . .
100(5) . . .
94(5) . . .
104(6) . . .
96(5) . . .
93(5) . . .
88(5) . . .
105(5) . . .
114(6) . . .
90(5) . . .
103(5) . . .
109(6) . . .
95(5) . . .
83(5) . . .
98(5) . . .
90(5) . . .
94(5) . . .
103(6) . . .
92(5) . . .
107(6) . . .
103(5) . . .
97(5) . . .
98(5) . . .
90(5) . . .
93(5) . . .
84(5) . . .
96(5) . . .
107(6) . . .
103(6) . . .
94(5) . . .
87(5) . . .
98(6) . . .
83(5) . . .
86(5) . . .
99(5) . . .
86(5) . . .
102(6) . . .
95(5) . . .
96(5) . . .
98(5) . . .
117(6) . . .
96(5) . . .
99(5) . . .
100(5) . . .
93(5) . . .
102(5) . . .
100(5) . . .
98(5) . . .
92(5) . . .
96(5) . . .
96(5) . . .
92(5) . . .
96(5) . . .
101(5) . . .
109(5) . . .
85(5) . . .
93(5) . . .
96(5) . . .
103(5) . . .
99(5) . . .
91(5) . . .
88(5) . . .
100(6) . . .
83(5) . . .
91(5) . . .
101(5) . . .
111(6) . . .
100(5) . . .
83(5) . . .
91(5) . . .
101(5) . . .
91(5) . . .
90(5) . . .
92(5) . . .
106(5) . . .
106(6) . . .
103(6) . . .
91(5) . . .
100(5) . . .
84(5) . . .
97(5) . . .
102(5) . . .
96(5) . . .
91(5) . . .
106(5) . . .
119(6) . . .
105(5) . . .
95(5) . . .
106(5) . . .
102(5) . . .
93(5) . . .
78(5) . . .
100(5) . . .
87(5) . . .
99(5) . . .
85(5) . . .
93(6) . . .
91(5) . . .
97(5) . . .
85(5) . . .
72(5) . . .
85(5) . . .
106(6) . . .
103(5) . . .
96(5) . . .
99(6) . . .
88(5) . . .
102(5) . . .
90(5) . . .
95(5) . . .
91(5) . . .
87(5) . . .
102(5) . . .
85(5) . . .
103(5) . . .
79(5) . . .
88(5) . . .
87(5) . . .
96(5) . . .
82(5) . . .
94(5) . . .
111(6) . . .
92(5) . . .
84(5) . . .
92(5) . . .
119(6) . . .
103(5) . . .
104(5) . . .
96(5) . . .
87(5) . . .
112(6) . . .
95(5) . . .
97(5) . . .
103(5) . . .
96(5) . . .
108(6) . . .
104(5) . . .
95(5) . . .
100(5) . . .
92(5) . . .
100(6) . . .
89(5) . . .
97(5) . . .
98(5) . . .
109(6) . . .
105(6) . . .
91(5) . . .
110(5) . . .
126(6) . . .
93(5) . . .
88(5) . . .
104(6) . . .
99(5) . . .
101(5) . . .
97(5) . . .
94(5) . . .
101(5) . . .
106(5) . . .
96(5) . . .
108(6) . . .
81(5) . . .
106(5) . . .
100(5) . . .
84(5) . . .
89(5) . . .
101(5) . . .
98(5) . . .
99(5) . . .
97(5) . . .
98(5) . . .
96(5) . . .
92(5) . . .
105(5) . . .
98(5) . . .
96(5) . . .
103(5) . . .
99(5) . . .
88(5) . . .
98(6) . . .
90(5) . . .
93(5) . . .
106(5) . . .
91(5) . . .
80(5) . . .
88(5) . . .
101(5) . . .
93(5) . . .
95(5) . . .
95(5) . . .
99(6) . . .
99(5) . . .
93(5) . . .
107(5) . . .
84(5) . . .
101(6) . . .
102(5) . . .
100(5) . . .
104(6) . . .
99(5) . . .
85(5) . . .
88(5) . . .
82(5) . . .
98(5) . . .
90(5) . . .
105(6) . . .
98(5) . . .
103(5) . . .
103(5) . . .
89(5) . . .
97(5) . . .
106(6) . . .
112(5) . . .
107(6) . . .
93(5) . . .
103(6) . . .
99(5) . . .
99(5) . . .
104(5) . . .
100(5) . . .
102(6) . . .
107(6) . . .
89(5) . . .
97(5) . . .
93(5) . . .
107(6) . . .
99(5) . . .
93(5) . . .
98(5) . . .
96(5) . . .
100(5) . . .
101(5) . . .
107(5) . . .
96(5) . . .
87(5) . . .
107(6) . . .
86(5) . . .
89(5) . . .
96(5) . . .
104(6) . . .
98(5) . . .
102(5) . . .
106(5) . . .
104(6) . . .
96(5) . . .
88(5) . . .
88(5) . . .
97(5) . . .
92(5) . . .
84(5) . . .
105(6) . . .
87(5) . . .
88(5) . . .
97(5) . . .
105(6) . . .
95(5) . . .
100(5) . . .
97(5) . . .
89(5) . . .
93(5) . . .
100(5) . . .
101(5) . . .
97(5) . . .
102(6) . . .
100(6) . . .
86(5) . . .
91(5) . . .
97(5) . . .
90(5) . . .
88(5) . . .
92(5) . . .
92(5) . . .
95(5) . . .
95(5) . . .
100(5) . . .
103(5) . . .
101(5) . . .
87(5) . . .
101(6) . . .
100(5) . . .
94(5) . . .
111(5) . . .
90(5) . . .
91(5) . . .
103(6) . . .
97(5) . . .
99(5) . . .
104(5) . . .
98(6) . . .
91(5) . . .
108(5) . . .
92(5) . . .
87(5) . . .
105(6) . . .
84(5) . . .
92(5) . . .
111(6) . . .
95(5) . . .
112(6) . . .
103(5) . . .
97(5) . . .
99(5) . . .
97(5) . . .
98(6) . . .
93(5) . . .
105(5) . . .
90(5) . . .
92(5) . . .
112(6) . . .
88(5) . . .
100(5) . . .
99(5) . . .
91(5) . . .
104(6) . . .
89(5) . . .
106(5) . . .
96(5) . . .
98(6) . . .
97(5) . . .
89(5) . . .
89(5) . . .
112(6) . . .
99(5) . . .
92(5) . . .
88(5) . . .
98(5) . . .
102(6) . . .
86(5) . . .
101(5) . . .
96(5) . . .
96(5) . . .
101(5) . . .
94(6) . . .
100(5) . . .
100(5) . . .
103(5) . . .
95(5) . . .
74(5) . . .
94(5) . . .
96(5) . . .
106(5) . . .
90(5) . . .
96(5) . . .
86(5) . . .
92(5) . . .
79(5) . . .
89(5) . . .
99(5) . . .
91(5) . . .
101(5) . . .
97(5) . . .
100(5) . . .
102(5) . . .
93(5) . . .
94(5) . . .
96(5) . . .
89(5) . . .
101(5) . . .
107(5) . . .
114(6) . . .
91(5) . . .
99(5) . . .
95(5) . . .
106(5) . . .
102(5) . . .
89(5) . . .
93(5) . . .
109(6) . . .
106(6) . . .
96(5) . . .
110(6) . . .
105(6) . . .
96(5) . . .
88(5) . . .
102(5) . . .
92(5) . . .
96(6) . . .
89(5) . . .
77(4) . . .
96(5) . . .
80(5) . . .
81(5) . . .
89(5) . . .
91(5) . . .
91(5) . . .
103(5) . . .
94(5) . . .
89(5) . . .
97(5) . . .
97(5) . . .
90(5) . . .
107(6) . . .
87(5) . . .
101(5) . . .
98(5) . . .
94(5) . . .
91(5) . . .
102(5) . . .
98(5) . . .
101(5) . . .
86(5) . . .
101(6) . . .
87(5) . . .
85(5) . . .
87(5) . . .
94(5) . . .
94(5) . . .
87(5) . . .
101(5) . . .
99(5) . . .
93(5) . . .
100(5) . . .
101(5) . . .
88(5) . . .
106(6) . . .
91(5) . . .
83(5) . . .
90(5) . . .
87(5) . . .
85(5) . . .
102(6) . . .
87(5) . . .
82(5) . . .
106(5) . . .
93(5) . . .
102(6) . . .
90(5) . . .
98(5) . . .
85(5) . . .
103(5) . . .
102(6) . . .
90(5) . . .
93(5) . . .
96(5) . . .
93(5) . . .
84(5) . . .
91(5) . . .
87(5) . . .
89(5) . . .
106(6) . . .
80(5) . . .
96(5) . . .
98(5) . . .
88(5) . . .
94(5) . . .
92(5) . . .
96(5) . . .
105(5) . . .
95(5) . . .
84(5) . . .
80(5) . . .
106(5) . . .
84(5) . . .
95(5) . . .
100(5) . . .
106(6) . . .
86(5) . . .
97(5) . . .
93(5) . . .
96(5) . . .
100(5) . . .
106(6) . . .
84(5) . . .
90(5) . . .
96(5) . . .
89(5) . . .
96(5) . . .
111(5) . . .
74(5) . . .
90(5) . . .
89(5) . . .
101(5) . . .
91(5) . . .
84(5) . . .
101(6) . . .
88(5) . . .
101(5) . . .
106(5) . . .
104(6) . . .
89(5) . . .
89(5) . . .
83(5) . . .
89(5) . . .
88(5) . . .
102(6) . . .
103(5) . . .
93(5) . . .
88(5) . . .
100(6) . . .
95(6) . . .
101(5) . . .
95(5) . . .
98(5) . . .
102(6) . . .
92(5) . . .
91(5) . . .
99(5) . . .
92(5) . . .
77(5) . . .
104(6) . . .
100(5) . . .
107(5) . . .
102(5) . . .
86(5) . . .
85(5) . . .
101(5) . . .
97(5) . . .
92(5) . . .
89(5) . . .
109(6) . . .
101(5) . . .
88(5) . . .
95(5) . . .
102(6) . . .
93(5) . . .
80(5) . . .
98(5) . . .
97(5) . . .
89(5) . . .
76(5) . . .
86(5) . . .
88(5) . . .
95(5) . . .
95(5) . . .
108(5) . . .
91(5) . . .
97(5) . . .
91(5) . . .
94(5) . . .
90(5) . . .
91(5) . . .
105(5) . . .
98(5) . . .
91(5) . . .
86(5) . . .
99(5) . . .
93(5) . . .
98(5) . . .
93(5) . . .
93(5) . . .
85(5) . . .
94(5) . . .
105(6) . . .
91(5) . . .
83(5) . . .
92(5) . . .
106(5) . . .
105(5) . . .
92(5) . . .
95(5) . . .
87(5) . . .
94(5) . . .
87(5) . . .
97(5) . . .
85(5) . . .
91(5) . . .
99(5) . . .
99(6) . . .
107(6) . . .
89(5) . . .
108(5) . . .
95(5) . . .
105(6) . . .
102(5) . . .
86(5) . . .
90(5) . . .
84(5) . . .
86(5) . . .
107(6) . . .
93(5) . . .
90(5) . . .
99(5) . . .
109(6) . . .
105(6) . . .
94(5) . . .
83(5) . . .
90(5) . . .
97(5) . . .
99(5) . . .
98(5) . . .
94(5) . . .
95(5) . . .
96(5) . . .
91(5) . . .
102(5) . . .
102(5) . . .
94(5) . . .
99(5) . . .
93(5) . . .
76(4) . . .
76(5) . . .
99(6) . . .
88(5) . . .
102(6) . . .
104(5) . . .
81(5) . . .
96(5) . . .
98(6) . . .
95(5) . . .
93(5) . . .
94(5) . . .
88(5) . . .
101(5) . . .
92(5) . . .
95(5) . . .
83(5) . . .
96(5) . . .
92(5) . . .
101(5) . . .
99(5) . . .
95(5) . . .
100(5) . . .
93(5) . . .
90(5) . . .
91(5) . . .
80(5) . . .
83(5) . . .
87(5) . . .
87(5) . . .
89(5) . . .
80(5) . . .
93(5) . . .
84(5) . . .
85(5) . . .
93(5) . . .
74(5) . . .
90(5) . . .
89(5) . . .
92(5) . . .
85(5) . . .
91(5) . . .
87(5) . . .
83(5) . . .
82(5) . . .
95(5) . . .
96(5) . . .
80(5) . . .
87(5) . . .
84(5) . . .
97(5) . . .
95(5) . . .
91(5) . . .
102(6) . . .
98(5) . . .
99(5) . . .
99(5) . . .
96(5) . . .
87(5) . . .
85(5) . . .
93(5) . . .
102(5) . . .
92(5) . . .
92(5) . . .
87(5) . . .
89(5) . . .
98(5) . . .
94(5) . . .
94(5) . . .
79(5) . . .
101(5) . . .
116(6) . . .
108(6) . . .
99(5) . . .
91(5) . . .
90(5) . . .
98(5) . . .
102(5) . . .
94(5) . . .
69(4) . . .
86(5) . . .
96(5) . . .
93(5) . . .
102(5) . . .
83(5) . . .
92(5) . . .
92(5) . . .
92(5) . . .
96(5) . . .
104(5) . . .
102(5) . . .
91(5) . . .
92(5) . . .
93(5) . . .
97(5) . . .
95(5) . . .
88(5) . . .
82(5) . . .
85(5) . . .
94(5) . . .
93(5) . . .
88(5) . . .
84(5) . . .
94(5) . . .
109(5) . . .
83(5) . . .
86(5) . . .
93(5) . . .
88(5) . . .
93(5) . . .
96(5) . . .
89(5) . . .
88(5) . . .
83(5) . . .
82(5) . . .
81(5) . . .
73(5) . . .
84(5) . . .
91(5) . . .
100(5) . . .
86(5) . . .
85(5) . . .
91(5) . . .
87(5) . . .
88(5) . . .
88(5) . . .
97(5) . . .
102(5) . . .
84(5) . . .
88(5) . . .
90(5) . . .
92(5) . . .
98(5) . . .
95(5) . . .
94(5) . . .
106(6) . . .
100(5) . . .
100(5) . . .
102(5) . . .
88(5) . . .
85(5) . . .
81(5) . . .
96(5) . . .
93(5) . . .
84(5) . . .
90(5) . . .
91(5) . . .
98(5) . . .
99(5) . . .
87(5) . . .
85(5) . . .
89(5) . . .
95(5) . . .
96(5) . . .
104(6) . . .
83(5) . . .
92(5) . . .
82(5) . . .
81(5) . . .
95(5) . . .
80(5) . . .
98(5) . . .
105(5) . . .
86(5) . . .
89(5) . . .
87(5) . . .
92(5) . . .
101(5) . . .
104(5) . . .
85(5) . . .
87(5) . . .
95(5) . . .
87(5) . . .
87(5) . . .
92(5) . . .
92(5) . . .
87(5) . . .
90(5) . . .
99(5) . . .
76(4) . . .
88(5) . . .
84(5) . . .
82(5) . . .
95(5) . . .
107(6) . . .
96(5) . . .
109(6) . . .
87(5) . . .
88(5) . . .
102(5) . . .
101(5) . . .
89(5) . . .
93(5) . . .
86(5) . . .
94(5) . . .
90(5) . . .
90(5) . . .
99(5) . . .
93(5) . . .
73(5) . . .
92(5) . . .
86(5) . . .
83(5) . . .
87(5) . . .
81(5) . . .
74(5) . . .
89(5) . . .
101(5) . . .
101(5) . . .
86(5) . . .
98(5) . . .
97(5) . . .
83(5) . . .
84(5) . . .
94(5) . . .
94(5) . . .
88(5) . . .
85(5) . . .
88(5) . . .
107(6) . . .
95(5) . . .
78(5) . . .
93(5) . . .
90(5) . . .
87(5) . . .
95(5) . . .
89(5) . . .
73(4) . . .
80(5) . . .
80(5) . . .
92(5) . . .
87(5) . . .
85(5) . . .
99(6) . . .
83(5) . . .
96(5) . . .
98(5) . . .
86(5) . . .
83(5) . . .
90(5) . . .
94(5) . . .
96(5) . . .
98(5) . . .
83(5) . . .
87(5) . . .
83(5) . . .
82(5) . . .
82(5) . . .
101(6) . . .
78(5) . . .
88(5) . . .
87(5) . . .
100(5) . . .
85(5) . . .
81(5) . . .
86(5) . . .
87(5) . . .
82(5) . . .
85(5) . . .
78(5) . . .
96(5) . . .
81(5) . . .
85(5) . . .
94(5) . . .
89(5) . . .
95(5) . . .
102(5) . . .
81(5) . . .
85(5) . . .
84(5) . . .
98(5) . . .
100(5) . . .
97(5) . . .
92(5) . . .
97(5) . . .
92(5) . . .
85(5) . . .
83(5) . . .
103(6) . . .
83(5) . . .
90(5) . . .
85(5) . . .
89(5) . . .
94(5) . . .
85(5) . . .
89(5) . . .
97(5) . . .
100(6) . . .
99(5) . . .
91(5) . . .
89(5) . . .
81(5) . . .
83(5) . . .
88(5) . . .
93(5) . . .
89(5) . . .
88(5) . . .
93(5) . . .
85(5) . . .
77(5) . . .
90(5) . . .
81(5) . . .
86(6) . . .
78(5) . . .
92(5) . . .
97(5) . . .
102(6) . . .
94(5) . . .
82(5) . . .
104(5) . . .
85(5) . . .
95(5) . . .
88(5) . . .
88(5) . . .
94(5) . . .
83(5) . . .
86(5) . . .
75(5) . . .
99(5) . . .
93(5) . . .
100(5) . . .
93(5) . . .
88(5) . . .
96(5) . . .
88(5) . . .
90(5) . . .
86(5) . . .
110(6) . . .
97(5) . . .
87(5) . . .
101(6) . . .
93(5) . . .
99(5) . . .
84(5) . . .
98(5) . . .
89(5) . . .
74(5) . . .
86(5) . . .
92(5) . . .
75(4) . . .
91(5) . . .
88(5) . . .
95(5) . . .
84(5) . . .
101(5) . . .
90(5) . . .
83(5) . . .
91(5) . . .
90(5) . . .
91(5) . . .
97(5) . . .
75(5) . . .
88(5) . . .
88(5) . . .
80(5) . . .
103(6) . . .
100(6) . . .
83(5) . . .
87(5) . . .
81(5) . . .
90(5) . . .
76(5) . . .
79(5) . . .
85(5) . . .
95(5) . . .
88(5) . . .
86(5) . . .
81(5) . . .
95(5) . . .
96(5) . . .
95(5) . . .
93(5) . . .
79(5) . . .
104(5) . . .
86(5) . . .
89(5) . . .
90(5) . . .
83(5) . . .
86(5) . . .
89(5) . . .
72(5) . . .
87(5) . . .
84(5) . . .
89(5) . . .
93(5) . . .
93(5) . . .
83(5) . . .
90(5) . . .
82(5) . . .
91(5) . . .
76(5) . . .
91(5) . . .
73(4) . . .
84(5) . . .
94(5) . . .
104(6) . . .
89(5) . . .
85(5) . . .
89(5) . . .
80(5) . . .
99(6) . . .
97(5) . . .
78(5) . . .
93(5) . . .
95(5) . . .
85(5) . . .
91(5) . . .
80(5) . . .
84(5) . . .
78(5) . . .
85(5) . . .
97(5) . . .
97(5) . . .
97(5) . . .
80(5) . . .
97(5) . . .
101(5) . . .
91(5) . . .
92(5) . . .
82(5) . . .
79(5) . . .
79(5) . . .
94(5) . . .
84(5) . . .
81(5) . . .
88(5) . . .
95(5) . . .
80(5) . . .
88(5) . . .
79(5) . . .
82(5) . . .
101(5) . . .
97(5) . . .
105(6) . . .
81(5) . . .
85(5) . . .
80(5) . . .
83(5) . . .
91(5) . . .
83(5) . . .
91(5) . . .
92(5) . . .
83(5) . . .
85(5) . . .
84(5) . . .
80(5) . . .
77(5) . . .
85(5) . . .
87(5) . . .
92(5) . . .
91(5) . . .
80(5) . . .
83(5) . . .
83(5) . . .
94(5) . . .
88(5) . . .
102(5) . . .
74(4) . . .
79(5) . . .
84(5) . . .
93(5) . . .
99(5) . . .
91(5) . . .
87(5) . . .
92(5) . . .
92(5) . . .
92(5) . . .
82(5) . . .
83(5) . . .
83(5) . . .
88(5) . . .
100(5) . . .
97(5) . . .
90(5) . . .
90(5) . . .
94(5) . . .
91(5) . . .
79(5) . . .
91(5) . . .
95(5) . . .
75(5) . . .
84(5) . . .
90(5) . . .
87(5) . . .
91(5) . . .
88(5) . . .
86(5) . . .
80(5) . . .
73(5) . . .
97(5) . . .
88(5) . . .
91(5) . . .
87(5) . . .
100(6) . . .
83(5) . . .
96(5) . . .
83(5) . . .
87(5) . . .
90(5) . . .
80(5) . . .
75(4) . . .
82(5) . . .
72(5) . . .
93(5) . . .
85(5) . . .
89(5) . . .
82(5) . . .
81(5) . . .
92(5) . . .
89(5) . . .
98(5) . . .
96(5) . . .
73(5) . . .
79(5) . . .
89(5) . . .
95(5) . . .
80(5) . . .
89(5) . . .
89(5) . . .
79(5) . . .
86(5) . . .
77(5) . . .
87(5) . . .
82(5) . . .
106(6) . . .
100(5) . . .
95(5) . . .
97(6) . . .
78(5) . . .
84(5) . . .
100(5) . . .
83(5) . . .
83(5) . . .
92(5) . . .
81(5) . . .
94(5) . . .
95(5) . . .
94(5) . . .
97(5) . . .
60(4) . . .
85(5) . . .
91(5) . . .
87(5) . . .
85(5) . . .
86(5) . . .
89(5) . . .
82(5) . . .
84(5) . . .
85(5) . . .
76(5) . . .
92(5) . . .
85(5) . . .
94(5) . . .
86(5) . . .
74(5) . . .
78(5) . . .
90(5) . . .
94(6) . . .
84(5) . . .
84(5) . . .
82(5) . . .
76(5) . . .
74(5) . . .
88(5) . . .
96(5) . . .
98(5) . . .
93(5) . . .
86(5) . . .
82(5) . . .
80(5) . . .
96(5) . . .
89(5) . . .
81(5) . . .
93(6) . . .
79(5) . . .
95(5) . . .
86(5) . . .
95(5) . . .
89(5) . . .
86(5) . . .
96(5) . . .
80(5) . . .
84(5) . . .
87(5) . . .
77(5) . . .
84(5) . . .
98(6) . . .
90(5) . . .
90(5) . . .
99(5) . . .
85(5) . . .
83(5) . . .
85(5) . . .
86(5) . . .
96(5) . . .
94(5) . . .
81(5) . . .
78(5) . . .
84(5) . . .
80(5) . . .
84(5) . . .
80(5) . . .
78(5) . . .
83(5) . . .
94(5) . . .
90(5) . . .
90(5) . . .
85(5) . . .
90(5) . . .
85(5) . . .
81(5) . . .
89(5) . . .
88(5) . . .
102(5) . . .
86(5) . . .
83(5) . . .
93(5) . . .
91(5) . . .
87(5) . . .
86(5) . . .
86(5) . . .
81(5) . . .
95(5) . . .
74(4) . . .
78(5) . . .
82(5) . . .
99(5) . . .
92(5) . . .
82(5) . . .
89(5) . . .
88(5) . . .
79(5) . . .
102(6) . . .
79(5) . . .
92(5) . . .
83(5) . . .
77(5) . . .
93(5) . . .
88(5) . . .
90(5) . . .
71(5) . . .
86(5) . . .
76(5) . . .
87(5) . . .
80(5) . . .
86(5) . . .
88(5) . . .
82(5) . . .
83(5) . . .
92(5) . . .
69(5) . . .
84(5) . . .
80(5) . . .
89(5) . . .
85(5) . . .
91(5) . . .
93(5) . . .
85(5) . . .
76(5) . . .
86(5) . . .
82(5) . . .
79(5) . . .
80(5) . . .
88(5) . . .
91(5) . . .
95(6) . . .
86(5) . . .
81(5) . . .
87(5) . . .
84(5) . . .
83(5) . . .
95(5) . . .
91(5) . . .
77(5) . . .
84(5) . . .
80(5) . . .
91(5) . . .
96(5) . . .
88(5) . . .
89(5) . . .
77(5) . . .
80(5) . . .
77(5) . . .
76(4) . . .
86(5) . . .
89(5) . . .
76(5) . . .
92(5) . . .
92(5) . . .
88(5) . . .
87(5) . . .
98(5) . . .
94(5) . . .
92(5) . . .
80(5) . . .
81(5) . . .
88(5) . . .
89(5) . . .
95(5) . . .
97(6) . . .
97(5) . . .
84(5) . . .
82(5) . . .
93(5) . . .
86(5) . . .
74(5) . . .
91(5) . . .
73(4) . . .
93(5) . . .
83(5) . . .
99(5) . . .
73(4) . . .
79(5) . . .
94(5) . . .
87(5) . . .
78(5) . . .
82(5) . . .
87(5) . . .
76(5) . . .
92(6) . . .
88(5) . . .
79(5) . . .
74(4) . . .
93(5) . . .
87(5) . . .
83(5) . . .
82(5) . . .
89(5) . . .
87(5) . . .
86(5) . . .
78(5) . . .
84(5) . . .
94(5) . . .
81(5) . . .
84(5) . . .
75(5) . . .
84(5) . . .
74(5) . . .
78(5) . . .
81(5) . . .
86(5) . . .
89(5) . . .
81(5) . . .
77(5) . . .
89(5) . . .
84(5) . . .
87(5) . . .
100(5) . . .
102(6) . . .
90(5) . . .
87(5) . . .
83(5) . . .
84(5) . . .
97(5) . . .
88(5) . . .
85(5) . . .
77(5) . . .
84(5) . . .
89(5) . . .
92(5) . . .
88(5) . . .
80(5) . . .
98(5) . . .
95(6) . . .
84(5) . . .
95(5) . . .
82(5) . . .
87(5) . . .
95(5) . . .
99(5) . . .
75(5) . . .
89(5) . . .
89(5) . . .
89(5) . . .
90(5) . . .
87(5) . . .
84(5) . . .
80(5) . . .
75(5) . . .
73(5) . . .
84(5) . . .
84(5) . . .
86(5) . . .
72(5) . . .
89(5) . . .
82(5) . . .
91(5) . . .
89(5) . . .
80(5) . . .
92(5) . . .
82(5) . . .
91(5) . . .
79(5) . . .
84(5) . . .
91(5) . . .
80(5) . . .
77(5) . . .
88(5) . . .
93(5) . . .
86(5) . . .
89(5) . . .
93(5) . . .
89(5) . . .
83(5) . . .
90(5) . . .
71(4) . . .
84(5) . . .
89(5) . . .
93(5) . . .
83(5) . . .
77(5) . . .
86(5) . . .
82(5) . . .
89(5) . . .
86(5) . . .
85(5) . . .
79(5) . . .
79(5) . . .
74(5) . . .
82(5) . . .
84(5) . . .
90(5) . . .
88(5) . . .
75(5) . . .
75(4) . . .
81(5) . . .
79(5) . . .
75(5) . . .
76(5) . . .
95(5) . . .
95(5) . . .
85(5) . . .
97(5) . . .
65(4) . . .
79(5) . . .
76(5) . . .
102(6) . . .
88(5) . . .
85(5) . . .
93(5) . . .
74(5) . . .
86(5) . . .
65(4) . . .
77(5) . . .
93(5) . . .
82(5) . . .
87(5) . . .
74(5) . . .
84(5) . . .
93(5) . . .
91(5) . . .
91(6) . . .
75(5) . . .
88(5) . . .
93(5) . . .
69(4) . . .
74(5) . . .
91(5) . . .
85(5) . . .
94(5) . . .
87(5) . . .
82(5) . . .
77(5) . . .
84(5) . . .
80(5) . . .
84(5) . . .
79(5) . . .
75(5) . . .
66(4) . . .
77(5) . . .
81(5) . . .
75(5) . . .
65(4) . . .
76(5) . . .
83(5) . . .
85(5) . . .
84(5) . . .
71(4) . . .
78(5) . . .
83(5) . . .
78(5) . . .
72(5) . . .
86(5) . . .
83(5) . . .
72(4) . . .
87(5) . . .
82(5) . . .
87(5) . . .
92(5) . . .
80(5) . . .
80(5) . . .
87(5) . . .
88(5) . . .
73(4) . . .
79(5) . . .
89(5) . . .
89(5) . . .
87(5) . . .
81(5) . . .
69(4) . . .
82(5) . . .
80(5) . . .
88(5) . . .
73(5) . . .
96(5) . . .
89(5) . . .
83(5) . . .
99(5) . . .
72(5) . . .
90(5) . . .
87(5) . . .
82(5) . . .
87(5) . . .
75(5) . . .
82(5) . . .
76(5) . . .
65(4) . . .
80(5) . . .
87(5) . . .
89(5) . . .
79(5) . . .
83(5) . . .
77(5) . . .
81(5) . . .
67(4) . . .
74(5) . . .
83(5) . . .
88(5) . . .
78(5) . . .
75(5) . . .
88(5) . . .
90(5) . . .
86(5) . . .
83(5) . . .
81(5) . . .
94(5) . . .
82(5) . . .
88(5) . . .
80(5) . . .
92(5) . . .
85(5) . . .
90(5) . . .
90(5) . . .
87(5) . . .
78(5) . . .
88(5) . . .
84(5) . . .
71(4) . . .
84(5) . . .
81(5) . . .
97(5) . . .
92(5) . . .
74(4) . . .
82(5) . . .
83(5) . . .
79(5) . . .
82(5) . . .
66(4) . . .
71(4) . . .
87(5) . . .
98(5) . . .
82(5) . . .
88(5) . . .
73(5) . . .
69(5) . . .
81(5) . . .
87(5) . . .
77(5) . . .
82(5) . . .
77(5) . . .
84(5) . . .
81(5) . . .
78(5) . . .
82(5) . . .
85(5) . . .
84(5) . . .
82(5) . . .
71(4) . . .
72(5) . . .
74(5) . . .
85(5) . . .
75(4) . . .
84(5) . . .
95(5) . . .
82(5) . . .
88(5) . . .
69(4) . . .
92(5) . . .
85(5) . . .
83(5) . . .
84(5) . . .
86(5) . . .
80(5) . . .
94(6) . . .
83(5) . . .
84(5) . . .
92(5) . . .
86(5) . . .
90(5) . . .
77(5) . . .
83(5) . . .
71(4) . . .
86(5) . . .
72(5) . . .
75(5) . . .
79(5) . . .
94(5) . . .
86(5) . . .
88(5) . . .
69(4) . . .
77(5) . . .
79(5) . . .
85(5) . . .
78(5) . . .
101(5) . . .
86(5) . . .
77(5) . . .
77(5) . . .
74(5) . . .
75(5) . . .
82(5) . . .
88(5) . . .
85(5) . . .
74(5) . . .
86(5) . . .
71(4) . . .
76(5) . . .
74(5) . . .
84(5) . . .
88(5) . . .
80(5) . . .
78(5) . . .
72(4) . . .
83(5) . . .
84(5) . . .
89(5) . . .
77(5) . . .
82(5) . . .
81(5) . . .
85(5) . . .
83(5) . . .
77(5) . . .
80(5) . . .
80(5) . . .
67(4) . . .
93(5) . . .
73(5) . . .
83(5) . . .
89(5) . . .
78(5) . . .
77(5) . . .
87(5) . . .
79(5) . . .
78(5) . . .
82(5) . . .
79(5) . . .
85(5) . . .
83(5) . . .
77(5) . . .
81(5) . . .
72(5) . . .
71(4) . . .
77(5) . . .
79(5) . . .
75(4) . . .
84(5) . . .
76(5) . . .
85(5) . . .
77(5) . . .
80(5) . . .
67(4) . . .
70(5) . . .
72(5) . . .
74(5) . . .
87(5) . . .
89(5) . . .
81(5) . . .
76(5) . . .
81(5) . . .
73(4) . . .
86(5) . . .
81(5) . . .
78(5) . . .
84(5) . . .
81(5) . . .
86(5) . . .
100(6) . . .
84(5) . . .
80(5) . . .
86(5) . . .
77(5) . . .
94(5) . . .
78(5) . . .
78(5) . . .
75(5) . . .
78(5) . . .
74(5) . . .
93(5) . . .
80(5) . . .
79(5) . . .
80(5) . . .
93(5) . . .
86(5) . . .
87(5) . . .
80(5) . . .
82(5) . . .
70(5) . . .
72(5) . . .
69(4) . . .
82(5) . . .
87(5) . . .
87(5) . . .
84(5) . . .
93(5) . . .
78(5) . . .
79(5) . . .
76(5) . . .
77(5) . . .
67(4) . . .
85(5) . . .
92(5) . . .
87(5) . . .
78(5) . . .
91(5) . . .
79(5) . . .
82(5) . . .
79(5) . . .
70(4) . . .
88(5) . . .
75(5) . . .
70(4) . . .
74(5) . . .
85(5) . . .
78(5) . . .
82(5) . . .
77(5) . . .
77(5) . . .
72(4) . . .
81(5) . . .
82(5) . . .
87(5) . . .
69(4) . . .
81(5) . . .
87(5) . . .
75(5) . . .
84(5) . . .
89(5) . . .
82(5) . . .
73(4) . . .
87(5) . . .
76(5) . . .
79(5) . . .
91(5) . . .
79(5) . . .
78(5) . . .
79(5) . . .
79(5) . . .
85(5) . . .
71(4) . . .
77(5) . . .
72(5) . . .
71(4) . . .
87(5) . . .
99(5) . . .
82(5) . . .
80(5) . . .
87(5) . . .
72(4) . . .
80(5) . . .
71(5) . . .
74(5) . . .
68(4) . . .
72(4) . . .
77(5) . . .
78(5) . . .
79(5) . . .
82(5) . . .
78(5) . . .
77(5) . . .
77(5) . . .
82(5) . . .
77(5) . . .
77(5) . . .
83(5) . . .
75(5) . . .
73(5) . . .
66(4) . . .
88(5) . . .
76(5) . . .
73(5) . . .
77(5) . . .
84(5) . . .
76(5) . . .
81(5) . . .
78(5) . . .
75(5) . . .
69(4) . . .
84(5) . . .
80(5) . . .
97(5) . . .
81(5) . . .
77(5) . . .
77(5) . . .
83(5) . . .
79(5) . . .
68(4) . . .
79(5) . . .
76(5) . . .
95(5) . . .
80(5) . . .
78(5) . . .
78(5) . . .
80(5) . . .
69(4) . . .
71(5) . . .
93(5) . . .
85(5) . . .
82(5) . . .
79(5) . . .
65(4) . . .
81(5) . . .
67(4) . . .
65(4) . . .
71(5) . . .
76(5) . . .
74(5) . . .
76(5) . . .
81(5) . . .
78(5) . . .
76(5) . . .
74(5) . . .
79(5) . . .
70(4) . . .
75(5) . . .
76(5) . . .
85(5) . . .
87(5) . . .
84(5) . . .
77(5) . . .
72(5) . . .
86(5) . . .
72(4) . . .
82(5) . . .
75(5) . . .
93(5) . . .
68(4) . . .
84(5) . . .
65(4) . . .
83(5) . . .
85(5) . . .
95(5) . . .
85(5) . . .
72(4) . . .
71(5) . . .
84(5) . . .
84(5) . . .
82(5) . . .
72(5) . . .
71(5) . . .
73(5) . . .
72(4) . . .
79(5) . . .
69(4) . . .
80(5) . . .
68(4) . . .
82(5) . . .
68(4) . . .
73(4) . . .
85(5) . . .
82(5) . . .
82(5) . . .
65(4) . . .
76(5) . . .
77(5) . . .
76(5) . . .
86(5) . . .
83(5) . . .
67(4) . . .
70(5) . . .
92(5) . . .
83(5) . . .
71(5) . . .
88(5) . . .
65(4) . . .
77(5) . . .
77(5) . . .
73(5) . . .
75(5) . . .
70(4) . . .
75(5) . . .
84(5) . . .
74(5) . . .
65(4) . . .
65(4) . . .
79(5) . . .
73(4) . . .
76(5) . . .
92(6) . . .
81(5) . . .
76(5) . . .
88(5) . . .
87(5) . . .
80(5) . . .
77(5) . . .
78(5) . . .
82(5) . . .
88(5) . . .
78(5) . . .
65(4) . . .
74(5) . . .
86(5) . . .
77(5) . . .
94(6) . . .
93(5) . . .
79(5) . . .
81(5) . . .
87(5) . . .
87(5) . . .
74(5) . . .
75(4) . . .
76(5) . . .
76(5) . . .
62(4) . . .
80(5) . . .
75(5) . . .
75(5) . . .
84(5) . . .
72(5) . . .
79(5) . . .
79(5) . . .
81(5) . . .
82(5) . . .
73(5) . . .
74(5) . . .
73(4) . . .
75(5) . . .
88(5) . . .
76(5) . . .
81(5) . . .
71(4) . . .
79(5) . . .
84(5) . . .
76(5) . . .
77(5) . . .
78(5) . . .
84(5) . . .
80(5) . . .
84(5) . . .
73(4) . . .
63(4) . . .
75(5) . . .
75(5) . . .
76(5) . . .
70(4) . . .
83(5) . . .
77(5) . . .
88(5) . . .
87(5) . . .
73(4) . . .
86(5) . . .
79(5) . . .
77(5) . . .
88(5) . . .
86(5) . . .
92(5) . . .
84(5) . . .
75(5) . . .
80(5) . . .
88(5) . . .
77(5) . . .
87(5) . . .
83(5) . . .
79(5) . . .
74(4) . . .
77(5) . . .
75(5) . . .
86(5) . . .
74(5) . . .
79(5) . . .
87(5) . . .
80(5) . . .
75(5) . . .
78(5) . . .
80(5) . . .
82(5) . . .
81(5) . . .
93(5) . . .
78(5) . . .
83(5) . . .
77(5) . . .
78(5) . . .
79(5) . . .
77(5) . . .
70(4) . . .
72(4) . . .
79(5) . . .
62(4) . . .
79(5) . . .
83(5) . . .
83(5) . . .
85(5) . . .
72(4) . . .
78(5) . . .
82(5) . . .
80(5) . . .
80(5) . . .
91(5) . . .
84(5) . . .
80(5) . . .
72(5) . . .
78(5) . . .
84(5) . . .
83(5) . . .
80(5) . . .
90(5) . . .
81(5) . . .
72(5) . . .
71(4) . . .
77(5) . . .
76(5) . . .
85(5) . . .
68(4) . . .
82(5) . . .
83(5) . . .
87(5) . . .
71(5) . . .
78(5) . . .
76(5) . . .
88(5) . . .
72(4) . . .
79(5) . . .
84(5) . . .
79(5) . . .
81(5) . . .
73(5) . . .
72(4) . . .
88(5) . . .
68(4) . . .
85(5) . . .
79(5) . . .
82(5) . . .
72(5) . . .
74(4) . . .
72(5) . . .
78(5) . . .
78(5) . . .
88(5) . . .
78(5) . . .
78(5) . . .
76(5) . . .
75(5) . . .
76(5) . . .
75(4) . . .
77(5) . . .
76(5) . . .
73(4) . . .
72(4) . . .
75(5) . . .
74(5) . . .
77(5) . . .
77(5) . . .
66(4) . . .
76(5) . . .
74(5) . . .
78(5) . . .
83(5) . . .
87(5) . . .
83(5) . . .
68(4) . . .
75(5) . . .
84(5) . . .
66(4) . . .
78(5) . . .
72(4) . . .
73(5) . . .
87(5) . . .
82(5) . . .
78(5) . . .
73(5) . . .
72(5) . . .
87(5) . . .
81(5) . . .
83(5) . . .
70(5) . . .
73(5) . . .
70(4) . . .
69(4) . . .
75(5) . . .
87(5) . . .
84(5) . . .
90(5) . . .
100(5) . . .
79(5) . . .
72(5) . . .
80(5) . . .
72(4) . . .
81(5) . . .
73(5) . . .
86(5) . . .
81(5) . . .
85(5) . . .
78(5) . . .
76(5) . . .
78(5) . . .
74(5) . . .
74(4) . . .
80(5) . . .
73(5) . . .
69(5) . . .
69(5) . . .
77(4) . . .
75(5) . . .
69(4) . . .
82(5) . . .
83(5) . . .
80(5) . . .
78(5) . . .
79(5) . . .
76(5) . . .
77(5) . . .
79(5) . . .
74(5) . . .
81(5) . . .
75(5) . . .
88(5) . . .
86(5) . . .
69(4) . . .
83(5) . . .
84(5) . . .
81(5) . . .
75(4) . . .
81(5) . . .
64(4) . . .
71(5) . . .
69(4) . . .
82(5) . . .
84(5) . . .
87(5) . . .
83(5) . . .
74(4) . . .
79(5) . . .
92(5) . . .
85(5) . . .
83(5) . . .
78(5) . . .
67(4) . . .
86(5) . . .
83(5) . . .
72(5) . . .
72(4) . . .
74(4) . . .
75(5) . . .
83(5) . . .
92(5) . . .
76(5) . . .
63(4) . . .
69(4) . . .
78(5) . . .
81(5) . . .
81(5) . . .
70(4) . . .
89(5) . . .
82(5) . . .
71(5) . . .
74(4) . . .
70(4) . . .
79(5) . . .
80(5) . . .
79(5) . . .
75(4) . . .
80(5) . . .
67(4) . . .
81(5) . . .
72(4) . . .
75(4) . . .
83(5) . . .
62(4) . . .
75(5) . . .
76(5) . . .
68(4) . . .
76(5) . . .
76(5) . . .
83(5) . . .
74(5) . . .
68(4) . . .
75(5) . . .
75(5) . . .
87(5) . . .
74(5) . . .
83(5) . . .
72(5) . . .
69(5) . . .
75(5) . . .
70(4) . . .
81(5) . . .
65(4) . . .
81(5) . . .
85(5) . . .
74(5) . . .
75(4) . . .
77(5) . . .
82(5) . . .
84(5) . . .
74(5) . . .
74(5) . . .
75(5) . . .
72(5) . . .
85(5) . . .
82(5) . . .
78(5) . . .
81(5) . . .
81(5) . . .
69(4) . . .
84(5) . . .
71(4) . . .
70(4) . . .
72(5) . . .
78(5) . . .
78(5) . . .
81(5) . . .
86(5) . . .
76(5) . . .
78(5) . . .
72(4) . . .
76(5) . . .
73(5) . . .
89(5) . . .
85(5) . . .
75(5) . . .
78(5) . . .
84(5) . . .
74(5) . . .
75(5) . . .
72(4) . . .
83(5) . . .
69(4) . . .
87(5) . . .
71(4) . . .
80(5) . . .
77(5) . . .
80(5) . . .
67(4) . . .
70(4) . . .
75(5) . . .
81(5) . . .
84(5) . . .
78(5) . . .
79(5) . . .
65(4) . . .
74(5) . . .
86(5) . . .
74(5) . . .
72(4) . . .
87(5) . . .
84(5) . . .
78(5) . . .
75(5) . . .
81(5) . . .
72(4) . . .
76(5) . . .
76(5) . . .
87(5) . . .
69(4) . . .
68(4) . . .
68(4) . . .
84(5) . . .
77(5) . . .
76(5) . . .
70(4) . . .
78(5) . . .
81(5) . . .
79(5) . . .
86(5) . . .
89(5) . . .
72(4) . . .
81(5) . . .
86(5) . . .
87(5) . . .
75(5) . . .
79(5) . . .
77(5) . . .
74(5) . . .
67(4) . . .
79(5) . . .
83(5) . . .
76(5) . . .
75(5) . . .
77(5) . . .
80(5) . . .
68(5) . . .
72(5) . . .
86(5) . . .
71(4) . . .
67(5) . . .
72(5) . . .
84(5) . . .
83(5) . . .
71(5) . . .
77(5) . . .
78(5) . . .
68(4) . . .
73(4) . . .
63(4) . . .
70(4) . . .
78(5) . . .
70(5) . . .
72(4) . . .
78(5) . . .
83(5) . . .
78(5) . . .
73(5) . . .
80(5) . . .
74(5) . . .
79(5) . . .
65(4) . . .
76(5) . . .
85(5) . . .
70(4) . . .
77(5) . . .
76(5) . . .
76(5) . . .
76(5) . . .
74(5) . . .
74(5) . . .
68(5) . . .
84(5) . . .
68(4) . . .
76(5) . . .
76(5) . . .
78(5) . . .
68(4) . . .
67(4) . . .
74(5) . . .
81(5) . . .
75(5) . . .
81(5) . . .
76(5) . . .
64(4) . . .
73(5) . . .
80(5) . . .
76(5) . . .
79(5) . . .
83(5) . . .
66(4) . . .
78(5) . . .
85(5) . . .
77(5) . . .
68(5) . . .
67(4) . . .
73(5) . . .
78(5) . . .
81(5) . . .
74(5) . . .
77(5) . . .
84(5) . . .
78(5) . . .
79(5) . . .
95(5) . . .
68(4) . . .
69(4) . . .
73(4) . . .
96(5) . . .
71(4) . . .
77(5) . . .
71(4) . . .
74(5) . . .
67(4) . . .
80(5) . . .
83(5) . . .
95(6) . . .
72(4) . . .
81(5) . . .
80(5) . . .
77(5) . . .
78(5) . . .
77(5) . . .
79(5) . . .
80(5) . . .
77(5) . . .
84(5) . . .
63(4) . . .
76(5) . . .
79(5) . . .
80(5) . . .
73(5) . . .
78(5) . . .
78(5) . . .
80(5) . . .
82(5) . . .
73(4) . . .
83(5) . . .
67(4) . . .
82(5) . . .
87(5) . . .
81(5) . . .
91(5) . . .
78(5) . . .
80(5) . . .
70(5) . . .
67(4) . . .
74(4) . . .
84(5) . . .
74(5) . . .
76(5) . . .
82(5) . . .
73(4) . . .
82(5) . . .
79(5) . . .
76(5) . . .
82(5) . . .
74(4) . . .
69(4) . . .
62(4) . . .
73(5) . . .
72(5) . . .
75(5) . . .
75(5) . . .
88(5) . . .
72(5) . . .
63(4) . . .
79(5) . . .
88(5) . . .
84(5) . . .
80(5) . . .
84(5) . . .
78(5) . . .
79(5) . . .
91(5) . . .
82(5) . . .
69(4) . . .
72(5) . . .
72(5) . . .
74(5) . . .
73(5) . . .
79(5) . . .
74(5) . . .
75(5) . . .
78(5) . . .
94(5) . . .
88(5) . . .
63(4) . . .
79(5) . . .
79(5) . . .
79(5) . . .
69(4) . . .
67(4) . . .
80(5) . . .
75(5) . . .
71(4) . . .
68(4) . . .
65(4) . . .
66(4) . . .
82(5) . . .
86(5) . . .
88(5) . . .
71(4) . . .
80(5) . . .
72(5) . . .
91(5) . . .
76(5) . . .
75(5) . . .
71(5) . . .
72(5) . . .
85(5) . . .
75(5) . . .
73(5) . . .
70(5) . . .
67(4) . . .
61(4) . . .
69(4) . . .
73(5) . . .
67(4) . . .
81(5) . . .
73(4) . . .
88(5) . . .
72(4) . . .
70(5) . . .
74(5) . . .
79(5) . . .
76(5) . . .
72(4) . . .
74(5) . . .
82(5) . . .
84(5) . . .
76(5) . . .
69(4) . . .
78(5) . . .
73(5) . . .
83(5) . . .
72(5) . . .
76(5) . . .
72(5) . . .
73(4) . . .
78(5) . . .
72(5) . . .
87(5) . . .
88(5) . . .
76(5) . . .
74(4) . . .
74(5) . . .
86(5) . . .
69(4) . . .
73(5) . . .
88(5) . . .
80(5) . . .
70(5) . . .
71(5) . . .
76(5) . . .
77(5) . . .
82(5) . . .
78(5) . . .
80(5) . . .
73(4) . . .
77(5) . . .
77(5) . . .
74(5) . . .
76(5) . . .
68(4) . . .
71(4) . . .
70(5) . . .
66(5) . . .
79(5) . . .
73(5) . . .
68(4) . . .
71(4) . . .
63(4) . . .
70(4) . . .
92(5) . . .
70(4) . . .
72(4) . . .
74(4) . . .
84(5) . . .
79(5) . . .
87(5) . . .
74(5) . . .
70(4) . . .
83(5) . . .
80(5) . . .
74(5) . . .
74(5) . . .
74(5) . . .
83(5) . . .
75(5) . . .
74(5) . . .
75(5) . . .
69(4) . . .
83(5) . . .
76(5) . . .
78(5) . . .
73(5) . . .
72(5) . . .
84(5) . . .
61(4) . . .
83(5) . . .
61(4) . . .
75(5) . . .
71(4) . . .
71(4) . . .
70(4) . . .
79(5) . . .
93(5) . . .
70(4) . . .
78(5) . . .
82(5) . . .
72(5) . . .
68(4) . . .
72(4) . . .
75(4) . . .
79(5) . . .
75(5) . . .
69(5) . . .
85(5) . . .
75(5) . . .
69(4) . . .
68(4) . . .
83(5) . . .
94(5) . . .
81(5) . . .
86(5) . . .
76(5) . . .
84(5) . . .
83(5) . . .
87(5) . . .
74(5) . . .
62(4) . . .
62(4) . . .
82(5) . . .
74(5) . . .
74(5) . . .
74(5) . . .
77(5) . . .
80(5) . . .
79(5) . . .
74(5) . . .
71(5) . . .
65(4) . . .
65(4) . . .
72(5) . . .
67(4) . . .
69(5) . . .
83(5) . . .
62(4) . . .
72(5) . . .
73(5) . . .
73(5) . . .
70(4) . . .
78(5) . . .
69(5) . . .
70(5) . . .
66(4) . . .
79(5) . . .
87(5) . . .
85(5) . . .
64(4) . . .
76(5) . . .
75(4) . . .
80(5) . . .
78(5) . . .
66(4) . . .
76(5) . . .
70(4) . . .
81(5) . . .
73(5) . . .
80(5) . . .
72(5) . . .
72(4) . . .
69(4) . . .
76(5) . . .
67(4) . . .
77(5) . . .
86(5) . . .
76(5) . . .
80(5) . . .
72(4) . . .
71(4) . . .
79(5) . . .
80(5) . . .
74(5) . . .
63(4) . . .
72(4) . . .
79(5) . . .
61(4) . . .
71(5) . . .
81(5) . . .
83(5) . . .
78(5) . . .
80(5) . . .
88(5) . . .
84(5) . . .
89(5) . . .
77(5) . . .
81(5) . . .
74(5) . . .
75(5) . . .
74(4) . . .
85(5) . . .
76(5) . . .
65(4) . . .
76(5) . . .
70(4) . . .
84(5) . . .
64(4) . . .
84(5) . . .
66(4) . . .
64(4) . . .
83(5) . . .
90(5) . . .
79(5) . . .
66(4) . . .
74(4) . . .
70(4) . . .
68(4) . . .
73(5) . . .
74(5) . . .
82(5) . . .
74(4) . . .
72(4) . . .
74(5) . . .
67(4) . . .
72(4) . . .
67(4) . . .
66(4) . . .
69(4) . . .
82(5) . . .
82(5) . . .
68(4) . . .
75(5) . . .
72(4) . . .
76(5) . . .
81(5) . . .
69(4) . . .
74(5) . . .
70(4) . . .
73(4) . . .
78(5) . . .
67(4) . . .
73(5) . . .
75(4) . . .
94(5) . . .
76(5) . . .
65(4) . . .
65(4) . . .
84(5) . . .
73(4) . . .
76(5) . . .
74(5) . . .
67(5) . . .
75(5) . . .
64(4) . . .
68(4) . . .
78(5) . . .
70(5) . . .
67(4) . . .
68(4) . . .
72(4) . . .
79(5) . . .
64(4) . . .
63(4) . . .
57(4) . . .
60(4) . . .
69(4) . . .
71(5) . . .
69(4) . . .
71(4) . . .
75(5) . . .
72(5) . . .
63(4) . . .
63(4) . . .
67(4) . . .
71(5) . . .
66(4) . . .
66(5) . . .
66(4) . . .
71(4) . . .
66(4) . . .
74(5) . . .
78(5) . . .
83(5) . . .
69(4) . . .
66(4) . . .
84(5) . . .
80(5) . . .
79(5) . . .
80(5) . . .
83(5) . . .
70(4) . . .
66(4) . . .
75(5) . . .
65(4) . . .
70(5) . . .
79(5) . . .
68(4) . . .
70(4) . . .
78(5) . . .
71(4) . . .
77(5) . . .
91(5) . . .
76(4) . . .
83(5) . . .
74(5) . . .
69(5) . . .
71(5) . . .
89(5) . . .
74(4) . . .
64(4) . . .
60(4) . . .
68(4) . . .
69(4) . . .
72(4) . . .
70(4) . . .
76(5) . . .
83(5) . . .
78(5) . . .
61(4) . . .
65(4) . . .
62(4) . . .
73(5) . . .
70(4) . . .
63(4) . . .
55(4) . . .
73(5) . . .
67(5) . . .
65(4) . . .
62(4) . . .
77(5) . . .
80(5) . . .
76(5) . . .
72(4) . . .
80(5) . . .
75(5) . . .
67(4) . . .
73(4) . . .
73(5) . . .
75(5) . . .
75(5) . . .
79(5) . . .
74(4) . . .
71(4) . . .
73(5) . . .
85(5) . . .
71(5) . . .
68(4) . . .
77(5) . . .
66(4) . . .
74(5) . . .
69(4) . . .
77(5) . . .
76(5) . . .
82(5) . . .
63(4) . . .
69(5) . . .
68(4) . . .
64(4) . . .
76(5) . . .
76(5) . . .
76(5) . . .
74(4) . . .
72(4) . . .
70(4) . . .
78(5) . . .
66(4) . . .
69(4) . . .
68(4) . . .
74(5) . . .
76(5) . . .
74(5) . . .
60(4) . . .
73(4) . . .
83(5) . . .
86(5) . . .
74(5) . . .
74(4) . . .
73(5) . . .
63(4) . . .
73(5) . . .
84(5) . . .
67(4) . . .
59(4) . . .
68(5) . . .
71(5) . . .
74(4) . . .
69(4) . . .
74(5) . . .
69(5) . . .
69(5) . . .
78(5) . . .
71(4) . . .
83(5) . . .
79(5) . . .
71(5) . . .
76(5) . . .
73(4) . . .
78(5) . . .
76(5) . . .
71(5) . . .
64(4) . . .
68(4) . . .
80(5) . . .
65(5) . . .
64(4) . . .
80(5) . . .
79(5) . . .
70(5) . . .
72(5) . . .
67(4) . . .
69(4) . . .
60(4) . . .
70(4) . . .
76(5) . . .
75(5) . . .
72(4) . . .
70(4) . . .
67(4) . . .
78(5) . . .
67(5) . . .
57(4) . . .
63(4) . . .
62(4) . . .
64(4) . . .
74(5) . . .
72(4) . . .
80(5) . . .
82(5) . . .
72(4) . . .
71(5) . . .
71(4) . . .
76(5) . . .
69(5) . . .
77(5) . . .
74(5) . . .
74(4) . . .
78(5) . . .
66(4) . . .
67(4) . . .
75(5) . . .
75(5) . . .
71(4) . . .
68(5) . . .
69(5) . . .
67(4) . . .
73(4) . . .
76(5) . . .
69(5) . . .
64(4) . . .
65(4) . . .
80(5) . . .
65(4) . . .
71(4) . . .
75(5) . . .
67(4) . . .
68(4) . . .
67(5) . . .
74(5) . . .
85(5) . . .
78(5) . . .
66(4) . . .
73(5) . . .
73(5) . . .
70(5) . . .
79(5) . . .
67(4) . . .
78(5) . . .
71(5) . . .
68(5) . . .
78(5) . . .
72(4) . . .
73(5) . . .
71(5) . . .
80(5) . . .
85(5) . . .
63(4) . . .
84(5) . . .
69(4) . . .
82(5) . . .
68(4) . . .
80(5) . . .
75(5) . . .
62(4) . . .
64(4) . . .
69(4) . . .
75(5) . . .
67(4) . . .
79(5) . . .
70(4) . . .
75(5) . . .
81(5) . . .
66(4) . . .
63(4) . . .
81(5) . . .
74(5) . . .
71(5) . . .
81(5) . . .
76(5) . . .
65(4) . . .
79(5) . . .
66(4) . . .
65(4) . . .
72(4) . . .
80(5) . . .
75(4) . . .
80(5) . . .
78(5) . . .
71(4) . . .
70(4) . . .
68(4) . . .
86(5) . . .
77(5) . . .
77(5) . . .
70(4) . . .
76(5) . . .
70(4) . . .
73(5) . . .
68(4) . . .
80(5) . . .
68(5) . . .
68(4) . . .
57(4) . . .
83(5) . . .
77(5) . . .
61(4) . . .
75(5) . . .
88(5) . . .
69(5) . . .
71(4) . . .
64(4) . . .
50(4) . . .
72(5) . . .
72(5) . . .
89(5) . . .
87(5) . . .
58(4) . . .
64(4) . . .
84(5) . . .
79(5) . . .
76(5) . . .
77(5) . . .
63(4) . . .
76(5) . . .
65(4) . . .
74(5) . . .
60(4) . . .
64(4) . . .
71(5) . . .
67(4) . . .
74(5) . . .
65(4) . . .
77(5) . . .
86(5) . . .
69(4) . . .
57(4) . . .
67(5) . . .
72(5) . . .
68(4) . . .
73(4) . . .
82(5) . . .
79(5) . . .
77(5) . . .
71(4) . . .
73(4) . . .
73(5) . . .
74(5) . . .
69(4) . . .
75(5) . . .
79(5) . . .
64(4) . . .
67(5) . . .
73(5) . . .
75(5) . . .
83(5) . . .
70(4) . . .
74(4) . . .
73(5) . . .
66(4) . . .
65(4) . . .
63(4) . . .
71(5) . . .
71(5) . . .
62(4) . . .
62(4) . . .
64(4) . . .
62(4) . . .
75(5) . . .
74(4) . . .
84(5) . . .
86(5) . . .
60(4) . . .
65(4) . . .
69(4) . . .
81(5) . . .
77(5) . . .
67(4) . . .
75(5) . . .
76(5) . . .
71(5) . . .
67(5) . . .
67(4) . . .
70(5) . . .
62(4) . . .
70(5) . . .
76(5) . . .
78(5) . . .
71(4) . . .
78(5) . . .
74(5) . . .
75(5) . . .
66(4) . . .
63(4) . . .
67(4) . . .
66(4) . . .
79(5) . . .
67(4) . . .
66(4) . . .
77(5) . . .
70(4) . . .
73(5) . . .
77(5) . . .
67(4) . . .
68(4) . . .
69(5) . . .
75(5) . . .
81(5) . . .
69(4) . . .
80(5) . . .
79(5) . . .
80(5) . . .
58(4) . . .
74(5) . . .
75(5) . . .
79(5) . . .
56(4) . . .
81(5) . . .
76(5) . . .
67(4) . . .
75(5) . . .
79(5) . . .
71(4) . . .
66(4) . . .
80(5) . . .
66(4) . . .
59(4) . . .
58(4) . . .
76(5) . . .
67(4) . . .
65(5) . . .
70(5) . . .
72(4) . . .
68(4) . . .
73(4) . . .
85(5) . . .
69(4) . . .
60(4) . . .
72(4) . . .
78(5) . . .
76(5) . . .
64(4) . . .
66(4) . . .
64(4) . . .
59(4) . . .
62(5) . . .
59(4) . . .
76(5) . . .
76(5) . . .
70(5) . . .
65(4) . . .
62(4) . . .
66(4) . . .
61(4) . . .
82(5) . . .
75(5) . . .
71(5) . . .
67(4) . . .
76(5) . . .
65(4) . . .
66(5) . . .
53(4) . . .
83(5) . . .
82(5) . . .
69(4) . . .
62(4) . . .
68(4) . . .
65(4) . . .
74(5) . . .
58(4) . . .
71(4) . . .
71(4) . . .
55(4) . . .
67(4) . . .
77(5) . . .
72(4) . . .
68(4) . . .
77(5) . . .
83(5) . . .
73(5) . . .
74(5) . . .
74(5) . . .
73(4) . . .
62(4) . . .
75(5) . . .
58(4) . . .
56(4) . . .
69(4) . . .
61(4) . . .
63(4) . . .
66(4) . . .
71(4) . . .
55(4) . . .
71(5) . . .
71(5) . . .
69(5) . . .
63(4) . . .
55(4) . . .
73(5) . . .
62(4) . . .
78(5) . . .
78(5) . . .
63(4) . . .
76(5) . . .
72(5) . . .
65(5) . . .
65(4) . . .
64(4) . . .
78(5) . . .
65(4) . . .
72(5) . . .
66(4) . . .
78(5) . . .
82(5) . . .
74(5) . . .
60(4) . . .
69(4) . . .
66(4) . . .
71(5) . . .
72(5) . . .
77(5) . . .
67(4) . . .
79(5) . . .
75(5) . . .
77(5) . . .
61(4) . . .
68(4) . . .
68(4) . . .
57(4) . . .
57(4) . . .
74(5) . . .
76(5) . . .
72(5) . . .
74(5) . . .
67(4) . . .
63(4) . . .
75(4) . . .
69(5) . . .
62(4) . . .
67(5) . . .
64(4) . . .
72(4) . . .
81(5) . . .
77(5) . . .
69(4) . . .
73(5) . . .
72(5) . . .
61(4) . . .
69(5) . . .
59(4) . . .
75(5) . . .
66(4) . . .
70(5) . . .
73(5) . . .
76(5) . . .
69(4) . . .
67(4) . . .
64(4) . . .
79(5) . . .
76(5) . . .
76(5) . . .
70(4) . . .
75(5) . . .
70(4) . . .
62(4) . . .
70(4) . . .
55(4) . . .
55(4) . . .
63(4) . . .
61(4) . . .
69(4) . . .
60(4) . . .
63(4) . . .
61(4) . . .
78(5) . . .
72(4) . . .
83(5) . . .
69(5) . . .
65(4) . . .
66(4) . . .
57(4) . . .
75(5) . . .
62(4) . . .
65(4) . . .
74(4) . . .
74(5) . . .
81(5) . . .
75(5) . . .
72(5) . . .
70(4) . . .
82(5) . . .
66(4) . . .
66(5) . . .
66(4) . . .
81(5) . . .
72(4) . . .
69(4) . . .
68(5) . . .
65(4) . . .
55(4) . . .
70(4) . . .
80(5) . . .
75(5) . . .
68(5) . . .
57(4) . . .
59(4) . . .
58(4) . . .
63(4) . . .
72(5) . . .
70(4) . . .
66(4) . . .
74(5) . . .
73(4) . . .
69(4) . . .
69(4) . . .
73(5) . . .
48(4) . . .
70(5) . . .
60(4) . . .
67(4) . . .
69(4) . . .
73(5) . . .
60(4) . . .
63(4) . . .
60(4) . . .
69(5) . . .
73(5) . . .
73(5) . . .
80(5) . . .
76(5) . . .
70(4) . . .
74(5) . . .
61(4) . . .
78(5) . . .
76(5) . . .
74(5) . . .
81(5) . . .
78(5) . . .
58(4) . . .
69(4) . . .
67(4) . . .
75(5) . . .
70(4) . . .
69(4) . . .
73(4) . . .
63(4) . . .
68(5) . . .
73(5) . . .
70(4) . . .
65(4) . . .
72(5) . . .
57(4) . . .
58(4) . . .
67(4) . . .
78(5) . . .
63(4) . . .
63(4) . . .
65(4) . . .
61(4) . . .
64(4) . . .
76(5) . . .
72(5) . . .
73(5) . . .
66(4) . . .
69(4) . . .
65(4) . . .
71(5) . . .
70(4) . . .
63(4) . . .
68(4) . . .
86(5) . . .
73(5) . . .
73(5) . . .
66(4) . . .
77(5) . . .
68(4) . . .
71(5) . . .
88(5) . . .
77(5) . . .
84(5) . . .
66(4) . . .
77(5) . . .
74(4) . . .
79(5) . . .
80(5) . . .
66(5) . . .
69(4) . . .
63(4) . . .
73(4) . . .
69(4) . . .
66(5) . . .
68(4) . . .
74(5) . . .
65(4) . . .
68(4) . . .
78(5) . . .
63(4) . . .
68(4) . . .
77(5) . . .
74(5) . . .
55(4) . . .
73(5) . . .
66(4) . . .
62(4) . . .
66(4) . . .
69(5) . . .
77(5) . . .
81(5) . . .
65(4) . . .
76(5) . . .
67(4) . . .
59(4) . . .
67(4) . . .
75(5) . . .
68(4) . . .
59(4) . . .
68(4) . . .
76(5) . . .
63(4) . . .
63(4) . . .
62(4) . . .
71(5) . . .
68(4) . . .
72(4) . . .
75(5) . . .
77(5) . . .
65(4) . . .
74(4) . . .
71(4) . . .
78(5) . . .
77(5) . . .
70(4) . . .
69(4) . . .
72(4) . . .
68(5) . . .
58(4) . . .
64(4) . . .
66(4) . . .
73(5) . . .
75(5) . . .
62(4) . . .
62(4) . . .
79(5) . . .
81(5) . . .
67(4) . . .
70(4) . . .
69(4) . . .
73(4) . . .
64(4) . . .
67(4) . . .
64(5) . . .
69(4) . . .
72(4) . . .
68(4) . . .
67(4) . . .
72(5) . . .
58(4) . . .
63(4) . . .
64(5) . . .
70(5) . . .
64(4) . . .
66(4) . . .
71(4) . . .
76(5) . . .
70(5) . . .
61(4) . . .
72(4) . . .
63(4) . . .
61(4) . . .
67(5) . . .
72(5) . . .
73(4) . . .
70(5) . . .
76(5) . . .
79(5) . . .
69(4) . . .
63(4) . . .
74(5) . . .
65(4) . . .
71(5) . . .
64(4) . . .
73(4) . . .
66(4) . . .
64(4) . . .
67(4) . . .
68(4) . . .
78(5) . . .
67(4) . . .
64(4) . . .
63(4) . . .
69(4) . . .
68(4) . . .
70(4) . . .
65(5) . . .
63(4) . . .
68(4) . . .
63(4) . . .
73(5) . . .
71(5) . . .
65(4) . . .
81(5) . . .
65(4) . . .
70(5) . . .
64(4) . . .
61(4) . . .
67(4) . . .
69(4) . . .
70(4) . . .
66(4) . . .
75(5) . . .
67(4) . . .
71(4) . . .
74(5) . . .
67(4) . . .
63(4) . . .
67(4) . . .
65(4) . . .
54(4) . . .
70(5) . . .
63(4) . . .
59(4) . . .
75(5) . . .
66(4) . . .
73(5) . . .
68(4) . . .
67(4) . . .
60(4) . . .
74(5) . . .
61(4) . . .
76(5) . . .
69(4) . . .
71(4) . . .
60(4) . . .
70(5) . . .
61(4) . . .
73(5) . . .
71(4) . . .
65(4) . . .
59(4) . . .
73(4) . . .
76(5) . . .
58(4) . . .
67(5) . . .
60(4) . . .
71(4) . . .
79(5) . . .
58(4) . . .
68(5) . . .
72(5) . . .
65(4) . . .
62(4) . . .
73(5) . . .
72(5) . . .
58(4) . . .
67(4) . . .
61(4) . . .
59(4) . . .
71(5) . . .
76(5) . . .
75(5) . . .
75(5) . . .
70(5) . . .
60(4) . . .
73(5) . . .
80(5) . . .
73(5) . . .
66(4) . . .
63(4) . . .
71(5) . . .
72(4) . . .
66(4) . . .
76(5) . . .
68(5) . . .
64(4) . . .
75(5) . . .
64(4) . . .
79(5) . . .
78(5) . . .
52(4) . . .
58(4) . . .
66(4) . . .
57(4) . . .
62(4) . . .
63(4) . . .
65(4) . . .
67(5) . . .
72(5) . . .
72(5) . . .
60(4) . . .
63(4) . . .
57(4) . . .
65(5) . . .
60(4) . . .
66(4) . . .
61(4) . . .
72(5) . . .
67(5) . . .
76(5) . . .
66(4) . . .
49(4) . . .
57(4) . . .
57(4) . . .
68(4) . . .
68(4) . . .
71(4) . . .
63(4) . . .
60(4) . . .
59(4) . . .
58(4) . . .
69(4) . . .
68(5) . . .
67(5) . . .
72(5) . . .
61(4) . . .
66(4) . . .
60(4) . . .
78(5) . . .
54(4) . . .
56(4) . . .
65(4) . . .
59(4) . . .
64(5) . . .
58(4) . . .
67(4) . . .
72(5) . . .
72(5) . . .
67(4) . . .
61(4) . . .
67(4) . . .
63(4) . . .
63(4) . . .
63(4) . . .
66(4) . . .
62(4) . . .
75(5) . . .
79(5) . . .
73(5) . . .
70(4) . . .
55(4) . . .
58(4) . . .
63(4) . . .
63(4) . . .
73(4) . . .
69(4) . . .
57(4) . . .
70(5) . . .
65(4) . . .
66(4) . . .
59(4) . . .
69(4) . . .
62(4) . . .
58(4) . . .
63(4) . . .
58(4) . . .
65(5) . . .
58(4) . . .
60(4) . . .
63(4) . . .
69(4) . . .
58(4) . . .
71(5) . . .
74(5) . . .
67(4) . . .
71(5) . . .
65(4) . . .
69(5) . . .
61(4) . . .
60(4) . . .
72(5) . . .
62(4) . . .
53(4) . . .
71(5) . . .
66(4) . . .
66(4) . . .
67(5) . . .
59(4) . . .
66(4) . . .
72(4) . . .
59(4) . . .
55(4) . . .
64(4) . . .
74(5) . . .
66(4) . . .
64(4) . . .
74(5) . . .
67(4) . . .
67(4) . . .
61(4) . . .
68(4) . . .
72(5) . . .
65(4) . . .
71(4) . . .
68(4) . . .
66(4) . . .
58(4) . . .
62(4) . . .
68(4) . . .
64(4) . . .
63(4) . . .
60(4) . . .
69(4) . . .
59(4) . . .
65(4) . . .
74(5) . . .
69(5) . . .
65(4) . . .
54(4) . . .
65(4) . . .
63(4) . . .
70(5) . . .
66(4) . . .
67(4) . . .
64(4) . . .
63(4) . . .
67(5) . . .
75(5) . . .
66(4) . . .
52(4) . . .
61(4) . . .
53(4) . . .
58(4) . . .
51(4) . . .
64(4) . . .
66(4) . . .
67(4) . . .
66(4) . . .
66(4) . . .
73(5) . . .
68(4) . . .
71(5) . . .
87(5) . . .
70(4) . . .
67(4) . . .
80(5) . . .
71(5) . . .
66(4) . . .
64(4) . . .
70(5) . . .
64(4) . . .
69(4) . . .
78(5) . . .
78(5) . . .
69(4) . . .
66(5) . . .
71(4) . . .
76(5) . . .
60(4) . . .
66(4) . . .
68(5) . . .
62(4) . . .
67(4) . . .
78(5) . . .
67(4) . . .
77(5) . . .
71(5) . . .
73(4) . . .
77(5) . . .
72(5) . . .
62(4) . . .
67(4) . . .
70(4) . . .
62(4) . . .
73(5) . . .
69(4) . . .
66(5) . . .
56(4) . . .
65(4) . . .
55(4) . . .
75(5) . . .
71(4) . . .
70(4) . . .
73(5) . . .
64(4) . . .
64(4) . . .
60(4) . . .
65(4) . . .
68(5) . . .
61(4) . . .
76(5) . . .
69(4) . . .
59(4) . . .
70(5) . . .
68(5) . . .
69(4) . . .
68(4) . . .
58(4) . . .
60(4) . . .
61(4) . . .
66(4) . . .
77(5) . . .
61(4) . . .
63(4) . . .
64(4) . . .
66(4) . . .
61(4) . . .
66(4) . . .
75(5) . . .
64(5) . . .
63(4) . . .
72(4) . . .
70(4) . . .
63(4) . . .
56(4) . . .
58(4) . . .
63(4) . . .
66(4) . . .
67(4) . . .
76(5) . . .
51(4) . . .
74(4) . . .
79(5) . . .
70(4) . . .
65(4) . . .
57(4) . . .
69(4) . . .
65(4) . . .
67(4) . . .
60(4) . . .
62(4) . . .
71(4) . . .
67(4) . . .
57(4) . . .
64(5) . . .
72(5) . . .
67(4) . . .
67(4) . . .
63(4) . . .
69(4) . . .
69(4) . . .
56(4) . . .
52(4) . . .
64(5) . . .
70(5) . . .
56(4) . . .
63(4) . . .
65(4) . . .
65(4) . . .
63(4) . . .
65(4) . . .
49(4) . . .
59(4) . . .
62(4) . . .
60(4) . . .
63(4) . . .
70(4) . . .
68(4) . . .
64(4) . . .
71(4) . . .
62(4) . . .
61(4) . . .
61(4) . . .
75(5) . . .
68(4) . . .
67(4) . . .
62(4) . . .
64(4) . . .
60(4) . . .
58(4) . . .
63(4) . . .
64(4) . . .
68(4) . . .
71(5) . . .
65(4) . . .
67(4) . . .
60(4) . . .
80(5) . . .
67(5) . . .
72(5) . . .
62(4) . . .
66(4) . . .
60(4) . . .
65(5) . . .
64(4) . . .
69(4) . . .
67(4) . . .
60(4) . . .
71(5) . . .
59(4) . . .
57(4) . . .
59(4) . . .
72(5) . . .
74(5) . . .
67(4) . . .
61(4) . . .
51(4) . . .
66(4) . . .
65(4) . . .
63(4) . . .
63(4) . . .
64(4) . . .
74(5) . . .
60(4) . . .
75(5) . . .
66(4) . . .
79(5) . . .
71(5) . . .
73(5) . . .
59(4) . . .
62(4) . . .
65(4) . . .
74(5) . . .
62(4) . . .
74(4) . . .
58(4) . . .
55(4) . . .
72(5) . . .
62(4) . . .
61(4) . . .
63(4) . . .
70(5) . . .
52(4) . . .
66(4) . . .
75(4) . . .
72(5) . . .
64(4) . . .
67(5) . . .
71(4) . . .
61(4) . . .
66(4) . . .
67(4) . . .
68(5) . . .
69(4) . . .
67(4) . . .
70(5) . . .
69(5) . . .
63(4) . . .
74(5) . . .
70(4) . . .
49(4) . . .
52(4) . . .
70(5) . . .
73(5) . . .
65(4) . . .
61(4) . . .
69(5) . . .
71(4) . . .
60(4) . . .
73(4) . . .
60(4) . . .
61(4) . . .
68(4) . . .
69(4) . . .
69(4) . . .
62(4) . . .
67(5) . . .
60(4) . . .
59(4) . . .
59(4) . . .
72(5) . . .
67(4) . . .
77(5) . . .
71(4) . . .
61(4) . . .
54(4) . . .
65(4) . . .
67(4) . . .
79(5) . . .
60(4) . . .
72(5) . . .
66(4) . . .
68(4) . . .
76(5) . . .
77(5) . . .
73(5) . . .
63(4) . . .
59(4) . . .
55(4) . . .
69(4) . . .
68(4) . . .
68(4) . . .
69(5) . . .
61(4) . . .
60(4) . . .
62(4) . . .
59(4) . . .
50(4) . . .
60(4) . . .
62(4) . . .
65(4) . . .
60(4) . . .
60(4) . . .
74(4) . . .
68(4) . . .
77(5) . . .
72(5) . . .
87(5) . . .
81(5) . . .
80(5) . . .
69(5) . . .
59(4) . . .
66(4) . . .
64(4) . . .
72(4) . . .
61(4) . . .
64(4) . . .
62(4) . . .
67(4) . . .
69(4) . . .
66(5) . . .
68(4) . . .
61(4) . . .
66(4) . . .
65(4) . . .
74(5) . . .
63(4) . . .
65(4) . . .
69(4) . . .
69(5) . . .
62(4) . . .
60(4) . . .
61(4) . . .
60(4) . . .
51(4) . . .
56(4) . . .
56(4) . . .
53(4) . . .
64(4) . . .
68(5) . . .
56(4) . . .
78(5) . . .
80(5) . . .
60(4) . . .
74(5) . . .
68(5) . . .
66(4) . . .
57(4) . . .
67(4) . . .
64(4) . . .
66(4) . . .
66(4) . . .
62(4) . . .
56(4) . . .
68(5) . . .
71(5) . . .
63(4) . . .
70(4) . . .
62(4) . . .
70(5) . . .
57(4) . . .
63(4) . . .
67(4) . . .
67(4) . . .
67(4) . . .
73(4) . . .
65(4) . . .
68(4) . . .
65(4) . . .
68(5) . . .
62(4) . . .
63(4) . . .
69(4) . . .
68(4) . . .
64(5) . . .
61(4) . . .
68(4) . . .
70(4) . . .
57(4) . . .
64(4) . . .
67(5) . . .
67(4) . . .
63(4) . . .
70(5) . . .
60(4) . . .
65(4) . . .
61(4) . . .
56(4) . . .
64(4) . . .
75(5) . . .
62(4) . . .
65(4) . . .
55(4) . . .
62(4) . . .
76(5) . . .
66(4) . . .
70(4) . . .
65(4) . . .
60(4) . . .
68(5) . . .
74(5) . . .
60(4) . . .
58(4) . . .
59(4) . . .
61(4) . . .
60(4) . . .
61(4) . . .
56(4) . . .
61(4) . . .
70(5) . . .
69(4) . . .
69(4) . . .
65(4) . . .
62(4) . . .
70(5) . . .
64(4) . . .
55(4) . . .
72(5) . . .
62(4) . . .
66(4) . . .
62(4) . . .
62(4) . . .
63(4) . . .
65(5) . . .
74(5) . . .
56(4) . . .
68(4) . . .
69(4) . . .
70(5) . . .
65(4) . . .
69(4) . . .
65(4) . . .
62(4) . . .
59(4) . . .
68(5) . . .
64(4) . . .
65(4) . . .
64(4) . . .
63(4) . . .
66(5) . . .
66(4) . . .
63(4) . . .
68(4) . . .
63(4) . . .
68(5) . . .
67(4) . . .
61(4) . . .
73(5) . . .
63(4) . . .
78(5) . . .
63(4) . . .
65(4) . . .
64(4) . . .
51(4) . . .
58(4) . . .
60(4) . . .
61(4) . . .
52(4) . . .
67(4) . . .
67(4) . . .
71(4) . . .
61(4) . . .
63(4) . . .
62(4) . . .
50(4) . . .
62(4) . . .
67(4) . . .
59(4) . . .
70(5) . . .
60(4) . . .
63(4) . . .
76(5) . . .
64(5) . . .
59(4) . . .
69(4) . . .
64(4) . . .
72(5) . . .
67(5) . . .
63(4) . . .
53(4) . . .
65(4) . . .
69(4) . . .
65(5) . . .
64(4) . . .
56(4) . . .
65(4) . . .
56(4) . . .
61(4) . . .
55(4) . . .
62(4) . . .
64(4) . . .
55(4) . . .
72(5) . . .
68(5) . . .
60(4) . . .
65(4) . . .
66(4) . . .
69(4) . . .
60(4) . . .
58(4) . . .
77(5) . . .
65(4) . . .
66(4) . . .
60(4) . . .
61(4) . . .
53(4) . . .
66(4) . . .
60(4) . . .
71(4) . . .
67(4) . . .
63(4) . . .
62(4) . . .
62(4) . . .
58(4) . . .
54(4) . . .
68(5) . . .
64(5) . . .
60(4) . . .
73(4) . . .
63(4) . . .
70(5) . . .
61(4) . . .
63(4) . . .
67(4) . . .
64(4) . . .
78(5) . . .
58(4) . . .
59(4) . . .
57(4) . . .
63(4) . . .
59(4) . . .
59(4) . . .
57(4) . . .
65(4) . . .
73(4) . . .
63(4) . . .
50(4) . . .
68(5) . . .
67(4) . . .
58(4) . . .
51(4) . . .
59(4) . . .
71(4) . . .
66(4) . . .
79(5) . . .
65(4) . . .
62(4) . . .
66(4) . . .
72(5) . . .
71(5) . . .
58(4) . . .
73(5) . . .
74(4) . . .
64(4) . . .
71(4) . . .
67(4) . . .
62(4) . . .
65(4) . . .
60(4) . . .
63(4) . . .
57(4) . . .
66(5) . . .
71(4) . . .
64(4) . . .
63(4) . . .
76(5) . . .
75(5) . . .
67(4) . . .
65(4) . . .
54(4) . . .
59(4) . . .
69(5) . . .
62(4) . . .
57(4) . . .
60(4) . . .
58(4) . . .
65(4) . . .
69(4) . . .
66(4) . . .
74(5) . . .
58(4) . . .
56(4) . . .
67(4) . . .
55(4) . . .
53(4) . . .
59(4) . . .
68(4) . . .
65(4) . . .
67(4) . . .
56(4) . . .
72(5) . . .
70(5) . . .
67(4) . . .
64(4) . . .
63(4) . . .
59(4) . . .
57(4) . . .
59(4) . . .
55(4) . . .
61(4) . . .
66(5) . . .
64(4) . . .
63(4) . . .
70(4) . . .
58(4) . . .
61(4) . . .
75(5) . . .
59(4) . . .
64(4) . . .
62(4) . . .
77(5) . . .
63(4) . . .
54(4) . . .
66(5) . . .
51(4) . . .
73(5) . . .
56(4) . . .
69(4) . . .
69(5) . . .
62(4) . . .
65(4) . . .
54(4) . . .
65(4) . . .
73(5) . . .
64(4) . . .
63(4) . . .
59(4) . . .
52(4) . . .
62(4) . . .
76(5) . . .
65(5) . . .
66(4) . . .
74(4) . . .
69(4) . . .
66(5) . . .
56(4) . . .
66(4) . . .
71(4) . . .
67(4) . . .
66(4) . . .
57(4) . . .
55(4) . . .
54(4) . . .
62(4) . . .
68(4) . . .
60(4) . . .
63(4) . . .
65(4) . . .
55(4) . . .
61(4) . . .
66(4) . . .
65(4) . . .
61(4) . . .
58(4) . . .
53(4) . . .
67(4) . . .
60(4) . . .
62(5) . . .
53(4) . . .
63(4) . . .
60(4) . . .
65(4) . . .
57(4) . . .
75(5) . . .
58(4) . . .
63(4) . . .
57(4) . . .
73(5) . . .
79(5) . . .
53(4) . . .
65(4) . . .
65(4) . . .
76(5) . . .
63(4) . . .
59(4) . . .
67(4) . . .
66(4) . . .
53(4) . . .
60(4) . . .
54(4) . . .
55(4) . . .
71(4) . . .
63(4) . . .
66(4) . . .
66(4) . . .
55(4) . . .
57(4) . . .
62(4) . . .
60(4) . . .
60(4) . . .
67(4) . . .
70(4) . . .
71(4) . . .
59(4) . . .
60(4) . . .
68(4) . . .
57(4) . . .
63(4) . . .
67(4) . . .
61(4) . . .
55(4) . . .
53(4) . . .
62(4) . . .
58(4) . . .
57(4) . . .
64(4) . . .
54(4) . . .
55(4) . . .
74(5) . . .
65(4) . . .
54(4) . . .
59(4) . . .
50(4) . . .
56(4) . . .
61(4) . . .
58(4) . . .
69(4) . . .
85(5) . . .
67(4) . . .
57(4) . . .
58(4) . . .
60(4) . . .
59(4) . . .
63(4) . . .
66(4) . . .
60(4) . . .
59(4) . . .
61(4) . . .
75(5) . . .
71(4) . . .
59(4) . . .
66(5) . . .
59(4) . . .
69(4) . . .
59(4) . . .
57(4) . . .
55(4) . . .
62(5) . . .
64(4) . . .
68(4) . . .
67(4) . . .
69(4) . . .
68(5) . . .
63(4) . . .
58(4) . . .
68(4) . . .
67(4) . . .
55(4) . . .
58(4) . . .
55(4) . . .
55(4) . . .
65(5) . . .
64(4) . . .
67(4) . . .
69(4) . . .
59(4) . . .
67(5) . . .
58(4) . . .
58(4) . . .
63(4) . . .
68(5) . . .
66(4) . . .
57(4) . . .
63(4) . . .
63(4) . . .
66(4) . . .
58(4) . . .
71(5) . . .
70(4) . . .
68(4) . . .
60(4) . . .
60(4) . . .
56(4) . . .
58(4) . . .
60(4) . . .
65(4) . . .
67(4) . . .
67(4) . . .
59(4) . . .
61(4) . . .
61(4) . . .
62(4) . . .
65(4) . . .
72(4) . . .
66(4) . . .
62(4) . . .
68(4) . . .
64(4) . . .
73(4) . . .
54(4) . . .
60(4) . . .
68(4) . . .
72(5) . . .
66(4) . . .
65(4) . . .
69(5) . . .
69(5) . . .
67(4) . . .
54(4) . . .
58(4) . . .
54(4) . . .
49(4) . . .
56(4) . . .
66(4) . . .
65(4) . . .
71(5) . . .
69(4) . . .
65(4) . . .
57(4) . . .
60(4) . . .
72(5) . . .
69(5) . . .
64(4) . . .
57(4) . . .
60(4) . . .
58(4) . . .
53(4) . . .
60(4) . . .
66(4) . . .
56(4) . . .
66(5) . . .
64(4) . . .
63(4) . . .
50(4) . . .
50(4) . . .
52(4) . . .
63(4) . . .
67(4) . . .
65(4) . . .
60(4) . . .
65(5) . . .
71(5) . . .
59(4) . . .
58(4) . . .
67(5) . . .
63(4) . . .
63(4) . . .
63(4) . . .
58(4) . . .
60(4) . . .
60(4) . . .
64(4) . . .
73(4) . . .
74(5) . . .
65(5) . . .
56(4) . . .
51(4) . . .
55(4) . . .
57(4) . . .
63(4) . . .
52(4) . . .
70(4) . . .
62(4) . . .
70(5) . . .
56(4) . . .
54(4) . . .
57(4) . . .
54(4) . . .
68(4) . . .
55(4) . . .
66(4) . . .
56(4) . . .
57(4) . . .
70(5) . . .
48(4) . . .
52(4) . . .
51(4) . . .
61(4) . . .
65(4) . . .
50(4) . . .
61(4) . . .
61(4) . . .
66(4) . . .
61(4) . . .
59(4) . . .
54(4) . . .
70(4) . . .
59(4) . . .
60(4) . . .
66(5) . . .
71(4) . . .
70(4) . . .
64(4) . . .
58(4) . . .
60(4) . . .
57(4) . . .
56(4) . . .
58(4) . . .
53(4) . . .
65(5) . . .
57(4) . . .
60(4) . . .
64(4) . . .
61(4) . . .
66(4) . . .
55(4) . . .
55(4) . . .
50(4) . . .
65(4) . . .
62(4) . . .
59(4) . . .
61(4) . . .
59(4) . . .
53(4) . . .
55(4) . . .
56(4) . . .
52(4) . . .
58(4) . . .
55(4) . . .
67(4) . . .
66(4) . . .
55(4) . . .
53(4) . . .
67(5) . . .
59(4) . . .
55(4) . . .
62(4) . . .
63(4) . . .
69(5) . . .
56(4) . . .
64(4) . . .
63(4) . . .
60(4) . . .
54(4) . . .
62(4) . . .
73(4) . . .
67(4) . . .
57(4) . . .
58(4) . . .
61(4) . . .
63(4) . . .
60(4) . . .
50(4) . . .
60(4) . . .
59(4) . . .
57(4) . . .
54(4) . . .
59(4) . . .
58(4) . . .
60(4) . . .
62(4) . . .
60(4) . . .
61(4) . . .
61(4) . . .
56(4) . . .
51(4) . . .
60(4) . . .
63(4) . . .
68(4) . . .
65(4) . . .
50(4) . . .
62(4) . . .
62(4) . . .
68(4) . . .
62(4) . . .
65(4) . . .
57(4) . . .
59(4) . . .
56(4) . . .
54(4) . . .
59(4) . . .
64(4) . . .
50(4) . . .
58(4) . . .
63(4) . . .
65(4) . . .
66(5) . . .
57(4) . . .
51(4) . . .
59(4) . . .
55(4) . . .
63(4) . . .
64(4) . . .
51(4) . . .
56(4) . . .
62(4) . . .
64(4) . . .
60(4) . . .
52(4) . . .
63(4) . . .
48(4) . . .
55(4) . . .
62(4) . . .
59(4) . . .
71(4) . . .
67(4) . . .
56(4) . . .
64(5) . . .
63(4) . . .
59(4) . . .
66(4) . . .
73(5) . . .
61(4) . . .
58(4) . . .
63(4) . . .
66(4) . . .
71(5) . . .
66(4) . . .
55(4) . . .
60(4) . . .
72(5) . . .
63(4) . . .
70(5) . . .
52(4) . . .
57(4) . . .
58(4) . . .
57(4) . . .
71(5) . . .
64(4) . . .
58(4) . . .
70(5) . . .
63(4) . . .
56(4) . . .
73(5) . . .
62(4) . . .
61(4) . . .
56(4) . . .
60(4) . . .
65(4) . . .
54(4) . . .
64(4) . . .
58(4) . . .
60(4) . . .
61(4) . . .
66(4) . . .
57(4) . . .
54(4) . . .
60(4) . . .
50(4) . . .
63(4) . . .
58(4) . . .
57(4) . . .
67(4) . . .
61(4) . . .
59(4) . . .
68(4) . . .
58(4) . . .
48(4) . . .
72(4) . . .
58(4) . . .
56(4) . . .
64(5) . . .
65(4) . . .
67(4) . . .
63(4) . . .
57(4) . . .
65(4) . . .
57(4) . . .
54(4) . . .
62(4) . . .
67(4) . . .
78(5) . . .
59(4) . . .
50(4) . . .
59(4) . . .
59(5) . . .
64(4) . . .
66(4) . . .
69(4) . . .
67(4) . . .
58(4) . . .
50(4) . . .
71(4) . . .
63(4) . . .
59(4) . . .
67(5) . . .
61(4) . . .
59(4) . . .
59(4) . . .
73(5) . . .
67(4) . . .
65(4) . . .
60(4) . . .
65(4) . . .
66(4) . . .
57(4) . . .
48(4) . . .
59(4) . . .
62(4) . . .
64(4) . . .
62(4) . . .
57(4) . . .
61(4) . . .
62(4) . . .
65(4) . . .
64(4) . . .
64(4) . . .
56(4) . . .
61(4) . . .
68(4) . . .
68(4) . . .
59(4) . . .
59(4) . . .
64(4) . . .
60(4) . . .
46(4) . . .
61(4) . . .
60(4) . . .
73(5) . . .
64(4) . . .
53(4) . . .
61(4) . . .
63(4) . . .
59(4) . . .
63(4) . . .
63(4) . . .
58(4) . . .
68(4) . . .
65(4) . . .
60(4) . . .
48(4) . . .
67(4) . . .
52(4) . . .
58(4) . . .
61(4) . . .
64(4) . . .
70(4) . . .
62(4) . . .
72(4) . . .
58(4) . . .
56(4) . . .
53(4) . . .
51(4) . . .
63(4) . . .
57(4) . . .
60(4) . . .
64(4) . . .
65(4) . . .
58(4) . . .
61(4) . . .
52(4) . . .
63(4) . . .
62(4) . . .
59(4) . . .
62(4) . . .
57(4) . . .
65(4) . . .
67(4) . . .
60(4) . . .
58(4) . . .
63(4) . . .
59(4) . . .
58(4) . . .
54(4) . . .
56(4) . . .
69(5) . . .
61(4) . . .
58(4) . . .
64(4) . . .
49(4) . . .
55(4) . . .
59(4) . . .
50(4) . . .
63(4) . . .
53(4) . . .
48(4) . . .
57(4) . . .
63(4) . . .
64(4) . . .
61(4) . . .
66(4) . . .
62(4) . . .
76(5) . . .
64(4) . . .
55(4) . . .
57(4) . . .
62(4) . . .
68(4) . . .
72(5) . . .
62(4) . . .
62(4) . . .
55(4) . . .
63(4) . . .
84(5) . . .
70(4) . . .
63(4) . . .
59(4) . . .
62(4) . . .
68(5) . . .
65(4) . . .
59(4) . . .
50(4) . . .
67(4) . . .
64(5) . . .
60(4) . . .
68(4) . . .
71(4) . . .
70(4) . . .
57(4) . . .
57(4) . . .
52(4) . . .
57(4) . . .
65(4) . . .
69(5) . . .
74(5) . . .
57(4) . . .
62(4) . . .
69(5) . . .
62(4) . . .
67(5) . . .
64(4) . . .
68(4) . . .
57(4) . . .
61(4) . . .
64(4) . . .
61(4) . . .
59(4) . . .
55(4) . . .
54(4) . . .
57(4) . . .
62(4) . . .
53(4) . . .
61(4) . . .
56(4) . . .
51(4) . . .
54(4) . . .
59(4) . . .
59(4) . . .
58(4) . . .
64(4) . . .
64(4) . . .
71(5) . . .
64(5) . . .
57(4) . . .
59(4) . . .
66(4) . . .
62(4) . . .
66(5) . . .
68(5) . . .
56(4) . . .
56(4) . . .
65(4) . . .
56(4) . . .
58(4) . . .
57(4) . . .
55(4) . . .
51(4) . . .
63(4) . . .
55(4) . . .
61(4) . . .
71(4) . . .
52(4) . . .
42(4) . . .
59(4) . . .
55(4) . . .
69(4) . . .
62(4) . . .
65(4) . . .
55(4) . . .
60(4) . . .
67(5) . . .
60(4) . . .
64(4) . . .
69(5) . . .
58(4) . . .
60(4) . . .
57(4) . . .
60(4) . . .
57(4) . . .
62(4) . . .
62(4) . . .
57(4) . . .
63(4) . . .
60(4) . . .
61(4) . . .
61(4) . . .
63(4) . . .
59(4) . . .
74(4) . . .
64(4) . . .
67(4) . . .
62(4) . . .
57(4) . . .
52(4) . . .
53(4) . . .
64(4) . . .
65(5) . . .
58(4) . . .
59(4) . . .
58(4) . . .
58(4) . . .
59(4) . . .
61(4) . . .
56(4) . . .
57(4) . . .
60(4) . . .
59(4) . . .
65(4) . . .
64(4) . . .
58(4) . . .
59(4) . . .
71(5) . . .
52(4) . . .
54(4) . . .
53(4) . . .
51(4) . . .
53(4) . . .
53(4) . . .
41.2(34) . . .
62(4) . . .
60(4) . . .
55(4) . . .
53(4) . . .
51(4) . . .
47(4) . . .
62(4) . . .
67(4) . . .
59(4) . . .
57(4) . . .
56(4) . . .
53(4) . . .
53(4) . . .
65(4) . . .
61(4) . . .
67(4) . . .
56(4) . . .
55(4) . . .
50(4) . . .
57(4) . . .
63(4) . . .
57(4) . . .
64(4) . . .
63(4) . . .
61(4) . . .
49(4) . . .
60(4) . . .
60(4) . . .
60(4) . . .
52(4) . . .
58(4) . . .
58(4) . . .
43.5(34) . . .
58(4) . . .
56(4) . . .
48(4) . . .
53(4) . . .
61(4) . . .
63(4) . . .
65(4) . . .
58(4) . . .
49(4) . . .
55(4) . . .
55(4) . . .
56(4) . . .
65(4) . . .
64(4) . . .
58(4) . . .
58(4) . . .
58(4) . . .
70(5) . . .
60(4) . . .
58(4) . . .
59(4) . . .
59(4) . . .
60(4) . . .
49(4) . . .
64(4) . . .
58(4) . . .
55(4) . . .
61(4) . . .
58(4) . . .
56(4) . . .
72(4) . . .
62(4) . . .
55(4) . . .
66(4) . . .
58(4) . . .
54(4) . . .
59(4) . . .
68(4) . . .
65(4) . . .
58(4) . . .
63(4) . . .
63(4) . . .
60(4) . . .
44.6(35) . . .
65(4) . . .
53(4) . . .
54(4) . . .
56(4) . . .
52(4) . . .
57(4) . . .
63(4) . . .
63(4) . . .
55(4) . . .
54(4) . . .
57(4) . . .
64(4) . . .
71(4) . . .
63(4) . . .
56(4) . . .
56(4) . . .
60(4) . . .
52(4) . . .
59(4) . . .
54(4) . . .
71(4) . . .
50(4) . . .
60(4) . . .
62(4) . . .
71(4) . . .
55(4) . . .
60(4) . . .
62(4) . . .
64(4) . . .
59(4) . . .
66(4) . . .
65(4) . . .
62(4) . . .
59(4) . . .
63(4) . . .
63(4) . . .
54(4) . . .
75(5) . . .
64(4) . . .
72(5) . . .
52(4) . . .
62(4) . . .
58(4) . . .
61(4) . . .
65(4) . . .
65(4) . . .
53(4) . . .
71(5) . . .
68(4) . . .
57(4) . . .
59(4) . . .
54(4) . . .
58(4) . . .
53(4) . . .
51(4) . . .
54(4) . . .
55(4) . . .
56(4) . . .
58(4) . . .
60(4) . . .
54(4) . . .
58(4) . . .
64(4) . . .
65(4) . . .
60(4) . . .
64(4) . . .
70(5) . . .
64(4) . . .
58(4) . . .
65(4) . . .
67(4) . . .
51(4) . . .
65(4) . . .
59(4) . . .
61(4) . . .
59(4) . . .
63(4) . . .
57(4) . . .
48(4) . . .
55(4) . . .
68(4) . . .
63(4) . . .
52(4) . . .
65(4) . . .
56(4) . . .
55(4) . . .
63(4) . . .
52(4) . . .
56(4) . . .
55(4) . . .
57(4) . . .
67(5) . . .
48(4) . . .
62(4) . . .
59(4) . . .
66(5) . . .
67(5) . . .
62(4) . . .
60(4) . . .
57(4) . . .
68(5) . . .
56(4) . . .
55(4) . . .
60(4) . . .
68(4) . . .
69(4) . . .
61(4) . . .
63(5) . . .
56(4) . . .
56(4) . . .
64(4) . . .
60(4) . . .
61(4) . . .
56(4) . . .
57(4) . . .
57(4) . . .
60(4) . . .
56(4) . . .
60(4) . . .
68(4) . . .
61(4) . . .
52(4) . . .
63(4) . . .
63(4) . . .
69(4) . . .
70(4) . . .
58(4) . . .
53(4) . . .
54(4) . . .
57(4) . . .
61(4) . . .
58(4) . . .
66(4) . . .
43(4) . . .
58(4) . . .
55(4) . . .
56(4) . . .
62(4) . . .
63(4) . . .
66(5) . . .
57(4) . . .
67(5) . . .
55(4) . . .
53(4) . . .
57(4) . . .
68(5) . . .
52(4) . . .
58(4) . . .
58(4) . . .
58(4) . . .
54(4) . . .
64(4) . . .
71(4) . . .
63(4) . . .
67(4) . . .
53(4) . . .
65(4) . . .
62(4) . . .
61(4) . . .
61(4) . . .
64(4) . . .
74(5) . . .
68(4) . . .
69(4) . . .
55(4) . . .
52(4) . . .
60(4) . . .
60(4) . . .
57(4) . . .
51(4) . . .
51(4) . . .
49(4) . . .
55(4) . . .
58(4) . . .
61(4) . . .
60(4) . . .
54(4) . . .
66(4) . . .
59(4) . . .
53(4) . . .
56(4) . . .
59(4) . . .
58(4) . . .
61(4) . . .
61(4) . . .
64(4) . . .
60(4) . . .
62(4) . . .
64(4) . . .
61(4) . . .
50(4) . . .
47(4) . . .
57(4) . . .
48(4) . . .
60(4) . . .
68(4) . . .
71(5) . . .
57(4) . . .
54(4) . . .
63(5) . . .
61(4) . . .
53(4) . . .
62(4) . . .
60(4) . . .
58(4) . . .
59(4) . . .
64(4) . . .
64(4) . . .
61(4) . . .
55(4) . . .
48(4) . . .
64(4) . . .
49(4) . . .
63(4) . . .
57(4) . . .
62(4) . . .
68(4) . . .
65(4) . . .
55(4) . . .
74(5) . . .
58(4) . . .
46.0(35) . . .
53(4) . . .
64(4) . . .
68(5) . . .
56(4) . . .
53(4) . . .
53(4) . . .
59(4) . . .
60(4) . . .
55(4) . . .
60(4) . . .
62(4) . . .
64(4) . . .
64(4) . . .
56(4) . . .
59(4) . . .
59(4) . . .
57(4) . . .
53(4) . . .
61(4) . . .
53(4) . . .
56(4) . . .
56(4) . . .
64(5) . . .
59(4) . . .
50(4) . . .
61(4) . . .
58(4) . . .
66(4) . . .
61(4) . . .
61(4) . . .
59(4) . . .
66(4) . . .
63(4) . . .
62(4) . . .
54(4) . . .
64(4) . . .
66(5) . . .
68(4) . . .
64(4) . . .
63(4) . . .
60(4) . . .
66(4) . . .
58(4) . . .
62(4) . . .
57(4) . . .
59(4) . . .
60(4) . . .
63(4) . . .
59(4) . . .
65(4) . . .
60(4) . . .
60(4) . . .
74(5) . . .
69(4) . . .
55(4) . . .
70(5) . . .
65(4) . . .
49(4) . . .
58(4) . . .
63(4) . . .
59(4) . . .
58(4) . . .
55(4) . . .
66(4) . . .
69(5) . . .
62(4) . . .
55(4) . . .
51(4) . . .
64(4) . . .
65(4) . . .
60(4) . . .
61(4) . . .
62(4) . . .
62(4) . . .
54(4) . . .
58(4) . . .
55(4) . . .
55(4) . . .
52(4) . . .
61(4) . . .
69(5) . . .
55(4) . . .
62(4) . . .
59(4) . . .
49(4) . . .
57(4) . . .
50(4) . . .
59(4) . . .
59(4) . . .
64(4) . . .
62(4) . . .
44.8(35) . . .
58(4) . . .
53(4) . . .
57(4) . . .
63(4) . . .
55(4) . . .
53(4) . . .
58(4) . . .
62(4) . . .
55(4) . . .
60(4) . . .
62(4) . . .
64(4) . . .
58(4) . . .
58(4) . . .
58(4) . . .
54(4) . . .
60(4) . . .
69(5) . . .
56(4) . . .
65(4) . . .
65(4) . . .
48(4) . . .
58(4) . . .
58(4) . . .
48(4) . . .
46(4) . . .
56(4) . . .
53(4) . . .
56(4) . . .
50(4) . . .
55(4) . . .
58(4) . . .
54(4) . . .
51(4) . . .
51(4) . . .
53(4) . . .
58(4) . . .
58(4) . . .
61(4) . . .
54(4) . . .
68(4) . . .
62(4) . . .
57(4) . . .
61(4) . . .
68(4) . . .
64(4) . . .
62(4) . . .
60(4) . . .
62(4) . . .
63(4) . . .
46(4) . . .
54(4) . . .
58(4) . . .
50(4) . . .
58(4) . . .
66(4) . . .
65(4) . . .
61(5) . . .
61(4) . . .
53(4) . . .
57(4) . . .
61(4) . . .
59(4) . . .
69(4) . . .
66(4) . . .
55(4) . . .
59(4) . . .
58(4) . . .
54(4) . . .
53(4) . . .
63(4) . . .
59(4) . . .
60(4) . . .
50(4) . . .
65(4) . . .
59(4) . . .
63(4) . . .
63(4) . . .
53(4) . . .
62(4) . . .
58(4) . . .
52(4) . . .
54(4) . . .
62(4) . . .
53(4) . . .
60(4) . . .
65(5) . . .
55(4) . . .
51(4) . . .
60(4) . . .
59(4) . . .
67(5) . . .
68(4) . . .
56(4) . . .
62(4) . . .
67(4) . . .
62(4) . . .
66(4) . . .
66(4) . . .
54(4) . . .
59(4) . . .
52(4) . . .
61(4) . . .
58(4) . . .
50(4) . . .
56(4) . . .
57(4) . . .
46(4) . . .
53(4) . . .
67(4) . . .
59(4) . . .
62(4) . . .
62(4) . . .
55(4) . . .
61(4) . . .
63(4) . . .
67(4) . . .
59(4) . . .
65(4) . . .
63(4) . . .
68(5) . . .
59(4) . . .
54(4) . . .
50(4) . . .
61(4) . . .
54(4) . . .
54(4) . . .
54(4) . . .
49(4) . . .
58(4) . . .
63(4) . . .
57(4) . . .
52(4) . . .
57(4) . . .
55(4) . . .
57(4) . . .
61(4) . . .
56(4) . . .
56(4) . . .
52(4) . . .
61(4) . . .
57(4) . . .
60(4) . . .
58(4) . . .
52(4) . . .
61(4) . . .
60(4) . . .
54(4) . . .
64(4) . . .
57(4) . . .
50(4) . . .
59(4) . . .
65(4) . . .
63(4) . . .
55(4) . . .
61(4) . . .
60(4) . . .
57(4) . . .
62(4) . . .
64(4) . . .
51(4) . . .
57(4) . . .
74(5) . . .
55(4) . . .
57(4) . . .
62(4) . . .
63(4) . . .
55(4) . . .
61(4) . . .
46(4) . . .
63(4) . . .
56(4) . . .
59(4) . . .
54(4) . . .
70(5) . . .
63(4) . . .
60(4) . . .
48(4) . . .
62(4) . . .
61(4) . . .
61(4) . . .
63(4) . . .
60(4) . . .
59(4) . . .
60(4) . . .
63(4) . . .
49(4) . . .
58(4) . . .
63(4) . . .
76(5) . . .
68(4) . . .
58(4) . . .
62(4) . . .
70(5) . . .
69(5) . . .
66(4) . . .
72(4) . . .
59(4) . . .
64(4) . . .
58(4) . . .
58(4) . . .
60(4) . . .
68(4) . . .
52(4) . . .
56(4) . . .
59(4) . . .
61(4) . . .
64(4) . . .
58(4) . . .
50(4) . . .
65(5) . . .
62(4) . . .
62(4) . . .
53(4) . . .
58(4) . . .
56(4) . . .
53(4) . . .
57(4) . . .
61(4) . . .
56(4) . . .
55(4) . . .
65(4) . . .
59(4) . . .
60(4) . . .
69(4) . . .
64(4) . . .
67(4) . . .
69(5) . . .
60(4) . . .
63(4) . . .
56(4) . . .
56(4) . . .
60(4) . . .
65(4) . . .
69(4) . . .
61(4) . . .
63(4) . . .
70(5) . . .
61(4) . . .
59(4) . . .
68(4) . . .
60(4) . . .
47(4) . . .
51(4) . . .
58(4) . . .
61(4) . . .
64(4) . . .
70(5) . . .
60(4) . . .
58(4) . . .
61(4) . . .
61(4) . . .
60(4) . . .
58(4) . . .
52(4) . . .
62(4) . . .
67(4) . . .
58(4) . . .
61(4) . . .
60(4) . . .
56(4) . . .
58(4) . . .
62(4) . . .
59(4) . . .
71(5) . . .
61(4) . . .
57(4) . . .
61(4) . . .
53(4) . . .
47(4) . . .
51(4) . . .
57(4) . . .
62(4) . . .
50(4) . . .
52(4) . . .
61(4) . . .
50(4) . . .
52(4) . . .
63(4) . . .
57(4) . . .
66(4) . . .
63(4) . . .
51(4) . . .
61(4) . . .
61(4) . . .
59(4) . . .
64(4) . . .
68(5) . . .
64(4) . . .
53(4) . . .
53(4) . . .
71(4) . . .
59(4) . . .
54(4) . . .
49(4) . . .
60(4) . . .
62(4) . . .
56(4) . . .
69(4) . . .
64(4) . . .
57(4) . . .
51(4) . . .
68(5) . . .
56(4) . . .
57(4) . . .
56(4) . . .
59(4) . . .
48(4) . . .
61(4) . . .
72(4) . . .
57(4) . . .
46(4) . . .
61(4) . . .
63(4) . . .
66(4) . . .
58(4) . . .
63(4) . . .
60(4) . . .
59(4) . . .
52(4) . . .
59(4) . . .
61(4) . . .
55(4) . . .
56(4) . . .
62(4) . . .
52(4) . . .
70(5) . . .
54(4) . . .
53(4) . . .
63(4) . . .
55(4) . . .
53(4) . . .
50(4) . . .
62(4) . . .
59(4) . . .
62(4) . . .
54(4) . . .
59(4) . . .
65(4) . . .
52(4) . . .
55(4) . . .
62(5) . . .
60(4) . . .
57(4) . . .
49(4) . . .
59(4) . . .
54(4) . . .
55(4) . . .
64(4) . . .
64(4) . . .
58(4) . . .
58(4) . . .
62(4) . . .
50(4) . . .
56(4) . . .
62(4) . . .
53(4) . . .
61(4) . . .
66(4) . . .
57(4) . . .
52(4) . . .
61(4) . . .
56(4) . . .
53(4) . . .
62(4) . . .
70(5) . . .
66(4) . . .
63(4) . . .
58(4) . . .
54(4) . . .
57(4) . . .
59(4) . . .
61(4) . . .
47(4) . . .
68(4) . . .
68(5) . . .
60(4) . . .
58(4) . . .
53(4) . . .
64(4) . . .
61(4) . . .
60(4) . . .
60(4) . . .
48(4) . . .
59(4) . . .
59(4) . . .
60(4) . . .
55(4) . . .
52(4) . . .
49(4) . . .
49(4) . . .
66(4) . . .
65(4) . . .
57(4) . . .
67(5) . . .
70(5) . . .
54(4) . . .
68(4) . . .
66(4) . . .
58(4) . . .
53(4) . . .
51(4) . . .
72(4) . . .
69(4) . . .
59(4) . . .
59(4) . . .
64(4) . . .
57(4) . . .
53(4) . . .
56(4) . . .
67(5) . . .
59(4) . . .
53(4) . . .
57(4) . . .
74(5) . . .
52(4) . . .
60(4) . . .
63(4) . . .
68(4) . . .
52(4) . . .
68(5) . . .
65(4) . . .
61(4) . . .
59(4) . . .
66(4) . . .
60(4) . . .
62(4) . . .
61(4) . . .
56(4) . . .
61(4) . . .
62(4) . . .
49(4) . . .
58(4) . . .
55(4) . . .
54(4) . . .
62(4) . . .
55(4) . . .
54(4) . . .
61(4) . . .
64(4) . . .
65(4) . . .
67(4) . . .
62(4) . . .
57(4) . . .
55(4) . . .
62(4) . . .
53(4) . . .
51(4) . . .
64(4) . . .
58(4) . . .
64(4) . . .
56(4) . . .
53(4) . . .
58(4) . . .
62(4) . . .
62(4) . . .
60(4) . . .
53(4) . . .
59(4) . . .
65(5) . . .
64(5) . . .
60(4) . . .
61(4) . . .
51(4) . . .
52(4) . . .
55(4) . . .
55(4) . . .
50(4) . . .
54(4) . . .
66(4) . . .
64(4) . . .
60(4) . . .
55(4) . . .
59(4) . . .
53(4) . . .
48(4) . . .
63(4) . . .
57(4) . . .
62(4) . . .
62(4) . . .
61(4) . . .
61(4) . . .
54(4) . . .
60(4) . . .
57(4) . . .
59(4) . . .
57(4) . . .
52(4) . . .
61(4) . . .
67(4) . . .
62(4) . . .
49(4) . . .
54(4) . . .
54(4) . . .
51(4) . . .
64(4) . . .
62(4) . . .
62(4) . . .
60(4) . . .
58(4) . . .
68(4) . . .
57(4) . . .
58(4) . . .
68(5) . . .
56(4) . . .
53(4) . . .
59(4) . . .
54(4) . . .
56(4) . . .
59(4) . . .
60(4) . . .
59(4) . . .
41.1(33) . . .
59(4) . . .
55(4) . . .
62(4) . . .
55(4) . . .
56(4) . . .
55(4) . . .
52(4) . . .
56(4) . . .
59(4) . . .
57(4) . . .
62(4) . . .
58(4) . . .
58(4) . . .
52(4) . . .
47(4) . . .
45(4) . . .
54(4) . . .
55(4) . . .
58(4) . . .
52(4) . . .
60(4) . . .
56(4) . . .
59(4) . . .
65(4) . . .
61(4) . . .
57(4) . . .
55(4) . . .
59(4) . . .
58(4) . . .
48(4) . . .
61(4) . . .
52(4) . . .
64(4) . . .
49(4) . . .
61(5) . . .
55(4) . . .
60(4) . . .
63(4) . . .
57(4) . . .
53(4) . . .
71(5) . . .
56(4) . . .
55(4) . . .
68(4) . . .
56(4) . . .
53(4) . . .
56(4) . . .
53(4) . . .
49(4) . . .
57(4) . . .
59(4) . . .
51(4) . . .
61(4) . . .
63(4) . . .
58(4) . . .
59(4) . . .
62(4) . . .
63(4) . . .
61(4) . . .
54(4) . . .
66(4) . . .
58(4) . . .
51(4) . . .
57(4) . . .
51(4) . . .
53(4) . . .
51(4) . . .
57(4) . . .
53(4) . . .
61(4) . . .
58(4) . . .
54(4) . . .
64(4) . . .
50(4) . . .
56(4) . . .
44.5(35) . . .
58(4) . . .
54(4) . . .
55(4) . . .
56(4) . . .
63(4) . . .
55(4) . . .
60(4) . . .
57(4) . . .
59(4) . . .
67(4) . . .
67(4) . . .
59(4) . . .
56(4) . . .
64(4) . . .
49(4) . . .
57(4) . . .
61(4) . . .
47(4) . . .
49(4) . . .
59(4) . . .
56(4) . . .
56(4) . . .
53(4) . . .
63(4) . . .
52(4) . . .
54(4) . . .
57(4) . . .
57(4) . . .
57(4) . . .
52(4) . . .
64(4) . . .
61(4) . . .
54(4) . . .
53(4) . . .
64(4) . . .
56(4) . . .
58(4) . . .
57(4) . . .
53(4) . . .
65(4) . . .
54(4) . . .
57(4) . . .
54(4) . . .
64(4) . . .
50(4) . . .
55(4) . . .
65(4) . . .
58(4) . . .
53(4) . . .
52(4) . . .
53(4) . . .
59(4) . . .
58(4) . . .
56(4) . . .
66(5) . . .
46(4) . . .
53(4) . . .
56(4) . . .
59(4) . . .
50(4) . . .
50(4) . . .
67(4) . . .
52(4) . . .
58(4) . . .
58(4) . . .
52(4) . . .
52(4) . . .
61(4) . . .
53(4) . . .
45(4) . . .
66(5) . . .
51(4) . . .
57(4) . . .
53(4) . . .
53(4) . . .
64(4) . . .
47(4) . . .
55(4) . . .
47(4) . . .
50(4) . . .
65(4) . . .
56(4) . . .
61(4) . . .
58(4) . . .
75(5) . . .
64(4) . . .
63(4) . . .
55(4) . . .
58(4) . . .
59(4) . . .
59(4) . . .
64(4) . . .
73(5) . . .
61(4) . . .
56(4) . . .
58(4) . . .
51(4) . . .
56(4) . . .
55(4) . . .
59(4) . . .
56(4) . . .
55(4) . . .
64(4) . . .
60(4) . . .
54(4) . . .
53(4) . . .
58(4) . . .
66(4) . . .
60(4) . . .
49(4) . . .
66(4) . . .
60(4) . . .
57(4) . . .
55(4) . . .
51(4) . . .
62(4) . . .
54(4) . . .
50(4) . . .
54(4) . . .
51(4) . . .
54(4) . . .
53(4) . . .
50(4) . . .
56(4) . . .
63(4) . . .
52(4) . . .
54(4) . . .
49(4) . . .
62(4) . . .
52(4) . . .
61(4) . . .
62(4) . . .
63(4) . . .
62(4) . . .
48(4) . . .
52(4) . . .
65(4) . . .
63(4) . . .
68(4) . . .
68(4) . . .
49(4) . . .
60(4) . . .
51(4) . . .
59(4) . . .
56(4) . . .
57(4) . . .
48(4) . . .
55(4) . . .
55(4) . . .
62(4) . . .
54(4) . . .
57(4) . . .
57(4) . . .
56(4) . . .
61(4) . . .
56(4) . . .
45(4) . . .
58(4) . . .
63(4) . . .
51(4) . . .
62(4) . . .
46(4) . . .
54(4) . . .
64(4) . . .
57(4) . . .
58(4) . . .
63(4) . . .
67(4) . . .
57(4) . . .
56(4) . . .
61(4) . . .
62(4) . . .
62(4) . . .
69(5) . . .
59(4) . . .
57(4) . . .
52(4) . . .
49(4) . . .
61(4) . . .
52(4) . . .
60(4) . . .
69(5) . . .
50(4) . . .
51(4) . . .
61(4) . . .
52(4) . . .
49(4) . . .
59(4) . . .
49(4) . . .
48(4) . . .
61(4) . . .
52(4) . . .
51(4) . . .
51(4) . . .
59(4) . . .
60(4) . . .
57(4) . . .
64(4) . . .
55(4) . . .
58(4) . . .
53(4) . . .
53(4) . . .
64(4) . . .
54(4) . . .
49(4) . . .
54(4) . . .
53(4) . . .
64(4) . . .
65(4) . . .
62(4) . . .
56(4) . . .
52(4) . . .
45.5(35) . . .
60(4) . . .
61(4) . . .
54(4) . . .
50(4) . . .
52(4) . . .
63(4) . . .
54(4) . . .
58(4) . . .
67(5) . . .
49(4) . . .
68(4) . . .
62(4) . . .
54(4) . . .
58(4) . . .
53(4) . . .
50(4) . . .
66(5) . . .
56(4) . . .
54(4) . . .
49(4) . . .
53(4) . . .
60(4) . . .
55(4) . . .
45(4) . . .
57(4) . . .
61(4) . . .
53(4) . . .
44.1(35) . . .
56(4) . . .
62(4) . . .
64(4) . . .
54(4) . . .
60(4) . . .
72(5) . . .
63(4) . . .
57(4) . . .
49(4) . . .
54(4) . . .
60(4) . . .
62(4) . . .
56(4) . . .
51(4) . . .
49(4) . . .
48(4) . . .
57(4) . . .
58(4) . . .
60(4) . . .
62(4) . . .
66(5) . . .
62(4) . . .
62(4) . . .
58(4) . . .
57(4) . . .
63(4) . . .
56(4) . . .
58(4) . . .
47(4) . . .
54(4) . . .
48(4) . . .
46(4) . . .
61(4) . . .
51(4) . . .
56(4) . . .
61(4) . . .
54(4) . . .
48(4) . . .
53(4) . . .
52(4) . . .
65(4) . . .
51(4) . . .
46(4) . . .
54(4) . . .
50(4) . . .
60(4) . . .
65(4) . . .
60(4) . . .
52(4) . . .
58(4) . . .
51(4) . . .
51(4) . . .
54(4) . . .
54(4) . . .
44(4) . . .
53(4) . . .
59(4) . . .
61(4) . . .
63(4) . . .
52(4) . . .
54(4) . . .
47(4) . . .
54(4) . . .
56(4) . . .
54(4) . . .
57(4) . . .
58(4) . . .
62(4) . . .
57(4) . . .
62(4) . . .
54(4) . . .
53(4) . . .
48(4) . . .
45(4) . . .
46(4) . . .
53(4) . . .
67(4) . . .
61(4) . . .
47(4) . . .
52(4) . . .
64(4) . . .
66(4) . . .
52(4) . . .
50(4) . . .
63(4) . . .
55(4) . . .
59(4) . . .
61(4) . . .
56(4) . . .
56(4) . . .
54(4) . . .
57(4) . . .
56(4) . . .
48(4) . . .
51(4) . . .
51(4) . . .
66(4) . . .
63(4) . . .
51(4) . . .
52(4) . . .
56(4) . . .
56(4) . . .
60(4) . . .
54(4) . . .
56(4) . . .
54(4) . . .
54(4) . . .
67(5) . . .
62(4) . . .
54(4) . . .
57(4) . . .
53(4) . . .
53(4) . . .
51(4) . . .
50(4) . . .
58(4) . . .
66(4) . . .
53(4) . . .
53(4) . . .
66(4) . . .
53(4) . . .
56(4) . . .
59(4) . . .
60(4) . . .
61(4) . . .
58(4) . . .
66(4) . . .
61(4) . . .
52(4) . . .
44(4) . . .
69(4) . . .
60(4) . . .
59(4) . . .
60(4) . . .
62(4) . . .
55(4) . . .
49(4) . . .
55(4) . . .
55(4) . . .
57(4) . . .
56(4) . . .
48(4) . . .
63(4) . . .
58(4) . . .
60(4) . . .
60(4) . . .
61(4) . . .
53(4) . . .
68(5) . . .
59(4) . . .
56(4) . . .
55(4) . . .
49(4) . . .
51(4) . . .
54(4) . . .
58(4) . . .
65(4) . . .
50(4) . . .
59(4) . . .
53(4) . . .
55(4) . . .
56(4) . . .
66(4) . . .
57(4) . . .
60(4) . . .
59(4) . . .
52(4) . . .
48(4) . . .
43(4) . . .
47(4) . . .
55(4) . . .
55(4) . . .
52(4) . . .
54(4) . . .
60(4) . . .
50(4) . . .
52(4) . . .
57(4) . . .
53(4) . . .
59(4) . . .
52(4) . . .
58(4) . . .
60(4) . . .
60(4) . . .
68(4) . . .
60(4) . . .
57(4) . . .
56(4) . . .
49(4) . . .
58(4) . . .
51(4) . . .
51(4) . . .
61(4) . . .
58(4) . . .
64(4) . . .
59(4) . . .
62(4) . . .
49(4) . . .
59(4) . . .
58(4) . . .
63(4) . . .
51(4) . . .
47(4) . . .
59(4) . . .
57(4) . . .
60(4) . . .
56(4) . . .
52(4) . . .
51(4) . . .
63(4) . . .
58(4) . . .
55(4) . . .
60(4) . . .
58(4) . . .
65(4) . . .
57(4) . . .
62(4) . . .
60(4) . . .
55(4) . . .
55(4) . . .
52(4) . . .
58(4) . . .
59(4) . . .
46(4) . . .
48(4) . . .
59(4) . . .
59(4) . . .
49(4) . . .
47(4) . . .
56(4) . . .
54(4) . . .
55(4) . . .
49(4) . . .
58(4) . . .
57(4) . . .
49(4) . . .
63(4) . . .
54(4) . . .
69(4) . . .
60(4) . . .
54(4) . . .
63(4) . . .
58(4) . . .
61(4) . . .
46(4) . . .
56(4) . . .
60(4) . . .
64(4) . . .
59(4) . . .
52(4) . . .
49(4) . . .
62(4) . . .
62(4) . . .
59(4) . . .
57(4) . . .
57(4) . . .
62(4) . . .
52(4) . . .
59(4) . . .
54(4) . . .
52(4) . . .
52(4) . . .
58(4) . . .
57(4) . . .
49(4) . . .
55(4) . . .
59(4) . . .
45(4) . . .
50(4) . . .
55(4) . . .
50(4) . . .
46(4) . . .
53(4) . . .
58(4) . . .
56(4) . . .
54(4) . . .
65(4) . . .
58(4) . . .
51(4) . . .
58(4) . . .
50(4) . . .
49(4) . . .
49(4) . . .
53(4) . . .
59(4) . . .
62(4) . . .
60(4) . . .
66(4) . . .
58(4) . . .
50(4) . . .
47(4) . . .
53(4) . . .
69(4) . . .
58(4) . . .
60(4) . . .
56(4) . . .
49(4) . . .
59(4) . . .
59(4) . . .
63(4) . . .
52(4) . . .
52(4) . . .
61(4) . . .
53(4) . . .
46(4) . . .
53(4) . . .
50(4) . . .
53(4) . . .
51(4) . . .
55(4) . . .
53(4) . . .
64(4) . . .
67(4) . . .
61(4) . . .
58(4) . . .
57(4) . . .
60(4) . . .
60(4) . . .
61(4) . . .
49(4) . . .
59(4) . . .
53(4) . . .
56(4) . . .
50(4) . . .
56(4) . . .
59(4) . . .
64(4) . . .
53(4) . . .
60(5) . . .
49(4) . . .
49(4) . . .
64(4) . . .
51(4) . . .
50(4) . . .
50(4) . . .
50(4) . . .
58(4) . . .
54(4) . . .
60(4) . . .
74(5) . . .
55(4) . . .
51(4) . . .
57(4) . . .
57(4) . . .
48(4) . . .
58(4) . . .
64(4) . . .
59(4) . . .
57(4) . . .
53(4) . . .
53(4) . . .
48(4) . . .
65(5) . . .
53(4) . . .
56(4) . . .
46(4) . . .
51(4) . . .
52(4) . . .
61(4) . . .
53(4) . . .
51(4) . . .
55(4) . . .
54(4) . . .
63(4) . . .
57(4) . . .
55(4) . . .
61(4) . . .
50(4) . . .
56(4) . . .
62(4) . . .
52(4) . . .
63(4) . . .
62(4) . . .
59(4) . . .
47(4) . . .
50(4) . . .
58(4) . . .
57(4) . . .
61(4) . . .
51(4) . . .
56(4) . . .
51(4) . . .
56(4) . . .
54(4) . . .
64(4) . . .
52(4) . . .
54(4) . . .
54(4) . . .
49(4) . . .
54(4) . . .
55(4) . . .
53(4) . . .
58(4) . . .
55(4) . . .
49(4) . . .
56(4) . . .
58(4) . . .
50(4) . . .
51(4) . . .
45.5(35) . . .
51(4) . . .
51(4) . . .
53(4) . . .
58(4) . . .
55(4) . . .
46(4) . . .
54(4) . . .
49(4) . . .
46(4) . . .
55(4) . . .
56(4) . . .
52(4) . . .
56(4) . . .
49(4) . . .
55(4) . . .
63(4) . . .
67(5) . . .
55(4) . . .
61(4) . . .
47(4) . . .
53(4) . . .
59(4) . . .
54(4) . . .
64(4) . . .
59(4) . . .
52(4) . . .
49(4) . . .
52(4) . . .
57(4) . . .
57(4) . . .
59(4) . . .
56(4) . . .
50(4) . . .
62(4) . . .
53(4) . . .
60(4) . . .
61(4) . . .
49(4) . . .
48(4) . . .
48(4) . . .
60(4) . . .
59(4) . . .
58(4) . . .
48(4) . . .
53(4) . . .
53(4) . . .
52(4) . . .
47(4) . . .
52(4) . . .
62(4) . . .
57(4) . . .
50(4) . . .
56(4) . . .
50(4) . . .
59(4) . . .
58(4) . . .
55(4) . . .
54(4) . . .
54(4) . . .
57(4) . . .
56(4) . . .
48(4) . . .
55(4) . . .
45.4(35) . . .
57(4) . . .
63(4) . . .
57(4) . . .
48(4) . . .
57(4) . . .
49(4) . . .
51(4) . . .
53(4) . . .
47(4) . . .
51(4) . . .
66(4) . . .
59(4) . . .
49(4) . . .
53(4) . . .
56(4) . . .
52(4) . . .
52(4) . . .
55(4) . . .
56(4) . . .
49(4) . . .
60(4) . . .
64(4) . . .
54(4) . . .
50(4) . . .
63(4) . . .
44.2(34) . . .
58(4) . . .
57(4) . . .
57(4) . . .
61(4) . . .
58(4) . . .
57(4) . . .
59(4) . . .
55(4) . . .
62(4) . . .
49(4) . . .
48(4) . . .
57(4) . . .
53(4) . . .
49(4) . . .
44(4) . . .
48(4) . . .
52(4) . . .
61(4) . . .
55(4) . . .
51(4) . . .
50(4) . . .
51(4) . . .
54(4) . . .
56(4) . . .
59(4) . . .
48(4) . . .
55(4) . . .
49(4) . . .
53(4) . . .
60(4) . . .
57(4) . . .
60(4) . . .
69(4) . . .
54(4) . . .
48(4) . . .
53(4) . . .
55(4) . . .
53(4) . . .
51(4) . . .
54(4) . . .
56(4) . . .
52(4) . . .
46.3(35) . . .
60(4) . . .
55(4) . . .
58(4) . . .
52(4) . . .
47(4) . . .
55(4) . . .
54(4) . . .
47(4) . . .
48(4) . . .
55(4) . . .
50(4) . . .
54(4) . . .
57(4) . . .
54(4) . . .
64(4) . . .
61(4) . . .
57(4) . . .
50(4) . . .
52(4) . . .
57(4) . . .
56(4) . . .
55(4) . . .
46(4) . . .
55(4) . . .
54(4) . . .
58(4) . . .
53(4) . . .
62(4) . . .
57(4) . . .
55(4) . . .
62(4) . . .
46(4) . . .
39.3(32) . . .
52(4) . . .
56(4) . . .
53(4) . . .
62(4) . . .
50(4) . . .
51(4) . . .
49(4) . . .
59(4) . . .
68(5) . . .
61(4) . . .
51(4) . . .
50(4) . . .
54(4) . . .
59(4) . . .
51(4) . . .
48(4) . . .
57(4) . . .
61(4) . . .
53(4) . . .
51(4) . . .
54(4) . . .
58(4) . . .
56(4) . . .
60(4) . . .
50(4) . . .
47(4) . . .
45(4) . . .
55(4) . . .
50(4) . . .
52(4) . . .
42.6(34) . . .
45.1(35) . . .
59(4) . . .
54(4) . . .
62(4) . . .
53(4) . . .
59(4) . . .
63(4) . . .
51(4) . . .
58(4) . . .
53(4) . . .
56(4) . . .
51(4) . . .
59(4) . . .
52(4) . . .
56(4) . . .
62(5) . . .
41.3(33) . . .
47(4) . . .
58(4) . . .
58(4) . . .
51(4) . . .
49(4) . . .
51(4) . . .
50(4) . . .
65(4) . . .
57(4) . . .
59(4) . . .
54(4) . . .
56(4) . . .
51(4) . . .
59(4) . . .
54(4) . . .
48(4) . . .
55(4) . . .
48(4) . . .
54(4) . . .
56(4) . . .
47(4) . . .
50(4) . . .
64(4) . . .
52(4) . . .
64(4) . . .
57(4) . . .
48(4) . . .
64(5) . . .
56(4) . . .
61(4) . . .
46(4) . . .
53(4) . . .
55(4) . . .
62(4) . . .
58(4) . . .
63(4) . . .
57(4) . . .
59(4) . . .
53(4) . . .
42.1(35) . . .
60(4) . . .
55(4) . . .
49(4) . . .
55(4) . . .
49(4) . . .
55(4) . . .
61(4) . . .
65(5) . . .
46(4) . . .
58(4) . . .
57(4) . . .
58(4) . . .
53(4) . . .
54(4) . . .
55(4) . . .
56(4) . . .
57(4) . . .
58(4) . . .
56(4) . . .
52(4) . . .
51(4) . . .
52(4) . . .
47(4) . . .
50(4) . . .
57(4) . . .
47(4) . . .
49(4) . . .
48(4) . . .
48(4) . . .
50(4) . . .
56(4) . . .
46(4) . . .
52(4) . . .
55(4) . . .
57(4) . . .
56(4) . . .
44(4) . . .
51(4) . . .
51(4) . . .
55(4) . . .
55(4) . . .
51(4) . . .
49(4) . . .
52(4) . . .
43.4(34) . . .
58(4) . . .
48(4) . . .
51(4) . . .
49(4) . . .
49(4) . . .
61(4) . . .
46(4) . . .
45(4) . . .
54(4) . . .
54(4) . . .
52(4) . . .
63(4) . . .
52(4) . . .
47(4) . . .
51(4) . . .
54(4) . . .
41.5(35) . . .
49(4) . . .
62(4) . . .
50(4) . . .
46(4) . . .
55(4) . . .
45.5(35) . . .
56(4) . . .
50(4) . . .
53(4) . . .
49(4) . . .
58(4) . . .
55(4) . . .
50(4) . . .
58(4) . . .
50(4) . . .
53(4) . . .
53(4) . . .
53(4) . . .
55(4) . . .
49(4) . . .
62(4) . . .
52(4) . . .
47(4) . . .
57(4) . . .
56(4) . . .
55(4) . . .
56(4) . . .
50(4) . . .
54(4) . . .
45(4) . . .
54(4) . . .
52(4) . . .
54(4) . . .
58(4) . . .
45(4) . . .
45(4) . . .
56(4) . . .
57(4) . . .
44.0(34) . . .
52(4) . . .
47(4) . . .
60(4) . . .
48(4) . . .
48(4) . . .
57(4) . . .
49(4) . . .
54(4) . . .
48(4) . . .
45(4) . . .
52(4) . . .
54(4) . . .
71(4) . . .
62(4) . . .
59(4) . . .
52(4) . . .
50(4) . . .
54(4) . . .
57(4) . . .
58(4) . . .
55(4) . . .
50(4) . . .
59(4) . . .
55(4) . . .
65(5) . . .
50(4) . . .
56(4) . . .
44.4(34) . . .
49(4) . . .
54(4) . . .
68(5) . . .
51(4) . . .
57(4) . . .
50(4) . . .
57(4) . . .
52(4) . . .
48(4) . . .
56(4) . . .
67(5) . . .
54(4) . . .
58(4) . . .
56(4) . . .
50(4) . . .
63(4) . . .
60(4) . . .
64(4) . . .
64(4) . . .
61(4) . . .
53(4) . . .
49(4) . . .
60(4) . . .
56(4) . . .
54(4) . . .
45(4) . . .
52(4) . . .
55(4) . . .
49(4) . . .
49(4) . . .
45(4) . . .
51(4) . . .
50(4) . . .
47(4) . . .
50(4) . . .
58(4) . . .
52(4) . . .
47(4) . . .
52(4) . . .
48(4) . . .
63(5) . . .
62(4) . . .
59(4) . . .
56(4) . . .
58(4) . . .
58(4) . . .
60(4) . . .
57(4) . . .
54(4) . . .
48(4) . . .
59(4) . . .
47(4) . . .
54(4) . . .
56(4) . . .
60(4) . . .
55(4) . . .
56(4) . . .
61(4) . . .
59(4) . . .
64(4) . . .
56(4) . . .
50(4) . . .
55(4) . . .
61(4) . . .
45(4) . . .
49(4) . . .
48(4) . . .
45.7(35) . . .
50(4) . . .
51(4) . . .
64(4) . . .
54(4) . . .
53(4) . . .
44(4) . . .
55(4) . . .
59(4) . . .
49(4) . . .
54(4) . . .
45(4) . . .
58(4) . . .
51(4) . . .
56(4) . . .
57(4) . . .
41.4(34) . . .
45(4) . . .
55(4) . . .
53(4) . . .
45(4) . . .
48(4) . . .
53(4) . . .
63(4) . . .
65(4) . . .
56(4) . . .
51(4) . . .
53(4) . . .
47(4) . . .
49(4) . . .
54(4) . . .
53(4) . . .
57(4) . . .
55(4) . . .
60(4) . . .
57(4) . . .
59(4) . . .
53(4) . . .
53(4) . . .
49(4) . . .
41.7(33) . . .
56(4) . . .
42(4) . . .
54(4) . . .
45(4) . . .
55(4) . . .
57(4) . . .
55(4) . . .
56(4) . . .
46(4) . . .
49(4) . . .
46(4) . . .
52(4) . . .
53(4) . . .
52(4) . . .
61(4) . . .
62(4) . . .
54(4) . . .
50(4) . . .
48(4) . . .
57(4) . . .
60(4) . . .
57(4) . . .
50(4) . . .
59(4) . . .
56(4) . . .
47(4) . . .
54(4) . . .
61(4) . . .
56(4) . . .
55(4) . . .
58(4) . . .
48(4) . . .
54(4) . . .
43.4(34) . . .
63(4) . . .
53(4) . . .
54(4) . . .
63(4) . . .
59(4) . . .
56(4) . . .
51(4) . . .
59(4) . . .
43.1(34) . . .
55(4) . . .
61(4) . . .
53(4) . . .
49(4) . . .
58(4) . . .
51(4) . . .
60(4) . . .
53(4) . . .
46(4) . . .
48(4) . . .
59(4) . . .
44(4) . . .
56(4) . . .
56(4) . . .
51(4) . . .
51(4) . . .
57(4) . . .
56(4) . . .
55(4) . . .
55(4) . . .
53(4) . . .
45(4) . . .
58(4) . . .
61(4) . . .
52(4) . . .
43.8(35) . . .
60(4) . . .
52(4) . . .
49(4) . . .
56(4) . . .
52(4) . . .
57(4) . . .
53(4) . . .
65(4) . . .
59(4) . . .
53(4) . . .
55(4) . . .
58(4) . . .
54(4) . . .
52(4) . . .
60(4) . . .
59(4) . . .
51(4) . . .
50(4) . . .
61(4) . . .
56(4) . . .
46(4) . . .
53(4) . . .
54(4) . . .
50(4) . . .
46(4) . . .
47(4) . . .
52(4) . . .
49(4) . . .
55(4) . . .
53(4) . . .
51(4) . . .
50(4) . . .
49(4) . . .
69(4) . . .
57(4) . . .
55(4) . . .
59(4) . . .
52(4) . . .
45(4) . . .
52(4) . . .
51(4) . . .
56(4) . . .
51(4) . . .
47(4) . . .
46(4) . . .
65(4) . . .
43.2(34) . . .
51(4) . . .
58(4) . . .
47(4) . . .
46(4) . . .
48(4) . . .
51(4) . . .
50(4) . . .
57(4) . . .
73(5) . . .
54(4) . . .
55(4) . . .
57(4) . . .
45(4) . . .
57(4) . . .
64(4) . . .
58(4) . . .
50(4) . . .
54(4) . . .
67(5) . . .
56(4) . . .
52(4) . . .
54(4) . . .
46(4) . . .
36.7(32) . . .
41.4(33) . . .
50(4) . . .
46(4) . . .
45(4) . . .
53(4) . . .
62(4) . . .
53(4) . . .
47(4) . . .
53(4) . . .
57(4) . . .
52(4) . . .
52(4) . . .
52(4) . . .
37.8(33) . . .
43(4) . . .
57(4) . . .
52(4) . . .
53(4) . . .
48(4) . . .
49(4) . . .
48(4) . . .
53(4) . . .
58(4) . . .
61(4) . . .
56(4) . . .
42.7(34) . . .
56(4) . . .
52(4) . . .
46(4) . . .
42.4(34) . . .
60(4) . . .
47(4) . . .
59(5) . . .
56(4) . . .
49(4) . . .
62(4) . . .
54(4) . . .
46(4) . . .
39.7(34) . . .
49(4) . . .
52(4) . . .
54(4) . . .
50(4) . . .
48(4) . . .
48(4) . . .
49(4) . . .
55(4) . . .
47(4) . . .
44(4) . . .
50(4) . . .
56(4) . . .
47(4) . . .
48(4) . . .
48(4) . . .
51(4) . . .
53(4) . . .
45(4) . . .
55(4) . . .
46(4) . . .
49(4) . . .
52(4) . . .
60(4) . . .
50(4) . . .
47(4) . . .
52(4) . . .
47(4) . . .
48(4) . . .
53(4) . . .
51(4) . . .
53(4) . . .
54(4) . . .
61(4) . . .
63(4) . . .
50(4) . . .
63(4) . . .
46(4) . . .
55(4) . . .
50(4) . . .
50(4) . . .
50(4) . . .
47(4) . . .
52(4) . . .
55(4) . . .
61(4) . . .
49(4) . . .
55(4) . . .
56(4) . . .
54(4) . . .
45(4) . . .
51(4) . . .
55(4) . . .
42(4) . . .
53(4) . . .
47(4) . . .
53(4) . . .
46(4) . . .
58(4) . . .
55(4) . . .
61(4) . . .
53(4) . . .
49(4) . . .
57(4) . . .
57(4) . . .
62(4) . . .
51(4) . . .
53(4) . . .
54(4) . . .
49(4) . . .
46(4) . . .
55(4) . . .
46(4) . . .
46(4) . . .
58(4) . . .
57(4) . . .
51(4) . . .
54(4) . . .
61(4) . . .
49(4) . . .
50(4) . . .
55(4) . . .
55(4) . . .
59(4) . . .
54(4) . . .
52(4) . . .
54(4) . . .
53(4) . . .
55(4) . . .
57(4) . . .
52(4) . . .
49(4) . . .
53(4) . . .
61(4) . . .
45(4) . . .
49(4) . . .
60(4) . . .
53(4) . . .
50(4) . . .
55(4) . . .
52(4) . . .
57(4) . . .
55(4) . . .
49(4) . . .
49(4) . . .
48(4) . . .
55(4) . . .
45(4) . . .
50(4) . . .
42.1(34) . . .
48(4) . . .
61(4) . . .
51(4) . . .
51(4) . . .
47(4) . . .
43.5(34) . . .
47(4) . . .
57(4) . . .
43.1(35) . . .
51(4) . . .
48(4) . . .
58(4) . . .
57(4) . . .
42.2(34) . . .
51(4) . . .
50(4) . . .
49(4) . . .
57(4) . . .
57(4) . . .
55(4) . . .
40.1(34) . . .
49(4) . . .
58(4) . . .
55(4) . . .
55(4) . . .
49(4) . . .
45(4) . . .
56(4) . . .
53(4) . . .
60(4) . . .
52(4) . . .
55(4) . . .
55(4) . . .
53(4) . . .
51(4) . . .
50(4) . . .
47(4) . . .
47(4) . . .
55(4) . . .
55(4) . . .
53(4) . . .
59(4) . . .
53(4) . . .
53(4) . . .
63(4) . . .
56(4) . . .
58(4) . . .
53(4) . . .
59(4) . . .
55(4) . . .
46(4) . . .
52(4) . . .
45(4) . . .
52(4) . . .
50(4) . . .
59(4) . . .
55(4) . . .
48(4) . . .
36.1(32) . . .
49(4) . . .
49(4) . . .
51(4) . . .
52(4) . . .
52(4) . . .
49(4) . . .
54(4) . . .
59(4) . . .
59(4) . . .
51(4) . . .
50(4) . . .
50(4) . . .
52(4) . . .
54(4) . . .
50(4) . . .
53(4) . . .
46(4) . . .
64(4) . . .
55(4) . . .
47(4) . . .
40.4(34) . . .
57(4) . . .
50(4) . . .
47(4) . . .
54(4) . . .
54(4) . . .
49(4) . . .
46.1(35) . . .
50(4) . . .
43.7(34) . . .
63(4) . . .
45(4) . . .
62(4) . . .
47(4) . . .
41.5(34) . . .
56(4) . . .
50(4) . . .
50(4) . . .
57(4) . . .
41.7(34) . . .
48(4) . . .
51(4) . . .
58(4) . . .
55(4) . . .
49(4) . . .
49(4) . . .
49(4) . . .
57(4) . . .
56(4) . . .
45(4) . . .
45(4) . . .
48(4) . . .
48(4) . . .
60(4) . . .
59(4) . . .
47(4) . . .
42(4) . . .
46(4) . . .
41.4(34) . . .
50(4) . . .
60(4) . . .
53(4) . . .
49(4) . . .
37.1(32) . . .
40.3(34) . . .
51(4) . . .
47(4) . . .
43.9(35) . . .
48(4) . . .
47(4) . . .
58(4) . . .
52(4) . . .
46(4) . . .
60(4) . . .
44(4) . . .
46(4) . . .
46(4) . . .
41.1(35) . . .
54(4) . . .
46(4) . . .
41.6(34) . . .
43(4) . . .
52(4) . . .
49(4) . . .
49(4) . . .
50(4) . . .
44(4) . . .
43.8(34) . . .
40.9(35) . . .
46(4) . . .
47(4) . . .
65(4) . . .
47(4) . . .
50(4) . . .
37.9(32) . . .
57(4) . . .
56(4) . . .
46(4) . . .
48(4) . . .
53(4) . . .
48(4) . . .
41.5(34) . . .
45.9(35) . . .
48(4) . . .
51(4) . . .
55(4) . . .
54(4) . . .
61(4) . . .
43(4) . . .
49(4) . . .
44(4) . . .
44(4) . . .
43.5(34) . . .
56(4) . . .
52(4) . . .
47(4) . . .
53(4) . . .
53(4) . . .
48(4) . . .
44(4) . . .
44(4) . . .
45(4) . . .
47(4) . . .
45(4) . . .
46(4) . . .
54(4) . . .
42.9(34) . . .
51(4) . . .
57(4) . . .
48(4) . . .
55(4) . . .
56(4) . . .
47(4) . . .
43(4) . . .
46(4) . . .
48(4) . . .
52(4) . . .
54(4) . . .
57(4) . . .
46(4) . . .
50(4) . . .
40.4(33) . . .
41.6(34) . . .
47(4) . . .
53(4) . . .
47(4) . . .
45(4) . . .
46(4) . . .
50(4) . . .
55(4) . . .
51(4) . . .
53(4) . . .
50(4) . . .
46.2(35) . . .
43.5(35) . . .
49(4) . . .
53(4) . . .
52(4) . . .
49(4) . . .
35.8(33) . . .
50(4) . . .
51(4) . . .
50(4) . . .
53(4) . . .
50(4) . . .
42(4) . . .
40.3(33) . . .
53(4) . . .
43(4) . . .
58(4) . . .
54(4) . . .
52(4) . . .
55(4) . . .
51(4) . . .
51(4) . . .
44.9(35) . . .
52(4) . . .
54(4) . . .
56(4) . . .
52(4) . . .
61(4) . . .
52(4) . . .
41.7(33) . . .
48(4) . . .
57(4) . . .
44.2(35) . . .
54(4) . . .
49(4) . . .
57(4) . . .
44.0(35) . . .
49(4) . . .
57(4) . . .
52(4) . . .
55(4) . . .
49(4) . . .
42.2(34) . . .
48(4) . . .
52(4) . . .
48(4) . . .
56(4) . . .
63(4) . . .
52(4) . . .
51(4) . . .
50(4) . . .
41.5(35) . . .
44.2(35) . . .
47(4) . . .
57(4) . . .
47(4) . . .
59(4) . . .
61(4) . . .
62(4) . . .
51(4) . . .
44(4) . . .
57(4) . . .
49(4) . . .
49(4) . . .
51(4) . . .
52(4) . . .
43.7(35) . . .
52(4) . . .
52(4) . . .
45(4) . . .
46(4) . . .
48(4) . . .
56(4) . . .
56(4) . . .
50(4) . . .
50(4) . . .
47(4) . . .
55(4) . . .
51(4) . . .
40(4) . . .
41.4(33) . . .
54(4) . . .
56(4) . . .
47(4) . . .
56(4) . . .
53(4) . . .
39.8(33) . . .
51(4) . . .
42.2(34) . . .
56(4) . . .
46(4) . . .
52(4) . . .
42(4) . . .
45(4) . . .
49(4) . . .
46(4) . . .
47(4) . . .
50(4) . . .
50(4) . . .
56(4) . . .
45(4) . . .
47(4) . . .
57(4) . . .
59(4) . . .
48(4) . . .
57(4) . . .
48(4) . . .
54(4) . . .
43(4) . . .
50(4) . . .
59(4) . . .
56(4) . . .
49(4) . . .
38.0(32) . . .
46(4) . . .
54(4) . . .
55(4) . . .
55(4) . . .
53(4) . . .
52(4) . . .
57(4) . . .
53(4) . . .
51(4) . . .
53(4) . . .
51(4) . . .
44.7(34) . . .
55(4) . . .
47(4) . . .
49(4) . . .
53(4) . . .
50(4) . . .
43.2(34) . . .
46(4) . . .
42(4) . . .
52(4) . . .
42.7(34) . . .
55(4) . . .
52(4) . . .
54(4) . . .
48(4) . . .
43.3(34) . . .
59(4) . . .
50(4) . . .
52(4) . . .
55(4) . . .
47(4) . . .
52(4) . . .
50(4) . . .
43(4) . . .
41.3(34) . . .
42.3(34) . . .
46(4) . . .
49(4) . . .
47(4) . . .
49(4) . . .
42.2(34) . . .
44.5(34) . . .
56(4) . . .
45(4) . . .
53(4) . . .
53(4) . . .
51(4) . . .
38.3(33) . . .
36.9(32) . . .
44.0(35) . . .
39.5(33) . . .
41.4(35) . . .
48(4) . . .
53(4) . . .
60(4) . . .
46(4) . . .
51(4) . . .
48(4) . . .
52(4) . . .
50(4) . . .
48(4) . . .
47(4) . . .
47(4) . . .
45(4) . . .
56(4) . . .
55(4) . . .
46(4) . . .
48(4) . . .
45(4) . . .
46(4) . . .
51(4) . . .
42.8(34) . . .
50(4) . . .
52(4) . . .
54(4) . . .
45(4) . . .
42.6(34) . . .
52(4) . . .
47(4) . . .
47(4) . . .
54(4) . . .
56(4) . . .
55(4) . . .
50(4) . . .
57(4) . . .
54(4) . . .
51(4) . . .
47(4) . . .
49(4) . . .
54(4) . . .
50(4) . . .
51(4) . . .
49(4) . . .
50(4) . . .
52(4) . . .
51(4) . . .
51(4) . . .
48(4) . . .
53(4) . . .
46(4) . . .
48(4) . . .
49(4) . . .
52(4) . . .
47(4) . . .
48(4) . . .
48(4) . . .
50(4) . . .
47(4) . . .
48(4) . . .
53(4) . . .
50(4) . . .
51(4) . . .
49(4) . . .
42.5(34) . . .
53(4) . . .
50(4) . . .
72(5) . . .
50(4) . . .
40.9(33) . . .
51(4) . . .
43.2(35) . . .
46(4) . . .
52(4) . . .
47(4) . . .
49(4) . . .
51(4) . . .
45(4) . . .
40.5(34) . . .
52(4) . . .
60(4) . . .
60(4) . . .
45(4) . . .
44.5(35) . . .
57(4) . . .
49(4) . . .
48(4) . . .
43(4) . . .
40.7(34) . . .
43.7(34) . . .
44.1(35) . . .
44(4) . . .
45(4) . . .
50(4) . . .
54(4) . . .
51(4) . . .
52(4) . . .
45(4) . . .
46(4) . . .
55(4) . . .
53(4) . . .
53(4) . . .
41.8(34) . . .
51(4) . . .
45.2(34) . . .
46(4) . . .
54(4) . . .
47(4) . . .
44.7(35) . . .
39.9(34) . . .
56(4) . . .
56(4) . . .
53(4) . . .
52(4) . . .
46.2(35) . . .
51(4) . . .
47(4) . . .
50(4) . . .
46(4) . . .
42.7(34) . . .
52(4) . . .
54(4) . . .
48(4) . . .
45(4) . . .
49(4) . . .
47(4) . . .
50(4) . . .
45(4) . . .
46(4) . . .
49(4) . . .
42.7(35) . . .
32.4(31) . . .
48(4) . . .
44.1(35) . . .
54(4) . . .
51(4) . . .
47(4) . . .
58(4) . . .
46(4) . . .
39.0(32) . . .
52(4) . . .
52(4) . . .
51(4) . . .
50(4) . . .
42.8(35) . . .
44(4) . . .
36.3(32) . . .
47(4) . . .
59(4) . . .
54(4) . . .
45(4) . . .
50(4) . . .
37.9(32) . . .
55(4) . . .
50(4) . . .
50(4) . . .
49(4) . . .
52(4) . . .
53(4) . . .
49(4) . . .
48(4) . . .
47(4) . . .
45(4) . . .
48(4) . . .
51(4) . . .
46(4) . . .
57(4) . . .
47(4) . . .
53(4) . . .
46(4) . . .
42(4) . . .
44(4) . . .
50(4) . . .
43.6(35) . . .
40.6(34) . . .
45(4) . . .
54(4) . . .
51(4) . . .
45(4) . . .
45(4) . . .
45(4) . . .
46(4) . . .
49(4) . . .
48(4) . . .
59(4) . . .
56(4) . . .
59(4) . . .
53(4) . . .
46(4) . . .
54(4) . . .
50(4) . . .
59(4) . . .
44.8(35) . . .
56(4) . . .
56(4) . . .
44(4) . . .
51(4) . . .
55(4) . . .
47(4) . . .
45(4) . . .
50(4) . . .
48(4) . . .
40.5(33) . . .
48(4) . . .
61(4) . . .
57(4) . . .
48(4) . . .
55(4) . . .
60(4) . . .
54(4) . . .
53(4) . . .
46(4) . . .
40.3(33) . . .
52(4) . . .
49(4) . . .
54(4) . . .
55(4) . . .
52(4) . . .
56(4) . . .
46(4) . . .
47(4) . . .
54(4) . . .
42.5(34) . . .
46(4) . . .
41.8(35) . . .
46(4) . . .
44.5(35) . . .
44(4) . . .
51(4) . . .
49(4) . . .
47(4) . . .
51(4) . . .
53(4) . . .
54(4) . . .
47(4) . . .
57(4) . . .
53(4) . . .
52(4) . . .
50(4) . . .
38.5(31) . . .
42.9(34) . . .
48(4) . . .
47(4) . . .
54(4) . . .
43(4) . . .
43(4) . . .
42.2(34) . . .
45(4) . . .
61(4) . . .
50(4) . . .
47(4) . . .
49(4) . . .
52(4) . . .
48(4) . . .
56(4) . . .
54(4) . . .
46.4(35) . . .
52(4) . . .
52(4) . . .
53(4) . . .
40.8(33) . . .
55(4) . . .
48(4) . . .
55(4) . . .
50(4) . . .
39.1(32) . . .
55(4) . . .
50(4) . . .
59(4) . . .
58(4) . . .
40.4(34) . . .
51(4) . . .
45(4) . . .
48(4) . . .
48(4) . . .
62(4) . . .
48(4) . . .
49(4) . . .
48(4) . . .
50(4) . . .
49(4) . . .
58(4) . . .
47(4) . . .
41.0(34) . . .
54(4) . . .
52(4) . . .
49(4) . . .
48(4) . . .
55(4) . . .
53(4) . . .
46(4) . . .
53(4) . . .
49(4) . . .
46(4) . . .
53(4) . . .
52(4) . . .
50(4) . . .
54(4) . . .
54(4) . . .
46(4) . . .
62(4) . . .
47(4) . . .
52(4) . . .
48(4) . . .
53(4) . . .
48(4) . . .
48(4) . . .
51(4) . . .
46(4) . . .
55(4) . . .
47(4) . . .
50(4) . . .
51(4) . . .
55(4) . . .
46(4) . . .
46(4) . . .
45(4) . . .
42.8(34) . . .
48(4) . . .
46.7(35) . . .
56(4) . . .
53(4) . . .
53(4) . . .
50(4) . . .
51(4) . . .
51(4) . . .
48(4) . . .
46(4) . . .
45(4) . . .
45.9(35) . . .
39.8(34) . . .
47(4) . . .
48(4) . . .
50(4) . . .
47(4) . . .
42.4(34) . . .
52(4) . . .
39.6(33) . . .
47(4) . . .
47(4) . . .
48(4) . . .
46(4) . . .
42.5(35) . . .
43(4) . . .
54(4) . . .
47(4) . . .
43(4) . . .
43(4) . . .
51(4) . . .
52(4) . . .
43.8(34) . . .
50(4) . . .
45(4) . . .
44.6(35) . . .
49(4) . . .
42(4) . . .
40.7(34) . . .
45(4) . . .
39.2(34) . . .
54(4) . . .
52(4) . . .
57(4) . . .
48(4) . . .
51(4) . . .
50(4) . . .
48(4) . . .
55(4) . . .
56(4) . . .
52(4) . . .
52(4) . . .
58(4) . . .
48(4) . . .
42.6(34) . . .
50(4) . . .
47(4) . . .
47(4) . . .
45(4) . . .
48(4) . . .
53(4) . . .
53(4) . . .
52(4) . . .
41.3(34) . . .
55(4) . . .
52(4) . . .
48(4) . . .
57(4) . . .
56(4) . . .
52(4) . . .
46(4) . . .
52(4) . . .
57(4) . . .
46(4) . . .
48(4) . . .
53(4) . . .
53(4) . . .
49(4) . . .
45(4) . . .
51(4) . . .
48(4) . . .
46(4) . . .
45(4) . . .
51(4) . . .
42.8(34) . . .
45(4) . . .
53(4) . . .
58(4) . . .
51(4) . . .
44(4) . . .
53(4) . . .
48(4) . . .
48(4) . . .
45(4) . . .
42.7(34) . . .
56(4) . . .
37.9(32) . . .
49(4) . . .
52(4) . . .
42.0(34) . . .
46(4) . . .
51(4) . . .
53(4) . . .
44.8(35) . . .
47(4) . . .
56(4) . . .
47(4) . . .
53(4) . . .
49(4) . . .
49(4) . . .
55(4) . . .
47(4) . . .
47(4) . . .
36.3(32) . . .
50(4) . . .
48(4) . . .
47(4) . . .
46(4) . . .
49(4) . . .
40.8(34) . . .
53(4) . . .
45.4(34) . . .
53(4) . . .
52(4) . . .
48(4) . . .
53(4) . . .
59(4) . . .
46(4) . . .
40.3(34) . . .
44.6(35) . . .
53(4) . . .
46(4) . . .
41.5(35) . . .
46(4) . . .
44.5(35) . . .
50(4) . . .
52(4) . . .
54(4) . . .
51(4) . . .
58(4) . . .
53(4) . . .
48(4) . . .
42.8(34) . . .
48(4) . . .
49(4) . . .
49(4) . . .
53(4) . . .
47(4) . . .
42.2(34) . . .
45(4) . . .
50(4) . . .
49(4) . . .
44(4) . . .
41.0(33) . . .
54(4) . . .
43.3(35) . . .
44(4) . . .
54(4) . . .
46(4) . . .
39.6(33) . . .
53(4) . . .
54(4) . . .
56(4) . . .
58(4) . . .
57(4) . . .
51(4) . . .
59(4) . . .
46(4) . . .
46(4) . . .
39.5(32) . . .
39.8(34) . . .
60(4) . . .
49(4) . . .
55(4) . . .
48(4) . . .
55(4) . . .
59(4) . . .
57(4) . . .
41.0(33) . . .
44.8(35) . . .
40.2(34) . . .
44(4) . . .
41.2(33) . . .
43.7(34) . . .
60(4) . . .
53(4) . . .
49(4) . . .
52(4) . . .
48(4) . . .
49(4) . . .
42(4) . . .
55(4) . . .
53(4) . . .
49(4) . . .
41(4) . . .
47(4) . . .
51(4) . . .
46(4) . . .
44.4(35) . . .
37.7(33) . . .
47(4) . . .
47(4) . . .
44(4) . . .
43.6(35) . . .
38.8(34) . . .
42(4) . . .
43(4) . . .
47(4) . . .
57(4) . . .
43.3(35) . . .
47(4) . . .
52(4) . . .
52(4) . . .
43.9(35) . . .
51(4) . . .
41.7(34) . . .
47(4) . . .
53(4) . . .
53(4) . . .
53(4) . . .
42.9(35) . . .
40.8(33) . . .
42.9(35) . . .
62(4) . . .
55(4) . . .
45.5(35) . . .
56(4) . . .
46(4) . . .
59(4) . . .
50(4) . . .
39.6(34) . . .
46(4) . . .
41.7(33) . . .
30.5(29) . . .
48(4) . . .
49(4) . . .
41.7(34) . . .
45(4) . . .
51(4) . . .
55(4) . . .
54(4) . . .
47(4) . . .
47(4) . . .
40.7(33) . . .
31.6(29) . . .
48(4) . . .
47(4) . . .
39.5(33) . . .
48(4) . . .
42(4) . . .
49(4) . . .
47(4) . . .
52(4) . . .
50(4) . . .
49(4) . . .
47(4) . . .
47(4) . . .
48(4) . . .
38.9(32) . . .
45(4) . . .
54(4) . . .
45.9(35) . . .
42.1(34) . . .
49(4) . . .
47(4) . . .
48(4) . . .
43.3(34) . . .
47(4) . . .
50(4) . . .
42(4) . . .
49(4) . . .
60(4) . . .
46(4) . . .
46(4) . . .
46(4) . . .
43.8(35) . . .
49(4) . . .
41.9(35) . . .
51(4) . . .
47(4) . . .
47(4) . . .
54(4) . . .
48(4) . . .
45(4) . . .
41.5(35) . . .
56(4) . . .
57(4) . . .
43.3(34) . . .
54(4) . . .
52(4) . . .
46(4) . . .
51(4) . . .
47(4) . . .
52(4) . . .
43(4) . . .
48(4) . . .
37.5(31) . . .
43.2(34) . . .
49(4) . . .
51(4) . . .
55(4) . . .
45.2(35) . . .
44(4) . . .
51(4) . . .
45(4) . . .
52(4) . . .
51(4) . . .
51(4) . . .
44(4) . . .
49(4) . . .
51(4) . . .
50(4) . . .
53(4) . . .
59(4) . . .
45(4) . . .
49(4) . . .
55(4) . . .
53(4) . . .
51(4) . . .
55(4) . . .
49(4) . . .
52(4) . . .
49(4) . . .
47(4) . . .
51(4) . . .
44.5(35) . . .
52(4) . . .
59(4) . . .
45(4) . . .
55(4) . . .
47(4) . . .
45(4) . . .
40.8(35) . . .
51(4) . . .
47(4) . . .
54(4) . . .
43.8(35) . . .
53(4) . . .
46(4) . . .
47(4) . . .
48(4) . . .
51(4) . . .
54(4) . . .
46(4) . . .
54(4) . . .
55(4) . . .
47(4) . . .
52(4) . . .
59(4) . . .
41.7(35) . . .
45.1(35) . . .
40.1(33) . . .
46(4) . . .
41.9(34) . . .
50(4) . . .
43.6(34) . . .
43(4) . . .
50(4) . . .
51(4) . . .
51(4) . . .
41.0(33) . . .
35.3(30) . . .
50(4) . . .
50(4) . . .
49(4) . . .
49(4) . . .
47(4) . . .
52(4) . . .
39.1(32) . . .
42.5(34) . . .
49(4) . . .
49(4) . . .
38.4(33) . . .
55(4) . . .
57(4) . . .
49(4) . . .
60(4) . . .
49(4) . . .
42(4) . . .
51(4) . . .
39.7(33) . . .
47(4) . . .
48(4) . . .
57(4) . . .
51(4) . . .
48(4) . . .
55(4) . . .
57(4) . . .
43.8(35) . . .
52(4) . . .
53(4) . . .
51(4) . . .
47(4) . . .
49(4) . . .
58(4) . . .
52(4) . . .
48(4) . . .
45.6(35) . . .
50(4) . . .
51(4) . . .
55(4) . . .
48(4) . . .
48(4) . . .
52(4) . . .
41.0(34) . . .
41.2(34) . . .
45(4) . . .
44(4) . . .
54(4) . . .
46(4) . . .
48(4) . . .
49(4) . . .
45(4) . . .
48(4) . . .
49(4) . . .
47(4) . . .
52(4) . . .
39.4(33) . . .
44.0(35) . . .
52(4) . . .
45(4) . . .
54(4) . . .
51(4) . . .
47(4) . . .
50(4) . . .
45(4) . . .
47(4) . . .
44(4) . . .
45.1(35) . . .
52(4) . . .
55(4) . . .
41.0(33) . . .
46(4) . . .
51(4) . . .
37.5(34) . . .
47(4) . . .
48(4) . . .
52(4) . . .
40.3(33) . . .
53(4) . . .
38.2(34) . . .
50(4) . . .
45.1(35) . . .
46(4) . . .
52(4) . . .
52(4) . . .
38.5(32) . . .
43.1(35) . . .
38.8(33) . . .
42(4) . . .
49(4) . . .
52(4) . . .
47(4) . . .
43.5(34) . . .
49(4) . . .
49(4) . . .
49(4) . . .
57(4) . . .
50(4) . . .
51(4) . . .
38.0(35) . . .
44(4) . . .
52(4) . . .
57(4) . . .
52(4) . . .
41.6(34) . . .
49(4) . . .
47(4) . . .
42.2(35) . . .
56(4) . . .
46(4) . . .
49(4) . . .
35.2(31) . . .
59(4) . . .
46.1(35) . . .
37.9(33) . . .
53(4) . . .
51(4) . . .
47(4) . . .
49(4) . . .
42(4) . . .
51(4) . . .
48(4) . . .
51(4) . . .
53(4) . . .
40.1(34) . . .
48(4) . . .
54(4) . . .
45(4) . . .
53(4) . . .
51(4) . . .
51(4) . . .
41.2(33) . . .
52(4) . . .
45(4) . . .
51(4) . . .
50(4) . . .
44.1(35) . . .
47(4) . . .
48(4) . . .
54(4) . . .
49(4) . . .
49(4) . . .
56(4) . . .
52(4) . . .
53(4) . . .
58(4) . . .
45(4) . . .
50(4) . . .
47(4) . . .
59(4) . . .
50(4) . . .
48(4) . . .
50(4) . . .
57(4) . . .
49(4) . . .
43.0(35) . . .
50(4) . . .
48(4) . . .
51(4) . . .
49(4) . . .
48(4) . . .
54(4) . . .
50(4) . . .
55(4) . . .
50(4) . . .
41.1(34) . . .
46(4) . . .
53(4) . . .
48(4) . . .
39.6(33) . . .
51(4) . . .
48(4) . . .
57(4) . . .
43(4) . . .
46(4) . . .
59(4) . . .
59(4) . . .
44(4) . . .
40.4(35) . . .
50(4) . . .
50(4) . . .
47(4) . . .
57(4) . . .
47(4) . . .
48(4) . . .
54(4) . . .
47(4) . . .
51(4) . . .
50(4) . . .
40.5(33) . . .
50(4) . . .
52(4) . . .
47(4) . . .
39.9(35) . . .
43.0(34) . . .
53(4) . . .
52(4) . . .
52(4) . . .
54(4) . . .
42.6(34) . . .
48(4) . . .
47(4) . . .
49(4) . . .
44(4) . . .
41.6(33) . . .
50(4) . . .
45.7(35) . . .
47(4) . . .
48(4) . . .
42.9(33) . . .
49(4) . . .
57(4) . . .
48(4) . . .
54(4) . . .
43.5(34) . . .
45(4) . . .
37.9(34) . . .
44(4) . . .
43(4) . . .
54(4) . . .
52(4) . . .
48(4) . . .
46(4) . . .
48(4) . . .
52(4) . . .
58(4) . . .
43(4) . . .
44(4) . . .
44(4) . . .
50(4) . . .
47(4) . . .
52(4) . . .
53(4) . . .
49(4) . . .
48(4) . . .
47(4) . . .
50(4) . . .
48(4) . . .
46(4) . . .
47(4) . . .
51(4) . . .
60(4) . . .
57(4) . . .
46.4(35) . . .
48(4) . . .
44(4) . . .
47(4) . . .
37.8(33) . . .
41.9(34) . . .
48(4) . . .
45(4) . . .
48(4) . . .
41.2(35) . . .
49(4) . . .
45(4) . . .
51(4) . . .
51(4) . . .
56(4) . . .
54(4) . . .
48(4) . . .
43.1(34) . . .
45(4) . . .
47(4) . . .
44(4) . . .
49(4) . . .
43(4) . . .
46(4) . . .
40.3(33) . . .
52(4) . . .
44(4) . . .
36.5(33) . . .
40.7(34) . . .
47(4) . . .
50(4) . . .
43.8(35) . . .
54(4) . . .
42.8(34) . . .
50(4) . . .
48(4) . . .
50(4) . . .
60(4) . . .
52(4) . . .
43.3(35) . . .
47(4) . . .
45(4) . . .
41(4) . . .
45(4) . . .
42.1(33) . . .
43.8(35) . . .
49(4) . . .
44(4) . . .
42.5(35) . . .
44(4) . . .
49(4) . . .
55(4) . . .
50(4) . . .
51(4) . . .
58(4) . . .
43.1(34) . . .
44.8(34) . . .
49(4) . . .
54(4) . . .
49(4) . . .
46(4) . . .
56(4) . . .
60(4) . . .
53(4) . . .
52(4) . . .
56(4) . . .
52(4) . . .
44.5(35) . . .
46(4) . . .
44.6(35) . . .
44(4) . . .
52(4) . . .
44.2(35) . . .
49(4) . . .
41.0(33) . . .
43.3(35) . . .
47(4) . . .
43.9(35) . . .
37.8(33) . . .
47(4) . . .
46(4) . . .
46(4) . . .
42.0(35) . . .
46(4) . . .
51(4) . . .
50(4) . . .
46(4) . . .
41(4) . . .
50(4) . . .
59(4) . . .
51(4) . . .
49(4) . . .
45(4) . . .
44.1(34) . . .
48(4) . . .
46(4) . . .
54(4) . . .
49(4) . . .
45(4) . . .
49(4) . . .
43.1(35) . . .
44(4) . . .
52(4) . . .
55(4) . . .
43.4(34) . . .
37.6(33) . . .
43(4) . . .
46(4) . . .
46.1(35) . . .
53(4) . . .
48(4) . . .
42.5(34) . . .
45(4) . . .
43.5(34) . . .
45.0(35) . . .
50(4) . . .
42(4) . . .
47(4) . . .
45.7(35) . . .
46(4) . . .
47(4) . . .
51(4) . . .
45(4) . . .
56(4) . . .
43.1(34) . . .
51(4) . . .
53(4) . . .
46(4) . . .
55(4) . . .
40.2(35) . . .
49(4) . . .
52(4) . . .
53(4) . . .
51(4) . . .
49(4) . . .
43(4) . . .
51(4) . . .
51(4) . . .
41.7(34) . . .
54(4) . . .
43.9(35) . . .
47(4) . . .
49(4) . . .
53(4) . . .
46(4) . . .
42(4) . . .
46(4) . . .
41.4(33) . . .
44.8(35) . . .
44(4) . . .
49(4) . . .
50(4) . . .
53(4) . . .
44.0(34) . . .
47(4) . . .
46(4) . . .
49(4) . . .
48(4) . . .
45(4) . . .
53(4) . . .
49(4) . . .
37.3(33) . . .
38.3(32) . . .
43(4) . . .
41.7(34) . . .
44(4) . . .
53(4) . . .
47(4) . . .
49(4) . . .
53(4) . . .
49(4) . . .
48(4) . . .
48(4) . . .
39.9(33) . . .
50(4) . . .
51(4) . . .
47(4) . . .
39.9(33) . . .
43.2(35) . . .
46(4) . . .
50(4) . . .
38.5(34) . . .
37.5(32) . . .
46(4) . . .
49(4) . . .
51(4) . . .
43.3(34) . . .
53(4) . . .
41(4) . . .
48(4) . . .
45(4) . . .
46(4) . . .
42.8(35) . . .
47(4) . . .
54(4) . . .
55(4) . . .
39.2(32) . . .
46(4) . . .
48(4) . . .
58(4) . . .
56(4) . . .
41.3(33) . . .
46(4) . . .
41.3(34) . . .
54(4) . . .
45.0(34) . . .
45.1(34) . . .
53(4) . . .
45(4) . . .
51(4) . . .
47(4) . . .
41.8(34) . . .
45(4) . . .
46(4) . . .
39.7(34) . . .
52(4) . . .
48(4) . . .
45(4) . . .
45(4) . . .
50(4) . . .
46(4) . . .
52(4) . . .
40.8(33) . . .
43.0(34) . . .
52(4) . . .
38.0(32) . . .
41.3(33) . . .
46(4) . . .
52(4) . . .
45(4) . . .
46(4) . . .
39.0(33) . . .
38.9(33) . . .
45(4) . . .
53(4) . . .
46(4) . . .
49(4) . . .
43(4) . . .
53(4) . . .
49(4) . . .
55(4) . . .
49(4) . . .
50(4) . . .
49(4) . . .
51(4) . . .
58(4) . . .
58(4) . . .
55(4) . . .
47(4) . . .
44(4) . . .
50(4) . . .
52(4) . . .
49(4) . . .
48(4) . . .
50(4) . . .
47(4) . . .
57(4) . . .
57(4) . . .
54(4) . . .
46(4) . . .
47(4) . . .
52(4) . . .
51(4) . . .
45(4) . . .
51(4) . . .
41.5(33) . . .
34.4(31) . . .
46(4) . . .
41(4) . . .
43(4) . . .
42.8(34) . . .
46(4) . . .
60(4) . . .
51(4) . . .
46(4) . . .
45.0(35) . . .
46(4) . . .
48(4) . . .
46(4) . . .
40.9(34) . . .
47(4) . . .
41.2(33) . . .
45(4) . . .
43(4) . . .
41.9(34) . . .
48(4) . . .
58(4) . . .
52(4) . . .
46(4) . . .
41.9(34) . . .
49(4) . . .
50(4) . . .
41(4) . . .
38.7(31) . . .
53(4) . . .
40.3(32) . . .
43(4) . . .
51(4) . . .
47(4) . . .
51(4) . . .
49(4) . . .
46(4) . . .
45(4) . . .
43.2(34) . . .
49(4) . . .
44.3(35) . . .
47(4) . . .
54(4) . . .
46(4) . . .
46(4) . . .
41.5(34) . . .
37.6(34) . . .
55(4) . . .
45.2(35) . . .
44(4) . . .
44.6(34) . . .
55(4) . . .
45(4) . . .
52(4) . . .
50(4) . . .
51(4) . . .
55(4) . . .
43(4) . . .
42(4) . . .
47(4) . . .
39.4(33) . . .
38.7(33) . . .
40.8(35) . . .
45(4) . . .
40.7(33) . . .
49(4) . . .
47(4) . . .
54(4) . . .
48(4) . . .
43.8(34) . . .
56(4) . . .
50(4) . . .
50(4) . . .
40.2(33) . . .
46(4) . . .
55(4) . . .
50(4) . . .
42(4) . . .
38.6(34) . . .
51(4) . . .
48(4) . . .
45(4) . . .
41.4(33) . . .
53(4) . . .
54(4) . . .
48(4) . . .
53(4) . . .
47(4) . . .
56(4) . . .
47(4) . . .
48(4) . . .
57(4) . . .
43.2(34) . . .
47(4) . . .
47(4) . . .
45.3(35) . . .
49(4) . . .
49(4) . . .
47(4) . . .
47(4) . . .
47(4) . . .
45(4) . . .
49(4) . . .
46(4) . . .
47(4) . . .
46(4) . . .
54(4) . . .
40.0(35) . . .
55(4) . . .
44.3(34) . . .
52(4) . . .
49(4) . . .
47(4) . . .
44.5(35) . . .
49(4) . . .
41(4) . . .
51(4) . . .
47(4) . . .
52(4) . . .
50(4) . . .
36.6(33) . . .
40.9(33) . . .
50(4) . . .
38.2(32) . . .
40.5(34) . . .
42(4) . . .
46(4) . . .
46(4) . . .
42.5(34) . . .
44(4) . . .
41.8(34) . . .
59(4) . . .
43.8(35) . . .
46(4) . . .
46(4) . . .
48(4) . . .
49(4) . . .
60(4) . . .
41.3(33) . . .
45(4) . . .
46(4) . . .
38.0(35) . . .
47(4) . . .
50(4) . . .
48(4) . . .
50(4) . . .
43(4) . . .
55(4) . . .
47(4) . . .
48(4) . . .
47(4) . . .
42.6(35) . . .
45.2(35) . . .
35.1(32) . . .
46(4) . . .
38.5(34) . . .
41(4) . . .
48(4) . . .
45(4) . . .
45(4) . . .
45(4) . . .
43.2(34) . . .
54(4) . . .
39.0(33) . . .
50(4) . . .
41.3(34) . . .
41.8(34) . . .
48(4) . . .
47(4) . . .
52(4) . . .
55(4) . . .
45.7(35) . . .
44.4(34) . . .
49(4) . . .
49(4) . . .
51(4) . . .
47(4) . . .
41.1(33) . . .
44(4) . . .
46(4) . . .
40.9(34) . . .
53(4) . . .
44.4(35) . . .
38.8(33) . . .
48(4) . . .
46(4) . . .
50(4) . . .
42.2(35) . . .
45(4) . . .
41.6(35) . . .
37.6(32) . . .
49(4) . . .
49(4) . . .
40.0(33) . . .
45(4) . . .
55(4) . . .
48(4) . . .
45(4) . . .
48(4) . . .
58(4) . . .
47(4) . . .
46(4) . . .
42.4(34) . . .
52(4) . . .
46.2(35) . . .
50(4) . . .
41.8(33) . . .
41.2(33) . . .
46(4) . . .
39.7(33) . . .
42.2(34) . . .
54(4) . . .
46(4) . . .
53(4) . . .
54(4) . . .
47(4) . . .
50(4) . . .
50(4) . . .
46(4) . . .
57(4) . . .
45(4) . . .
36.3(31) . . .
46(4) . . .
49(4) . . .
61(4) . . .
47(4) . . .
60(4) . . .
45.5(35) . . .
51(4) . . .
44(4) . . .
52(4) . . .
47(4) . . .
47(4) . . .
43(4) . . .
43.3(35) . . .
40.3(34) . . .
49(4) . . .
53(4) . . .
49(4) . . .
44(4) . . .
40.8(33) . . .
51(4) . . .
47(4) . . .
49(4) . . .
50(4) . . .
59(4) . . .
56(4) . . .
55(4) . . .
55(4) . . .
51(4) . . .
53(4) . . .
48(4) . . .
44(4) . . .
44(4) . . .
53(4) . . .
45.4(35) . . .
41.8(34) . . .
50(4) . . .
52(4) . . .
49(4) . . .
52(4) . . .
49(4) . . .
44(4) . . .
43(4) . . .
41.3(35) . . .
39.1(33) . . .
44(4) . . .
47(4) . . .
42.3(35) . . .
39.9(35) . . .
50(4) . . .
45(4) . . .
48(4) . . .
60(4) . . .
56(4) . . .
41.5(33) . . .
44(4) . . .
43(4) . . .
48(4) . . .
59(4) . . .
48(4) . . .
55(4) . . .
59(4) . . .
50(4) . . .
45.3(35) . . .
50(4) . . .
51(4) . . .
47(4) . . .
48(4) . . .
39.4(32) . . .
42(4) . . .
52(4) . . .
51(4) . . .
52(4) . . .
46(4) . . .
56(4) . . .
50(4) . . .
55(4) . . .
41.2(35) . . .
41.7(34) . . .
51(4) . . .
48(4) . . .
49(4) . . .
43.7(35) . . .
53(4) . . .
43.3(34) . . .
38.3(32) . . .
42(4) . . .
51(4) . . .
48(4) . . .
45(4) . . .
53(4) . . .
55(4) . . .
43.2(34) . . .
48(4) . . .
42.4(34) . . .
45(4) . . .
44(4) . . .
53(4) . . .
52(4) . . .
45(4) . . .
51(4) . . .
49(4) . . .
41.4(34) . . .
42.2(34) . . .
40.2(33) . . .
41(4) . . .
43(4) . . .
49(4) . . .
48(4) . . .
46(4) . . .
36.7(33) . . .
52(4) . . .
40.4(33) . . .
49(4) . . .
46(4) . . .
57(4) . . .
47(4) . . .
59(4) . . .
47(4) . . .
44(4) . . .
51(4) . . .
46(4) . . .
43.2(34) . . .
45.3(35) . . .
48(4) . . .
39.9(33) . . .
41.7(35) . . .
43.8(34) . . .
48(4) . . .
38.3(33) . . .
45(4) . . .
59(4) . . .
45(4) . . .
44(4) . . .
46(4) . . .
49(4) . . .
57(4) . . .
49(4) . . .
49(4) . . .
44(4) . . .
50(4) . . .
49(4) . . .
35.3(31) . . .
52(4) . . .
46(4) . . .
44(4) . . .
54(4) . . .
47(4) . . .
47(4) . . .
40.7(33) . . .
45(4) . . .
51(4) . . .
55(4) . . .
44.1(34) . . .
45(4) . . .
43(4) . . .
51(4) . . .
45(4) . . .
40.7(34) . . .
50(4) . . .
44(4) . . .
42.1(35) . . .
45(4) . . .
55(4) . . .
47(4) . . .
51(4) . . .
54(4) . . .
45.1(35) . . .
45(4) . . .
38.3(34) . . .
49(4) . . .
49(4) . . .
52(4) . . .
41.1(33) . . .
49(4) . . .
49(4) . . .
45(4) . . .
57(4) . . .
52(4) . . .
50(4) . . .
57(4) . . .
52(4) . . .
50(4) . . .
54(4) . . .
51(4) . . .
39.0(32) . . .
52(4) . . .
49(4) . . .
52(4) . . .
48(4) . . .
51(4) . . .
44.0(35) . . .
52(4) . . .
53(4) . . .
44(4) . . .
47(4) . . .
47(4) . . .
42.9(34) . . .
47(4) . . .
44(4) . . .
40.6(33) . . .
50(4) . . .
37.8(34) . . .
48(4) . . .
48(4) . . .
51(4) . . .
41.2(34) . . .
36.5(32) . . .
49(4) . . .
42.5(35) . . .
42.0(34) . . .
44.3(35) . . .
39.6(33) . . .
43(4) . . .
50(4) . . .
43(4) . . .
52(4) . . .
56(4) . . .
46(4) . . .
44.3(35) . . .
45(4) . . .
49(4) . . .
45(4) . . .
52(4) . . .
48(4) . . .
43.4(34) . . .
36.5(32) . . .
48(4) . . .
43(4) . . .
51(4) . . .
47(4) . . .
52(4) . . .
54(4) . . .
42(4) . . .
50(4) . . .
40.7(33) . . .
55(4) . . .
42.4(34) . . .
46(4) . . .
45(4) . . .
41.0(34) . . .
51(4) . . .
35.7(32) . . .
41(4) . . .
39.6(34) . . .
47(4) . . .
38.0(32) . . .
49(4) . . .
56(4) . . .
48(4) . . .
54(4) . . .
46(4) . . .
42(4) . . .
35.9(31) . . .
53(4) . . .
61(4) . . .
46(4) . . .
46(4) . . .
47(4) . . .
37.8(32) . . .
47(4) . . .
51(4) . . .
50(4) . . .
55(4) . . .
47(4) . . .
45(4) . . .
53(4) . . .
56(4) . . .
43(4) . . .
44(4) . . .
49(4) . . .
44.4(35) . . .
46(4) . . .
49(4) . . .
48(4) . . .
41.6(34) . . .
51(4) . . .
52(4) . . .
41.6(34) . . .
52(4) . . .
45(4) . . .
40.3(34) . . .
43(4) . . .
47(4) . . .
45.0(35) . . .
49(4) . . .
40.6(35) . . .
47(4) . . .
42.7(35) . . .
38.3(32) . . .
48(4) . . .
42(4) . . .
39.4(34) . . .
48(4) . . .
41.4(34) . . .
44(4) . . .
43(4) . . .
42.5(34) . . .
50(4) . . .
35.8(31) . . .
48(4) . . .
47(4) . . .
50(4) . . .
46(4) . . .
41.5(33) . . .
35.5(32) . . .
35.5(33) . . .
43(4) . . .
40.6(34) . . .
40.4(33) . . .
44(4) . . .
40.5(35) . . .
49(4) . . .
50(4) . . .
50(4) . . .
46(4) . . .
38.0(32) . . .
45(4) . . .
42.6(35) . . .
44.7(35) . . .
46(4) . . .
54(4) . . .
45(4) . . .
42.7(35) . . .
54(4) . . .
44(4) . . .
40.6(34) . . .
43.5(35) . . .
48(4) . . .
50(4) . . .
43(4) . . .
48(4) . . .
54(4) . . .
58(4) . . .
51(4) . . .
43.6(35) . . .
52(4) . . .
55(4) . . .
52(4) . . .
49(4) . . .
41.5(33) . . .
50(4) . . .
39.5(34) . . .
53(4) . . .
55(4) . . .
51(4) . . .
54(4) . . .
46(4) . . .
53(4) . . .
52(4) . . .
52(4) . . .
50(4) . . .
40.1(35) . . .
50(4) . . .
42.6(35) . . .
57(5) . . .
44(4) . . .
53(4) . . .
39.9(33) . . .
34.7(33) . . .
39.6(35) . . .
53(4) . . .
55(4) . . .
58(4) . . .
43.8(35) . . .
47(4) . . .
42.5(34) . . .
55(4) . . .
43.8(34) . . .
42(4) . . .
39(4) . . .
40.3(34) . . .
40.8(33) . . .
39.8(34) . . .
50(4) . . .
38(4) . . .
37.4(34) . . .
39.8(34) . . .
50(4) . . .
41.5(34) . . .
38(4) . . .
37.0(32) . . .
42.2(34) . . .
41.2(34) . . .
50(4) . . .
43(4) . . .
46(4) . . .
55(4) . . .
49(4) . . .
43(4) . . .
51(4) . . .
48(4) . . .
49(4) . . .
45(4) . . .
38.9(35) . . .
38.5(34) . . .
50(4) . . .
49(4) . . .
39.1(34) . . .
36.1(35) . . .
42(4) . . .
42(4) . . .
52(4) . . .
43.8(35) . . .
50(4) . . .
51(4) . . .
43.8(34) . . .
41.3(34) . . .
43(4) . . .
33.7(32) . . .
57(4) . . .
48(4) . . .
49(4) . . .
43.1(35) . . .
48(4) . . .
47(4) . . .
60(4) . . .
47(4) . . .
45(4) . . .
48(4) . . .
42.6(33) . . .
50(4) . . .
50(4) . . .
50(4) . . .
52(4) . . .
38.3(32) . . .
52(4) . . .
48(4) . . .
34.6(32) . . .
45(4) . . .
49(4) . . .
36.0(31) . . .
42.5(35) . . .
45(4) . . .
45(4) . . .
52(4) . . .
51(4) . . .
49(4) . . .
44.3(35) . . .
41.5(35) . . .
38.7(34) . . .
41.1(33) . . .
45(4) . . .
42(4) . . .
36.3(33) . . .
41.9(35) . . .
55(4) . . .
47(4) . . .
40(4) . . .
43(4) . . .
50(4) . . .
47(4) . . .
39.8(33) . . .
51(4) . . .
44(4) . . .
50(4) . . .
47(4) . . .
50(4) . . .
37.2(33) . . .
45(4) . . .
57(4) . . .
52(4) . . .
42.7(34) . . .
46(4) . . .
45.3(35) . . .
40.6(34) . . .
50(4) . . .
47(4) . . .
47(4) . . .
51(4) . . .
44(4) . . .
46.3(35) . . .
52(4) . . .
44(4) . . .
45(4) . . .
49(4) . . .
46(4) . . .
49(4) . . .
48(4) . . .
44(4) . . .
51(4) . . .
53(4) . . .
41(4) . . .
47(4) . . .
51(4) . . .
47(4) . . .
42.5(35) . . .
43(4) . . .
40.3(35) . . .
41.3(35) . . .
44.0(34) . . .
39.7(35) . . .
46.2(35) . . .
55(4) . . .
49(4) . . .
40.1(33) . . .
41.0(34) . . .
38.0(32) . . .
45(4) . . .
53(4) . . .
49(4) . . .
42.3(34) . . .
44.3(34) . . .
41.9(34) . . .
45(4) . . .
41.2(34) . . .
54(4) . . .
41.2(33) . . .
50(4) . . .
49(4) . . .
61(4) . . .
49(4) . . .
43.7(34) . . .
38.4(33) . . .
60(4) . . .
44(4) . . .
46(4) . . .
46(4) . . .
47(4) . . .
48(4) . . .
48(4) . . .
46(4) . . .
48(4) . . .
47(4) . . .
32.9(29) . . .
47(4) . . .
43.0(34) . . .
43(4) . . .
49(4) . . .
40.6(33) . . .
57(4) . . .
43(4) . . .
50(4) . . .
41.2(35) . . .
52(4) . . .
41.4(34) . . .
33.5(32) . . .
33.9(34) . . .
40.1(34) . . .
43.5(34) . . .
43.8(35) . . .
48(4) . . .
45(4) . . .
40.1(33) . . .
39.0(32) . . .
45(4) . . .
41.7(34) . . .
54(4) . . .
47(4) . . .
49(4) . . .
44(4) . . .
53(4) . . .
45.8(35) . . .
50(4) . . .
45(4) . . .
44.5(35) . . .
46(4) . . .
49(4) . . .
49(4) . . .
44.2(35) . . .
48(4) . . .
42.7(35) . . .
49(4) . . .
44(4) . . .
37.3(32) . . .
44(4) . . .
35.0(32) . . .
37.2(32) . . .
48(4) . . .
42.7(34) . . .
42.9(35) . . .
48(4) . . .
39.0(34) . . .
48(4) . . .
45.3(35) . . .
52(4) . . .
41.3(34) . . .
46(4) . . .
49(4) . . .
43.8(35) . . .
45(4) . . .
54(4) . . .
41.9(34) . . .
40.0(33) . . .
42.3(34) . . .
47(4) . . .
44(4) . . .
43(4) . . .
55(4) . . .
47(4) . . .
41.7(34) . . .
47(4) . . .
37.1(35) . . .
46(4) . . .
49(4) . . .
56(4) . . .
42.9(34) . . .
39.5(33) . . .
41.9(34) . . .
42(4) . . .
45(4) . . .
45(4) . . .
47(4) . . .
46(4) . . .
41.0(33) . . .
41(4) . . .
47(4) . . .
53(4) . . .
52(4) . . .
52(4) . . .
44(4) . . .
42(4) . . .
46(4) . . .
50(4) . . .
45(4) . . .
47(4) . . .
33.6(30) . . .
36.6(33) . . .
40.3(33) . . .
49(4) . . .
48(4) . . .
47(4) . . .
52(4) . . .
48(4) . . .
51(4) . . .
40(4) . . .
45(4) . . .
43.0(35) . . .
42.7(34) . . .
48(4) . . .
45(4) . . .
44(4) . . .
41.3(33) . . .
45.1(35) . . .
38.0(32) . . .
48(4) . . .
55(4) . . .
57(4) . . .
46(4) . . .
43.1(34) . . .
46(4) . . .
53(4) . . .
49(4) . . .
32.8(29) . . .
46(4) . . .
48(4) . . .
51(4) . . .
59(4) . . .
50(4) . . .
46(4) . . .
48(4) . . .
42.5(34) . . .
39.3(33) . . .
40.7(34) . . .
40.1(34) . . .
48(4) . . .
53(4) . . .
45.3(35) . . .
38.8(34) . . .
51(4) . . .
42.8(33) . . .
49(4) . . .
52(4) . . .
43.3(34) . . .
47(4) . . .
42(4) . . .
48(4) . . .
40.7(33) . . .
50(4) . . .
44(4) . . .
40.3(33) . . .
52(4) . . .
47(4) . . .
43.3(34) . . .
48(4) . . .
39.6(34) . . .
50(4) . . .
55(4) . . .
51(4) . . .
52(4) . . .
45(4) . . .
55(4) . . .
54(4) . . .
57(4) . . .
56(4) . . .
52(4) . . .
57(4) . . .
45(4) . . .
49(4) . . .
43(4) . . .
39.4(33) . . .
48(4) . . .
55(4) . . .
43(4) . . .
44(4) . . .
45(4) . . .
50(4) . . .
53(4) . . .
54(4) . . .
43.3(34) . . .
49(4) . . .
52(4) . . .
53(4) . . .
49(4) . . .
45(4) . . .
38.7(32) . . .
49(4) . . .
52(4) . . .
45(4) . . .
41(4) . . .
38.4(33) . . .
52(4) . . .
47(4) . . .
48(4) . . .
49(4) . . .
46(4) . . .
46(4) . . .
40(4) . . .
41.0(34) . . .
49(4) . . .
54(4) . . .
49(4) . . .
43.4(35) . . .
51(4) . . .
44.0(35) . . .
44.0(34) . . .
50(4) . . .
51(4) . . .
50(4) . . .
40.1(33) . . .
44.3(35) . . .
51(4) . . .
46(4) . . .
48(4) . . .
50(4) . . .
43.7(34) . . .
35.5(31) . . .
43(4) . . .
43(4) . . .
44(4) . . .
60(4) . . .
40.0(33) . . .
49(4) . . .
57(4) . . .
45(4) . . .
43.4(35) . . .
50(4) . . .
45(4) . . .
50(4) . . .
35.2(32) . . .
39.7(33) . . .
37.5(32) . . .
38.4(34) . . .
44(4) . . .
44.6(35) . . .
47(4) . . .
39.7(34) . . .
56(4) . . .
54(4) . . .
46(4) . . .
37.3(32) . . .
37.0(34) . . .
46(4) . . .
43(4) . . .
44(4) . . .
42.0(34) . . .
38.5(32) . . .
43.1(34) . . .
46(4) . . .
53(4) . . .
45.1(35) . . .
48(4) . . .
53(4) . . .
49(4) . . .
43.1(34) . . .
46(4) . . .
45(4) . . .
51(4) . . .
51(4) . . .
40.7(33) . . .
56(4) . . .
44(4) . . .
47(4) . . .
61(4) . . .
47(4) . . .
49(4) . . .
47(4) . . .
52(4) . . .
54(4) . . .
40.9(34) . . .
52(4) . . .
48(4) . . .
48(4) . . .
45(4) . . .
46(4) . . .
42.5(35) . . .
34.9(32) . . .
49(4) . . .
45(4) . . .
38.2(32) . . .
48(4) . . .
49(4) . . .
45(4) . . .
43.8(35) . . .
47(4) . . .
63(4) . . .
46(4) . . .
55(4) . . .
49(4) . . .
45.1(35) . . .
46(4) . . .
50(4) . . .
47(4) . . .
38.7(33) . . .
43.4(35) . . .
46(4) . . .
43(4) . . .
47(4) . . .
48(4) . . .
43.3(34) . . .
42(4) . . .
57(4) . . .
48(4) . . .
52(4) . . .
50(4) . . .
45(4) . . .
45(4) . . .
43(4) . . .
43(4) . . .
37.6(32) . . .
42.5(34) . . .
44(4) . . .
38.1(34) . . .
43(4) . . .
49(4) . . .
41.8(34) . . .
48(4) . . .
48(4) . . .
40.8(32) . . .
45(4) . . .
49(4) . . .
46(4) . . .
50(4) . . .
57(4) . . .
56(4) . . .
47(4) . . .
54(4) . . .
51(4) . . .
47(4) . . .
44(4) . . .
55(4) . . .
43(4) . . .
43.2(35) . . .
34.3(31) . . .
45(4) . . .
50(4) . . .
49(4) . . .
53(4) . . .
53(4) . . .
42(4) . . .
56(4) . . .
50(4) . . .
52(4) . . .
46(4) . . .
53(4) . . .
49(4) . . .
44.1(35) . . .
47(4) . . .
41.2(34) . . .
39.5(33) . . .
47(4) . . .
39.4(33) . . .
47(4) . . .
49(4) . . .
54(4) . . .
52(4) . . .
52(4) . . .
49(4) . . .
42.0(34) . . .
36.3(32) . . .
53(4) . . .
46(4) . . .
58(4) . . .
44.1(35) . . .
47(4) . . .
48(4) . . .
44(4) . . .
33.2(30) . . .
40.2(33) . . .
45(4) . . .
49(4) . . .
47(4) . . .
43.0(34) . . .
45(4) . . .
43(4) . . .
46(4) . . .
51(4) . . .
46(4) . . .
50(4) . . .
48(4) . . .
44(4) . . .
48(4) . . .
48(4) . . .
52(4) . . .
47(4) . . .
37.2(33) . . .
46(4) . . .
46(4) . . .
49(4) . . .
46(4) . . .
42(4) . . .
44.1(35) . . .
38.7(33) . . .
40.7(35) . . .
48(4) . . .
46(4) . . .
44.6(35) . . .
58(4) . . .
51(4) . . .
56(4) . . .
46(4) . . .
44(4) . . .
47(4) . . .
57(4) . . .
44(4) . . .
40.5(34) . . .
43(4) . . .
48(4) . . .
52(4) . . .
45(4) . . .
32.9(30) . . .
45(4) . . .
45(4) . . .
49(4) . . .
47(4) . . .
52(4) . . .
50(4) . . .
49(4) . . .
38.9(33) . . .
45(4) . . .
55(4) . . .
50(4) . . .
51(4) . . .
47(4) . . .
43(4) . . .
50(4) . . .
41.3(33) . . .
48(4) . . .
41.9(35) . . .
49(4) . . .
46(4) . . .
46(4) . . .
43.0(34) . . .
39.6(34) . . .
37.1(33) . . .
47(4) . . .
41.0(33) . . .
35.5(33) . . .
46(4) . . .
42(4) . . .
47(4) . . .
52(4) . . .
42.5(35) . . .
44(4) . . .
40.7(33) . . .
54(4) . . .
54(4) . . .
39(4) . . .
44(4) . . .
50(4) . . .
39.7(33) . . .
46(4) . . .
45(4) . . .
51(4) . . .
47(4) . . .
44.6(35) . . .
41.4(33) . . .
44.4(34) . . .
54(4) . . .
42.2(34) . . .
50(4) . . .
49(4) . . .
47(4) . . .
47(4) . . .
51(4) . . .
46(4) . . .
43.9(35) . . .
46(4) . . .
48(4) . . .
53(4) . . .
56(4) . . .
49(4) . . .
51(4) . . .
45(4) . . .
41.2(33) . . .
56(4) . . .
44(4) . . .
39.4(33) . . .
52(4) . . .
49(4) . . .
44.6(35) . . .
46(4) . . .
38.7(32) . . .
45.2(35) . . .
47(4) . . .
50(4) . . .
45(4) . . .
36.1(34) . . .
43(4) . . .
37.8(33) . . .
51(4) . . .
47(4) . . .
42.3(35) . . .
47(4) . . .
56(4) . . .
41.1(33) . . .
51(4) . . .
45(4) . . .
49(4) . . .
43.6(35) . . .
40.7(33) . . .
45(4) . . .
56(4) . . .
43.9(35) . . .
41.6(34) . . .
49(4) . . .
48(4) . . .
49(4) . . .
50(4) . . .
39.4(32) . . .
35.1(31) . . .
44(4) . . .
44(4) . . .
46(4) . . .
43.2(34) . . .
45(4) . . .
47(4) . . .
52(4) . . .
48(4) . . .
48(4) . . .
44.2(34) . . .
51(4) . . .
44(4) . . .
51(4) . . .
39.8(33) . . .
51(4) . . .
43(4) . . .
43.5(34) . . .
48(4) . . .
39.9(34) . . .
46(4) . . .
47(4) . . .
41.8(34) . . .
45(4) . . .
50(4) . . .
34.5(31) . . .
37.7(32) . . .
44(4) . . .
45.1(35) . . .
54(4) . . .
48(4) . . .
45(4) . . .
46(4) . . .
42.4(34) . . .
47(4) . . .
43(4) . . .
48(4) . . .
56(4) . . .
51(4) . . .
40.7(33) . . .
35.3(32) . . .
51(4) . . .
55(4) . . .
41.8(34) . . .
40.3(33) . . .
47(4) . . .
52(4) . . .
52(4) . . .
52(4) . . .
54(4) . . .
41.0(34) . . .
48(4) . . .
38.4(33) . . .
46.0(35) . . .
41.8(35) . . .
43(4) . . .
37.7(33) . . .
44(4) . . .
46(4) . . .
41.9(33) . . .
47(4) . . .
51(4) . . .
49(4) . . .
47(4) . . .
50(4) . . .
43.7(35) . . .
54(4) . . .
39.1(33) . . .
51(4) . . .
53(4) . . .
43(4) . . .
49(4) . . .
46(4) . . .
42.1(34) . . .
50(4) . . .
44(4) . . .
42.4(35) . . .
51(4) . . .
43.3(35) . . .
46(4) . . .
46(4) . . .
50(4) . . .
40.4(33) . . .
47(4) . . .
51(4) . . .
44(4) . . .
52(4) . . .
46(4) . . .
49(4) . . .
46(4) . . .
49(4) . . .
49(4) . . .
53(4) . . .
42.9(34) . . .
41(4) . . .
46(4) . . .
54(4) . . .
44.5(34) . . .
51(4) . . .
53(4) . . .
48(4) . . .
48(4) . . .
37.0(33) . . .
47(4) . . .
42.7(35) . . .
44(4) . . .
32.4(30) . . .
40.7(33) . . .
38.5(32) . . .
40.6(34) . . .
51(4) . . .
44(4) . . .
44.0(34) . . .
50(4) . . .
51(4) . . .
43(4) . . .
44(4) . . .
45(4) . . .
44(4) . . .
45(4) . . .
42.7(35) . . .
53(4) . . .
40.8(33) . . .
45.3(35) . . .
41.1(35) . . .
42(4) . . .
41.9(34) . . .
46.3(35) . . .
51(4) . . .
46(4) . . .
38.8(33) . . .
49(4) . . .
51(4) . . .
40.3(35) . . .
44.3(34) . . .
56(4) . . .
45.2(35) . . .
51(4) . . .
46(4) . . .
40.9(35) . . .
43(4) . . .
47(4) . . .
49(4) . . .
52(4) . . .
45(4) . . .
53(4) . . .
42.5(34) . . .
46(4) . . .
49(4) . . .
49(4) . . .
45(4) . . .
41.4(33) . . .
42.0(34) . . .
46(4) . . .
42(4) . . .
42.1(34) . . .
41.3(33) . . .
41.6(34) . . .
45(4) . . .
46(4) . . .
57(4) . . .
43(4) . . .
48(4) . . .
40.2(33) . . .
45(4) . . .
50(4) . . .
48(4) . . .
48(4) . . .
38.3(32) . . .
39.4(33) . . .
41.3(34) . . .
41.8(34) . . .
42.6(34) . . .
43.6(35) . . .
47(4) . . .
50(4) . . .
57(4) . . .
42(4) . . .
45(4) . . .
47(4) . . .
56(4) . . .
53(4) . . .
48(4) . . .
48(4) . . .
53(4) . . .
52(4) . . .
49(4) . . .
46(4) . . .
56(4) . . .
47(4) . . .
49(4) . . .
42.5(34) . . .
54(4) . . .
55(4) . . .
54(4) . . .
35.9(31) . . .
46(4) . . .
49(4) . . .
55(4) . . .
51(4) . . .
48(4) . . .
50(4) . . .
48(4) . . .
42(4) . . .
49(4) . . .
53(4) . . .
42.2(34) . . .
35.7(31) . . .
42.1(34) . . .
41.4(34) . . .
50(4) . . .
48(4) . . .
47(4) . . .
52(4) . . .
54(4) . . .
48(4) . . .
45.7(35) . . .
53(4) . . .
42.2(34) . . .
46(4) . . .
44.8(35) . . .
53(4) . . .
51(4) . . .
51(4) . . .
49(4) . . .
41.8(33) . . .
43.5(35) . . .
48(4) . . .
45(4) . . .
48(4) . . .
45.3(35) . . .
53(4) . . .
49(4) . . .
48(4) . . .
45(4) . . .
45(4) . . .
55(4) . . .
53(4) . . .
49(4) . . .
44.3(35) . . .
50(4) . . .
48(4) . . .
42(4) . . .
44(4) . . .
38.8(32) . . .
46.5(35) . . .
54(4) . . .
47(4) . . .
52(4) . . .
40.3(33) . . .
42.8(34) . . .
63(4) . . .
48(4) . . .
38.0(33) . . .
42.7(34) . . .
55(4) . . .
50(4) . . .
54(4) . . .
49(4) . . .
46(4) . . .
42.3(34) . . .
54(4) . . .
47(4) . . .
49(4) . . .
44.8(35) . . .
51(4) . . .
48(4) . . .
45(4) . . .
50(4) . . .
45.3(35) . . .
41.2(33) . . .
43.1(34) . . .
50(4) . . .
58(4) . . .
45.5(35) . . .
42.4(34) . . .
46(4) . . .
43(4) . . .
41.2(34) . . .
53(4) . . .
52(4) . . .
47(4) . . .
42.1(34) . . .
44.3(35) . . .
45(4) . . .
51(4) . . .
46(4) . . .
47(4) . . .
46(4) . . .
57(4) . . .
42.8(35) . . .
41(4) . . .
39.9(34) . . .
46(4) . . .
45.3(35) . . .
42.1(35) . . .
57(5) . . .
53(4) . . .
42.8(33) . . .
42.4(35) . . .
52(4) . . .
54(4) . . .
45(4) . . .
45(4) . . .
42.9(34) . . .
44.3(35) . . .
51(4) . . .
44(4) . . .
49(4) . . .
39.0(32) . . .
43(4) . . .
46(4) . . .
42.2(34) . . .
47(4) . . .
46(4) . . .
55(4) . . .
54(4) . . .
43(4) . . .
46(4) . . .
35.1(32) . . .
45(4) . . .
47(4) . . .
41.8(34) . . .
46(4) . . .
47(4) . . .
48(4) . . .
46(4) . . .
55(4) . . .
41.2(34) . . .
48(4) . . .
42.2(35) . . .
43(4) . . .
39.8(33) . . .
43.2(34) . . .
36.9(32) . . .
54(4) . . .
50(4) . . .
53(4) . . .
39.1(33) . . .
52(4) . . .
47(4) . . .
45(4) . . .
45(4) . . .
48(4) . . .
40.2(34) . . .
46(4) . . .
47(4) . . .
43.5(35) . . .
47(4) . . .
48(4) . . .
50(4) . . .
49(4) . . .
55(4) . . .
54(4) . . .
48(4) . . .
41(4) . . .
46(4) . . .
52(4) . . .
49(4) . . .
46(4) . . .
47(4) . . .
40(4) . . .
42.3(34) . . .
35.3(31) . . .
53(4) . . .
51(4) . . .
46(4) . . .
42.4(34) . . .
41.8(34) . . .
50(4) . . .
56(4) . . .
49(4) . . .
51(4) . . .
51(4) . . .
61(4) . . .
48(4) . . .
43.2(34) . . .
34.6(31) . . .
50(4) . . .
51(4) . . .
50(4) . . .
42.3(35) . . .
56(4) . . .
49(4) . . .
48(4) . . .
44(4) . . .
34.8(31) . . .
49(4) . . .
49(4) . . .
42(4) . . .
35.4(30) . . .
45(4) . . .
47(4) . . .
47(4) . . .
57(4) . . .
46(4) . . .
50(4) . . .
51(4) . . .
50(4) . . .
38.2(33) . . .
43(4) . . .
55(4) . . .
51(4) . . .
51(4) . . .
49(4) . . .
46(4) . . .
50(4) . . .
51(4) . . .
47(4) . . .
43(4) . . .
54(4) . . .
48(4) . . .
46(4) . . .
41.2(34) . . .
49(4) . . .
49(4) . . .
51(4) . . .
43(4) . . .
44(4) . . .
43(4) . . .
42.8(34) . . .
47(4) . . .
43(4) . . .
45(4) . . .
40(4) . . .
37.3(33) . . .
47(4) . . .
43(4) . . .
33.1(30) . . .
41.0(34) . . .
53(4) . . .
52(4) . . .
49(4) . . .
46(4) . . .
48(4) . . .
42.9(34) . . .
46(4) . . .
55(4) . . .
47(4) . . .
48(4) . . .
44.5(34) . . .
46(4) . . .
41(4) . . .
41(4) . . .
43.0(34) . . .
48(4) . . .
35.4(32) . . .
36.1(31) . . .
47(4) . . .
46(4) . . .
42.0(34) . . .
49(4) . . .
49(4) . . .
46(4) . . .
42(4) . . .
44.2(34) . . .
47(4) . . .
40.9(34) . . .
44(4) . . .
46(4) . . .
37.4(32) . . .
39.3(32) . . .
42.0(34) . . .
50(4) . . .
48(4) . . .
46(4) . . .
37.7(32) . . .
40.1(33) . . .
36.8(32) . . .
51(4) . . .
56(4) . . .
61(4) . . .
60(4) . . .
44(4) . . .
43(4) . . .
45(4) . . .
41.4(33) . . .
39.3(33) . . .
48(4) . . .
47(4) . . .
37.3(32) . . .
43(4) . . .
44(4) . . .
43(4) . . .
37.3(32) . . .
50(4) . . .
38.6(32) . . .
49(4) . . .
48(4) . . .
43.3(34) . . .
43.2(34) . . .
46(4) . . .
51(4) . . .
48(4) . . .
52(4) . . .
43.1(34) . . .
45(4) . . .
54(4) . . .
40.3(33) . . .
48(4) . . .
42.6(34) . . .
49(4) . . .
44(4) . . .
49(4) . . .
43.5(35) . . .
59(4) . . .
45(4) . . .
48(4) . . .
41.7(35) . . .
55(4) . . .
42.0(35) . . .
43(4) . . .
44(4) . . .
45(4) . . .
40.7(33) . . .
46(4) . . .
46(4) . . .
51(4) . . .
52(4) . . .
42.2(34) . . .
41.3(35) . . .
47(4) . . .
51(4) . . .
46(4) . . .
39.5(33) . . .
45(4) . . .
43(4) . . .
53(4) . . .
44(4) . . .
43.9(35) . . .
44(4) . . .
49(4) . . .
51(4) . . .
51(4) . . .
38.5(32) . . .
47(4) . . .
52(4) . . .
41.8(34) . . .
49(4) . . .
54(4) . . .
47(4) . . .
42(4) . . .
36.0(32) . . .
43.2(34) . . .
51(4) . . .
56(4) . . .
39.9(35) . . .
41.5(34) . . .
37.1(32) . . .
42.9(34) . . .
50(4) . . .
40(4) . . .
40.8(34) . . .
46(4) . . .
37.4(33) . . .
49(4) . . .
43(4) . . .
49(4) . . .
44.2(35) . . .
35.5(32) . . .
43(4) . . .
46(4) . . .
42(4) . . .
42.8(34) . . .
36.6(31) . . .
41.6(34) . . .
40.7(35) . . .
39.5(34) . . .
51(4) . . .
43.8(34) . . .
37.4(31) . . .
52(4) . . .
53(4) . . .
39.4(33) . . .
48(4) . . .
44(4) . . .
38.6(34) . . .
36.3(32) . . .
44.2(35) . . .
48(4) . . .
47(4) . . .
41(4) . . .
38.3(33) . . .
44.8(34) . . .
48(4) . . .
49(4) . . .
48(4) . . .
47(4) . . .
42.9(34) . . .
60(4) . . .
49(4) . . .
50(4) . . .
64(4) . . .
54(4) . . .
51(4) . . .
49(4) . . .
43.6(35) . . .
51(4) . . .
47(4) . . .
45(4) . . .
55(4) . . .
50(4) . . .
51(4) . . .
50(4) . . .
41.3(33) . . .
43(4) . . .
46(4) . . .
37.3(32) . . .
55(4) . . .
48(4) . . .
42.2(35) . . .
51(4) . . .
45.8(35) . . .
41.0(34) . . .
49(4) . . .
42(4) . . .
50(4) . . .
36.6(31) . . .
50(4) . . .
53(4) . . .
49(4) . . .
59(4) . . .
58(4) . . .
46.6(35) . . .
50(4) . . .
49(4) . . .
40.5(34) . . .
53(4) . . .
42.3(34) . . .
51(4) . . .
44(4) . . .
48(4) . . .
44(4) . . .
50(4) . . .
52(4) . . .
41.9(34) . . .
48(4) . . .
48(4) . . .
47(4) . . .
44(4) . . .
47(4) . . .
47(4) . . .
44.2(35) . . .
55(4) . . .
39.8(33) . . .
55(4) . . .
53(4) . . .
47(4) . . .
51(4) . . .
49(4) . . .
45(4) . . .
39.0(32) . . .
37.7(32) . . .
49(4) . . .
49(4) . . .
45.6(35) . . .
48(4) . . .
45.2(35) . . .
43.6(34) . . .
48(4) . . .
48(4) . . .
54(4) . . .
52(4) . . .
44(4) . . .
43.1(35) . . .
49(4) . . .
55(4) . . .
46(4) . . .
47(4) . . .
44(4) . . .
42.0(35) . . .
52(4) . . .
42(4) . . .
46(4) . . .
48(4) . . .
45.3(35) . . .
44.0(34) . . .
44.6(35) . . .
48(4) . . .
45(4) . . .
47(4) . . .
54(4) . . .
38.9(32) . . .
47(4) . . .
51(4) . . .
45(4) . . .
58(4) . . .
47(4) . . .
46(4) . . .
51(4) . . .
42.4(34) . . .
46(4) . . .
44(4) . . .
42(4) . . .
47(4) . . .
45(4) . . .
52(4) . . .
39.7(33) . . .
45(4) . . .
39.2(35) . . .
44.2(34) . . .
43.3(35) . . .
53(4) . . .
59(4) . . .
50(4) . . .
42.1(34) . . .
49(4) . . .
50(4) . . .
48(4) . . .
54(4) . . .
44.4(34) . . .
52(4) . . .
48(4) . . .
42.3(35) . . .
50(4) . . .
51(4) . . .
42.6(35) . . .
43(4) . . .
51(4) . . .
48(4) . . .
47(4) . . .
50(4) . . .
42.1(35) . . .
38.7(34) . . .
48(4) . . .
47(4) . . .
44(4) . . .
52(4) . . .
49(4) . . .
49(4) . . .
52(4) . . .
51(4) . . .
55(4) . . .
52(4) . . .
40.8(33) . . .
49(4) . . .
51(4) . . .
44(4) . . .
42.0(34) . . .
47(4) . . .
45(4) . . .
43(4) . . .
45(4) . . .
54(4) . . .
44.7(35) . . .
41.0(33) . . .
48(4) . . .
51(4) . . .
51(4) . . .
48(4) . . .
48(4) . . .
42.0(34) . . .
45(4) . . .
54(4) . . .
43.4(34) . . .
43.8(34) . . .
44(4) . . .
43(4) . . .
48(4) . . .
40.3(33) . . .
51(4) . . .
57(4) . . .
46(4) . . .
47(4) . . .
39.0(32) . . .
40.8(33) . . .
43.2(35) . . .
55(4) . . .
51(4) . . .
50(4) . . .
42.7(34) . . .
41.6(35) . . .
44(4) . . .
37.7(32) . . .
41.9(33) . . .
48(4) . . .
46(4) . . .
42.0(35) . . .
39.7(33) . . .
42.0(33) . . .
47(4) . . .
40(4) . . .
41.3(35) . . .
49(4) . . .
39.3(33) . . .
48(4) . . .
47(4) . . .
40.9(34) . . .
47(4) . . .
47(4) . . .
41.7(34) . . .
41.8(35) . . .
45(4) . . .
54(4) . . .
50(4) . . .
46(4) . . .
38.8(33) . . .
43.3(35) . . .
54(4) . . .
48(4) . . .
53(4) . . .
38.5(34) . . .
53(4) . . .
43.3(34) . . .
53(4) . . .
51(4) . . .
51(4) . . .
44(4) . . .
45(4) . . .
38.5(34) . . .
37.8(32) . . .
40.5(33) . . .
48(4) . . .
35.6(30) . . .
45(4) . . .
55(4) . . .
45(4) . . .
56(4) . . .
54(4) . . .
54(4) . . .
45(4) . . .
51(4) . . .
44.6(35) . . .
47(4) . . .
40.1(33) . . .
49(4) . . .
54(4) . . .
52(4) . . .
42.8(35) . . .
46(4) . . .
48(4) . . .
47(4) . . .
42.5(34) . . .
55(4) . . .
52(4) . . .
46(4) . . .
48(4) . . .
50(4) . . .
50(4) . . .
50(4) . . .
43.0(35) . . .
48(4) . . .
36.4(31) . . .
38.5(33) . . .
43(4) . . .
50(4) . . .
45(4) . . .
41.8(34) . . .
37.6(33) . . .
45(4) . . .
40(4) . . .
46(4) . . .
43.6(35) . . .
43.0(34) . . .
44.1(34) . . .
49(4) . . .
46(4) . . .
46(4) . . .
41.8(34) . . .
49(4) . . .
40.8(35) . . .
43(4) . . .
47(4) . . .
42.6(34) . . .
56(4) . . .
46(4) . . .
53(4) . . .
50(4) . . .
42.3(34) . . .
41.6(35) . . .
35.2(32) . . .
43(4) . . .
48(4) . . .
52(4) . . .
50(4) . . .
59(4) . . .
36.4(32) . . .
38.7(32) . . .
49(4) . . .
46(4) . . .
54(4) . . .
45(4) . . .
44.9(35) . . .
51(4) . . .
46(4) . . .
50(4) . . .
45.1(35) . . .
50(4) . . .
50(4) . . .
52(4) . . .
46(4) . . .
45(4) . . .
44.1(35) . . .
53(4) . . .
50(4) . . .
57(4) . . .
43.3(35) . . .
53(4) . . .
50(4) . . .
40.1(34) . . .
44(4) . . .
38.5(32) . . .
40.8(33) . . .
43.6(35) . . .
41(4) . . .
50(4) . . .
54(4) . . .
53(4) . . .
47(4) . . .
47(4) . . .
51(4) . . .
53(4) . . .
47(4) . . .
50(4) . . .
52(4) . . .
59(4) . . .
58(4) . . .
38.2(32) . . .
47(4) . . .
54(4) . . .
47(4) . . .
38.7(33) . . .
40.3(34) . . .
56(4) . . .
52(4) . . .
44(4) . . .
43.8(35) . . .
41.1(34) . . .
53(4) . . .
48(4) . . .
53(4) . . .
58(4) . . .
54(4) . . .
41(4) . . .
42(4) . . .
44(4) . . .
43.1(34) . . .
50(4) . . .
54(4) . . .
43(4) . . .
41.1(34) . . .
45(4) . . .
44(4) . . .
46(4) . . .
53(4) . . .
53(4) . . .
55(4) . . .
52(4) . . .
45(4) . . .
47(4) . . .
44.3(35) . . .
40.6(34) . . .
42(4) . . .
53(4) . . .
48(4) . . .
52(4) . . .
49(4) . . .
49(4) . . .
40(4) . . .
31.9(30) . . .
54(4) . . .
47(4) . . .
49(4) . . .
54(4) . . .
40.3(33) . . .
42.0(34) . . .
53(4) . . .
56(4) . . .
45(4) . . .
52(4) . . .
38.3(32) . . .
43(4) . . .
45.2(35) . . .
49(4) . . .
49(4) . . .
52(4) . . .
42.4(34) . . .
49(4) . . .
40(4) . . .
51(4) . . .
47(4) . . .
40.0(33) . . .
41.5(34) . . .
42.0(35) . . .
47(4) . . .
49(4) . . .
51(4) . . .
48(4) . . .
48(4) . . .
43.7(35) . . .
47(4) . . .
41(4) . . .
41.3(34) . . .
44(4) . . .
52(4) . . .
44.8(34) . . .
45(4) . . .
48(4) . . .
49(4) . . .
50(4) . . .
56(4) . . .
56(4) . . .
54(4) . . .
50(4) . . .
51(4) . . .
57(4) . . .
48(4) . . .
44(4) . . .
53(4) . . .
38.6(33) . . .
49(4) . . .
47(4) . . .
47(4) . . .
48(4) . . .
58(4) . . .
44(4) . . .
46(4) . . .
48(4) . . .
42.9(34) . . .
53(4) . . .
39.1(33) . . .
41(4) . . .
40(4) . . .
47(4) . . .
57(4) . . .
47(4) . . .
52(4) . . .
42(4) . . .
41.0(33) . . .
51(4) . . .
45(4) . . .
40.7(34) . . .
41.3(34) . . .
33.5(31) . . .
38.5(33) . . .
51(4) . . .
52(4) . . .
48(4) . . .
45(4) . . .
44(4) . . .
49(4) . . .
50(4) . . .
46(4) . . .
45(4) . . .
46(4) . . .
42.0(35) . . .
48(4) . . .
48(4) . . .
44.2(35) . . .
45.4(35) . . .
45(4) . . .
44(4) . . .
37.6(33) . . .
46.3(35) . . .
52(4) . . .
37.1(32) . . .
39.1(35) . . .
43.6(35) . . .
48(4) . . .
44.3(35) . . .
52(4) . . .
46(4) . . .
33.5(31) . . .
39.4(33) . . .
48(4) . . .
38.5(33) . . .
46(4) . . .
43(4) . . .
37.7(32) . . .
41.2(33) . . .
44(4) . . .
39.5(34) . . .
45(4) . . .
43.8(35) . . .
51(4) . . .
45(4) . . .
36.8(32) . . .
49(4) . . .
40.9(34) . . .
55(4) . . .
48(4) . . .
47(4) . . .
51(4) . . .
56(4) . . .
43.3(34) . . .
39(4) . . .
50(4) . . .
46(4) . . .
48(4) . . .
46(4) . . .
42(4) . . .
45(4) . . .
49(4) . . .
48(4) . . .
54(4) . . .
54(4) . . .
50(4) . . .
41.5(34) . . .
41.0(33) . . .
49(4) . . .
47(4) . . .
38.0(33) . . .
54(4) . . .
48(4) . . .
52(4) . . .
46(4) . . .
44(4) . . .
47(4) . . .
45(4) . . .
45(4) . . .
51(4) . . .
53(4) . . .
59(4) . . .
43(4) . . .
40.0(34) . . .
47(4) . . .
44(4) . . .
42.2(34) . . .
49(4) . . .
48(4) . . .
39.9(34) . . .
49(4) . . .
47(4) . . .
46(4) . . .
53(4) . . .
43(4) . . .
49(4) . . .
46(4) . . .
49(4) . . .
43(4) . . .
46(4) . . .
47(4) . . .
35.8(31) . . .
41.4(35) . . .
49(4) . . .
42.8(35) . . .
47(4) . . .
38.0(32) . . .
34.2(32) . . .
45(4) . . .
51(4) . . .
49(4) . . .
49(4) . . .
51(4) . . .
46(4) . . .
53(4) . . .
39.9(32) . . .
50(4) . . .
34.3(32) . . .
47(4) . . .
37.0(33) . . .
41.6(34) . . .
46(4) . . .
49(4) . . .
45(4) . . .
47(4) . . .
47(4) . . .
48(4) . . .
42.9(35) . . .
33.3(32) . . .
34.8(30) . . .
58(4) . . .
49(4) . . .
48(4) . . .
45(4) . . .
40.1(34) . . .
37.1(32) . . .
39.5(33) . . .
47(4) . . .
48(4) . . .
39.7(35) . . .
49(4) . . .
27.1(28) . . .
44(4) . . .
48(4) . . .
50(4) . . .
43.8(35) . . .
53(4) . . .
45(4) . . .
57(4) . . .
57(4) . . .
48(4) . . .
37.3(32) . . .
42(4) . . .
44(4) . . .
46(4) . . .
50(4) . . .
46(4) . . .
52(4) . . .
45(4) . . .
42.3(34) . . .
42.6(34) . . .
49(4) . . .
40.8(34) . . .
47(4) . . .
38.0(32) . . .
40.9(34) . . .
47(4) . . .
39.0(34) . . .
41.6(35) . . .
43.7(34) . . .
41.9(34) . . .
49(4) . . .
53(4) . . .
38.6(33) . . .
38.9(33) . . .
45(4) . . .
60(4) . . .
52(4) . . .
52(4) . . .
47(4) . . .
38.0(33) . . .
46(4) . . .
47(4) . . .
54(4) . . .
44.0(34) . . .
49(4) . . .
47(4) . . .
42.0(35) . . .
44(4) . . .
41.6(34) . . .
46.1(35) . . .
55(4) . . .
51(4) . . .
45(4) . . .
42.7(34) . . .
39.4(34) . . .
43(4) . . .
48(4) . . .
43(4) . . .
45(4) . . .
41.7(35) . . .
45(4) . . .
46(4) . . .
42.1(35) . . .
55(4) . . .
54(4) . . .
54(4) . . .
53(4) . . .
48(4) . . .
48(4) . . .
40(4) . . .
42(4) . . .
44(4) . . .
45(4) . . .
45(4) . . .
47(4) . . .
59(4) . . .
49(4) . . .
33.2(31) . . .
49(4) . . .
54(4) . . .
56(4) . . .
47(4) . . .
35.6(31) . . .
51(4) . . .
46(4) . . .
51(4) . . .
47(4) . . .
40.8(33) . . .
43.5(35) . . .
44(4) . . .
49(4) . . .
46(4) . . .
43.2(35) . . .
46(4) . . .
41(4) . . .
45(4) . . .
48(4) . . .
40.0(33) . . .
45(4) . . .
45(4) . . .
46(4) . . .
53(4) . . .
41.0(34) . . .
43.2(34) . . .
40.7(35) . . .
43.5(35) . . .
47(4) . . .
50(4) . . .
44.2(34) . . .
47(4) . . .
46(4) . . .
45(4) . . .
43.5(35) . . .
51(4) . . .
47(4) . . .
52(4) . . .
48(4) . . .
56(4) . . .
40.6(35) . . .
42(4) . . .
45(4) . . .
42.2(35) . . .
39.1(32) . . .
50(4) . . .
52(4) . . .
48(4) . . .
51(4) . . .
52(4) . . .
43(4) . . .
46(4) . . .
40(4) . . .
47(4) . . .
40.7(33) . . .
41.0(33) . . .
43(4) . . .
49(4) . . .
43.0(34) . . .
49(4) . . .
42.3(35) . . .
48(4) . . .
53(4) . . .
51(4) . . .
53(4) . . .
41.2(34) . . .
42(4) . . .
44(4) . . .
51(4) . . .
49(4) . . .
43.0(34) . . .
50(4) . . .
51(4) . . .
51(4) . . .
30.9(29) . . .
49(4) . . .
48(4) . . .
44(4) . . .
42.1(34) . . .
40.0(34) . . .
49(4) . . .
56(4) . . .
48(4) . . .
47(4) . . .
48(4) . . .
52(4) . . .
44(4) . . .
50(4) . . .
44.6(35) . . .
49(4) . . .
45(4) . . .
49(4) . . .
38.1(32) . . .
46(4) . . .
51(4) . . .
45(4) . . .
48(4) . . .
42.3(34) . . .
63(4) . . .
41.0(33) . . .
54(4) . . .
43.0(35) . . .
45.7(34) . . .
56(4) . . .
51(4) . . .
50(4) . . .
45(4) . . .
44.2(35) . . .
37.4(32) . . .
55(4) . . .
37.5(32) . . .
47(4) . . .
43(4) . . .
39.2(32) . . .
43.9(34) . . .
54(4) . . .
47(4) . . .
39.8(34) . . .
49(4) . . .
48(4) . . .
45(4) . . .
39.2(35) . . .
50(4) . . .
46(4) . . .
49(4) . . .
47(4) . . .
48(4) . . .
46(4) . . .
48(4) . . .
49(4) . . .
43(4) . . .
47(4) . . .
44.4(34) . . .
48(4) . . .
42.4(35) . . .
50(4) . . .
49(4) . . .
52(4) . . .
43(4) . . .
47(4) . . .
50(4) . . .
46(4) . . .
47(4) . . .
39.0(33) . . .
44(4) . . .
37.2(33) . . .
53(4) . . .
47(4) . . .
58(4) . . .
54(4) . . .
37.6(32) . . .
38.8(32) . . .
42.4(34) . . .
50(4) . . .
48(4) . . .
45(4) . . .
44.3(34) . . .
44.8(35) . . .
34.8(31) . . .
41.0(35) . . .
41.4(33) . . .
53(4) . . .
55(4) . . .
49(4) . . .
45(4) . . .
41.9(34) . . .
44.3(35) . . .
41.2(33) . . .
45(4) . . .
42(4) . . .
48(4) . . .
51(4) . . .
55(4) . . .
51(4) . . .
50(4) . . .
49(4) . . .
52(4) . . .
40.1(33) . . .
45(4) . . .
44.4(35) . . .
59(4) . . .
43.5(34) . . .
36.5(31) . . .
46(4) . . .
44(4) . . .
48(4) . . .
54(4) . . .
48(4) . . .
48(4) . . .
56(4) . . .
46(4) . . .
43.7(34) . . .
43(4) . . .
38.7(34) . . .
45(4) . . .
48(4) . . .
33.8(30) . . .
49(4) . . .
44(4) . . .
44(4) . . .
36.7(31) . . .
41.6(33) . . .
48(4) . . .
46(4) . . .
40(4) . . .
46(4) . . .
50(4) . . .
36.2(33) . . .
40(4) . . .
43(4) . . .
42.7(34) . . .
44.7(34) . . .
45(4) . . .
47(4) . . .
53(4) . . .
53(4) . . .
42.1(34) . . .
51(4) . . .
39.9(33) . . .
37.5(31) . . .
50(4) . . .
49(4) . . .
51(4) . . .
48(4) . . .
41(4) . . .
45.4(35) . . .
48(4) . . .
46(4) . . .
41(4) . . .
43(4) . . .
44.2(34) . . .
53(4) . . .
52(4) . . .
50(4) . . .
49(4) . . .
47(4) . . .
44.2(35) . . .
48(4) . . .
40(4) . . .
48(4) . . .
46(4) . . .
48(4) . . .
41(4) . . .
44.5(35) . . .
56(4) . . .
46(4) . . .
51(4) . . .
40(4) . . .
41(4) . . .
51(4) . . .
49(4) . . .
42(4) . . .
53(4) . . .
49(4) . . .
46(4) . . .
44.4(35) . . .
42.3(34) . . .
51(4) . . .
56(4) . . .
59(4) . . .
56(4) . . .
44(4) . . .
36.1(34) . . .
38.0(32) . . .
50(4) . . .
39.0(34) . . .
45(4) . . .
48(4) . . .
50(4) . . .
43.1(34) . . .
48(4) . . .
44.9(35) . . .
51(4) . . .
53(4) . . .
49(4) . . .
42(4) . . .
48(4) . . .
40.1(34) . . .
49(4) . . .
47(4) . . .
42.3(34) . . .
46(4) . . .
37.3(32) . . .
41.3(34) . . .
52(4) . . .
39.5(33) . . .
42(4) . . .
48(4) . . .
43.4(34) . . .
45(4) . . .
52(4) . . .
57(4) . . .
50(4) . . .
49(4) . . .
49(4) . . .
39.1(34) . . .
42(4) . . .
41(4) . . .
32.9(30) . . .
42.4(33) . . .
49(4) . . .
36.9(31) . . .
55(4) . . .
45.1(35) . . .
52(4) . . .
46(4) . . .
41(4) . . .
51(4) . . .
46(4) . . .
45.6(35) . . .
47(4) . . .
43(4) . . .
45(4) . . .
37.8(32) . . .
47(4) . . .
57(4) . . .
44(4) . . .
51(4) . . .
60(4) . . .
48(4) . . .
55(4) . . .
46(4) . . .
41.5(34) . . .
51(4) . . .
37.4(33) . . .
44(4) . . .
38.6(33) . . .
46(4) . . .
51(4) . . .
50(4) . . .
46(4) . . .
43(4) . . .
43(4) . . .
49(4) . . .
40.8(34) . . .
39(4) . . .
45(4) . . .
36.7(32) . . .
40.6(33) . . .
53(4) . . .
43(4) . . .
36.0(31) . . .
39.4(34) . . .
44.4(35) . . .
46(4) . . .
48(4) . . .
46(4) . . .
46(4) . . .
45.6(35) . . .
37.5(33) . . .
42(4) . . .
44.4(35) . . .
49(4) . . .
46(4) . . .
51(4) . . .
44(4) . . .
44.2(35) . . .
52(4) . . .
55(4) . . .
49(4) . . .
57(4) . . .
57(4) . . .
41.2(34) . . .
43.1(34) . . .
46(4) . . .
44(4) . . .
37.7(32) . . .
55(4) . . .
46(4) . . .
35.5(32) . . .
37.4(33) . . .
48(4) . . .
51(4) . . .
50(4) . . .
52(4) . . .
49(4) . . .
43.0(34) . . .
37.9(32) . . .
37.7(33) . . .
46(4) . . .
50(4) . . .
50(4) . . .
47(4) . . .
44.0(34) . . .
47(4) . . .
45(4) . . .
32.8(30) . . .
37.5(32) . . .
40.8(35) . . .
41.4(34) . . .
44(4) . . .
46(4) . . .
38.3(33) . . .
41.2(35) . . .
43.9(34) . . .
55(4) . . .
49(4) . . .
40.8(33) . . .
50(4) . . .
43(4) . . .
45(4) . . .
47(4) . . .
49(4) . . .
49(4) . . .
43(4) . . .
45(4) . . .
47(4) . . .
47(4) . . .
48(4) . . .
56(4) . . .
51(4) . . .
43.5(34) . . .
53(4) . . .
56(4) . . .
52(4) . . .
46(4) . . .
56(4) . . .
52(4) . . .
50(4) . . .
41.5(34) . . .
43(4) . . .
40.2(33) . . .
43(4) . . .
39.7(35) . . .
46(4) . . .
39.6(33) . . .
46(4) . . .
41.8(34) . . .
53(4) . . .
48(4) . . .
45(4) . . .
46(4) . . .
42.1(35) . . .
45(4) . . .
47(4) . . .
38.5(33) . . .
50(4) . . .
49(4) . . .
47(4) . . .
43.4(35) . . .
34.2(30) . . .
46(4) . . .
42.9(35) . . .
39.0(33) . . .
41.2(34) . . .
38.3(32) . . .
47(4) . . .
45(4) . . .
37.8(34) . . .
45(4) . . .
40.2(33) . . .
43.1(35) . . .
48(4) . . .
48(4) . . .
45(4) . . .
49(4) . . .
49(4) . . .
48(4) . . .
41(4) . . .
48(4) . . .
48(4) . . .
56(4) . . .
49(4) . . .
48(4) . . .
46(4) . . .
47(4) . . .
42.4(34) . . .
44(4) . . .
46(4) . . .
51(4) . . .
47(4) . . .
51(4) . . .
55(4) . . .
48(4) . . .
39.9(34) . . .
48(4) . . .
47(4) . . .
41.8(34) . . .
44(4) . . .
43(4) . . .
42.8(34) . . .
39.5(33) . . .
47(4) . . .
48(4) . . .
46(4) . . .
45.1(35) . . .
51(4) . . .
50(4) . . .
37.2(31) . . .
49(4) . . .
50(4) . . .
41.9(34) . . .
43(4) . . .
47(4) . . .
42.4(34) . . .
55(4) . . .
50(4) . . .
40(4) . . .
45(4) . . .
40.7(34) . . .
59(4) . . .
52(4) . . .
43(4) . . .
45.1(35) . . .
48(4) . . .
46(4) . . .
44(4) . . .
42(4) . . .
45(4) . . .
42.5(34) . . .
41.9(34) . . .
35.9(32) . . .
50(4) . . .
46(4) . . .
44.6(35) . . .
50(4) . . .
50(4) . . .
46(4) . . .
48(4) . . .
47(4) . . .
45(4) . . .
45(4) . . .
50(4) . . .
37.8(32) . . .
48(4) . . .
44.3(34) . . .
50(4) . . .
47(4) . . .
34.9(31) . . .
47(4) . . .
46(4) . . .
40.6(35) . . .
47(4) . . .
50(4) . . .
52(4) . . .
50(4) . . .
48(4) . . .
54(4) . . .
48(4) . . .
50(4) . . .
51(4) . . .
46(4) . . .
45(4) . . .
38.5(32) . . .
47(4) . . .
47(4) . . .
48(4) . . .
46(4) . . .
48(4) . . .
51(4) . . .
47(4) . . .
43.4(35) . . .
46(4) . . .
41.5(34) . . .
43.4(34) . . .
51(4) . . .
50(4) . . .
44(4) . . .
51(4) . . .
50(4) . . .
45.2(34) . . .
49(4) . . .
49(4) . . .
56(4) . . .
46.5(35) . . .
49(4) . . .
49(4) . . .
44.0(35) . . .
48(4) . . .
50(4) . . .
45(4) . . .
55(4) . . .
50(4) . . .
44.5(35) . . .
48(4) . . .
53(4) . . .
37.8(33) . . .
44(4) . . .
49(4) . . .
51(4) . . .
54(4) . . .
49(4) . . .
44.5(35) . . .
55(4) . . .
58(4) . . .
43(4) . . .
48(4) . . .
52(4) . . .
50(4) . . .
50(4) . . .
45(4) . . .
37.3(32) . . .
48(4) . . .
46(4) . . .
43(4) . . .
50(4) . . .
58(4) . . .
51(4) . . .
43.0(34) . . .
61(4) . . .
38.1(34) . . .
36.3(33) . . .
37.5(31) . . .
37.5(31) . . .
43.6(35) . . .
44(4) . . .
45(4) . . .
50(4) . . .
43.0(34) . . .
55(4) . . .
48(4) . . .
51(4) . . .
47(4) . . .
52(4) . . .
50(4) . . .
39.9(34) . . .
51(4) . . .
48(4) . . .
53(4) . . .
46(4) . . .
39.5(35) . . .
48(4) . . .
47(4) . . .
37.6(31) . . .
47(4) . . .
45(4) . . .
47(4) . . .
51(4) . . .
41(4) . . .
38.7(33) . . .
45(4) . . .
51(4) . . .
44.3(35) . . .
43.6(34) . . .
45(4) . . .
40.7(34) . . .
43.1(35) . . .
50(4) . . .
52(4) . . .
55(4) . . .
43(4) . . .
41(4) . . .
43.3(34) . . .
40.9(34) . . .
44(4) . . .
47(4) . . .
36.7(32) . . .
42.6(34) . . .
42(4) . . .
42(4) . . .
40(4) . . .
48(4) . . .
56(4) . . .
36.7(32) . . .
40(4) . . .
44(4) . . .
43(4) . . .
48(4) . . .
43.6(35) . . .
51(4) . . .
54(4) . . .
46(4) . . .
39.0(34) . . .
35.1(31) . . .
46(4) . . .
49(4) . . .
44.0(35) . . .
34.3(31) . . .
44(4) . . .
49(4) . . .
48(4) . . .
33.6(30) . . .
31.0(30) . . .
46(4) . . .
45(4) . . .
41.6(34) . . .
46.1(35) . . .
42.0(35) . . .
42(4) . . .
37.7(32) . . .
39.0(33) . . .
52(4) . . .
55(4) . . .
47(4) . . .
46(4) . . .
46(4) . . .
40.5(33) . . .
36.2(33) . . .
49(4) . . .
50(4) . . .
43.6(35) . . .
52(4) . . .
50(4) . . .
37.4(31) . . .
51(4) . . .
48(4) . . .
53(4) . . .
52(4) . . .
54(4) . . .
44(4) . . .
44.0(35) . . .
38.8(33) . . .
43.5(34) . . .
45(4) . . .
54(4) . . .
41.6(33) . . .
54(4) . . .
45(4) . . .
45(4) . . .
46(4) . . .
55(4) . . .
39.9(33) . . .
40.4(34) . . .
39.4(33) . . .
50(4) . . .
44.8(35) . . .
48(4) . . .
50(4) . . .
49(4) . . .
49(4) . . .
39.7(33) . . .
43.7(34) . . .
39.9(35) . . .
54(4) . . .
43.3(35) . . .
44.4(34) . . .
49(4) . . .
46(4) . . .
50(4) . . .
45(4) . . .
42.0(33) . . .
46(4) . . .
50(4) . . .
54(4) . . .
42.5(35) . . .
42.7(34) . . .
55(4) . . .
45(4) . . .
35.6(31) . . .
42.2(34) . . .
42.7(34) . . .
52(4) . . .
50(4) . . .
47(4) . . .
53(4) . . .
49(4) . . .
58(4) . . .
45(4) . . .
43(4) . . .
45(4) . . .
47(4) . . .
48(4) . . .
46(4) . . .
42.5(34) . . .
44.4(34) . . .
41.4(34) . . .
51(4) . . .
53(4) . . .
57(4) . . .
49(4) . . .
48(4) . . .
44(4) . . .
47(4) . . .
46(4) . . .
53(4) . . .
48(4) . . .
38.8(35) . . .
45(4) . . .
51(4) . . .
53(4) . . .
46(4) . . .
45(4) . . .
49(4) . . .
45(4) . . .
46(4) . . .
50(4) . . .
51(4) . . .
49(4) . . .
48(4) . . .
46(4) . . .
51(4) . . .
47(4) . . .
37.2(34) . . .
42(4) . . .
51(4) . . .
44.6(35) . . .
52(4) . . .
53(4) . . .
46(4) . . .
45.3(35) . . .
46(4) . . .
53(4) . . .
45(4) . . .
55(4) . . .
42.2(34) . . .
48(4) . . .
44(4) . . .
51(4) . . .
54(4) . . .
48(4) . . .
46(4) . . .
51(4) . . .
43(4) . . .
45(4) . . .
39.7(33) . . .
55(4) . . .
51(4) . . .
61(4) . . .
51(4) . . .
46(4) . . .
48(4) . . .
52(4) . . .
43(4) . . .
39.8(34) . . .
53(4) . . .
40.8(34) . . .
41(4) . . .
54(4) . . .
50(4) . . .
52(4) . . .
37.0(31) . . .
40.2(34) . . .
52(4) . . .
54(4) . . .
43.5(35) . . .
47(4) . . .
48(4) . . .
50(4) . . .
52(4) . . .
51(4) . . .
49(4) . . .
40.6(35) . . .
42(4) . . .
38.9(32) . . .
43(4) . . .
48(4) . . .
46(4) . . .
47(4) . . .
49(4) . . .
40.8(34) . . .
51(4) . . .
51(4) . . .
48(4) . . .
41.0(33) . . .
46(4) . . .
50(4) . . .
53(4) . . .
47(4) . . .
49(4) . . .
55(4) . . .
54(4) . . .
48(4) . . .
48(4) . . .
44.8(35) . . .
51(4) . . .
40(4) . . .
46(4) . . .
48(4) . . .
47(4) . . .
47(4) . . .
45(4) . . .
48(4) . . .
39.4(33) . . .
54(4) . . .
41.8(34) . . .
44(4) . . .
53(4) . . .
37.5(32) . . .
46(4) . . .
37.7(32) . . .
43(4) . . .
47(4) . . .
51(4) . . .
49(4) . . .
36.5(31) . . .
41.6(35) . . .
51(4) . . .
47(4) . . .
41.2(34) . . .
42(4) . . .
46(4) . . .
39.9(34) . . .
39.5(33) . . .
40.3(34) . . .
43(4) . . .
45(4) . . .
39.6(34) . . .
38.9(33) . . .
46(4) . . .
47(4) . . .
50(4) . . .
42.9(34) . . .
40.8(33) . . .
45(4) . . .
45(4) . . .
36.2(32) . . .
45(4) . . .
44.5(35) . . .
47(4) . . .
37.5(33) . . .
44(4) . . .
52(4) . . .
54(4) . . .
43(4) . . .
48(4) . . .
53(4) . . .
43.8(34) . . .
47(4) . . .
47(4) . . .
44(4) . . .
47(4) . . .
48(4) . . .
41.0(34) . . .
55(4) . . .
41.8(33) . . .
43(4) . . .
42.6(34) . . .
38.7(32) . . .
52(4) . . .
48(4) . . .
51(4) . . .
55(4) . . .
50(4) . . .
46.2(35) . . .
49(4) . . .
42.7(35) . . .
42.4(34) . . .
51(4) . . .
60(4) . . .
41(4) . . .
46(4) . . .
51(4) . . .
52(4) . . .
49(4) . . .
54(4) . . .
49(4) . . .
39.2(32) . . .
40.6(35) . . .
43(4) . . .
41.0(34) . . .
45(4) . . .
46.0(35) . . .
52(4) . . .
38.7(34) . . .
53(4) . . .
54(4) . . .
49(4) . . .
50(4) . . .
49(4) . . .
45(4) . . .
44.3(35) . . .
49(4) . . .
42(4) . . .
51(4) . . .
46(4) . . .
50(4) . . .
48(4) . . .
34.5(32) . . .
46(4) . . .
47(4) . . .
43.8(34) . . .
40.8(33) . . .
44(4) . . .
45(4) . . .
49(4) . . .
48(4) . . .
49(4) . . .
52(4) . . .
50(4) . . .
47(4) . . .
50(4) . . .
45.9(35) . . .
54(4) . . .
50(4) . . .
44(4) . . .
42.5(34) . . .
49(4) . . .
46(4) . . .
44(4) . . .
45(4) . . .
46(4) . . .
46(4) . . .
45(4) . . .
41(4) . . .
41(4) . . .
45.5(35) . . .
38.3(32) . . .
40.3(34) . . .
40.0(34) . . .
46(4) . . .
47(4) . . .
47(4) . . .
52(4) . . .
38.6(33) . . .
43.6(34) . . .
44.9(35) . . .
41.0(34) . . .
43(4) . . .
39.8(35) . . .
46(4) . . .
51(4) . . .
46(4) . . .
52(4) . . .
51(4) . . .
45(4) . . .
38.6(33) . . .
39.1(33) . . .
49(4) . . .
54(4) . . .
50(4) . . .
46(4) . . .
50(4) . . .
47(4) . . .
47(4) . . .
47(4) . . .
45.4(35) . . .
52(4) . . .
48(4) . . .
46(4) . . .
49(4) . . .
34.3(31) . . .
41.9(35) . . .
38.6(35) . . .
38.0(33) . . .
49(4) . . .
46(4) . . .
50(4) . . .
48(4) . . .
40(4) . . .
36.2(32) . . .
41.8(33) . . .
54(4) . . .
50(4) . . .
42(4) . . .
45(4) . . .
53(4) . . .
45(4) . . .
45(4) . . .
51(4) . . .
53(4) . . .
39.7(33) . . .
41.6(33) . . .
54(4) . . .
54(4) . . .
47(4) . . .
48(4) . . .
48(4) . . .
50(4) . . .
45.7(35) . . .
39.2(33) . . .
37.5(33) . . .
44(4) . . .
42(4) . . .
49(4) . . .
38.3(33) . . .
44(4) . . .
47(4) . . .
51(4) . . .
40.8(33) . . .
51(4) . . .
38.5(32) . . .
43(4) . . .
41(4) . . .
43(4) . . .
43.3(34) . . .
45(4) . . .
43(4) . . .
49(4) . . .
44.8(35) . . .
46(4) . . .
45(4) . . .
47(4) . . .
49(4) . . .
41.4(34) . . .
52(4) . . .
48(4) . . .
41(4) . . .
44(4) . . .
45.8(35) . . .
48(4) . . .
42.8(33) . . .
51(4) . . .
48(4) . . .
43.4(34) . . .
37.2(32) . . .
38.8(33) . . .
44(4) . . .
53(4) . . .
40.8(32) . . .
45(4) . . .
46(4) . . .
49(4) . . .
50(4) . . .
38.7(32) . . .
44(4) . . .
49(4) . . .
45(4) . . .
43.0(34) . . .
44.0(34) . . .
40(4) . . .
45(4) . . .
37.4(31) . . .
46(4) . . .
44.6(35) . . .
39.5(33) . . .
38(4) . . .
48(4) . . .
41.8(34) . . .
46.1(35) . . .
50(4) . . .
50(4) . . .
49(4) . . .
49(4) . . .
45.0(35) . . .
41(4) . . .
44(4) . . .
37.7(33) . . .
41.6(33) . . .
51(4) . . .
45(4) . . .
46(4) . . .
48(4) . . .
50(4) . . .
39.1(33) . . .
48(4) . . .
41(4) . . .
44(4) . . .
37.0(32) . . .
33.9(30) . . .
43.1(35) . . .
49(4) . . .
48(4) . . .
35.6(31) . . .
42.3(35) . . .
48(4) . . .
47(4) . . .
42(4) . . .
31.5(29) . . .
38.3(33) . . .
42(4) . . .
48(4) . . .
37.5(32) . . .
39.2(33) . . .
51(4) . . .
45(4) . . .
52(4) . . .
50(4) . . .
53(4) . . .
48(4) . . .
44(4) . . .
50(4) . . .
43(4) . . .
49(4) . . .
37.0(32) . . .
40.1(34) . . .
49(4) . . .
53(4) . . .
50(4) . . .
51(4) . . .
50(4) . . .
35.5(32) . . .
49(4) . . .
41.8(34) . . .
45(4) . . .
42(4) . . .
41(4) . . .
43.1(34) . . .
45.1(35) . . .
46(4) . . .
45(4) . . .
49(4) . . .
51(4) . . .
35.3(31) . . .
40(4) . . .
38.4(34) . . .
48(4) . . .
38.3(33) . . .
50(4) . . .
43(4) . . .
36.8(34) . . .
51(4) . . .
37.7(32) . . .
42.8(35) . . .
57(4) . . .
42.1(34) . . .
54(4) . . .
39.2(33) . . .
42.5(34) . . .
37.2(32) . . .
40.0(34) . . .
46(4) . . .
47(4) . . .
49(4) . . .
45(4) . . .
47(4) . . .
49(4) . . .
52(4) . . .
45(4) . . .
43(4) . . .
45.8(35) . . .
50(4) . . .
44.4(35) . . .
48(4) . . .
50(4) . . .
54(4) . . .
57(4) . . .
48(4) . . .
39.3(33) . . .
43(4) . . .
45(4) . . .
49(4) . . .
50(4) . . .
53(4) . . .
46(4) . . .
31.6(31) . . .
44.0(35) . . .
41.6(33) . . .
34.4(31) . . .
41(4) . . .
45(4) . . .
45.1(35) . . .
46(4) . . .
51(4) . . .
42(4) . . .
43.5(35) . . .
43.8(34) . . .
43(4) . . .
36.1(34) . . .
49(4) . . .
47(4) . . .
43.6(35) . . .
52(4) . . .
54(4) . . .
45(4) . . .
51(4) . . .
45(4) . . .
52(4) . . .
48(4) . . .
48(4) . . .
44(4) . . .
36.3(31) . . .
39.8(34) . . .
46(4) . . .
50(4) . . .
50(4) . . .
41.7(34) . . .
48(4) . . .
53(4) . . .
43.7(35) . . .
43.5(35) . . .
46(4) . . .
43(4) . . .
41.4(33) . . .
40.0(34) . . .
36.9(34) . . .
47(4) . . .
50(4) . . .
46(4) . . .
39.4(33) . . .
44.0(34) . . .
38.6(32) . . .
44(4) . . .
47(4) . . .
49(4) . . .
56(4) . . .
50(4) . . .
50(4) . . .
55(4) . . .
41.1(33) . . .
39.8(33) . . .
42.0(34) . . .
46(4) . . .
58(4) . . .
49(4) . . .
41.8(34) . . .
42.4(34) . . .
44(4) . . .
36.1(32) . . .
43(4) . . .
54(4) . . .
44.5(34) . . .
44(4) . . .
45(4) . . .
45(4) . . .
46(4) . . .
36.0(32) . . .
44(4) . . .
47(4) . . .
41.7(34) . . .
44.5(35) . . .
38.8(32) . . .
43(4) . . .
46(4) . . .
54(4) . . .
46(4) . . .
54(4) . . .
46(4) . . .
52(4) . . .
52(4) . . .
53(4) . . .
46(4) . . .
45(4) . . .
42.4(34) . . .
41.5(34) . . .
40.5(33) . . .
49(4) . . .
43.7(35) . . .
55(4) . . .
44.1(35) . . .
53(4) . . .
46(4) . . .
48(4) . . .
45(4) . . .
46(4) . . .
43(4) . . .
44.2(34) . . .
39.6(33) . . .
39.2(33) . . .
47(4) . . .
49(4) . . .
42.7(35) . . .
49(4) . . .
48(4) . . .
44.7(35) . . .
43.5(34) . . .
47(4) . . .
58(4) . . .
48(4) . . .
41.0(34) . . .
42.8(34) . . .
48(4) . . .
50(4) . . .
57(4) . . .
48(4) . . .
46(4) . . .
42(4) . . .
41.1(34) . . .
35.8(33) . . .
42.8(34) . . .
49(4) . . .
38.7(32) . . .
42.5(35) . . .
43(4) . . .
40.8(34) . . .
53(4) . . .
46(4) . . .
45(4) . . .
35.7(32) . . .
36.9(32) . . .
45(4) . . .
51(4) . . .
45(4) . . .
48(4) . . .
50(4) . . .
48(4) . . .
44(4) . . .
47(4) . . .
44(4) . . .
54(4) . . .
40.3(34) . . .
41(4) . . .
42(4) . . .
40.8(33) . . .
40.5(34) . . .
49(4) . . .
41.3(35) . . .
41.2(34) . . .
47(4) . . .
51(4) . . .
41.0(33) . . .
49(4) . . .
49(4) . . .
43.8(34) . . .
46(4) . . .
46(4) . . .
48(4) . . .
42(4) . . .
37.7(32) . . .
39.7(33) . . .
45(4) . . .
47(4) . . .
51(4) . . .
48(4) . . .
53(4) . . .
48(4) . . .
45(4) . . .
51(4) . . .
51(4) . . .
34.5(31) . . .
38.9(34) . . .
47(4) . . .
43(4) . . .
46(4) . . .
39.5(34) . . .
45(4) . . .
42.5(35) . . .
46(4) . . .
42.6(34) . . .
47(4) . . .
52(4) . . .
42.3(35) . . .
48(4) . . .
57(4) . . .
48(4) . . .
44(4) . . .
55(4) . . .
41(4) . . .
49(4) . . .
53(4) . . .
40.1(34) . . .
49(4) . . .
49(4) . . .
50(4) . . .
49(4) . . .
51(4) . . .
51(4) . . .
37.1(31) . . .
48(4) . . .
42.6(35) . . .
44(4) . . .
45(4) . . .
47(4) . . .
47(4) . . .
49(4) . . .
42(4) . . .
52(4) . . .
40.5(33) . . .
42.6(33) . . .
48(4) . . .
42.0(33) . . .
38.5(33) . . .
50(4) . . .
50(4) . . .
46(4) . . .
50(4) . . .
47(4) . . .
43.7(35) . . .
41.6(35) . . .
49(4) . . .
48(4) . . .
42(4) . . .
45(4) . . .
38.2(33) . . .
41.3(35) . . .
48(4) . . .
42.7(35) . . .
38.4(33) . . .
47(4) . . .
45(4) . . .
45.6(35) . . .
42.3(35) . . .
51(4) . . .
42.7(35) . . .
49(4) . . .
49(4) . . .
52(4) . . .
47(4) . . .
46(4) . . .
39.7(34) . . .
54(4) . . .
47(4) . . .
43.2(34) . . .
40.7(34) . . .
49(4) . . .
47(4) . . .
51(4) . . .
42.1(33) . . .
42.6(34) . . .
48(4) . . .
40.7(33) . . .
44.3(34) . . .
43.0(34) . . .
52(4) . . .
42(4) . . .
41.2(34) . . .
47(4) . . .
44.1(35) . . .
42.0(33) . . .
45(4) . . .
34.9(33) . . .
37.0(33) . . .
36.6(31) . . .
36.0(32) . . .
44(4) . . .
48(4) . . .
45.4(35) . . .
41.4(35) . . .
44(4) . . .
46(4) . . .
43(4) . . .
44.9(35) . . .
43(4) . . .
40(4) . . .
45(4) . . .
52(4) . . .
41.4(34) . . .
51(4) . . .
43.5(34) . . .
48(4) . . .
52(4) . . .
42.5(34) . . .
36.5(33) . . .
50(4) . . .
40.1(33) . . .
39.5(33) . . .
40.8(34) . . .
48(4) . . .
41(4) . . .
41.2(35) . . .
50(4) . . .
45(4) . . .
48(4) . . .
53(4) . . .
39.8(33) . . .
43.7(34) . . .
43.1(35) . . .
43.3(34) . . .
48(4) . . .
47(4) . . .
47(4) . . .
48(4) . . .
47(4) . . .
40.0(33) . . .
48(4) . . .
41.3(34) . . .
47(4) . . .
48(4) . . .
40(4) . . .
52(4) . . .
53(4) . . .
44.1(34) . . .
49(4) . . .
41(4) . . .
43(4) . . .
49(4) . . .
50(4) . . .
40.2(35) . . .
41.4(35) . . .
36.0(32) . . .
44.8(35) . . .
44(4) . . .
56(4) . . .
49(4) . . .
45(4) . . .
39.8(33) . . .
45(4) . . .
38.3(33) . . .
45(4) . . .
46(4) . . .
42.3(34) . . .
49(4) . . .
38.0(33) . . .
41(4) . . .
42(4) . . .
51(4) . . .
52(4) . . .
45(4) . . .
44(4) . . .
48(4) . . .
54(4) . . .
50(4) . . .
35.6(30) . . .
38.1(31) . . .
43.6(34) . . .
36.6(32) . . .
39.0(33) . . .
43(4) . . .
40.1(34) . . .
44.0(34) . . .
37.5(32) . . .
44(4) . . .
37.2(34) . . .
45(4) . . .
50(4) . . .
51(4) . . .
49(4) . . .
49(4) . . .
38.7(33) . . .
46(4) . . .
38.6(33) . . .
43(4) . . .
44(4) . . .
41.7(34) . . .
53(4) . . .
58(4) . . .
52(4) . . .
46(4) . . .
43(4) . . .
43.7(34) . . .
45(4) . . .
52(4) . . .
48(4) . . .
45(4) . . .
43.0(34) . . .
43(4) . . .
40.2(33) . . .
38.6(32) . . .
51(4) . . .
49(4) . . .
41.4(34) . . .
36.1(33) . . .
43(4) . . .
51(4) . . .
49(4) . . .
44(4) . . .
47(4) . . .
43.9(35) . . .
57(4) . . .
51(4) . . .
40.7(34) . . .
40(4) . . .
46(4) . . .
53(4) . . .
43.3(34) . . .
47(4) . . .
53(4) . . .
55(4) . . .
47(4) . . .
47(4) . . .
39.8(34) . . .
42(4) . . .
43(4) . . .
42.4(34) . . .
34.9(31) . . .
45(4) . . .
45(4) . . .
52(4) . . .
57(4) . . .
43(4) . . .
43(4) . . .
38.4(34) . . .
44(4) . . .
43.3(34) . . .
52(4) . . .
50(4) . . .
44(4) . . .
41(4) . . .
45.0(35) . . .
45(4) . . .
43.8(35) . . .
40(4) . . .
43(4) . . .
51(4) . . .
52(4) . . .
48(4) . . .
40.3(33) . . .
45.1(35) . . .
37.6(32) . . .
47(4) . . .
49(4) . . .
44(4) . . .
37.5(33) . . .
47(4) . . .
41.6(34) . . .
47(4) . . .
40.8(34) . . .
54(4) . . .
50(4) . . .
53(4) . . .
43(4) . . .
40.8(33) . . .
36.6(32) . . .
40.2(33) . . .
48(4) . . .
48(4) . . .
44(4) . . .
47(4) . . .
55(4) . . .
47(4) . . .
40.1(35) . . .
45(4) . . .
46(4) . . .
46(4) . . .
38.0(33) . . .
40.0(34) . . .
49(4) . . .
53(4) . . .
45(4) . . .
49(4) . . .
41(4) . . .
43(4) . . .
42.0(34) . . .
50(4) . . .
38.2(33) . . .
38.3(33) . . .
43.9(35) . . .
44.6(35) . . .
45(4) . . .
41(4) . . .
46(4) . . .
42.5(35) . . .
52(4) . . .
52(4) . . .
43(4) . . .
49(4) . . .
49(4) . . .
45(4) . . .
40.5(34) . . .
41(4) . . .
41(4) . . .
47(4) . . .
53(4) . . .
41(4) . . .
41.1(34) . . .
41.4(33) . . .
55(4) . . .
52(4) . . .
46(4) . . .
46(4) . . .
47(4) . . .
39.6(34) . . .
37.9(32) . . .
46(4) . . .
49(4) . . .
47(4) . . .
50(4) . . .
44.0(34) . . .
48(4) . . .
43(4) . . .
33.6(30) . . .
36.7(31) . . .
48(4) . . .
50(4) . . .
39.6(34) . . .
46(4) . . .
53(4) . . .
47(4) . . .
48(4) . . .
51(4) . . .
47(4) . . .
46.0(35) . . .
43.8(35) . . .
34.7(31) . . .
46(4) . . .
42.2(35) . . .
41.8(34) . . .
39.8(32) . . .
45(4) . . .
45(4) . . .
47(4) . . .
52(4) . . .
40.7(35) . . .
44(4) . . .
37.2(33) . . .
52(4) . . .
53(4) . . .
45(4) . . .
45(4) . . .
42.1(34) . . .
48(4) . . .
40.1(33) . . .
47(4) . . .
45(4) . . .
47(4) . . .
42.2(34) . . .
45(4) . . .
48(4) . . .
46(4) . . .
36.7(33) . . .
42.3(34) . . .
38.2(32) . . .
49(4) . . .
51(4) . . .
48(4) . . .
47(4) . . .
43.3(34) . . .
47(4) . . .
41.8(34) . . .
55(4) . . .
48(4) . . .
41.2(33) . . .
37.4(32) . . .
36.4(32) . . .
46(4) . . .
48(4) . . .
37.7(32) . . .
44(4) . . .
41(4) . . .
41.8(35) . . .
43.8(34) . . .
47(4) . . .
48(4) . . .
42(4) . . .
40.9(34) . . .
47(4) . . .
40.9(33) . . .
44.2(35) . . .
44.2(35) . . .
53(4) . . .
39.2(33) . . .
49(4) . . .
54(4) . . .
39.3(34) . . .
47(4) . . .
53(4) . . .
41.3(34) . . .
47(4) . . .
31.8(28) . . .
38.4(32) . . .
51(4) . . .
51(4) . . .
48(4) . . .
51(4) . . .
39.4(33) . . .
42.7(34) . . .
42(4) . . .
42.1(35) . . .
46(4) . . .
40.4(33) . . .
53(4) . . .
45(4) . . .
44(4) . . .
41.8(35) . . .
51(4) . . .
46(4) . . .
52(4) . . .
50(4) . . .
51(4) . . .
46(4) . . .
48(4) . . .
44(4) . . .
41(4) . . .
44(4) . . .
43.7(34) . . .
47(4) . . .
48(4) . . .
37.3(33) . . .
41(4) . . .
46(4) . . .
50(4) . . .
45(4) . . .
50(4) . . .
43(4) . . .
38.8(33) . . .
42.3(34) . . .
56(4) . . .
43.6(34) . . .
50(4) . . .
47(4) . . .
48(4) . . .
45(4) . . .
49(4) . . .
47(4) . . .
40.6(33) . . .
44(4) . . .
45(4) . . .
59(4) . . .
56(4) . . .
43.8(35) . . .
43.0(35) . . .
43(4) . . .
34.0(32) . . .
46(4) . . .
46(4) . . .
48(4) . . .
38.3(33) . . .
41.0(34) . . .
46(4) . . .
47.2(35) . . .
47(4) . . .
36.4(33) . . .
37.2(32) . . .
38.4(32) . . .
45.3(35) . . .
50(4) . . .
45(4) . . .
43.5(35) . . .
41.8(34) . . .
52(4) . . .
49(4) . . .
33.8(31) . . .
46(4) . . .
52(4) . . .
45.0(34) . . .
53(4) . . .
42(4) . . .
44.6(35) . . .
44.2(34) . . .
32.1(31) . . .
42(4) . . .
43(4) . . .
41.2(34) . . .
41.9(34) . . .
52(4) . . .
49(4) . . .
44(4) . . .
61(4) . . .
36.1(32) . . .
44.1(35) . . .
38.8(34) . . .
42(4) . . .
47(4) . . .
51(4) . . .
45(4) . . .
50(4) . . .
49(4) . . .
33.8(30) . . .
42.4(34) . . .
43(4) . . .
44(4) . . .
53(4) . . .
43.9(34) . . .
41.4(34) . . .
44(4) . . .
37.2(33) . . .
38.0(34) . . .
32.8(30) . . .
47(4) . . .
46(4) . . .
50(4) . . .
44.2(34) . . .
48(4) . . .
50(4) . . .
42.4(35) . . .
44(4) . . .
41(4) . . .
39.5(33) . . .
40.0(33) . . .
44(4) . . .
45(4) . . .
51(4) . . .
41.9(33) . . .
40.9(33) . . .
50(4) . . .
54(4) . . .
48(4) . . .
44.0(35) . . .
50(4) . . .
43(4) . . .
48(4) . . .
44(4) . . .
40.1(33) . . .
46(4) . . .
44(4) . . .
46(4) . . .
44(4) . . .
35.4(31) . . .
49(4) . . .
41(4) . . .
41(4) . . .
53(4) . . .
46(4) . . .
41(4) . . .
43(4) . . .
47(4) . . .
39.4(33) . . .
44.3(35) . . .
38.3(34) . . .
44(4) . . .
43.2(34) . . .
52(4) . . .
43.7(34) . . .
32.9(31) . . .
45(4) . . .
39.3(32) . . .
55(4) . . .
43.3(34) . . .
44(4) . . .
46(4) . . .
42.1(34) . . .
49(4) . . .
50(4) . . .
51(4) . . .
46(4) . . .
43.8(35) . . .
48(4) . . .
44.2(34) . . .
43.6(34) . . .
44(4) . . .
35.6(32) . . .
39.7(32) . . .
50(4) . . .
50(4) . . .
42(4) . . .
43.5(35) . . .
41.5(34) . . .
41.8(35) . . .
37.8(32) . . .
42(4) . . .
48(4) . . .
40.4(34) . . .
34.2(30) . . .
37.2(33) . . .
41(4) . . .
43.3(35) . . .
47(4) . . .
50(4) . . .
42.8(34) . . .
48(4) . . .
48(4) . . .
39.1(33) . . .
35.1(31) . . .
45(4) . . .
43(4) . . .
38(4) . . .
45(4) . . .
44(4) . . .
47(4) . . .
35.4(32) . . .
51(4) . . .
51(4) . . .
42.4(34) . . .
54(4) . . .
52(4) . . .
48(4) . . .
45(4) . . .
51(4) . . .
42(4) . . .
45(4) . . .
50(4) . . .
47(4) . . .
46(4) . . .
41(4) . . .
44(4) . . .
46(4) . . .
39.6(33) . . .
44(4) . . .
46(4) . . .
39.5(34) . . .
52(4) . . .
45(4) . . .
47(4) . . .
42(4) . . .
49(4) . . .
47(4) . . .
49(4) . . .
50(4) . . .
56(4) . . .
44(4) . . .
43.8(35) . . .
43.6(35) . . .
48(4) . . .
49(4) . . .
46(4) . . .
56(4) . . .
36.3(32) . . .
38.6(33) . . .
50(4) . . .
45(4) . . .
46(4) . . .
54(4) . . .
36.5(31) . . .
36.3(33) . . .
41.2(34) . . .
38.6(32) . . .
45(4) . . .
42(4) . . .
43(4) . . .
41.0(34) . . .
43.1(35) . . .
39.6(34) . . .
47(4) . . .
53(4) . . .
48(4) . . .
51(4) . . .
40.0(35) . . .
46(4) . . .
44(4) . . .
39.2(33) . . .
34.7(31) . . .
48(4) . . .
36.9(34) . . .
45(4) . . .
39.3(33) . . .
40.9(33) . . .
35.0(31) . . .
45(4) . . .
43.2(34) . . .
48(4) . . .
53(4) . . .
43(4) . . .
52(4) . . .
40.8(35) . . .
49(4) . . .
41.0(33) . . .
55(4) . . .
37.0(33) . . .
45(4) . . .
40.5(33) . . .
42(4) . . .
41.2(34) . . .
33.1(31) . . .
44(4) . . .
47(4) . . .
52(4) . . .
39.7(34) . . .
42(4) . . .
35.1(33) . . .
43.8(35) . . .
54(4) . . .
36.8(32) . . .
47(4) . . .
43(4) . . .
44.5(35) . . .
45(4) . . .
40.8(35) . . .
45(4) . . .
47(4) . . .
47(4) . . .
55(4) . . .
43(4) . . .
39.6(34) . . .
39.9(33) . . .
51(4) . . .
45(4) . . .
52(4) . . .
43(4) . . .
39.6(35) . . .
38.4(32) . . .
39.0(33) . . .
40.6(35) . . .
40(4) . . .
39.5(33) . . .
39.8(33) . . .
43(4) . . .
41(4) . . .
49(4) . . .
59(4) . . .
44.6(34) . . .
40.4(34) . . .
46(4) . . .
40.1(34) . . .
46.4(35) . . .
43.2(35) . . .
45(4) . . .
44(4) . . .
57(4) . . .
39.6(33) . . .
43(4) . . .
39.7(33) . . .
49(4) . . .
41(4) . . .
46(4) . . .
47(4) . . .
42.5(34) . . .
44.9(35) . . .
51(4) . . .
51(4) . . .
42.1(35) . . .
31.1(29) . . .
51(4) . . .
46(4) . . .
35.4(31) . . .
34.0(32) . . .
40(4) . . .
48(4) . . .
35.3(32) . . .
40.3(34) . . .
45(4) . . .
46(4) . . .
41.2(33) . . .
45.3(35) . . .
43.3(35) . . .
49(4) . . .
48(4) . . .
41.7(33) . . .
46(4) . . .
37.4(32) . . .
39.3(33) . . .
40.1(34) . . .
51(4) . . .
47(4) . . .
43.1(34) . . .
48(4) . . .
45(4) . . .
50(4) . . .
45.2(35) . . .
41.2(33) . . .
40.2(33) . . .
43(4) . . .
39.0(34) . . .
33.8(30) . . .
40.0(34) . . .
35.7(31) . . .
39.5(35) . . .
37.7(32) . . .
51(4) . . .
46(4) . . .
43.7(35) . . .
38.8(33) . . .
49(4) . . .
44.9(35) . . .
38.5(33) . . .
39(4) . . .
45(4) . . .
53(4) . . .
49(4) . . .
45(4) . . .
35.1(31) . . .
38.7(33) . . .
43.5(35) . . .
48(4) . . .
38.8(33) . . .
35.8(31) . . .
45(4) . . .
44(4) . . .
61(4) . . .
50(4) . . .
36.1(32) . . .
43(4) . . .
48(4) . . .
36.4(33) . . .
43.2(35) . . .
35.7(32) . . .
43(4) . . .
46(4) . . .
35.5(31) . . .
43(4) . . .
41(4) . . .
37.4(32) . . .
42(4) . . .
40.8(33) . . .
49(4) . . .
44(4) . . .
44(4) . . .
45.5(35) . . .
48(4) . . .
47(4) . . .
48(4) . . .
39.2(33) . . .
39.7(33) . . .
43.4(35) . . .
44(4) . . .
43(4) . . .
34.3(31) . . .
42.8(34) . . .
48(4) . . .
43(4) . . .
39(4) . . .
44(4) . . .
42.8(34) . . .
43.0(34) . . .
44(4) . . .
58(4) . . .
39.8(33) . . .
39.9(33) . . .
40.8(35) . . .
41(4) . . .
44.8(35) . . .
45(4) . . .
43.6(35) . . .
42.7(35) . . .
40.7(34) . . .
53(4) . . .
33.3(30) . . .
44.9(35) . . .
58(4) . . .
54(4) . . .
45(4) . . .
37.6(31) . . .
46(4) . . .
37.8(32) . . .
35.9(32) . . .
54(4) . . .
31.3(29) . . .
43.9(35) . . .
41(4) . . .
47(4) . . .
40(4) . . .
35.7(31) . . .
44.0(35) . . .
46(4) . . .
43(4) . . .
33.7(31) . . .
42.0(34) . . .
38.8(32) . . .
36.5(31) . . .
44(4) . . .
44(4) . . .
47(4) . . .
50(4) . . .
50(4) . . .
40(4) . . .
46(4) . . .
39.7(33) . . .
38.6(32) . . .
44.6(35) . . .
51(4) . . .
47(4) . . .
44.4(35) . . .
48(4) . . .
48(4) . . .
45(4) . . .
50(4) . . .
52(4) . . .
36.2(32) . . .
36.1(33) . . .
40.1(35) . . .
42.4(34) . . .
48(4) . . .
47(4) . . .
50(4) . . .
48(4) . . .
45(4) . . .
44.5(35) . . .
40.8(34) . . .
43(4) . . .
48(4) . . .
39.8(35) . . .
42.9(34) . . .
38.5(34) . . .
40.8(34) . . .
48(4) . . .
38.3(32) . . .
46(4) . . .
41.7(33) . . .
46(4) . . .
40.0(34) . . .
40.5(34) . . .
46(4) . . .
53(4) . . .
45(4) . . .
42.3(34) . . .
44.0(35) . . .
47(4) . . .
40.0(34) . . .
43(4) . . .
41.3(34) . . .
43.9(35) . . .
44(4) . . .
43(4) . . .
41.1(35) . . .
52(4) . . .
41.0(33) . . .
34.5(30) . . .
46(4) . . .
42(4) . . .
49(4) . . .
43.3(34) . . .
33.7(30) . . .
45(4) . . .
45(4) . . .
43(4) . . .
39.3(32) . . .
47(4) . . .
43(4) . . .
42(4) . . .
41.1(35) . . .
43.8(34) . . .
45(4) . . .
49(4) . . .
41(4) . . .
47(4) . . .
45.0(35) . . .
37.1(32) . . .
56(4) . . .
43(4) . . .
43(4) . . .
50(4) . . .
47(4) . . .
36.5(32) . . .
47(4) . . .
50(4) . . .
46(4) . . .
47(4) . . .
46(4) . . .
49(4) . . .
42.5(34) . . .
53(4) . . .
48(4) . . .
45(4) . . .
48(4) . . .
41.8(33) . . .
48(4) . . .
50(4) . . .
47(4) . . .
43.3(35) . . .
42.9(34) . . .
47(4) . . .
31.7(30) . . .
33.6(33) . . .
47(4) . . .
42.8(34) . . .
38.4(32) . . .
40.4(34) . . .
35.6(32) . . .
41.7(34) . . .
43.4(35) . . .
46(4) . . .
43(4) . . .
41(4) . . .
40.3(34) . . .
39.5(33) . . .
37.2(32) . . .
45(4) . . .
40.5(34) . . .
46(4) . . .
36.5(33) . . .
47(4) . . .
45(4) . . .
40(4) . . .
40.8(34) . . .
46(4) . . .
51(4) . . .
49(4) . . .
46(4) . . .
43(4) . . .
48(4) . . .
43(4) . . .
48(4) . . .
48(4) . . .
45.2(35) . . .
47(4) . . .
48(4) . . .
40.8(32) . . .
55(4) . . .
37.3(32) . . .
44.6(35) . . .
46(4) . . .
39(4) . . .
33.4(30) . . .
45.0(35) . . .
45(4) . . .
49(4) . . .
44(4) . . .
39(4) . . .
38.6(33) . . .
47(4) . . .
36.5(33) . . .
41(4) . . .
38.7(34) . . .
44.2(35) . . .
37.5(32) . . .
43(4) . . .
40(4) . . .
41(4) . . .
48(4) . . .
42.7(34) . . .
38.3(34) . . .
33.8(32) . . .
52(4) . . .
34.8(31) . . .
33.9(31) . . .
35.5(32) . . .
36.2(33) . . .
36.2(33) . . .
42.0(34) . . .
37.5(32) . . .
41.0(35) . . .
42(4) . . .
42.1(34) . . .
39.1(33) . . .
41.8(34) . . .
39.7(33) . . .
43(4) . . .
38.5(33) . . .
44.2(34) . . .
47(4) . . .
46(4) . . .
53(4) . . .
48(4) . . .
45(4) . . .
45(4) . . .
43.2(35) . . .
50(4) . . .
41.0(33) . . .
45.1(35) . . .
32.6(30) . . .
43(4) . . .
47(4) . . .
48(4) . . .
44.3(35) . . .
57(4) . . .
40.8(34) . . .
43(4) . . .
44.9(35) . . .
35.6(32) . . .
43(4) . . .
39.6(35) . . .
34.5(35) . . .
37.8(33) . . .
35.0(31) . . .
39.7(35) . . .
50(4) . . .
41.9(34) . . .
42.8(34) . . .
37.7(32) . . .
38.3(35) . . .
46(4) . . .
43(4) . . .
39.5(33) . . .
39.5(33) . . .
47(4) . . .
47(4) . . .
40.2(35) . . .
34.7(31) . . .
39.3(33) . . .
44(4) . . .
47(4) . . .
43(4) . . .
39.3(33) . . .
33.4(31) . . .
48(4) . . .
44(4) . . .
31.2(31) . . .
44.7(35) . . .
33.0(30) . . .
38.3(33) . . .
34.1(31) . . .
43(4) . . .
48(4) . . .
43.3(34) . . .
45(4) . . .
37.0(31) . . .
48(4) . . .
54(4) . . .
42.5(35) . . .
50(4) . . .
41(4) . . .
37.3(32) . . .
39.4(33) . . .
36.4(32) . . .
42(4) . . .
41.9(34) . . .
50(4) . . .
47(4) . . .
49(4) . . .
47(4) . . .
43(4) . . .
44(4) . . .
41.8(34) . . .
51(4) . . .
43(4) . . .
49(4) . . .
46(4) . . .
38.3(32) . . .
41.3(34) . . .
42.9(35) . . .
49(4) . . .
38.6(33) . . .
40.4(33) . . .
37.0(34) . . .
43(4) . . .
45(4) . . .
41.0(34) . . .
54(4) . . .
49(4) . . .
41(4) . . .
43(4) . . .
52(4) . . .
43.0(34) . . .
33.0(29) . . .
41(4) . . .
43(4) . . .
41.0(33) . . .
42.7(35) . . .
54(4) . . .
40.7(33) . . .
35.8(31) . . .
43.8(35) . . .
50(4) . . .
38.0(34) . . .
42.0(35) . . .
41.0(34) . . .
37.9(32) . . .
42.6(34) . . .
45(4) . . .
45(4) . . .
48(4) . . .
38.3(32) . . .
44(4) . . .
38.8(33) . . .
49(4) . . .
56(4) . . .
43.9(35) . . .
39.2(33) . . .
39(4) . . .
39.0(33) . . .
50(4) . . .
50(4) . . .
46(4) . . .
36.9(34) . . .
39.8(33) . . .
49(4) . . .
45.3(35) . . .
42(4) . . .
40(4) . . .
39.3(33) . . .
42.8(35) . . .
40.8(34) . . .
35.4(31) . . .
52(4) . . .
48(4) . . .
42.5(34) . . .
42.8(34) . . .
46(4) . . .
47(4) . . .
52(4) . . .
47(4) . . .
45(4) . . .
46(4) . . .
40.0(33) . . .
41(4) . . .
43.4(34) . . .
48(4) . . .
51(4) . . .
37.3(35) . . .
40.3(35) . . .
44.6(35) . . .
32.8(30) . . .
45(4) . . .
36.4(32) . . .
46(4) . . .
51(4) . . .
38.2(32) . . .
46(4) . . .
50(4) . . .
36.4(33) . . .
36.9(31) . . .
42(4) . . .
30.1(31) . . .
39.8(34) . . .
49(4) . . .
44.7(35) . . .
41.4(34) . . .
45(4) . . .
39.7(34) . . .
38.7(33) . . .
38.4(33) . . .
54(4) . . .
37.7(35) . . .
52(4) . . .
45.8(35) . . .
48(4) . . .
38.4(33) . . .
33.6(33) . . .
36.2(34) . . .
50(4) . . .
41.7(34) . . .
43(4) . . .
47(4) . . .
41.1(34) . . .
49(4) . . .
43.0(35) . . .
42.8(35) . . .
35.6(31) . . .
45(4) . . .
38.2(33) . . .
34.3(32) . . .
37.4(32) . . .
36.8(33) . . .
37.6(31) . . .
46(4) . . .
44.5(35) . . .
48(4) . . .
32.7(31) . . .
48(4) . . .
38.7(32) . . .
42.5(35) . . .
37.7(34) . . .
43(4) . . .
47(4) . . .
54(4) . . .
45(4) . . .
44.5(35) . . .
42.9(34) . . .
44.0(35) . . .
43.0(34) . . .
36.4(32) . . .
37.2(34) . . .
42.5(35) . . .
46(4) . . .
41.3(34) . . .
43(4) . . .
41.8(35) . . .
43(4) . . .
47(4) . . .
45.4(35) . . .
48(4) . . .
47(4) . . .
39.9(33) . . .
52(4) . . .
34.8(31) . . .
42(4) . . .
40(4) . . .
45(4) . . .
37.1(32) . . .
38.7(32) . . .
38.9(33) . . .
40.2(35) . . .
47(4) . . .
42.8(34) . . .
45.4(35) . . .
32.3(30) . . .
32.7(32) . . .
39.8(33) . . .
42.2(34) . . .
43.8(35) . . .
42(4) . . .
42(4) . . .
41(4) . . .
44(4) . . .
32.0(29) . . .
41.2(33) . . .
44(4) . . .
47(4) . . .
46(4) . . .
41.4(33) . . .
39.3(34) . . .
41(4) . . .
39.0(32) . . .
39.1(33) . . .
43.8(34) . . .
47(4) . . .
43(4) . . .
42(4) . . .
34.1(30) . . .
42(4) . . .
44(4) . . .
50(4) . . .
48(4) . . .
45(4) . . .
47(4) . . .
40(4) . . .
46(4) . . .
40.8(35) . . .
43.5(34) . . .
47(4) . . .
39.5(34) . . .
46(4) . . .
32.8(30) . . .
37.5(32) . . .
39.3(33) . . .
45(4) . . .
45(4) . . .
45.0(35) . . .
39.9(33) . . .
38.8(32) . . .
49(4) . . .
44.0(35) . . .
39.2(33) . . .
49(4) . . .
42.3(35) . . .
48(4) . . .
49(4) . . .
51(4) . . .
47(4) . . .
41.2(33) . . .
49(4) . . .
46(4) . . .
45(4) . . .
50(4) . . .
48(4) . . .
42(4) . . .
43.1(34) . . .
39.8(33) . . .
37.3(33) . . .
37.5(31) . . .
45(4) . . .
43.6(34) . . .
49(4) . . .
43(4) . . .
37.4(31) . . .
42(4) . . .
43(4) . . .
45.1(35) . . .
39.6(33) . . .
46(4) . . .
33.8(31) . . .
45(4) . . .
50(4) . . .
35.1(32) . . .
46(4) . . .
38.2(34) . . .
49(4) . . .
38.5(33) . . .
40.1(35) . . .
41(4) . . .
48(4) . . .
54(4) . . .
50(4) . . .
46(4) . . .
39.5(35) . . .
37.8(34) . . .
44.8(35) . . .
39.1(33) . . .
44(4) . . .
44(4) . . .
43(4) . . .
47(4) . . .
41.8(34) . . .
35.8(31) . . .
41.0(35) . . .
38(4) . . .
47(4) . . .
60(4) . . .
46(4) . . .
46(4) . . .
48(4) . . .
51(4) . . .
45(4) . . .
46(4) . . .
36.8(33) . . .
37.0(34) . . .
42.4(34) . . .
38.7(33) . . .
45(4) . . .
48(4) . . .
47(4) . . .
39.0(33) . . .
42(4) . . .
40.9(34) . . .
43.3(35) . . .
42.2(34) . . .
37.9(32) . . .
51(4) . . .
40.0(33) . . .
44(4) . . .
38.1(32) . . .
42.8(34) . . .
38.9(33) . . .
48(4) . . .
43.6(35) . . .
49(4) . . .
45(4) . . .
47(4) . . .
33.7(31) . . .
37.0(33) . . .
42.8(34) . . .
51(4) . . .
39.7(34) . . .
42(4) . . .
43(4) . . .
46(4) . . .
50(4) . . .
36.4(33) . . .
45(4) . . .
38.5(32) . . .
39.8(33) . . .
42.5(34) . . .
42.3(35) . . .
38(4) . . .
36.9(32) . . .
37.8(32) . . .
40.3(34) . . .
42(4) . . .
40(4) . . .
39.4(34) . . .
37.8(32) . . .
46(4) . . .
43.5(35) . . .
47(4) . . .
39(4) . . .
35.4(31) . . .
28.6(29) . . .
36.9(33) . . .
42.0(34) . . .
43(4) . . .
41.7(34) . . .
39.2(33) . . .
34.8(31) . . .
43(4) . . .
39.8(34) . . .
42.6(34) . . .
46(4) . . .
38.7(33) . . .
46(4) . . .
42.6(33) . . .
39.8(33) . . .
44.2(35) . . .
38.6(33) . . .
38.9(34) . . .
37.3(32) . . .
34.7(31) . . .
46(4) . . .
39.8(35) . . .
41(4) . . .
40.8(34) . . .
40.5(32) . . .
44(4) . . .
42(4) . . .
46(4) . . .
42.3(34) . . .
44(4) . . .
42(4) . . .
37(4) . . .
36.7(34) . . .
32.1(29) . . .
37.3(31) . . .
46(4) . . .
54(4) . . .
42.8(34) . . .
52(4) . . .
43(4) . . .
43.4(35) . . .
46(4) . . .
39.2(33) . . .
40.2(33) . . .
40.8(33) . . .
45(4) . . .
44(4) . . .
39.6(35) . . .
31.2(30) . . .
42(4) . . .
42.0(35) . . .
36.6(31) . . .
43(4) . . .
35.6(32) . . .
41.7(33) . . .
42.3(35) . . .
37.8(33) . . .
40.5(33) . . .
36.3(32) . . .
48(4) . . .
42(4) . . .
41(4) . . .
44(4) . . .
50(4) . . .
39.7(34) . . .
38.7(34) . . .
48(4) . . .
46(4) . . .
41.6(34) . . .
47(4) . . .
54(4) . . .
37.0(32) . . .
43.0(34) . . .
48(4) . . .
44(4) . . .
40.8(35) . . .
39.1(33) . . .
46(4) . . .
42.5(34) . . .
32.0(32) . . .
40(4) . . .
42.9(34) . . .
51(4) . . .
52(4) . . .
45(4) . . .
51(4) . . .
43.4(34) . . .
49(4) . . .
42.8(35) . . .
44(4) . . .
33.7(32) . . .
39.0(33) . . .
40.6(33) . . .
38.2(33) . . .
51(4) . . .
41.1(33) . . .
39.2(34) . . .
44.5(35) . . .
41.3(33) . . .
41.1(34) . . .
40.8(34) . . .
42(4) . . .
32.2(29) . . .
37.2(33) . . .
38.2(35) . . .
39.6(35) . . .
46(4) . . .
44.2(34) . . .
44.6(35) . . .
38.3(34) . . .
41.9(35) . . .
52(4) . . .
41.6(33) . . .
48(4) . . .
39.6(31) . . .
40(4) . . .
42(4) . . .
44.3(34) . . .
33.0(31) . . .
40.6(35) . . .
46(4) . . .
48(4) . . .
37.1(32) . . .
41.2(35) . . .
44(4) . . .
38.9(35) . . .
42.5(34) . . .
48(4) . . .
43(4) . . .
42(4) . . .
38.0(32) . . .
42.8(34) . . .
46(4) . . .
38.6(33) . . .
43(4) . . .
46(4) . . .
36.3(31) . . .
41.2(33) . . .
41.6(34) . . .
42(4) . . .
44.3(35) . . .
40.0(33) . . .
37.6(31) . . .
37.2(32) . . .
45(4) . . .
49(4) . . .
33.7(30) . . .
46(4) . . .
35.6(34) . . .
52(4) . . .
47(4) . . .
41.0(33) . . .
47(4) . . .
39.6(32) . . .
38.9(35) . . .
46(4) . . .
36.8(33) . . .
36.5(31) . . .
34.4(32) . . .
43(4) . . .
35.1(33) . . .
39.3(32) . . .
32.6(30) . . .
42(4) . . .
39.8(33) . . .
46(4) . . .
37.1(32) . . .
41(4) . . .
44(4) . . .
34.7(32) . . .
43.0(35) . . .
44.1(34) . . .
42(4) . . .
45(4) . . .
48(4) . . .
38.0(32) . . .
42.8(35) . . .
40.4(34) . . .
38.2(35) . . .
44(4) . . .
47(4) . . .
39.4(33) . . .
37.8(32) . . .
40(4) . . .
37.1(35) . . .
43.8(34) . . .
46.5(35) . . .
45(4) . . .
37.2(34) . . .
42(4) . . .
36.5(32) . . .
45(4) . . .
38.7(33) . . .
34.4(33) . . .
30.2(29) . . .
46(4) . . .
29.3(28) . . .
38.2(33) . . .
43.3(35) . . .
43.6(35) . . .
42.6(34) . . .
47(4) . . .
38.8(34) . . .
37.2(35) . . .
41(4) . . .
43.7(35) . . .
38.3(35) . . .
36.9(35) . . .
42(4) . . .
40(4) . . .
41.6(34) . . .
40(4) . . .
36.8(35) . . .
38.6(35) . . .
37.9(33) . . .
38.9(32) . . .
46(4) . . .
47(4) . . .
48(4) . . .
43.7(34) . . .
39.5(33) . . .
47(4) . . .
41(4) . . .
40.5(34) . . .
42.3(34) . . .
36.7(31) . . .
39.9(35) . . .
49(4) . . .
40.1(34) . . .
45.5(35) . . .
40.8(34) . . .
41(4) . . .
37.3(33) . . .
44(4) . . .
43(4) . . .
36.1(31) . . .
41(4) . . .
35.3(34) . . .
38.7(35) . . .
40.4(33) . . .
41.7(33) . . .
51(4) . . .
47(4) . . .
42.1(33) . . .
37.6(32) . . .
42.0(34) . . .
39.7(34) . . .
41(4) . . .
37.5(33) . . .
37.2(32) . . .
43.1(35) . . .
44(4) . . .
38.4(34) . . .
39.7(33) . . .
37.6(32) . . .
41.6(34) . . .
42.5(35) . . .
37.9(33) . . .
40.8(33) . . .
45.0(35) . . .
34.3(31) . . .
34.8(33) . . .
49(4) . . .
50(4) . . .
35.7(31) . . .
41(4) . . .
42.2(35) . . .
43(4) . . .
46(4) . . .
38.8(33) . . .
39.1(34) . . .
44(4) . . .
43(4) . . .
41.8(34) . . .
40.4(33) . . .
35.5(33) . . .
42(4) . . .
33.4(30) . . .
48(4) . . .
43.9(35) . . .
39.5(33) . . .
54(4) . . .
49(4) . . .
38.3(33) . . .
45.2(35) . . .
41.3(35) . . .
42(4) . . .
44(4) . . .
44.8(35) . . .
41.0(35) . . .
45(4) . . .
49(4) . . .
46(4) . . .
42.8(34) . . .
43.2(35) . . .
36.0(32) . . .
38.3(34) . . .
38.4(34) . . .
39.9(33) . . .
42.6(34) . . .
44(4) . . .
37.2(34) . . .
46(4) . . .
33.7(31) . . .
47(4) . . .
38.2(32) . . .
37.5(32) . . .
36.6(31) . . .
39.1(32) . . .
32.6(32) . . .
38(4) . . .
42(4) . . .
42.7(34) . . .
44.4(35) . . .
45(4) . . .
50(4) . . .
49(4) . . .
33.7(30) . . .
49(4) . . .
43(4) . . .
44(4) . . .
44(4) . . .
34.6(31) . . .
43.4(35) . . .
33.9(31) . . .
46(4) . . .
52(4) . . .
41.0(34) . . .
44.1(34) . . .
36.2(31) . . .
42(4) . . .
43(4) . . .
40.0(33) . . .
44.2(34) . . .
37.9(32) . . .
43(4) . . .
41.5(34) . . .
42.3(34) . . .
53(4) . . .
46(4) . . .
51(4) . . .
46(4) . . .
39.6(32) . . .
39.3(34) . . .
36.3(33) . . .
37.8(33) . . .
42.6(34) . . .
32.6(29) . . .
33.3(30) . . .
44(4) . . .
36.7(33) . . .
36.0(31) . . .
53(4) . . .
44.8(35) . . .
34.2(31) . . .
45(4) . . .
45(4) . . .
43.8(34) . . .
40.0(34) . . .
42(4) . . .
38.3(34) . . .
31.1(29) . . .
36.2(32) . . .
40.6(33) . . .
42(4) . . .
39.8(34) . . .
33.8(30) . . .
38.5(32) . . .
46(4) . . .
41(4) . . .
41.6(34) . . .
44(4) . . .
41.3(33) . . .
37.7(32) . . .
39(4) . . .
36.5(32) . . .
50(4) . . .
43.8(34) . . .
37.7(33) . . .
32.7(29) . . .
34.7(31) . . .
44.5(34) . . .
39.6(33) . . .
48(4) . . .
38.7(33) . . .
37.4(32) . . .
43.9(35) . . .
45(4) . . .
43(4) . . .
41(4) . . .
34.5(31) . . .
39.8(33) . . .
39.7(33) . . .
35.2(30) . . .
42(4) . . .
41(4) . . .
38.2(32) . . .
37.7(31) . . .
45(4) . . .
39.0(35) . . .
37.7(35) . . .
36.7(32) . . .
37.7(32) . . .
40(4) . . .
40.1(35) . . .
44(4) . . .
36.1(31) . . .
47(4) . . .
38.0(32) . . .
51(4) . . .
43(4) . . .
43.5(35) . . .
46(4) . . .
38.5(33) . . .
31.9(30) . . .
33.1(33) . . .
41.1(34) . . .
47(4) . . .
41(4) . . .
39.3(33) . . .
48(4) . . .
42.8(34) . . .
38.8(33) . . .
40.0(35) . . .
38.6(33) . . .
40.0(33) . . .
44.4(34) . . .
42.9(35) . . .
42(4) . . .
40(4) . . .
35.1(31) . . .
41.6(34) . . .
41.9(35) . . .
40(4) . . .
44.3(35) . . .
43.1(34) . . .
38.9(32) . . .
49(4) . . .
43(4) . . .
35.5(31) . . .
40.3(33) . . .
36.5(32) . . .
46(4) . . .
48(4) . . .
44(4) . . .
41.8(33) . . .
44(4) . . .
32.5(30) . . .
36.5(31) . . .
43(4) . . .
40.2(33) . . .
44.4(34) . . .
43(4) . . .
43(4) . . .
39.6(34) . . .
38.2(33) . . .
48(4) . . .
39.8(33) . . .
44(4) . . .
42.5(35) . . .
38.1(33) . . .
38.1(32) . . .
44(4) . . .
38.6(34) . . .
39.4(33) . . .
51(4) . . .
49(4) . . .
39.7(34) . . .
45(4) . . .
40.1(33) . . .
34.4(31) . . .
39.0(33) . . .
44(4) . . .
45(4) . . .
50(4) . . .
38.8(33) . . .
38.2(34) . . .
39(4) . . .
40(4) . . .
47(4) . . .
38.6(32) . . .
35.7(32) . . .
41(4) . . .
40(4) . . .
36.7(32) . . .
44.6(35) . . .
36.6(32) . . .
37.1(35) . . .
39.3(33) . . .
44.1(35) . . .
39.0(32) . . .
37.5(34) . . .
45(4) . . .
44(4) . . .
41.9(33) . . .
38.6(32) . . .
34.7(31) . . .
56(4) . . .
47(4) . . .
40.5(34) . . .
39.3(33) . . .
38.2(32) . . .
35.7(31) . . .
49(4) . . .
40.9(33) . . .
41.9(34) . . .
42(4) . . .
49(4) . . .
37.7(32) . . .
47(4) . . .
40.2(33) . . .
42.8(34) . . .
47(4) . . .
39.3(33) . . .
34.3(31) . . .
46(4) . . .
37.6(34) . . .
38.3(33) . . .
43(4) . . .
44.3(35) . . .
36.6(33) . . .
29.8(29) . . .
39(4) . . .
42.3(34) . . .
41.1(34) . . .
37.4(34) . . .
44(4) . . .
37.1(32) . . .
43.1(34) . . .
45.2(35) . . .
29.2(28) . . .
34.0(32) . . .
42(4) . . .
46(4) . . .
40.9(33) . . .
40.4(34) . . .
41(4) . . .
39.5(34) . . .
34.1(30) . . .
30.0(28) . . .
37.3(32) . . .
43(4) . . .
39.0(35) . . .
46(4) . . .
43.8(34) . . .
37.6(32) . . .
48(4) . . .
38.8(33) . . .
32.8(30) . . .
35.5(30) . . .
41.3(34) . . .
41(4) . . .
38.0(33) . . .
41.5(33) . . .
47(4) . . .
42.0(34) . . .
43(4) . . .
46(4) . . .
38.6(32) . . .
37.1(32) . . .
42(4) . . .
42.4(35) . . .
39.7(33) . . .
39.7(33) . . .
42(4) . . .
33.0(31) . . .
35.1(31) . . .
32.5(30) . . .
42.2(34) . . .
39.2(33) . . .
37.6(32) . . .
37.3(32) . . .
42.0(34) . . .
37.0(32) . . .
36.0(32) . . .
42(4) . . .
39.4(34) . . .
41.3(34) . . .
37.5(31) . . .
48(4) . . .
45(4) . . .
52(4) . . .
43.0(34) . . .
35.4(31) . . .
44(4) . . .
44(4) . . .
44.5(35) . . .
37.5(32) . . .
38.6(33) . . .
36.3(32) . . .
31.9(32) . . .
38.5(33) . . .
44(4) . . .
42.5(33) . . .
49(4) . . .
42(4) . . .
38.7(34) . . .
37.5(32) . . .
41.5(34) . . .
45(4) . . .
42.0(34) . . .
42.3(34) . . .
39.9(33) . . .
36.2(33) . . .
45(4) . . .
40.3(33) . . .
37.8(32) . . .
36.4(31) . . .
43(4) . . .
45(4) . . .
41(4) . . .
38.3(33) . . .
36.2(31) . . .
38.0(34) . . .
46(4) . . .
46(4) . . .
42.6(35) . . .
40.7(34) . . .
37.5(32) . . .
46(4) . . .
44(4) . . .
44(4) . . .
46(4) . . .
32.9(31) . . .
35.6(33) . . .
33.6(31) . . .
38.2(33) . . .
40.1(33) . . .
41.2(34) . . .
38.8(35) . . .
45(4) . . .
39.5(33) . . .
39.2(33) . . .
35.7(32) . . .
47(4) . . .
41.5(35) . . .
31.3(29) . . .
36.8(31) . . .
39.8(34) . . .
44(4) . . .
39.7(34) . . .
34.6(30) . . .
37.3(32) . . .
39.0(33) . . .
38(4) . . .
40.8(35) . . .
39.0(32) . . .
42.1(34) . . .
38.4(34) . . .
39.7(35) . . .
42.0(35) . . .
47(4) . . .
41.9(35) . . .
41.9(35) . . .
44(4) . . .
39.3(34) . . .
38.5(32) . . .
38.3(32) . . .
50(4) . . .
36.2(32) . . .
45(4) . . .
38.4(32) . . .
32.0(31) . . .
39.0(34) . . .
47(4) . . .
37.6(33) . . .
39.3(33) . . .
33.6(30) . . .
38.3(35) . . .
40.8(35) . . .
50(4) . . .
38.0(32) . . .
35.8(33) . . .
35.6(34) . . .
36.8(32) . . .
34.4(31) . . .
41.1(33) . . .
43(4) . . .
47(4) . . .
41(4) . . .
40.9(34) . . .
30.3(29) . . .
41.2(35) . . .
60(5) . . .
42.4(34) . . .
44.7(35) . . .
42.9(34) . . .
40.3(33) . . .
45(4) . . .
33.3(32) . . .
48(4) . . .
53(4) . . .
52(4) . . .
42(4) . . .
48(4) . . .
42.1(34) . . .
39.5(33) . . .
36.8(32) . . .
39.6(35) . . .
39.3(34) . . .
47(4) . . .
42.6(34) . . .
40.4(34) . . .
42(4) . . .
37.3(33) . . .
38.8(33) . . .
41.7(33) . . .
39.4(34) . . .
43(4) . . .
33.8(31) . . .
37.9(32) . . .
37.9(33) . . .
40.1(34) . . .
41(4) . . .
37.0(34) . . .
31.3(29) . . .
38.4(34) . . .
46(4) . . .
46(4) . . .
44(4) . . .
41.8(34) . . .
32.7(30) . . .
38.9(33) . . .
33.8(31) . . .
34.6(32) . . .
31.1(29) . . .
34.5(31) . . .
36.5(32) . . .
41.1(34) . . .
35.7(31) . . .
43.5(34) . . .
41.3(33) . . .
42(4) . . .
40.5(34) . . .
35.1(31) . . .
42.0(34) . . .
36.5(35) . . .
35.0(34) . . .
40.6(34) . . .
49(4) . . .
33.3(30) . . .
38.3(34) . . .
39(4) . . .
39.6(33) . . .
45(4) . . .
45(4) . . .
53(4) . . .
37.6(32) . . .
37.9(34) . . .
38.0(32) . . .
35.5(33) . . .
35.6(34) . . .
38(4) . . .
51(4) . . .
47(4) . . .
42.1(34) . . .
35.2(32) . . .
36.9(33) . . .
40.5(34) . . .
31.6(29) . . .
39.0(33) . . .
35.2(33) . . .
47(4) . . .
41.6(35) . . .
42.1(34) . . .
26.3(27) . . .
46(4) . . .
42(4) . . .
42.3(34) . . .
48(4) . . .
36.8(32) . . .
38.9(33) . . .
40.6(34) . . .
34.9(31) . . .
43.2(35) . . .
44(4) . . .
32.3(32) . . .
35.8(34) . . .
41.9(35) . . .
47(4) . . .
44(4) . . .
50(4) . . .
42.8(34) . . .
42.0(35) . . .
43.5(34) . . .
43.8(35) . . .
45(4) . . .
44.5(35) . . .
39.9(32) . . .
43.8(35) . . .
44(4) . . .
39.7(34) . . .
35.6(31) . . .
47(4) . . .
40.3(33) . . .
43(4) . . .
38.3(35) . . .
43(4) . . .
44.5(35) . . .
40.7(33) . . .
50(4) . . .
40.0(34) . . .
41.0(34) . . .
37.3(31) . . .
41.2(34) . . .
35.3(33) . . .
40(4) . . .
36.7(33) . . .
41.8(34) . . .
37.8(33) . . .
34.1(31) . . .
36.5(33) . . .
51(4) . . .
38.7(32) . . .
37.8(32) . . .
51(4) . . .
43(4) . . .
47(4) . . .
43.9(35) . . .
35.9(32) . . .
40.1(34) . . .
44(4) . . .
39.2(33) . . .
34.2(31) . . .
42(4) . . .
36.8(34) . . .
40.3(35) . . .
39.4(33) . . .
40.4(33) . . .
38.2(34) . . .
34.5(32) . . .
42(4) . . .
39.1(33) . . .
42.1(34) . . .
43(4) . . .
37.3(35) . . .
47(4) . . .
36.2(31) . . .
41.8(34) . . .
42(4) . . .
35.1(33) . . .
45(4) . . .
42.6(34) . . .
39.6(33) . . .
47(4) . . .
48(4) . . .
44(4) . . .
34.0(31) . . .
42.6(34) . . .
34.4(31) . . .
45(4) . . .
45(4) . . .
46(4) . . .
35.4(31) . . .
34.0(30) . . .
41(4) . . .
42(4) . . .
41.1(34) . . .
42.6(34) . . .
44(4) . . .
37.3(34) . . .
42(4) . . .
32.9(29) . . .
33.2(29) . . .
45(4) . . .
41(4) . . .
33.9(31) . . .
35.0(30) . . .
37.0(32) . . .
40(4) . . .
42(4) . . .
36.7(31) . . .
42.2(34) . . .
48(4) . . .
43.9(35) . . .
43.7(34) . . .
37.8(32) . . .
42.3(34) . . .
45(4) . . .
43(4) . . .
37.3(33) . . .
36.2(32) . . .
38.8(33) . . .
36.3(32) . . .
40(4) . . .
31.0(28) . . .
42.5(34) . . .
42.0(33) . . .
37.1(32) . . .
51(4) . . .
43.0(34) . . .
41.0(33) . . .
45(4) . . .
41.5(34) . . .
45(4) . . .
37.3(33) . . .
38.0(32) . . .
42.8(34) . . .
43(4) . . .
47(4) . . .
42.1(34) . . .
40.0(34) . . .
43.9(34) . . .
34.7(31) . . .
42(4) . . .
44(4) . . .
35.7(32) . . .
35.4(31) . . .
44(4) . . .
39.2(34) . . .
31.9(30) . . .
28.8(28) . . .
46(4) . . .
35.9(33) . . .
39(4) . . .
40.6(33) . . .
37.9(33) . . .
36.7(33) . . .
37.3(33) . . .
40.5(35) . . .
42.2(34) . . .
39.4(33) . . .
43(4) . . .
33.2(31) . . .
42(4) . . .
33.9(31) . . .
45.4(35) . . .
35.3(32) . . .
32.9(32) . . .
38.5(34) . . .
37.3(32) . . .
37.3(31) . . .
40.0(33) . . .
42(4) . . .
32.9(33) . . .
34.2(31) . . .
42.8(34) . . .
32.8(31) . . .
31.4(33) . . .
40(4) . . .
30.9(29) . . .
37.2(32) . . .
42(4) . . .
37.4(32) . . .
34.8(31) . . .
39.1(33) . . .
35.7(31) . . .
42(4) . . .
33.8(31) . . .
39.4(33) . . .
39.5(33) . . .
35.5(31) . . .
44(4) . . .
42.0(34) . . .
43.9(34) . . .
37.9(33) . . .
38.2(34) . . .
36.2(33) . . .
42(4) . . .
40.7(33) . . .
42.5(34) . . .
44(4) . . .
36.6(32) . . .
34.6(33) . . .
29.8(30) . . .
36.6(32) . . .
32.7(31) . . .
34.3(31) . . .
43.6(35) . . .
36.6(32) . . .
36.8(32) . . .
43(4) . . .
29.2(27) . . .
41(4) . . .
45(4) . . .
28.6(28) . . .
26.2(28) . . .
36.0(33) . . .
34.2(30) . . .
42.9(35) . . .
44.5(35) . . .
43.1(35) . . .
39.4(33) . . .
46(4) . . .
38.2(33) . . .
40.1(33) . . .
43(4) . . .
43(4) . . .
42.4(34) . . .
36.4(31) . . .
47(4) . . .
52(4) . . .
38.8(34) . . .
36.0(32) . . .
42.5(34) . . .
40.5(33) . . .
43(4) . . .
42(4) . . .
38.4(34) . . .
45(4) . . .
39.5(33) . . .
34.2(32) . . .
31.5(31) . . .
39.4(34) . . .
40.5(33) . . .
40.1(34) . . .
40.0(33) . . .
43(4) . . .
33.4(32) . . .
40.0(33) . . .
38.3(32) . . .
40(4) . . .
28.6(28) . . .
40.2(35) . . .
34.1(31) . . .
43(4) . . .
37.6(34) . . .
41(4) . . .
39.1(34) . . .
48(4) . . .
52(4) . . .
42(4) . . .
40.4(33) . . .
50(4) . . .
43.2(33) . . .
41.1(34) . . .
44(4) . . .
40(4) . . .
41.0(34) . . .
44.3(35) . . .
41.2(34) . . .
39.2(33) . . .
38.8(33) . . .
42.3(34) . . .
33.4(30) . . .
33.4(31) . . .
45(4) . . .
45(4) . . .
41.1(34) . . .
43.2(34) . . .
47(4) . . .
51(4) . . .
32.3(29) . . .
36.9(31) . . .
40.3(33) . . .
35.7(34) . . .
33.2(34) . . .
38.5(33) . . .
49(4) . . .
36.7(32) . . .
42(4) . . .
37.3(33) . . .
35.0(31) . . .
39.6(32) . . .
42(4) . . .
49(4) . . .
49(4) . . .
43(4) . . .
40.9(33) . . .
37.2(33) . . .
34.3(32) . . .
36.1(30) . . .
40.8(33) . . .
35.8(31) . . .
47(4) . . .
45(4) . . .
38.7(33) . . .
46(4) . . .
33.6(31) . . .
39.0(34) . . .
42(4) . . .
42.1(34) . . .
35.8(31) . . .
37.3(31) . . .
40(4) . . .
46(4) . . .
38.4(33) . . .
44(4) . . .
36.1(31) . . .
38.2(32) . . .
44.4(35) . . .
44(4) . . .
29.6(28) . . .
29.9(28) . . .
37.8(33) . . .
40.2(35) . . .
41.1(35) . . .
29.6(28) . . .
37.6(32) . . .
40.0(33) . . .
50(4) . . .
42.0(34) . . .
32.2(30) . . .
47(4) . . .
37.0(32) . . .
35.7(32) . . .
36.3(32) . . .
39.0(32) . . .
43.7(35) . . .
43.3(34) . . .
41.3(34) . . .
42(4) . . .
31.3(29) . . .
38.4(33) . . .
41(4) . . .
43(4) . . .
36.8(33) . . .
35.8(32) . . .
50(4) . . .
32.1(29) . . .
31.2(30) . . .
30.6(29) . . .
38.2(32) . . .
37.2(32) . . .
41.5(35) . . .
43.0(35) . . .
52(4) . . .
40.7(33) . . .
44(4) . . .
38.8(34) . . .
40.9(34) . . .
31.3(30) . . .
37.1(31) . . .
42(4) . . .
35.8(32) . . .
39.0(34) . . .
40.4(34) . . .
40.4(34) . . .
43(4) . . .
41(4) . . .
35.7(32) . . .
34.6(32) . . .
40.6(35) . . .
34.6(31) . . .
45(4) . . .
43.7(34) . . .
46.6(35) . . .
42.2(35) . . .
40(4) . . .
42(4) . . .
40.3(34) . . .
36.4(32) . . .
38.2(32) . . .
36.7(33) . . .
36.0(33) . . .
38.8(34) . . .
31.9(29) . . .
35.9(31) . . .
38.9(34) . . .
36.5(33) . . .
42.7(35) . . .
46(4) . . .
37.7(33) . . .
38(4) . . .
30.1(32) . . .
38.6(34) . . .
38.6(33) . . .
31.1(30) . . .
42(4) . . .
40.3(34) . . .
39.9(35) . . .
48(4) . . .
44.9(35) . . .
38.5(32) . . .
42.3(35) . . .
43.4(35) . . .
42.9(35) . . .
41.8(35) . . .
41.0(34) . . .
40.3(34) . . .
47(4) . . .
30.7(29) . . .
33.8(30) . . .
40(4) . . .
33.3(31) . . .
37.0(32) . . .
44(4) . . .
45(4) . . .
43(4) . . .
28.0(28) . . .
34.3(31) . . .
47(4) . . .
42(4) . . .
36.0(32) . . .
37.2(32) . . .
32.8(30) . . .
29.7(28) . . .
35.6(32) . . .
47(4) . . .
33.2(30) . . .
37.3(33) . . .
31.9(29) . . .
43(4) . . .
46(4) . . .
36.9(33) . . .
33.6(30) . . .
44.9(34) . . .
37.3(33) . . .
41(4) . . .
32.2(31) . . .
38.6(32) . . .
37.0(31) . . .
33.0(30) . . .
28.0(29) . . .
32.2(31) . . .
39.5(33) . . .
44(4) . . .
44(4) . . .
43(4) . . .
40.2(35) . . .
42.3(34) . . .
40.2(33) . . .
35.9(32) . . .
42(4) . . .
42.1(34) . . .
41.8(34) . . .
44.6(34) . . .
34.5(31) . . .
33.6(31) . . .
35.4(32) . . .
42.1(34) . . .
49(4) . . .
42(4) . . .
40.4(33) . . .
39.5(34) . . .
39.9(32) . . .
38.5(32) . . .
39.8(35) . . .
38.9(35) . . .
39.4(33) . . .
39.3(33) . . .
30.7(29) . . .
36(4) . . .
35.2(32) . . .
30.5(29) . . .
29.9(28) . . .
36.6(33) . . .
33.7(32) . . .
42(4) . . .
38.4(32) . . .
47(4) . . .
37.8(32) . . .
44(4) . . .
41.0(34) . . .
45(4) . . .
29.8(28) . . .
43(4) . . .
38(4) . . .
40.7(34) . . .
36.0(32) . . .
37.3(32) . . .
38.8(33) . . .
46(4) . . .
45(4) . . .
40.7(33) . . .
41.2(33) . . .
46(4) . . .
40.6(33) . . .
42.2(33) . . .
42.5(34) . . .
44(4) . . .
43(4) . . .
41(4) . . .
33.4(31) . . .
43.2(34) . . .
38.8(32) . . .
38.7(33) . . .
46(4) . . .
43.3(34) . . .
43.6(34) . . .
36.5(33) . . .
33.7(31) . . .
38.4(33) . . .
37.1(32) . . .
41.5(34) . . .
42.3(34) . . .
38.8(32) . . .
43.3(34) . . .
38.3(32) . . .
34.8(31) . . .
42(4) . . .
39(4) . . .
41(4) . . .
35.9(32) . . .
37.3(32) . . .
29.3(28) . . .
38(4) . . .
35.5(31) . . .
38.0(33) . . .
31.3(30) . . .
39.9(34) . . .
36.0(34) . . .
37.3(33) . . .
37.3(32) . . .
41.8(34) . . .
31.0(29) . . .
44(4) . . .
33.0(29) . . .
38.1(32) . . .
29.0(28) . . .
39.1(34) . . .
39.5(33) . . .
44(4) . . .
39.8(33) . . .
35.6(31) . . .
32.6(32) . . .
31.6(33) . . .
34.4(31) . . .
41.0(34) . . .
44.6(35) . . .
33.5(30) . . .
45(4) . . .
36.3(34) . . .
34.7(31) . . .
42(4) . . .
36.8(33) . . .
35.3(32) . . .
36.8(33) . . .
40.9(33) . . .
43(4) . . .
42.2(35) . . .
46(4) . . .
37.8(32) . . .
36.4(32) . . .
44(4) . . .
34.3(30) . . .
40.0(33) . . .
33.7(30) . . .
36.3(31) . . .
41.3(35) . . .
41(4) . . .
41(4) . . .
45(4) . . .
38.1(32) . . .
36.1(34) . . .
41(4) . . .
37.7(32) . . .
35.1(31) . . .
36.0(31) . . .
42(4) . . .
36.3(33) . . .
44(4) . . .
42.5(35) . . .
43(4) . . .
43(4) . . .
38.0(35) . . .
38.8(33) . . .
41.9(34) . . .
39.2(33) . . .
42(4) . . .
40(4) . . .
46(4) . . .
42.5(34) . . .
44.0(34) . . .
31.6(29) . . .
34.1(32) . . .
35.8(35) . . .
46(4) . . .
42.3(35) . . .
40.4(35) . . .
40.7(35) . . .
42.5(34) . . .
37.2(32) . . .
34.3(32) . . .
33.0(32) . . .
39(4) . . .
39.0(33) . . .
42.5(35) . . .
35.3(31) . . .
38.1(33) . . .
41(4) . . .
41.8(35) . . .
36.5(32) . . .
41(4) . . .
36.8(32) . . .
34.6(32) . . .
41.9(34) . . .
40.3(33) . . .
31.8(30) . . .
35.0(34) . . .
36.9(33) . . .
44(4) . . .
38.3(32) . . .
41.0(35) . . .
38(4) . . .
41.0(34) . . .
40.8(35) . . .
32.0(30) . . .
37.0(34) . . .
31.4(30) . . .
38.1(34) . . .
35.2(32) . . .
36.0(31) . . .
38(4) . . .
33.2(32) . . .
38.0(34) . . .
37.1(33) . . .
46.1(35) . . .
44(4) . . .
40.8(34) . . .
37.7(33) . . .
46(4) . . .
42.8(34) . . .
31.3(30) . . .
36.8(35) . . .
36.4(33) . . .
47(4) . . .
43.9(34) . . .
32.5(31) . . .
29.5(29) . . .
30.5(29) . . .
35.0(31) . . .
51(4) . . .
48(4) . . .
44(4) . . .
52(4) . . .
45.3(35) . . .
38.1(32) . . .
32.8(31) . . .
41(4) . . .
40.0(35) . . .
39.6(33) . . .
43.3(35) . . .
41.0(34) . . .
38.6(33) . . .
38.7(33) . . .
34.1(30) . . .
37.5(32) . . .
48(4) . . .
37.1(33) . . .
46(4) . . .
44.8(35) . . .
38.7(34) . . .
28.7(29) . . .
36.0(32) . . .
35.0(31) . . .
42.1(33) . . .
38.2(31) . . .
35.3(33) . . .
36.6(33) . . .
32.6(30) . . .
41.2(34) . . .
45(4) . . .
44(4) . . .
39.2(33) . . .
31.5(30) . . .
35.6(31) . . .
36.6(32) . . .
41(4) . . .
37.4(32) . . .
36.0(31) . . .
38.2(34) . . .
39.4(34) . . .
41(4) . . .
40.7(34) . . .
34.9(31) . . .
50(4) . . .
33.2(30) . . .
39(4) . . .
44(4) . . .
39.8(34) . . .
36.2(32) . . .
37.4(32) . . .
33.5(29) . . .
37.2(32) . . .
42.7(35) . . .
39.9(34) . . .
35.2(33) . . .
29.4(28) . . .
42.8(35) . . .
32.7(30) . . .
39.5(34) . . .
37.9(34) . . .
45(4) . . .
30.0(29) . . .
38.0(33) . . .
40.2(35) . . .
36.6(32) . . .
46(4) . . .
36.8(31) . . .
30.4(29) . . .
36.5(33) . . .
34.3(32) . . .
37.5(35) . . .
36.1(31) . . .
41.0(33) . . .
41.5(33) . . .
42(4) . . .
37.0(31) . . .
42.3(34) . . .
41.8(34) . . .
36.5(33) . . .
41(4) . . .
35.8(32) . . .
36.8(31) . . .
41.3(34) . . .
32.8(31) . . .
36.0(32) . . .
42(4) . . .
36.1(32) . . .
34.6(31) . . .
39.0(35) . . .
38(4) . . .
33.2(32) . . .
42.0(34) . . .
38.2(32) . . .
43(4) . . .
35.2(32) . . .
30.6(30) . . .
36.5(32) . . .
36.4(32) . . .
35.8(34) . . .
45(4) . . .
38.4(32) . . .
35.5(31) . . .
38.8(35) . . .
39(4) . . .
34.1(32) . . .
41.2(34) . . .
44.3(34) . . .
35.5(31) . . .
41.2(34) . . .
39.2(35) . . .
40.5(33) . . .
40.2(33) . . .
43(4) . . .
38.5(32) . . .
40.5(34) . . .
48(4) . . .
32.0(30) . . .
41(4) . . .
35.4(31) . . .
42.7(34) . . .
47(4) . . .
45(4) . . .
35.6(33) . . .
42(4) . . .
42(4) . . .
33.7(30) . . .
37.6(32) . . .
36.9(34) . . .
27.4(31) . . .
32.5(31) . . .
32.2(31) . . .
39.6(33) . . .
39.8(33) . . .
35.5(31) . . .
30.0(28) . . .
33.4(30) . . .
34.6(31) . . .
40(4) . . .
33.3(32) . . .
36.9(33) . . .
33.7(30) . . .
41.2(34) . . .
42(4) . . .
32.7(32) . . .
32.9(30) . . .
40.5(33) . . .
33.6(31) . . .
35.4(32) . . .
38.5(34) . . .
31.2(29) . . .
33.5(31) . . .
42.2(34) . . .
38.2(33) . . .
44(4) . . .
42.2(34) . . .
35.9(32) . . .
24.9(26) . . .
39.6(34) . . .
30.5(29) . . .
44(4) . . .
37.9(32) . . .
32.2(31) . . .
31.9(32) . . .
44(4) . . .
30.2(28) . . .
32.9(30) . . .
33.2(31) . . .
36.0(32) . . .
37.2(32) . . .
32.5(31) . . .
34.7(31) . . .
39.6(34) . . .
40.7(34) . . .
43(4) . . .
40.5(33) . . .
38.7(33) . . .
26.5(28) . . .
36.8(33) . . .
36.3(32) . . .
32.8(30) . . .
39.0(32) . . .
43(4) . . .
40(4) . . .
33.0(30) . . .
31.4(29) . . .
30.9(29) . . .
40.9(33) . . .
42(4) . . .
40.7(34) . . .
33.0(30) . . .
35.7(31) . . .
34.9(33) . . .
34.2(32) . . .
43(4) . . .
41.4(33) . . .
29.9(28) . . .
41(4) . . .
35.6(34) . . .
39.0(34) . . .
38.3(32) . . .
39.7(33) . . .
39.3(33) . . .
41(4) . . .
43(4) . . .
36.6(31) . . .
47(4) . . .
39.3(33) . . .
35.6(32) . . .
36.8(32) . . .
32.8(30) . . .
42.1(35) . . .
46(4) . . .
44(4) . . .
47(4) . . .
48(4) . . .
38.2(34) . . .
38(4) . . .
33.0(30) . . .
33.5(30) . . .
34.3(30) . . .
41(4) . . .
33.6(31) . . .
40.0(35) . . .
31.5(29) . . .
43.1(34) . . .
45(4) . . .
41.3(34) . . .
47(4) . . .
39.1(33) . . .
45(4) . . .
33.0(30) . . .
39(4) . . .
33.0(31) . . .
40.3(34) . . .
42.5(33) . . .
32.7(32) . . .
35.0(35) . . .
31.4(29) . . .
33.0(31) . . .
34.5(32) . . .
31.4(31) . . .
40.7(35) . . .
43.6(35) . . .
49(4) . . .
46(4) . . .
36.0(31) . . .
41.0(34) . . .
42(4) . . .
36.3(32) . . .
37.1(32) . . .
35.8(32) . . .
48(4) . . .
35.5(31) . . .
24.2(26) . . .
32.9(31) . . .
30.1(32) . . .
27.4(29) . . .
43(4) . . .
40.8(33) . . .
32.4(30) . . .
42(4) . . .
37.9(32) . . .
41.8(34) . . .
38.5(32) . . .
39.8(34) . . .
41(4) . . .
37.1(33) . . .
36.5(34) . . .
36.7(32) . . .
44(4) . . .
39.2(33) . . .
36.9(33) . . .
40.3(33) . . .
33.0(30) . . .
40.8(35) . . .
41(4) . . .
38.6(33) . . .
40.2(34) . . .
34.8(31) . . .
44(4) . . .
36.0(34) . . .
31.3(29) . . .
42.4(34) . . .
38.3(33) . . .
44(4) . . .
39.0(35) . . .
39.9(34) . . .
39.2(33) . . .
37.8(32) . . .
44(4) . . .
34.9(33) . . .
35.0(34) . . .
45.0(35) . . .
30.7(30) . . .
44.4(35) . . .
40.2(34) . . .
45(4) . . .
44.6(35) . . .
39(4) . . .
35.5(33) . . .
34.6(31) . . .
41.2(34) . . .
41.6(34) . . .
48(4) . . .
40(4) . . .
32.9(31) . . .
35.3(34) . . .
30.2(28) . . .
36.5(33) . . .
32.8(32) . . .
31.5(33) . . .
32.4(30) . . .
36.7(32) . . .
42(4) . . .
35.8(32) . . .
37.2(33) . . .
35.7(31) . . .
33.5(30) . . .
41(4) . . .
31.8(29) . . .
36.7(33) . . .
37.3(33) . . .
38.8(32) . . .
37.0(33) . . .
29.2(29) . . .
38.9(34) . . .
35.6(32) . . .
27.7(27) . . .
40.7(34) . . .
40(4) . . .
42(4) . . .
39.2(33) . . .
34.7(31) . . .
37.0(32) . . .
39.1(35) . . .
36.9(33) . . .
36.8(32) . . .
34.0(30) . . .
38.9(34) . . .
36.3(33) . . .
29.5(28) . . .
34.0(31) . . .
28.1(29) . . .
28.1(30) . . .
28.7(30) . . .
31.0(29) . . .
37.2(31) . . .
35.8(34) . . .
37(4) . . .
38.2(35) . . .
39.6(34) . . .
37.4(32) . . .
35.3(32) . . .
44(4) . . .
44(4) . . .
34.5(32) . . .
37.1(32) . . .
36.7(32) . . .
43(4) . . .
35.5(31) . . .
33.9(30) . . .
39.1(33) . . .
39.7(32) . . .
49(4) . . .
40.3(35) . . .
34.5(30) . . .
42.0(34) . . .
42.3(35) . . .
32.9(31) . . .
37.1(33) . . .
36.6(33) . . .
37.3(32) . . .
35.1(33) . . .
39(4) . . .
39.0(34) . . .
35.0(31) . . .
36.8(32) . . .
42(4) . . .
31.5(31) . . .
37.8(33) . . .
30.3(28) . . .
38.3(34) . . .
39.7(32) . . .
41.1(35) . . .
29.1(29) . . .
32.7(30) . . .
34.5(31) . . .
33.9(31) . . .
34.2(33) . . .
37.3(34) . . .
32.2(29) . . .
30.4(29) . . .
40.0(34) . . .
41(4) . . .
42(4) . . .
39.8(33) . . .
39.0(32) . . .
34.5(31) . . .
44(4) . . .
37.6(32) . . .
33.5(30) . . .
40.3(33) . . .
40.1(34) . . .
30.9(31) . . .
34.3(31) . . .
44.2(35) . . .
47(4) . . .
42(4) . . .
35.3(33) . . .
38.5(35) . . .
43.7(34) . . .
34.9(32) . . .
39(4) . . .
35.5(32) . . .
39.8(33) . . .
31.0(29) . . .
35.7(34) . . .
36.0(32) . . .
44(4) . . .
32.7(31) . . .
36.1(31) . . .
31.6(31) . . .
31.5(30) . . .
37.0(33) . . .
35.0(32) . . .
32.7(30) . . .
37.4(33) . . .
35.2(33) . . .
34.0(34) . . .
39.8(33) . . .
35.4(31) . . .
35.0(32) . . .
43(4) . . .
43.2(35) . . .
46(4) . . .
37.4(33) . . .
30.4(31) . . .
34.1(33) . . .
34.2(32) . . .
29.1(28) . . .
35.6(31) . . .
32.2(33) . . .
33.8(33) . . .
25.6(26) . . .
33.7(30) . . .
44(4) . . .
45(4) . . .
42(4) . . .
35.3(34) . . .
36.8(31) . . .
41.2(34) . . .
43(4) . . .
35.5(34) . . .
32.1(30) . . .
41.2(34) . . .
41(4) . . .
33.9(34) . . .
34.2(32) . . .
41.4(34) . . .
40.8(33) . . .
28.6(28) . . .
38(4) . . .
42(4) . . .
45(4) . . .
37.7(32) . . .
39.1(33) . . .
38(4) . . .
32.8(30) . . .
41.8(34) . . .
40.7(33) . . .
34.8(31) . . .
31.2(29) . . .
32.5(30) . . .
34.8(31) . . .
30.4(28) . . .
31.2(30) . . .
38(4) . . .
38.9(34) . . .
29.2(28) . . .
32.9(30) . . .
37.9(33) . . .
36.7(34) . . .
40.0(34) . . .
38.7(33) . . .
33.7(32) . . .
44(4) . . .
31.2(31) . . .
34.3(31) . . .
36.3(32) . . .
37.3(33) . . .
29.0(29) . . .
26.0(28) . . .
37(4) . . .
32.0(30) . . .
27.5(28) . . .
41.5(35) . . .
47(4) . . .
32.9(32) . . .
38.4(33) . . .
51(4) . . .
43(4) . . .
41(4) . . .
26.7(28) . . .
32.0(29) . . .
29.4(28) . . .
42(4) . . .
42(4) . . .
30.1(28) . . .
38.1(33) . . .
36.3(32) . . .
41(4) . . .
33.0(31) . . .
40.7(35) . . .
37.6(32) . . .
36.5(34) . . .
43(4) . . .
33.4(31) . . .
31.9(30) . . .
29.9(28) . . .
42(4) . . .
40.4(34) . . .
35.3(31) . . .
37.0(32) . . .
32.5(30) . . .
39.1(34) . . .
37.4(34) . . .
30.7(29) . . .
36.5(32) . . .
39.9(33) . . .
42.5(34) . . .
43.5(35) . . .
44(4) . . .
41.4(33) . . .
36.2(31) . . .
33.1(30) . . .
34.5(31) . . .
35.8(31) . . .
37.9(33) . . .
37.6(32) . . .
48(4) . . .
35.9(32) . . .
35.1(31) . . .
30.6(29) . . .
34.3(30) . . .
33.8(31) . . .
36.9(34) . . .
41(4) . . .
36.8(31) . . .
44(4) . . .
43.8(35) . . .
38.6(34) . . .
34.7(32) . . .
38.2(32) . . .
36.6(32) . . .
35.3(32) . . .
30.9(30) . . .
36.1(33) . . .
37.7(32) . . .
30.6(29) . . .
34.1(32) . . .
31.4(31) . . .
34.0(32) . . .
34.2(31) . . .
28.8(31) . . .
37(4) . . .
33.3(31) . . .
37.7(34) . . .
32.0(30) . . .
30.9(31) . . .
33.8(33) . . .
41(4) . . .
33.0(32) . . .
40.7(33) . . .
40.8(35) . . .
34.5(32) . . .
38.5(33) . . .
37.9(32) . . .
32.8(30) . . .
33.7(31) . . .
34.9(34) . . .
31.7(29) . . .
36.9(31) . . .
40.2(33) . . .
37.8(32) . . .
40(4) . . .
31.5(30) . . .
34.4(31) . . .
37.8(32) . . .
36.9(32) . . .
34.1(34) . . .
31.7(30) . . .
35.1(31) . . .
29.4(29) . . .
33.6(30) . . .
38.5(35) . . .
32.2(31) . . .
37.1(32) . . .
31.8(30) . . .
31.5(30) . . .
34.2(33) . . .
32.9(30) . . .
38.1(32) . . .
32.9(31) . . .
28.4(28) . . .
42(4) . . .
38.3(33) . . .
33.9(31) . . .
43.7(35) . . .
45.4(35) . . .
38.3(33) . . .
31.0(30) . . .
43.6(35) . . .
32.9(31) . . .
30.9(30) . . .
26.9(27) . . .
35.0(32) . . .
33.5(31) . . .
44(4) . . .
37.9(34) . . .
35.3(32) . . .
35.8(31) . . .
36.4(32) . . .
31.9(30) . . .
37.3(34) . . .
43(4) . . .
37.4(32) . . .
44.8(35) . . .
34.8(31) . . .
35.1(32) . . .
33.4(32) . . .
41.0(34) . . .
48(4) . . .
32.7(33) . . .
43(4) . . .
37.5(32) . . .
38.8(32) . . .
34.5(30) . . .
48(4) . . .
41.5(35) . . .
43.0(35) . . .
43.4(35) . . .
39.6(35) . . .
41(4) . . .
33.6(31) . . .
37.9(34) . . .
30.8(29) . . .
34.9(31) . . .
49(4) . . .
38.8(34) . . .
46(4) . . .
35.2(31) . . .
32.3(30) . . .
39.9(33) . . .
42(4) . . .
39.6(35) . . .
46.5(35) . . .
36.5(32) . . .
43(4) . . .
34.4(34) . . .
26.8(28) . . .
41.4(33) . . .
35.8(33) . . .
39.1(33) . . .
44(4) . . .
34.8(31) . . .
40.1(33) . . .
33.8(32) . . .
38.0(33) . . .
45(4) . . .
30.3(28) . . .
36.1(31) . . .
39.5(34) . . .
48(4) . . .
36.7(32) . . .
32.5(29) . . .
36.3(31) . . .
34.3(32) . . .
44(4) . . .
45(4) . . .
31.2(29) . . .
35.8(31) . . .
30.2(29) . . .
36.8(33) . . .
37.8(32) . . .
38.3(32) . . .
33.2(30) . . .
38.6(33) . . .
25.9(29) . . .
27.5(28) . . .
37.1(31) . . .
32.8(31) . . .
42.6(35) . . .
39.0(35) . . .
31.1(32) . . .
33.5(31) . . .
33.4(30) . . .
30.2(29) . . .
39.3(34) . . .
32.0(29) . . .
42.0(34) . . .
36.0(32) . . .
39.6(35) . . .
28.8(28) . . .
27.8(29) . . .
35.1(31) . . .
33.6(31) . . .
43(4) . . .
38.5(34) . . .
39.2(34) . . .
33.9(30) . . .
30.6(29) . . .
36.2(33) . . .
30.4(31) . . .
35.9(32) . . .
41.3(33) . . .
33.4(31) . . .
33.2(32) . . .
34.0(33) . . .
32.6(31) . . .
37.1(32) . . .
39.5(34) . . .
36.4(33) . . .
44(4) . . .
41.0(35) . . .
29.4(28) . . .
35.5(33) . . .
40(4) . . .
32.8(31) . . .
42.1(33) . . .
47(4) . . .
40.3(34) . . .
41(4) . . .
46(4) . . .
30.2(29) . . .
41.0(33) . . .
38.4(33) . . .
35.3(33) . . .
32.9(29) . . .
40.9(34) . . .
32.5(29) . . .
39.3(35) . . .
38(4) . . .
36.8(33) . . .
31.0(29) . . .
33.2(31) . . .
33.7(32) . . .
30.2(31) . . .
29.9(30) . . .
42.1(34) . . .
36.0(31) . . .
38.1(33) . . .
37.5(33) . . .
37.6(33) . . .
40.7(34) . . .
36.4(32) . . .
38(4) . . .
34.7(33) . . .
39.8(35) . . .
36.8(31) . . .
30.2(28) . . .
44(4) . . .
43(4) . . .
39.8(33) . . .
49(4) . . .
31.0(28) . . .
33.0(32) . . .
39(4) . . .
37.0(31) . . .
34.8(31) . . .
40.5(35) . . .
47(4) . . .
37.0(31) . . .
36.3(32) . . .
37.2(32) . . .
42(4) . . .
32.1(33) . . .
39.5(34) . . .
32.2(30) . . .
26.8(28) . . .
27.7(28) . . .
37(4) . . .
28.2(28) . . .
32.9(30) . . .
36.8(33) . . .
33.7(31) . . .
36.8(35) . . .
31.5(30) . . .
41.7(33) . . .
36.7(32) . . .
33.4(30) . . .
46(4) . . .
38.9(34) . . .
30.7(29) . . .
33.3(30) . . .
33.0(32) . . .
35.0(34) . . .
36.1(33) . . .
35.0(31) . . .
32.9(30) . . .
29.3(29) . . .
30.5(31) . . .
41.1(35) . . .
35.1(31) . . .
39.7(34) . . .
39.6(34) . . .
34.4(33) . . .
28.4(28) . . .
27.3(28) . . .
31.9(31) . . .
34.9(31) . . .
35.4(31) . . .
39.9(33) . . .
42.8(34) . . .
37.5(32) . . .
42(4) . . .
33.2(30) . . .
38.5(32) . . .
38.8(33) . . .
32.8(32) . . .
36.1(35) . . .
43(4) . . .
48(4) . . .
36.9(32) . . .
35.4(33) . . .
42(4) . . .
36.3(33) . . .
24.6(25) . . .
36.0(32) . . .
34.1(31) . . .
37.6(33) . . .
38.4(34) . . .
37.8(33) . . .
48(4) . . .
30.1(29) . . .
30.1(31) . . .
36.6(33) . . .
41.6(33) . . .
41.2(34) . . .
43.1(35) . . .
34.2(32) . . .
32.9(30) . . .
37.7(32) . . .
35.8(31) . . .
26.5(28) . . .
31.7(31) . . .
31.5(29) . . .
34.0(31) . . .
33.4(30) . . .
30.6(29) . . .
35.5(32) . . .
39.7(33) . . .
37.2(32) . . .
33.1(30) . . .
33.2(31) . . .
36.8(33) . . .
33.7(31) . . .
38.8(32) . . .
44(4) . . .
30.6(32) . . .
26.2(28) . . .
32.5(30) . . .
42.3(34) . . .
29.7(29) . . .
30.1(31) . . .
32.6(30) . . .
36.7(33) . . .
40.9(33) . . .
31.3(30) . . .
35.4(31) . . .
34.9(31) . . .
31.4(29) . . .
37.2(32) . . .
34.5(32) . . .
41(4) . . .
40.2(35) . . .
35.1(32) . . .
37.0(32) . . .
33.6(31) . . .
35.8(33) . . .
42(4) . . .
28.6(28) . . .
31.8(29) . . .
39.5(35) . . .
29.0(31) . . .
32.3(31) . . .
35.5(32) . . .
47(4) . . .
28.1(29) . . .
38(4) . . .
40.9(34) . . .
33.7(30) . . .
45(4) . . .
38.5(33) . . .
34.6(31) . . .
34.9(32) . . .
46(4) . . .
37.0(32) . . .
32.2(29) . . .
37.3(32) . . .
31.3(30) . . .
33.0(30) . . .
35.0(32) . . .
40.2(34) . . .
32.4(30) . . .
37.3(33) . . .
38.6(33) . . .
27.8(28) . . .
39.1(34) . . .
36.1(33) . . .
32.8(31) . . .
28.6(28) . . .
33.2(31) . . .
41.7(35) . . .
35.0(34) . . .
31.8(30) . . .
38.2(32) . . .
39.3(34) . . .
40.3(34) . . .
37.7(32) . . .
31.7(29) . . .
33.1(30) . . .
40.8(35) . . .
36.5(33) . . .
43(4) . . .
34.8(31) . . .
28.0(29) . . .
27.5(28) . . .
32.5(33) . . .
44(4) . . .
49(4) . . .
46(4) . . .
29.0(29) . . .
33.4(33) . . .
37.7(33) . . .
32.7(30) . . .
34.6(31) . . .
34.7(32) . . .
31.3(32) . . .
35.1(32) . . .
31.4(30) . . .
37.1(31) . . .
41.2(34) . . .
39.0(34) . . .
38.5(34) . . .
27.5(28) . . .
34.7(31) . . .
40.0(35) . . .
40(4) . . .
34.4(31) . . .
30.1(28) . . .
37.4(33) . . .
36.8(33) . . .
40(4) . . .
32.2(30) . . .
34.8(31) . . .
38.7(33) . . .
35.7(33) . . .
36.4(35) . . .
35.3(31) . . .
37.1(32) . . .
39.3(33) . . .
42(4) . . .
36.5(31) . . .
46(4) . . .
39.6(33) . . .
36.5(34) . . .
39.0(34) . . .
32.5(30) . . .
38.8(32) . . .
32.9(30) . . .
32.0(31) . . .
38(4) . . .
31.2(31) . . .
36.5(31) . . .
36.4(31) . . .
37.6(33) . . .
39(4) . . .
34.1(31) . . .
38.1(32) . . .
36.0(33) . . .
31.9(33) . . .
30.1(29) . . .
35.4(32) . . .
33.1(30) . . .
30.2(31) . . .
45(4) . . .
45(4) . . .
33.0(31) . . .
27.0(27) . . .
25.4(26) . . .
28.6(27) . . .
32.3(32) . . .
37.3(34) . . .
33.4(30) . . .
34.3(31) . . .
33.4(32) . . .
35.7(34) . . .
34.4(31) . . .
39.2(33) . . .
32.0(30) . . .
37.5(34) . . .
39.5(35) . . .
33.5(31) . . .
33.0(30) . . .
32.6(30) . . .
34.0(31) . . .
38.4(35) . . .
33.4(31) . . .
29.8(28) . . .
44(4) . . .
42(4) . . .
40.8(35) . . .
34.3(32) . . .
34.3(31) . . .
36.1(32) . . .
33.6(31) . . .
36.5(33) . . .
35.5(31) . . .
41.5(34) . . .
35.6(32) . . .
42(4) . . .
39.8(35) . . .
40(4) . . .
39.7(33) . . .
34.5(31) . . .
40.7(35) . . .
42.7(35) . . .
32.2(32) . . .
41.4(34) . . .
32.2(30) . . .
36.0(34) . . .
34.1(33) . . .
28.1(29) . . .
21.9(24) . . .
38.5(33) . . .
40.3(35) . . .
39.3(33) . . .
33.6(31) . . .
36.4(31) . . .
44(4) . . .
31.5(31) . . .
31.1(31) . . .
33.2(30) . . .
34.8(32) . . .
36.6(32) . . .
37.0(34) . . .
28.8(28) . . .
31.3(30) . . .
37.8(32) . . .
38.9(33) . . .
40.5(34) . . .
31.9(29) . . .
29.4(28) . . .
34.6(33) . . .
27.3(29) . . .
33.5(35) . . .
32.8(30) . . .
29.9(29) . . .
28.3(28) . . .
42.8(35) . . .
44.0(35) . . .
39.2(33) . . .
39.2(32) . . .
41(4) . . .
30.4(30) . . .
37.3(34) . . .
35.6(31) . . .
31.3(29) . . .
30.0(30) . . .
32.2(32) . . .
38.4(34) . . .
33.1(30) . . .
30.6(29) . . .
36.2(33) . . .
35.8(33) . . .
33.3(30) . . .
37.3(32) . . .
42.0(33) . . .
38.2(33) . . .
34.6(33) . . .
37.5(33) . . .
29.0(28) . . .
33.9(32) . . .
25.9(26) . . .
34.4(31) . . .
41.9(35) . . .
36.5(32) . . .
30.3(28) . . .
32.7(31) . . .
32.5(33) . . .
31.7(31) . . .
35.2(30) . . .
42(4) . . .
34.6(30) . . .
34.2(32) . . .
32.5(30) . . .
30.2(29) . . .
29.2(28) . . .
30.2(31) . . .
33.2(35) . . .
35.1(33) . . .
33.9(30) . . .
30.0(28) . . .
40.2(33) . . .
39.3(32) . . .
35.5(31) . . .
36.5(31) . . .
42.3(34) . . .
39.5(34) . . .
32.2(30) . . .
27.4(28) . . .
33.7(30) . . .
32.1(31) . . .
34.9(32) . . .
35.6(32) . . .
35.5(31) . . .
29.6(29) . . .
25.6(27) . . .
33.1(33) . . .
32.4(33) . . .
33.3(32) . . .
32.5(30) . . .
30.3(32) . . .
39(4) . . .
25.5(26) . . .
32.4(29) . . .
40.7(33) . . .
43(4) . . .
30.5(29) . . .
35.7(32) . . .
33.0(31) . . .
36.9(31) . . .
45(4) . . .
33.6(30) . . .
33.7(32) . . .
29.5(28) . . .
34.0(30) . . .
30.1(29) . . .
33.2(34) . . .
36.0(33) . . .
40.0(33) . . .
42.1(34) . . .
31.4(29) . . .
32.5(32) . . .
27.2(29) . . .
28.3(28) . . .
36.0(33) . . .
38(4) . . .
35.2(33) . . .
26.0(27) . . .
30.8(29) . . .
34.4(33) . . .
36.2(32) . . .
43.3(33) . . .
42.2(35) . . .
41.2(33) . . .
23.3(26) . . .
37(4) . . .
33.6(31) . . .
31.0(29) . . .
36.3(32) . . .
42.4(34) . . .
42(4) . . .
38.1(35) . . .
34.9(32) . . .
35.5(31) . . .
39.6(35) . . .
35.3(31) . . .
30.1(31) . . .
23.5(26) . . .
32.2(29) . . .
37.2(33) . . .
28.7(28) . . .
31.8(30) . . .
39.8(33) . . .
38.8(33) . . .
35.1(33) . . .
34.5(33) . . .
39.2(35) . . .
35.4(31) . . .
40.2(33) . . .
32.4(31) . . .
36.3(33) . . .
34.7(32) . . .
34.3(31) . . .
40.3(33) . . .
32.7(31) . . .
33.1(32) . . .
39.4(34) . . .
35.8(31) . . .
41.3(33) . . .
44(4) . . .
29.1(29) . . .
32.1(30) . . .
32.4(30) . . .
44.4(35) . . .
33.1(31) . . .
41(4) . . .
28.1(28) . . .
36.2(31) . . .
43.8(35) . . .
32.6(30) . . .
37.3(31) . . .
39.5(33) . . .
35.7(32) . . .
41.3(34) . . .
33.5(32) . . .
38(4) . . .
24.3(26) . . .
29.4(29) . . .
28.9(29) . . .
33.3(31) . . .
31.2(30) . . .
37.0(32) . . .
38.2(33) . . .
37.2(32) . . .
31.3(29) . . .
37.6(32) . . .
33.8(31) . . .
26.3(27) . . .
30.5(33) . . .
41(4) . . .
37.5(33) . . .
30.3(29) . . .
36.8(31) . . .
30.4(29) . . .
31.7(32) . . .
35.5(33) . . .
31.8(30) . . .
35.1(31) . . .
41.8(34) . . .
33.3(30) . . .
28.4(27) . . .
35.7(31) . . .
33.1(30) . . .
35.0(33) . . .
39.4(35) . . .
37.5(32) . . .
36.3(31) . . .
42.1(34) . . .
30.3(30) . . .
35.5(33) . . .
41.3(35) . . .
32.6(30) . . .
33.0(30) . . .
37.0(33) . . .
34.7(33) . . .
34.8(33) . . .
28.0(27) . . .
34.0(31) . . .
38.9(35) . . .
32.4(29) . . .
36.9(32) . . .
32.5(30) . . .
31.2(29) . . .
32.7(33) . . .
31.5(33) . . .
30.7(30) . . .
42.5(34) . . .
46(4) . . .
30.6(30) . . .
34.0(30) . . .
32.5(30) . . .
33.3(30) . . .
35.0(31) . . .
33.8(30) . . .
30.2(29) . . .
38.6(33) . . .
33.6(30) . . .
29.1(28) . . .
36.5(33) . . .
29.9(29) . . .
37.3(33) . . .
30.5(29) . . .
36.0(33) . . .
38.4(34) . . .
32.5(30) . . .
35.4(32) . . .
28.9(28) . . .
33.9(32) . . .
34.6(32) . . .
36.0(31) . . .
35.8(31) . . .
35.1(31) . . .
31.6(30) . . .
36.3(33) . . .
35.8(33) . . .
38.3(32) . . .
34.3(31) . . .
30.8(30) . . .
37.2(35) . . .
32.5(30) . . .
38.3(33) . . .
36.6(31) . . .
33.2(31) . . .
33.4(32) . . .
31.1(29) . . .
37.2(32) . . .
35.9(31) . . .
39.5(35) . . .
33.0(31) . . .
38.3(34) . . .
36.3(31) . . .
32.1(29) . . .
32.7(30) . . .
39(4) . . .
45(4) . . .
38.2(33) . . .
38.2(33) . . .
37.6(35) . . .
36.5(35) . . .
37.9(33) . . .
35.0(31) . . .
44(4) . . .
34.3(32) . . .
24.3(26) . . .
34.1(33) . . .
35.5(31) . . .
39.7(33) . . .
38.3(34) . . .
28.3(28) . . .
35.6(32) . . .
38.5(33) . . .
40(4) . . .
33.3(33) . . .
40.7(34) . . .
34.6(31) . . .
31.6(29) . . .
43(4) . . .
39(4) . . .
37.8(34) . . .
46(4) . . .
50(4) . . .
35.5(33) . . .
23.3(26) . . .
26.7(29) . . .
34.8(31) . . .
37.1(32) . . .
37.0(33) . . .
30.7(32) . . .
35.3(31) . . .
37.1(31) . . .
36.2(31) . . .
33.4(32) . . .
31.8(33) . . .
33.1(32) . . .
34.6(31) . . .
37.5(33) . . .
35.4(33) . . .
29.1(30) . . .
36.7(34) . . .
41.0(33) . . .
26.2(28) . . .
41(4) . . .
39.0(33) . . .
39.5(33) . . .
36.0(31) . . .
43(4) . . .
32.7(31) . . .
33.1(34) . . .
30.5(30) . . .
32.3(30) . . .
36.1(33) . . .
29.0(28) . . .
35.6(32) . . .
33.6(31) . . .
37.4(31) . . .
35.0(34) . . .
33.0(32) . . .
32.4(30) . . .
40.5(33) . . .
31.3(29) . . .
29.7(32) . . .
32.8(32) . . .
35.9(34) . . .
35.9(32) . . .
27.6(27) . . .
29.8(30) . . .
35.0(34) . . .
37.8(33) . . .
34.0(31) . . .
37.2(32) . . .
32.0(29) . . .
39(4) . . .
32.7(31) . . .
39.3(34) . . .
28.2(28) . . .
31.4(31) . . .
39(4) . . .
40.7(33) . . .
42.9(34) . . .
49(4) . . .
37.6(32) . . .
35.2(35) . . .
31.0(31) . . .
27.8(27) . . .
36.5(33) . . .
31.5(30) . . .
34.1(32) . . .
40.6(34) . . .
39.0(33) . . .
40.7(34) . . .
35.4(33) . . .
29.7(28) . . .
33.4(30) . . .
34.9(32) . . .
29.2(28) . . .
27.6(27) . . .
35.0(33) . . .
34.2(31) . . .
26.8(27) . . .
30.9(29) . . .
36.4(33) . . .
27.6(29) . . .
32.1(31) . . .
36.4(31) . . .
40.7(35) . . .
31.8(29) . . .
39.8(35) . . .
31.2(31) . . .
31.9(29) . . .
35.5(32) . . .
36.8(33) . . .
40.1(34) . . .
38.3(32) . . .
35.2(31) . . .
32.3(29) . . .
32.0(30) . . .
36.8(34) . . .
24.6(25) . . .
35.8(31) . . .
24.4(25) . . .
36.3(33) . . .
36.4(31) . . .
32.8(30) . . .
32.7(30) . . .
29.0(28) . . .
43(4) . . .
28.8(28) . . .
33.5(31) . . .
34.3(31) . . .
36.1(32) . . .
32.0(31) . . .
28.5(27) . . .
34.0(30) . . .
24.0(26) . . .
37.3(34) . . .
41(4) . . .
40.8(34) . . .
31.2(29) . . .
34.1(31) . . .
30.5(28) . . .
43(4) . . .
36.7(31) . . .
37.8(32) . . .
35.2(31) . . .
30.7(31) . . .
27.5(29) . . .
40(4) . . .
35.6(31) . . .
34.3(31) . . .
27.2(27) . . .
33.7(32) . . .
37.2(34) . . .
36.5(31) . . .
33.6(31) . . .
36.5(33) . . .
38.0(35) . . .
34.9(31) . . .
29.2(28) . . .
38.3(32) . . .
36.6(33) . . .
30.5(30) . . .
39(4) . . .
34.4(31) . . .
39.5(35) . . .
43(4) . . .
40.9(34) . . .
38.5(32) . . .
32.9(30) . . .
43.5(35) . . .
47(4) . . .
36.0(33) . . .
37.8(33) . . .
33.9(30) . . .
30.0(31) . . .
36(4) . . .
33.8(32) . . .
24.9(26) . . .
27.6(28) . . .
31.9(33) . . .
34.9(35) . . .
34.6(32) . . .
33.7(31) . . .
32.9(30) . . .
32.9(30) . . .
34.0(32) . . .
29.8(28) . . .
38.4(33) . . .
32.7(30) . . .
25.8(28) . . .
25.0(28) . . .
37(4) . . .
34.3(30) . . .
35.5(32) . . .
30.2(30) . . .
39.9(34) . . .
37.5(32) . . .
32.9(30) . . .
32.4(30) . . .
34.0(32) . . .
27.7(28) . . .
36.4(33) . . .
25.3(27) . . .
35.7(34) . . .
24.6(27) . . .
26.6(29) . . .
31.8(30) . . .
35.9(32) . . .
37.1(33) . . .
33.9(32) . . .
32.2(31) . . .
31.2(29) . . .
22.5(25) . . .
30.5(30) . . .
27.9(29) . . .
33.5(31) . . .
34.2(31) . . .
32.9(29) . . .
32.9(30) . . .
32.3(31) . . .
36.2(32) . . .
30.5(29) . . .
24.3(26) . . .
39(4) . . .
44(4) . . .
33.9(31) . . .
39.3(32) . . .
34.7(30) . . .
32.4(33) . . .
34.2(34) . . .
32.7(29) . . .
34.8(31) . . .
37.2(32) . . .
34.8(32) . . .
27.9(30) . . .
35.0(31) . . .
35.4(32) . . .
31.5(30) . . .
35.4(34) . . .
29.2(31) . . .
30.7(32) . . .
31.2(29) . . .
32.0(29) . . .
37.3(33) . . .
35.2(32) . . .
41.4(35) . . .
33.6(30) . . .
22.7(26) . . .
27.2(29) . . .
29.2(30) . . .
30.8(29) . . .
25.7(26) . . .
35.6(32) . . .
34.8(32) . . .
35.8(33) . . .
32.7(30) . . .
34.6(30) . . .
35.1(31) . . .
38.9(33) . . .
31.2(29) . . .
27.1(28) . . .
38.8(33) . . .
33.5(32) . . .
25.8(28) . . .
33.3(32) . . .
35.8(31) . . .
29.2(28) . . .
35.5(32) . . .
36.0(34) . . .
40.1(34) . . .
30.9(29) . . .
35.0(32) . . .
32.4(32) . . .
38.3(35) . . .
32.9(32) . . .
37.5(33) . . .
37.1(33) . . .
36.2(33) . . .
30.1(30) . . .
33.9(34) . . .
31.1(29) . . .
26.4(27) . . .
27.9(28) . . .
41(4) . . .
39.9(35) . . .
32.9(30) . . .
29.5(30) . . .
38.0(34) . . .
37.8(34) . . .
39.9(33) . . .
42.2(33) . . .
31.0(29) . . .
27.0(29) . . .
23.2(26) . . .
31.9(29) . . .
35.8(31) . . .
35.3(31) . . .
34.4(33) . . .
33.0(31) . . .
38.8(34) . . .
34.6(31) . . .
27.7(28) . . .
26.8(28) . . .
31.9(30) . . .
28.9(28) . . .
38.2(32) . . .
34.9(33) . . .
31.2(32) . . .
32.6(31) . . .
33.2(32) . . .
27.9(27) . . .
31.4(31) . . .
35.6(32) . . .
47(4) . . .
38.6(33) . . .
32.4(29) . . .
37(4) . . .
35.5(33) . . .
34.6(31) . . .
36.7(31) . . .
25.5(26) . . .
32.3(30) . . .
32.1(31) . . .
36.0(33) . . .
34.3(31) . . .
37.3(32) . . .
32.8(30) . . .
31.5(33) . . .
26.5(27) . . .
39.0(33) . . .
32.2(30) . . .
38.4(33) . . .
44(4) . . .
30.4(30) . . .
38.5(32) . . .
31.9(29) . . .
30.2(29) . . .
33.8(33) . . .
33.7(30) . . .
38.7(33) . . .
32.8(30) . . .
31.9(31) . . .
43(4) . . .
33.5(30) . . .
33.2(30) . . .
30.1(29) . . .
35.7(33) . . .
34.7(33) . . .
44(4) . . .
33.5(31) . . .
28.8(28) . . .
33.0(32) . . .
33.5(31) . . .
27.7(27) . . .
28.5(28) . . .
29.8(29) . . .
39.6(34) . . .
37.0(31) . . .
40.1(33) . . .
25.4(26) . . .
32.0(31) . . .
32.0(31) . . .
38.2(34) . . .
32.9(30) . . .
34.7(30) . . .
28.4(28) . . .
30.7(31) . . .
34.5(32) . . .
31.8(30) . . .
36.7(32) . . .
41(4) . . .
45(4) . . .
40.3(33) . . .
37.0(32) . . .
42.0(35) . . .
38.5(32) . . .
39(4) . . .
32.7(30) . . .
37.9(32) . . .
30.4(28) . . .
37.1(32) . . .
37.6(34) . . .
32.0(30) . . .
31.7(30) . . .
37.7(32) . . .
26.7(27) . . .
27.5(28) . . .
34.0(31) . . .
38.6(33) . . .
34.1(30) . . .
39.9(34) . . .
34.9(32) . . .
30.6(29) . . .
33.0(30) . . .
38.0(33) . . .
30.1(30) . . .
33.1(32) . . .
32.7(30) . . .
37.4(32) . . .
42(4) . . .
33.7(30) . . .
34.8(32) . . .
30.2(29) . . .
21.7(25) . . .
34.8(32) . . .
36.3(33) . . .
29.5(30) . . .
30.6(30) . . .
37.8(32) . . .
32.8(31) . . .
46(4) . . .
37.0(32) . . .
40(4) . . .
40.6(33) . . .
30.5(30) . . .
29.7(29) . . .
35.2(31) . . .
30.1(29) . . .
27.5(28) . . .
25.0(27) . . .
31.9(32) . . .
30.8(29) . . .
40.1(35) . . .
34.8(31) . . .
32.2(31) . . .
30.6(30) . . .
26.7(28) . . .
31.7(29) . . .
31.8(29) . . .
39.3(34) . . .
36.8(33) . . .
39.8(33) . . .
31.0(29) . . .
34.3(30) . . .
35.3(32) . . .
35.0(35) . . .
34.2(32) . . .
33.5(30) . . .
31.8(29) . . .
38.3(34) . . .
37.2(35) . . .
36.7(33) . . .
38.8(33) . . .
41.8(34) . . .
32.7(31) . . .
43(4) . . .
39.3(35) . . .
34.4(31) . . .
34.3(30) . . .
38.0(33) . . .
33.7(31) . . .
30.1(30) . . .
28.6(27) . . .
36.9(33) . . .
36.2(32) . . .
34.8(31) . . .
36.8(32) . . .
32.1(30) . . .
29.8(29) . . .
40(4) . . .
38.5(33) . . .
31.4(29) . . .
35.6(31) . . .
31.1(30) . . .
31.9(31) . . .
32.4(34) . . .
33.0(30) . . .
27.4(28) . . .
30.9(29) . . .
28.2(29) . . .
30.8(30) . . .
34.1(30) . . .
31.4(30) . . .
40.5(34) . . .
35.2(32) . . .
29.4(28) . . .
34.0(31) . . .
32.2(29) . . .
27.4(30) . . .
28.0(32) . . .
31.9(30) . . .
25.9(26) . . .
32.6(30) . . .
34.4(31) . . .
31.5(32) . . .
33.3(32) . . .
38.8(32) . . .
25.3(26) . . .
26.9(27) . . .
29.5(29) . . .
29.2(28) . . .
35.3(31) . . .
27.7(28) . . .
29.6(30) . . .
33.8(31) . . .
33.5(31) . . .
37.9(32) . . .
37.0(33) . . .
37.9(34) . . .
37.4(33) . . .
32.2(30) . . .
34.0(31) . . .
31.8(30) . . .
32.9(33) . . .
38(4) . . .
32.2(31) . . .
31.9(30) . . .
30.1(29) . . .
35.4(33) . . .
31.2(30) . . .
36.6(33) . . .
34.1(31) . . .
34.0(32) . . .
33.6(33) . . .
36.5(32) . . .
37.5(32) . . .
37.8(32) . . .
36.0(32) . . .
43(4) . . .
34.7(31) . . .
36.8(31) . . .
36.7(32) . . .
36.9(33) . . .
31.0(31) . . .
31.2(30) . . .
36.4(32) . . .
31.1(29) . . .
32.1(30) . . .
38.7(34) . . .
33.9(32) . . .
35.5(32) . . .
29.6(28) . . .
25.7(27) . . .
39(4) . . .
33.9(31) . . .
35.7(31) . . .
33.2(32) . . .
30.7(30) . . .
33.4(31) . . .
34.9(32) . . .
36.1(31) . . .
32.7(31) . . .
33.3(30) . . .
38.1(34) . . .
36(4) . . .
45(4) . . .
32.9(30) . . .
33.2(31) . . .
24.0(25) . . .
29.7(31) . . .
28.2(27) . . .
25.7(27) . . .
41(4) . . .
32.6(31) . . .
26.6(28) . . .
30.9(29) . . .
27.3(29) . . .
34.8(32) . . .
31.7(30) . . .
36.0(31) . . .
41.0(34) . . .
31.3(30) . . .
33.7(32) . . .
34.7(33) . . .
32.8(33) . . .
32.7(30) . . .
31.5(32) . . .
38.4(34) . . .
29.2(31) . . .
23.9(27) . . .
32.4(30) . . .
43(4) . . .
29.9(28) . . .
33.6(32) . . .
39.4(33) . . .
36.4(31) . . .
28.2(28) . . .
27.9(29) . . .
32.7(30) . . .
35.6(31) . . .
28.4(29) . . .
26.9(28) . . .
31.6(32) . . .
39.9(35) . . .
29.3(29) . . .
44(4) . . .
32.4(29) . . .
36.3(32) . . .
35.4(32) . . .
30.2(28) . . .
39.7(33) . . .
30.0(30) . . .
26.7(27) . . .
28.3(28) . . .
22.6(26) . . .
35.9(31) . . .
29.6(28) . . .
34.3(32) . . .
36.1(32) . . .
36.2(32) . . .
38.5(33) . . .
33.6(30) . . .
39.4(35) . . .
30.9(30) . . .
34.0(31) . . .
42.6(35) . . .
37.4(32) . . .
27.1(28) . . .
30.5(29) . . .
32.8(30) . . .
34.3(32) . . .
35.3(33) . . .
34.6(33) . . .
33.1(30) . . .
34.4(31) . . .
39.8(35) . . .
26.8(28) . . .
27.2(28) . . .
32.7(30) . . .
29.5(28) . . .
30.1(30) . . .
32.2(30) . . .
31.5(30) . . .
28.6(28) . . .
32.8(30) . . .
48(4) . . .
41(4) . . .
33.3(31) . . .
33.3(31) . . .
30.8(30) . . .
33.8(31) . . .
38.9(35) . . .
33.3(31) . . .
32.2(30) . . .
35.5(31) . . .
30.3(28) . . .
27.8(27) . . .
31.9(30) . . .
31.6(29) . . .
26.3(28) . . .
34.5(31) . . .
31.5(31) . . .
32.8(30) . . .
43.6(35) . . .
28.1(28) . . .
29.7(30) . . .
30.7(30) . . .
37.0(34) . . .
36.4(32) . . .
30.7(29) . . .
31.7(30) . . .
23.4(26) . . .
30.0(31) . . .
33.8(30) . . .
32.7(29) . . .
34.7(32) . . .
36.3(33) . . .
28.5(29) . . .
35.5(31) . . .
27.0(27) . . .
30.9(31) . . .
26.5(28) . . .
29.1(29) . . .
40.5(33) . . .
37(4) . . .
30.3(30) . . .
28.6(28) . . .
28.1(28) . . .
30.6(29) . . .
31.6(29) . . .
33.8(32) . . .
31.0(31) . . .
30.4(29) . . .
29.2(29) . . .
34.0(32) . . .
30.8(31) . . .
29.3(30) . . .
33.8(31) . . .
38.0(32) . . .
36.4(31) . . .
37.8(35) . . .
34.1(32) . . .
26.5(28) . . .
36.2(31) . . .
30.5(30) . . .
35(4) . . .
33.7(31) . . .
31.8(29) . . .
24.5(26) . . .
35.2(32) . . .
34.5(31) . . .
38.2(33) . . .
43.2(34) . . .
32.3(29) . . .
41(4) . . .
26.8(25) . . .
42(4) . . .
38.7(33) . . .
37.3(32) . . .
29.4(29) . . .
36.4(33) . . .
43(4) . . .
33.1(30) . . .
32.7(31) . . .
30.0(31) . . .
38.4(34) . . .
37.3(32) . . .
32.6(30) . . .
29.6(30) . . .
42(4) . . .
28.4(27) . . .
31.0(31) . . .
28.8(28) . . .
31.6(31) . . .
32.0(32) . . .
32.2(29) . . .
34.1(30) . . .
32.5(30) . . .
27.1(28) . . .
42(4) . . .
28.5(28) . . .
35.8(33) . . .
32.4(30) . . .
36.0(32) . . .
34.7(31) . . .
28.0(27) . . .
35.4(31) . . .
36.3(31) . . .
30.9(30) . . .
34.9(32) . . .
29.6(28) . . .
30.6(29) . . .
34.6(31) . . .
29.7(28) . . .
29.0(30) . . .
31.4(30) . . .
34.0(30) . . .
31.5(30) . . .
37.6(33) . . .
34.6(31) . . .
26.0(26) . . .
38.7(32) . . .
32.8(30) . . .
30.9(30) . . .
35.5(34) . . .
29.8(28) . . .
29.0(28) . . .
30.4(29) . . .
32.5(29) . . .
35.3(32) . . .
30.5(30) . . .
36.0(32) . . .
28.3(28) . . .
26.1(27) . . .
37.7(33) . . .
35.6(32) . . .
33.2(30) . . .
34.2(32) . . .
33.4(33) . . .
42(4) . . .
36.0(32) . . .
32.7(30) . . .
39.4(33) . . .
30.2(29) . . .
33.4(31) . . .
39.5(33) . . .
34.8(31) . . .
36.4(33) . . .
28.5(29) . . .
41(4) . . .
32.2(30) . . .
42.9(35) . . .
29.5(29) . . .
30.8(31) . . .
38.7(33) . . .
34.0(31) . . .
33.5(30) . . .
31.9(29) . . .
32.3(31) . . .
33.7(32) . . .
30.8(29) . . .
25.1(26) . . .
36.5(32) . . .
38.2(34) . . .
34.6(31) . . .
38.1(32) . . .
32.8(30) . . .
31.2(29) . . .
35.1(34) . . .
31.2(29) . . .
33.9(30) . . .
39.7(34) . . .
31.3(32) . . .
35.5(33) . . .
34.3(31) . . .
39.0(32) . . .
26.5(26) . . .
35.5(32) . . .
31.5(29) . . .
33.7(31) . . .
31.1(29) . . .
31.0(29) . . .
45(4) . . .
38(4) . . .
23.9(28) . . .
35.1(31) . . .
33.9(30) . . .
29.4(29) . . .
35.4(32) . . .
32.2(31) . . .
34.8(31) . . .
30.3(30) . . .
24.0(26) . . .
33.0(32) . . .
32.3(29) . . .
31.9(29) . . .
25.8(28) . . .
27.7(28) . . .
24.8(27) . . .
28.2(30) . . .
32.8(30) . . .
26.1(26) . . .
26.3(28) . . .
40.0(34) . . .
41.4(34) . . .
33.9(31) . . .
24.5(26) . . .
30.4(32) . . .
31.2(29) . . .
28.3(28) . . .
34.5(31) . . .
31.2(29) . . .
38.2(34) . . .
33.7(30) . . .
29.6(29) . . .
33.7(31) . . .
40.0(34) . . .
33.8(32) . . .
33.2(31) . . .
28.3(28) . . .
28.0(28) . . .
30.5(30) . . .
37.0(34) . . .
38.2(33) . . .
35.2(31) . . .
38.3(33) . . .
36.8(33) . . .
31.0(31) . . .
32.4(32) . . .
30.2(28) . . .
35.2(32) . . .
37.6(32) . . .
39.8(34) . . .
37.9(34) . . .
27.0(28) . . .
42.3(35) . . .
42.3(34) . . .
30.9(30) . . .
31.1(31) . . .
30.8(29) . . .
36.1(31) . . .
35.1(31) . . .
31.0(31) . . .
33.6(31) . . .
36.8(31) . . .
32.8(31) . . .
33.1(32) . . .
33.2(32) . . .
34.0(31) . . .
27.4(27) . . .
28.9(29) . . .
36.4(33) . . .
30.6(28) . . .
27.1(28) . . .
38.7(33) . . .
36.9(31) . . .
44(4) . . .
37.1(32) . . .
33.9(30) . . .
32.8(30) . . .
35.9(33) . . .
36.8(34) . . .
37.4(32) . . .
40.6(33) . . .
39.8(33) . . .
40.7(34) . . .
43(4) . . .
37.3(32) . . .
35.0(31) . . .
21.1(24) . . .
22.1(27) . . .
30.7(31) . . .
37.3(33) . . .
37.7(33) . . .
34.3(32) . . .
37.8(32) . . .
44.5(35) . . .
41.3(34) . . .
23.0(26) . . .
25.2(27) . . .
41(4) . . .
34.3(33) . . .
37.7(34) . . .
39.0(32) . . .
30.6(29) . . .
30.3(31) . . .
28.6(31) . . .
39(4) . . .
34.1(31) . . .
37.5(33) . . .
33.2(30) . . .
34.6(33) . . .
29.8(31) . . .
36.3(32) . . .
35.4(32) . . .
27.2(29) . . .
36.9(32) . . .
43(4) . . .
26.9(27) . . .
33.5(31) . . .
30.4(32) . . .
33.7(32) . . .
26.5(28) . . .
25.4(26) . . .
29.7(30) . . .
36.3(35) . . .
28.8(28) . . .
28.4(28) . . .
32.3(30) . . .
27.1(28) . . .
31.7(33) . . .
33.5(31) . . .
28.5(28) . . .
33.2(30) . . .
25.7(27) . . .
30.7(32) . . .
24.9(29) . . .
27.9(28) . . .
31.6(30) . . .
26.2(26) . . .
34.0(31) . . .
30.0(28) . . .
31.8(30) . . .
33.8(30) . . .
31.3(30) . . .
27.0(29) . . .
31.4(29) . . .
37.3(33) . . .
38.6(32) . . .
41.3(35) . . .
30.5(32) . . .
34.6(32) . . .
32.2(30) . . .
37.7(32) . . .
32.7(29) . . .
40(4) . . .
42.2(35) . . .
37.8(32) . . .
28.5(29) . . .
28.7(29) . . .
35.3(32) . . .
38.3(34) . . .
29.3(28) . . .
33.7(33) . . .
32.5(30) . . .
29.3(27) . . .
24.4(26) . . .
25.2(27) . . .
27.0(30) . . .
34.3(34) . . .
37(4) . . .
32.2(30) . . .
34.2(32) . . .
26.9(27) . . .
31.0(32) . . .
26.1(27) . . .
30.0(29) . . .
35.5(31) . . .
32.6(30) . . .
32.6(30) . . .
35.7(32) . . .
40.2(34) . . .
35.1(31) . . .
28.0(27) . . .
31.6(32) . . .
30.8(30) . . .
32.8(30) . . .
34.5(31) . . .
36.1(32) . . .
33.5(31) . . .
33.5(30) . . .
35.8(32) . . .
38.2(32) . . .
29.5(30) . . .
30.7(32) . . .
31.6(31) . . .
35.7(31) . . .
34.7(32) . . .
32.9(31) . . .
37.1(34) . . .
27.9(28) . . .
29.4(28) . . .
32.1(30) . . .
30.8(29) . . .
32.6(29) . . .
39.9(33) . . .
30.9(29) . . .
27.4(27) . . .
33.8(31) . . .
30.9(28) . . .
36.9(33) . . .
35.1(31) . . .
27.9(27) . . .
34.0(32) . . .
39.8(35) . . .
34.9(31) . . .
29.3(28) . . .
39.2(34) . . .
43(4) . . .
29.6(30) . . .
37.7(33) . . .
45.1(34) . . .
26.0(28) . . .
25.3(28) . . .
26.5(29) . . .
29.1(28) . . .
30.6(29) . . .
35.0(32) . . .
24.7(29) . . .
30.8(30) . . .
39.3(32) . . .
36.7(32) . . .
29.7(28) . . .
25.7(27) . . .
32.0(30) . . .
38.5(32) . . .
34.5(30) . . .
23.0(25) . . .
34.1(34) . . .
36.0(32) . . .
35.0(31) . . .
31.2(30) . . .
31.3(31) . . .
37(4) . . .
39.7(35) . . .
29.2(28) . . .
27.1(27) . . .
36.3(34) . . .
29.8(30) . . .
35.8(33) . . .
34.9(31) . . .
30.4(30) . . .
30.1(32) . . .
33.8(32) . . .
34.2(31) . . .
29.9(28) . . .
31.5(29) . . .
31.6(30) . . .
33.2(31) . . .
37.1(34) . . .
33.7(30) . . .
27.8(27) . . .
32.4(30) . . .
28.9(28) . . .
32.6(30) . . .
29.2(28) . . .
33.4(31) . . .
31.2(31) . . .
37(4) . . .
36.7(33) . . .
31.1(29) . . .
34.5(31) . . .
26.4(26) . . .
36.1(32) . . .
33.5(30) . . .
35.6(31) . . .
34.0(32) . . .
36.3(34) . . .
28.6(28) . . .
25.8(27) . . .
34.5(30) . . .
28.8(27) . . .
34.3(33) . . .
33.8(32) . . .
35.9(31) . . .
38.0(32) . . .
38.2(33) . . .
34.7(31) . . .
30.3(28) . . .
35.3(31) . . .
31.0(29) . . .
40.6(35) . . .
31.5(32) . . .
28.9(29) . . .
31.4(29) . . .
33.7(31) . . .
32.7(29) . . .
33.8(33) . . .
30.7(30) . . .
27.8(27) . . .
39.3(35) . . .
35.2(32) . . .
40(4) . . .
28.8(27) . . .
29.0(28) . . .
34.5(33) . . .
30.8(30) . . .
25.9(27) . . .
31.9(29) . . .
34.7(31) . . .
35.3(32) . . .
35.4(32) . . .
29.4(29) . . .
40.3(35) . . .
39.5(33) . . .
34.9(31) . . .
29.3(29) . . .
31.4(32) . . .
33.9(32) . . .
31.0(29) . . .
34.7(32) . . .
25.8(28) . . .
28.1(29) . . .
29.1(29) . . .
26.9(27) . . .
29.9(30) . . .
31.0(31) . . .
28.9(29) . . .
23.8(26) . . .
26.7(27) . . .
25.8(27) . . .
27.2(30) . . .
30.8(30) . . .
35.1(30) . . .
28.0(28) . . .
36.8(33) . . .
32.5(30) . . .
33.2(31) . . .
32.3(29) . . .
38.6(33) . . .
37.3(33) . . .
28.1(28) . . .
32.4(31) . . .
31.9(30) . . .
35.6(31) . . .
42(4) . . .
33.9(34) . . .
33.4(31) . . .
25.0(27) . . .
22.4(25) . . .
32.0(30) . . .
31.8(29) . . .
32.1(30) . . .
30.6(29) . . .
38.0(32) . . .
33.5(31) . . .
28.8(29) . . .
31.0(31) . . .
28.8(28) . . .
35.1(31) . . .
31.3(29) . . .
28.7(28) . . .
36.5(33) . . .
38.2(33) . . .
24.5(25) . . .
32.4(33) . . .
32.3(31) . . .
31.0(30) . . .
36.8(31) . . .
30.2(33) . . .
34.3(35) . . .
32.2(30) . . .
38.9(32) . . .
40.2(34) . . .
29.4(28) . . .
32.5(32) . . .
28.7(28) . . .
35.7(31) . . .
37.2(32) . . .
36.2(33) . . .
39.3(35) . . .
29.1(29) . . .
36.5(32) . . .
31.3(29) . . .
31.1(30) . . .
27.2(31) . . .
32.7(33) . . .
35.7(31) . . .
23.7(26) . . .
28.6(29) . . .
27.9(28) . . .
32.5(30) . . .
35.4(31) . . .
24.6(26) . . .
35.0(31) . . .
34.8(33) . . .
28.6(28) . . .
37.0(31) . . .
29.1(28) . . .
32.8(31) . . .
32.9(33) . . .
29.8(29) . . .
31.4(30) . . .
45(4) . . .
43(4) . . .
28.0(28) . . .
32.5(30) . . .
34.2(30) . . .
30.5(29) . . .
32.9(32) . . .
37.9(34) . . .
33.1(32) . . .
26.2(27) . . .
24.9(27) . . .
36.4(34) . . .
32.2(31) . . .
41(4) . . .
33.1(30) . . .
32.9(31) . . .
33.7(33) . . .
33.4(32) . . .
34.2(31) . . .
35.7(32) . . .
32.6(29) . . .
38.7(33) . . .
33.0(30) . . .
33.5(31) . . .
40.5(34) . . .
33.7(32) . . .
35.2(33) . . .
33.6(31) . . .
32.3(30) . . .
30.8(28) . . .
24.3(27) . . .
26.7(30) . . .
32.0(31) . . .
42.0(34) . . .
37.1(31) . . .
35.4(31) . . .
44(4) . . .
35.3(32) . . .
28.6(28) . . .
29.7(29) . . .
32.2(31) . . .
34.4(32) . . .
39.1(32) . . .
38.9(32) . . .
35.2(31) . . .
27.4(27) . . .
31.2(31) . . .
32.0(30) . . .
35.5(31) . . .
36.1(32) . . .
36.2(34) . . .
21.8(27) . . .
30.9(30) . . .
31.7(29) . . .
27.7(28) . . .
40(4) . . .
34.6(34) . . .
31.7(30) . . .
29.3(28) . . .
30.4(30) . . .
27.1(29) . . .
24.8(27) . . .
37.4(34) . . .
34.6(31) . . .
35.8(34) . . .
34.0(33) . . .
34.0(31) . . .
45(4) . . .
24.8(26) . . .
33.1(33) . . .
30.6(31) . . .
27.7(28) . . .
33.0(30) . . .
30.7(29) . . .
34.2(32) . . .
30.4(30) . . .
31.0(29) . . .
38.4(32) . . .
34.3(30) . . .
28.4(29) . . .
27.6(30) . . .
30.8(32) . . .
36.3(33) . . .
30.6(28) . . .
34.0(31) . . .
35.5(34) . . .
34.2(31) . . .
35.9(32) . . .
31.0(29) . . .
32.5(30) . . .
35.5(33) . . .
35.8(33) . . .
34.8(31) . . .
39.8(33) . . .
26.5(28) . . .
37.0(34) . . .
43.3(34) . . .
33.0(30) . . .
31.9(29) . . .
24.7(26) . . .
34.9(34) . . .
31.3(29) . . .
38.5(33) . . .
29.5(30) . . .
29.8(31) . . .
32.4(31) . . .
39.5(34) . . .
33.7(30) . . .
30.2(30) . . .
37.0(32) . . .
37.1(32) . . .
34.8(31) . . .
36.5(32) . . .
31.4(30) . . .
25.1(27) . . .
35.9(33) . . .
27.5(27) . . .
30.9(29) . . .
35.1(31) . . .
40(4) . . .
30.9(29) . . .
35.2(31) . . .
37.0(31) . . .
40(4) . . .
30.0(28) . . .
36.9(33) . . .
35.2(32) . . .
29.2(28) . . .
34.2(31) . . .
25.8(29) . . .
29.1(32) . . .
33.5(31) . . .
28.5(28) . . .
32.8(30) . . .
28.0(31) . . .
29.4(30) . . .
28.3(29) . . .
31.2(29) . . .
31.8(30) . . .
32.1(31) . . .
30.7(30) . . .
29.5(28) . . .
31.5(31) . . .
25.3(27) . . .
27.1(28) . . .
29.0(30) . . .
25.8(27) . . .
34.6(31) . . .
37.5(34) . . .
36.9(32) . . .
31.7(31) . . .
37.3(32) . . .
37.8(32) . . .
40.0(35) . . .
29.2(30) . . .
30.7(30) . . .
23.8(25) . . .
31.2(29) . . .
36.4(33) . . .
33.6(31) . . .
34.3(31) . . .
30.3(28) . . .
29.3(29) . . .
41(4) . . .
31.2(30) . . .
37.3(33) . . .
32.7(29) . . .
26.5(29) . . .
31.4(32) . . .
30.9(31) . . .
32.1(30) . . .
34.7(31) . . .
30.5(30) . . .
37.1(33) . . .
32.4(30) . . .
29.9(28) . . .
25.9(26) . . .
31.1(30) . . .
32.1(31) . . .
28.5(28) . . .
34.3(31) . . .
29.8(28) . . .
45(4) . . .
37.0(35) . . .
32.7(32) . . .
36.1(31) . . .
38.5(33) . . .
34.6(32) . . .
30.8(31) . . .
35.8(32) . . .
30.9(29) . . .
35.4(31) . . .
31.9(29) . . .
37.1(34) . . .
33.7(31) . . .
35.8(31) . . .
29.4(28) . . .
31.7(31) . . .
35.0(33) . . .
38.1(33) . . .
37.6(33) . . .
30.8(31) . . .
34.9(32) . . .
35.0(32) . . .
29.6(29) . . .
37.2(32) . . .
35.9(31) . . .
31.3(29) . . .
42.2(34) . . .
42.2(35) . . .
36.8(31) . . .
33.3(30) . . .
36.8(34) . . .
28.1(29) . . .
29.0(28) . . .
41.8(35) . . .
35.5(32) . . .
28.5(30) . . .
23.1(25) . . .
29.5(30) . . .
33.6(30) . . .
33.6(31) . . .
29.7(32) . . .
32.2(31) . . .
29.0(28) . . .
27.5(28) . . .
36.8(34) . . .
38.5(35) . . .
29.3(28) . . .
37.1(34) . . .
35.5(31) . . .
22.9(25) . . .
31.3(32) . . .
31.2(31) . . .
26.2(27) . . .
33.4(31) . . .
37(4) . . .
34.3(35) . . .
35.8(33) . . .
34.3(30) . . .
32.6(31) . . .
28.6(28) . . .
33.2(33) . . .
27.7(27) . . .
36.8(32) . . .
29.3(28) . . .
38(4) . . .
27.4(29) . . .
29.2(29) . . .
37.0(32) . . .
37.9(33) . . .
35.1(32) . . .
31.6(32) . . .
39.5(34) . . .
40.8(34) . . .
35.9(32) . . .
31.4(30) . . .
32.9(32) . . .
22.7(24) . . .
39.5(33) . . .
31.8(30) . . .
27.3(28) . . .
29.8(30) . . .
27.3(28) . . .
31.8(29) . . .
26.9(27) . . .
33.8(32) . . .
32.6(31) . . .
36.1(31) . . .
38.2(32) . . .
39.7(34) . . .
31.2(29) . . .
28.6(29) . . .
35.4(32) . . .
33.4(30) . . .
32.5(31) . . .
30.5(29) . . .
24.8(26) . . .
31.8(30) . . .
32.5(30) . . .
41(4) . . .
33.3(34) . . .
32.1(30) . . .
34.7(31) . . .
37.4(32) . . .
38.4(34) . . .
31.5(31) . . .
28.1(27) . . .
32.0(29) . . .
28.2(28) . . .
29.9(30) . . .
31.0(30) . . .
44(4) . . .
28.7(29) . . .
25.3(26) . . .
25.4(27) . . .
29.4(32) . . .
28.9(29) . . .
34.9(31) . . .
27.5(27) . . .
27.0(27) . . .
42(4) . . .
36.3(32) . . .
32.1(30) . . .
29.4(28) . . .
27.7(29) . . .
25.8(29) . . .
36.4(32) . . .
33.4(30) . . .
28.4(28) . . .
29.8(31) . . .
28.6(29) . . .
35.0(31) . . .
31.1(29) . . .
35.8(32) . . .
24.1(26) . . .
28.8(30) . . .
31.5(30) . . .
29.5(28) . . .
32.3(31) . . .
36.2(34) . . .
35.3(32) . . .
34.4(31) . . .
28.0(28) . . .
31.0(30) . . .
42(4) . . .
35.2(31) . . .
32.3(30) . . .
33.1(30) . . .
27.8(27) . . .
28.8(29) . . .
32.4(30) . . .
31.8(29) . . .
32.3(30) . . .
25.0(27) . . .
28.3(29) . . .
36.2(34) . . .
31.2(30) . . .
35.0(31) . . .
27.8(28) . . .
32.8(34) . . .
24.2(27) . . .
26.1(27) . . .
29.1(28) . . .
36.1(33) . . .
32.3(31) . . .
28.6(33) . . .
29.9(29) . . .
35.9(32) . . .
35.2(34) . . .
26.8(27) . . .
33.6(34) . . .
30.1(28) . . .
30.3(29) . . .
36.8(32) . . .
37.5(32) . . .
38.1(33) . . .
29.6(28) . . .
44(4) . . .
34.5(32) . . .
35.9(32) . . .
34.9(34) . . .
31.4(29) . . .
33.3(30) . . .
35.2(33) . . .
29.4(29) . . .
36.2(34) . . .
38.2(32) . . .
38.0(32) . . .
35.2(31) . . .
27.4(27) . . .
28.5(27) . . .
40.4(33) . . .
34.2(33) . . .
31.8(31) . . .
38.2(34) . . .
29.2(28) . . .
30.8(29) . . .
30.1(29) . . .
26.6(28) . . .
33.5(32) . . .
38.3(32) . . .
31.3(29) . . .
33.3(33) . . .
32.1(32) . . .
31.6(30) . . .
27.0(27) . . .
42.1(34) . . .
28.0(28) . . .
27.4(30) . . .
29.5(31) . . .
34.4(30) . . .
32.6(30) . . .
33.3(32) . . .
36.1(33) . . .
36.8(32) . . .
35.3(31) . . .
29.4(30) . . .
25.1(29) . . .
28.8(32) . . .
29.1(30) . . .
28.0(29) . . .
26.8(27) . . .
38(4) . . .
29.0(28) . . .
25.5(29) . . .
26.4(26) . . .
34.8(32) . . .
31.0(29) . . .
29.5(29) . . .
31.6(31) . . .
30.7(29) . . .
38.3(33) . . .
40.1(35) . . .
28.1(28) . . .
27.1(29) . . .
31.5(29) . . .
32.4(33) . . .
38(4) . . .
33.5(30) . . .
29.9(30) . . .
27.2(28) . . .
30.0(31) . . .
29.5(29) . . .
32.6(29) . . .
40.8(33) . . .
24.6(26) . . .
38.2(35) . . .
34.3(32) . . .
34.8(33) . . .
36.4(32) . . .
30.8(29) . . .
38.7(35) . . .
29.7(31) . . .
31.8(32) . . .
32.4(31) . . .
32.8(31) . . .
26.8(27) . . .
28.0(29) . . .
35.8(32) . . .
28.9(29) . . .
30.1(30) . . .
32.2(30) . . .
36.3(34) . . .
33.7(31) . . .
39.9(34) . . .
26.3(26) . . .
28.7(28) . . .
30.1(31) . . .
31.2(30) . . .
32.7(29) . . .
28.7(29) . . .
30.5(31) . . .
25.4(26) . . .
35.9(33) . . .
27.3(27) . . .
31.5(29) . . .
31.3(30) . . .
36.2(35) . . .
34.2(30) . . .
34.2(31) . . .
36.4(33) . . .
44(4) . . .
32.2(32) . . .
31.5(30) . . .
37.6(32) . . .
29.3(29) . . .
34.0(33) . . .
29.8(28) . . .
30.5(29) . . .
33.3(30) . . .
32.6(31) . . .
31.8(33) . . .
26.0(28) . . .
27.5(29) . . .
37.3(32) . . .
33.4(32) . . .
30.8(31) . . .
37.6(33) . . .
35.8(31) . . .
34.3(31) . . .
28.7(28) . . .
34.0(34) . . .
31.3(31) . . .
32.2(31) . . .
34.9(31) . . .
36.0(32) . . .
35.4(32) . . .
39.3(33) . . .
33.7(30) . . .
30.5(29) . . .
34.0(31) . . .
34.9(33) . . .
28.9(27) . . .
39.6(33) . . .
34.3(30) . . .
33.1(29) . . .
39(4) . . .
39.5(35) . . .
28.7(28) . . .
32.4(31) . . .
36.4(34) . . .
32.2(30) . . .
32.8(30) . . .
33.1(30) . . .
34.3(32) . . .
37.5(33) . . .
35.5(32) . . .
25.8(28) . . .
28.3(28) . . .
34.5(30) . . .
40(4) . . .
31.3(31) . . .
31.3(30) . . .
30.8(29) . . .
31.2(29) . . .
28.4(31) . . .
33.5(32) . . .
29.8(28) . . .
33.4(30) . . .
40.8(33) . . .
36.7(34) . . .
32.0(30) . . .
32.4(30) . . .
24.2(25) . . .
32.1(31) . . .
37.7(34) . . .
34.3(32) . . .
31.9(30) . . .
31.2(29) . . .
38.8(33) . . .
29.3(30) . . .
27.5(29) . . .
39.3(33) . . .
42.5(34) . . .
37.8(34) . . .
42(4) . . .
40(4) . . .
37.8(32) . . .
37.0(33) . . .
27.1(28) . . .
28.8(29) . . .
32.8(31) . . .
33.7(30) . . .
37.0(33) . . .
31.8(32) . . .
25.6(27) . . .
41(4) . . .
37.8(32) . . .
32.0(29) . . .
26.2(27) . . .
28.2(28) . . .
31.2(29) . . .
28.0(28) . . .
35.0(32) . . .
32.0(31) . . .
32.4(31) . . .
31.6(31) . . .
21.6(25) . . .
31.5(31) . . .
32.6(32) . . .
29.1(29) . . .
33.0(31) . . .
31.1(29) . . .
33.0(32) . . .
33.3(31) . . .
33.0(31) . . .
30.6(29) . . .
31.4(30) . . .
25.9(28) . . .
28.8(28) . . .
37.1(34) . . .
30.2(29) . . .
32.9(30) . . .
36.9(35) . . .
27.1(29) . . .
29.2(29) . . .
28.5(28) . . .
36.3(31) . . .
31.5(30) . . .
35.0(33) . . .
29.2(28) . . .
25.1(26) . . .
33.7(31) . . .
33.8(31) . . .
36(4) . . .
30.9(30) . . .
30.5(29) . . .
36.5(32) . . .
37.1(33) . . .
36.8(32) . . .
39.8(33) . . .
43.0(34) . . .
41.6(34) . . .
35.7(34) . . .
22.8(26) . . .
31.4(30) . . .
29.6(28) . . .
35.5(32) . . .
30.8(29) . . .
32.5(32) . . .
35.7(34) . . .
29.0(28) . . .
22.8(26) . . .
31.4(31) . . .
37(4) . . .
26.5(27) . . .
28.5(28) . . .
31.4(29) . . .
50(4) . . .
28.2(28) . . .
30.4(32) . . .
24.8(26) . . .
26.3(28) . . .
28.8(29) . . .
30.6(29) . . .
22.0(25) . . .
29.3(28) . . .
35.6(34) . . .
22.3(25) . . .
30.5(30) . . .
26.5(27) . . .
32.4(30) . . .
28.8(30) . . .
30.2(31) . . .
30.8(31) . . .
30.5(29) . . .
38.4(32) . . .
31.3(33) . . .
26.5(31) . . .
28.4(30) . . .
38.0(32) . . .
36.4(32) . . .
30.3(29) . . .
30.7(30) . . .
31.4(29) . . .
29.9(28) . . .
28.0(28) . . .
32.6(30) . . .
30.3(29) . . .
28.6(30) . . .
25.4(27) . . .
27.6(27) . . .
37.4(31) . . .
37.4(32) . . .
33.2(32) . . .
29.8(28) . . .
33.0(30) . . .
44(4) . . .
35.5(33) . . .
31.5(30) . . .
35.2(31) . . .
31.2(30) . . .
29.5(28) . . .
36.0(32) . . .
38.5(32) . . .
32.6(30) . . .
29.9(29) . . .
36.2(31) . . .
35.8(32) . . .
35.1(34) . . .
40.7(33) . . .
29.4(28) . . .
39.1(34) . . .
34.9(32) . . .
29.7(28) . . .
35.3(32) . . .
23.4(25) . . .
32.8(33) . . .
34.9(33) . . .
27.4(27) . . .
37.6(32) . . .
27.5(27) . . .
37.1(34) . . .
33.2(31) . . .
31.6(30) . . .
36.6(31) . . .
43(4) . . .
34.8(32) . . .
37.1(32) . . .
42.7(34) . . .
33.2(30) . . .
30.2(29) . . .
34.2(32) . . .
36.8(33) . . .
36.3(31) . . .
27.7(27) . . .
38(4) . . .
35.6(35) . . .
36.8(34) . . .
42.1(33) . . .
24.8(26) . . .
31.8(32) . . .
22.8(26) . . .
30.9(30) . . .
34.2(30) . . .
30.0(29) . . .
28.1(29) . . .
33.7(31) . . .
37.9(35) . . .
31.9(30) . . .
32.6(31) . . .
26.9(27) . . .
32.0(32) . . .
32.3(31) . . .
43(4) . . .
35.0(32) . . .
32.4(32) . . .
33.0(31) . . .
27.4(27) . . .
27.0(28) . . .
26.5(27) . . .
29.6(31) . . .
30.4(31) . . .
26.1(26) . . .
30.7(29) . . .
36.0(32) . . .
37.1(31) . . .
39.8(34) . . .
28.3(28) . . .
31.8(29) . . .
30.8(32) . . .
23.7(27) . . .
27.8(28) . . .
39.5(33) . . .
34.2(30) . . .
30.0(29) . . .
29.6(28) . . .
30.7(29) . . .
27.1(29) . . .
31.0(29) . . .
30.5(29) . . .
32.7(32) . . .
32.9(32) . . .
35.0(31) . . .
32.6(31) . . .
32.5(31) . . .
25.8(30) . . .
29.1(28) . . .
33.9(30) . . .
31.7(30) . . .
33.4(31) . . .
29.6(29) . . .
32.9(33) . . .
28.9(29) . . .
29.9(28) . . .
32.8(30) . . .
26.1(27) . . .
33.3(31) . . .
39.8(33) . . .
34.0(31) . . .
31.3(30) . . .
36.1(32) . . .
34.3(31) . . .
28.1(27) . . .
28.9(29) . . .
31.3(30) . . .
29.2(29) . . .
28.8(29) . . .
34.8(31) . . .
33.4(30) . . .
36.5(32) . . .
33.2(34) . . .
34.8(33) . . .
33.0(30) . . .
32.3(30) . . .
32.0(30) . . .
29.3(30) . . .
27.9(28) . . .
34.1(31) . . .
39.5(33) . . .
33.2(32) . . .
26.8(29) . . .
31.2(29) . . .
36.9(32) . . .
31.1(29) . . .
29.0(29) . . .
26.7(28) . . .
34.0(31) . . .
41.4(35) . . .
25.3(28) . . .
32.2(32) . . .
26.7(26) . . .
30.2(29) . . .
35.1(30) . . .
32.5(32) . . .
28.6(30) . . .
30.8(30) . . .
33.6(31) . . .
28.5(27) . . .
26.5(28) . . .
35.2(34) . . .
37(4) . . .
29.3(29) . . .
34.3(30) . . .
32.8(32) . . .
34.6(34) . . .
36.1(34) . . .
40.1(33) . . .
32.7(30) . . .
27.5(27) . . .
31.6(31) . . .
42(4) . . .
33.5(30) . . .
36.7(33) . . .
29.8(29) . . .
30.3(30) . . .
31.1(29) . . .
35.7(31) . . .
33.3(33) . . .
35.8(33) . . .
37.0(35) . . .
24.0(25) . . .
28.8(28) . . .
35.2(32) . . .
27.1(27) . . .
30.8(30) . . .
31.6(29) . . .
35.6(31) . . .
38.4(34) . . .
26.7(27) . . .
29.1(29) . . .
38.7(33) . . .
28.9(28) . . .
29.2(28) . . .
31.5(30) . . .
34.2(32) . . .
28.5(27) . . .
30.5(29) . . .
36.0(33) . . .
33.2(33) . . .
29.3(30) . . .
33.5(30) . . .
27.8(28) . . .
32.1(31) . . .
32.2(34) . . .
39.3(34) . . .
34.2(31) . . .
39.9(34) . . .
32.9(30) . . .
35.2(31) . . .
27.8(28) . . .
24.7(26) . . .
31.1(29) . . .
23.3(25) . . .
33.1(32) . . .
36.0(32) . . .
28.1(27) . . .
42.8(35) . . .
35.1(31) . . .
27.2(27) . . .
33.6(32) . . .
33.4(31) . . .
26.6(28) . . .
26.8(29) . . .
33.1(33) . . .
28.2(27) . . .
31.2(30) . . .
28.5(28) . . .
27.3(27) . . .
32.8(33) . . .
43(4) . . .
31.7(30) . . .
34.8(31) . . .
36.7(32) . . .
24.8(27) . . .
28.3(31) . . .
28.4(28) . . .
35.1(31) . . .
36.1(33) . . .
32.9(32) . . .
32.3(30) . . .
31.3(29) . . .
33.5(33) . . .
25.4(26) . . .
38.0(34) . . .
37.3(32) . . .
31.6(29) . . .
38.6(33) . . .
31.7(32) . . .
29.0(28) . . .
28.9(28) . . .
38.0(32) . . .
34.7(31) . . .
33.0(33) . . .
29.0(30) . . .
31.4(30) . . .
31.0(29) . . .
28.0(27) . . .
27.0(27) . . .
29.8(28) . . .
40.6(34) . . .
33.1(29) . . .
27.1(27) . . .
25.9(27) . . .
30.4(30) . . .
38.2(32) . . .
38.4(32) . . .
28.7(28) . . .
31.5(31) . . .
29.7(29) . . .
29.5(28) . . .
36.5(32) . . .
30.3(31) . . .
33.2(32) . . .
34.7(31) . . .
33.1(30) . . .
30.6(30) . . .
35.2(33) . . .
38.9(33) . . .
37.3(33) . . .
32.8(30) . . .
22.3(24) . . .
29.4(29) . . .
27.1(28) . . .
37.3(33) . . .
35.7(31) . . .
39.5(33) . . .
26.8(27) . . .
35.7(32) . . .
30.6(30) . . .
33.3(30) . . .
39.0(34) . . .
35.3(32) . . .
26.9(27) . . .
31.0(29) . . .
35.2(32) . . .
32.2(31) . . .
37.7(34) . . .
29.7(28) . . .
29.0(28) . . .
28.6(28) . . .
34.1(32) . . .
22.6(24) . . .
33.4(31) . . .
37.4(31) . . .
32.4(30) . . .
30.4(28) . . .
34.0(31) . . .
31.5(29) . . .
28.6(29) . . .
30.4(29) . . .
34.0(33) . . .
30.9(30) . . .
33.0(32) . . .
31.6(29) . . .
39.2(33) . . .
43(4) . . .
29.0(29) . . .
31.4(31) . . .
35.1(31) . . .
36.4(32) . . .
34.7(31) . . .
33.4(29) . . .
42(4) . . .
37.6(32) . . .
32.6(31) . . .
35.7(33) . . .
27.7(28) . . .
26.2(28) . . .
28.0(28) . . .
32.6(30) . . .
38.7(34) . . .
32.7(31) . . .
33.9(30) . . .
25.6(27) . . .
26.7(28) . . .
36.2(32) . . .
35.3(31) . . .
38.6(33) . . .
34.0(30) . . .
35.5(32) . . .
31.5(30) . . .
28.1(29) . . .
38.2(33) . . .
30.6(29) . . .
32.9(32) . . .
28.4(27) . . .
29.7(28) . . .
25.5(27) . . .
28.5(28) . . .
29.7(30) . . .
26.4(30) . . .
36.1(34) . . .
38.7(33) . . .
33.4(30) . . .
32.2(29) . . .
42(4) . . .
32.3(31) . . .
32.2(30) . . .
38.3(34) . . .
30.1(28) . . .
32.3(31) . . .
28.8(29) . . .
32.9(30) . . .
25.6(26) . . .
35.8(33) . . .
30.6(30) . . .
36.9(32) . . .
36.8(32) . . .
31.0(29) . . .
26.2(27) . . .
27.8(28) . . .
31.8(29) . . .
32.4(30) . . .
36.6(32) . . .
35.4(32) . . .
34.3(31) . . .
19.4(23) . . .
33.1(30) . . .
33.8(32) . . .
33.3(31) . . .
24.6(29) . . .
26.7(28) . . .
34.8(31) . . .
29.1(28) . . .
31.6(31) . . .
30.2(30) . . .
28.6(29) . . .
35.9(31) . . .
30.5(30) . . .
23.6(27) . . .
26.2(26) . . .
36.5(32) . . .
36.5(31) . . .
28.0(27) . . .
40(4) . . .
26.2(27) . . .
34.6(32) . . .
26.3(27) . . .
30.4(29) . . .
35.1(34) . . .
35.5(32) . . .
34.2(31) . . .
31.0(29) . . .
28.0(30) . . .
27.8(32) . . .
29.1(31) . . .
31.5(29) . . .
27.6(28) . . .
27.3(28) . . .
31.0(30) . . .
24.9(26) . . .
33.9(31) . . .
32.6(29) . . .
29.0(28) . . .
37.3(35) . . .
34.4(31) . . .
29.4(29) . . .
30.4(29) . . .
30.8(29) . . .
31.6(31) . . .
32.6(31) . . .
30.7(29) . . .
28.4(28) . . .
33.3(32) . . .
35.0(33) . . .
37.4(33) . . .
37.7(32) . . .
28.8(28) . . .
27.7(29) . . .
34.2(33) . . .
37.3(32) . . .
30.9(29) . . .
31.9(32) . . .
31.5(30) . . .
31.0(30) . . .
31.3(29) . . .
26.0(27) . . .
33.1(34) . . .
32.9(31) . . .
36.0(33) . . .
28.7(28) . . .
34.2(31) . . .
31.0(30) . . .
33.8(32) . . .
28.5(27) . . .
34.0(30) . . .
32.2(30) . . .
33.7(31) . . .
32.3(33) . . .
33.2(33) . . .
34.1(30) . . .
29.3(28) . . .
32.3(31) . . .
36.2(34) . . .
33.8(32) . . .
36.5(32) . . .
30.3(29) . . .
31.7(30) . . .
34.6(33) . . .
31.2(31) . . .
31.1(30) . . .
34.5(31) . . .
32.9(31) . . .
31.2(30) . . .
28.8(28) . . .
36.5(31) . . .
27.9(28) . . .
28.0(30) . . .
34.2(34) . . .
29.6(29) . . .
31.3(30) . . .
27.7(30) . . .
28.7(31) . . .
30.4(31) . . .
37.4(33) . . .
32.9(30) . . .
28.6(28) . . .
32.6(30) . . .
31.3(30) . . .
27.4(29) . . .
29.2(28) . . .
25.6(28) . . .
27.5(29) . . .
27.1(29) . . .
26.9(28) . . .
31.9(29) . . .
36.0(32) . . .
28.5(29) . . .
32.0(30) . . .
25.9(27) . . .
30.4(29) . . .
26.0(28) . . .
34.8(32) . . .
32.1(30) . . .
23.5(26) . . .
26.4(27) . . .
26.1(28) . . .
23.8(30) . . .
25.3(28) . . .
32.7(31) . . .
29.6(29) . . .
28.4(29) . . .
33.0(34) . . .
28.7(29) . . .
26.9(27) . . .
29.3(29) . . .
34.1(32) . . .
29.5(32) . . .
29.9(30) . . .
30.5(29) . . .
37.9(32) . . .
27.6(28) . . .
32.3(32) . . .
31.7(31) . . .
40.1(34) . . .
30.9(29) . . .
25.0(27) . . .
30.9(32) . . .
36.1(32) . . .
31.7(30) . . .
46(4) . . .
33.5(30) . . .
31.1(31) . . .
29.5(29) . . .
25.4(26) . . .
33.4(31) . . .
26.3(26) . . .
34.9(33) . . .
21.8(25) . . .
30.4(29) . . .
29.0(29) . . .
26.7(28) . . .
29.9(31) . . .
31.1(31) . . .
29.0(28) . . .
26.2(29) . . .
34.6(33) . . .
37.4(33) . . .
40.9(34) . . .
32.3(30) . . .
32.7(31) . . .
32.5(30) . . .
38.7(35) . . .
31.8(29) . . .
31.0(29) . . .
32.8(30) . . .
31.1(30) . . .
33.3(33) . . .
27.4(28) . . .
33.8(31) . . .
34.2(32) . . .
32.3(31) . . .
36(4) . . .
31.5(30) . . .
27.2(28) . . .
28.4(31) . . .
28.3(28) . . .
27.5(28) . . .
30.0(28) . . .
27.6(27) . . .
36.9(32) . . .
35.2(33) . . .
29.8(28) . . .
30.6(29) . . .
49(4) . . .
31.7(28) . . .
35.6(33) . . .
25.8(27) . . .
27.1(27) . . .
32.5(29) . . .
33.9(32) . . .
32.1(32) . . .
29.4(29) . . .
32.4(30) . . .
35.5(32) . . .
37.2(33) . . .
32.2(31) . . .
34.7(32) . . .
46(4) . . .
30.8(29) . . .
46(4) . . .
31.4(32) . . .
30.8(31) . . .
26.6(27) . . .
25.2(26) . . .
38(4) . . .
33.8(31) . . .
43(4) . . .
21.7(26) . . .
28.9(31) . . .
31.5(31) . . .
29.7(30) . . .
36.0(31) . . .
32.0(30) . . .
28.0(30) . . .
33.5(34) . . .
29.8(30) . . .
30.9(30) . . .
27.7(28) . . .
31.5(30) . . .
27.3(28) . . .
30.0(31) . . .
23.9(25) . . .
28.8(28) . . .
29.5(29) . . .
36.2(35) . . .
32.8(31) . . .
34.1(31) . . .
27.9(27) . . .
28.6(30) . . .
30.0(30) . . .
28.3(27) . . .
26.4(27) . . .
38.2(32) . . .
29.2(28) . . .
27.5(29) . . .
29.7(29) . . .
25.1(26) . . .
26.8(27) . . .
36.0(32) . . .
35.8(33) . . .
33.4(30) . . .
32.6(30) . . .
31.7(29) . . .
33.8(31) . . .
40.0(34) . . .
38(4) . . .
29.5(29) . . .
35.0(33) . . .
28.9(30) . . .
39.0(35) . . .
26.2(27) . . .
32.4(29) . . .
37.8(33) . . .
25.2(28) . . .
26.7(28) . . .
39.7(34) . . .
47(4) . . .
28.9(28) . . .
32.9(32) . . .
22.4(26) . . .
29.9(29) . . .
28.6(28) . . .
34.8(32) . . .
31.5(32) . . .
34.3(31) . . .
39.7(34) . . .
31.0(29) . . .
31.7(30) . . .
43(4) . . .
34.3(31) . . .
29.7(29) . . .
27.0(27) . . .
31.5(29) . . .
30.3(29) . . .
29.3(30) . . .
30.2(30) . . .
33.8(31) . . .
31.8(30) . . .
32.2(31) . . .
29.9(29) . . .
33.5(31) . . .
31.1(29) . . .
34.2(32) . . .
37.4(34) . . .
43(4) . . .
31.1(29) . . .
24.0(26) . . .
30.7(31) . . .
33.4(32) . . .
23.9(27) . . .
27.6(27) . . .
32.2(31) . . .
31.5(30) . . .
31.1(30) . . .
41(4) . . .
25.4(27) . . .
32.6(30) . . .
27.1(27) . . .
27.8(29) . . .
29.4(29) . . .
34.3(30) . . .
28.3(28) . . .
28.0(29) . . .
27.7(29) . . .
28.3(28) . . .
35.7(31) . . .
32.8(31) . . .
28.7(30) . . .
28.4(28) . . .
28.1(28) . . .
34.9(31) . . .
35.0(33) . . .
31.8(29) . . .
40.9(34) . . .
28.0(28) . . .
30.3(29) . . .
36.6(32) . . .
30.8(29) . . .
26.2(29) . . .
32.2(29) . . .
32.0(29) . . .
35.3(32) . . .
37.0(34) . . .
27.7(27) . . .
30.8(29) . . .
30.0(29) . . .
25.5(26) . . .
34.3(33) . . .
31.3(31) . . .
28.5(28) . . .
29.0(28) . . .
27.4(28) . . .
32.3(31) . . .
31.5(29) . . .
36.5(32) . . .
27.3(28) . . .
33.3(31) . . .
31.9(31) . . .
30.5(29) . . .
40.7(33) . . .
33.2(30) . . .
38.8(34) . . .
32.7(32) . . .
37.3(32) . . .
38.8(33) . . .
37.5(32) . . .
26.4(27) . . .
38.1(34) . . .
32.8(30) . . .
32.3(30) . . .
34.3(32) . . .
21.2(24) . . .
31.0(30) . . .
28.8(29) . . .
23.2(25) . . .
28.5(28) . . .
33.6(33) . . .
35.5(33) . . .
41.0(34) . . .
31.9(31) . . .
33.4(31) . . .
35.2(33) . . .
30.0(31) . . .
38.8(33) . . .
22.1(25) . . .
29.8(30) . . .
30.5(31) . . .
26.6(28) . . .
25.5(27) . . .
29.2(29) . . .
25.1(27) . . .
35.4(34) . . .
24.5(26) . . .
24.2(26) . . .
33.1(30) . . .
31.3(31) . . .
35.3(35) . . .
27.8(28) . . .
35.2(32) . . .
31.0(29) . . .
34.8(34) . . .
22.1(26) . . .
34.3(32) . . .
41.8(33) . . .
39.8(33) . . .
30.5(30) . . .
26.1(27) . . .
31.0(31) . . .
29.4(28) . . .
34.0(32) . . .
26.5(29) . . .
33.8(31) . . .
32.2(31) . . .
31.3(29) . . .
34.5(31) . . .
31.6(31) . . .
22.5(26) . . .
32.9(32) . . .
35.9(32) . . .
35.3(31) . . .
26.6(27) . . .
34.1(32) . . .
39.9(35) . . .
32.8(29) . . .
32.6(31) . . .
35.1(33) . . .
35.0(32) . . .
37.7(34) . . .
44(4) . . .
33.4(32) . . .
30.5(34) . . .
33.0(32) . . .
32.7(30) . . .
25.7(26) . . .
27.8(28) . . .
35.3(32) . . .
34.0(30) . . .
31.5(29) . . .
24.8(26) . . .
32.9(31) . . .
26.1(27) . . .
30.2(30) . . .
28.8(28) . . .
33.4(30) . . .
27.8(29) . . .
26.8(29) . . .
30.6(29) . . .
30.4(29) . . .
40.3(33) . . .
39.6(33) . . .
37.2(34) . . .
31.6(30) . . .
31.5(29) . . .
28.9(28) . . .
31.5(31) . . .
22.8(25) . . .
21.3(27) . . .
28.7(28) . . .
36.1(31) . . .
33.5(30) . . .
31.5(31) . . .
27.9(29) . . .
24.8(26) . . .
28.1(28) . . .
29.7(29) . . .
30.0(29) . . .
30.3(28) . . .
34.2(30) . . .
36.5(33) . . .
32.0(31) . . .
31.6(30) . . .
34.3(31) . . .
28.5(28) . . .
32.5(30) . . .
30.5(29) . . .
37(4) . . .
33.4(30) . . .
28.7(28) . . .
24.2(26) . . .
28.2(30) . . .
33.8(33) . . .
34.0(30) . . .
32.0(29) . . .
26.7(26) . . .
33.3(30) . . .
31.9(29) . . .
33.0(30) . . .
37.0(33) . . .
26.8(29) . . .
39(4) . . .
41.7(34) . . .
35.8(32) . . .
29.5(28) . . .
27.8(28) . . .
26.3(28) . . .
23.0(26) . . .
30.3(29) . . .
34.9(31) . . .
24.7(25) . . .
33.0(33) . . .
29.3(30) . . .
30.3(29) . . .
33.0(30) . . .
31.8(33) . . .
27.4(28) . . .
32.0(31) . . .
22.5(25) . . .
28.8(29) . . .
28.1(28) . . .
26.5(27) . . .
35.2(32) . . .
31.8(29) . . .
34.7(31) . . .
24.9(26) . . .
32.3(34) . . .
26.9(27) . . .
32.8(30) . . .
27.5(27) . . .
28.0(28) . . .
26.1(28) . . .
28.6(29) . . .
33.4(31) . . .
31.4(29) . . .
33.1(32) . . .
40(4) . . .
40.6(35) . . .
37.8(32) . . .
31.8(31) . . .
31.0(31) . . .
36.0(33) . . .
26.8(28) . . .
38.0(32) . . .
30.3(29) . . .
30.1(31) . . .
29.5(28) . . .
38.0(32) . . .
32.5(30) . . .
32.9(31) . . .
38(4) . . .
37.4(34) . . .
30.3(29) . . .
40.5(33) . . .
31.6(29) . . .
35.1(34) . . .
43(4) . . .
34.8(31) . . .
24.0(26) . . .
28.5(29) . . .
27.2(28) . . .
34.3(32) . . .
29.0(28) . . .
27.9(28) . . .
24.7(27) . . .
27.1(30) . . .
27.3(28) . . .
28.9(28) . . .
29.2(28) . . .
32.1(31) . . .
39(4) . . .
31.3(30) . . .
24.0(27) . . .
32.3(30) . . .
38.5(35) . . .
29.0(30) . . .
36.3(34) . . .
31.0(29) . . .
23.7(26) . . .
29.3(28) . . .
40.0(35) . . .
39.0(33) . . .
33.2(30) . . .
27.4(30) . . .
31.9(31) . . .
35.8(34) . . .
29.8(30) . . .
28.8(27) . . .
35.1(32) . . .
27.1(29) . . .
30.4(29) . . .
28.7(29) . . .
25.3(27) . . .
29.5(31) . . .
30.3(30) . . .
25.0(27) . . .
29.5(30) . . .
28.1(28) . . .
32.3(32) . . .
33.9(31) . . .
36.6(34) . . .
36.7(32) . . .
22.8(26) . . .
27.7(27) . . .
37.2(33) . . .
28.3(28) . . .
34.1(31) . . .
28.8(29) . . .
25.2(28) . . .
31.8(33) . . .
33.4(31) . . .
31.1(29) . . .
30.9(29) . . .
29.8(28) . . .
36.7(33) . . .
27.0(26) . . .
31.9(29) . . .
29.7(29) . . .
33.2(31) . . .
27.3(28) . . .
39.8(35) . . .
29.1(28) . . .
29.0(29) . . .
27.0(27) . . .
27.4(28) . . .
32.1(30) . . .
23.5(25) . . .
26.0(26) . . .
25.7(27) . . .
28.1(31) . . .
29.0(29) . . .
31.3(30) . . .
33.1(30) . . .
26.6(27) . . .
36.0(34) . . .
23.8(26) . . .
28.9(28) . . .
36.7(32) . . .
29.1(28) . . .
31.6(30) . . .
38.4(32) . . .
40.3(33) . . .
32.9(31) . . .
34.1(32) . . .
41.1(34) . . .
33.8(31) . . .
39.6(32) . . .
34.0(33) . . .
37.0(33) . . .
29.2(27) . . .
30.1(29) . . .
25.7(27) . . .
31.6(30) . . .
26.8(28) . . .
34.7(32) . . .
31.9(29) . . .
33.9(30) . . .
35.4(33) . . .
31.3(31) . . .
28.8(30) . . .
25.8(27) . . .
24.3(27) . . .
30.3(30) . . .
39(4) . . .
31.4(29) . . .
31.3(29) . . .
31.8(29) . . .
32.4(30) . . .
41(4) . . .
35.0(31) . . .
27.6(28) . . .
33.0(30) . . .
32.5(31) . . .
31.6(30) . . .
43(4) . . .
30.2(28) . . .
39.4(33) . . .
34.0(31) . . .
38.6(34) . . .
26.1(26) . . .
30.8(29) . . .
27.8(27) . . .
29.3(29) . . .
25.5(27) . . .
27.2(29) . . .
31.4(30) . . .
29.1(28) . . .
23.7(26) . . .
31.1(32) . . .
39.6(34) . . .
29.6(29) . . .
35.7(32) . . .
28.6(30) . . .
31.2(30) . . .
27.9(29) . . .
32.6(30) . . .
29.9(29) . . .
32.9(31) . . .
37.7(33) . . .
32.7(29) . . .
28.5(28) . . .
35.4(31) . . .
33.8(32) . . .
25.5(27) . . .
29.4(29) . . .
39.6(33) . . .
31.2(29) . . .
32.2(30) . . .
39(4) . . .
30.4(29) . . .
32.1(30) . . .
27.6(28) . . .
30.4(30) . . .
30.6(29) . . .
29.8(29) . . .
30.0(30) . . .
25.3(26) . . .
28.8(32) . . .
27.3(29) . . .
32.3(29) . . .
27.9(27) . . .
26.1(27) . . .
28.2(32) . . .
27.1(30) . . .
34.2(30) . . .
35.6(33) . . .
30.5(28) . . .
35.9(34) . . .
29.1(29) . . .
30.8(29) . . .
37.1(32) . . .
30.0(28) . . .
28.8(28) . . .
31.5(30) . . .
36.5(31) . . .
36.3(34) . . .
31.5(32) . . .
32.0(31) . . .
30.2(30) . . .
30.9(29) . . .
28.2(28) . . .
37.5(34) . . .
31.1(29) . . .
30.1(28) . . .
31.3(30) . . .
38.6(33) . . .
30.1(30) . . .
29.1(30) . . .
31.5(29) . . .
34.2(31) . . .
36.9(33) . . .
40(4) . . .
30.5(29) . . .
33.0(30) . . .
32.1(30) . . .
31.0(30) . . .
30.8(31) . . .
38.5(33) . . .
33.4(30) . . .
34.7(30) . . .
32.3(29) . . .
34.8(31) . . .
29.0(28) . . .
28.0(27) . . .
24.9(26) . . .
24.0(26) . . .
33.3(33) . . .
37.4(33) . . .
32.3(29) . . .
35.3(31) . . .
37(4) . . .
38(4) . . .
29.6(30) . . .
36.9(31) . . .
32.9(32) . . .
27.4(28) . . .
25.3(28) . . .
28.1(30) . . .
27.9(28) . . .
30.8(30) . . .
26.5(27) . . .
22.4(24) . . .
29.2(29) . . .
27.2(28) . . .
31.6(30) . . .
25.0(26) . . .
28.8(31) . . .
28.0(29) . . .
32.3(29) . . .
29.2(29) . . .
23.1(25) . . .
33.1(31) . . .
37.0(34) . . .
30.1(28) . . .
30.3(29) . . .
23.8(26) . . .
29.6(31) . . .
30.8(30) . . .
27.4(27) . . .
24.1(26) . . .
31.4(32) . . .
26.7(27) . . .
32.8(30) . . .
31.2(30) . . .
25.4(27) . . .
30.5(32) . . .
25.5(27) . . .
28.9(28) . . .
26.5(27) . . .
27.6(28) . . .
36(4) . . .
28.1(30) . . .
27.4(27) . . .
32.1(31) . . .
26.3(27) . . .
35.2(33) . . .
32.1(31) . . .
26.9(29) . . .
34.5(31) . . .
30.0(27) . . .
37.0(34) . . .
38.6(32) . . .
31.8(29) . . .
33.9(31) . . .
27.7(29) . . .
29.1(31) . . .
26.4(27) . . .
31.2(29) . . .
38.3(32) . . .
23.6(26) . . .
26.5(28) . . .
28.5(29) . . .
32.2(30) . . .
35.6(33) . . .
27.6(28) . . .
31.9(32) . . .
29.0(29) . . .
30.2(28) . . .
35(4) . . .
32.7(32) . . .
26.8(27) . . .
22.0(24) . . .
27.7(27) . . .
20.4(24) . . .
29.8(30) . . .
40(4) . . .
32.1(29) . . .
41.6(34) . . .
32.5(30) . . .
34.3(33) . . .
31.9(30) . . .
27.7(28) . . .
32.5(30) . . .
29.5(30) . . .
30.5(31) . . .
32.4(31) . . .
22.8(25) . . .
35.7(31) . . .
35.5(32) . . .
35.7(33) . . .
33.8(33) . . .
36.7(34) . . .
36.2(31) . . .
27.9(27) . . .
31.4(31) . . .
37.3(33) . . .
35.3(31) . . .
32.8(30) . . .
31.4(29) . . .
39(4) . . .
33.7(32) . . .
36.4(31) . . .
33.0(30) . . .
28.1(29) . . .
32.3(32) . . .
34.9(31) . . .
40.2(33) . . .
32.0(31) . . .
31.3(33) . . .
40(4) . . .
31.5(30) . . .
34.8(30) . . .
31.8(32) . . .
32.5(32) . . .
34.2(32) . . .
25.2(28) . . .
26.0(27) . . .
25.3(27) . . .
29.4(28) . . .
28.7(28) . . .
27.5(27) . . .
29.0(29) . . .
41(4) . . .
37.2(34) . . .
36.7(31) . . .
39.7(33) . . .
32.0(29) . . .
30.8(29) . . .
33.3(31) . . .
31.2(30) . . .
29.0(28) . . .
28.6(28) . . .
28.2(28) . . .
28.5(31) . . .
23.6(26) . . .
24.7(26) . . .
31.9(29) . . .
31.3(31) . . .
23.0(25) . . .
34.0(32) . . .
28.6(28) . . .
27.1(28) . . .
28.4(30) . . .
26.8(28) . . .
30.2(29) . . .
30.9(29) . . .
31.2(29) . . .
37.0(35) . . .
27.9(30) . . .
31.7(29) . . .
35.4(31) . . .
38.6(34) . . .
30.3(29) . . .
29.4(31) . . .
33.1(32) . . .
29.5(28) . . .
24.5(27) . . .
28.7(28) . . .
34.3(35) . . .
28.6(30) . . .
29.2(28) . . .
24.8(26) . . .
27.3(29) . . .
26.0(27) . . .
28.6(30) . . .
30.5(29) . . .
34.7(31) . . .
27.8(29) . . .
33.1(32) . . .
23.5(25) . . .
30.7(30) . . .
40.9(34) . . .
31.4(32) . . .
26.8(27) . . .
32.4(31) . . .
27.8(27) . . .
21.2(25) . . .
35.2(34) . . .
36.5(33) . . .
26.5(27) . . .
33.0(30) . . .
29.6(30) . . .
30.5(32) . . .
29.1(30) . . .
25.1(26) . . .
29.9(28) . . .
33.9(30) . . .
35.1(31) . . .
31.5(30) . . .
28.4(29) . . .
34.9(32) . . .
36.2(32) . . .
35.9(35) . . .
28.4(28) . . .
23.8(26) . . .
24.5(25) . . .
25.5(27) . . .
37.0(35) . . .
36.8(32) . . .
33.9(30) . . .
38.0(33) . . .
36.7(33) . . .
34.5(34) . . .
26.5(28) . . .
35.5(31) . . .
30.4(29) . . .
29.7(29) . . .
29.1(30) . . .
30.0(30) . . .
36.4(32) . . .
31.0(29) . . .
37.4(34) . . .
35.3(33) . . .
29.4(28) . . .
31.6(29) . . .
25.5(27) . . .
28.6(28) . . .
35.1(32) . . .
22.5(26) . . .
29.4(28) . . .
34.1(33) . . .
37(4) . . .
28.4(28) . . .
32.1(30) . . .
33.0(31) . . .
35.5(33) . . .
31.1(31) . . .
27.2(27) . . .
39.2(34) . . .
37.9(32) . . .
33.3(34) . . .
28.1(29) . . .
43(4) . . .
34.7(30) . . .
26.5(27) . . .
26.4(29) . . .
28.3(31) . . .
41(4) . . .
42.5(34) . . .
34.2(30) . . .
22.5(25) . . .
30.5(32) . . .
33.2(31) . . .
36.6(31) . . .
37.6(31) . . .
37.0(33) . . .
39(4) . . .
34.2(33) . . .
27.0(28) . . .
33.4(29) . . .
29.4(29) . . .
36(4) . . .
26.5(29) . . .
26.7(27) . . .
25.7(27) . . .
32.2(30) . . .
27.6(28) . . .
31.2(30) . . .
30.4(29) . . .
27.5(28) . . .
23.8(26) . . .
27.1(26) . . .
29.7(29) . . .
30.3(30) . . .
37.3(33) . . .
33.2(31) . . .
24.8(27) . . .
28.3(27) . . .
37.0(32) . . .
29.3(29) . . .
30.3(30) . . .
29.2(29) . . .
29.3(29) . . .
35.0(31) . . .
22.2(25) . . .
25.5(29) . . .
26.2(29) . . .
30.3(29) . . .
31.8(29) . . .
32.9(31) . . .
31.2(32) . . .
22.0(27) . . .
27.2(27) . . .
31.3(29) . . .
36.0(32) . . .
31.3(29) . . .
26.2(26) . . .
36.5(31) . . .
31.2(29) . . .
33.8(32) . . .
30.7(31) . . .
32.0(32) . . .
25.0(26) . . .
32.3(30) . . .
39.8(35) . . .
29.7(29) . . .
33.7(31) . . .
25.9(27) . . .
27.5(28) . . .
29.1(30) . . .
32.4(33) . . .
26.2(27) . . .
27.9(28) . . .
36.2(31) . . .
37.6(33) . . .
24.6(25) . . .
39.9(34) . . .
25.5(27) . . .
28.9(28) . . .
27.5(28) . . .
25.5(29) . . .
26.3(28) . . .
28.2(28) . . .
29.4(29) . . .
27.8(28) . . .
33.7(33) . . .
34.2(32) . . .
31.5(29) . . .
30.0(28) . . .
31.7(31) . . .
23.5(27) . . .
36.1(35) . . .
38.4(33) . . .
32.4(30) . . .
35.8(32) . . .
27.5(28) . . .
28.3(28) . . .
23.0(25) . . .
35.0(31) . . .
28.7(29) . . .
35.5(34) . . .
29.7(28) . . .
31.0(30) . . .
27.9(30) . . .
27.7(27) . . .
30.3(31) . . .
30.6(29) . . .
24.5(26) . . .
28.1(28) . . .
32.3(33) . . .
36.0(35) . . .
36.3(32) . . .
35.4(31) . . .
33.4(31) . . .
27.1(28) . . .
21.3(25) . . .
28.7(28) . . .
35.7(31) . . .
24.7(26) . . .
30.7(30) . . .
28.0(27) . . .
24.4(25) . . .
23.2(25) . . .
33.4(31) . . .
29.1(30) . . .
34.5(33) . . .
34.7(31) . . .
31.3(31) . . .
30.1(30) . . .
29.2(28) . . .
27.0(27) . . .
34.7(31) . . .
36.0(32) . . .
31.3(29) . . .
34.6(32) . . .
29.5(29) . . .
41.0(33) . . .
24.9(26) . . .
35.2(34) . . .
31.5(30) . . .
34.0(32) . . .
26.0(26) . . .
21.1(24) . . .
25.5(28) . . .
22.8(25) . . .
27.2(27) . . .
31.1(29) . . .
26.3(26) . . .
35.9(33) . . .
28.8(28) . . .
35.8(32) . . .
31.2(29) . . .
38.8(34) . . .
31.1(30) . . .
31.8(32) . . .
28.6(28) . . .
36.4(31) . . .
28.4(28) . . .
32.0(33) . . .
30.9(30) . . .
36.8(32) . . .
33.4(30) . . .
42(4) . . .
24.9(27) . . .
31.3(30) . . .
34.4(30) . . .
31.2(29) . . .
30.1(32) . . .
24.5(25) . . .
30.4(29) . . .
28.8(28) . . .
28.9(28) . . .
30.5(30) . . .
33(4) . . .
34.0(32) . . .
33.0(29) . . .
31.6(30) . . .
34.3(31) . . .
30.1(29) . . .
29.4(29) . . .
30.8(29) . . .
34.9(31) . . .
28.8(29) . . .
36.9(35) . . .
27.2(30) . . .
32.0(30) . . .
31.1(30) . . .
34.1(32) . . .
35.5(33) . . .
35.1(32) . . .
27.5(27) . . .
32.7(31) . . .
26.5(29) . . .
18.5(24) . . .
27.5(28) . . .
29.5(28) . . .
30.0(28) . . .
34.7(32) . . .
28.1(29) . . .
35.2(32) . . .
30.1(29) . . .
36.2(34) . . .
28.7(28) . . .
42(4) . . .
24.1(26) . . .
23.9(26) . . .
31.5(31) . . .
28.2(31) . . .
23.5(27) . . .
34.0(31) . . .
32.1(30) . . .
35.9(31) . . .
34.3(32) . . .
29.1(28) . . .
40.3(34) . . .
31.8(30) . . .
29.6(28) . . .
34.2(32) . . .
36.1(32) . . .
36.8(32) . . .
27.6(28) . . .
35.6(32) . . .
29.3(27) . . .
35.1(31) . . .
32.8(30) . . .
30.9(30) . . .
27.8(28) . . .
30.9(29) . . .
36.7(34) . . .
36.8(33) . . .
33.0(31) . . .
24.9(26) . . .
36.6(34) . . .
31.6(29) . . .
33.7(30) . . .
25.5(27) . . .
35.0(35) . . .
26.9(28) . . .
28.7(29) . . .
30.2(29) . . .
33.6(32) . . .
30.3(29) . . .
30.7(33) . . .
28.0(28) . . .
32.3(29) . . .
32.4(30) . . .
31.7(30) . . .
38.5(35) . . .
29.8(30) . . .
34.5(30) . . .
33.2(30) . . .
33.0(31) . . .
27.0(27) . . .
32.3(29) . . .
32.9(30) . . .
34.7(32) . . .
31.5(32) . . .
28.2(28) . . .
32.0(30) . . .
33.9(30) . . .
31.5(30) . . .
35.1(33) . . .
25.1(27) . . .
25.0(26) . . .
33.5(30) . . .
32.5(32) . . .
23.3(26) . . .
36.3(34) . . .
30.0(29) . . .
39.3(33) . . .
28.8(29) . . .
34.2(33) . . .
29.7(29) . . .
24.4(26) . . .
27.4(28) . . .
32.1(30) . . .
37.0(35) . . .
30.8(33) . . .
31.3(30) . . .
35.1(33) . . .
35.5(31) . . .
29.4(29) . . .
27.2(28) . . .
29.5(28) . . .
28.9(28) . . .
36.8(35) . . .
27.5(27) . . .
37.5(33) . . .
31.6(30) . . .
38.0(33) . . .
25.9(27) . . .
31.9(30) . . .
34.0(32) . . .
36.3(32) . . .
27.8(27) . . .
26.3(27) . . .
29.7(29) . . .
32.9(31) . . .
34.1(30) . . .
26.1(27) . . .
32.8(32) . . .
32.3(30) . . .
34.4(30) . . .
32.2(30) . . .
25.4(28) . . .
29.0(29) . . .
31.4(29) . . .
30.9(29) . . .
38.8(32) . . .
29.8(29) . . .
30.6(31) . . .
37.5(33) . . .
31.4(29) . . .
29.8(29) . . .
40.9(35) . . .
26.6(30) . . .
20.1(23) . . .
32.6(30) . . .
31.2(29) . . .
34.4(31) . . .
30.8(31) . . .
25.0(27) . . .
25.9(27) . . .
25.0(26) . . .
34.0(34) . . .
30.4(32) . . .
32.4(33) . . .
27.0(27) . . .
37.1(32) . . .
36.9(33) . . .
29.3(29) . . .
31.3(30) . . .
36.7(35) . . .
33.7(30) . . .
23.8(27) . . .
21.5(24) . . .
29.9(31) . . .
23.8(25) . . .
34.6(32) . . .
30.6(30) . . .
21.2(25) . . .
33.5(31) . . .
34.5(31) . . .
27.1(28) . . .
35.6(32) . . .
35.7(33) . . .
27.5(27) . . .
37.8(32) . . .
33.6(31) . . .
26.7(27) . . .
33.4(31) . . .
31.5(30) . . .
24.9(27) . . .
30.0(29) . . .
32.0(32) . . .
28.6(28) . . .
29.6(30) . . .
29.1(28) . . .
22.3(25) . . .
32.9(33) . . .
26.8(29) . . .
26.6(27) . . .
29.4(29) . . .
25.8(27) . . .
32.0(30) . . .
34.6(31) . . .
29.5(28) . . .
21.1(24) . . .
17.7(22) . . .
33.1(33) . . .
36.7(33) . . .
33.2(30) . . .
32.7(29) . . .
28.3(28) . . .
24.5(28) . . .
23.5(26) . . .
35.1(31) . . .
24.8(27) . . .
29.3(29) . . .
37.3(35) . . .
25.6(28) . . .
27.5(28) . . .
32.2(30) . . .
26.0(27) . . .
32.0(31) . . .
28.8(30) . . .
26.8(27) . . .
28.9(28) . . .
26.7(28) . . .
23.8(26) . . .
28.1(28) . . .
32.2(30) . . .
25.4(27) . . .
30.1(29) . . .
29.9(30) . . .
28.6(30) . . .
27.8(27) . . .
30.6(30) . . .
29.3(30) . . .
25.7(27) . . .
28.2(28) . . .
30.9(29) . . .
33.1(31) . . .
27.6(28) . . .
25.7(26) . . .
36.6(33) . . .
29.8(28) . . .
20.5(23) . . .
33.8(32) . . .
33.7(32) . . .
24.9(26) . . .
28.3(28) . . .
29.1(28) . . .
28.5(30) . . .
21.2(26) . . .
33.7(31) . . .
34.0(31) . . .
30.8(31) . . .
24.9(28) . . .
26.5(29) . . .
32.1(30) . . .
38.8(32) . . .
32.8(33) . . .
31.3(32) . . .
22.6(24) . . .
31.6(30) . . .
27.9(28) . . .
25.9(27) . . .
27.0(28) . . .
26.5(28) . . .
34.6(31) . . .
36.5(31) . . .
41.2(34) . . .
32.6(32) . . .
33.1(31) . . .
38.9(32) . . .
36.6(33) . . .
32.6(32) . . .
32.6(31) . . .
31.3(31) . . .
34.1(30) . . .
31.2(29) . . .
24.9(26) . . .
43(4) . . .
39.6(35) . . .
32.5(30) . . .
27.8(32) . . .
29.6(31) . . .
29.3(30) . . .
33.0(30) . . .
29.1(28) . . .
29.6(31) . . .
28.6(31) . . .
28.9(30) . . .
24.9(26) . . .
30.4(29) . . .
29.7(30) . . .
37.0(32) . . .
30.2(29) . . .
29.2(29) . . .
29.4(28) . . .
36.1(33) . . .
44(4) . . .
36.3(34) . . .
26.5(27) . . .
30.6(29) . . .
25.0(26) . . .
24.4(29) . . .
26.5(28) . . .
29.7(28) . . .
30.7(28) . . .
19.7(23) . . .
27.9(29) . . .
23.1(25) . . .
30.0(29) . . .
32.5(29) . . .
32.6(30) . . .
27.8(30) . . .
29.3(31) . . .
26.4(26) . . .
30.4(29) . . .
23.4(25) . . .
37.5(34) . . .
28.7(29) . . .
27.2(27) . . .
32.0(31) . . .
40.9(34) . . .
33.8(31) . . .
26.9(27) . . .
35.3(31) . . .
40.2(33) . . .
32.0(30) . . .
33.9(31) . . .
36.1(34) . . .
35.5(31) . . .
24.8(26) . . .
25.8(28) . . .
29.5(31) . . .
37.5(33) . . .
31.3(29) . . .
30.4(35) . . .
25.9(29) . . .
30.9(30) . . .
34.5(31) . . .
26.4(27) . . .
35.5(33) . . .
25.1(27) . . .
27.0(29) . . .
25.5(26) . . .
31.9(29) . . .
30.8(29) . . .
29.9(29) . . .
29.4(28) . . .
34.7(31) . . .
26.9(27) . . .
30.3(31) . . .
29.4(30) . . .
33.7(31) . . .
27.1(28) . . .
41.5(34) . . .
44(4) . . .
29.9(32) . . .
38.3(34) . . .
28.5(28) . . .
39.3(32) . . .
24.6(25) . . .
34.2(35) . . .
29.8(29) . . .
30.7(29) . . .
29.9(29) . . .
34.7(32) . . .
34.2(34) . . .
25.0(26) . . .
29.9(29) . . .
26.1(28) . . .
34.5(34) . . .
36.8(33) . . .
28.2(29) . . .
24.7(26) . . .
28.1(28) . . .
31.7(30) . . .
30.4(30) . . .
34.9(31) . . .
32.6(29) . . .
25.2(27) . . .
32.2(32) . . .
23.8(26) . . .
21.1(26) . . .
36.8(32) . . .
31.1(31) . . .
35.9(33) . . .
29.7(28) . . .
28.7(29) . . .
31.2(29) . . .
28.9(29) . . .
27.7(29) . . .
34.0(31) . . .
33.0(30) . . .
25.5(26) . . .
42(4) . . .
36.7(33) . . .
35.9(32) . . .
34.2(32) . . .
26.0(26) . . .
33.9(31) . . .
29.5(28) . . .
36.0(32) . . .
26.9(27) . . .
29.0(28) . . .
31.6(31) . . .
31.6(31) . . .
35.1(31) . . .
36.0(31) . . .
38.2(32) . . .
38.7(34) . . .
29.8(34) . . .
28.7(30) . . .
23.3(25) . . .
36.8(31) . . .
31.0(29) . . .
36.3(33) . . .
30.8(30) . . .
32.9(30) . . .
34.8(30) . . .
34.8(31) . . .
33.8(30) . . .
31.0(31) . . .
29.9(29) . . .
26.9(30) . . .
31.1(31) . . .
26.2(27) . . .
31.9(30) . . .
39.3(33) . . .
34.7(33) . . .
31.5(30) . . .
30.1(31) . . .
30.1(31) . . .
34.8(30) . . .
32.3(31) . . .
32.2(33) . . .
38.8(35) . . .
24.5(26) . . .
26.4(26) . . .
38(4) . . .
34.9(32) . . .
35.1(32) . . .
22.2(24) . . .
32.7(30) . . .
29.1(28) . . .
37.8(34) . . .
23.6(27) . . .
29.4(28) . . .
33.3(30) . . .
41.1(34) . . .
39.0(34) . . .
32.6(29) . . .
33.9(30) . . .
34.2(31) . . .
20.5(25) . . .
31.3(33) . . .
35.6(33) . . .
28.9(30) . . .
23.2(25) . . .
28.0(28) . . .
32.3(33) . . .
36.7(34) . . .
30.6(29) . . .
35.4(32) . . .
31.1(31) . . .
29.3(32) . . .
22.9(25) . . .
28.0(28) . . .
26.2(27) . . .
28.5(30) . . .
31.3(33) . . .
31.5(30) . . .
27.7(27) . . .
28.6(28) . . .
33.6(32) . . .
28.1(29) . . .
25.8(27) . . .
32.0(30) . . .
31.3(30) . . .
33.3(32) . . .
31.0(32) . . .
30.5(29) . . .
29.3(28) . . .
27.6(27) . . .
33.3(32) . . .
25.2(26) . . .
28.7(28) . . .
22.6(25) . . .
30.2(29) . . .
27.2(28) . . .
27.9(30) . . .
28.3(29) . . .
30.9(29) . . .
30.7(29) . . .
36.2(33) . . .
29.7(30) . . .
35.2(32) . . .
30.4(30) . . .
31.7(31) . . .
31.2(32) . . .
23.9(25) . . .
32.0(29) . . .
25.1(26) . . .
29.9(28) . . .
26.6(27) . . .
31.7(29) . . .
28.4(28) . . .
25.1(27) . . .
31.2(30) . . .
37(4) . . .
30.0(30) . . .
33.1(30) . . .
27.4(28) . . .
27.9(29) . . .
29.6(29) . . .
27.8(28) . . .
29.1(29) . . .
28.5(28) . . .
31.6(29) . . .
30.3(29) . . .
28.3(29) . . .
33.2(30) . . .
35.0(31) . . .
28.0(28) . . .
24.4(27) . . .
25.8(27) . . .
36.0(31) . . .
35.3(32) . . .
34.2(32) . . .
26.9(27) . . .
34.2(30) . . .
24.6(26) . . .
29.5(28) . . .
38.7(35) . . .
33.2(31) . . .
35.8(31) . . .
40.9(33) . . .
31.9(29) . . .
23.9(25) . . .
30.1(29) . . .
32.1(29) . . .
24.6(26) . . .
30.4(30) . . .
30.2(31) . . .
29.5(31) . . .
37.3(32) . . .
40.6(33) . . .
38.9(34) . . .
33.4(33) . . .
27.7(28) . . .
31.8(31) . . .
28.3(28) . . .
31.7(33) . . .
24.4(27) . . .
34.0(31) . . .
28.8(27) . . .
43.9(35) . . .
32.0(29) . . .
30.7(32) . . .
27.9(29) . . .
35.4(31) . . .
28.0(28) . . .
34.8(32) . . .
37.0(34) . . .
33.5(32) . . .
30.9(29) . . .
34.5(31) . . .
35.2(31) . . .
30.2(28) . . .
34.5(32) . . .
31.0(29) . . .
33.4(30) . . .
25.4(27) . . .
28.9(29) . . .
31.1(29) . . .
32.3(29) . . .
24.7(26) . . .
20.0(24) . . .
26.6(29) . . .
30.3(31) . . .
32.1(29) . . .
32.4(30) . . .
30.1(29) . . .
31.0(29) . . .
37.4(33) . . .
30.6(29) . . .
26.4(28) . . .
33.2(32) . . .
27.1(28) . . .
23.7(28) . . .
26.9(26) . . .
35.7(33) . . .
30.2(29) . . .
30.4(30) . . .
30.0(29) . . .
36.7(31) . . .
29.4(29) . . .
29.8(29) . . .
33.7(31) . . .
35.0(30) . . .
28.4(28) . . .
23.6(25) . . .
27.8(30) . . .
31.1(29) . . .
38.5(35) . . .
29.6(28) . . .
28.6(30) . . .
25.9(30) . . .
26.4(29) . . .
30.6(29) . . .
36.2(32) . . .
25.2(27) . . .
26.1(28) . . .
26.5(29) . . .
24.5(25) . . .
27.2(27) . . .
29.8(29) . . .
32.5(32) . . .
33.9(32) . . .
28.9(28) . . .
28.0(28) . . .
32.0(31) . . .
27.0(28) . . .
27.3(27) . . .
33.8(30) . . .
33.2(32) . . .
32.1(29) . . .
32.1(31) . . .
25.7(27) . . .
30.7(30) . . .
34.0(32) . . .
26.4(29) . . .
25.6(28) . . .
25.3(27) . . .
29.1(28) . . .
27.7(28) . . .
27.0(28) . . .
29.8(30) . . .
37.0(33) . . .
28.8(28) . . .
33.4(31) . . .
41(4) . . .
38.1(32) . . .
25.5(27) . . .
28.8(29) . . .
26.1(28) . . .
36(4) . . .
36.4(32) . . .
32.7(30) . . .
33.2(30) . . .
30.3(30) . . .
29.2(30) . . .
26.6(29) . . .
26.8(29) . . .
23.0(25) . . .
27.3(27) . . .
36.5(34) . . .
37.0(32) . . .
27.6(28) . . .
27.8(28) . . .
30.9(32) . . .
24.8(27) . . .
31.3(31) . . .
24.1(25) . . .
27.9(27) . . .
38.2(33) . . .
31.9(31) . . .
24.3(25) . . .
30.6(29) . . .
24.5(27) . . .
21.2(25) . . .
30.5(31) . . .
36.6(32) . . .
23.4(26) . . .
22.1(25) . . .
32.9(33) . . .
27.1(28) . . .
35.0(33) . . .
24.8(25) . . .
27.9(29) . . .
29.5(30) . . .
28.7(30) . . .
31.7(30) . . .
25.7(26) . . .
30.9(29) . . .
23.3(25) . . .
34.5(33) . . .
27.3(28) . . .
20.7(24) . . .
27.8(28) . . .
30.6(31) . . .
28.3(28) . . .
32.8(31) . . .
33.9(30) . . .
25.6(26) . . .
29.1(30) . . .
31.8(31) . . .
27.6(27) . . .
44(4) . . .
32.7(32) . . .
24.5(28) . . .
27.2(29) . . .
23.4(26) . . .
27.8(28) . . .
33.9(31) . . .
30.6(31) . . .
31.9(31) . . .
30.8(29) . . .
27.6(27) . . .
32.1(31) . . .
29.1(29) . . .
33.8(31) . . .
27.9(28) . . .
26.2(27) . . .
29.8(29) . . .
29.8(29) . . .
29.3(29) . . .
25.4(27) . . .
27.2(27) . . .
30.2(29) . . .
32.4(31) . . .
35.5(32) . . .
26.9(27) . . .
35.1(31) . . .
26.5(26) . . .
28.6(28) . . .
28.5(28) . . .
26.3(27) . . .
30.6(29) . . .
30.0(29) . . .
38.3(35) . . .
28.6(30) . . .
21.6(25) . . .
28.0(29) . . .
35.6(32) . . .
32.4(30) . . .
29.9(29) . . .
29.3(28) . . .
26.6(27) . . .
37.8(34) . . .
27.2(27) . . .
32.5(30) . . .
37.8(32) . . .
30.0(29) . . .
32.7(31) . . .
36.5(33) . . .
26.1(27) . . .
32.0(30) . . .
32.7(34) . . .
29.5(31) . . .
31.5(30) . . .
30.9(29) . . .
24.3(26) . . .
38.9(34) . . .
32.1(31) . . .
32.3(30) . . .
36.1(31) . . .
36.8(32) . . .
35.7(32) . . .
26.7(28) . . .
28.1(32) . . .
24.1(25) . . .
36.8(32) . . .
23.1(26) . . .
25.3(28) . . .
24.8(26) . . .
33.7(31) . . .
33.0(30) . . .
37.8(33) . . .
38.4(34) . . .
26.4(27) . . .
36.5(32) . . .
27.9(28) . . .
30.1(30) . . .
27.0(28) . . .
23.9(25) . . .
29.0(28) . . .
31.8(29) . . .
30.7(29) . . .
36.4(32) . . .
33.0(30) . . .
32.8(29) . . .
38.5(33) . . .
35.8(33) . . .
25.8(28) . . .
37.1(32) . . .
25.2(26) . . .
30.1(29) . . .
31.7(32) . . .
21.5(25) . . .
33.4(31) . . .
24.0(25) . . .
25.2(28) . . .
32.1(33) . . .
27.4(29) . . .
22.6(25) . . .
32.1(29) . . .
29.0(29) . . .
36.3(35) . . .
35.8(34) . . .
30.8(30) . . .
25.4(26) . . .
30.5(30) . . .
27.4(31) . . .
28.4(28) . . .
35.9(31) . . .
35.3(31) . . .
29.4(28) . . .
35.4(33) . . .
29.7(29) . . .
32.2(29) . . .
29.5(28) . . .
24.9(27) . . .
29.9(32) . . .
22.3(24) . . .
39.9(34) . . .
28.1(28) . . .
25.4(28) . . .
28.5(29) . . .
30.1(28) . . .
32.4(30) . . .
36.0(34) . . .
29.4(30) . . .
33.6(32) . . .
33.8(31) . . .
27.2(27) . . .
34.7(31) . . .
36.5(32) . . .
26.6(27) . . .
18.7(22) . . .
30.4(28) . . .
26.3(27) . . .
27.4(28) . . .
35.3(34) . . .
28.3(28) . . .
31.4(29) . . .
28.4(29) . . .
28.0(29) . . .
30.3(30) . . .
35.9(33) . . .
34.4(31) . . .
31.5(30) . . .
27.9(28) . . .
31.6(29) . . .
29.7(29) . . .
29.7(28) . . .
28.9(27) . . .
32.0(30) . . .
29.2(29) . . .
28.6(29) . . .
29.3(28) . . .
29.0(29) . . .
32.1(34) . . .
31.0(35) . . .
29.9(30) . . .
31.3(30) . . .
25.8(27) . . .
32.8(32) . . .
39.4(34) . . .
39.8(33) . . .
26.0(27) . . .
30.9(29) . . .
28.9(30) . . .
30.4(30) . . .
24.8(26) . . .
26.7(29) . . .
23.9(25) . . .
29.0(28) . . .
29.6(28) . . .
39.4(33) . . .
29.4(28) . . .
26.9(28) . . .
31.2(31) . . .
34.9(33) . . .
35.5(32) . . .
23.4(25) . . .
28.6(29) . . .
30.9(29) . . .
34.5(31) . . .
33.3(30) . . .
33.8(30) . . .
28.1(28) . . .
28.7(29) . . .
30.0(29) . . .
28.3(28) . . .
26.0(27) . . .
30.3(32) . . .
30.4(30) . . .
36.6(33) . . .
26.9(27) . . .
30.8(30) . . .
24.7(27) . . .
21.5(24) . . .
28.3(28) . . .
21.5(24) . . .
28.5(33) . . .
26.0(31) . . .
32.2(31) . . .
26.4(27) . . .
32.1(30) . . .
41.1(34) . . .
27.8(29) . . .
28.9(29) . . .
34.2(31) . . .
26.9(28) . . .
29.6(29) . . .
30.0(30) . . .
33.6(31) . . .
29.9(29) . . .
33.1(30) . . .
29.3(29) . . .
30.9(32) . . .
30.3(30) . . .
26.3(27) . . .
34.9(32) . . .
35.4(33) . . .
26.2(28) . . .
21.6(24) . . .
30.4(28) . . .
24.1(26) . . .
33.4(31) . . .
33.2(32) . . .
25.0(28) . . .
30.8(29) . . .
29.7(29) . . .
21.4(23) . . .
29.5(29) . . .
26.9(28) . . .
24.0(25) . . .
33.6(30) . . .
31.4(28) . . .
27.7(29) . . .
31.1(32) . . .
27.0(27) . . .
20.4(24) . . .
28.2(28) . . .
37.0(34) . . .
33.6(31) . . .
27.0(27) . . .
29.9(29) . . .
28.3(28) . . .
23.8(26) . . .
31.3(31) . . .
34.2(31) . . .
30.9(30) . . .
34.5(34) . . .
26.6(27) . . .
32.1(31) . . .
38.4(32) . . .
38(4) . . .
24.7(26) . . .
31.8(32) . . .
37.2(32) . . .
39.2(33) . . .
32.2(31) . . .
28.9(29) . . .
26.1(26) . . .
30.5(29) . . .
36.8(31) . . .
26.1(27) . . .
27.2(29) . . .
31.1(29) . . .
34.9(32) . . .
28.7(29) . . .
36.9(34) . . .
32.7(34) . . .
29.3(30) . . .
30.8(29) . . .
27.5(28) . . .
20.9(24) . . .
33.5(35) . . .
30.3(30) . . .
30.1(29) . . .
25.9(28) . . .
38.1(35) . . .
33.5(34) . . .
32.1(31) . . .
39.5(32) . . .
30.1(29) . . .
37.0(34) . . .
24.9(27) . . .
30.8(30) . . .
25.4(27) . . .
28.3(28) . . .
34.2(33) . . .
28.0(30) . . .
31.1(32) . . .
34.3(31) . . .
26.5(30) . . .
29.1(29) . . .
37.3(34) . . .
26.0(29) . . .
28.2(28) . . .
25.6(27) . . .
22.7(25) . . .
31.0(31) . . .
25.6(26) . . .
34.6(31) . . .
30.1(28) . . .
29.1(30) . . .
28.5(28) . . .
31.9(29) . . .
33.5(31) . . .
33.7(30) . . .
25.9(28) . . .
26.7(28) . . .
30.6(29) . . .
36.7(31) . . .
30.2(28) . . .
30.6(31) . . .
22.4(25) . . .
21.4(25) . . .
27.6(27) . . .
33.0(30) . . .
30.1(29) . . .
39.0(35) . . .
34.0(31) . . .
30.3(29) . . .
37.3(35) . . .
32.0(30) . . .
22.4(25) . . .
26.6(27) . . .
27.1(27) . . .
34.9(34) . . .
36.8(33) . . .
25.0(27) . . .
26.4(26) . . .
32.4(30) . . .
30.3(31) . . .
36.0(34) . . .
31.4(29) . . .
30.7(29) . . .
31.5(29) . . .
30.6(29) . . .
22.9(25) . . .
34(4) . . .
32.5(29) . . .
29.8(29) . . .
24.9(25) . . .
25.6(25) . . .
27.8(28) . . .
29.9(29) . . .
23.7(25) . . .
34.5(32) . . .
34.1(33) . . .
26.9(29) . . .
29.3(29) . . .
28.0(28) . . .
33(4) . . .
29.0(30) . . .
25.5(26) . . .
35.2(31) . . .
36.5(32) . . .
45(4) . . .
28.3(28) . . .
37.0(33) . . .
32.5(31) . . .
24.2(26) . . .
30.6(29) . . .
37.3(33) . . .
31.9(31) . . .
24.4(26) . . .
29.5(29) . . .
25.5(28) . . .
27.8(30) . . .
36.8(32) . . .
39.8(33) . . .
30.8(30) . . .
24.4(27) . . .
25.6(28) . . .
32.0(30) . . .
42.3(34) . . .
31.4(29) . . .
26.8(28) . . .
27.2(28) . . .
32.1(29) . . .
35.5(31) . . .
23.9(26) . . .
38(4) . . .
35.1(33) . . .
36.6(32) . . .
36.3(32) . . .
28.1(29) . . .
27.1(29) . . .
24.7(26) . . .
37.3(33) . . .
33.9(30) . . .
35.6(34) . . .
33.0(30) . . .
34.0(31) . . .
23.4(25) . . .
33.2(31) . . .
27.9(27) . . .
30.8(30) . . .
35.0(32) . . .
30.9(28) . . .
27.0(28) . . .
24.0(27) . . .
26.8(27) . . .
32.3(30) . . .
33.0(30) . . .
43.4(35) . . .
30.7(30) . . .
23.5(24) . . .
36.3(32) . . .
29.1(28) . . .
28.6(29) . . .
28.2(29) . . .
27.4(27) . . .
29.9(28) . . .
25.9(26) . . .
27.4(28) . . .
27.4(30) . . .
34.1(31) . . .
24.5(26) . . .
21.5(25) . . .
22.8(26) . . .
23.1(27) . . .
32.3(30) . . .
36.4(32) . . .
30.6(29) . . .
26.7(28) . . .
27.0(29) . . .
35.0(31) . . .
32.5(30) . . .
25.5(26) . . .
35.4(31) . . .
35.5(33) . . .
24.6(26) . . .
26.7(27) . . .
31.4(30) . . .
30.7(30) . . .
31.1(30) . . .
29.5(31) . . .
33.0(30) . . .
20.0(24) . . .
23.7(28) . . .
25.0(28) . . .
25.0(26) . . .
22.4(25) . . .
25.0(26) . . .
31.9(29) . . .
28.6(32) . . .
27.3(28) . . .
30.7(29) . . .
26.0(26) . . .
29.6(29) . . .
36.2(33) . . .
29.3(30) . . .
29.2(29) . . .
35.2(34) . . .
29.3(29) . . .
29.3(28) . . .
28.9(28) . . .
40.2(32) . . .
34.2(33) . . .
27.5(29) . . .
25.7(27) . . .
30.1(29) . . .
39.2(33) . . .
25.6(27) . . .
28.3(31) . . .
27.9(29) . . .
25.7(26) . . .
19.1(24) . . .
37.3(34) . . .
29.1(30) . . .
32.0(30) . . .
32.3(31) . . .
34.5(30) . . .
32.9(30) . . .
31.8(31) . . .
31.4(30) . . .
35.6(31) . . .
27.3(27) . . .
28.0(29) . . .
25.4(26) . . .
40.1(34) . . .
34.5(31) . . .
31.8(31) . . .
30.2(29) . . .
29.3(29) . . .
25.9(28) . . .
22.8(25) . . .
29.4(31) . . .
30.3(30) . . .
28.2(30) . . .
28.9(28) . . .
34.1(31) . . .
26.8(27) . . .
29.0(30) . . .
31.2(30) . . .
30.8(30) . . .
32.3(30) . . .
36.2(33) . . .
32.4(33) . . .
24.6(27) . . .
31.9(30) . . .
35.9(31) . . .
26.3(27) . . .
31.1(31) . . .
25.0(27) . . .
31.5(30) . . .
32.6(29) . . .
28.3(29) . . .
27.4(28) . . .
29.8(29) . . .
33.0(30) . . .
33.8(30) . . .
32.5(30) . . .
35.1(32) . . .
30.4(28) . . .
27.7(27) . . .
34.8(32) . . .
30.1(29) . . .
35(4) . . .
32.5(32) . . .
25.5(26) . . .
29.6(28) . . .
24.7(28) . . .
30.8(32) . . .
35.4(32) . . .
33.4(30) . . .
29.0(28) . . .
34.5(32) . . .
29.6(29) . . .
27.1(30) . . .
27.1(27) . . .
33.8(31) . . .
31.9(31) . . .
29.7(30) . . .
30.9(30) . . .
32.0(30) . . .
31.1(29) . . .
35.3(34) . . .
33.7(32) . . .
30.3(29) . . .
25.5(27) . . .
29.7(28) . . .
34(4) . . .
28.5(29) . . .
24.7(26) . . .
27.0(26) . . .
30.0(29) . . .
36.9(33) . . .
27.3(27) . . .
35.4(32) . . .
30.1(29) . . .
26.4(28) . . .
30.6(30) . . .
30.4(31) . . .
27.4(27) . . .
28.3(27) . . .
34.6(32) . . .
33.2(33) . . .
36.7(34) . . .
31.9(30) . . .
32.5(29) . . .
31.0(31) . . .
29.6(31) . . .
33.0(34) . . .
27.7(27) . . .
27.2(28) . . .
35.9(33) . . .
41(4) . . .
26.4(27) . . .
26.4(26) . . .
40.0(34) . . .
23.2(27) . . .
27.5(31) . . .
20.8(25) . . .
26.5(27) . . .
30.8(29) . . .
20.7(25) . . .
32.5(33) . . .
30.3(29) . . .
28.1(28) . . .
26.0(27) . . .
32.4(31) . . .
26.7(28) . . .
31.1(30) . . .
34.5(31) . . .
32.5(30) . . .
36.8(34) . . .
38(4) . . .
32.2(30) . . .
24.2(25) . . .
25.8(28) . . .
30.1(31) . . .
29.4(31) . . .
23.9(26) . . .
27.0(27) . . .
33.7(32) . . .
34.3(33) . . .
32.9(30) . . .
30.3(30) . . .
28.0(27) . . .
25.3(27) . . .
39(4) . . .
37.7(35) . . .
32.6(32) . . .
26.7(27) . . .
29.4(30) . . .
29.9(31) . . .
31.0(31) . . .
28.3(27) . . .
32.6(30) . . .
27.7(28) . . .
25.4(28) . . .
30.3(29) . . .
36.6(33) . . .
26.7(28) . . .
29.7(29) . . .
32.0(31) . . .
29.2(29) . . .
23.8(25) . . .
33.9(31) . . .
30.8(30) . . .
31.8(31) . . .
28.7(30) . . .
27.6(27) . . .
28.8(29) . . .
25.3(27) . . .
31.3(29) . . .
33.2(32) . . .
28.1(28) . . .
27.7(27) . . .
30.4(30) . . .
28.0(30) . . .
24.4(26) . . .
28.4(28) . . .
29.3(28) . . .
25.5(30) . . .
22.8(25) . . .
28.7(28) . . .
36.5(32) . . .
25.8(27) . . .
27.9(28) . . .
36.5(34) . . .
26.7(27) . . .
33.5(31) . . .
36.0(34) . . .
28.0(30) . . .
39.0(34) . . .
34.5(31) . . .
35.5(31) . . .
43(4) . . .
31.6(29) . . .
30.9(30) . . .
32.0(30) . . .
34.0(31) . . .
22.8(26) . . .
27.2(31) . . .
28.4(31) . . .
32.5(30) . . .
20.9(24) . . .
29.0(29) . . .
27.0(28) . . .
26.3(28) . . .
20.3(23) . . .
33.9(32) . . .
21.9(25) . . .
27.6(29) . . .
29.8(30) . . .
22.7(26) . . .
30.8(29) . . .
22.9(25) . . .
26.7(30) . . .
33.5(31) . . .
28.0(27) . . .
31.7(29) . . .
29.7(32) . . .
26.8(29) . . .
32.5(31) . . .
24.5(26) . . .
29.4(28) . . .
29.3(30) . . .
28.7(30) . . .
35.1(33) . . .
34.6(30) . . .
34.2(31) . . .
30.5(29) . . .
26.1(26) . . .
29.4(30) . . .
27.0(27) . . .
25.6(27) . . .
27.1(29) . . .
33.5(32) . . .
31.2(29) . . .
31.0(29) . . .
31.9(30) . . .
29.6(29) . . .
26.0(28) . . .
25.6(27) . . .
28.8(28) . . .
30.6(30) . . .
29.9(30) . . .
32.1(31) . . .
29.5(29) . . .
38.1(32) . . .
35.7(32) . . .
28.5(31) . . .
20.1(24) . . .
34.3(31) . . .
29.7(29) . . .
33.4(31) . . .
30.4(31) . . .
34.3(32) . . .
34.5(31) . . .
33.9(31) . . .
38.3(35) . . .
26.8(29) . . .
24.9(27) . . .
22.1(24) . . .
26.0(27) . . .
35.8(35) . . .
22.0(26) . . .
25.6(30) . . .
29.3(31) . . .
30.5(28) . . .
35.6(33) . . .
34.3(33) . . .
32.3(32) . . .
32.3(29) . . .
31.3(29) . . .
26.3(27) . . .
29.4(29) . . .
28.6(29) . . .
26.1(27) . . .
27.5(28) . . .
29.6(31) . . .
27.7(27) . . .
31.9(30) . . .
31.2(29) . . .
28.9(28) . . .
26.7(29) . . .
19.9(22) . . .
30.2(30) . . .
30.8(29) . . .
28.4(29) . . .
28.9(32) . . .
29.6(31) . . .
31.9(30) . . .
26.7(27) . . .
28.7(29) . . .
28.6(30) . . .
25.2(28) . . .
36.9(33) . . .
30.0(29) . . .
26.7(27) . . .
27.2(27) . . .
27.5(28) . . .
24.0(25) . . .
29.8(29) . . .
35.5(34) . . .
29.0(30) . . .
25.1(27) . . .
19.8(23) . . .
26.4(27) . . .
28.3(28) . . .
28.9(31) . . .
27.4(29) . . .
22.8(25) . . .
34.5(31) . . .
26.3(27) . . .
30.5(32) . . .
27.7(28) . . .
24.3(26) . . .
38.1(33) . . .
28.5(28) . . .
28.4(30) . . .
26.5(27) . . .
33.5(30) . . .
32.3(29) . . .
31.3(28) . . .
32.7(30) . . .
35.7(31) . . .
30.6(29) . . .
27.6(28) . . .
32.7(31) . . .
28.4(30) . . .
33.9(33) . . .
27.0(28) . . .
33.0(31) . . .
24.5(26) . . .
33.6(32) . . .
31.8(29) . . .
26.4(27) . . .
32.4(30) . . .
26.7(28) . . .
28.7(30) . . .
31.3(31) . . .
31.6(30) . . .
17.5(23) . . .
25.3(26) . . .
28.2(29) . . .
26.1(27) . . .
30.3(28) . . .
32.0(31) . . .
26.2(27) . . .
27.8(27) . . .
30.8(29) . . .
29.3(28) . . .
25.1(26) . . .
38(4) . . .
27.0(27) . . .
29.9(29) . . .
35.8(32) . . .
30.6(29) . . .
32.4(33) . . .
30.7(28) . . .
31.7(30) . . .
25.5(26) . . .
22.1(24) . . .
29.3(31) . . .
20.6(24) . . .
32.9(30) . . .
33.3(31) . . .
29.5(31) . . .
21.5(26) . . .
21.4(24) . . .
34.4(31) . . .
31.1(29) . . .
29.6(30) . . .
23.8(26) . . .
32.5(32) . . .
42.8(34) . . .
29.2(28) . . .
40(4) . . .
33.6(32) . . .
33.4(30) . . .
28.5(28) . . .
27.5(29) . . .
29.0(28) . . .
32.2(30) . . .
31.1(29) . . .
31.1(29) . . .
27.8(27) . . .
31.8(31) . . .
33.4(31) . . .
29.5(30) . . .
31.5(30) . . .
38.8(33) . . .
24.1(25) . . .
21.3(24) . . .
27.7(27) . . .
27.4(28) . . .
31.7(30) . . .
29.9(32) . . .
32.6(31) . . .
31.4(30) . . .
23.7(25) . . .
28.0(27) . . .
34.4(32) . . .
27.9(27) . . .
38.6(34) . . .
27.6(27) . . .
30.8(30) . . .
24.8(27) . . .
27.5(27) . . .
30.4(28) . . .
29.6(28) . . .
26.6(27) . . .
38(4) . . .
27.8(28) . . .
26.7(27) . . .
31.3(29) . . .
27.9(29) . . .
22.9(28) . . .
31.3(32) . . .
25.2(26) . . .
24.3(26) . . .
26.7(27) . . .
28.5(28) . . .
40(4) . . .
29.6(28) . . .
22.7(25) . . .
31.6(32) . . .
30.6(31) . . .
29.3(30) . . .
32.9(30) . . .
30.5(29) . . .
31.9(31) . . .
23.4(28) . . .
28.1(31) . . .
41.7(33) . . .
28.8(30) . . .
32.0(32) . . .
30.3(31) . . .
23.3(25) . . .
30.5(29) . . .
23.0(26) . . .
26.0(27) . . .
30.1(31) . . .
33.1(31) . . .
24.1(26) . . .
30.4(30) . . .
31.6(30) . . .
36.6(31) . . .
32.0(29) . . .
25.1(27) . . .
24.2(25) . . .
24.7(28) . . .
29.7(30) . . .
35.9(33) . . .
24.9(25) . . .
32.1(32) . . .
25.3(28) . . .
32.2(30) . . .
28.3(29) . . .
20.8(25) . . .
32.9(32) . . .
27.7(29) . . .
28.1(29) . . .
31.0(29) . . .
25.2(27) . . .
24.9(27) . . .
38(4) . . .
33.7(30) . . .
34.8(31) . . .
27.4(28) . . .
28.7(31) . . .
22.2(26) . . .
31.3(31) . . .
22.6(25) . . .
29.0(29) . . .
27.1(29) . . .
32.3(32) . . .
29.6(29) . . .
27.5(28) . . .
28.1(28) . . .
22.9(24) . . .
33.9(32) . . .
32.8(31) . . .
31.0(29) . . .
41(4) . . .
24.0(26) . . .
26.2(29) . . .
28.2(28) . . .
24.0(26) . . .
32.3(31) . . .
32.5(32) . . .
30.7(29) . . .
28.7(30) . . .
22.2(24) . . .
25.0(26) . . .
30.7(31) . . .
29.9(31) . . .
22.4(25) . . .
25.3(26) . . .
22.4(25) . . .
24.1(31) . . .
19.8(26) . . .
28.0(28) . . .
31.5(30) . . .
31.5(30) . . .
25.1(27) . . .
22.7(25) . . .
35.8(33) . . .
32.5(31) . . .
40(4) . . .
30.9(32) . . .
21.5(26) . . .
24.8(26) . . .
25.6(26) . . .
30.4(30) . . .
26.5(29) . . .
28.5(30) . . .
34.9(31) . . .
31.0(29) . . .
24.2(26) . . .
32.3(32) . . .
30.3(29) . . .
32.8(30) . . .
29.1(30) . . .
28.9(29) . . .
37(4) . . .
28.3(28) . . .
27.5(27) . . .
28.7(28) . . .
33.0(30) . . .
25.9(26) . . .
37.2(32) . . .
38.8(33) . . .
29.6(30) . . .
30.6(31) . . .
28.3(29) . . .
26.8(27) . . .
33.1(29) . . .
28.0(29) . . .
36.4(34) . . .
32.0(30) . . .
32.0(31) . . .
29.2(28) . . .
25.5(26) . . .
31.6(30) . . .
30.7(29) . . .
38.2(33) . . .
27.0(27) . . .
27.0(28) . . .
33.7(34) . . .
29.7(30) . . .
31.8(30) . . .
26.8(27) . . .
30.8(29) . . .
32.9(31) . . .
28.7(28) . . .
22.5(24) . . .
30.5(29) . . .
35.6(31) . . .
40.5(35) . . .
39.8(34) . . .
31.5(29) . . .
21.8(25) . . .
31.3(31) . . .
26.7(28) . . .
31.1(31) . . .
27.8(27) . . .
35.0(32) . . .
29.1(29) . . .
26.5(27) . . .
28.4(29) . . .
31.0(29) . . .
30.7(29) . . .
25.0(26) . . .
35.9(34) . . .
28.2(28) . . .
29.7(29) . . .
35.3(34) . . .
29.1(28) . . .
30.2(29) . . .
27.2(28) . . .
30.1(28) . . .
28.1(29) . . .
32.5(32) . . .
35.1(34) . . .
27.6(28) . . .
33.0(30) . . .
28.5(27) . . .
32.1(30) . . .
40(4) . . .
32.2(30) . . .
30.7(30) . . .
27.6(30) . . .
27.6(26) . . .
39(4) . . .
31.8(32) . . .
28.6(28) . . .
33.1(30) . . .
25.9(27) . . .
30.2(29) . . .
29.7(29) . . .
23.9(26) . . .
24.1(27) . . .
32.4(35) . . .
25.7(28) . . .
28.8(29) . . .
27.0(27) . . .
25.9(26) . . .
24.0(26) . . .
26.9(26) . . .
36.0(31) . . .
32.7(29) . . .
29.3(31) . . .
38(4) . . .
29.2(30) . . .
33.1(30) . . .
26.2(26) . . .
22.9(25) . . .
25.3(28) . . .
21.6(25) . . .
25.6(26) . . .
23.9(26) . . .
26.6(29) . . .
27.9(30) . . .
30.3(28) . . .
33.0(30) . . .
32.0(30) . . .
34.2(31) . . .
26.8(28) . . .
27.7(28) . . .
30.6(29) . . .
38.0(33) . . .
31.2(31) . . .
25.6(28) . . .
27.8(28) . . .
35.0(31) . . .
28.7(29) . . .
30.5(32) . . .
23.4(27) . . .
22.9(25) . . .
22.3(25) . . .
37.5(34) . . .
27.8(29) . . .
33.7(33) . . .
29.7(31) . . .
28.8(29) . . .
30.5(31) . . .
30.6(30) . . .
28.5(28) . . .
25.9(26) . . .
27.0(28) . . .
33.7(31) . . .
29.6(28) . . .
32.4(30) . . .
37.8(32) . . .
31.6(29) . . .
28.8(30) . . .
26.1(29) . . .
21.5(25) . . .
25.4(28) . . .
30.1(28) . . .
26.8(28) . . .
25.7(28) . . .
19.7(24) . . .
22.6(25) . . .
24.5(26) . . .
30.8(30) . . .
28.3(28) . . .
29.9(29) . . .
35.3(31) . . .
30.1(28) . . .
33.2(32) . . .
28.6(29) . . .
24.6(27) . . .
29.5(28) . . .
26.8(27) . . .
25.1(26) . . .
26.4(28) . . .
28.8(29) . . .
36.0(32) . . .
21.8(25) . . .
28.8(30) . . .
27.4(30) . . .
27.4(30) . . .
31.0(29) . . .
22.8(25) . . .
32.7(32) . . .
33.1(32) . . .
33.0(30) . . .
29.9(29) . . .
29.1(28) . . .
31.8(31) . . .
34.3(33) . . .
33.1(31) . . .
22.4(24) . . .
33.5(32) . . .
29.7(29) . . .
29.0(29) . . .
29.8(28) . . .
27.4(27) . . .
32.0(31) . . .
32.7(32) . . .
29.7(29) . . .
33.8(31) . . .
34.0(31) . . .
27.6(29) . . .
29.3(28) . . .
37.7(32) . . .
28.3(28) . . .
31.5(29) . . .
31.9(31) . . .
31.4(32) . . .
27.9(29) . . .
34.8(31) . . .
29.6(29) . . .
28.6(28) . . .
32.2(31) . . .
31.3(29) . . .
29.6(30) . . .
23.7(26) . . .
24.8(27) . . .
36.0(31) . . .
38.4(32) . . .
28.3(28) . . .
35.9(32) . . .
28.3(28) . . .
27.9(28) . . .
31.0(32) . . .
25.8(26) . . .
20.7(24) . . .
30.6(29) . . .
36.5(33) . . .
24.0(26) . . .
24.5(26) . . .
27.9(28) . . .
35.3(34) . . .
31.0(32) . . .
26.1(28) . . .
34.4(31) . . .
39.4(33) . . .
27.9(29) . . .
29.5(29) . . .
28.2(28) . . .
30.8(29) . . .
31.1(31) . . .
31.3(31) . . .
28.2(31) . . .
30.8(30) . . .
26.0(27) . . .
31.1(32) . . .
24.1(27) . . .
28.2(30) . . .
33.8(31) . . .
33.1(30) . . .
30.7(30) . . .
21.3(25) . . .
25.2(27) . . .
25.1(26) . . .
27.2(27) . . .
25.8(29) . . .
28.5(28) . . .
26.8(27) . . .
31.2(29) . . .
25.7(28) . . .
26.9(31) . . .
29.3(29) . . .
32.8(30) . . .
31.6(29) . . .
26.3(27) . . .
28.5(29) . . .
36(4) . . .
31.0(30) . . .
33.1(30) . . .
28.9(28) . . .
26.6(28) . . .
37.0(35) . . .
28.8(28) . . .
29.4(29) . . .
31.3(30) . . .
28.2(28) . . .
23.8(26) . . .
29.3(32) . . .
29.9(29) . . .
28.9(28) . . .
26.7(29) . . .
24.3(27) . . .
24.8(27) . . .
33.3(30) . . .
32.1(30) . . .
32.6(31) . . .
31.3(31) . . .
25.5(27) . . .
24.7(26) . . .
29.0(29) . . .
34.9(31) . . .
32.9(31) . . .
28.8(28) . . .
22.0(24) . . .
28.5(32) . . .
33.3(32) . . .
25.2(27) . . .
23.4(25) . . .
24.5(27) . . .
32.3(32) . . .
25.3(27) . . .
25.6(27) . . .
21.5(24) . . .
21.8(25) . . .
22.5(25) . . .
31.3(29) . . .
41.4(34) . . .
30.0(29) . . .
19.0(23) . . .
32.5(32) . . .
26.0(28) . . .
28.1(31) . . .
36.1(31) . . .
32.1(31) . . .
24.3(25) . . .
29.3(31) . . .
23.8(28) . . .
34.9(31) . . .
27.0(27) . . .
30.9(30) . . .
30.8(31) . . .
29.1(29) . . .
28.4(28) . . .
34.7(32) . . .
26.0(27) . . .
26.1(27) . . .
28.6(29) . . .
26.4(27) . . .
22.3(24) . . .
31.0(31) . . .
28.4(30) . . .
29.5(30) . . .
29.2(28) . . .
38.0(32) . . .
32.0(29) . . .
29.2(30) . . .
38.8(34) . . .
32.1(30) . . .
24.5(27) . . .
30.7(31) . . .
25.7(26) . . .
25.9(28) . . .
27.1(27) . . .
27.3(28) . . .
24.2(28) . . .
35.3(34) . . .
27.1(28) . . .
28.8(28) . . .
26.6(27) . . .
27.2(28) . . .
36.0(33) . . .
40.9(34) . . .
32.1(30) . . .
25.5(28) . . .
30.5(31) . . .
24.4(25) . . .
27.6(27) . . .
25.7(26) . . .
25.7(26) . . .
33.6(32) . . .
27.9(30) . . .
32.3(29) . . .
33.8(30) . . .
23.6(26) . . .
23.3(27) . . .
36.2(32) . . .
34.9(31) . . .
25.9(26) . . .
23.5(26) . . .
27.3(28) . . .
21.7(24) . . .
27.0(27) . . .
28.3(28) . . .
30.3(30) . . .
23.5(25) . . .
29.2(31) . . .
28.4(27) . . .
30.8(29) . . .
36.1(32) . . .
34.3(31) . . .
26.8(29) . . .
30.7(29) . . .
34.4(31) . . .
33.3(31) . . .
35.1(34) . . .
33.4(31) . . .
32.9(30) . . .
34.3(33) . . .
22.5(24) . . .
34.6(32) . . .
31.6(30) . . .
27.6(28) . . .
37(4) . . .
34.2(33) . . .
29.7(30) . . .
33.7(31) . . .
25.0(26) . . .
30.0(30) . . .
32.8(32) . . .
27.8(28) . . .
25.9(28) . . .
28.6(28) . . .
29.9(29) . . .
28.0(28) . . .
38.1(33) . . .
33.0(30) . . .
29.3(28) . . .
34.1(32) . . .
26.5(29) . . .
29.3(29) . . .
27.4(28) . . .
34.8(32) . . .
33.0(32) . . .
30.2(30) . . .
27.4(29) . . .
25.2(26) . . .
27.6(28) . . .
26.4(29) . . .
30.1(32) . . .
28.9(29) . . .
34.6(30) . . .
35.6(32) . . .
33.8(30) . . .
32.7(32) . . .
22.7(26) . . .
35.5(32) . . .
26.6(28) . . .
25.8(29) . . .
33.5(32) . . .
33.7(31) . . .
25.3(26) . . .
30.5(30) . . .
25.2(25) . . .
31.8(31) . . .
27.3(29) . . .
31.6(29) . . .
21.6(25) . . .
30.8(32) . . .
29.7(30) . . .
32.1(31) . . .
33.0(30) . . .
29.3(29) . . .
23.2(26) . . .
30.2(31) . . .
28.8(29) . . .
39.2(33) . . .
32.5(30) . . .
29.1(29) . . .
24.1(27) . . .
21.3(24) . . .
31.7(29) . . .
31.1(32) . . .
33.0(32) . . .
27.8(27) . . .
32.2(30) . . .
28.4(28) . . .
23.3(25) . . .
31.8(32) . . .
29.0(28) . . .
30.3(29) . . .
30.8(29) . . .
24.3(27) . . .
26.5(30) . . .
26.1(28) . . .
26.6(27) . . .
31.4(30) . . .
32.2(34) . . .
26.3(29) . . .
32.2(31) . . .
27.3(27) . . .
29.5(29) . . .
27.2(29) . . .
25.4(28) . . .
28.9(30) . . .
29.6(28) . . .
34.5(32) . . .
25.3(28) . . .
27.3(29) . . .
32.6(32) . . .
29.3(28) . . .
27.8(28) . . .
24.0(26) . . .
37(4) . . .
26.1(27) . . .
31.4(29) . . .
22.3(26) . . .
33.3(31) . . .
32.5(31) . . .
28.9(28) . . .
28.9(28) . . .
22.9(25) . . .
30.7(31) . . .
23.5(27) . . .
28.5(28) . . .
30.5(29) . . .
32.5(30) . . .
35.5(33) . . .
31.1(31) . . .
29.1(29) . . .
24.1(26) . . .
23.1(26) . . .
20.4(24) . . .
25.4(27) . . .
32.7(29) . . .
32.5(31) . . .
34.3(34) . . .
25.0(29) . . .
29.4(29) . . .
23.1(26) . . .
30.7(29) . . .
38.4(33) . . .
37.3(34) . . .
33.3(31) . . .
38.5(34) . . .
30.6(28) . . .
37.1(33) . . .
31.4(30) . . .
23.4(26) . . .
26.4(27) . . .
15.5(20) . . .
29.5(30) . . .
29.0(30) . . .
31.9(32) . . .
26.4(27) . . .
28.6(28) . . .
31.4(32) . . .
21.6(26) . . .
33.5(32) . . .
28.9(28) . . .
28.6(28) . . .
33.2(31) . . .
32.5(31) . . .
30.1(29) . . .
28.0(28) . . .
32.8(31) . . .
32.0(32) . . .
26.2(28) . . .
30.0(30) . . .
23.4(26) . . .
34.7(31) . . .
33.0(32) . . .
34.0(31) . . .
33.6(30) . . .
36.0(31) . . .
33.5(31) . . .
32.1(30) . . .
27.7(27) . . .
24.8(26) . . .
32.2(29) . . .
31.3(30) . . .
24.6(27) . . .
18.7(23) . . .
24.4(26) . . .
35.0(31) . . .
23.6(27) . . .
23.5(28) . . .
33.0(32) . . .
29.9(28) . . .
30.4(28) . . .
26.8(28) . . .
30.0(31) . . .
31.1(31) . . .
23.5(25) . . .
28.1(28) . . .
30.6(30) . . .
33.6(33) . . .
27.5(30) . . .
28.0(29) . . .
29.3(28) . . .
37.4(32) . . .
30.8(29) . . .
30.5(30) . . .
32.3(30) . . .
23.0(25) . . .
29.7(30) . . .
23.9(25) . . .
26.7(29) . . .
40.7(34) . . .
30.2(31) . . .
27.0(27) . . .
28.5(30) . . .
27.1(28) . . .
27.0(27) . . .
32.7(31) . . .
26.9(30) . . .
26.2(30) . . .
20.7(28) . . .
20.7(24) . . .
27.8(29) . . .
31.6(32) . . .
29.4(29) . . .
32.1(31) . . .
22.2(25) . . .
30.0(32) . . .
32.5(32) . . .
29.4(30) . . .
20.9(24) . . .
27.2(27) . . .
29.2(30) . . .
26.4(28) . . .
30.1(30) . . .
30.4(28) . . .
29.0(28) . . .
25.8(27) . . .
25.0(27) . . .
33.2(33) . . .
36.5(32) . . .
32.2(30) . . .
31.5(31) . . .
34.4(32) . . .
34.5(32) . . .
27.5(28) . . .
27.4(27) . . .
25.7(26) . . .
27.5(30) . . .
22.3(25) . . .
29.1(28) . . .
28.8(28) . . .
24.8(26) . . .
37(4) . . .
22.0(26) . . .
26.2(27) . . .
32.2(30) . . .
30.1(28) . . .
28.2(28) . . .
33.6(31) . . .
27.6(27) . . .
29.0(28) . . .
22.5(24) . . .
26.3(27) . . .
35.0(31) . . .
25.6(27) . . .
31.3(29) . . .
29.3(28) . . .
26.6(29) . . .
31.4(31) . . .
31.5(29) . . .
27.0(28) . . .
26.3(29) . . .
31.3(31) . . .
27.3(27) . . .
31.9(29) . . .
29.0(29) . . .
32.8(31) . . .
33.4(31) . . .
36.5(31) . . .
31.8(30) . . .
26.1(27) . . .
32.1(33) . . .
31.1(30) . . .
31.5(29) . . .
24.4(26) . . .
30.7(29) . . .
31.7(31) . . .
35.8(31) . . .
32.4(31) . . .
25.7(28) . . .
20.2(24) . . .
28.1(31) . . .
23.1(26) . . .
37.8(33) . . .
37.7(33) . . .
25.0(26) . . .
29.0(29) . . .
35.2(32) . . .
28.5(28) . . .
25.7(26) . . .
24.8(27) . . .
25.6(27) . . .
27.5(29) . . .
36.1(31) . . .
28.7(28) . . .
33.7(34) . . .
32.6(32) . . .
28.9(31) . . .
30.6(29) . . .
31.0(29) . . .
31.6(30) . . .
30.6(28) . . .
32.5(31) . . .
28.5(27) . . .
31.6(31) . . .
31.0(30) . . .
26.1(27) . . .
29.2(31) . . .
35.7(31) . . .
29.4(29) . . .
29.5(31) . . .
26.2(27) . . .
31.0(29) . . .
30.4(28) . . .
27.8(28) . . .
40(4) . . .
27.4(29) . . .
30.0(28) . . .
25.7(27) . . .
33.6(34) . . .
29.6(30) . . .
33.9(32) . . .
24.7(26) . . .
39.5(34) . . .
28.0(28) . . .
32.0(32) . . .
27.1(27) . . .
30.7(29) . . .
30.2(29) . . .
27.2(28) . . .
23.8(26) . . .
26.9(28) . . .
27.8(29) . . .
29.9(28) . . .
25.9(26) . . .
28.3(29) . . .
30.9(30) . . .
37.0(31) . . .
32.6(30) . . .
23.1(24) . . .
32.4(32) . . .
31.0(29) . . .
30.0(29) . . .
33.4(30) . . .
23.9(26) . . .
26.0(28) . . .
29.2(29) . . .
27.0(26) . . .
29.8(29) . . .
28.6(29) . . .
27.6(28) . . .
27.9(28) . . .
37.5(32) . . .
34.1(31) . . .
35.8(32) . . .
33.9(32) . . .
33.2(31) . . .
34.4(30) . . .
29.4(29) . . .
26.8(27) . . .
32.2(30) . . .
39.7(33) . . .
25.8(28) . . .
17.7(22) . . .
30.4(29) . . .
34.4(32) . . .
29.1(29) . . .
27.3(28) . . .
27.6(28) . . .
33.7(33) . . .
28.3(29) . . .
28.2(27) . . .
31.4(29) . . .
25.0(25) . . .
32.2(31) . . .
32.0(31) . . .
32.8(30) . . .
30.2(28) . . .
25.6(28) . . .
27.6(31) . . .
33.9(33) . . .
26.6(27) . . .
30.3(29) . . .
22.7(26) . . .
26.9(29) . . .
30.2(29) . . .
31.0(29) . . .
28.7(29) . . .
32.3(31) . . .
39(4) . . .
24.1(26) . . .
41.6(35) . . .
33.5(30) . . .
34.9(33) . . .
33.4(32) . . .
31.9(29) . . .
39.5(33) . . .
26.6(26) . . .
32.8(30) . . .
25.5(26) . . .
28.8(28) . . .
30.1(28) . . .
30.4(30) . . .
23.8(25) . . .
30.5(30) . . .
28.5(29) . . .
17.4(22) . . .
31.2(31) . . .
29.8(30) . . .
31.5(31) . . .
34.9(32) . . .
34.5(30) . . .
28.1(29) . . .
31.3(30) . . .
39.2(34) . . .
35.0(33) . . .
30.0(28) . . .
34.3(33) . . .
28.4(28) . . .
26.1(28) . . .
30.7(30) . . .
30.2(28) . . .
33.1(31) . . .
35.9(33) . . .
30.7(30) . . .
32.1(31) . . .
29.3(28) . . .
30.1(30) . . .
38.1(35) . . .
31.1(30) . . .
31.9(31) . . .
26.8(27) . . .
27.7(28) . . .
23.0(25) . . .
30.6(30) . . .
29.7(28) . . .
32.7(32) . . .
32.8(31) . . .
30.3(31) . . .
38.0(34) . . .
20.3(24) . . .
21.6(24) . . .
29.6(29) . . .
29.6(29) . . .
28.1(29) . . .
30.7(29) . . .
29.9(29) . . .
29.0(28) . . .
33.2(32) . . .
28.8(29) . . .
27.5(28) . . .
26.1(27) . . .
33.7(31) . . .
28.1(28) . . .
19.3(23) . . .
32.1(29) . . .
26.4(27) . . .
28.1(29) . . .
25.0(28) . . .
24.1(26) . . .
29.1(28) . . .
26.1(27) . . .
27.3(27) . . .
26.7(28) . . .
30.9(30) . . .
27.6(28) . . .
29.5(29) . . .
31.0(31) . . .
27.8(29) . . .
29.2(30) . . .
33.5(30) . . .
28.6(28) . . .
29.9(30) . . .
29.8(31) . . .
23.1(25) . . .
25.0(26) . . .
30.9(29) . . .
35.8(34) . . .
30.6(30) . . .
33.9(32) . . .
31.9(29) . . .
28.8(29) . . .
40.0(35) . . .
35.8(31) . . .
29.1(28) . . .
27.9(28) . . .
27.4(28) . . .
26.0(29) . . .
28.8(30) . . .
26.8(28) . . .
33.5(30) . . .
29.0(28) . . .
25.3(28) . . .
20.9(26) . . .
25.0(26) . . .
25.9(27) . . .
33.6(34) . . .
24.6(27) . . .
22.2(26) . . .
21.6(24) . . .
38.3(35) . . .
27.4(28) . . .
30.1(29) . . .
29.0(28) . . .
28.6(28) . . .
26.5(28) . . .
27.4(29) . . .
34.0(32) . . .
31.6(29) . . .
25.6(27) . . .
27.8(28) . . .
26.7(29) . . .
22.1(26) . . .
31.8(31) . . .
27.7(28) . . .
27.8(29) . . .
31.8(33) . . .
26.6(26) . . .
25.4(27) . . .
27.7(27) . . .
30.0(28) . . .
27.5(31) . . .
30.4(31) . . .
32.2(31) . . .
33.7(31) . . .
33.9(30) . . .
35.7(34) . . .
26.9(27) . . .
25.3(26) . . .
27.1(27) . . .
27.2(28) . . .
27.1(28) . . .
31.4(30) . . .
32.4(30) . . .
28.2(28) . . .
33.2(31) . . .
30.5(31) . . .
20.1(25) . . .
27.6(28) . . .
30.9(29) . . .
29.5(28) . . .
28.0(28) . . .
31.7(29) . . .
27.2(27) . . .
28.5(28) . . .
24.2(25) . . .
28.9(29) . . .
30.0(30) . . .
30.3(29) . . .
23.8(25) . . .
30.4(29) . . .
31.9(29) . . .
31.4(31) . . .
31.0(29) . . .
30.6(29) . . .
28.6(28) . . .
32.7(31) . . .
35.1(31) . . .
39.5(33) . . .
23.9(28) . . .
26.2(28) . . .
33.2(31) . . .
35.2(32) . . .
28.2(27) . . .
28.2(29) . . .
32.9(31) . . .
23.9(25) . . .
27.7(28) . . .
22.9(26) . . .
27.5(29) . . .
25.8(28) . . .
37(4) . . .
34.3(31) . . .
22.0(25) . . .
37.0(33) . . .
28.3(28) . . .
21.8(24) . . .
31.6(32) . . .
23.0(25) . . .
31.6(30) . . .
27.0(28) . . .
31.0(30) . . .
34.3(31) . . .
36.7(32) . . .
32.7(30) . . .
27.4(28) . . .
32.9(32) . . .
28.7(28) . . .
34.1(31) . . .
29.0(28) . . .
24.8(27) . . .
24.3(27) . . .
26.6(27) . . .
25.2(27) . . .
27.4(28) . . .
34.8(32) . . .
30.0(30) . . .
26.3(27) . . .
31.3(29) . . .
34.0(32) . . .
29.3(29) . . .
25.5(27) . . .
31.3(29) . . .
28.9(30) . . .
22.4(24) . . .
28.5(29) . . .
32.4(33) . . .
33.2(30) . . .
27.5(30) . . .
23.8(28) . . .
34.7(33) . . .
32.8(30) . . .
38.7(31) . . .
32.6(31) . . .
27.0(28) . . .
27.8(28) . . .
29.9(29) . . .
34.3(30) . . .
26.6(28) . . .
36.7(34) . . .
30.8(30) . . .
29.4(30) . . .
25.5(26) . . .
26.4(27) . . .
31.5(30) . . .
31.2(29) . . .
26.8(28) . . .
31.2(29) . . .
28.8(29) . . .
31.3(31) . . .
24.7(27) . . .
30.2(30) . . .
29.8(28) . . .
29.1(29) . . .
33.3(33) . . .
27.3(28) . . .
35.2(33) . . .
32.6(30) . . .
33.3(33) . . .
22.4(28) . . .
31.6(32) . . .
24.7(26) . . .
24.2(25) . . .
30.2(30) . . .
23.4(26) . . .
30.6(31) . . .
34.9(30) . . .
36.0(31) . . .
30.0(30) . . .
26.8(29) . . .
31.7(30) . . .
30.9(29) . . .
26.9(27) . . .
25.8(26) . . .
17.8(21) . . .
23.3(25) . . .
30.9(29) . . .
27.8(28) . . .
33.1(32) . . .
34.5(31) . . .
27.9(30) . . .
32.0(30) . . .
35.0(30) . . .
34.4(33) . . .
25.6(28) . . .
24.7(26) . . .
24.5(26) . . .
34.4(32) . . .
32.0(30) . . .
29.6(29) . . .
32.6(30) . . .
26.7(29) . . .
25.9(28) . . .
23.1(26) . . .
28.4(28) . . .
25.6(27) . . .
34.8(31) . . .
31.6(32) . . .
27.3(31) . . .
29.7(30) . . .
26.4(28) . . .
28.1(28) . . .
32.2(29) . . .
26.3(27) . . .
29.4(28) . . .
28.8(28) . . .
30.7(29) . . .
24.6(26) . . .
27.3(32) . . .
25.0(27) . . .
23.8(26) . . .
29.2(28) . . .
24.6(26) . . .
24.0(26) . . .
27.8(30) . . .
30.9(29) . . .
27.2(27) . . .
27.8(30) . . .
30.0(30) . . .
29.7(29) . . .
26.8(27) . . .
22.3(24) . . .
26.2(29) . . .
29.7(31) . . .
38.2(34) . . .
31.7(29) . . .
29.3(28) . . .
24.0(26) . . .
28.0(28) . . .
22.3(25) . . .
30.3(28) . . .
23.9(26) . . .
37(4) . . .
29.1(29) . . .
35.2(31) . . .
37.6(32) . . .
32.2(30) . . .
30.8(30) . . .
33.7(32) . . .
25.4(27) . . .
33.7(31) . . .
31.1(30) . . .
28.5(31) . . .
34.1(32) . . .
25.5(27) . . .
21.5(25) . . .
23.7(28) . . .
24.3(28) . . .
26.0(30) . . .
28.1(28) . . .
39.7(33) . . .
30.1(29) . . .
29.2(30) . . .
26.7(28) . . .
26.1(28) . . .
24.3(27) . . .
33.1(29) . . .
32.0(30) . . .
29.3(29) . . .
28.0(28) . . .
29.2(29) . . .
28.8(29) . . .
33.2(31) . . .
35.4(31) . . .
33.9(30) . . .
26.6(27) . . .
32.2(32) . . .
21.2(26) . . .
29.2(29) . . .
20.8(23) . . .
33.1(30) . . .
30.1(30) . . .
31.4(30) . . .
28.0(28) . . .
29.8(28) . . .
34.9(31) . . .
30.4(30) . . .
28.2(29) . . .
24.1(25) . . .
32.6(30) . . .
27.8(28) . . .
28.8(28) . . .
32.2(32) . . .
31.5(32) . . .
25.7(26) . . .
26.8(27) . . .
29.9(29) . . .
24.7(26) . . .
29.6(29) . . .
32.7(30) . . .
23.5(25) . . .
23.5(26) . . .
31.7(33) . . .
29.2(28) . . .
29.5(28) . . .
33.3(31) . . .
23.8(25) . . .
27.6(31) . . .
30.0(31) . . .
34.1(31) . . .
25.1(29) . . .
25.3(28) . . .
24.8(25) . . .
30.1(28) . . .
31.4(29) . . .
32.3(31) . . .
25.9(28) . . .
21.3(26) . . .
31.4(31) . . .
30.0(28) . . .
34.9(32) . . .
28.9(31) . . .
34.9(33) . . .
25.3(27) . . .
25.6(28) . . .
28.0(27) . . .
37.3(33) . . .
30.2(29) . . .
37.0(32) . . .
26.0(27) . . .
25.9(28) . . .
25.1(28) . . .
27.4(28) . . .
33.3(30) . . .
31.5(32) . . .
28.6(29) . . .
26.1(28) . . .
28.0(29) . . .
28.2(28) . . .
22.2(24) . . .
22.7(26) . . .
26.5(28) . . .
29.1(29) . . .
30.2(28) . . .
25.9(26) . . .
32.2(30) . . .
27.5(26) . . .
25.6(28) . . .
23.2(25) . . .
30.1(29) . . .
34.4(34) . . .
24.5(27) . . .
35.1(32) . . .
32.0(31) . . .
33.5(31) . . .
26.5(27) . . .
28.7(29) . . .
28.9(30) . . .
30.7(29) . . .
25.4(28) . . .
30.1(32) . . .
26.3(27) . . .
34.4(30) . . .
34.2(30) . . .
29.5(28) . . .
31.3(31) . . .
35.7(34) . . .
28.9(28) . . .
27.5(27) . . .
23.6(26) . . .
31.9(32) . . .
34.3(31) . . .
32.0(29) . . .
32.7(29) . . .
28.0(28) . . .
37.1(35) . . .
34.5(32) . . .
33.8(30) . . .
24.8(25) . . .
28.1(27) . . .
32.9(32) . . .
22.8(26) . . .
23.5(26) . . .
26.5(28) . . .
32.2(31) . . .
29.9(31) . . .
28.4(28) . . .
25.6(26) . . .
32.9(30) . . .
32.2(33) . . .
31.6(30) . . .
26.0(27) . . .
25.1(27) . . .
25.4(27) . . .
30.3(30) . . .
33.9(34) . . .
26.6(28) . . .
29.6(29) . . .
16.5(22) . . .
35.6(34) . . .
28.4(28) . . .
28.6(28) . . .
31.4(29) . . .
28.9(30) . . .
27.0(28) . . .
22.7(25) . . .
26.3(26) . . .
28.1(29) . . .
28.1(27) . . .
33.6(32) . . .
31.7(31) . . .
22.4(24) . . .
33.4(30) . . .
28.4(28) . . .
28.6(28) . . .
34.5(31) . . .
33.1(31) . . .
36.4(31) . . .
27.6(27) . . .
31.7(31) . . .
32.8(32) . . .
33.5(30) . . .
28.4(28) . . .
26.9(28) . . .
26.5(28) . . .
30.7(30) . . .
35.0(31) . . .
39.2(33) . . .
30.4(30) . . .
28.5(31) . . .
29.7(31) . . .
30.0(28) . . .
29.6(29) . . .
25.3(26) . . .
27.3(28) . . .
32.6(31) . . .
35.2(31) . . .
25.4(27) . . .
29.1(28) . . .
38(4) . . .
31.6(30) . . .
22.6(25) . . .
23.3(25) . . .
28.2(31) . . .
27.8(30) . . .
31.0(29) . . .
25.1(26) . . .
39(4) . . .
25.2(27) . . .
38.7(35) . . .
31.4(30) . . .
32.2(30) . . .
26.5(29) . . .
26.7(29) . . .
33.0(31) . . .
30.0(29) . . .
26.8(27) . . .
25.5(29) . . .
25.8(28) . . .
27.7(28) . . .
28.3(27) . . .
36.3(31) . . .
25.1(26) . . .
28.5(31) . . .
31.9(31) . . .
29.3(28) . . .
37.8(34) . . .
23.8(26) . . .
29.6(30) . . .
30.8(31) . . .
25.0(27) . . .
28.8(28) . . .
35.0(33) . . .
32.6(32) . . .
25.1(26) . . .
25.4(28) . . .
30.8(28) . . .
38.5(33) . . .
36.7(33) . . .
30.8(29) . . .
28.9(28) . . .
27.0(28) . . .
36.5(33) . . .
29.4(28) . . .
32.9(34) . . .
32.4(30) . . .
28.2(27) . . .
28.0(27) . . .
24.2(25) . . .
20.2(23) . . .
25.5(27) . . .
27.2(27) . . .
22.3(25) . . .
35.0(32) . . .
28.3(28) . . .
24.6(26) . . .
28.0(28) . . .
24.6(28) . . .
29.4(30) . . .
28.2(28) . . .
33.6(30) . . .
25.9(26) . . .
31.2(30) . . .
31.0(30) . . .
26.0(27) . . .
30.0(28) . . .
27.7(29) . . .
26.6(29) . . .
26.9(29) . . .
34.9(31) . . .
26.1(27) . . .
26.8(29) . . .
37(4) . . .
40(4) . . .
30.6(30) . . .
32.2(29) . . .
34.7(31) . . .
32.8(31) . . .
27.1(28) . . .
23.0(25) . . .
31.0(29) . . .
28.0(28) . . .
21.9(27) . . .
33.7(34) . . .
26.8(27) . . .
30.6(29) . . .
26.9(29) . . .
31.1(30) . . .
26.7(28) . . .
27.2(28) . . .
32.9(30) . . .
29.5(29) . . .
24.1(27) . . .
25.5(28) . . .
23.5(25) . . .
24.7(27) . . .
21.2(26) . . .
30.7(32) . . .
27.5(28) . . .
35.4(31) . . .
28.2(30) . . .
24.0(27) . . .
31.4(33) . . .
23.8(26) . . .
24.5(26) . . .
31.7(30) . . .
33.2(32) . . .
31.0(30) . . .
32.7(31) . . .
35.3(31) . . .
22.7(26) . . .
34.5(35) . . .
28.3(29) . . .
23.5(25) . . .
25.1(26) . . .
24.3(25) . . .
26.5(29) . . .
27.5(28) . . .
28.4(27) . . .
33.1(31) . . .
31.2(31) . . .
31.7(31) . . .
34.6(32) . . .
33.8(30) . . .
34.3(31) . . .
24.7(26) . . .
28.1(30) . . .
32.2(31) . . .
29.4(29) . . .
24.8(25) . . .
27.8(28) . . .
29.9(31) . . .
32.1(32) . . .
26.3(28) . . .
27.5(27) . . .
37(4) . . .
25.2(28) . . .
28.5(29) . . .
27.2(27) . . .
30.7(29) . . .
27.5(27) . . .
32.9(33) . . .
29.9(30) . . .
25.6(26) . . .
28.6(29) . . .
19.3(22) . . .
29.7(30) . . .
31.6(32) . . .
27.5(27) . . .
22.8(26) . . .
25.0(27) . . .
29.1(29) . . .
24.8(26) . . .
31.6(29) . . .
29.2(29) . . .
35.4(34) . . .
19.5(24) . . .
22.3(25) . . .
25.9(27) . . .
26.7(27) . . .
26.5(28) . . .
28.9(28) . . .
35.7(32) . . .
28.1(28) . . .
18.1(23) . . .
26.9(29) . . .
31.2(30) . . .
25.1(26) . . .
34.6(31) . . .
32.4(31) . . .
27.0(30) . . .
25.7(27) . . .
41.3(34) . . .
27.5(28) . . .
28.0(28) . . .
25.2(27) . . .
32.0(30) . . .
29.1(28) . . .
27.9(27) . . .
35.5(32) . . .
29.0(31) . . .
27.9(29) . . .
25.8(26) . . .
25.8(28) . . .
26.6(28) . . .
31.5(30) . . .
30.3(28) . . .
28.5(28) . . .
30.0(29) . . .
32.3(30) . . .
30.1(30) . . .
27.9(28) . . .
35.2(31) . . .
35.1(33) . . .
34.9(31) . . .
32.7(30) . . .
24.5(26) . . .
32.7(30) . . .
31.3(29) . . .
27.2(29) . . .
27.9(30) . . .
32.6(32) . . .
32.6(30) . . .
23.0(26) . . .
30.5(30) . . .
22.1(26) . . .
24.3(27) . . .
31.2(29) . . .
26.2(27) . . .
20.6(23) . . .
30.8(31) . . .
28.3(28) . . .
28.0(28) . . .
32.2(30) . . .
33.5(31) . . .
30.8(28) . . .
29.6(29) . . .
37.9(32) . . .
28.9(29) . . .
23.2(27) . . .
29.2(30) . . .
25.2(26) . . .
32.7(30) . . .
25.4(26) . . .
35.0(33) . . .
37.1(34) . . .
21.4(24) . . .
28.7(28) . . .
35.4(32) . . .
30.7(33) . . .
29.0(30) . . .
30.0(29) . . .
32.3(31) . . .
26.0(27) . . .
37.6(34) . . .
39.2(33) . . .
27.8(29) . . .
22.4(25) . . .
33.9(32) . . .
25.5(26) . . .
29.7(28) . . .
39.2(33) . . .
31.7(30) . . .
27.4(26) . . .
29.8(29) . . .
36.0(32) . . .
36.4(31) . . .
33.6(31) . . .
29.6(30) . . .
28.9(30) . . .
34.1(33) . . .
27.8(27) . . .
26.0(33) . . .
16.1(21) . . .
28.0(29) . . .
21.9(25) . . .
29.5(29) . . .
27.3(28) . . .
23.9(26) . . .
30.9(30) . . .
24.0(27) . . .
22.5(24) . . .
33.4(31) . . .
26.6(28) . . .
23.3(24) . . .
30.7(30) . . .
21.9(25) . . .
24.1(26) . . .
30.1(31) . . .
23.9(25) . . .
28.3(27) . . .
36.0(32) . . .
25.9(28) . . .
28.8(31) . . .
27.5(28) . . .
37.3(31) . . .
29.1(28) . . .
27.2(29) . . .
27.1(27) . . .
31.3(29) . . .
33.3(30) . . .
24.7(26) . . .
33.1(31) . . .
30.2(29) . . .
27.1(26) . . .
29.6(28) . . .
27.7(28) . . .
27.9(28) . . .
26.1(27) . . .
34.4(31) . . .
34.0(31) . . .
27.0(28) . . .
32.2(30) . . .
27.8(28) . . .
26.8(27) . . .
32.8(29) . . .
32.2(29) . . .
35.9(31) . . .
35.6(34) . . .
32.8(31) . . .
31.6(29) . . .
26.4(27) . . .
28.9(29) . . .
30.4(29) . . .
30.3(29) . . .
26.9(28) . . .
29.1(29) . . .
27.4(29) . . .
33.0(32) . . .
29.4(28) . . .
29.0(29) . . .
25.6(28) . . .
28.5(30) . . .
25.8(27) . . .
28.9(29) . . .
30.4(29) . . .
26.3(28) . . .
26.1(31) . . .
24.0(27) . . .
30.8(29) . . .
33.5(31) . . .
20.5(23) . . .
30.2(31) . . .
29.0(29) . . .
27.7(29) . . .
27.1(27) . . .
28.8(29) . . .
26.8(29) . . .
27.6(28) . . .
32.5(30) . . .
36.0(31) . . .
19.3(22) . . .
25.6(29) . . .
24.9(27) . . .
27.8(29) . . .
23.1(25) . . .
38(4) . . .
28.1(30) . . .
29.2(30) . . .
29.7(28) . . .
23.5(25) . . .
23.0(25) . . .
33.8(34) . . .
34.9(32) . . .
25.5(28) . . .
30.1(29) . . .
27.5(29) . . .
30.8(33) . . .
32.8(31) . . .
26.4(27) . . .
25.4(28) . . .
24.3(26) . . .
34.7(32) . . .
31.9(29) . . .
26.7(27) . . .
34.7(33) . . .
25.6(28) . . .
26.0(27) . . .
33.9(32) . . .
27.2(27) . . .
27.4(31) . . .
34.1(34) . . .
27.0(29) . . .
25.2(26) . . .
25.5(26) . . .
28.6(28) . . .
33.8(31) . . .
30.6(28) . . .
28.4(28) . . .
35.8(31) . . .
29.4(29) . . .
24.4(28) . . .
28.7(30) . . .
26.5(27) . . .
34.7(31) . . .
34.2(31) . . .
36.2(32) . . .
35.0(32) . . .
28.7(28) . . .
22.4(25) . . .
27.1(28) . . .
30.7(29) . . .
32.0(31) . . .
28.4(28) . . .
31.4(30) . . .
30.2(32) . . .
25.3(29) . . .
31.0(31) . . .
28.6(28) . . .
27.0(29) . . .
20.9(24) . . .
28.1(29) . . .
32.8(31) . . .
34.0(30) . . .
25.1(28) . . .
25.9(28) . . .
28.1(28) . . .
33.7(31) . . .
33.2(31) . . .
31.2(29) . . .
31.3(29) . . .
31.9(31) . . .
27.8(28) . . .
31.5(30) . . .
30.2(30) . . .
24.7(27) . . .
26.7(28) . . .
25.6(28) . . .
32.5(30) . . .
26.1(27) . . .
24.3(27) . . .
29.1(30) . . .
29.9(29) . . .
28.0(28) . . .
29.9(29) . . .
25.2(27) . . .
24.2(26) . . .
27.5(28) . . .
34.5(31) . . .
32.9(30) . . .
27.3(28) . . .
26.4(28) . . .
31.8(31) . . .
27.8(28) . . .
34.8(34) . . .
27.1(26) . . .
32.2(29) . . .
32.4(30) . . .
25.6(26) . . .
24.2(25) . . .
22.9(26) . . .
24.5(26) . . .
32.6(29) . . .
30.2(29) . . .
38.1(34) . . .
24.4(25) . . .
32.5(30) . . .
32.6(29) . . .
32.4(30) . . .
27.4(28) . . .
29.6(32) . . .
33.8(33) . . .
30.1(28) . . .
31.5(29) . . .
28.2(28) . . .
28.5(29) . . .
31.7(30) . . .
28.0(28) . . .
33.7(31) . . .
30.8(31) . . .
32.8(32) . . .
37.6(33) . . .
33.7(31) . . .
35.5(33) . . .
28.8(30) . . .
33.5(31) . . .
34.0(30) . . .
34.9(31) . . .
27.8(29) . . .
29.3(30) . . .
27.2(27) . . .
26.9(28) . . .
24.3(26) . . .
27.7(32) . . .
28.6(32) . . .
28.4(30) . . .
31.2(30) . . .
27.4(27) . . .
28.0(28) . . .
28.8(30) . . .
29.2(28) . . .
28.4(29) . . .
28.4(27) . . .
32.7(32) . . .
28.8(31) . . .
31.2(31) . . .
30.9(29) . . .
28.3(27) . . .
29.8(30) . . .
21.2(25) . . .
30.5(30) . . .
31.0(30) . . .
23.7(26) . . .
25.6(26) . . .
25.1(25) . . .
36.3(32) . . .
29.4(29) . . .
27.4(27) . . .
25.3(26) . . .
24.8(29) . . .
29.0(30) . . .
36.4(31) . . .
28.4(28) . . .
24.4(27) . . .
32.2(32) . . .
32.1(32) . . .
24.6(26) . . .
32.5(31) . . .
38.0(33) . . .
27.9(27) . . .
29.3(28) . . .
27.5(28) . . .
33.2(30) . . .
37.2(34) . . .
23.0(25) . . .
31.8(31) . . .
27.8(28) . . .
34.5(33) . . .
28.9(30) . . .
30.8(31) . . .
32.0(30) . . .
26.2(26) . . .
31.1(29) . . .
32.3(31) . . .
32.3(32) . . .
21.5(25) . . .
33.3(30) . . .
33.2(32) . . .
36.3(33) . . .
29.4(29) . . .
33.5(30) . . .
34.9(31) . . .
30.0(32) . . .
27.3(31) . . .
25.2(26) . . .
32.0(30) . . .
32.1(29) . . .
24.7(26) . . .
29.1(28) . . .
20.7(24) . . .
27.4(28) . . .
31.7(29) . . .
33.3(31) . . .
29.6(32) . . .
31.5(30) . . .
30.3(30) . . .
24.4(27) . . .
27.1(28) . . .
28.0(27) . . .
33.4(31) . . .
26.8(27) . . .
25.3(26) . . .
35.3(32) . . .
29.4(30) . . .
29.2(29) . . .
28.5(28) . . .
28.6(29) . . .
38(4) . . .
27.6(27) . . .
33.3(32) . . .
39.3(33) . . .
25.1(26) . . .
23.1(26) . . .
20.0(23) . . .
34.4(32) . . .
27.9(27) . . .
32.1(30) . . .
32.0(30) . . .
31.3(31) . . .
25.2(26) . . .
26.5(27) . . .
27.7(28) . . .
19.9(23) . . .
36.6(35) . . .
32.2(30) . . .
29.3(28) . . .
26.9(29) . . .
27.0(29) . . .
29.0(30) . . .
28.0(28) . . .
26.7(27) . . .
26.5(27) . . .
34.9(32) . . .
32.5(32) . . .
26.1(26) . . .
28.6(28) . . .
26.6(27) . . .
24.0(29) . . .
21.8(25) . . .
30.9(29) . . .
27.0(27) . . .
21.8(24) . . .
30.5(31) . . .
24.3(25) . . .
30.4(29) . . .
26.0(27) . . .
18.8(22) . . .
28.4(30) . . .
31.6(30) . . .
24.9(26) . . .
31.3(29) . . .
31.0(30) . . .
30.0(30) . . .
30.6(29) . . .
27.8(27) . . .
33.7(31) . . .
36.2(33) . . .
40(4) . . .
28.5(28) . . .
35.8(31) . . .
26.0(26) . . .
22.1(25) . . .
21.0(25) . . .
28.2(30) . . .
31.1(29) . . .
26.2(26) . . .
32.9(31) . . .
33.5(33) . . .
21.6(26) . . .
22.0(25) . . .
27.6(28) . . .
28.6(29) . . .
29.4(28) . . .
30.0(29) . . .
29.1(28) . . .
31.5(30) . . .
25.7(27) . . .
25.6(28) . . .
25.6(27) . . .
24.0(25) . . .
30.8(30) . . .
29.6(32) . . .
24.2(27) . . .
29.2(29) . . .
29.5(28) . . .
31.5(31) . . .
24.2(27) . . .
23.8(27) . . .
24.8(26) . . .
25.7(26) . . .
32.0(31) . . .
26.5(29) . . .
22.7(25) . . .
32.8(29) . . .
23.4(26) . . .
25.2(30) . . .
24.1(27) . . .
27.4(28) . . .
33.8(30) . . .
30.4(29) . . .
33.7(32) . . .
29.2(29) . . .
37.6(32) . . .
27.5(28) . . .
24.6(27) . . .
21.6(24) . . .
31.0(29) . . .
32.1(30) . . .
28.8(27) . . .
24.9(27) . . .
25.7(28) . . .
24.7(25) . . .
29.5(29) . . .
33.8(30) . . .
23.4(27) . . .
29.4(30) . . .
27.9(28) . . .
26.1(28) . . .
29.2(28) . . .
27.3(28) . . .
28.5(31) . . .
24.7(26) . . .
23.8(27) . . .
24.2(26) . . .
18.4(22) . . .
26.4(30) . . .
31.2(31) . . .
21.6(25) . . .
31.9(31) . . .
22.3(25) . . .
29.9(30) . . .
24.3(26) . . .
29.2(29) . . .
30.6(29) . . .
22.8(25) . . .
23.7(28) . . .
30.7(30) . . .
31.2(29) . . .
33.8(30) . . .
34.3(31) . . .
33.5(32) . . .
28.8(29) . . .
33.9(30) . . .
25.7(26) . . .
23.3(26) . . .
28.8(30) . . .
25.2(30) . . .
29.8(28) . . .
30.0(28) . . .
25.3(27) . . .
25.5(27) . . .
30.9(31) . . .
27.0(27) . . .
29.9(28) . . .
31.6(30) . . .
25.4(26) . . .
23.4(25) . . .
34.2(31) . . .
35.3(32) . . .
30.6(31) . . .
21.2(25) . . .
23.4(27) . . .
37.3(31) . . .
28.0(28) . . .
32.8(31) . . .
25.9(26) . . .
32.0(30) . . .
33.5(30) . . .
32.8(30) . . .
26.0(27) . . .
31.6(30) . . .
35.0(32) . . .
26.1(26) . . .
31.9(31) . . .
31.7(32) . . .
27.0(28) . . .
32.3(30) . . .
32.7(30) . . .
29.7(29) . . .
31.9(31) . . .
34.5(32) . . .
30.2(29) . . .
31.3(29) . . .
41.0(34) . . .
35.6(32) . . .
31.0(31) . . .
31.0(31) . . .
37.6(32) . . .
26.8(27) . . .
29.5(30) . . .
24.9(27) . . .
26.0(26) . . .
38.5(33) . . .
29.2(29) . . .
39.5(35) . . .
29.9(28) . . .
24.5(26) . . .
35.3(31) . . .
34.1(32) . . .
33.7(31) . . .
34.8(31) . . .
33.3(30) . . .
32.3(29) . . .
31.2(30) . . .
21.1(24) . . .
33.5(32) . . .
32.8(30) . . .
27.7(27) . . .
30.7(30) . . .
25.4(29) . . .
34.2(34) . . .
31.4(29) . . .
32.2(30) . . .
24.1(28) . . .
38(4) . . .
30.0(29) . . .
29.6(29) . . .
21.4(25) . . .
28.3(30) . . .
25.9(26) . . .
29.9(30) . . .
20.5(24) . . .
33.3(31) . . .
27.1(26) . . .
24.5(25) . . .
33.9(30) . . .
34.5(30) . . .
28.2(28) . . .
31.5(30) . . .
34.0(31) . . .
34.3(31) . . .
23.3(26) . . .
33.9(31) . . .
31.7(32) . . .
27.4(28) . . .
27.8(27) . . .
27.0(27) . . .
31.9(33) . . .
36.2(34) . . .
31.2(30) . . .
29.9(28) . . .
34.4(31) . . .
29.9(29) . . .
33.4(34) . . .
31.7(31) . . .
26.2(26) . . .
29.0(28) . . .
25.8(27) . . .
28.7(29) . . .
47(4) . . .
33.8(30) . . .
24.6(27) . . .
20.9(24) . . .
28.7(30) . . .
28.0(28) . . .
25.7(27) . . .
23.6(25) . . .
26.2(27) . . .
26.6(29) . . .
27.0(29) . . .
22.9(25) . . .
24.7(27) . . .
32.8(31) . . .
25.8(27) . . .
31.9(32) . . .
24.5(26) . . .
23.6(25) . . .
20.4(23) . . .
31.6(32) . . .
36.3(33) . . .
22.9(25) . . .
28.9(28) . . .
40(4) . . .
29.6(29) . . .
31.4(30) . . .
30.8(29) . . .
26.6(27) . . .
31.7(30) . . .
31.0(31) . . .
32.0(31) . . .
38.8(32) . . .
28.9(30) . . .
34.0(35) . . .
31.1(30) . . .
31.9(29) . . .
28.2(28) . . .
26.1(27) . . .
30.8(31) . . .
44(4) . . .
31.9(30) . . .
27.8(27) . . .
29.4(29) . . .
33.0(32) . . .
31.8(30) . . .
31.0(29) . . .
30.5(30) . . .
29.6(29) . . .
26.6(27) . . .
26.8(27) . . .
29.8(29) . . .
32.0(29) . . .
27.9(29) . . .
24.7(27) . . .
31.9(31) . . .
32.9(32) . . .
35.8(32) . . .
26.7(27) . . .
26.3(28) . . .
27.8(28) . . .
22.3(26) . . .
27.0(27) . . .
31.0(32) . . .
30.4(31) . . .
30.8(33) . . .
29.4(29) . . .
29.6(29) . . .
28.3(28) . . .
29.6(30) . . .
36.5(32) . . .
38.8(33) . . .
35.1(31) . . .
24.6(25) . . .
36.4(33) . . .
28.7(28) . . .
28.6(28) . . .
38.8(34) . . .
30.8(32) . . .
26.1(27) . . .
23.2(25) . . .
21.3(25) . . .
31.3(30) . . .
27.9(28) . . .
26.3(27) . . .
30.3(29) . . .
34.7(30) . . .
32.8(32) . . .
37.7(35) . . .
26.5(28) . . .
26.5(29) . . .
31.9(29) . . .
20.5(24) . . .
24.2(28) . . .
32.4(32) . . .
28.9(28) . . .
34.9(30) . . .
30.3(30) . . .
29.6(32) . . .
23.9(26) . . .
29.3(29) . . .
28.5(28) . . .
25.5(27) . . .
22.4(25) . . .
26.3(27) . . .
24.1(25) . . .
24.6(26) . . .
30.7(32) . . .
26.8(30) . . .
20.5(24) . . .
27.8(28) . . .
32.9(30) . . .
31.2(30) . . .
30.6(32) . . .
20.4(24) . . .
30.0(29) . . .
24.1(26) . . .
27.9(29) . . .
35.1(33) . . .
27.3(28) . . .
25.7(26) . . .
29.7(28) . . .
28.0(28) . . .
37.7(33) . . .
27.0(27) . . .
30.3(29) . . .
33.5(31) . . .
25.7(25) . . .
33.0(30) . . .
28.1(28) . . .
26.8(27) . . .
26.5(29) . . .
33.5(33) . . .
30.3(30) . . .
30.8(29) . . .
28.7(28) . . .
30.7(32) . . .
31.4(31) . . .
31.5(31) . . .
27.5(28) . . .
19.5(23) . . .
26.2(27) . . .
30.2(29) . . .
35.7(33) . . .
28.4(28) . . .
28.0(28) . . .
30.0(30) . . .
26.0(30) . . .
26.4(27) . . .
34.3(30) . . .
31.6(29) . . .
17.6(22) . . .
29.4(30) . . .
26.6(28) . . .
25.0(27) . . .
32.8(30) . . .
32.2(31) . . .
32.7(32) . . .
32.9(33) . . .
18.6(22) . . .
32.4(29) . . .
36.2(32) . . .
27.6(27) . . .
27.1(28) . . .
22.1(25) . . .
23.5(25) . . .
27.3(30) . . .
27.6(30) . . .
29.6(29) . . .
23.8(26) . . .
31.4(31) . . .
22.7(27) . . .
22.2(26) . . .
28.5(28) . . .
24.0(26) . . .
24.4(26) . . .
21.4(25) . . .
31.4(30) . . .
28.5(28) . . .
32.2(30) . . .
39.3(33) . . .
26.3(27) . . .
27.6(30) . . .
29.9(28) . . .
31.0(29) . . .
28.2(28) . . .
28.8(29) . . .
34.8(31) . . .
30.6(29) . . .
31.6(30) . . .
27.0(28) . . .
24.5(27) . . .
30.0(29) . . .
29.6(29) . . .
30.4(29) . . .
39.0(34) . . .
21.6(25) . . .
24.4(28) . . .
24.4(26) . . .
19.6(23) . . .
26.4(28) . . .
24.8(26) . . .
29.0(29) . . .
27.7(28) . . .
27.6(27) . . .
29.9(30) . . .
23.3(27) . . .
26.6(28) . . .
25.3(27) . . .
27.3(28) . . .
35.1(32) . . .
26.4(27) . . .
27.3(28) . . .
37.6(33) . . .
24.3(26) . . .
25.3(26) . . .
27.7(30) . . .
22.3(25) . . .
25.0(26) . . .
31.6(30) . . .
25.3(28) . . .
24.4(26) . . .
32.8(30) . . .
39.8(32) . . .
26.1(28) . . .
32.6(31) . . .
32.6(31) . . .
28.2(28) . . .
27.3(28) . . .
31.1(30) . . .
27.4(30) . . .
27.1(28) . . .
26.4(26) . . .
24.3(27) . . .
21.6(24) . . .
37(4) . . .
27.7(28) . . .
26.5(27) . . .
32.3(29) . . .
30.3(29) . . .
29.7(30) . . .
34.1(30) . . .
32.9(30) . . .
31.2(29) . . .
26.1(26) . . .
30.4(31) . . .
27.9(27) . . .
29.6(28) . . .
35.8(31) . . .
32.2(31) . . .
26.7(28) . . .
27.2(31) . . .
20.5(23) . . .
29.4(30) . . .
30.8(30) . . .
25.0(27) . . .
20.8(24) . . .
30.1(30) . . .
28.6(28) . . .
26.3(27) . . .
36.9(35) . . .
31.7(30) . . .
34.3(32) . . .
31.3(30) . . .
20.2(24) . . .
24.0(25) . . .
37.0(33) . . .
25.0(26) . . .
31.8(29) . . .
32.1(31) . . .
27.6(30) . . .
31.9(32) . . .
29.7(29) . . .
26.0(27) . . .
25.7(27) . . .
20.8(25) . . .
25.1(27) . . .
31.6(29) . . .
36.4(33) . . .
34.3(30) . . .
36.0(32) . . .
34.5(30) . . .
26.0(28) . . .
26.2(28) . . .
29.5(31) . . .
30.5(32) . . .
32.5(30) . . .
27.2(27) . . .
29.7(30) . . .
28.0(30) . . .
21.4(25) . . .
21.3(24) . . .
30.1(29) . . .
42(4) . . .
34.1(32) . . .
25.4(28) . . .
24.0(26) . . .
27.9(27) . . .
28.9(28) . . .
29.8(32) . . .
25.2(27) . . .
24.9(26) . . .
26.1(27) . . .
27.0(29) . . .
20.8(26) . . .
24.0(27) . . .
27.2(27) . . .
33.5(30) . . .
25.1(25) . . .
36.6(32) . . .
36.0(32) . . .
31.7(29) . . .
30.0(29) . . .
33.3(33) . . .
27.9(28) . . .
31.0(30) . . .
33.9(31) . . .
39.1(32) . . .
26.8(28) . . .
24.5(27) . . .
34.3(31) . . .
25.6(27) . . .
29.9(28) . . .
25.9(27) . . .
27.7(28) . . .
28.5(29) . . .
22.9(25) . . .
27.8(29) . . .
26.1(28) . . .
20.0(24) . . .
27.1(28) . . .
27.7(27) . . .
35.8(33) . . .
32.3(31) . . .
23.4(25) . . .
25.6(27) . . .
22.2(25) . . .
25.0(27) . . .
26.6(28) . . .
30.4(32) . . .
22.3(26) . . .
20.1(24) . . .
26.3(28) . . .
30.2(31) . . .
27.9(29) . . .
31.2(28) . . .
33.6(31) . . .
25.4(26) . . .
29.9(30) . . .
34.8(31) . . .
27.4(27) . . .
23.1(26) . . .
34.8(32) . . .
26.3(27) . . .
20.9(24) . . .
31.9(29) . . .
27.1(27) . . .
32.7(31) . . .
28.8(31) . . .
21.7(24) . . .
31.5(30) . . .
25.3(26) . . .
27.7(28) . . .
29.8(29) . . .
26.9(27) . . .
27.8(28) . . .
26.6(29) . . .
32.1(31) . . .
34.1(32) . . .
27.4(28) . . .
24.9(26) . . .
35.5(32) . . .
36.7(34) . . .
35.5(33) . . .
28.0(28) . . .
25.9(27) . . .
22.3(25) . . .
30.7(31) . . .
29.6(30) . . .
27.3(28) . . .
24.3(26) . . .
32.7(30) . . .
30.5(30) . . .
20.4(26) . . .
22.1(25) . . .
31.7(30) . . .
29.8(29) . . .
26.8(27) . . .
25.6(26) . . .
35.0(33) . . .
25.0(26) . . .
25.2(29) . . .
25.2(29) . . .
29.6(31) . . .
23.4(25) . . .
35.2(31) . . .
28.6(29) . . .
30.6(32) . . .
27.6(29) . . .
26.5(28) . . .
27.9(27) . . .
28.1(28) . . .
25.6(27) . . .
37(4) . . .
27.0(27) . . .
34.5(30) . . .
33.6(31) . . .
28.7(29) . . .
27.8(29) . . .
21.1(25) . . .
28.0(28) . . .
26.2(27) . . .
24.1(26) . . .
30.0(31) . . .
26.5(26) . . .
24.2(26) . . .
30.0(30) . . .
26.5(27) . . .
26.5(27) . . .
27.1(28) . . .
27.5(29) . . .
26.7(29) . . .
29.6(29) . . .
34.1(31) . . .
25.0(27) . . .
22.5(26) . . .
24.9(28) . . .
27.2(28) . . .
26.7(28) . . .
31.6(29) . . .
32.0(29) . . .
32.2(32) . . .
22.5(25) . . .
30.0(29) . . .
27.6(27) . . .
25.9(27) . . .
27.1(28) . . .
30.3(29) . . .
32.3(31) . . .
20.6(24) . . .
26.5(28) . . .
28.1(28) . . .
33.1(30) . . .
31.5(30) . . .
32.8(29) . . .
31.8(31) . . .
31.1(30) . . .
36.4(32) . . .
38.3(33) . . .
35.4(31) . . .
31.5(30) . . .
32.4(33) . . .
32.1(31) . . .
34.0(31) . . .
26.0(26) . . .
31.7(32) . . .
19.6(26) . . .
28.5(30) . . .
31.3(29) . . .
24.0(25) . . .
34.2(34) . . .
26.2(28) . . .
20.0(25) . . .
26.3(27) . . .
26.3(27) . . .
19.7(24) . . .
25.8(28) . . .
23.6(25) . . .
29.1(28) . . .
29.8(28) . . .
24.1(25) . . .
26.1(28) . . .
25.6(27) . . .
32.7(30) . . .
34.1(31) . . .
23.2(25) . . .
30.3(31) . . .
35.3(33) . . .
24.2(26) . . .
27.4(29) . . .
34.0(32) . . .
24.6(25) . . .
27.9(28) . . .
28.3(28) . . .
31.7(30) . . .
25.1(27) . . .
25.5(31) . . .
19.1(23) . . .
30.0(30) . . .
19.7(24) . . .
31.4(33) . . .
30.3(30) . . .
30.2(29) . . .
31.3(29) . . .
29.5(29) . . .
31.1(32) . . .
24.0(26) . . .
31.8(30) . . .
23.2(25) . . .
33.6(31) . . .
31.7(31) . . .
30.0(29) . . .
38.5(33) . . .
28.4(27) . . .
28.0(29) . . .
34.2(34) . . .
26.4(27) . . .
31.4(30) . . .
32.9(30) . . .
30.4(29) . . .
36(4) . . .
27.4(30) . . .
29.8(28) . . .
35.2(31) . . .
28.3(29) . . .
30.2(32) . . .
23.2(27) . . .
33.6(30) . . .
30.5(29) . . .
28.5(28) . . .
41(4) . . .
35.6(31) . . .
37.0(32) . . .
26.7(28) . . .
22.9(26) . . .
28.6(29) . . .
27.3(28) . . .
25.5(27) . . .
27.5(27) . . .
26.1(28) . . .
23.7(27) . . .
29.5(31) . . .
24.4(26) . . .
26.2(29) . . .
26.7(27) . . .
31.0(32) . . .
33.6(32) . . .
30.0(29) . . .
32.8(32) . . .
26.2(27) . . .
30.7(31) . . .
26.6(27) . . .
31.3(29) . . .
30.4(33) . . .
21.4(26) . . .
27.3(28) . . .
30.3(29) . . .
22.6(24) . . .
28.3(29) . . .
23.1(26) . . .
25.0(28) . . .
23.2(25) . . .
31.8(29) . . .
27.9(31) . . .
28.8(28) . . .
36.1(33) . . .
28.5(29) . . .
38.7(32) . . .
24.9(25) . . .
27.4(29) . . .
30.1(30) . . .
29.5(28) . . .
26.1(27) . . .
28.9(29) . . .
28.6(29) . . .
24.2(28) . . .
33.6(30) . . .
28.6(28) . . .
27.6(30) . . .
27.1(29) . . .
28.6(29) . . .
22.3(25) . . .
28.8(28) . . .
31.6(31) . . .
25.5(27) . . .
27.7(28) . . .
38.3(32) . . .
33.5(30) . . .
30.0(29) . . .
32.9(29) . . .
29.0(30) . . .
31.2(29) . . .
20.0(23) . . .
26.6(29) . . .
23.2(25) . . .
24.8(26) . . .
29.2(29) . . .
32.5(30) . . .
35.1(33) . . .
32.7(32) . . .
27.3(27) . . .
30.2(30) . . .
28.4(29) . . .
27.8(31) . . .
23.8(27) . . .
34.1(31) . . .
24.2(26) . . .
33.5(33) . . .
35.3(33) . . .
28.9(28) . . .
30.3(29) . . .
32.5(30) . . .
30.1(31) . . .
33.4(33) . . .
29.1(29) . . .
26.1(26) . . .
32.8(30) . . .
28.1(27) . . .
29.5(32) . . .
24.6(29) . . .
24.4(26) . . .
31.6(30) . . .
25.0(26) . . .
26.6(27) . . .
28.5(29) . . .
24.1(26) . . .
23.2(26) . . .
24.2(27) . . .
38.9(34) . . .
27.0(27) . . .
31.9(30) . . .
29.2(30) . . .
27.0(28) . . .
26.5(30) . . .
29.1(30) . . .
26.5(27) . . .
25.1(27) . . .
27.5(30) . . .
28.1(30) . . .
24.7(27) . . .
27.1(28) . . .
25.6(29) . . .
25.1(28) . . .
32.1(31) . . .
27.2(27) . . .
34.6(31) . . .
30.2(29) . . .
34.1(32) . . .
31.2(29) . . .
32.4(29) . . .
27.9(28) . . .
24.1(26) . . .
23.4(28) . . .
27.3(28) . . .
32.7(30) . . .
23.7(25) . . .
25.8(28) . . .
33.5(34) . . .
32.0(31) . . .
28.6(28) . . .
32.7(29) . . .
29.3(29) . . .
25.7(28) . . .
26.1(28) . . .
29.2(28) . . .
32.3(29) . . .
30.8(30) . . .
27.3(30) . . .
29.8(30) . . .
34.7(31) . . .
24.8(26) . . .
23.3(25) . . .
36.8(35) . . .
33.2(32) . . .
26.3(27) . . .
25.5(27) . . .
31.9(30) . . .
39(4) . . .
29.6(30) . . .
26.9(27) . . .
27.9(28) . . .
31.8(29) . . .
36.8(32) . . .
30.2(29) . . .
27.0(27) . . .
26.5(27) . . .
23.9(26) . . .
31.4(31) . . .
29.9(30) . . .
30.0(28) . . .
27.8(28) . . .
27.8(29) . . .
28.1(29) . . .
26.5(27) . . .
28.5(28) . . .
40(4) . . .
29.8(30) . . .
27.3(28) . . .
23.3(25) . . .
26.3(27) . . .
21.3(24) . . .
22.9(26) . . .
28.6(29) . . .
27.9(28) . . .
33.1(30) . . .
28.7(28) . . .
27.0(30) . . .
20.2(24) . . .
28.5(28) . . .
24.2(26) . . .
18.7(22) . . .
28.9(30) . . .
26.0(27) . . .
29.6(28) . . .
25.8(27) . . .
31.5(30) . . .
32.3(29) . . .
35.2(32) . . .
27.9(27) . . .
29.7(29) . . .
29.5(28) . . .
35.5(35) . . .
34.1(32) . . .
23.6(26) . . .
29.3(30) . . .
32.0(31) . . .
29.5(30) . . .
28.3(28) . . .
25.1(26) . . .
29.5(29) . . .
28.2(27) . . .
32.6(31) . . .
34.8(33) . . .
35.7(31) . . .
33.0(30) . . .
36.6(33) . . .
32.3(30) . . .
31.2(29) . . .
35.1(31) . . .
36.8(31) . . .
26.2(27) . . .
25.5(27) . . .
25.9(27) . . .
28.6(28) . . .
33.4(33) . . .
28.8(29) . . .
23.6(25) . . .
30.9(31) . . .
37.4(32) . . .
31.5(30) . . .
33.6(33) . . .
34.0(32) . . .
26.7(27) . . .
29.9(29) . . .
24.2(26) . . .
27.4(31) . . .
26.9(29) . . .
32.7(30) . . .
33.9(30) . . .
27.8(28) . . .
28.0(31) . . .
33.0(31) . . .
30.9(29) . . .
26.5(27) . . .
31.3(31) . . .
31.0(33) . . .
21.2(27) . . .
34.1(30) . . .
29.1(29) . . .
26.4(27) . . .
24.3(27) . . .
22.6(25) . . .
23.3(25) . . .
31.7(29) . . .
36.8(32) . . .
30.2(28) . . .
32.4(31) . . .
33.5(31) . . .
30.2(28) . . .
24.5(26) . . .
28.9(28) . . .
38.7(35) . . .
29.5(28) . . .
33.7(30) . . .
25.9(27) . . .
29.0(29) . . .
36.5(32) . . .
27.9(28) . . .
31.5(30) . . .
26.9(27) . . .
31.3(30) . . .
28.0(28) . . .
35.3(31) . . .
29.6(29) . . .
32.5(33) . . .
17.5(21) . . .
28.2(27) . . .
30.3(29) . . .
27.5(28) . . .
29.8(30) . . .
27.2(30) . . .
25.9(27) . . .
23.8(26) . . .
27.4(29) . . .
28.1(28) . . .
27.7(27) . . .
27.0(27) . . .
23.9(25) . . .
27.1(29) . . .
24.0(26) . . .
23.0(24) . . .
32.6(30) . . .
22.6(25) . . .
27.5(30) . . .
27.6(29) . . .
27.3(28) . . .
29.8(28) . . .
27.0(27) . . .
28.2(28) . . .
35.0(33) . . .
34.3(31) . . .
34.1(31) . . .
29.1(28) . . .
25.6(26) . . .
32.1(32) . . .
27.1(28) . . .
23.1(25) . . .
28.3(28) . . .
39.6(34) . . .
28.8(28) . . .
32.0(32) . . .
26.0(27) . . .
26.1(27) . . .
35.7(33) . . .
25.3(25) . . .
27.6(28) . . .
25.7(26) . . .
26.4(29) . . .
24.7(27) . . .
31.3(30) . . .
34.2(31) . . .
37.0(32) . . .
33.8(31) . . .
27.3(28) . . .
31.0(30) . . .
25.4(26) . . .
28.7(28) . . .
32.7(31) . . .
35.2(33) . . .
32.1(31) . . .
36.7(31) . . .
30.1(29) . . .
22.3(25) . . .
26.4(29) . . .
30.7(30) . . .
32.4(30) . . .
26.1(27) . . .
36.1(35) . . .
21.5(25) . . .
25.6(29) . . .
31.9(30) . . .
37.2(33) . . .
27.6(27) . . .
30.2(31) . . .
27.4(28) . . .
23.9(26) . . .
26.6(27) . . .
29.1(29) . . .
31.4(32) . . .
30.4(30) . . .
29.0(28) . . .
25.6(27) . . .
25.1(27) . . .
30.4(31) . . .
32.1(31) . . .
28.4(28) . . .
28.1(29) . . .
25.9(28) . . .
34.0(33) . . .
33.9(30) . . .
32.4(30) . . .
30.5(31) . . .
22.5(25) . . .
30.0(30) . . .
28.4(28) . . .
31.7(29) . . .
23.2(28) . . .
19.5(24) . . .
30.5(30) . . .
34.6(31) . . .
33.3(30) . . .
31.5(30) . . .
27.4(27) . . .
30.6(29) . . .
36.0(34) . . .
32.7(30) . . .
23.6(26) . . .
22.8(27) . . .
33.3(34) . . .
27.0(28) . . .
24.8(25) . . .
33.8(31) . . .
28.4(28) . . .
34.0(32) . . .
35.4(32) . . .
20.1(24) . . .
32.5(32) . . .
32.8(34) . . .
31.9(31) . . .
20.1(23) . . .
21.6(25) . . .
24.7(26) . . .
27.0(28) . . .
26.6(28) . . .
25.1(27) . . .
25.4(27) . . .
23.6(28) . . .
27.1(29) . . .
33.7(30) . . .
31.5(29) . . .
40.0(34) . . .
30.7(30) . . .
31.7(33) . . .
29.2(29) . . .
39.2(32) . . .
23.3(25) . . .
19.2(23) . . .
22.9(28) . . .
21.1(27) . . .
27.2(28) . . .
32.1(29) . . .
31.4(32) . . .
27.3(28) . . .
33.0(31) . . .
36.3(32) . . .
34.3(31) . . .
30.0(29) . . .
26.3(26) . . .
31.9(30) . . .
32.2(29) . . .
31.1(31) . . .
29.7(29) . . .
29.7(28) . . .
36.6(31) . . .
29.1(28) . . .
26.3(27) . . .
23.0(26) . . .
23.8(28) . . .
24.8(27) . . .
27.0(27) . . .
30.5(29) . . .
33.8(32) . . .
32.1(30) . . .
28.5(28) . . .
35.5(31) . . .
29.7(29) . . .
26.9(28) . . .
27.6(27) . . .
32.9(31) . . .
32.8(30) . . .
28.3(28) . . .
25.9(28) . . .
29.7(29) . . .
29.6(29) . . .
40.6(33) . . .
30.1(28) . . .
35.1(34) . . .
34.4(31) . . .
33.2(31) . . .
25.8(26) . . .
26.4(28) . . .
32.2(33) . . .
29.7(28) . . .
34.4(32) . . .
25.8(27) . . .
31.4(29) . . .
27.7(29) . . .
27.5(28) . . .
26.9(27) . . .
32.2(31) . . .
30.7(29) . . .
21.6(25) . . .
31.9(30) . . .
31.6(29) . . .
37.8(33) . . .
31.8(30) . . .
18.3(22) . . .
33.9(35) . . .
33.2(31) . . .
29.5(28) . . .
32.0(30) . . .
37.2(33) . . .
29.1(28) . . .
30.3(29) . . .
42(4) . . .
24.2(25) . . .
31.6(32) . . .
27.5(28) . . .
32.0(29) . . .
36.7(32) . . .
26.6(27) . . .
31.0(32) . . .
27.6(27) . . .
30.6(29) . . .
26.3(28) . . .
27.7(29) . . .
26.2(28) . . .
24.4(26) . . .
27.9(27) . . .
37.3(33) . . .
33.0(32) . . .
27.4(28) . . .
29.8(28) . . .
30.1(28) . . .
25.5(27) . . .
28.6(30) . . .
24.2(25) . . .
28.8(27) . . .
28.6(29) . . .
35.5(32) . . .
33.4(32) . . .
31.5(33) . . .
28.8(27) . . .
30.3(28) . . .
28.2(28) . . .
35.2(35) . . .
28.1(30) . . .
30.1(29) . . .
24.5(27) . . .
26.1(27) . . .
23.5(27) . . .
24.2(27) . . .
26.6(27) . . .
34.9(33) . . .
24.5(27) . . .
30.0(32) . . .
32.0(30) . . .
31.0(29) . . .
32.7(30) . . .
27.1(27) . . .
31.4(30) . . .
28.4(28) . . .
25.3(26) . . .
30.6(30) . . .
22.6(24) . . .
27.0(27) . . .
31.6(29) . . .
29.2(29) . . .
23.4(25) . . .
31.9(32) . . .
33.2(31) . . .
23.9(25) . . .
28.5(28) . . .
22.5(26) . . .
20.0(24) . . .
31.0(31) . . .
24.5(26) . . .
31.5(29) . . .
18.9(24) . . .
20.3(26) . . .
22.8(25) . . .
26.9(27) . . .
31.8(29) . . .
26.7(27) . . .
35.0(33) . . .
29.0(28) . . .
29.3(29) . . .
31.5(29) . . .
23.3(25) . . .
25.0(28) . . .
31.8(31) . . .
31.0(29) . . .
28.3(27) . . .
27.3(27) . . .
38.5(35) . . .
31.0(31) . . .
31.2(29) . . .
27.5(28) . . .
30.7(31) . . .
24.9(28) . . .
26.4(28) . . .
31.1(30) . . .
25.7(27) . . .
28.5(30) . . .
27.1(30) . . .
31.6(31) . . .
31.1(29) . . .
25.2(26) . . .
18.5(23) . . .
24.1(26) . . .
26.9(27) . . .
28.8(28) . . .
29.3(29) . . .
23.8(26) . . .
26.3(30) . . .
35.0(34) . . .
29.9(28) . . .
27.4(28) . . .
23.3(26) . . .
27.3(28) . . .
28.6(28) . . .
24.7(26) . . .
22.9(25) . . .
28.9(28) . . .
33.0(32) . . .
34.3(31) . . .
30.9(29) . . .
24.0(25) . . .
33.5(33) . . .
31.3(30) . . .
25.2(27) . . .
27.0(28) . . .
25.4(28) . . .
27.4(29) . . .
29.6(30) . . .
32.3(29) . . .
32.4(31) . . .
24.2(25) . . .
28.3(31) . . .
27.0(28) . . .
31.6(29) . . .
21.4(25) . . .
24.1(26) . . .
28.1(28) . . .
31.6(31) . . .
32.4(30) . . .
31.9(30) . . .
24.4(27) . . .
32.4(32) . . .
33.2(31) . . .
25.0(26) . . .
26.6(27) . . .
32.1(31) . . .
24.9(27) . . .
24.6(27) . . .
27.7(27) . . .
23.8(26) . . .
19.3(24) . . .
25.8(27) . . .
30.2(32) . . .
39.4(33) . . .
32.1(30) . . .
25.6(27) . . .
27.6(29) . . .
22.6(25) . . .
29.6(29) . . .
31.5(32) . . .
24.3(27) . . .
35.5(33) . . .
29.6(28) . . .
30.6(30) . . .
23.5(27) . . .
27.4(30) . . .
32.6(30) . . .
29.9(29) . . .
29.8(28) . . .
28.4(29) . . .
31.2(31) . . .
37.9(33) . . .
30.0(29) . . .
26.6(27) . . .
31.4(29) . . .
26.8(28) . . .
23.9(26) . . .
24.4(26) . . .
25.0(26) . . .
28.6(29) . . .
29.3(30) . . .
26.4(26) . . .
23.2(25) . . .
21.5(24) . . .
29.3(30) . . .
33.3(33) . . .
28.1(29) . . .
25.2(26) . . .
28.4(28) . . .
32.3(32) . . .
28.0(27) . . .
32.5(30) . . .
33.3(30) . . .
25.2(26) . . .
27.7(29) . . .
32.2(30) . . .
22.3(24) . . .
35.5(31) . . .
34.1(31) . . .
40.6(35) . . .
28.6(28) . . .
34.6(31) . . .
28.8(29) . . .
32.5(31) . . .
33.6(32) . . .
26.8(28) . . .
31.7(31) . . .
31.8(29) . . .
27.8(28) . . .
32.0(32) . . .
27.3(28) . . .
26.3(27) . . .
30.5(29) . . .
26.0(29) . . .
27.8(30) . . .
35.4(33) . . .
30.1(29) . . .
32.6(30) . . .
21.8(26) . . .
29.4(30) . . .
39.0(35) . . .
28.3(27) . . .
36.9(33) . . .
22.4(24) . . .
20.5(24) . . .
26.6(28) . . .
26.8(28) . . .
33.2(29) . . .
31.1(29) . . .
25.0(26) . . .
29.5(29) . . .
29.1(28) . . .
29.9(28) . . .
26.4(26) . . .
27.8(29) . . .
26.5(28) . . .
32.3(30) . . .
26.8(27) . . .
29.0(29) . . .
31.2(31) . . .
27.4(27) . . .
31.0(29) . . .
28.5(29) . . .
31.6(31) . . .
27.6(28) . . .
27.4(28) . . .
26.0(27) . . .
31.6(30) . . .
26.2(29) . . .
23.3(26) . . .
25.6(28) . . .
26.1(27) . . .
31.3(30) . . .
36.2(34) . . .
25.5(27) . . .
27.5(30) . . .
25.4(26) . . .
34.8(32) . . .
26.8(27) . . .
24.4(26) . . .
33.7(33) . . .
30.3(28) . . .
21.9(26) . . .
28.9(29) . . .
26.2(28) . . .
35.5(32) . . .
29.1(28) . . .
32.6(31) . . .
29.3(29) . . .
26.3(26) . . .
35.6(31) . . .
23.8(26) . . .
30.7(30) . . .
29.8(30) . . .
25.2(26) . . .
30.3(28) . . .
33.6(31) . . .
31.3(31) . . .
28.5(30) . . .
28.4(28) . . .
34.9(31) . . .
28.4(28) . . .
28.8(28) . . .
26.2(28) . . .
25.8(26) . . .
29.4(28) . . .
30.1(29) . . .
23.7(25) . . .
31.8(31) . . .
34.6(34) . . .
34.3(30) . . .
22.8(25) . . .
20.1(25) . . .
22.5(27) . . .
26.5(29) . . .
33.9(32) . . .
27.9(27) . . .
30.4(29) . . .
28.0(28) . . .
29.1(31) . . .
31.4(29) . . .
34.6(33) . . .
32.2(30) . . .
29.4(28) . . .
38.5(33) . . .
21.4(25) . . .
24.0(26) . . .
30.6(30) . . .
32.2(31) . . .
27.8(27) . . .
31.8(30) . . .
28.9(30) . . .
34.1(33) . . .
33.7(32) . . .
31.5(30) . . .
30.2(29) . . .
35.4(31) . . .
24.6(27) . . .
28.3(30) . . .
27.3(27) . . .
34.4(31) . . .
32.4(30) . . .
32.1(31) . . .
30.5(29) . . .
37.0(32) . . .
26.7(27) . . .
25.8(26) . . .
25.6(29) . . .
26.5(29) . . .
33.0(30) . . .
24.5(26) . . .
26.8(27) . . .
25.8(27) . . .
22.8(25) . . .
32.6(31) . . .
29.0(28) . . .
29.5(29) . . .
33.3(32) . . .
30.5(30) . . .
21.7(24) . . .
27.4(27) . . .
27.2(29) . . .
22.3(26) . . .
24.0(27) . . .
30.3(29) . . .
25.9(26) . . .
29.5(29) . . .
29.9(29) . . .
26.9(28) . . .
36.3(32) . . .
30.0(29) . . .
32.9(32) . . .
32.8(32) . . .
27.0(28) . . .
27.2(28) . . .
31.0(30) . . .
22.0(25) . . .
27.8(28) . . .
30.3(30) . . .
26.7(27) . . .
29.1(29) . . .
27.6(29) . . .
26.0(29) . . .
22.1(25) . . .
25.1(26) . . .
25.8(28) . . .
29.5(30) . . .
28.3(29) . . .
30.1(28) . . .
29.5(28) . . .
25.1(28) . . .
30.4(33) . . .
24.5(27) . . .
27.8(27) . . .
28.0(29) . . .
33.8(33) . . .
36(4) . . .
28.2(27) . . .
27.6(28) . . .
23.4(25) . . .
31.3(31) . . .
30.3(31) . . .
31.0(29) . . .
32.8(31) . . .
29.0(29) . . .
23.8(28) . . .
32.9(33) . . .
15.8(20) . . .
29.5(28) . . .
28.2(28) . . .
32.7(31) . . .
31.1(30) . . .
30.5(30) . . .
29.3(29) . . .
29.3(30) . . .
24.3(26) . . .
34.8(31) . . .
26.0(28) . . .
35.8(31) . . .
30.1(29) . . .
34.1(31) . . .
26.5(29) . . .
31.4(32) . . .
29.3(29) . . .
27.2(28) . . .
28.6(29) . . .
30.3(31) . . .
28.8(29) . . .
30.0(29) . . .
32.3(32) . . .
22.3(24) . . .
25.8(27) . . .
30.4(30) . . .
34.2(31) . . .
30.3(31) . . .
30.0(29) . . .
31.1(30) . . .
26.3(28) . . .
30.3(28) . . .
35.3(32) . . .
24.7(26) . . .
28.2(29) . . .
29.3(28) . . .
35.2(31) . . .
31.8(31) . . .
34.7(33) . . .
27.6(28) . . .
26.3(27) . . .
25.0(26) . . .
25.9(29) . . .
27.5(29) . . .
21.4(24) . . .
26.6(27) . . .
26.2(27) . . .
27.2(27) . . .
23.4(26) . . .
29.9(30) . . .
27.2(27) . . .
21.3(24) . . .
19.4(23) . . .
26.3(29) . . .
27.0(29) . . .
39.0(33) . . .
25.0(26) . . .
33.0(31) . . .
26.8(27) . . .
35.9(32) . . .
24.0(26) . . .
26.3(27) . . .
25.6(29) . . .
25.3(26) . . .
29.5(29) . . .
28.4(28) . . .
31.6(30) . . .
26.1(27) . . .
25.8(27) . . .
32.1(31) . . .
25.9(27) . . .
25.8(29) . . .
19.8(23) . . .
24.5(28) . . .
27.7(27) . . .
27.2(28) . . .
28.7(31) . . .
27.5(28) . . .
30.1(30) . . .
22.5(25) . . .
30.7(28) . . .
36.3(33) . . .
29.7(30) . . .
23.5(25) . . .
30.0(28) . . .
28.2(28) . . .
22.6(25) . . .
26.8(30) . . .
34.2(33) . . .
24.3(25) . . .
28.6(30) . . .
36.5(32) . . .
34.2(31) . . .
29.3(30) . . .
26.3(28) . . .
25.0(27) . . .
25.0(26) . . .
25.4(28) . . .
28.7(29) . . .
30.8(31) . . .
26.0(28) . . .
21.4(23) . . .
24.8(26) . . .
23.1(25) . . .
23.1(25) . . .
33.6(30) . . .
29.8(29) . . .
33.4(33) . . .
29.6(29) . . .
32.7(30) . . .
28.5(28) . . .
24.3(28) . . .
29.5(32) . . .
26.2(30) . . .
31.7(29) . . .
23.9(26) . . .
28.0(28) . . .
36.3(32) . . .
24.5(27) . . .
29.6(29) . . .
29.8(29) . . .
30.9(31) . . .
32.3(32) . . .
32.2(30) . . .
30.7(29) . . .
21.6(26) . . .
24.5(29) . . .
26.8(28) . . .
21.8(24) . . .
31.3(29) . . .
28.7(30) . . .
22.5(26) . . .
26.9(27) . . .
25.6(26) . . .
29.4(29) . . .
27.7(29) . . .
26.5(29) . . .
20.2(23) . . .
33.6(31) . . .
30.5(30) . . .
25.8(27) . . .
31.2(31) . . .
24.5(26) . . .
27.5(28) . . .
31.0(29) . . .
32.0(31) . . .
30.1(29) . . .
32.3(32) . . .
29.0(27) . . .
24.9(28) . . .
32.5(31) . . .
34.2(34) . . .
23.5(26) . . .
31.7(30) . . .
33.8(31) . . .
28.4(31) . . .
30.5(29) . . .
29.4(29) . . .
25.2(26) . . .
32.6(31) . . .
33.8(32) . . .
29.4(31) . . .
24.2(28) . . .
27.5(29) . . .
25.9(28) . . .
24.7(27) . . .
31.4(30) . . .
33.8(31) . . .
26.9(27) . . .
26.5(27) . . .
34.5(33) . . .
26.4(28) . . .
29.9(30) . . .
27.7(28) . . .
31.8(32) . . .
35(4) . . .
27.5(29) . . .
20.5(23) . . .
26.9(28) . . .
26.0(30) . . .
30.2(31) . . .
29.9(29) . . .
18.9(23) . . .
29.0(29) . . .
19.3(22) . . .
28.0(31) . . .
31.5(30) . . .
31.7(29) . . .
26.2(27) . . .
28.5(31) . . .
27.8(29) . . .
34.0(32) . . .
33.2(30) . . .
27.1(27) . . .
23.4(25) . . .
29.3(29) . . .
35.3(31) . . .
29.0(28) . . .
29.5(28) . . .
27.4(28) . . .
26.5(29) . . .
26.1(28) . . .
30.8(28) . . .
29.1(29) . . .
22.0(26) . . .
20.8(25) . . .
27.9(30) . . .
28.8(28) . . .
26.2(27) . . .
20.0(24) . . .
35.0(34) . . .
26.1(28) . . .
25.7(27) . . .
29.6(28) . . .
29.9(28) . . .
35.7(33) . . .
27.5(28) . . .
29.0(28) . . .
22.5(27) . . .
24.8(27) . . .
29.5(30) . . .
27.7(28) . . .
30.4(29) . . .
24.4(26) . . .
37(4) . . .
31.9(30) . . .
33.5(31) . . .
30.2(29) . . .
27.2(27) . . .
29.2(31) . . .
23.6(29) . . .
42(4) . . .
26.6(27) . . .
21.4(26) . . .
28.2(31) . . .
27.4(28) . . .
30.4(28) . . .
34.8(31) . . .
26.0(28) . . .
24.4(27) . . .
20.7(25) . . .
30.9(31) . . .
23.5(25) . . .
27.0(27) . . .
25.3(28) . . .
28.6(29) . . .
32.7(31) . . .
29.9(28) . . .
27.7(28) . . .
24.3(27) . . .
29.4(29) . . .
28.9(27) . . .
27.0(28) . . .
34.5(34) . . .
29.1(29) . . .
36.2(34) . . .
21.5(24) . . .
30.8(31) . . .
24.7(25) . . .
27.5(27) . . .
29.8(29) . . .
33.8(30) . . .
25.4(26) . . .
26.0(28) . . .
22.8(27) . . .
22.7(26) . . .
34.9(30) . . .
35.9(32) . . .
26.9(27) . . .
38.0(35) . . .
28.0(28) . . .
31.5(29) . . .
29.2(29) . . .
28.0(31) . . .
31.3(31) . . .
27.4(27) . . .
24.2(26) . . .
23.2(25) . . .
28.9(30) . . .
26.0(28) . . .
23.9(26) . . .
28.4(28) . . .
34.1(33) . . .
29.8(33) . . .
29.6(30) . . .
27.5(28) . . .
32.9(30) . . .
38.3(33) . . .
41(4) . . .
28.9(28) . . .
27.3(27) . . .
36.3(31) . . .
25.2(30) . . .
33.5(33) . . .
27.9(28) . . .
25.5(27) . . .
28.1(28) . . .
29.5(30) . . .
26.0(27) . . .
29.2(30) . . .
28.1(28) . . .
38.3(32) . . .
25.8(27) . . .
24.8(29) . . .
27.6(28) . . .
31.0(29) . . .
34.3(31) . . .
29.4(30) . . .
30.9(32) . . .
32.8(32) . . .
31.2(29) . . .
30.5(28) . . .
35.3(33) . . .
24.9(27) . . .
28.9(28) . . .
30.5(29) . . .
25.1(27) . . .
31.1(31) . . .
26.0(27) . . .
25.6(26) . . .
28.3(28) . . .
28.2(29) . . .
28.0(27) . . .
27.8(29) . . .
30.2(29) . . .
31.0(30) . . .
26.7(27) . . .
28.8(28) . . .
39.8(35) . . .
26.8(28) . . .
24.4(27) . . .
25.0(30) . . .
24.6(27) . . .
28.1(29) . . .
24.8(27) . . .
31.1(29) . . .
27.1(27) . . .
30.9(29) . . .
38.8(33) . . .
30.9(29) . . .
27.8(28) . . .
26.9(27) . . .
31.3(31) . . .
33.3(31) . . .
25.1(27) . . .
31.8(30) . . .
29.2(29) . . .
24.2(28) . . .
27.3(28) . . .
28.9(28) . . .
34.1(32) . . .
36.2(34) . . .
28.1(30) . . .
28.0(29) . . .
31.7(30) . . .
27.3(27) . . .
22.7(25) . . .
18.8(24) . . .
28.1(28) . . .
28.1(28) . . .
31.4(29) . . .
26.7(27) . . .
26.7(30) . . .
25.4(28) . . .
28.1(27) . . .
26.1(27) . . .
27.2(30) . . .
22.8(26) . . .
22.3(27) . . .
21.0(24) . . .
27.0(28) . . .
29.1(31) . . .
26.3(27) . . .
25.9(27) . . .
20.5(24) . . .
25.6(29) . . .
28.2(29) . . .
36.2(33) . . .
35.9(32) . . .
32.4(30) . . .
26.0(28) . . .
24.2(28) . . .
29.5(31) . . .
29.8(31) . . .
31.2(30) . . .
32.2(33) . . .
27.9(30) . . .
28.3(28) . . .
36.2(31) . . .
31.1(28) . . .
35.1(33) . . .
22.3(26) . . .
27.3(29) . . .
35.1(31) . . .
25.3(27) . . .
24.4(27) . . .
31.7(32) . . .
29.4(29) . . .
32.6(31) . . .
33.1(30) . . .
25.6(27) . . .
24.4(28) . . .
24.7(26) . . .
26.9(27) . . .
23.5(25) . . .
27.8(28) . . .
31.2(32) . . .
27.4(28) . . .
29.0(28) . . .
26.7(27) . . .
26.5(27) . . .
29.9(30) . . .
29.3(32) . . .
27.8(28) . . .
31.0(29) . . .
28.0(29) . . .
37(4) . . .
28.7(29) . . .
29.5(28) . . .
27.2(28) . . .
24.6(26) . . .
34.0(31) . . .
25.3(26) . . .
30.4(29) . . .
34.7(32) . . .
33.0(32) . . .
29.5(30) . . .
29.3(28) . . .
34.5(31) . . .
27.3(28) . . .
31.4(30) . . .
24.8(25) . . .
33.5(31) . . .
34.2(30) . . .
26.6(27) . . .
25.9(28) . . .
30.5(33) . . .
27.1(27) . . .
26.8(27) . . .
23.9(27) . . .
29.8(31) . . .
30.3(29) . . .
31.1(30) . . .
23.0(25) . . .
33.3(31) . . .
25.3(28) . . .
27.9(30) . . .
29.5(30) . . .
28.2(27) . . .
29.7(27) . . .
31.7(31) . . .
30.8(32) . . .
27.8(27) . . .
28.5(29) . . .
21.7(24) . . .
28.2(29) . . .
25.4(27) . . .
29.8(29) . . .
30.1(28) . . .
26.1(27) . . .
31.7(31) . . .
27.1(28) . . .
31.8(29) . . .
24.1(27) . . .
30.7(30) . . .
30.2(31) . . .
34.0(31) . . .
29.2(28) . . .
31.5(31) . . .
32.3(32) . . .
34.9(34) . . .
27.3(27) . . .
26.4(27) . . .
27.9(28) . . .
35.8(35) . . .
27.6(29) . . .
26.7(29) . . .
28.7(28) . . .
32.1(33) . . .
24.7(28) . . .
28.4(30) . . .
27.7(28) . . .
23.0(26) . . .
27.8(30) . . .
32.4(34) . . .
27.5(28) . . .
33.7(30) . . .
33.2(30) . . .
26.8(28) . . .
31.9(33) . . .
34.3(32) . . .
30.5(30) . . .
27.3(28) . . .
25.3(27) . . .
26.1(29) . . .
32.3(31) . . .
29.7(28) . . .
32.2(29) . . .
36.1(32) . . .
28.7(29) . . .
29.2(29) . . .
28.6(29) . . .
24.8(26) . . .
32.5(31) . . .
34.8(33) . . .
27.1(27) . . .
25.1(26) . . .
24.2(26) . . .
23.8(26) . . .
29.2(32) . . .
25.0(26) . . .
31.0(29) . . .
31.3(29) . . .
27.2(27) . . .
28.6(30) . . .
28.6(29) . . .
22.0(24) . . .
35.9(33) . . .
36.1(32) . . .
30.9(29) . . .
30.3(29) . . .
24.6(26) . . .
23.5(25) . . .
28.6(32) . . .
16.7(21) . . .
28.1(29) . . .
28.1(28) . . .
30.1(31) . . .
27.6(29) . . .
23.7(26) . . .
31.5(30) . . .
26.8(27) . . .
32.8(31) . . .
30.0(31) . . .
29.2(29) . . .
35.4(32) . . .
23.5(25) . . .
28.5(28) . . .
28.4(32) . . .
24.8(27) . . .
23.2(27) . . .
30.1(29) . . .
26.0(28) . . .
28.4(32) . . .
29.6(29) . . .
22.0(24) . . .
22.9(25) . . .
30.7(29) . . .
30.5(30) . . .
31.6(30) . . .
32.2(29) . . .
31.0(28) . . .
27.9(27) . . .
26.1(27) . . .
35.2(33) . . .
19.6(24) . . .
34.5(31) . . .
38.7(34) . . .
loop_
_refln_index_h
_refln_index_k
_refln_index_l
_refln_observed_status
_refln_F_squared_meas
_refln_F_squared_calc
_refln_phase_calc
_refln_d_spacing
_gsas_i100_meas
0 0 2 o 2.691 337.026 180.00 6.60484 0.01
0 2 0 o 727.018 1388.844 180.00 8.19522 2.78
0 1 3 o 85.400 28.205 180.00 4.25245 0.18
0 0 4 o 228.788 175.594 180.00 3.30242 0.14
1 0 1 o 12406.531 12994.080 0.00 5.88150 48.91
0 3 1 o 1184.354 1379.407 180.00 5.04870 3.44
0 4 0 o 5657.117 1512.388 0.00 4.09761 5.42
0 2 2 o 33162.645 33317.199 0.00 5.14259 100.00
1 0 3 o 473.381 263.408 180.00 3.65747 0.72
1 1 2 o 4594.152 3889.189 0.00 4.48007 21.04
0 1 5 o 1461.685 1639.146 180.00 2.60827 1.14
1 2 1 o 1735.035 1761.569 0.00 4.77830 9.04
0 2 4 o 1602.881 841.587 0.00 3.06308 1.72
1 1 4 o 184.526 58.878 0.00 2.90383 0.36
0 0 6 o 2187.464 2653.728 0.00 2.20161 0.61
1 0 5 o 647.416 592.279 180.00 2.45110 0.45
0 5 1 o 60.033 18.787 180.00 3.18159 0.07
1 2 3 o 980.455 880.603 0.00 3.33994 2.50
1 4 1 o 982.452 898.712 180.00 3.36210 2.54
0 6 0 o 1985.086 1954.677 0.00 2.73174 0.85
0 1 7 o 188.174 1003.100 0.00 1.87471 0.08
1 1 6 o 1075.112 1065.947 180.00 2.07075 1.06
0 2 6 o 500.400 623.708 180.00 2.12623 0.26
1 2 5 o 374.603 497.421 0.00 2.34832 0.47
0 3 3 o 14365.957 13518.047 0.00 3.42839 19.30
0 0 8 o 146.439 272.704 180.00 1.65121 0.02
1 0 7 o 1116.730 1302.739 0.00 1.81373 0.43
0 4 2 o 9.657 22.476 0.00 3.48195 0.01
1 3 2 o 3946.354 4022.536 0.00 3.54436 11.33
0 3 5 o 103.795 120.376 0.00 2.37845 0.07
1 3 4 o 29.338 30.548 0.00 2.59612 0.05
1 6 1 o 650.406 706.650 0.00 2.47754 0.92
0 2 8 o 1112.794 1120.864 180.00 1.61868 0.34
1 2 7 o 1272.714 1417.220 180.00 1.77088 0.92
0 7 1 o 157.337 199.545 0.00 2.30555 0.10
2 0 0 o 2746.793 2331.458 180.00 3.28425 1.69
0 1 9 o 1548.127 1661.035 0.00 1.46189 0.39
1 1 8 o 1311.665 1413.564 0.00 1.59380 0.78
2 0 2 o 464.691 260.911 0.00 2.94075 0.46
2 0 4 o 1968.516 1542.520 180.00 2.32871 1.23
0 3 7 o 1375.574 1583.672 0.00 1.78370 0.51
2 2 0 o 74.677 42.744 0.00 3.04856 0.08
0 8 0 o 249.871 213.656 0.00 2.04880 0.06
2 1 1 o 1118.938 859.555 180.00 3.12861 2.51
1 5 2 o 2777.179 2785.108 180.00 2.68067 4.58
2 1 3 o 1028.160 1049.661 0.00 2.59929 1.59
1 0 9 o 802.947 1361.984 180.00 1.43242 0.19
0 6 2 o 179.048 474.719 0.00 2.52435 0.13
1 3 6 o 1140.675 1043.639 0.00 1.94999 1.00
2 1 5 o 251.993 205.981 180.00 2.04251 0.24
2 3 1 o 683.385 656.352 0.00 2.75301 1.19
0 4 4 o 11354.554 12468.015 0.00 2.57129 8.61
2 4 0 o 2005.521 2127.861 180.00 2.56269 1.51
2 2 2 o 2339.954 2149.850 180.00 2.76794 4.11
0 0 10 o 5154.964 7491.013 180.00 1.32097 0.53
0 4 6 o 3429.053 3118.708 180.00 1.93940 1.49
2 0 6 o 8.060 10.329 0.00 1.82873 0.00
0 2 10 o 6.673 7.760 180.00 1.30414 0.00
1 4 3 o 5634.899 5718.822 0.00 2.72861 9.62
1 3 8 o 82.860 89.042 0.00 1.53674 0.05
2 2 4 o 11.325 16.888 0.00 2.24003 0.01
1 2 9 o 38.031 45.291 180.00 1.41103 0.02
1 1 10 o 11.000 13.749 0.00 1.29102 0.00
1 8 1 o 568.774 537.745 180.00 1.93478 0.49
2 5 1 o 0.000 10.115 0.00 2.28515 0.00
2 1 7 o 241.046 284.078 0.00 1.62813 0.15
0 8 2 o 2138.156 1986.585 180.00 1.95682 0.95
0 9 1 o 3557.488 4165.553 0.00 1.80410 1.34
1 4 5 o 181.615 163.686 180.00 2.10349 0.19
0 3 9 o 80.485 130.685 0.00 1.41748 0.02
2 6 0 o 3459.165 3047.355 180.00 2.10019 1.76
1 7 2 o 2346.812 2291.243 0.00 2.09199 2.37
2 2 6 o 658.470 751.338 180.00 1.78484 0.49
0 5 3 o 270.237 402.885 180.00 2.62943 0.21
2 0 8 o 479.788 467.158 180.00 1.47525 0.12
2 3 3 o 24.532 53.685 180.00 2.37163 0.03
1 4 7 o 104.617 246.593 180.00 1.65852 0.07
2 3 5 o 741.367 669.302 0.00 1.92635 0.64
2 4 2 o 315.345 358.926 180.00 2.38915 0.41
0 4 8 o 134.706 145.893 180.00 1.53154 0.04
0 10 0 o 7984.257 9955.830 180.00 1.63904 1.25
2 1 9 o 1113.681 1245.841 180.00 1.33556 0.47
1 3 10 o 1.987 3.119 0.00 1.26012 0.00
2 3 7 o 1798.014 1899.582 180.00 1.56744 1.03
2 2 8 o 1035.749 1283.556 0.00 1.45191 0.51
0 7 3 o 6809.839 6828.483 0.00 2.06736 3.35
1 6 3 o 4962.043 4790.102 180.00 2.18865 5.47
2 7 1 o 375.104 738.307 180.00 1.88700 0.31
0 5 5 o 25610.172 24618.297 0.00 2.05703 12.49
1 10 1 o 313.371 398.877 180.00 1.57888 0.18
2 8 0 o 8.187 11.734 0.00 1.73830 0.00
1 9 2 o 18.939 24.882 0.00 1.69610 0.01
0 4 10 o 7.689 11.256 180.00 1.25725 0.00
2 0 10 o 692.427 2120.758 0.00 1.22555 0.12
1 4 9 o 1.049 1.024 0.00 1.35218 0.00
2 6 2 o 523.546 614.855 180.00 2.00145 0.48
1 5 4 o 6705.557 6832.968 0.00 2.19302 7.42
0 5 7 o 0.042 0.051 180.00 1.63546 0.00
0 11 1 o 5730.549 4988.809 180.00 1.48065 1.47
0 10 2 o 1062.686 1155.977 0.00 1.59079 0.31
2 4 4 o 1079.298 958.127 180.00 2.02460 1.02
2 2 10 o 558.768 926.207 180.00 1.21207 0.19
1 5 6 o 826.663 1021.633 0.00 1.76078 0.59
2 4 6 o 1444.226 2095.948 0.00 1.66997 0.94
1 5 8 o 22.140 46.389 180.00 1.43887 0.01
0 5 9 o 0.609 0.603 180.00 1.33960 0.00
2 5 3 o 98.056 89.203 0.00 2.05262 0.10
1 8 3 o 101.330 113.630 0.00 1.78746 0.07
2 3 9 o 1113.016 1237.491 0.00 1.30144 0.44
3 0 1 o 2597.934 2400.886 180.00 2.16003 1.40
3 1 2 o 2773.632 2803.594 180.00 2.06177 2.72
3 0 3 o 3236.907 3181.447 0.00 1.96050 1.44
3 2 1 o 38.620 39.582 0.00 2.08869 0.04
3 1 4 o 3528.927 3723.972 0.00 1.81365 2.69
2 4 8 o 1937.913 1733.194 180.00 1.38803 0.88
2 9 1 o 24.184 29.715 180.00 1.58123 0.01
3 1 6 o 153.753 157.333 180.00 1.54556 0.09
3 0 5 o 2444.852 2858.191 180.00 1.68581 0.81
0 9 3 o 42.686 56.611 180.00 1.68290 0.01
2 8 2 o 94.297 145.327 180.00 1.68105 0.06
2 10 0 o 51.596 54.079 0.00 1.46656 0.01
0 12 0 o 3545.934 3170.169 0.00 1.36587 0.39
3 2 3 o 5337.222 4202.055 180.00 1.90670 4.48
3 0 7 o 166.708 265.440 180.00 1.42944 0.04
3 2 5 o 140.785 367.126 0.00 1.65124 0.09
3 4 1 o 1004.148 827.363 180.00 1.91080 0.85
0 6 4 o 8323.023 7304.828 180.00 2.10492 4.25
3 1 8 o 639.000 844.885 180.00 1.31409 0.26
3 3 2 o 1093.993 841.106 0.00 1.94249 0.95
3 0 9 o 955.231 1702.920 0.00 1.21916 0.17
0 6 6 o 5367.349 6867.153 0.00 1.71420 1.83
1 12 1 o 6.145 9.524 180.00 1.33046 0.00
2 5 5 o 2044.936 2402.119 180.00 1.74332 1.44
1 11 2 o 61.943 129.262 180.00 1.41918 0.03
0 6 8 o 53.043 69.901 180.00 1.41312 0.01
3 6 1 o 1727.167 2172.371 180.00 1.69435 1.15
3 2 7 o 34.623 36.028 0.00 1.40818 0.02
2 7 3 o 1524.234 1645.611 180.00 1.74959 1.08
1 10 3 o 5.742 5.202 180.00 1.49572 0.00
2 5 7 o 2275.620 2330.947 0.00 1.46399 1.14
0 13 1 o 1998.639 2815.248 0.00 1.25510 0.37
0 12 2 o 3759.732 3778.936 180.00 1.33757 0.79
1 6 5 o 463.425 739.666 0.00 1.82437 0.36
3 3 4 o 143.870 346.903 180.00 1.73086 0.10
1 6 7 o 429.505 435.299 0.00 1.51101 0.23
0 11 3 o 880.831 1018.266 0.00 1.41142 0.21
2 11 1 o 249.789 269.992 0.00 1.34982 0.11
3 3 6 o 24.918 21.446 0.00 1.49336 0.01
2 10 2 o 175.949 319.641 180.00 1.43169 0.08
3 5 2 o 251.573 262.419 0.00 1.75525 0.18
1 7 4 o 524.061 522.657 180.00 1.83412 0.41
3 3 8 o 13.545 22.142 180.00 1.28156 0.01
0 8 4 o 953.174 1147.630 0.00 1.74098 0.33
3 4 3 o 213.278 232.767 180.00 1.76850 0.15
2 6 4 o 975.219 830.825 0.00 1.77218 0.71
1 6 9 o 26.502 90.498 180.00 1.26859 0.01
2 5 9 o 1566.245 1974.903 180.00 1.24038 0.57
3 8 1 o 1.347 1.037 0.00 1.48649 0.00
2 12 0 o 380.853 587.055 180.00 1.26115 0.07
3 7 2 o 1780.994 2196.848 180.00 1.55433 1.00
2 9 3 o 7.188 6.862 0.00 1.49772 0.00
1 13 2 o 47.501 71.004 180.00 1.21700 0.02
3 4 5 o 31.321 34.034 180.00 1.55903 0.02
1 9 4 o 227.082 258.043 0.00 1.54972 0.13
0 10 4 o 73.737 80.417 180.00 1.46816 0.02
2 6 6 o 2291.239 2787.477 180.00 1.51965 1.23
1 12 3 o 7.654 14.577 180.00 1.27956 0.00
3 4 7 o 261.678 290.859 0.00 1.34967 0.11
0 7 5 o 1114.088 958.171 180.00 1.75232 0.40
2 12 2 o 803.995 971.549 0.00 1.23877 0.29
0 7 7 o 5127.939 5543.432 0.00 1.46931 1.29
3 6 3 o 317.607 332.733 0.00 1.59277 0.19
3 10 1 o 39.204 43.737 0.00 1.30569 0.02
1 7 6 o 648.028 760.635 0.00 1.55817 0.37
3 5 4 o 417.691 422.167 180.00 1.59445 0.25
2 6 8 o 2913.222 3006.716 0.00 1.29806 1.16
1 7 8 o 271.272 455.928 0.00 1.32182 0.11
3 9 2 o 85.496 77.862 180.00 1.36969 0.04
2 8 4 o 2305.835 2565.883 180.00 1.53822 1.27
0 7 9 o 278.336 377.414 0.00 1.24361 0.05
0 13 3 o 383.832 601.467 180.00 1.21209 0.07
3 5 6 o 328.911 316.721 180.00 1.40308 0.15
2 11 3 o 1228.295 1256.971 180.00 1.29674 0.49
4 2 0 o 256.588 202.783 180.00 1.61012 0.08
4 0 0 o 2960.469 3857.334 0.00 1.64212 0.46
4 1 1 o 1484.874 1353.499 0.00 1.62159 0.91
1 11 4 o 19.382 34.765 180.00 1.33005 0.01
4 0 4 o 974.766 1041.941 0.00 1.47037 0.25
4 0 2 o 108.943 110.602 180.00 1.59361 0.03
4 1 3 o 472.211 483.973 180.00 1.53187 0.26
3 8 3 o 573.893 1020.394 180.00 1.41647 0.27
2 7 5 o 1497.283 1428.099 0.00 1.54603 0.83
4 4 0 o 1355.752 1672.907 0.00 1.52428 0.37
4 2 2 o 2070.259 2323.651 0.00 1.56431 1.18
4 3 1 o 817.920 773.634 180.00 1.56160 0.46
4 1 5 o 1366.151 1129.457 0.00 1.38965 0.62
4 0 6 o 905.371 1117.208 180.00 1.31630 0.18
1 8 5 o 602.778 680.212 180.00 1.57197 0.35
3 5 8 o 146.759 486.961 0.00 1.22313 0.05
4 2 4 o 616.872 628.686 180.00 1.44726 0.30
0 12 4 o 1.930 3.245 180.00 1.26217 0.00
4 5 1 o 2362.644 2373.741 0.00 1.45922 1.18
4 1 7 o 294.322 373.850 180.00 1.23525 0.11
3 11 2 o 212.488 374.582 0.00 1.21096 0.07
4 2 6 o 343.991 352.065 0.00 1.29964 0.14
4 6 0 o 3597.908 3504.923 180.00 1.40741 0.84
2 10 4 o 547.981 485.154 0.00 1.34033 0.23
2 7 7 o 4191.057 3697.563 180.00 1.34121 1.77
4 4 2 o 1655.558 1208.555 180.00 1.48524 0.85
0 9 5 o 1085.196 1129.094 0.00 1.49943 0.28
4 3 3 o 3150.030 2633.427 0.00 1.48100 1.61
3 6 5 o 10.208 18.270 180.00 1.43463 0.00
4 7 1 o 2481.749 2317.743 180.00 1.33754 1.04
3 7 4 o 0.681 4.831 0.00 1.43935 0.00
4 3 5 o 91.410 102.161 180.00 1.35134 0.04
0 8 6 o 1065.489 1061.783 180.00 1.49984 0.28
0 8 8 o 801.189 1050.301 0.00 1.28565 0.16
4 8 0 o 974.692 1713.301 0.00 1.28134 0.19
3 10 3 o 358.937 480.385 180.00 1.25748 0.13
1 8 7 o 408.481 388.027 0.00 1.35804 0.18
4 6 2 o 1137.281 1212.421 0.00 1.37650 0.51
4 3 7 o 122.672 343.002 0.00 1.20811 0.04
3 6 7 o 119.596 555.201 180.00 1.26652 0.05
4 4 4 o 1216.061 1177.083 0.00 1.38397 0.55
1 10 5 o 263.374 238.992 0.00 1.36249 0.11
0 11 5 o 592.205 575.022 0.00 1.29785 0.12
4 5 3 o 569.676 424.460 180.00 1.39282 0.26
4 8 2 o 1473.405 1908.850 180.00 1.25789 0.55
2 9 5 o 4911.733 4241.914 180.00 1.36400 2.15
4 9 1 o 1197.782 1544.616 0.00 1.21439 0.42
4 4 6 o 67.081 87.187 180.00 1.25323 0.02
3 9 4 o 193.325 267.802 180.00 1.28906 0.08
2 8 6 o 3028.011 2573.803 0.00 1.36431 1.32
3 7 6 o 49.850 50.874 0.00 1.29391 0.02
4 7 3 o 707.357 898.536 0.00 1.28585 0.28
4 5 5 o 683.406 915.876 0.00 1.28335 0.27
3 8 5 o 117.367 128.162 180.00 1.30178 0.05
1 9 6 o 479.240 468.284 180.00 1.37231 0.21
0 9 7 o 3.958 7.008 0.00 1.31045 0.00
4 6 4 o 327.427 312.313 180.00 1.29473 0.13
0 10 6 o 5.568 6.145 180.00 1.31471 0.00
5 1 2 o 543.634 655.328 0.00 1.28450 0.21
5 0 1 o 2762.846 3039.217 0.00 1.30725 0.56
5 2 1 o 546.258 802.272 0.00 1.29093 0.21
5 1 4 o 10.390 13.618 0.00 1.21729 0.00
5 4 1 o 0.432 0.666 180.00 1.24541 0.00
5 0 3 o 4.827 5.362 0.00 1.25887 0.00
5 3 2 o 723.573 786.981 0.00 1.25406 0.27
2 9 7 o 2.301 2.971 0.00 1.21713 0.00
5 2 3 o 398.629 536.795 0.00 1.24427 0.15
1 11 6 o 83.861 100.468 0.00 1.21277 0.03
2 10 6 o 111.664 257.056 180.00 1.22055 0.04
1 10 7 o 182.243 205.481 180.00 1.21606 0.06
