#------------------------------------------------------------------------------
#$Date: 2016-03-21 01:21:50 +0200 (Mon, 21 Mar 2016) $
#$Revision: 178377 $
#$URL: svn://www.crystallography.net/cod/cif/4/00/21/4002147.cif $
#------------------------------------------------------------------------------
#
# This file is available in the Crystallography Open Database (COD),
# http://www.crystallography.net/
#
# All data on this site have been placed in the public domain by the
# contributors.
#
data_4002147
loop_
_publ_author_name
'Doverbratt, Isa'
'Ponou, Sim\'eon'
'Zhang, Yuemei'
'Lidin, Sven'
'Miller, Gordon J.'
_publ_section_title
;
 Linear Metal Chains in Ca2M2X (M = Pd, Pt; X = Al, Ge): Origin of the
 Pairwise Distortion and Its Role in the Structure Stability
;
_journal_issue                   1
_journal_name_full               'Chemistry of Materials'
_journal_page_first              304
_journal_paper_doi               10.1021/cm503985h
_journal_volume                  27
_journal_year                    2015
_chemical_formula_sum            'Al Ca2 Pt2'
_chemical_formula_weight         497.32
_space_group_crystal_system      monoclinic
_space_group_IT_number           15
_space_group_name_Hall           '-C 2yc'
_space_group_name_H-M_alt        'C 1 2/c 1'
_symmetry_space_group_name_Hall  '-C 2yc'
_symmetry_space_group_name_H-M   'C 1 2/c 1'
_audit_creation_method           SHELXL-2014/7
_cell_angle_alpha                90
_cell_angle_beta                 101.889(7)
_cell_angle_gamma                90
_cell_formula_units_Z            4
_cell_length_a                   9.8040(8)
_cell_length_b                   5.7411(5)
_cell_length_c                   7.7307(7)
_cell_measurement_temperature    293(2)
_cell_volume                     425.79(6)
_computing_structure_refinement  'SHELXL-2014/7 (Sheldrick, 2014)'
_diffrn_ambient_temperature      293(2)
_diffrn_measured_fraction_theta_full 1.000
_diffrn_measured_fraction_theta_max 0.970
_diffrn_radiation_type           MoK\a
_diffrn_radiation_wavelength     0.71073
_diffrn_reflns_av_R_equivalents  0.0323
_diffrn_reflns_av_unetI/netI     0.0316
_diffrn_reflns_Laue_measured_fraction_full 1.000
_diffrn_reflns_Laue_measured_fraction_max 0.970
_diffrn_reflns_limit_h_max       16
_diffrn_reflns_limit_h_min       -16
_diffrn_reflns_limit_k_max       9
_diffrn_reflns_limit_k_min       -9
_diffrn_reflns_limit_l_max       12
_diffrn_reflns_limit_l_min       -12
_diffrn_reflns_number            3743
_diffrn_reflns_point_group_measured_fraction_full 1.000
_diffrn_reflns_point_group_measured_fraction_max 0.970
_diffrn_reflns_theta_full        25.242
_diffrn_reflns_theta_max         36.641
_diffrn_reflns_theta_min         4.137
_exptl_absorpt_coefficient_mu    68.023
_exptl_crystal_colour            'dark silver'
_exptl_crystal_density_diffrn    7.758
_exptl_crystal_description       block
_exptl_crystal_F_000             836
_refine_diff_density_max         4.418
_refine_diff_density_min         -6.954
_refine_diff_density_rms         0.725
_refine_ls_extinction_coef       0.0054(3)
_refine_ls_extinction_expression Fc^*^=kFc[1+0.001xFc^2^\l^3^/sin(2\q)]^-1/4^
_refine_ls_extinction_method     'SHELXL-2014/7 (Sheldrick 2014'
_refine_ls_goodness_of_fit_ref   1.063
_refine_ls_hydrogen_treatment    undef
_refine_ls_matrix_type           full
_refine_ls_number_parameters     25
_refine_ls_number_reflns         1030
_refine_ls_number_restraints     0
_refine_ls_restrained_S_all      1.063
_refine_ls_R_factor_all          0.0329
_refine_ls_R_factor_gt           0.0296
_refine_ls_shift/su_max          0.000
_refine_ls_shift/su_mean         0.000
_refine_ls_structure_factor_coef Fsqd
_refine_ls_weighting_details
'w=1/[\s^2^(Fo^2^)+(0.0465P)^2^] where P=(Fo^2^+2Fc^2^)/3'
_refine_ls_weighting_scheme      calc
_refine_ls_wR_factor_gt          0.0715
_refine_ls_wR_factor_ref         0.0730
_reflns_Friedel_coverage         0.000
_reflns_number_gt                936
_reflns_number_total             1030
_reflns_threshold_expression     'I > 2\s(I)'
_cod_data_source_file            cm503985h_si_002.cif
_cod_data_source_block           Ca2Pt2Al_C2/c_IV
_cod_depositor_comments
'Adding full bibliography for 4002144--4002147.cif.'
_cod_database_code               4002147
#BEGIN Tags that were not found in dictionaries:
_shelx_shelxl_version_number     2014/7
_shelx_space_group_comment
;
The symmetry employed for this shelxl refinement is uniquely defined
by the following loop, which should always be used as a source of
symmetry information in preference to the above space-group names.
They are only intended as comments.
;
_shelx_res_file
;

    shelx.res created by SHELXL-2014/7

TITL 221_PtAl_0m in C2/c
CELL 0.71073   9.8040   5.7411   7.7307  90.000 101.889  90.000
ZERR    4.00   0.0008   0.0005   0.0007   0.000   0.007   0.000
LATT  7
SYMM -X, Y, 0.5-Z
SFAC AL CA PT
UNIT 4 8 8

L.S. 9
BOND
acta
FMAP 2
PLAN 20

WGHT    0.046500
EXTI    0.005366
FVAR       0.06954
PT1   3    0.128992    0.133951    0.004148    11.00000    0.00190    0.00301 =
         0.00593    0.00006   -0.00002   -0.00060
AL1   1    0.000000    0.108598    0.250000    10.50000    0.00154    0.00658 =
         0.00389    0.00000   -0.00025    0.00000
CA3   2    0.350262    0.131365    0.351317    11.00000    0.00442    0.00408 =
         0.00900    0.00011    0.00031   -0.00085
MOLE   2
HKLF 4

REM  221_PtAl_0m in C2/c
REM R1 =  0.0296 for     936 Fo > 4sig(Fo)  and  0.0329 for all    1030 data
REM     25 parameters refined using      0 restraints

END

WGHT      0.0463      0.0000

REM Highest difference peak  4.418,  deepest hole -6.954,  1-sigma level  0.725
Q1    1   0.0628  0.1835 -0.0251  11.00000  0.05    4.42
Q2    1   0.0669  0.0812 -0.0228  11.00000  0.05    4.14
Q3    1   0.1922  0.0873  0.0326  11.00000  0.05    3.86
Q4    1   0.1981  0.1741  0.0382  11.00000  0.05    3.86
Q5    1   0.1471  0.0857 -0.0546  11.00000  0.05    3.29
Q6    1   0.3724  0.1371  0.5017  11.00000  0.05    2.80
Q7    1   0.1498  0.1987 -0.0431  11.00000  0.05    2.74
Q8    1   0.1123  0.0829  0.0614  11.00000  0.05    2.63
Q9    1   0.1075  0.1923  0.0562  11.00000  0.05    2.51
Q10   1   0.1115  0.3310 -0.0058  11.00000  0.05    1.92
Q11   1   0.2144 -0.1344  0.0018  11.00000  0.05    1.73
Q12   1   0.2549  0.1482  0.1180  11.00000  0.05    1.72
Q13   1   0.0865  0.2738 -0.1050  11.00000  0.05    1.63
Q14   1  -0.0364  0.1663 -0.0359  11.00000  0.05    1.47
Q15   1   0.1606 -0.0563  0.0369  11.00000  0.05    1.41
Q16   1   0.4561  0.0170  0.3347  11.00000  0.05    1.37
Q17   1   0.0986 -0.0569 -0.0141  11.00000  0.05    1.37
Q18   1   0.2676  0.1935  0.3614  11.00000  0.05    1.36
Q19   1   0.3758 -0.1388  0.3065  11.00000  0.05    1.36
Q20   1   0.0048  0.2194 -0.1068  11.00000  0.05    1.36
;
_shelx_res_checksum              22827
_shelx_hkl_file
;
   2   0   0    8.39    0.83
  -2   0   0    5.42    0.69
   4   0   0  755.67   27.97
  -4   0   0  798.19   27.85
  -6   0   0  123.22    5.99
   6   0   0  116.75    6.19
  -6   0   0  120.88    5.92
   6   0   0  109.73    5.23
  -6   0   0  121.07    5.15
   6   0   0  123.17    4.10
  -8   0   0  684.20   20.88
   8   0   0  675.73   19.66
  -8   0   0  695.70   23.87
   8   0   0  717.56   23.04
 -10   0   0   74.14    5.33
 -10   0   0   76.28    4.93
 -12   0   0  291.73   11.99
 -14   0   0  102.58    6.89
   1  -1   0  167.64    7.10
  -1  -1   0  205.22    6.72
   1   1   0  196.34    6.73
  -1   1   0  191.23    7.27
   3  -1   0  107.57    4.93
  -3  -1   0  105.22    4.36
  -3   1   0  108.60    5.00
   3   1   0  107.82    4.60
  -5  -1   0  114.31    4.68
   5  -1   0  109.85    5.68
  -5  -1   0  107.24    5.72
  -5  -1   0  108.87    5.04
   5   1   0  118.05    5.58
  -5   1   0  114.01    5.69
   5   1   0  114.22    3.90
   5   1   0  104.64    5.16
  -5   1   0  113.48    4.50
  -7  -1   0  150.13    7.87
   7  -1   0  170.13    5.47
  -7  -1   0  167.64    6.80
   7  -1   0  166.41    8.38
   7   1   0  168.64    5.71
   7   1   0  154.36    7.37
  -7   1   0  161.42    6.56
  -7   1   0  163.91    6.99
  -9  -1   0  121.63    7.33
  -9  -1   0  132.21    6.36
   9   1   0  122.50    6.73
   9   1   0  126.15    5.15
  -9   1   0  123.67    6.06
 -11  -1   0   94.15    6.77
 -11  -1   0   98.86    6.07
  11   1   0  101.56    4.94
 -11   1   0   94.56    5.71
 -13  -1   0   36.01    4.44
 -13  -1   0   47.83    5.80
 -13   1   0   48.11    5.31
 -15  -1   0  116.21    7.65
 -15   1   0  108.16    7.23
   0  -2   0   18.94    1.05
   0   2   0   18.23    1.04
   0   2   0   17.90    1.12
   2  -2   0    0.52    0.56
  -2  -2   0    0.31    0.29
  -2   2   0    1.92    0.84
   2   2   0    1.28    0.43
  -4  -2   0   21.33    1.38
  -4  -2   0   13.50    2.20
   4  -2   0   18.27    1.90
   4   2   0   11.78    1.78
   4   2   0   16.15    1.52
   4   2   0   21.32    1.39
  -6  -2   0   -0.02    0.61
  -6  -2   0    2.21    1.29
   6  -2   0   -0.08    0.57
   6  -2   0    0.62    0.41
   6   2   0   -0.46    0.32
  -6   2   0    0.26    0.54
   6   2   0    0.47    0.88
  -8  -2   0    6.93    1.75
  -8  -2   0    5.51    1.94
   8   2   0    7.58    1.98
  -8   2   0    8.36    1.55
   8   2   0    9.42    1.44
 -10  -2   0   -0.28    0.98
 -10  -2   0    2.28    1.74
  10   2   0    1.34    0.88
 -10   2   0   -0.07    0.76
 -12  -2   0    9.56    2.35
 -12  -2   0    8.81    2.79
 -12   2   0    4.08    1.61
  12   2   0    4.64    1.50
 -14  -2   0    1.59    1.98
 -14  -2   0    1.14    1.60
 -14   2   0    0.70    1.51
  -1  -3   0  228.58    8.53
  -1  -3   0  233.94    7.55
   1  -3   0  230.59    8.88
   1   3   0  236.65    8.53
   1   3   0  236.39    7.40
  -1   3   0  238.05    8.90
  -3  -3   0  161.12    6.15
  -3  -3   0  158.04    7.14
   3  -3   0  157.69    7.14
   3   3   0  161.78    6.70
   3   3   0  167.42    6.50
  -5  -3   0  172.34    8.28
  -5  -3   0  173.28    6.45
   5  -3   0  179.78    5.78
   5  -3   0  177.64    8.21
   5   3   0  147.66    7.48
  -5   3   0  169.84    5.81
   5   3   0  173.51    6.23
   7  -3   0  199.18    9.75
  -7  -3   0  212.45    8.00
  -7  -3   0  197.94    9.80
  -7   3   0  189.36    7.08
   7   3   0  176.70    9.07
   7   3   0  200.99    7.34
  -9  -3   0  146.39    7.19
  -9  -3   0  149.80    8.89
  -9   3   0  160.10    6.69
   9   3   0  139.63    8.33
   9   3   0  154.90    6.57
 -11  -3   0  156.35    8.04
 -11  -3   0  161.37    9.99
 -11   3   0  155.46    7.34
  11   3   0  147.38    7.10
 -13  -3   0   78.01    7.17
 -13  -3   0   88.88    6.34
  13   3   0   69.77    5.28
 -13   3   0   84.65    5.57
 -15  -3   0  146.31    8.86
 -15  -3   0  153.37   10.72
 -15   3   0  148.47    8.14
   0  -4   0  940.11   32.37
   0  -4   0  936.23   26.12
   0   4   0  905.31   25.86
  -2  -4   0    3.18    0.61
   2  -4   0    1.91    0.66
   2  -4   0    2.64    0.77
  -2  -4   0    2.11    1.02
  -2  -4   0    5.07    1.09
   2   4   0    5.76    1.08
  -4  -4   0  756.17   24.42
  -4  -4   0  725.76   21.18
   4  -4   0  713.39   20.38
   4  -4   0  682.36   26.52
   4   4   0  704.50   20.96
   4   4   0  713.77   23.73
  -6  -4   0   80.36    5.46
   6   4   0   71.02    5.02
   6   4   0   78.96    4.06
  -8  -4   0  550.14   20.78
  -8   4   0  523.55   15.73
   8   4   0  496.42   19.98
   8   4   0  523.91   16.92
 -10  -4   0   58.41    5.75
 -10   4   0   51.51    3.57
  10   4   0   56.06    4.06
 -12  -4   0  227.13   13.04
 -12   4   0  245.78    9.70
  12   4   0  216.74   10.17
 -14  -4   0   73.82    7.57
  14   4   0   66.79    5.71
  -1  -5   0   67.11    3.56
   1  -5   0   71.47    3.51
  -1   5   0   70.00    3.33
   1   5   0   65.99    3.39
   3  -5   0   33.41    2.24
  -3  -5   0   31.32    2.51
  -3  -5   0   31.72    2.96
   3   5   0   34.56    2.50
   3   5   0   37.11    2.90
  -5  -5   0   31.09    3.88
  -5  -5   0   27.04    2.47
   5   5   0   27.30    2.42
   5   5   0   32.08    3.78
  -7  -5   0   63.29    4.16
  -7  -5   0   69.17    5.46
   7   5   0   64.30    5.17
   7   5   0   64.97    4.20
  -9  -5   0   53.41    5.37
  -9  -5   0   53.75    4.10
   9   5   0   49.71    4.06
 -11  -5   0   35.62    4.07
 -11  -5   0   36.17    5.49
  11   5   0   39.25    4.43
 -13  -5   0   22.04    4.97
 -13  -5   0   10.44    2.66
  13   5   0   12.97    3.03
   0  -6   0   56.17    3.42
   0   6   0   61.55    3.40
  -2  -6   0    0.49    0.73
   2  -6   0    5.27    1.14
   2   6   0    3.17    0.97
  -4  -6   0   68.60    4.26
   4   6   0   70.63    4.16
  -6  -6   0    0.52    1.23
  -6  -6   0    0.13    0.80
   6   6   0   -0.06    0.71
  -8  -6   0   35.81    4.93
  -8  -6   0   37.81    3.60
   8   6   0   34.20    3.79
 -10  -6   0    4.79    1.92
 -10  -6   0    5.81    2.65
  10   6   0    5.06    2.02
 -12  -6   0   34.38    5.87
 -12  -6   0   33.02    4.66
  12   6   0   31.91    4.51
  -1  -7   0  126.08    5.86
   1  -7   0  109.61    5.42
   1   7   0  112.61    5.45
  -3  -7   0  112.01    5.91
   3   7   0  121.31    5.90
  -5  -7   0  125.82    6.64
   5   7   0  124.70    6.44
  -7  -7   0  120.82    6.85
   7   7   0  121.05    6.75
  -9  -7   0   96.19    6.45
  -9  -7   0  103.31    7.74
   9   7   0  102.60    6.52
   0  -8   0  344.64   13.05
  -2  -8   0    1.93    1.25
   2   8   0    1.73    1.15
  -4  -8   0  293.06   11.57
   4   8   0  273.10   11.10
  -6  -8   0   28.89    3.90
   6   8   0   31.54    3.89
  -8  -8   0  216.38   10.52
   8   8   0  216.58   10.36
  -3  -9   0    4.24    1.71
   3   9   0    2.91    1.45
  -5  -9   0    2.42    1.63
   5   9   0    3.55    1.58
 -16   0   1    0.37    1.52
 -14   0   1   -0.09    1.15
 -12   0   1   -0.08    0.96
  10   0  -1   -0.15    0.74
 -10   0   1    0.45    0.82
 -10   0   1   -0.25    0.84
  10   0  -1   -0.40    0.45
   8   0  -1    1.08    0.53
   8   0  -1   -0.11    0.65
  -8   0   1    0.78    0.86
  -8   0   1    0.58    0.87
  -6   0   1   -0.85    0.62
  -6   0   1    0.76    0.67
   6   0  -1    0.27    0.64
  -6   0   1   -0.18    0.55
   6   0  -1    0.29    0.36
   6   0  -1    0.36    0.78
   4   0  -1   -0.14    0.55
  -4   0   1   -0.20    0.47
  -2   0   1    2.90    0.73
   2   0  -1    1.05    0.56
   0   0  -1    1.12    0.25
   0   0   1    0.94    0.23
  -2   0  -1    0.53    0.41
   2   0   1    0.17    0.34
  -4   0  -1    1.61    0.67
   4   0   1    0.73    0.53
  -6   0  -1    0.07    0.55
  -6   0  -1    1.11    0.83
  -6   0  -1    0.81    0.73
   6   0   1    0.19    0.38
   6   0   1   -0.27    0.51
  -8   0  -1   -0.40    0.72
  -8   0  -1    0.08    0.83
 -10   0  -1   -0.73    0.79
 -10   0  -1    2.61    1.36
 -12   0  -1    0.33    1.28
 -14   0  -1    0.03    1.26
 -15  -1   1   50.59    5.80
 -15   1   1   43.40    5.18
 -13  -1   1  112.41    7.76
 -13  -1   1  114.59    6.95
 -13   1   1  107.44    6.57
 -11  -1   1   49.27    4.09
 -11  -1   1   55.11    4.93
 -11   1   1   53.68    4.17
  11   1  -1   63.37    4.72
  11   1  -1   52.20    3.34
   9  -1  -1  125.17    4.78
  -9  -1   1  115.25    5.85
  -9  -1   1  111.19    6.92
   9   1  -1  122.71    4.89
   9   1  -1  121.75    6.43
  -9   1   1  115.44    5.74
  -7  -1   1  123.56    5.38
   7  -1  -1  128.76    4.42
   7  -1  -1  121.10    5.17
   7  -1  -1  125.45    6.91
  -7  -1   1  113.92    6.51
   7   1  -1  110.46    5.74
  -7   1   1  120.10    5.25
   7   1  -1  123.91    4.51
  -7   1   1  117.34    5.72
  -5  -1   1  233.70    9.69
   5  -1  -1  244.17   10.37
  -5  -1   1  244.26    9.50
   5   1  -1  202.38    8.59
  -5   1   1  241.79    7.77
   5   1  -1  245.08    7.23
   5   1  -1  236.11   10.08
  -5   1   1  250.32   10.49
  -3  -1   1  101.67    4.15
   3  -1  -1   97.13    4.79
   3   1  -1  106.55    4.52
  -3   1   1   95.63    4.92
  -1  -1   1  283.43    9.36
   1  -1  -1  263.31    9.87
   1  -1  -1  283.33    9.87
  -1  -1   1  253.55    9.40
  -1   1   1  280.12    9.89
  -1   1   1  269.86    9.88
  -1  -1  -1  228.40    7.87
   1  -1   1  211.25    7.90
   1   1   1  222.15    7.88
   1   1   1  211.45    7.86
  -1   1  -1  212.35    7.94
   3  -1   1  354.16   12.99
  -3  -1  -1  344.33   12.58
  -3   1  -1  338.82   12.99
   3   1   1  338.92   12.69
  -5  -1  -1  188.61    6.82
  -5  -1  -1  182.50    7.65
   5  -1   1  187.35    8.22
  -5  -1  -1  183.86    8.11
   5   1   1  191.46    5.97
  -5   1  -1  170.41    6.40
   5   1   1  177.74    7.95
  -5   1  -1  186.05    8.20
  -7  -1  -1  170.88    7.18
   7  -1   1  178.78    8.63
  -7  -1  -1  176.53    8.52
  -7   1  -1  163.01    6.75
   7   1   1  165.98    5.95
  -9  -1  -1  253.25   10.16
  -9  -1  -1  259.01   11.70
  -9   1  -1  252.76    9.81
   9   1   1  234.70    8.54
 -11  -1  -1  122.78    6.92
 -11  -1  -1  120.54    7.88
 -11   1  -1  111.60    6.45
 -13  -1  -1  188.77    9.62
 -13  -1  -1  171.40   10.39
 -13   1  -1  177.12    9.11
 -15  -1  -1   33.36    4.84
 -15   1  -1   39.03    4.88
 -14  -2   1  338.43   16.18
 -14  -2   1  333.81   14.04
 -14   2   1  338.76   13.72
 -12  -2   1   83.58    5.64
 -12  -2   1   86.13    6.95
  12   2  -1   86.47    5.02
 -12   2   1   84.16    5.47
  12   2  -1  100.74    6.72
 -10  -2   1  505.60   20.16
 -10  -2   1  498.50   16.90
  10   2  -1  488.31   15.92
 -10   2   1  521.38   16.64
  10   2  -1  523.50   19.39
  -8  -2   1   21.29    2.68
   8  -2  -1   18.68    1.45
  -8  -2   1   20.24    3.36
   8   2  -1   17.01    1.60
   8   2  -1   16.79    2.71
  -8   2   1   18.37    2.27
  -6  -2   1  932.43   26.02
   6  -2  -1 1000.00   34.80
   6  -2  -1  978.84   25.73
  -6  -2   1  965.57   31.17
   6   2  -1  923.82   25.95
   6   2  -1  853.29   29.74
  -6   2   1  874.38   25.63
  -4  -2   1    7.11    0.75
   4  -2  -1    5.41    1.23
  -4  -2   1    5.00    1.52
   4   2  -1    7.15    0.94
  -4   2   1    7.65    1.64
   4   2  -1    6.25    1.03
   4   2  -1    5.63    1.29
   4   2  -1    6.63    1.21
  -2  -2   1  860.21   30.25
   2  -2  -1  895.29   31.20
  -2   2   1  908.73   31.37
   2   2  -1  870.44   30.38
  -2   2   1  867.37   31.38
   0  -2   1   91.26    3.64
   0  -2  -1   99.17    3.93
   0  -2  -1   93.93    3.89
   0   2  -1   94.05    3.71
   0   2   1   98.84    3.95
   0   2   1   97.57    3.90
  -2  -2  -1  893.85   30.59
   2  -2   1  848.59   31.07
   2   2   1  811.83   30.65
   2   2   1  894.80   30.60
  -2   2  -1  947.90   31.25
  -4  -2  -1   64.20    3.14
   4  -2   1   65.39    3.77
  -4  -2  -1   56.80    3.99
   4   2   1   52.58    3.53
   4   2   1   63.15    3.36
  -4   2  -1   66.04    2.85
   4   2   1   70.05    2.95
  -6  -2  -1  501.38   15.23
  -6  -2  -1  471.66   18.07
   6  -2   1  500.19   19.33
  -6   2  -1  463.56   14.41
   6   2   1  485.03   14.54
  -8  -2  -1  112.33    7.17
  -8  -2  -1  112.71    5.94
  -8   2  -1  120.69    5.51
   8   2   1  116.68    5.06
 -10  -2  -1  362.59   13.69
 -10  -2  -1  375.00   16.20
  10   2   1  334.89   12.25
 -10   2  -1  374.08   13.05
 -12  -2  -1   45.37    6.03
 -12  -2  -1   40.09    4.70
 -12   2  -1   41.10    3.80
 -14  -2  -1  169.74   10.88
 -14  -2  -1  153.73    9.12
 -14   2  -1  163.46    8.63
 -15  -3   1   25.66    5.01
 -15  -3   1   28.82    4.66
 -15   3   1   38.08    4.53
 -13  -3   1   76.59    5.73
 -13  -3   1   71.92    6.91
  13   3  -1   65.93    4.96
 -13   3   1   75.90    5.29
 -11  -3   1   23.33    4.25
 -11  -3   1   29.04    3.92
 -11   3   1   26.33    3.33
  11   3  -1   25.84    4.10
  11   3  -1   21.89    2.78
  -9  -3   1   60.58    4.13
  -9  -3   1   58.14    5.17
   9   3  -1   49.48    4.47
   9   3  -1   59.10    3.51
  -9   3   1   56.75    3.67
  -7  -3   1   65.05    3.86
   7  -3  -1   85.65    5.19
  -7  -3   1   63.92    5.07
   7  -3  -1   65.33    3.07
  -7   3   1   66.46    3.50
   7   3  -1   60.00    4.46
   7   3  -1   73.82    3.55
   5  -3  -1  154.34    5.34
  -5  -3   1  146.73    5.50
   5  -3  -1  153.90    7.30
  -5   3   1  139.11    5.08
   5   3  -1  121.86    6.38
   5   3  -1  156.19    5.31
   5   3  -1  145.99    5.35
   3  -3  -1   37.76    2.68
  -3  -3   1   31.04    2.80
   3  -3  -1   43.01    2.23
  -3  -3   1   45.21    1.82
  -3   3   1   42.20    2.97
   3   3  -1   41.22    2.19
   3   3  -1   48.53    2.24
   3   3  -1   36.77    2.57
   1  -3  -1  131.50    4.72
  -1  -3   1  124.13    4.46
   1  -3  -1  118.06    5.16
  -1   3   1  121.09    4.45
   1   3  -1  126.89    4.36
  -1   3   1  123.03    5.21
  -1  -3  -1  130.49    5.25
  -1  -3  -1  134.62    4.99
   1  -3   1  129.04    5.36
   1   3   1  131.86    5.30
   1   3   1  129.98    4.75
   3  -3   1  218.40    9.06
  -3  -3  -1  211.49    7.42
  -3  -3  -1  202.85    8.87
  -3  -3  -1  208.87    8.16
   3   3   1  224.80    7.35
   3   3   1  205.60    8.38
  -3   3  -1  223.10    6.58
   5  -3   1   87.39    5.15
  -5  -3  -1   91.17    4.29
  -5  -3  -1   80.52    5.39
   5   3   1  100.31    4.23
  -5   3  -1   86.99    3.69
  -7  -3  -1   86.43    4.74
  -7  -3  -1   85.41    6.02
   7   3   1   80.99    4.19
  -7   3  -1   81.90    3.97
  -9  -3  -1  167.94    7.82
  -9  -3  -1  152.28    9.26
  -9   3  -1  159.18    6.75
   9   3   1  152.71    6.85
 -11  -3  -1   71.36    6.62
 -11  -3  -1   78.15    5.57
  11   3   1   62.14    4.50
 -11   3  -1   69.84    4.55
 -13  -3  -1  107.91    7.18
 -13  -3  -1  105.36    8.62
 -13   3  -1   98.61    6.15
 -15  -3  -1   13.55    3.71
 -14  -4   1   12.39    3.85
  14   4  -1   17.44    3.39
 -12  -4   1    1.51    1.80
 -12  -4   1    3.23    1.77
  12   4  -1   -1.09    0.78
 -10  -4   1   35.06    4.06
 -10  -4   1   28.15    4.52
  10   4  -1   28.41    4.28
  10   4  -1   32.23    3.45
  -8  -4   1    3.78    1.35
  -8  -4   1    3.17    1.70
   8   4  -1    3.04    1.01
   8   4  -1    3.89    1.69
  -6  -4   1   33.34    3.46
   6  -4  -1   31.43    2.14
  -6  -4   1   33.92    2.59
   6   4  -1   32.07    2.36
   6   4  -1   28.63    2.99
  -4  -4   1    1.71    0.70
  -4  -4   1    0.51    0.97
   4  -4  -1   -0.16    0.48
   4  -4  -1    0.57    0.53
   4   4  -1    0.21    0.46
   4   4  -1    1.87    0.75
   4   4  -1    0.17    0.68
   2  -4  -1   64.17    3.11
  -2  -4   1   60.02    3.76
   2  -4  -1   55.92    3.25
  -2  -4   1   63.73    3.09
   2   4  -1   56.26    2.87
   0  -4  -1    0.03    0.29
   0  -4  -1    0.21    0.52
   0  -4   1    0.44    0.44
   0  -4   1    0.08    0.22
   0   4  -1    0.01    0.34
   0   4   1    0.31    0.45
  -2  -4  -1   31.04    2.68
   2  -4   1   33.91    1.95
  -2  -4  -1   30.35    2.24
   2  -4   1   31.09    2.15
   2   4   1   32.74    2.18
  -2   4  -1   32.96    1.68
  -4  -4  -1    6.91    1.37
  -4  -4  -1    5.24    1.63
   4   4   1    6.19    1.25
  -6  -4  -1   35.23    2.78
  -6  -4  -1   36.71    4.54
   6   4   1   36.17    2.78
  -6   4  -1   36.63    2.33
  -8  -4  -1    1.18    0.91
  -8  -4  -1    0.31    1.35
   8   4   1   -0.49    0.72
  -8   4  -1    0.92    0.74
 -10  -4  -1    9.17    2.95
 -10   4  -1   16.64    2.39
  10   4   1   11.18    2.29
 -12  -4  -1   -1.73    1.56
 -12  -4  -1    3.13    1.68
 -12   4  -1    5.55    1.69
  12   4   1    1.21    1.55
 -14  -4  -1    8.66    3.43
 -14   4  -1   13.55    2.76
 -13  -5   1  117.03    9.48
  13   5  -1  113.85    7.29
 -11  -5   1   73.10    7.00
  11   5  -1   68.61    4.98
  -9  -5   1  138.84    8.83
   9   5  -1  137.17    6.78
   9   5  -1  131.88    8.42
  -7  -5   1  100.98    6.73
   7   5  -1  108.27    6.60
   7   5  -1  104.02    5.32
  -5  -5   1  204.65    9.64
  -5  -5   1  198.05    7.94
   5  -5  -1  206.25    7.57
   5   5  -1  210.70    9.24
   5   5  -1  207.85    7.94
   3  -5  -1  112.35    4.98
  -3  -5   1  125.85    6.24
  -3  -5   1  113.78    5.16
   3   5  -1  121.53    5.14
   3   5  -1  118.79    5.69
   1  -5  -1  221.09    7.95
  -1  -5   1  229.64    7.84
  -1   5   1  201.25    7.57
   1   5  -1  224.18    7.63
   1  -5   1  161.57    6.01
  -1  -5  -1  158.93    6.46
   1   5   1  166.49    6.33
  -1   5  -1  162.91    5.89
  -3  -5  -1  259.34   10.64
  -3  -5  -1  251.92    9.42
   3   5   1  263.02    9.29
  -5  -5  -1  195.09    9.40
  -5  -5  -1  187.66    7.95
   5   5   1  199.45    7.95
  -7  -5  -1  174.05    7.84
  -7  -5  -1  182.70    9.64
   7   5   1  175.44    7.83
  -9  -5  -1  224.72   11.95
  -9  -5  -1  226.22    9.77
   9   5   1  228.11    9.88
 -11  -5  -1  109.86    6.63
 -11  -5  -1  113.47    8.82
  11   5   1  103.77    6.71
 -13  -5  -1  216.74   13.29
 -13  -5  -1  205.24   10.18
  13   5   1  169.02    9.82
 -12  -6   1   50.50    4.86
 -12  -6   1   54.05    7.15
  12   6  -1   53.44    5.12
 -10  -6   1  360.07   16.43
 -10  -6   1  312.69   13.04
  10   6  -1  312.99   13.07
  -8  -6   1   12.62    3.06
  -8  -6   1   14.72    2.53
   8   6  -1   12.84    3.06
   8   6  -1   13.97    2.51
  -6  -6   1  592.84   21.43
  -6  -6   1  560.42   18.66
   6   6  -1  569.81   20.99
   6   6  -1  561.18   18.53
  -4  -6   1    2.37    1.04
   4  -6  -1    1.82    0.90
   4   6  -1    3.59    1.12
   2  -6  -1  488.30   15.68
  -2  -6   1  520.82   15.97
   2   6  -1  487.62   15.58
   0  -6  -1   21.60    2.46
   0  -6   1   21.21    1.99
   0   6  -1   22.16    1.93
   0   6   1   22.05    2.06
  -2  -6  -1  470.48   15.41
   2   6   1  466.94   15.12
  -4  -6  -1   26.34    2.99
   4   6   1   29.95    2.66
  -6  -6  -1  303.60   11.58
  -6  -6  -1  301.41   13.07
   6   6   1  279.54   11.19
  -8  -6  -1   58.77    4.63
  -8  -6  -1   63.02    5.72
   8   6   1   65.95    4.80
 -10  -6  -1  215.50   12.10
 -10  -6  -1  195.83    9.66
  10   6   1  198.99    9.79
 -12  -6  -1   36.38    7.12
  12   6   1   22.21    3.81
 -11  -7   1    8.18    3.02
  -9  -7   1   11.10    3.08
  -9  -7   1   16.32    3.07
   9   7  -1   13.13    2.72
  -7  -7   1   12.18    2.40
   7   7  -1   13.19    2.46
  -5  -7   1   39.99    3.48
   5   7  -1   34.60    3.20
   3  -7  -1    8.08    1.80
  -3  -7   1    6.10    1.63
   3   7  -1    3.92    1.24
   1  -7  -1   22.00    2.66
  -1  -7   1   20.05    2.47
   1   7  -1   21.29    2.48
  -1  -7  -1   25.33    2.97
   1   7   1   23.50    2.68
  -3  -7  -1   45.56    3.66
   3   7   1   46.62    3.54
  -5  -7  -1   19.13    2.88
   5   7   1   18.95    2.76
  -7  -7  -1   16.71    2.95
   7   7   1   23.34    3.43
  -9  -7  -1   41.77    5.49
  -9  -7  -1   38.40    4.65
   9   7   1   35.39    4.52
  -8  -8   1    3.60    1.88
   8   8  -1    1.38    1.68
  -6  -8   1   61.46    4.85
   6   8  -1   58.02    4.58
  -4  -8   1    0.57    1.13
   4   8  -1    0.40    1.02
  -2  -8   1   77.73    4.78
   2   8  -1   73.05    4.51
   0  -8  -1    0.04    0.90
  -2  -8  -1   48.34    4.00
   2   8   1   49.90    3.81
  -4  -8  -1    5.69    1.95
   4   8   1    6.11    1.76
  -6  -8  -1   50.54    4.52
   6   8   1   54.29    4.58
  -8  -8  -1    1.48    1.59
   8   8   1    2.73    1.90
  -5  -9   1   90.53    6.03
   5   9  -1   82.64    5.51
  -1  -9  -1   71.46    5.01
  -3  -9  -1  105.80    6.45
   3   9   1  101.33    6.14
 -16   0   2  223.07   10.85
 -14   0   2   30.12    4.04
 -12   0   2  506.56   17.42
  12   0  -2  513.76   16.31
 -10   0   2   20.05    3.24
  10   0  -2   24.18    2.88
  10   0  -2   23.20    1.92
 -10   0   2   26.49    3.13
   8   0  -2  654.81   18.91
   8   0  -2  699.70   21.64
  -8   0   2  658.39   22.88
  -8   0   2  624.80   19.52
  -6   0   2   13.81    2.17
  -6   0   2   15.44    1.96
   6   0  -2   17.69    1.24
   6   0  -2   18.53    2.20
   6   0  -2   17.99    1.66
  -6   0   2   17.23    1.60
   4   0  -2  900.09   32.99
  -4   0   2  934.18   33.21
   2   0  -2   34.31    1.84
  -2   0   2   34.25    1.91
  -2   0   2   33.80    1.84
   0   0   2  669.14   23.08
   0   0  -2  660.18   23.12
   0   0  -2  651.94   23.08
   0   0   2  671.96   23.08
  -2   0  -2  149.53    5.86
   2   0   2  140.06    5.75
  -4   0  -2  599.05   19.24
  -4   0  -2  588.02   16.88
   4   0   2  578.49   21.70
  -4   0  -2  602.16   21.67
   6   0   2   26.70    2.50
  -6   0  -2   32.91    2.82
  -6   0  -2   36.11    2.68
  -8   0  -2  307.48   12.63
  -8   0  -2  313.45   11.44
 -10   0  -2   49.96    4.49
 -10   0  -2   47.53    4.11
 -12   0  -2  294.91   12.53
 -14   0  -2   17.39    3.43
 -15  -1   2   45.62    5.27
 -15   1   2   62.97    5.18
 -13  -1   2   26.59    3.65
 -13  -1   2   25.59    4.23
 -13   1   2   23.58    3.48
  13   1  -2   36.08    4.29
  13   1  -2   34.07    3.02
 -11  -1   2  133.09    8.03
 -11  -1   2  121.74    6.54
  11  -1  -2  138.02    5.62
  11   1  -2  139.90    7.29
 -11   1   2  132.56    6.68
  11   1  -2  133.69    5.74
   9  -1  -2   29.70    1.99
  -9  -1   2   20.20    3.30
  -9  -1   2   28.64    3.11
  -9   1   2   28.47    3.10
   9   1  -2   30.07    2.81
   9   1  -2   27.73    2.00
   7  -1  -2  163.03    5.51
  -7  -1   2  154.07    6.18
  -7  -1   2  147.56    7.82
   7  -1  -2  161.60    6.23
   7   1  -2  162.92    5.54
   7   1  -2  162.35    6.96
  -7   1   2  160.55    6.27
  -7   1   2  160.67    7.15
  -5  -1   2  116.28    4.37
   5  -1  -2  117.97    6.05
  -5  -1   2  114.08    5.43
   5  -1  -2  117.57    4.08
   5   1  -2  106.32    5.07
  -5   1   2  126.74    6.43
  -5   1   2  114.37    4.45
   5   1  -2  115.71    5.91
   5   1  -2  120.46    4.03
   5   1  -2  116.36    4.17
   3  -1  -2  395.92   14.54
  -3  -1   2  358.26   14.08
  -3   1   2  395.61   14.67
  -3   1   2  404.63   14.72
   3   1  -2  365.41   14.01
  -1  -1   2  144.37    5.31
  -1  -1   2  151.57    5.37
   1  -1  -2  148.37    5.74
   1  -1  -2  142.11    5.71
   1   1  -2  149.04    5.33
  -1   1   2  151.18    5.79
  -1   1   2  142.72    5.71
   1   1  -2  149.79    5.35
  -1  -1  -2  287.35   10.46
   1  -1   2  285.58   10.35
   1   1   2  283.88   10.43
  -1   1  -2  288.29   10.42
   1   1   2  285.26   10.47
  -3  -1  -2  312.87   11.22
   3  -1   2  290.27   11.33
  -3  -1  -2  285.09   10.68
  -3   1  -2  291.94   11.39
  -3   1  -2  293.10    8.84
   3   1   2  301.60   11.23
  -5  -1  -2  237.24   10.05
  -5  -1  -2  239.56    9.99
  -5  -1  -2  247.90    8.60
   5  -1   2  257.15   10.45
  -5   1  -2  242.91    8.92
   5   1   2  241.40   10.22
   5   1   2  249.26    7.89
  -5   1  -2  260.29    8.33
  -7  -1  -2  216.86   10.07
   7  -1   2  211.01   10.19
  -7  -1  -2  226.06    8.73
   7   1   2  221.96    7.57
  -7   1  -2  221.72    8.29
  -7   1  -2  223.39    8.84
  -9  -1  -2   65.03    4.70
  -9  -1  -2   66.22    5.38
  -9   1  -2   69.50    4.41
 -11  -1  -2  245.48   12.62
 -11  -1  -2  258.06   11.25
 -11   1  -2  248.31   10.57
 -13  -1  -2   43.42    5.35
 -13  -1  -2   35.29    5.25
 -13   1  -2   34.83    4.47
 -15  -1  -2  129.51    8.26
 -15   1  -2  127.20    8.80
 -14  -2   2    0.93    1.66
 -14  -2   2    1.87    1.50
 -14   2   2    1.61    1.41
  14   2  -2    0.96    1.28
 -12  -2   2    7.67    2.54
 -12  -2   2    4.50    1.72
  12   2  -2    4.70    1.39
  12   2  -2    5.46    1.96
 -12   2   2    5.73    1.83
 -10  -2   2    0.19    0.96
 -10  -2   2    1.83    1.35
  10  -2  -2    0.79    0.53
  10   2  -2   -0.45    0.44
 -10   2   2    0.54    0.84
  10   2  -2   -0.14    0.93
   8  -2  -2   11.63    1.39
  -8  -2   2   14.54    2.10
  -8  -2   2   15.21    2.98
   8   2  -2   12.52    2.24
   8   2  -2   12.41    1.53
  -8   2   2   10.07    1.67
   6  -2  -2    0.47    0.42
  -6  -2   2   -0.06    0.47
  -6  -2   2    0.15    0.80
   6  -2  -2    0.67    0.76
   6   2  -2    0.19    0.37
   6   2  -2    0.08    0.57
   6   2  -2    1.82    0.67
  -6   2   2    0.19    0.51
   4  -2  -2    7.97    1.09
  -4  -2   2   10.90    0.94
  -4  -2   2   12.16    1.08
   4  -2  -2   13.82    1.65
  -4   2   2    8.97    1.66
  -4   2   2   14.07    2.24
   4   2  -2   12.03    0.98
   4   2  -2    9.48    1.43
   4   2  -2   13.64    1.01
   4   2  -2   10.21    1.66
   2  -2  -2    1.71    0.59
  -2   2   2    1.99    0.65
  -2   2   2    1.10    0.54
   0  -2  -2   18.02    1.31
   0  -2   2   16.13    0.99
   0  -2  -2   18.51    1.30
   0   2   2   19.55    1.35
   0   2  -2   17.06    0.93
   0   2   2   19.00    1.33
  -2  -2  -2    0.53    0.54
   2  -2   2    0.03    0.36
  -2  -2  -2    0.12    0.34
   2   2   2    0.05    0.32
   2   2   2   -0.23    0.39
  -2   2  -2    3.14    0.70
   2   2   2   -0.14    0.27
   4  -2   2    6.35    1.26
  -4  -2  -2    8.29    1.28
  -4  -2  -2    6.03    1.71
  -4   2  -2    9.90    1.33
   4   2   2    5.85    1.05
   4   2   2    6.74    1.25
  -6  -2  -2    0.10    0.86
   6  -2   2    0.36    0.81
  -6  -2  -2    0.51    0.96
   6   2   2    1.92    0.76
  -6   2  -2    1.16    0.64
  -8  -2  -2    6.47    2.30
  -8  -2  -2    4.51    1.61
  -8   2  -2    7.45    1.61
   8   2   2    7.69    1.47
 -10  -2  -2   -0.28    1.26
 -10  -2  -2    0.05    1.24
 -10   2  -2    1.13    1.01
 -12  -2  -2    4.88    2.45
 -12  -2  -2    2.17    1.80
 -12   2  -2    1.83    1.24
 -14  -2  -2    2.46    2.15
 -14  -2  -2    0.88    1.76
 -14   2  -2   -0.16    1.21
 -15  -3   2   94.29    6.81
 -15  -3   2   81.76    7.68
  15   3  -2   88.80    6.35
 -15   3   2   92.94    6.34
 -13  -3   2   51.32    6.45
 -13  -3   2   35.15    4.45
  13   3  -2   42.63    5.59
  13   3  -2   39.43    3.63
 -13   3   2   38.56    4.26
 -11  -3   2  160.14    7.82
 -11  -3   2  166.18   10.07
  11   3  -2  169.64    9.33
 -11   3   2  164.17    7.52
  11   3  -2  162.29    7.24
  -9  -3   2   52.62    5.02
   9  -3  -2   56.06    2.95
  -9  -3   2   49.87    3.61
   9   3  -2   46.36    4.23
  -9   3   2   49.21    3.36
   9   3  -2   53.20    3.24
   7  -3  -2  223.09    7.47
   7  -3  -2  237.34   10.54
  -7  -3   2  214.05    7.98
  -7  -3   2  210.06   10.50
  -7   3   2  207.36    7.58
   7   3  -2  199.82    9.36
   7   3  -2  226.49    7.71
   7   3  -2  222.65    7.63
   5  -3  -2  127.53    6.71
   5  -3  -2  144.13    5.22
  -5  -3   2  122.25    6.97
  -5  -3   2  132.14    5.23
  -5  -3   2  137.98    5.08
   5   3  -2  137.41    4.88
   5   3  -2  118.99    6.15
   5   3  -2  141.94    5.01
   3  -3  -2  420.66   12.56
  -3  -3   2  406.12   11.64
   3  -3  -2  420.95   15.95
   3   3  -2  394.56   14.09
   3   3  -2  408.94   12.01
   3   3  -2  416.10   11.47
  -3   3   2  415.65   16.04
   1  -3  -2  195.74    8.10
   1  -3  -2  207.76    7.06
   1  -3  -2  199.89    8.10
   1   3  -2  204.44    6.16
  -1   3   2  203.47    8.11
   1  -3   2  342.93   12.77
  -1  -3  -2  361.06   11.04
  -1  -3  -2  345.92   12.81
   1   3   2  342.74   12.86
  -1   3  -2  345.50    9.70
   1   3   2  330.47   10.60
   3  -3   2  341.66   13.53
  -3  -3  -2  342.05   11.28
  -3   3  -2  346.24   10.15
   3   3   2  352.63   11.01
  -5  -3  -2  275.78    9.60
  -5  -3  -2  247.70   11.54
   5  -3   2  285.99   11.84
  -5   3  -2  270.65    8.77
   5   3   2  270.85    9.40
  -7  -3  -2  316.83   11.21
  -7  -3  -2  316.11   11.04
  -7   3  -2  304.35   10.28
   7   3   2  309.07   10.94
  -9  -3  -2  113.47    6.17
  -9  -3  -2   96.77    7.40
  -9  -3  -2   99.89    5.38
   9   3   2   97.90    5.41
  -9   3  -2   99.98    5.13
 -11  -3  -2  321.09   15.99
 -11  -3  -2  315.10   13.05
 -11   3  -2  313.28   11.89
 -13  -3  -2   44.77    6.74
 -13   3  -2   48.29    4.29
 -14  -4   2   33.24    4.72
 -14  -4   2   27.61    5.37
  14   4  -2   25.41    3.86
 -12  -4   2  439.02   19.82
 -12  -4   2  448.93   16.29
  12   4  -2  404.66   15.45
  12   4  -2  446.33   19.03
 -10  -4   2   20.87    4.15
 -10  -4   2   17.28    2.89
  10   4  -2   15.87    2.32
  10   4  -2   18.31    3.67
   8  -4  -2  503.80   15.20
  -8  -4   2  524.64   16.22
  -8  -4   2  503.05   20.06
   8   4  -2  463.75   18.76
   8   4  -2  494.89   15.83
   6  -4  -2    8.42    1.34
  -6  -4   2    9.54    1.57
  -6  -4   2    6.50    2.07
   6   4  -2    9.35    1.50
   6   4  -2   10.34    1.49
   6   4  -2    9.37    2.03
  -4  -4   2  715.70   20.16
   4  -4  -2  700.06   27.14
   4  -4  -2  746.24   21.33
  -4  -4   2  747.18   25.12
   4   4  -2  720.11   23.89
   4   4  -2  710.21   20.89
   4   4  -2  754.01   20.03
   2  -4  -2   10.60    1.34
   2  -4  -2   16.07    1.85
  -2  -4   2   15.79    2.40
   2   4  -2   14.99    1.31
   2   4  -2   16.00    1.99
   0  -4  -2  524.86   15.56
   0  -4  -2  498.37   18.50
   0  -4   2  507.39   17.35
   0  -4   2  509.67   14.62
   0   4   2  469.39   14.99
   2  -4   2   72.64    3.71
  -2  -4  -2   62.24    4.17
  -2  -4  -2   75.78    3.89
   2   4   2   72.32    3.61
  -2   4  -2   69.88    2.85
  -4  -4  -2  445.99   14.72
  -4  -4  -2  434.29   16.98
  -4   4  -2  464.76   13.16
   4   4   2  466.02   14.50
  -6  -4  -2   23.07    2.70
  -6  -4  -2   26.02    3.91
  -6   4  -2   27.02    1.98
   6   4   2   26.44    2.50
  -8  -4  -2  244.10   12.50
  -8  -4  -2  246.32    9.95
  -8   4  -2  258.40    9.09
   8   4   2  250.65   10.02
 -10  -4  -2   40.73    5.93
 -10  -4  -2   33.94    3.86
  10   4   2   42.94    3.87
 -10   4  -2   33.14    3.05
 -12  -4  -2  243.08   13.99
 -12   4  -2  220.65    9.71
 -13  -5   2   16.56    4.59
  13   5  -2   10.45    2.74
 -11  -5   2   56.38    7.22
  11   5  -2   56.78    5.87
  11   5  -2   52.61    4.36
  -9  -5   2    8.88    2.74
   9   5  -2    6.58    2.32
   9   5  -2    8.75    1.89
   7  -5  -2   63.70    3.51
  -7  -5   2   59.79    5.19
   7   5  -2   57.22    4.65
   7   5  -2   55.06    3.67
   5  -5  -2   39.22    2.82
  -5  -5   2   49.79    4.21
   5   5  -2   38.59    3.41
   5   5  -2   43.53    2.88
  -3  -5   2  137.52    5.77
   3  -5  -2  139.84    5.90
  -3  -5   2  143.58    7.18
   3   5  -2  147.87    6.54
   3   5  -2  145.78    5.74
  -1  -5   2   33.38    2.25
   1  -5  -2   30.77    2.47
   1   5  -2   35.83    2.20
  -1  -5  -2   69.02    3.90
   1   5   2   70.20    3.68
  -3  -5  -2  104.39    5.36
  -3  -5  -2  113.98    6.24
   3   5   2  112.48    5.26
  -5  -5  -2   91.55    6.10
  -5  -5  -2   93.53    5.16
   5   5   2   90.75    4.96
  -7  -5  -2   80.94    5.05
  -7  -5  -2   90.02    6.57
   7   5   2   73.18    4.81
  -9  -5  -2   21.70    3.25
  -9  -5  -2   24.15    4.45
   9   5   2   19.48    3.07
 -11  -5  -2  108.51    6.75
 -11  -5  -2  118.07    9.12
  11   5   2   98.84    6.67
 -12  -6   2   35.59    4.68
 -12  -6   2   34.45    5.87
  12   6  -2   29.60    4.35
 -10  -6   2   -0.87    1.72
  10   6  -2    0.05    1.16
  10   6  -2   -0.81    1.58
  -8  -6   2   62.75    4.43
  -8  -6   2   66.59    5.80
   8   6  -2   59.44    4.29
   8   6  -2   54.01    5.06
  -6  -6   2   -0.10    1.16
  -6  -6   2   -0.30    0.75
   6   6  -2    0.00    0.66
   6   6  -2    0.28    1.09
   4  -6  -2   45.69    3.17
  -4  -6   2   49.25    3.37
   4   6  -2   48.18    3.25
   2  -6  -2    3.39    1.14
  -2  -6   2    5.16    1.23
   2   6  -2    5.07    1.20
   0  -6  -2   55.57    3.67
   0   6   2   58.90    3.54
  -2  -6  -2    0.42    0.72
   2   6   2    0.39    0.63
  -4  -6  -2   31.72    3.56
   4   6   2   32.85    2.99
  -6  -6  -2    2.50    1.35
  -6  -6  -2    5.69    2.12
   6   6   2    2.91    1.33
  -8  -6  -2   36.28    5.05
  -8  -6  -2   38.27    4.36
   8   6   2   33.74    4.13
 -10  -6  -2    0.72    1.95
 -10  -6  -2   -0.15    1.15
  10   6   2   -0.43    1.31
 -11  -7   2  135.76    9.98
  -9  -7   2   48.24    6.10
  -9  -7   2   50.28    5.30
   9   7  -2   46.37    5.76
   9   7  -2   43.97    4.19
  -7  -7   2  171.86    8.30
   7   7  -2  173.16    8.18
  -5  -7   2   82.19    5.01
   5   7  -2   80.52    4.76
  -3  -7   2  207.36    8.52
   3  -7  -2  216.00    8.57
   3   7  -2  210.52    8.37
   1  -7  -2  117.21    5.83
  -1  -7  -2  190.41    8.41
   1   7   2  201.38    8.24
  -3  -7  -2  172.74    8.10
   3   7   2  177.56    7.87
  -5  -7  -2  146.35    7.62
   5   7   2  156.16    7.64
  -7  -7  -2  212.28   10.02
   7   7   2  217.93   10.04
  -9  -7  -2   96.76    7.57
  -9  -7  -2   74.53    5.90
   9   7   2   80.45    6.08
  -8  -8   2  252.12   11.17
   8   8  -2  230.25   10.64
  -6  -8   2    2.98    1.61
   6   8  -2    0.52    1.21
  -4  -8   2  292.64   11.27
   4   8  -2  269.93   10.83
   2  -8  -2    3.30    1.38
   0  -8  -2  169.66    7.85
  -2  -8  -2   21.77    3.12
   2   8   2   21.30    2.93
  -4  -8  -2  158.99    8.30
   4   8   2  170.35    8.23
  -6  -8  -2    6.01    2.20
   6   8   2   10.35    2.40
   1  -9  -2    3.44    1.68
  -1  -9  -2    9.23    2.14
  -3  -9  -2   19.19    3.29
 -16   0   3   -0.09    1.27
  14   0  -3    0.82    0.97
 -14   0   3    0.81    1.11
  12   0  -3    0.07    0.56
 -12   0   3    0.72    0.92
  10   0  -3    0.42    0.68
 -10   0   3    0.05    0.62
  10   0  -3    0.55    0.57
 -10   0   3   -0.01    1.00
   8   0  -3    0.34    0.62
  -8   0   3   -0.25    0.44
  -8   0   3    0.44    0.80
   8   0  -3   -0.24    0.26
   6   0  -3   -0.02    0.31
   6   0  -3    0.59    0.39
  -6   0   3    0.55    0.54
   6   0  -3   -0.51    0.41
   4   0  -3   -0.04    0.30
  -4   0   3   -0.52    0.28
   4   0  -3   -0.22    0.27
  -4   0   3    1.37    0.75
   4   0  -3   -0.15    0.41
  -4   0   3    0.04    0.45
   2   0  -3    0.26    0.42
  -2   0   3    0.32    0.43
   2   0  -3    0.30    0.38
  -2   0   3    0.17    0.43
   0   0  -3   -0.02    0.35
   0   0   3   -0.02    0.33
   0   0   3   -0.23    0.32
   2   0   3    0.99    0.52
  -2   0  -3   -0.67    0.47
  -2   0  -3    0.49    0.47
  -4   0  -3    1.35    0.70
   4   0   3   -0.05    0.40
  -4   0  -3    0.98    0.68
  -4   0  -3    0.07    0.62
  -6   0  -3   -0.28    0.54
  -6   0  -3    1.31    0.93
  -8   0  -3    0.65    0.90
  -8   0  -3    0.62    0.84
 -10   0  -3    0.64    1.06
 -10   0  -3    0.12    1.00
 -12   0  -3   -0.23    1.24
 -14   0  -3   -0.94    1.45
 -15  -1   3   12.93    2.85
 -15   1   3   12.45    2.80
  15   1  -3   13.95    2.67
 -13  -1   3  120.30    7.99
  13  -1  -3  120.77    5.73
 -13  -1   3  121.89    6.86
 -13   1   3  117.74    6.77
  13   1  -3  137.25    7.36
  13   1  -3  127.36    6.15
 -11  -1   3   43.94    4.50
  11  -1  -3   50.53    3.05
 -11  -1   3   45.30    3.72
  11   1  -3   49.60    3.17
  11   1  -3   60.51    4.27
 -11   1   3   46.68    3.71
  -9  -1   3  251.20    9.45
   9  -1  -3  260.86    8.64
  -9  -1   3  258.38   11.93
   9   1  -3  257.44    8.67
  -9   1   3  252.04    9.47
   9   1  -3  281.59   10.59
  -7  -1   3   77.13    5.28
   7  -1  -3   86.74    3.53
   7  -1  -3   81.03    3.86
  -7  -1   3   78.77    3.85
   7   1  -3   82.36    3.42
  -7   1   3   88.46    4.09
   7   1  -3   85.26    4.52
   7   1  -3   80.87    3.54
  -5  -1   3  314.99   13.01
   5  -1  -3  321.16   13.27
   5  -1  -3  348.12    9.85
  -5  -1   3  333.81    9.71
   5  -1  -3  335.25    9.42
   5   1  -3  317.56   12.86
  -5   1   3  338.58    9.80
   5   1  -3  330.28    9.45
   5   1  -3  328.20    9.60
  -5   1   3  304.70   13.44
  -5   1   3  303.19   13.52
   5   1  -3  308.41   11.48
  -3  -1   3  312.76   11.52
   3  -1  -3  318.25    9.47
   3  -1  -3  322.61   12.17
  -3  -1   3  299.52   11.93
   3   1  -3  312.88    8.81
  -3   1   3  330.25   12.23
   3   1  -3  327.08   11.56
   3   1  -3  298.36   10.79
  -3   1   3  318.56   12.25
   1  -1  -3  483.64   17.15
   1  -1  -3  461.88   17.14
  -1  -1   3  462.03   16.70
  -1  -1   3  486.47   16.78
  -1   1   3  452.12   17.08
  -1   1   3  494.93   17.21
   1   1  -3  466.97   16.77
   1   1  -3  497.80   16.81
   1  -1   3  348.23   12.58
  -1   1  -3  339.86   12.63
   1   1   3  356.62   12.76
   1   1   3  340.23   12.76
   3  -1   3  209.49    8.32
  -3  -1  -3  201.20    8.18
  -3  -1  -3  207.86    8.25
  -3  -1  -3  189.85    6.56
   3   1   3  206.52    8.26
  -3   1  -3  203.71    7.40
  -5  -1  -3  415.43   13.32
   5  -1   3  427.34   16.76
  -5  -1  -3  420.44   15.79
  -5  -1  -3  433.11   13.35
  -5   1  -3  444.06   13.22
   5   1   3  438.65   13.09
  -5   1  -3  437.02   14.63
  -7  -1  -3  107.10    6.63
  -7  -1  -3  116.88    5.80
  -7   1  -3  116.20    5.39
  -7   1  -3  114.32    5.72
  -9  -1  -3  285.51   11.33
  -9  -1  -3  285.88   13.19
  -9   1  -3  272.36   10.67
 -11  -1  -3   16.48    3.64
 -11  -1  -3   23.68    3.74
 -11   1  -3   21.82    3.21
 -13  -1  -3  216.84   10.87
 -13  -1  -3  215.11   12.39
 -13   1  -3  232.36   10.66
 -16  -2   3   26.13    5.24
  16   2  -3   25.75    3.75
 -14  -2   3  303.16   13.03
 -14  -2   3  314.65   15.46
  14   2  -3  323.35   12.55
  14   2  -3  342.53   14.56
 -14   2   3  323.51   12.99
 -12  -2   3    1.11    1.11
  12  -2  -3    2.40    0.93
 -12  -2   3   -0.54    1.23
  12   2  -3    1.05    0.88
  12   2  -3    1.07    1.23
 -12   2   3    1.71    1.24
 -10  -2   3  500.94   20.61
  10  -2  -3  519.84   15.82
 -10  -2   3  518.37   16.90
  10   2  -3  502.08   16.14
  10   2  -3  545.16   19.26
 -10   2   3  546.14   16.91
  -8  -2   3    2.65    0.95
   8  -2  -3    2.30    0.67
  -8  -2   3    0.21    1.07
   8   2  -3    0.34    0.76
  -8   2   3    1.97    0.88
   8   2  -3    2.82    0.83
   8   2  -3    1.14    0.57
   6  -2  -3  513.27   20.11
  -6  -2   3  510.55   14.82
   6  -2  -3  512.50   14.97
   6   2  -3  478.82   14.41
  -6   2   3  524.13   20.67
  -6   2   3  525.40   14.93
   6   2  -3  491.56   17.51
   6   2  -3  497.48   14.71
  -4  -2   3   39.95    2.15
  -4  -2   3   42.94    2.31
  -4  -2   3   41.04    2.08
   4  -2  -3   38.99    2.91
   4   2  -3   35.39    2.74
   4   2  -3   41.68    2.17
   4   2  -3   40.74    1.92
   4   2  -3   43.83    1.98
  -4   2   3   41.79    3.11
  -4   2   3   43.23    3.14
   2  -2  -3  659.75   18.58
   2  -2  -3  636.22   23.39
  -2  -2   3  646.37   22.29
   2  -2  -3  647.48   23.38
  -2  -2   3  615.51   22.57
  -2   2   3  675.38   23.50
   2   2  -3  637.96   20.64
  -2   2   3  650.88   23.42
   2   2  -3  649.16   17.24
   0  -2   3    9.35    0.75
   0  -2   3    6.36    0.64
   0  -2  -3    7.06    0.95
   0  -2  -3   14.00    1.33
   0   2   3    7.68    0.94
   0   2  -3    7.08    0.87
  -2  -2  -3  402.26   14.44
  -2  -2  -3  442.09   12.87
   2  -2   3  414.42   15.24
  -2   2  -3  392.27   11.72
   2   2   3  416.14   12.39
   2   2   3  403.98   15.32
  -4  -2  -3   29.40    3.63
   4  -2   3   26.40    2.23
  -4  -2  -3   31.87    2.34
  -4  -2  -3   22.01    1.86
  -4   2  -3   28.74    1.91
  -4   2  -3   32.16    2.07
   4   2   3   29.66    2.09
  -6  -2  -3  465.36   14.80
   6  -2   3  456.97   18.38
  -6  -2  -3  444.32   17.79
  -6  -2  -3  437.43   14.56
   6   2   3  464.22   14.56
  -6   2  -3  482.78   14.20
  -8  -2  -3    3.35    1.48
  -8  -2  -3    3.30    1.79
  -8   2  -3    3.36    1.17
 -10  -2  -3  286.18   14.52
 -10  -2  -3  290.11   12.10
 -10   2  -3  305.16   11.39
 -12  -2  -3   20.19    4.31
 -12  -2  -3   27.64    4.27
 -12   2  -3   25.40    3.60
 -14  -2  -3  302.94   13.39
 -14  -2  -3  294.15   15.85
 -14   2  -3  283.36   12.55
 -15  -3   3    6.81    2.82
 -15  -3   3    4.25    2.08
  15   3  -3    5.18    2.00
  15   3  -3    5.16    2.34
 -13  -3   3   60.26    6.31
 -13  -3   3   61.44    4.98
 -13   3   3   69.47    5.30
  13   3  -3   65.41    4.65
  13   3  -3   68.85    5.84
 -11  -3   3   29.25    4.83
  11  -3  -3   25.33    2.20
 -11  -3   3   30.34    3.64
 -11   3   3   26.99    3.31
  11   3  -3   30.75    2.75
  11   3  -3   30.83    4.24
   9  -3  -3  165.79    6.35
  -9  -3   3  162.59    9.59
  -9  -3   3  155.68    7.03
   9   3  -3  163.15    8.39
   9   3  -3  173.60    6.75
  -7  -3   3   28.50    4.02
  -7  -3   3   30.98    2.43
   7  -3  -3   39.16    2.40
   7   3  -3   37.95    2.37
   7   3  -3   36.79    2.41
   7   3  -3   34.09    3.17
  -5  -3   3  163.99    6.18
   5  -3  -3  169.61    8.03
  -5  -3   3  165.08    5.82
   5  -3  -3  166.07    6.19
  -5  -3   3  159.77    6.39
   5   3  -3  160.66    5.55
   5   3  -3  160.81    5.70
   5   3  -3  154.77    7.29
   3  -3  -3  179.92    6.58
   3  -3  -3  174.99    7.86
   3   3  -3  173.69    5.78
   3   3  -3  189.07    7.64
   3   3  -3  178.62    5.65
   1  -3  -3  275.64   11.00
   1  -3  -3  277.18    9.33
   1   3  -3  278.24    8.13
   1   3  -3  290.73   10.18
   1  -3   3  178.35    7.12
  -1  -3  -3  194.60    7.60
  -1  -3  -3  184.50    6.84
  -1   3  -3  170.72    5.68
   1   3   3  169.52    6.35
   3  -3   3   94.38    4.80
  -3  -3  -3   94.21    4.63
  -3  -3  -3   86.17    5.36
   3   3   3   95.68    4.34
  -3   3  -3   98.91    3.86
  -5  -3  -3  247.84   11.62
  -5  -3  -3  245.07    9.44
  -5   3  -3  256.09    8.48
   5   3   3  274.13    9.36
  -7  -3  -3   65.68    4.18
  -7  -3  -3   64.28    5.69
   7   3   3   64.41    4.07
  -7   3  -3   74.43    3.93
  -9  -3  -3  138.96    9.36
  -9   3  -3  145.69    6.61
 -11  -3  -3    6.81    2.81
 -11   3  -3    3.79    1.55
 -13   3  -3  143.44    7.84
 -14  -4   3   13.16    4.06
 -14  -4   3   16.03    3.42
  14   4  -3   25.60    4.75
  14   4  -3   13.36    2.82
 -12  -4   3   -0.94    1.14
 -12  -4   3    1.40    1.86
  12   4  -3    3.51    2.08
  12   4  -3   -0.32    0.83
 -10  -4   3   19.29    2.88
 -10  -4   3   17.28    3.65
  10   4  -3   18.11    3.35
  10   4  -3   16.45    2.27
   8  -4  -3    0.78    0.71
  -8  -4   3    0.19    1.40
  -8  -4   3    2.89    1.15
   8   4  -3    0.55    0.70
   8   4  -3    0.67    0.71
   8   4  -3   -0.22    1.00
  -6  -4   3   36.93    4.76
  -6  -4   3   40.18    2.66
   6  -4  -3   35.10    2.53
   6   4  -3   38.62    2.46
   6   4  -3   37.10    3.36
   6   4  -3   34.17    2.37
  -4  -4   3    0.96    1.03
  -4  -4   3    0.09    0.41
   4  -4  -3    0.50    0.56
   4  -4  -3    0.22    0.55
   4   4  -3    2.49    1.01
   4   4  -3    0.95    0.52
   4   4  -3    0.47    0.42
   2  -4  -3   25.35    2.11
   2  -4  -3   23.58    2.13
   2   4  -3   23.26    1.61
   2   4  -3   26.19    1.58
   2   4  -3   21.71    2.17
   0  -4  -3    1.63    0.68
   0  -4  -3    1.90    0.87
   0   4   3    2.08    0.84
   0   4  -3    2.30    0.62
  -2  -4  -3   28.58    2.45
  -2  -4  -3   34.63    3.08
   2   4   3   28.89    2.26
  -2   4  -3   32.78    1.91
  -4  -4  -3    2.80    1.08
  -4  -4  -3   -1.01    0.82
   4   4   3    0.74    0.72
  -4   4  -3    0.49    0.48
  -6  -4  -3   15.78    2.44
  -6  -4  -3   15.70    3.17
   6   4   3   17.54    2.47
  -6   4  -3   12.84    1.77
  -8  -4  -3    0.90    1.48
  -8  -4  -3    2.82    1.29
   8   4   3    0.94    1.05
  -8   4  -3    0.40    0.77
 -10  -4  -3   21.83    4.83
 -10   4  -3   19.24    2.65
 -12  -4  -3    3.37    2.34
 -12   4  -3    0.53    1.17
 -13  -5   3  144.49   10.68
  13   5  -3  142.38    9.89
  13   5  -3  135.02    7.83
 -11  -5   3   46.43    6.67
  11   5  -3   44.86    6.01
  11   5  -3   44.08    3.78
  -9  -5   3  239.07   12.67
   9   5  -3  219.11    9.19
   9   5  -3  241.50   11.79
   7  -5  -3   94.17    4.78
  -7  -5   3   97.16    7.01
   7   5  -3  103.51    5.00
   7   5  -3   92.85    6.06
   5  -5  -3  297.11   10.76
  -5  -5   3  309.14   13.52
   5   5  -3  308.75   10.43
   5   5  -3  306.79   12.28
  -3  -5   3  232.31    8.29
   3  -5  -3  234.47    8.77
  -3  -5   3  231.48   10.42
   3   5  -3  243.27    8.24
   3   5  -3  236.27    9.50
   1  -5  -3  284.22   10.17
  -1  -5  -3  279.75   10.28
   1   5   3  274.20    9.82
  -3  -5  -3  167.11    7.50
  -3  -5  -3  160.17    8.34
   3   5   3  174.81    7.27
  -3   5  -3  188.73    6.19
  -5  -5  -3  348.62   12.82
  -5  -5  -3  321.40   14.49
   5   5   3  351.99   12.53
  -5   5  -3  347.49   10.82
  -7  -5  -3   89.98    5.54
  -7  -5  -3   99.74    7.24
  -7   5  -3   85.73    4.34
   7   5   3   87.24    5.41
  -9  -5  -3  303.52   14.85
  -9  -5  -3  266.13   11.48
   9   5   3  259.80   11.45
  -9   5  -3  272.35   10.02
 -11  -5  -3   27.36    5.33
 -11   5  -3   23.54    3.08
 -12  -6   3    0.36    2.11
  12   6  -3    1.19    2.02
  12   6  -3    1.35    1.46
 -10  -6   3  322.27   16.19
  10   6  -3  332.25   15.67
  10   6  -3  319.37   12.78
  -8  -6   3   -0.35    1.44
   8   6  -3    1.71    1.08
   8   6  -3   -1.44    1.02
   6  -6  -3  296.10   10.93
  -6  -6   3  313.35   11.32
  -6  -6   3  309.15   13.77
   6   6  -3  296.76   12.70
   6   6  -3  290.68   10.94
  -4  -6   3   13.03    2.02
   4  -6  -3   17.05    2.39
   4   6  -3   16.73    2.19
   2  -6  -3  312.22   11.28
   0  -6  -3    3.69    1.28
  -2  -6  -3  202.81    8.74
   2   6   3  209.09    8.45
  -4  -6  -3    9.71    2.06
   4   6   3   11.10    2.04
  -6  -6  -3  267.93   12.39
  -6  -6  -3  233.56   10.37
   6   6   3  233.71   10.22
  -8  -6  -3    3.58    1.73
  -8  -6  -3    6.65    2.64
   8   6   3   12.49    2.70
 -10  -6  -3  155.51    8.85
 -10  -6  -3  191.94   11.61
  10   6   3  169.35    9.20
 -11  -7   3    4.91    3.12
  -9  -7   3   63.21    6.29
  -9  -7   3   57.28    4.80
   9   7  -3   54.21    4.63
   9   7  -3   55.76    5.63
  -7  -7   3    6.95    1.94
   7   7  -3    5.26    1.72
  -5  -7   3   39.98    3.37
   5  -7  -3   32.99    3.13
   5   7  -3   32.91    3.01
   3  -7  -3   35.60    3.12
   1  -7  -3   51.22    3.74
  -1  -7  -3   29.68    3.45
  -3  -7  -3   16.29    2.77
   3   7   3   18.92    2.82
  -5  -7  -3   63.88    4.94
   5   7   3   68.97    4.92
  -7  -7  -3   20.38    3.27
   7   7   3   14.79    2.85
  -9  -7  -3   37.58    5.36
  -8  -8   3    4.05    1.93
   8   8  -3    1.59    1.38
  -6  -8   3   62.13    4.68
   6   8  -3   53.34    4.25
   4  -8  -3    1.65    1.22
   2  -8  -3   35.59    3.88
   0  -8  -3    3.08    1.45
  -2  -8  -3   41.34    3.84
  -4  -8  -3    0.60    1.29
   4   8   3    0.28    1.11
  -6  -8  -3   26.77    3.97
   6   8   3   29.60    4.08
   3  -9  -3   88.27    5.65
   1  -9  -3  126.54    6.96
  -1  -9  -3  137.11    7.53
 -16   0   4  227.79   10.98
  14   0  -4    8.55    1.93
 -14   0   4    3.45    1.76
 -12   0   4  251.92   10.36
  12   0  -4  260.84    9.38
 -10   0   4    1.93    1.40
 -10   0   4    3.46    1.17
  10   0  -4    2.31    1.06
  10   0  -4    2.38    0.78
   8   0  -4  457.31   15.19
   8   0  -4  425.17   13.17
  -8   0   4  440.73   13.72
   8   0  -4  429.38   13.05
  -6   0   4    2.64    1.07
   6   0  -4    2.99    0.67
   6   0  -4    4.09    1.09
  -6   0   4    3.13    0.82
   6   0  -4    2.65    0.67
   4   0  -4  424.35   14.23
  -4   0   4  448.67   12.20
  -4   0   4  444.77   16.68
  -4   0   4  436.00   16.26
   4   0  -4  418.12   12.46
   4   0  -4  429.40   11.95
   4   0  -4  420.82   16.19
   2   0  -4    3.77    0.57
   2   0  -4    4.01    0.79
   2   0  -4    4.43    0.95
  -2   0   4    7.15    0.94
  -2   0   4    4.66    0.87
   0   0   4  623.58   21.88
   0   0  -4  615.71   16.34
   0   0   4  630.76   21.88
   0   0  -4  573.26   19.24
  -2   0  -4    6.37    1.20
  -2   0  -4    7.64    1.04
   2   0   4    8.22    1.00
   2   0   4    5.82    1.04
   4   0   4  450.01   17.05
  -4   0  -4  436.97   13.47
  -4   0  -4  452.51   15.54
  -6   0  -4   11.47    2.11
  -6   0  -4   10.53    1.84
  -8   0  -4  531.25   19.94
  -8   0  -4  553.57   17.74
 -10   0  -4    9.75    2.62
 -10   0  -4   10.79    2.49
 -12   0  -4  401.37   15.75
 -14   0  -4   52.98    5.95
 -15  -1   4  107.25    6.90
  15   1  -4  119.69    6.45
 -15   1   4  112.29    7.06
  13  -1  -4   20.02    2.50
 -13  -1   4   20.03    3.18
 -13  -1   4   18.73    3.58
 -13   1   4   22.71    3.46
  13   1  -4   19.59    2.56
  13   1  -4   24.51    3.28
  11  -1  -4  153.79    6.20
 -11  -1   4  144.94    7.00
 -11  -1   4  144.57    8.75
  11   1  -4  155.03    7.46
 -11   1   4  156.92    7.16
  11   1  -4  144.08    6.14
   9  -1  -4  104.46    4.45
  -9  -1   4  104.97    5.12
  -9  -1   4  102.16    6.74
   9   1  -4  107.17    5.59
   9   1  -4  104.86    4.47
   9   1  -4  103.30    4.58
  -9   1   4  110.03    5.24
   7  -1  -4  279.99    8.84
  -7  -1   4  271.12    9.03
   7  -1  -4  268.85    8.58
   7  -1  -4  280.03    9.83
   7   1  -4  280.36   10.54
  -7   1   4  273.72    9.13
   7   1  -4  273.61    8.71
   7   1  -4  270.09    8.69
  -7   1   4  262.18   12.64
   5  -1  -4  186.65    5.76
  -5  -1   4  169.92    7.59
  -5  -1   4  184.75    6.03
   5  -1  -4  177.45    6.75
   5  -1  -4  175.12    6.04
   5   1  -4  172.14    5.71
  -5   1   4  179.71    5.95
   5   1  -4  173.85    7.30
   5   1  -4  178.94    5.83
  -5   1   4  184.24    8.46
   3  -1  -4  217.21    8.97
   3  -1  -4  218.29    7.69
   3  -1  -4  212.65    7.08
   3  -1  -4  215.17    8.91
  -3  -1   4  238.02    8.85
  -3  -1   4  213.28    8.35
   3   1  -4  199.87    8.02
  -3   1   4  224.74    9.14
   3   1  -4  214.09    6.59
  -3   1   4  225.05    8.97
   3   1  -4  229.06    8.43
   3   1  -4  228.99    6.59
   1  -1  -4  415.56   15.52
   1  -1  -4  410.43   13.66
  -1  -1   4  442.09   15.18
   1  -1  -4  430.30   15.55
   1  -1  -4  409.02   12.36
  -1  -1   4  425.26   15.09
  -1   1   4  410.02   15.47
  -1   1   4  421.47   15.53
   1   1  -4  419.35   11.56
   1   1  -4  408.14   13.65
   1  -1   4  187.77    7.36
   1  -1   4  173.55    7.36
  -1  -1  -4  191.19    7.34
  -1   1  -4  191.10    5.90
  -1   1  -4  191.46    6.99
   1   1   4  187.00    7.60
   1   1   4  185.68    7.54
  -3  -1  -4  271.30    8.57
   3  -1   4  281.73   10.98
  -3  -1  -4  281.17   11.11
  -3  -1  -4  274.88   10.68
  -3   1  -4  270.49    8.74
   3   1   4  280.80   11.06
  -3   1  -4  285.71    9.96
   3   1   4  274.04   11.08
  -5  -1  -4   31.84    2.48
   5  -1   4   37.97    2.85
  -5  -1  -4   33.78    3.20
  -5   1  -4   35.36    2.51
  -5   1  -4   35.65    2.66
  -7  -1  -4  267.17   11.90
  -7  -1  -4  258.67    9.79
  -7   1  -4  270.49    9.73
  -7   1  -4  247.18   10.31
  -9  -1  -4   26.18    4.26
  -9  -1  -4   21.58    3.15
  -9   1  -4   26.78    3.34
 -11  -1  -4  151.92    7.97
 -11  -1  -4  123.40    8.85
 -11   1  -4  131.35    7.33
 -13  -1  -4    6.75    2.29
 -13  -1  -4    3.80    2.50
 -13   1  -4    3.40    2.06
 -14  -2   4    1.26    1.58
 -14  -2   4   -0.34    1.52
 -14   2   4   -0.04    1.20
  14   2  -4    0.84    1.36
  14   2  -4    0.18    1.08
 -12  -2   4    8.86    2.11
 -12  -2   4    5.44    2.48
  12  -2  -4    5.46    1.30
 -12   2   4    6.50    1.80
  12   2  -4    4.40    1.74
  12   2  -4    3.48    1.17
  10  -2  -4    1.32    0.65
 -10  -2   4   -0.16    0.70
 -10  -2   4   -0.14    1.19
 -10   2   4   -0.18    0.72
  10   2  -4    0.36    0.88
  10   2  -4    0.09    0.53
  -8  -2   4    3.85    1.66
  -8  -2   4    3.89    1.10
   8  -2  -4    5.74    1.08
   8   2  -4    5.52    1.05
  -8   2   4    5.78    1.32
   8   2  -4    5.04    1.06
   8   2  -4    3.79    1.24
   6  -2  -4   -0.40    0.34
  -6  -2   4   -0.34    0.45
  -6  -2   4    1.35    0.73
  -6   2   4   -0.42    0.33
   6   2  -4    2.60    1.14
   6   2  -4    0.62    0.45
   6   2  -4    0.45    0.40
  -4  -2   4    9.78    0.90
   4  -2  -4    9.97    1.72
  -4  -2   4    9.10    1.22
  -4  -2   4   12.74    1.49
   4  -2  -4   11.21    1.43
   4  -2  -4   10.81    1.12
  -4   2   4    9.65    1.65
   4   2  -4   10.94    1.01
  -4   2   4   12.39    2.05
   4   2  -4    7.42    1.51
   4   2  -4   11.59    0.96
   2  -2  -4   -0.18    0.39
   2  -2  -4    0.03    0.48
  -2  -2   4    0.04    0.29
  -2  -2   4    0.20    0.26
   2  -2  -4   -0.06    0.43
  -2   2   4    5.10    1.14
   2   2  -4   -0.17    0.49
   2   2  -4   -0.30    0.26
  -2   2   4   -0.20    0.41
   0  -2  -4    7.70    1.28
   0  -2   4    5.86    0.71
   0  -2   4    7.53    0.78
   0  -2  -4    7.88    1.27
   0  -2  -4    7.04    1.28
   0  -2  -4    9.25    1.44
   0   2   4    8.75    1.34
   0   2  -4    6.76    0.92
   0   2  -4   11.61    1.24
   0   2   4    6.15    1.12
   2  -2   4    0.79    0.50
  -2  -2  -4    0.96    0.68
  -2  -2  -4   -0.35    0.53
  -2   2  -4    0.35    0.47
  -2   2  -4    0.17    0.44
   2   2   4    0.69    0.54
   2   2   4    0.70    0.55
  -4  -2  -4   10.48    2.24
  -4  -2  -4    9.39    1.65
  -4  -2  -4    9.16    1.37
   4  -2   4   12.28    1.52
  -4   2  -4    9.31    1.43
  -4   2  -4   10.40    1.50
   4   2   4   13.34    1.71
  -6  -2  -4    0.33    0.75
  -6  -2  -4    0.37    1.04
  -6   2  -4    0.76    0.64
  -8  -2  -4    2.33    1.18
  -8  -2  -4    8.08    2.50
  -8   2  -4    6.02    1.57
 -10  -2  -4    0.48    1.51
 -10  -2  -4    1.19    1.33
 -10   2  -4   -0.14    0.87
 -12  -2  -4    3.63    2.44
 -12  -2  -4    8.97    2.56
 -12   2  -4    5.61    2.04
 -15  -3   4  159.82    8.84
 -15  -3   4  146.24   10.42
  15   3  -4  145.12    8.03
  15   3  -4  172.31    9.96
 -13  -3   4   30.52    5.16
 -13  -3   4   36.14    4.48
  13   3  -4   30.60    4.36
  13   3  -4   32.74    3.67
  11  -3  -4  203.17    7.80
 -11  -3   4  221.02    9.26
 -11  -3   4  203.07   11.86
  11   3  -4  203.14    8.40
  11   3  -4  218.92   10.54
   9  -3  -4  129.97    5.36
  -9  -3   4  119.28    5.83
  -9  -3   4  126.99    8.51
   9   3  -4  124.10    5.41
   9   3  -4  121.88    5.37
   9   3  -4  123.35    7.02
   7  -3  -4  327.06   10.45
  -7  -3   4  288.78   13.80
  -7  -3   4  306.08   10.30
   7   3  -4  314.84    9.99
   7   3  -4  314.14   10.06
   7   3  -4  302.30   12.45
   5  -3  -4  234.23   10.73
   5  -3  -4  241.03    8.52
  -5  -3   4  245.70    8.80
  -5  -3   4  242.52    7.93
   5   3  -4  244.37    7.78
   5   3  -4  234.93    7.65
   5   3  -4  234.90    9.92
   3  -3  -4  285.54    9.67
   3  -3  -4  271.22   11.55
   3   3  -4  279.92    8.51
   3   3  -4  291.95   10.84
   3   3  -4  277.29    8.44
   1  -3  -4  451.89   14.18
  -1  -3   4  440.03   15.74
  -1  -3   4  447.13   15.80
   1  -3  -4  454.04   14.76
   1  -3  -4  444.03   17.07
   1   3  -4  470.44   15.30
   1   3  -4  443.56   12.68
  -1  -3  -4  207.86    8.54
   1  -3   4  206.90    8.20
  -1  -3  -4  209.47    7.91
  -1   3  -4  199.54    6.65
  -1   3  -4  213.91    7.74
  -3  -3  -4  336.56   13.94
  -3  -3  -4  381.96   12.44
   3   3   4  359.67   11.75
  -3   3  -4  347.84   10.89
  -5  -3  -4   57.17    3.89
  -5  -3  -4   59.24    5.02
   5   3   4   58.10    3.64
  -5   3  -4   56.58    3.21
  -7  -3  -4  292.04   11.71
  -7  -3  -4  308.92   14.62
  -7   3  -4  309.86   10.61
   7   3   4  320.26   11.57
  -9  -3  -4   33.21    5.23
  -9   3  -4   30.46    3.36
 -11  -3  -4  193.03   12.23
 -11   3  -4  169.44    8.24
 -13  -3  -4    6.53    3.39
 -13   3  -4    5.54    1.98
 -14  -4   4    1.94    2.46
 -14  -4   4    4.08    2.06
  14   4  -4    2.49    2.02
  14   4  -4    5.77    2.04
 -12  -4   4  223.65   13.16
 -12  -4   4  216.62   10.05
  12   4  -4  212.47    9.34
  12   4  -4  240.15   12.03
 -10  -4   4    0.56    1.72
 -10  -4   4    2.62    1.50
  10  -4  -4    1.06    0.79
  10   4  -4    2.42    1.47
  10   4  -4    1.15    0.80
   8  -4  -4  338.00   11.49
  -8  -4   4  331.31   15.79
  -8  -4   4  347.57   11.85
   8   4  -4  342.46   14.19
   8   4  -4  326.50   11.27
   8   4  -4  354.01   11.58
   6  -4  -4    1.68    0.84
  -6  -4   4    0.78    1.33
  -6  -4   4    3.63    1.00
   6   4  -4    1.27    0.65
   6   4  -4    1.68    1.11
   6   4  -4    1.06    0.60
  -4  -4   4  335.07   10.31
   4  -4  -4  318.65   13.66
   4  -4  -4  333.81   11.32
   4   4  -4  321.20   10.14
   4   4  -4  330.03   12.58
   4   4  -4  311.95    9.88
   2  -4  -4    2.67    0.88
   2  -4  -4    2.43    0.98
   2   4  -4    3.66    1.15
   2   4  -4    3.37    0.75
   0  -4   4  448.16   16.07
   0  -4  -4  451.32   14.86
   0  -4  -4  463.12   17.74
   0  -4   4  436.72   15.84
   0  -4  -4  493.72   15.71
   0   4  -4  448.14   13.12
  -2  -4  -4    3.36    1.22
  -2  -4  -4    4.34    1.52
  -2   4  -4    2.65    0.74
   2   4   4    1.97    0.91
  -4  -4  -4  332.68   14.39
  -4  -4  -4  319.50   12.28
  -4   4  -4  352.39   10.82
   4   4   4  356.75   12.10
  -6  -4  -4    7.37    2.45
  -6  -4  -4    7.37    1.83
  -6   4  -4    9.17    1.56
   6   4   4   10.39    2.05
  -8  -4  -4  394.29   15.02
  -8  -4  -4  405.95   18.58
  -8   4  -4  414.40   13.53
   8   4   4  412.33   14.98
 -10  -4  -4    9.26    3.36
 -10   4  -4    7.20    1.81
 -12  -4  -4  285.45   16.30
 -12   4  -4  277.17   11.36
 -13  -5   4    8.59    2.69
 -13  -5   4   10.69    3.88
  13   5  -4    4.59    1.85
  13   5  -4    7.32    2.77
 -11  -5   4   66.17    5.18
 -11  -5   4   67.41    6.98
  11   5  -4   69.14    4.80
  11   5  -4   69.56    6.26
  -9  -5   4   38.83    3.59
  -9  -5   4   44.81    6.12
   9  -5  -4   36.92    2.97
   9   5  -4   47.03    3.46
   9   5  -4   52.79    4.90
   9   5  -4   50.34    3.64
  -7  -5   4  129.23    8.55
  -7  -5   4  116.68    5.71
   7  -5  -4  119.81    5.71
   7   5  -4  116.96    7.02
   7   5  -4  119.93    5.57
   7   5  -4  117.70    5.47
  -5  -5   4   53.80    3.30
   5  -5  -4   56.88    3.79
  -5  -5   4   62.85    5.30
   5   5  -4   58.50    3.19
   5   5  -4   55.37    4.23
   5   5  -4   60.62    3.34
   3  -5  -4   54.68    3.71
   3   5  -4   65.24    4.23
   3   5  -4   66.22    3.30
   3   5  -4   65.07    3.14
   1  -5  -4  140.47    6.45
   1   5  -4  141.15    5.15
  -1  -5  -4   56.62    3.93
  -1   5  -4   62.08    3.02
  -3  -5  -4   82.89    5.14
  -3  -5  -4   94.28    6.03
  -3   5  -4   94.72    4.07
   3   5   4   89.93    4.95
  -5  -5  -4    7.91    2.04
  -5  -5  -4   12.32    2.95
   5   5   4    9.86    1.98
  -5   5  -4    8.91    1.50
  -7  -5  -4  106.06    6.35
  -7  -5  -4  108.36    7.98
  -7   5  -4  106.59    5.10
   7   5   4  110.29    6.38
  -9  -5  -4    6.35    2.82
  -9  -5  -4    6.56    2.13
  -9   5  -4    6.77    1.70
   9   5   4    6.76    2.15
 -11  -5  -4   55.80    7.52
 -11   5  -4   44.10    3.71
 -12  -6   4   36.39    6.40
  12   6  -4   26.55    3.82
  12   6  -4   39.12    5.87
 -10  -6   4    1.24    1.95
  10   6  -4    0.19    1.05
  10   6  -4    0.19    1.53
   8  -6  -4   26.86    3.00
  -8  -6   4   27.34    4.76
   8   6  -4   25.50    3.94
   8   6  -4   28.63    3.32
   6  -6  -4    1.59    1.03
  -6  -6   4    0.77    1.48
   6   6  -4    3.61    1.12
   6   6  -4    1.61    1.26
   4  -6  -4   38.69    3.32
  -4  -6   4   48.94    3.57
   2  -6  -4    1.33    0.98
   0  -6  -4   30.39    2.89
  -2  -6  -4    2.11    1.17
   2   6   4   -0.23    0.78
  -4  -6  -4   41.00    3.87
   4   6   4   50.04    3.94
  -6  -6  -4   -0.58    0.81
  -6  -6  -4    1.29    1.41
   6   6   4    0.21    1.03
  -8  -6  -4   36.30    5.60
  -8  -6  -4   24.20    3.82
   8   6   4   27.37    3.97
 -10  -6  -4    2.77    1.90
 -10  -6  -4    3.46    2.44
  10   6   4    2.13    2.14
  -9  -7   4   92.85    6.09
  -9  -7   4   93.09    7.88
   9   7  -4   95.85    7.36
   9   7  -4   86.57    5.78
  -7  -7   4  217.74    9.37
   7  -7  -4  193.55    8.71
   7   7  -4  215.40    9.16
   5  -7  -4  155.39    7.49
   3  -7  -4  159.66    7.52
   1  -7  -4  236.10    9.91
  -1  -7  -4   96.64    5.79
  -3  -7  -4  226.76   10.51
   3   7   4  257.87   10.51
  -5  -7  -4   47.72    4.46
   5   7   4   49.83    4.41
  -7  -7  -4  208.57   10.27
   7   7   4  206.51   10.11
  -8  -8   4  154.65    8.19
   8   8  -4  137.88    7.64
   6  -8  -4    2.39    1.39
   4  -8  -4  118.84    6.64
   2  -8  -4   -0.13    0.95
   0  -8  -4  148.65    7.68
  -2  -8  -4   -0.14    1.10
  -4  -8  -4  138.23    7.98
   3  -9  -4    7.99    2.15
   1  -9  -4   17.71    3.01
  16   0  -5   -0.52    1.05
  14   0  -5    1.77    0.99
 -14   0   5    0.44    1.21
 -12   0   5   -0.30    0.95
  12   0  -5   -0.09    0.62
  10   0  -5   -0.20    0.63
 -10   0   5    0.48    0.72
 -10   0   5   -0.12    0.99
  10   0  -5    1.12    0.67
   8   0  -5    0.42    0.65
  -8   0   5    0.00    0.49
   8   0  -5    2.93    0.81
   8   0  -5    0.42    0.46
  -6   0   5   -0.10    0.54
   6   0  -5    0.15    0.37
   6   0  -5    1.40    0.79
   6   0  -5    0.14    0.44
  -6   0   5   -0.24    0.40
   4   0  -5    0.13    0.31
   4   0  -5    0.05    0.51
   4   0  -5   -0.12    0.30
  -4   0   5    0.52    0.41
  -4   0   5    0.23    0.41
  -2   0   5    1.14    0.55
   2   0  -5    0.00    0.27
   2   0  -5    0.19    0.36
   2   0  -5   -0.15    0.43
   0   0  -5    0.25    0.29
   0   0   5   -0.34    0.22
   0   0  -5    2.17    0.80
  -2   0  -5   -0.39    0.37
   2   0   5   -0.08    0.35
  -2   0  -5   -0.39    0.33
  -4   0  -5    0.06    0.49
   4   0   5    0.17    0.48
  -4   0  -5    0.12    0.54
  -6   0  -5    0.44    0.71
  -6   0  -5    1.44    0.95
  -8   0  -5    0.68    1.01
  -8   0  -5    1.05    1.04
 -10   0  -5   -0.46    1.17
 -10   0  -5    0.80    1.34
 -12   0  -5    0.07    1.56
 -15  -1   5   41.83    5.00
  15  -1  -5   42.82    3.45
 -15   1   5   39.00    4.55
  15   1  -5   44.59    3.81
 -13  -1   5  163.96    8.32
  13  -1  -5  177.60    7.37
 -13  -1   5  153.31    9.76
  13   1  -5  178.18    7.59
 -13   1   5  175.97    8.41
  13   1  -5  191.65    8.81
  11  -1  -5   85.28    4.22
 -11  -1   5   79.07    6.39
 -11  -1   5   75.46    4.79
  11   1  -5   82.72    4.20
 -11   1   5   84.97    5.02
  11   1  -5   85.65    5.19
   9  -1  -5  168.68    6.32
  -9  -1   5  171.18    6.95
   9   1  -5  168.41    6.37
   9   1  -5  165.15    7.69
  -9   1   5  166.84    6.91
   9   1  -5  164.22    6.28
   7  -1  -5  240.86    8.28
  -7  -1   5  254.17    8.52
   7  -1  -5  265.20    8.10
   7  -1  -5  247.74    9.31
  -7   1   5  256.99    8.48
   7   1  -5  248.91   10.05
  -7   1   5  234.99   11.73
   7   1  -5  238.63    8.12
   7   1  -5  253.24    8.16
   5  -1  -5  225.10    6.82
  -5  -1   5  207.01    8.88
   5  -1  -5  221.52    7.35
  -5  -1   5  214.41    7.15
   5  -1  -5  226.59    8.21
   5   1  -5  219.96    6.92
   5   1  -5  214.98    8.81
   5   1  -5  219.90    7.02
  -5   1   5  221.86    9.75
  -5   1   5  219.56    7.04
   3  -1  -5  315.63   10.72
  -3  -1   5  308.24   11.63
   3  -1  -5  312.61    9.70
   3  -1  -5  314.64    8.76
   3   1  -5  313.02    9.00
   3   1  -5  310.15    9.09
   3   1  -5  286.59   10.93
  -3   1   5  309.84   12.17
   1  -1  -5  101.20    3.99
   1  -1  -5   96.92    3.25
  -1  -1   5   93.40    4.31
   1  -1  -5  108.10    4.86
   1  -1  -5   99.82    4.55
   1   1  -5   95.78    3.54
  -1   1   5   94.08    4.62
   1   1  -5   95.22    4.46
  -1  -1  -5  363.83   10.32
  -1  -1  -5  354.58   12.92
  -1  -1  -5  366.29   11.12
   1  -1   5  375.03   13.81
  -1   1  -5  377.86   10.78
   1   1   5  360.04   14.04
  -1   1  -5  367.70   12.66
   3  -1   5   70.29    3.88
  -3  -1  -5   69.20    4.32
  -3  -1  -5   69.73    3.17
   3   1   5   68.29    3.95
  -3   1  -5   69.03    3.83
  -3   1  -5   72.68    3.43
  -5  -1  -5  181.61    7.17
  -5  -1  -5  193.18    8.99
  -5   1  -5  184.57    7.22
  -5   1  -5  196.22    8.10
  -7  -1  -5   19.96    3.36
  -7  -1  -5   19.15    2.75
  -7   1  -5   19.56    2.81
  -7   1  -5   17.49    2.54
  -9  -1  -5  169.40    9.95
  -9  -1  -5  173.65    8.41
  -9   1  -5  182.61    8.34
 -11  -1  -5   17.05    3.87
 -11  -1  -5   20.85    3.58
 -11   1  -5   22.98    3.75
 -13  -1  -5   95.03    7.06
 -13  -1  -5   77.40    7.59
 -13   1  -5   82.18    6.41
 -14  -2   5  203.31   11.85
  14  -2  -5  188.97    8.07
 -14  -2   5  185.05    9.32
 -14   2   5  206.39    9.42
  14   2  -5  190.00    8.58
  14   2  -5  209.46   10.23
 -12  -2   5    9.23    2.16
 -12  -2   5   14.97    3.64
  12  -2  -5   11.10    1.85
  12   2  -5    8.17    1.61
  12   2  -5   12.88    2.55
 -12   2   5   14.04    2.59
 -10  -2   5  213.98    8.74
  10  -2  -5  228.83    8.10
 -10  -2   5  218.81   11.84
  10   2  -5  216.26    8.12
  10   2  -5  214.60    9.89
 -10   2   5  219.22    8.70
  10   2  -5  221.44    8.14
   8  -2  -5    1.72    0.70
  -8  -2   5    1.09    0.75
  -8   2   5    2.38    0.96
   8   2  -5    1.66    0.61
   8   2  -5    1.59    0.71
   8   2  -5    0.88    0.91
  -6  -2   5  448.90   13.71
   6  -2  -5  465.44   14.15
   6  -2  -5  481.22   13.17
   6   2  -5  444.90   16.51
   6   2  -5  450.78   13.53
   6   2  -5  458.83   13.38
  -4  -2   5   24.69    1.60
   4  -2  -5   24.10    1.97
   4  -2  -5   25.22    1.85
   4   2  -5   26.37    2.47
   4   2  -5   26.08    1.51
   4   2  -5   23.67    1.57
  -4   2   5   25.72    2.42
   2  -2  -5  496.13   15.08
   2  -2  -5  495.84   18.58
  -2  -2   5  473.60   17.50
   2  -2  -5  496.48   16.06
  -2   2   5  507.42   18.62
   2   2  -5  494.25   13.66
   2   2  -5  494.38   13.78
   2   2  -5  468.52   16.42
   0  -2  -5    0.04    0.57
   0  -2  -5    1.14    0.68
   0  -2   5    1.86    0.55
   0   2  -5    0.08    0.38
   0   2  -5    0.01    0.48
   0   2   5    1.14    0.64
  -2  -2  -5  678.14   19.98
  -2  -2  -5  661.03   22.58
   2  -2   5  668.56   24.33
  -2   2  -5  657.78   18.80
  -2   2  -5  677.93   21.47
  -4  -2  -5    1.21    1.13
  -4   2  -5    3.01    0.96
  -4   2  -5    2.03    0.78
  -6  -2  -5  409.00   14.29
  -6  -2  -5  489.26   18.77
  -6   2  -5  473.13   14.62
  -8  -2  -5   37.99    5.32
  -8  -2  -5   38.52    3.46
  -8   2  -5   43.28    3.39
 -10  -2  -5  445.79   20.20
 -10   2  -5  434.48   15.50
 -12  -2  -5   50.21    7.18
 -12   2  -5   55.02    4.73
 -15  -3   5   17.17    3.76
 -15  -3   5   26.94    5.31
  15   3  -5   21.83    4.00
 -13  -3   5  108.72    8.68
 -13  -3   5  116.79    6.89
  13  -3  -5  113.40    5.50
  13   3  -5  119.42    7.63
  13   3  -5  100.30    5.88
  11  -3  -5   40.40    2.95
 -11  -3   5   48.40    6.56
 -11  -3   5   44.97    3.81
  11   3  -5   42.08    3.19
  11   3  -5   43.38    4.19
  -9  -3   5   96.90    7.40
  -9  -3   5   88.79    4.89
   9  -3  -5   94.64    4.51
   9   3  -5   97.14    5.99
   9   3  -5   88.64    4.40
   9   3  -5   85.85    4.47
  -7  -3   5  142.39    5.87
   7  -3  -5  139.97    5.91
   7   3  -5  136.58    7.19
   7   3  -5  140.30    5.51
   7   3  -5  140.42    5.45
  -5  -3   5  133.19    5.18
   5  -3  -5  127.79    5.60
   5   3  -5  129.45    4.84
   5   3  -5  124.70    4.72
   5   3  -5  121.65    6.52
   3  -3  -5  156.36    7.45
  -3  -3   5  145.65    5.58
   3  -3  -5  151.11    6.34
   3   3  -5  146.18    5.23
   3   3  -5  161.20    7.18
   1  -3  -5   41.34    2.89
  -1  -3   5   41.66    2.12
   1  -3  -5   41.86    2.76
   1  -3  -5   39.20    2.91
   1   3  -5   41.54    2.90
   1   3  -5   43.29    2.27
  -1  -3  -5  241.73    9.47
  -1  -3  -5  220.06    8.47
  -1   3  -5  219.41    8.41
  -1   3  -5  207.11    7.24
  -3  -3  -5   45.65    3.40
  -3  -3  -5   43.14    3.94
  -3   3  -5   44.55    2.66
   3   3   5   42.40    2.94
  -5  -3  -5   96.92    6.95
  -5  -3  -5  100.58    5.66
  -5   3  -5  104.61    4.78
   5   3   5  100.99    5.19
  -7  -3  -5    4.65    2.28
  -7   3  -5    4.05    1.22
  -9  -3  -5   96.91    8.20
  -9   3  -5   93.61    5.33
 -11  -3  -5    8.28    3.76
 -11   3  -5   12.92    2.64
 -14  -4   5    8.43    3.57
 -14  -4   5   10.91    2.83
  14   4  -5   11.88    3.31
  14   4  -5   11.51    2.58
 -12  -4   5    0.92    1.74
 -12  -4   5    0.62    1.39
  12  -4  -5    0.41    0.84
  12   4  -5    1.77    1.19
  12   4  -5   -0.64    1.06
  10  -4  -5   15.50    2.10
 -10  -4   5   15.82    2.72
 -10  -4   5    8.86    3.19
  10   4  -5   18.14    2.48
  10   4  -5   14.44    2.85
  10   4  -5   14.47    2.14
  -8  -4   5    2.08    1.03
  -8  -4   5   -0.93    1.31
   8  -4  -5    0.94    0.77
   8   4  -5    0.08    0.95
   8   4  -5    0.75    0.69
   8   4  -5    1.18    0.76
   6  -4  -5   16.14    2.20
  -6  -4   5   14.13    1.99
   6   4  -5   14.78    1.74
   6   4  -5   15.82    2.66
   6   4  -5   17.95    2.00
   4  -4  -5    1.12    0.88
   4   4  -5    0.13    0.44
   4   4  -5    1.73    0.64
   4   4  -5    1.32    1.01
   2  -4  -5   34.91    2.79
   2  -4  -5   33.11    3.08
   2   4  -5   31.07    1.99
   2   4  -5   30.02    2.78
   0  -4  -5    0.45    0.70
   0  -4  -5    0.26    0.67
   0   4  -5    0.42    0.61
   0   4  -5    1.05    0.59
  -2  -4  -5   24.07    3.06
  -2  -4  -5   29.63    3.08
  -2   4  -5   20.92    1.81
  -4  -4  -5    1.56    1.08
  -4  -4  -5    1.83    1.47
  -4   4  -5    0.84    0.66
   4   4   5    1.32    1.02
  -6  -4  -5   25.83    3.46
  -6  -4  -5   21.21    4.03
   6   4   5   33.74    3.66
  -6   4  -5   31.15    2.56
  -8  -4  -5   -0.94    1.64
  -8   4  -5    0.73    0.80
 -10  -4  -5   14.08    4.25
 -10   4  -5   14.32    2.38
 -13  -5   5  180.56   12.58
 -13  -5   5  176.19    9.46
  13   5  -5  174.60    8.88
  13   5  -5  182.36   11.08
  11  -5  -5   93.43    5.14
 -11  -5   5  106.46    6.53
 -11  -5   5  101.64    8.82
  11   5  -5  103.79    7.52
  11   5  -5  100.64    5.83
   9  -5  -5  186.07    7.88
  -9  -5   5  192.98    8.52
  -9  -5   5  198.40   12.03
   9   5  -5  179.62    7.87
   9   5  -5  201.80    8.20
   9   5  -5  192.76   10.18
   7  -5  -5  218.61    8.87
  -7  -5   5  218.75   12.15
  -7  -5   5  211.26    8.56
   7   5  -5  219.08    8.35
   7   5  -5  229.84   10.67
   7   5  -5  212.03    8.22
  -5  -5   5  176.60    6.98
   5  -5  -5  166.11    7.65
   5   5  -5  189.34    8.91
   5   5  -5  168.98    6.66
   5   5  -5  187.32    6.90
   3  -5  -5  284.92   10.98
   3   5  -5  304.92   11.92
   3   5  -5  287.29    9.50
   1  -5  -5   98.36    5.46
   1   5  -5   97.83    4.20
  -1  -5  -5  293.74   11.27
  -1   5  -5  279.32    9.34
  -3  -5  -5   57.70    4.85
  -3  -5  -5   50.75    4.17
   3   5   5   62.90    4.21
  -3   5  -5   58.77    3.28
  -5  -5  -5  179.09    9.04
  -5  -5  -5  184.79   10.56
  -5   5  -5  199.38    7.46
   5   5   5  207.01    9.03
  -7  -5  -5   17.72    3.96
  -7  -5  -5   29.91    4.13
  -7   5  -5   22.39    2.68
   7   5   5   24.76    3.53
  -9  -5  -5  153.51   10.90
  -9   5  -5  150.27    7.00
  10  -6  -5  137.43    6.66
 -10  -6   5  162.18   10.98
  10   6  -5  143.94    9.27
  10   6  -5  150.46    7.56
  -8  -6   5    2.74    2.29
   8  -6  -5    1.62    1.10
   8   6  -5    2.60    1.12
   8   6  -5    5.24    2.07
  -6  -6   5  255.13   13.17
   6  -6  -5  237.25    9.99
   6   6  -5  257.74   11.55
   6   6  -5  250.96    9.49
   4  -6  -5    8.10    1.92
   2  -6  -5  244.79   10.06
   0  -6  -5    0.83    0.93
  -2  -6  -5  327.55   12.96
  -4  -6  -5    3.28    1.49
   4   6   5    2.40    1.49
  -6  -6  -5  295.41   14.47
  -6  -6  -5  280.22   12.56
   6   6   5  309.70   12.60
  -8  -6  -5   20.33    4.42
  -8  -6  -5   19.12    3.70
   8   6   5   24.71    3.96
   9  -7  -5   27.71    3.45
  -9  -7   5   32.65    5.55
  -9  -7   5   29.78    4.01
   9   7  -5   30.26    4.81
   9   7  -5   25.59    3.58
   7  -7  -5   33.44    3.72
   5  -7  -5   24.66    3.23
   3  -7  -5   31.46    3.60
   1  -7  -5    4.77    1.64
  -1  -7  -5   42.90    4.02
  -3  -7  -5    6.64    1.96
  -5  -7  -5   23.08    3.62
  -7  -7  -5   -0.53    1.28
   7   7   5    1.57    1.75
   6  -8  -5   31.10    3.83
   4  -8  -5    0.61    1.28
   2  -8  -5   43.11    4.08
   0  -8  -5   -0.31    1.25
  -2  -8  -5   34.14    4.38
  -4  -8  -5    2.50    1.82
  14   0  -6    9.99    1.95
 -14   0   6    9.40    2.30
 -12   0   6  240.41   10.00
  12   0  -6  234.56    8.92
 -10   0   6   41.36    3.23
  10   0  -6   38.39    2.72
  10   0  -6   34.36    3.01
  10   0  -6   34.01    2.54
   8   0  -6  346.80   12.97
  -8   0   6  357.26   11.45
   8   0  -6  335.94   10.99
   8   0  -6  342.06   10.91
   6   0  -6    6.04    1.00
   6   0  -6    5.95    1.43
   6   0  -6    7.66    1.12
  -6   0   6    7.12    1.20
   4   0  -6  690.08   18.84
   4   0  -6  684.10   22.44
  -4   0   6  719.36   25.36
   4   0  -6  671.48   19.62
  -2   0   6   10.59    1.25
   2   0  -6   11.02    1.05
   2   0  -6   12.38    1.03
   2   0  -6   10.79    1.67
   0   0  -6  639.96   17.65
   0   0   6  657.32   23.64
   0   0  -6  637.46   21.20
   2   0   6   25.41    2.17
  -2   0  -6   26.18    2.42
  -2   0  -6   29.63    1.91
  -4   0  -6  634.11   21.65
  -4   0  -6  628.14   18.56
  -6   0  -6   35.11    3.41
  -6   0  -6   34.46    2.97
  -8   0  -6  369.08   13.40
  -8   0  -6  352.32   15.01
 -10   0  -6  102.70    7.39
 -10   0  -6  116.11    6.86
 -12   0  -6  308.39   13.39
  15  -1  -6   81.85    4.90
 -15  -1   6   74.64    5.75
  15   1  -6   74.68    4.87
 -15   1   6   78.00    5.76
 -13  -1   6   72.20    6.56
 -13  -1   6   76.24    5.31
  13  -1  -6   74.28    4.39
  13   1  -6   73.52    4.47
  13   1  -6   82.56    5.34
 -13   1   6   78.69    5.28
  11  -1  -6  111.32    5.15
 -11  -1   6  115.37    7.96
 -11  -1   6  106.76    5.89
  11   1  -6  109.34    5.12
 -11   1   6  105.59    5.77
  11   1  -6  112.02    6.21
   9  -1  -6  109.42    4.73
   9  -1  -6  108.11    4.66
  -9  -1   6  106.15    5.20
  -9   1   6   98.42    5.02
   9   1  -6  106.91    5.79
   9   1  -6   97.76    4.53
   9   1  -6  104.99    4.80
   7  -1  -6   70.03    3.45
   7  -1  -6   64.99    3.89
  -7  -1   6   63.79    3.47
   7  -1  -6   76.74    3.39
   7   1  -6   67.81    4.36
   7   1  -6   65.62    3.21
   7   1  -6   64.50    3.22
  -7   1   6   67.16    3.47
   5  -1  -6  225.54    8.50
   5  -1  -6  224.14    6.91
   5  -1  -6  207.12    7.42
  -5  -1   6  218.55    7.38
   5   1  -6  211.13    8.96
  -5   1   6  227.04    9.87
  -5   1   6  220.68    7.17
   5   1  -6  211.53    7.02
   5   1  -6  214.54    7.09
   3  -1  -6   86.39    4.41
   3  -1  -6   88.43    3.86
   3  -1  -6   91.50    3.32
  -3  -1   6   90.23    4.31
   3   1  -6   89.39    3.50
   3   1  -6   96.65    3.46
  -3   1   6   88.04    4.70
   3   1  -6   87.74    4.65
  -1  -1   6  147.81    6.36
   1  -1  -6  151.32    5.51
   1  -1  -6  145.26    6.44
   1  -1  -6  150.83    4.75
   1   1  -6  155.93    5.16
  -1   1   6  139.65    6.62
   1   1  -6  144.16    6.35
   1  -1   6   28.36    2.15
  -1  -1  -6   36.35    1.81
  -1  -1  -6   27.81    2.56
   1   1   6   30.37    2.38
  -1   1  -6   27.07    1.84
  -1   1  -6   31.02    2.47
  -3  -1  -6  152.57    7.67
  -3  -1  -6  171.30    6.01
  -3   1  -6  169.02    6.30
  -3   1  -6  167.68    7.32
  -5  -1  -6   39.78    3.72
  -5  -1  -6   39.64    2.90
  -5   1  -6   38.27    2.85
  -5   1  -6   38.50    3.13
  -7  -1  -6   65.63    4.38
  -7  -1  -6   75.92    5.81
  -7   1  -6   69.63    4.81
  -7   1  -6   76.44    4.71
  -9  -1  -6   18.77    3.70
  -9  -1  -6   21.74    3.24
  -9   1  -6   13.98    2.69
 -11  -1  -6   91.18    6.43
 -11  -1  -6   79.82    7.28
 -11   1  -6   90.54    6.26
 -14  -2   6   -0.13    1.67
 -14  -2   6    1.54    1.49
  14  -2  -6    1.43    1.06
  14   2  -6   -0.25    1.15
  14   2  -6   -0.79    0.93
  12  -2  -6    2.90    1.04
 -12  -2   6    1.75    1.31
 -12  -2   6    4.47    2.37
  12   2  -6    5.74    1.87
  12   2  -6    3.71    1.25
 -10  -2   6    0.31    1.32
  10  -2  -6    0.15    0.65
 -10  -2   6   -0.53    0.72
  10   2  -6    1.39    0.84
  10   2  -6    0.06    0.85
  10   2  -6    0.83    0.66
  -8  -2   6    7.15    1.45
   8  -2  -6    4.67    1.10
   8   2  -6    7.10    1.79
   8   2  -6    7.95    1.50
   8   2  -6    9.66    1.40
  -6  -2   6    0.64    0.60
   6  -2  -6    0.58    0.53
   6   2  -6    0.23    0.41
   6   2  -6    0.64    0.76
   6   2  -6    2.35    0.75
   4  -2  -6    5.57    1.15
   4  -2  -6   12.62    1.64
   4   2  -6    5.61    0.99
   4   2  -6    5.30    1.35
   4   2  -6    6.26    0.89
   2  -2  -6    0.11    0.46
   2  -2  -6    0.08    0.57
   2   2  -6    0.41    0.56
   2   2  -6    0.22    0.37
   0  -2  -6   10.07    1.74
   0  -2  -6   11.19    1.59
   0   2  -6   11.17    1.36
   0   2  -6   13.12    1.91
  -2  -2  -6   -0.22    0.59
  -2  -2  -6    0.52    0.87
  -2   2  -6    0.52    0.54
  -2   2  -6    0.68    0.61
  -4  -2  -6    8.06    2.00
  -4   2  -6    6.62    1.44
  -4   2  -6    8.59    1.67
  -6  -2  -6    2.09    1.50
  -6   2  -6    0.81    0.84
  -6   2  -6    0.17    0.60
  -8  -2  -6    7.08    2.68
  -8   2  -6    7.27    1.91
 -10  -2  -6   -1.09    1.57
 -10   2  -6    0.52    1.25
 -12  -2  -6    3.90    2.68
 -12   2  -6    3.97    2.34
  13  -3  -6  102.57    5.29
 -13  -3   6   97.13    6.38
 -13  -3   6   99.72    8.54
  13   3  -6   98.54    6.86
  13   3  -6   97.35    5.66
 -11  -3   6  135.54    6.98
  11  -3  -6  136.63    6.07
 -11  -3   6  140.72    9.86
  11   3  -6  130.17    7.73
  11   3  -6  123.55    6.04
  11   3  -6  124.91    6.06
  -9  -3   6  150.16    6.78
   9  -3  -6  152.45    6.41
   9   3  -6  150.15    6.19
   9   3  -6  135.83    6.16
   9   3  -6  155.01    8.18
  -7  -3   6   99.52    4.84
   7  -3  -6   98.88    4.91
   7   3  -6  105.38    4.41
   7   3  -6   98.27    6.02
   7   3  -6  100.47    4.54
  -5  -3   6  256.22    8.66
   5  -3  -6  242.06    9.17
   5   3  -6  234.72   10.43
   5   3  -6  254.13    8.03
   5   3  -6  245.94    8.19
   3  -3  -6   99.35    5.08
   3  -3  -6  102.44    5.04
   3   3  -6   99.14    4.13
   3   3  -6  105.85    5.65
   1  -3  -6  226.91    8.84
   1  -3  -6  207.49    8.38
   1   3  -6  220.96    7.36
   1   3  -6  215.94    8.85
  -1  -3  -6   53.91    3.91
  -1  -3  -6   46.40    3.37
  -1   3  -6   46.87    2.75
  -1   3  -6   50.50    3.27
  -3  -3  -6  198.29    8.31
  -3  -3  -6  178.19    9.33
  -3   3  -6  202.25    7.98
  -3   3  -6  180.24    7.04
  -5  -3  -6   44.52    4.69
  -5   3  -6   43.76    3.10
  -7  -3  -6  108.86    8.37
  -7   3  -6  119.17    5.80
  -9  -3  -6   27.26    5.23
  -9   3  -6   27.21    3.40
 -11  -3  -6  118.68   10.00
  14  -4  -6    8.88    1.93
 -12  -4   6  199.72    9.53
 -12  -4   6  213.46   13.21
  12  -4  -6  195.67    8.13
  12   4  -6  197.11   10.73
  12   4  -6  187.66    8.57
 -10  -4   6   29.37    3.60
  10  -4  -6   22.70    2.70
 -10  -4   6   20.06    4.69
  10   4  -6   27.26    3.12
  10   4  -6   21.49    2.67
  10   4  -6   22.57    3.66
  -8  -4   6  265.24   10.09
   8  -4  -6  267.38   10.10
   8   4  -6  264.48    9.62
   8   4  -6  277.71    9.71
   8   4  -6  272.40   12.25
  -6  -4   6    4.90    1.32
   6  -4  -6    4.98    1.40
   6   4  -6    7.28    1.40
   6   4  -6    7.27    1.30
   6   4  -6    7.73    2.10
   4  -4  -6  511.68   16.97
   4   4  -6  513.42   18.62
   4   4  -6  505.95   15.13
   2  -4  -6    5.74    1.52
   2   4  -6    6.10    1.16
   2   4  -6    7.49    1.78
   0  -4  -6  511.93   17.03
   0  -4  -6  501.66   17.69
   0   4  -6  491.36   14.98
   0   4  -6  511.13   17.56
  -2  -4  -6   17.78    2.96
  -2  -4  -6   21.83    3.01
  -2   4  -6   19.22    2.19
  -4  -4  -6  503.35   19.86
  -4  -4  -6  489.11   17.51
  -4   4  -6  480.10   15.20
  -6  -4  -6   29.42    4.79
  -6   4  -6   29.85    2.57
  -8  -4  -6  303.39   15.99
  -8   4  -6  291.56   11.05
 -10  -4  -6   84.96    8.49
 -10   4  -6   80.88    5.27
 -13  -5   6   31.26    4.60
 -11  -5   6   51.28    4.64
 -11  -5   6   44.54    6.86
  11  -5  -6   48.60    3.71
  11   5  -6   51.17    4.06
  11   5  -6   47.94    5.78
  11   5  -6   53.49    4.13
  -9  -5   6   36.96    5.87
  -9  -5   6   36.33    3.99
   9  -5  -6   35.27    3.21
   9   5  -6   34.99    3.16
   9   5  -6   43.97    4.55
   9   5  -6   39.96    3.24
  -7  -5   6   25.85    3.11
   7  -5  -6   22.50    2.90
  -7  -5   6   29.57    4.95
   7   5  -6   24.82    2.75
   7   5  -6   23.50    2.26
   7   5  -6   19.41    3.32
   5  -5  -6   87.73    5.19
  -5  -5   6   77.42    4.33
   5   5  -6   79.35    4.10
   5   5  -6   81.66    5.48
   3  -5  -6   28.74    3.37
   3   5  -6   37.79    3.50
   3   5  -6   33.97    2.47
   1  -5  -6   45.36    3.73
   1   5  -6   44.77    2.77
  -1  -5  -6   11.09    2.36
  -1   5  -6    7.37    1.40
  -3  -5  -6   61.25    5.12
  -3  -5  -6   59.33    4.79
  -3   5  -6   64.06    3.64
  -5  -5  -6   12.29    2.75
  -5  -5  -6   13.19    3.24
  -5   5  -6   15.28    2.15
  -7  -5  -6   25.29    4.73
  -7   5  -6   23.16    2.72
  -9  -5  -6    3.55    2.71
  -9   5  -6    3.86    1.47
 -10  -6   6    0.89    2.34
  10  -6  -6    0.19    1.01
  10   6  -6   -1.36    1.31
  10   6  -6    0.77    1.15
  -8  -6   6   34.64    5.86
   8  -6  -6   35.33    3.83
   8   6  -6   31.71    3.52
   8   6  -6   40.11    5.02
  -6  -6   6    4.90    1.50
  -6  -6   6    3.37    2.18
   6  -6  -6    1.49    1.22
   6   6  -6    2.36    1.09
   6   6  -6    3.62    1.64
  -4  -6   6   35.34    2.97
   4  -6  -6   37.81    4.23
   4   6  -6   34.02    2.68
   2  -6  -6   -0.38    0.91
   2   6  -6    0.87    0.80
   0  -6  -6   52.97    4.46
   0   6  -6   52.04    3.21
  -2  -6  -6    1.31    1.37
  -2   6  -6    0.50    0.77
  -4  -6  -6   29.57    4.26
  -4   6  -6   33.11    2.71
  -6  -6  -6    7.21    2.83
  -6  -6  -6    0.87    1.72
  -6   6  -6    2.93    1.20
  -8  -6  -6   30.43    5.24
  -8   6  -6   36.94    3.99
   9  -7  -6  117.39    6.55
  -9  -7   6  140.47   10.36
   9   7  -6  146.31    9.00
   7  -7  -6   89.29    5.69
   5  -7  -6  153.09    7.87
   3  -7  -6   55.68    4.64
   1  -7  -6  139.15    7.59
  -1  -7  -6   30.65    4.00
  -3  -7  -6  109.24    7.04
  -5  -7  -6   26.18    3.98
   6  -8  -6    4.01    1.85
   4  -8  -6  202.46    9.79
   2  -8  -6    2.53    1.60
   0  -8  -6  187.79    9.55
  -2  -8  -6    3.16    1.89
 -14   0   7    1.06    1.45
  14   0  -7   -0.09    0.78
  12   0  -7   -0.61    0.62
 -12   0   7    1.68    1.26
 -10   0   7   -0.27    0.77
  10   0  -7    0.56    0.82
  10   0  -7    0.27    0.53
  10   0  -7    0.49    0.78
   8   0  -7   -0.02    0.42
   8   0  -7    0.07    0.61
   8   0  -7    1.03    0.64
  -8   0   7    2.40    0.89
   6   0  -7    0.25    0.45
   6   0  -7    0.09    0.41
   6   0  -7    1.03    0.86
  -6   0   7    0.29    0.50
   4   0  -7    0.06    0.31
   4   0  -7   -0.52    0.56
   4   0  -7    1.70    0.63
   2   0  -7   -0.17    0.57
   2   0  -7    0.69    0.42
   2   0  -7   -0.13    0.23
   0   0  -7    0.95    0.51
   0   0  -7   -0.04    0.59
  -2   0  -7   -0.37    0.57
  -2   0  -7    3.24    0.82
  -4   0  -7    2.41    0.91
  -4   0  -7    0.77    0.80
  -6   0  -7    0.90    1.07
  -6   0  -7    0.96    1.09
  -8   0  -7    1.52    1.33
  -8   0  -7   -0.38    1.03
 -10   0  -7    0.15    1.52
 -10   0  -7    0.12    1.48
 -15  -1   7   52.68    6.46
  15  -1  -7   50.43    4.05
 -15   1   7   52.80    4.76
  13  -1  -7   60.94    4.00
 -13  -1   7   63.08    4.90
 -13  -1   7   57.07    7.22
 -13   1   7   63.31    4.83
  13   1  -7   62.85    4.77
  13   1  -7   61.16    4.03
 -11  -1   7  109.01    5.95
  11  -1  -7  102.90    5.06
 -11  -1   7  107.26    7.98
  11   1  -7  116.77    6.43
 -11   1   7  107.64    5.82
  11   1  -7  100.84    5.15
  11   1  -7   94.15    4.90
  -9  -1   7   81.90    4.52
   9  -1  -7   73.80    3.84
   9  -1  -7   71.01    3.84
  -9   1   7   71.77    4.23
   9   1  -7   82.32    5.19
   9   1  -7   83.06    4.21
   9   1  -7   80.66    3.98
  -7  -1   7  110.98    5.02
   7  -1  -7  110.86    5.72
   7  -1  -7  115.41    4.65
   7  -1  -7  116.35    4.93
  -7   1   7  107.28    4.83
   7   1  -7  108.72    6.04
   7   1  -7  112.55    4.69
   7   1  -7  109.18    4.68
   5  -1  -7   57.50    3.68
  -5  -1   7   55.67    3.09
   5  -1  -7   62.06    2.79
   5  -1  -7   54.13    2.99
   5   1  -7   51.94    3.80
  -5   1   7   55.97    2.87
   5   1  -7   59.43    2.82
   5   1  -7   58.15    2.90
   3  -1  -7  168.13    6.17
   3  -1  -7  164.87    7.23
   3  -1  -7  166.82    5.49
  -3   1   7  167.78    7.71
   3   1  -7  158.99    7.36
   1  -1  -7   87.04    3.85
   1  -1  -7   80.71    4.67
   1  -1  -7   82.89    3.24
   1   1  -7   86.07    4.74
   1   1  -7   86.59    3.62
  -1   1   7   79.00    4.57
  -1  -1  -7  105.63    4.07
  -1  -1  -7  109.65    5.93
  -1   1  -7  110.53    5.64
  -1   1  -7  109.69    4.52
  -3  -1  -7   45.10    3.84
  -3  -1  -7   47.00    2.75
  -3   1  -7   52.79    3.15
  -3   1  -7   52.28    3.77
  -5  -1  -7  124.18    5.67
  -5  -1  -7  124.29    7.41
  -5   1  -7  128.42    6.71
  -5   1  -7  124.96    5.99
  -7  -1  -7   54.23    4.01
  -7  -1  -7   58.49    5.34
  -7   1  -7   53.03    4.12
  -7   1  -7   55.53    4.42
  -9  -1  -7   96.83    7.52
  -9  -1  -7   90.99    6.03
  -9   1  -7  100.36    6.22
 -11  -1  -7   20.43    3.98
 -11  -1  -7   30.38    5.10
 -11   1  -7   26.68    4.02
 -14  -2   7  156.48    8.55
  14  -2  -7  163.62    7.46
 -14  -2   7  170.37   11.18
  14   2  -7  168.33    8.94
  14   2  -7  147.38    7.40
 -12  -2   7   13.73    3.79
  12  -2  -7   17.50    2.39
 -12  -2   7   11.24    2.51
  12   2  -7   15.88    2.28
  12   2  -7   15.23    2.95
 -10  -2   7  345.84   12.71
  10  -2  -7  359.27   12.18
  10   2  -7  362.89   12.21
  10   2  -7  355.11   12.03
  10   2  -7  362.03   14.58
   8  -2  -7   21.63    2.39
  -8  -2   7   22.03    2.60
   8   2  -7   19.08    2.92
   8   2  -7   17.35    1.68
   8   2  -7   19.85    2.20
   6  -2  -7  454.07   14.69
  -6  -2   7  476.66   14.39
   6   2  -7  477.58   14.04
   6   2  -7  460.49   17.23
   6   2  -7  456.55   13.92
   4  -2  -7    3.28    1.02
   4  -2  -7    4.89    1.25
   4   2  -7    6.10    1.56
   4   2  -7    4.60    0.91
   2  -2  -7  664.50   20.42
   2  -2  -7  699.70   22.62
   2   2  -7  674.00   19.16
   2   2  -7  688.39   22.90
   0  -2  -7   14.46    1.96
   0  -2  -7   12.96    2.23
   0   2  -7   15.05    1.73
   0   2  -7   11.43    1.88
  -2  -2  -7  445.65   17.09
  -2   2  -7  456.11   13.96
  -2   2  -7  453.73   16.07
  -4  -2  -7   89.75    6.20
  -4   2  -7   79.54    4.42
  -4   2  -7   89.36    5.12
  -6  -2  -7  369.50   16.31
  -6   2  -7  356.68   14.13
  -6   2  -7  353.27   12.70
  -8  -2  -7   78.01    7.09
  -8   2  -7   79.49    5.18
 -10  -2  -7  169.84   11.63
 -10   2  -7  190.50    9.18
 -13  -3   7   30.15    5.47
 -13  -3   7   33.60    4.35
  13  -3  -7   30.91    2.87
  13   3  -7   32.07    4.39
  13   3  -7   30.80    3.47
  11  -3  -7   58.49    3.86
 -11  -3   7   58.57    4.49
 -11  -3   7   59.30    7.64
  11   3  -7   56.52    3.88
  11   3  -7   58.11    3.90
  11   3  -7   62.11    5.15
  -9  -3   7   44.52    3.59
   9  -3  -7   47.94    3.34
   9   3  -7   52.02    3.22
   9   3  -7   49.23    3.37
   9   3  -7   52.13    4.46
  -7  -3   7   50.11    3.36
   7  -3  -7   46.86    3.29
   7   3  -7   51.89    2.91
   7   3  -7   44.32    4.03
   7   3  -7   50.81    3.09
  -5  -3   7   25.71    2.24
   5  -3  -7   20.98    2.56
   5   3  -7   30.14    3.12
   5   3  -7   24.28    1.96
   3  -3  -7   91.06    4.74
   3  -3  -7   96.75    5.00
   3   3  -7   86.31    5.29
   1  -3  -7   50.60    3.62
   1  -3  -7   49.74    3.66
   1   3  -7   54.62    3.01
   1   3  -7   54.03    3.80
  -1  -3  -7   47.01    3.92
  -1  -3  -7   53.20    3.71
  -1   3  -7   52.27    3.61
  -1   3  -7   49.11    3.02
  -3  -3  -7   21.00    3.59
  -3   3  -7   22.94    2.75
  -3   3  -7   19.38    2.28
  -5  -3  -7   68.60    6.10
  -5   3  -7   66.40    4.13
  -7  -3  -7   36.33    5.83
  -7   3  -7   35.87    3.23
  -9  -3  -7   43.28    6.64
  -9   3  -7   55.04    4.35
 -12  -4   7    3.03    1.81
 -12  -4   7    2.67    2.68
  12  -4  -7    0.31    0.96
  12   4  -7    2.32    1.37
  12   4  -7    1.57    1.17
  12   4  -7    3.37    1.81
 -10  -4   7   13.91    2.57
  10  -4  -7   13.84    2.25
 -10  -4   7    6.40    2.94
  10   4  -7    7.67    2.29
  10   4  -7   12.54    2.11
  10   4  -7    9.23    1.94
   8  -4  -7   -0.01    0.83
  -8  -4   7    0.31    0.79
   8   4  -7    1.52    1.34
   8   4  -7   -0.23    0.55
   8   4  -7    0.51    0.65
   6  -4  -7   22.69    2.83
  -6  -4   7   28.21    3.02
   6   4  -7   26.76    2.31
   6   4  -7   21.95    3.28
   4  -4  -7   -0.11    0.75
   4   4  -7    0.38    0.59
   4   4  -7    1.79    1.06
   2  -4  -7   19.68    2.84
   2   4  -7   21.36    2.98
   2   4  -7   16.88    1.98
   0  -4  -7    3.12    1.35
   0  -4  -7    4.41    1.44
   0   4  -7    2.50    0.91
   0   4  -7    3.43    1.28
  -2  -4  -7   26.78    3.47
  -2  -4  -7   25.72    3.77
  -2   4  -7   25.28    2.30
  -4  -4  -7    0.90    1.48
  -4   4  -7    4.29    1.20
  -6  -4  -7    8.66    2.87
  -6   4  -7   10.33    1.95
  -8  -4  -7    5.66    3.00
  -8   4  -7    5.73    1.75
 -11  -5   7  121.04   10.09
  11  -5  -7  109.30    5.96
 -11  -5   7  106.32    6.74
  11   5  -7   95.35    5.80
  11   5  -7  115.32    7.86
  11   5  -7  110.69    6.19
  -9  -5   7   74.44    7.61
  -9  -5   7   79.12    5.19
   9  -5  -7   79.52    4.95
   9   5  -7   68.10    5.76
   9   5  -7   75.84    4.62
   9   5  -7   74.32    4.73
  -7  -5   7  120.86    6.15
   7  -5  -7  123.26    6.50
   7   5  -7  116.37    5.72
   7   5  -7  120.57    7.47
   5  -5  -7   60.52    4.56
  -5  -5   7   65.53    4.11
   5   5  -7   62.71    4.99
   5   5  -7   65.17    3.80
   3  -5  -7  141.53    7.42
   3   5  -7  135.89    5.95
   3   5  -7  142.23    7.60
   1  -5  -7   79.81    5.36
   1   5  -7   71.56    3.91
  -1  -5  -7  118.51    6.86
  -1   5  -7  108.45    5.22
  -3  -5  -7   53.44    5.11
  -3  -5  -7   63.91    5.17
  -3   5  -7   56.16    3.63
  -5  -5  -7   99.18    7.96
  -5   5  -7  118.36    5.70
  -7  -5  -7   51.20    6.88
  -7   5  -7   54.17    3.97
  10  -6  -7  224.50    9.65
 -10  -6   7  243.39   14.65
 -10  -6   7  241.84   10.78
  10   6  -7  223.89   12.00
  10   6  -7  221.22    9.74
   8  -6  -7    9.92    2.30
  -8  -6   7   12.09    2.44
  -8  -6   7    7.53    3.47
   8   6  -7   11.62    3.00
   8   6  -7    7.29    1.93
   6  -6  -7  310.10   12.36
  -6  -6   7  291.61   11.36
  -6  -6   7  322.12   15.89
   6   6  -7  287.40   10.87
   6   6  -7  302.52   13.42
   4  -6  -7    2.16    1.56
  -4  -6   7    0.62    1.04
   4   6  -7    1.61    1.08
   2  -6  -7  386.58   15.01
   2   6  -7  381.27   12.76
   0  -6  -7   11.02    2.55
   0   6  -7    9.30    1.75
  -2  -6  -7  273.87   12.47
  -2   6  -7  282.07   10.14
  -4  -6  -7   38.44    4.99
  -4   6  -7   49.08    3.56
  -6  -6  -7  198.97   11.95
  -6   6  -7  223.69    8.83
   7  -7  -7   11.88    2.53
   5  -7  -7    4.81    1.97
   3  -7  -7   23.58    3.83
   1  -7  -7   12.12    2.60
  -1  -7  -7   12.97    2.95
  -3  -7  -7    1.49    1.70
 -14   0   8   23.47    3.63
  14   0  -8   20.85    2.88
 -12   0   8  264.95   11.03
  12   0  -8  272.36   10.17
 -10   0   8    0.36    0.88
  10   0  -8    1.61    1.15
  10   0  -8    1.73    0.80
  10   0  -8    0.51    0.73
   8   0  -8  462.51   15.06
  -8   0   8  491.87   15.41
   8   0  -8  486.10   14.91
   8   0  -8  509.85   17.99
   6   0  -8    2.69    0.85
  -6   0   8    1.14    0.66
   6   0  -8    6.72    1.72
   6   0  -8    1.67    0.66
   4   0  -8  472.48   16.99
   4   0  -8  480.65   13.75
   4   0  -8  455.72   14.13
   2   0  -8   56.76    2.75
   2   0  -8   52.89    3.86
   0   0  -8  472.85   17.44
   0   0  -8  491.85   14.20
  -2   0  -8   52.82    3.05
  -2   0  -8   47.65    3.97
  -4   0  -8  238.73   10.97
  -4   0  -8  250.34    9.14
  -6   0  -8   84.46    5.08
  -6   0  -8   84.08    6.00
  -8   0  -8  174.54    9.66
  -8   0  -8  166.12    8.39
 -10   0  -8   52.76    6.44
 -10   0  -8   46.01    5.22
 -13  -1   8   33.21    5.48
 -13  -1   8   35.97    4.24
  13  -1  -8   30.43    3.33
  13   1  -8   37.40    3.83
  13   1  -8   33.57    3.01
 -13   1   8   35.20    4.25
 -11  -1   8   36.09    4.02
  11  -1  -8   39.08    2.98
  11   1  -8   32.26    2.86
 -11   1   8   27.47    3.37
  11   1  -8   33.45    2.76
  11   1  -8   33.03    3.49
   9  -1  -8   70.06    3.72
  -9  -1   8   61.36    4.06
   9  -1  -8   62.99    3.65
   9   1  -8   65.47    3.84
   9   1  -8   72.34    5.08
  -9   1   8   62.51    3.92
   9   1  -8   62.90    3.61
   7  -1  -8   69.22    3.71
   7  -1  -8   72.04    3.57
   7  -1  -8   73.84    4.67
  -7  -1   8   69.67    3.90
   7   1  -8   66.50    4.81
   7   1  -8   68.15    3.59
   7   1  -8   69.73    3.55
  -7   1   8   68.02    3.71
   5  -1  -8   45.60    2.84
   5  -1  -8   55.04    2.77
   5  -1  -8   56.09    3.87
  -5  -1   8   50.93    3.10
   5   1  -8   53.91    2.80
   5   1  -8   52.46    3.96
  -5   1   8   52.84    2.86
   5   1  -8   49.88    2.83
   3  -1  -8   58.71    3.98
   3  -1  -8   55.68    3.09
   3  -1  -8   54.98    2.69
   3   1  -8   52.47    3.95
   3   1  -8   57.56    2.94
   1  -1  -8   98.33    3.89
   1  -1  -8  105.52    5.80
   1   1  -8  106.69    4.36
   1   1  -8   95.05    5.52
  -1  -1  -8   86.10    5.55
  -1  -1  -8   86.76    3.73
  -1   1  -8   90.84    5.33
  -1   1  -8   90.66    4.21
  -3  -1  -8   79.06    5.49
  -3  -1  -8   79.89    3.92
  -3   1  -8   76.54    4.25
  -3   1  -8   78.67    5.12
  -5  -1  -8   42.22    4.29
  -5   1  -8   34.52    3.15
  -5   1  -8   37.79    3.70
  -7  -1  -8  120.37    8.06
  -7   1  -8  115.59    7.07
  -7   1  -8  104.47    6.16
  -9  -1  -8   37.16    5.68
  -9   1  -8   40.32    4.68
 -14  -2   8    2.00    2.34
  14  -2  -8    0.67    1.27
  14   2  -8    1.33    1.39
 -12  -2   8    4.81    2.77
 -12  -2   8    6.04    1.94
  12  -2  -8    4.06    1.38
  12   2  -8    2.53    1.26
  12   2  -8    2.58    1.31
  12   2  -8    3.06    1.63
  10  -2  -8   -0.23    0.62
 -10  -2   8    0.66    0.96
  10   2  -8    1.04    0.68
  10   2  -8    0.12    0.95
  10   2  -8   -0.58    0.74
   8  -2  -8    5.51    1.41
  -8  -2   8    5.65    1.52
   8   2  -8    7.25    1.49
   8   2  -8    4.72    1.16
   8   2  -8    5.01    1.76
  -6  -2   8   -0.71    0.48
   6  -2  -8    2.53    1.08
   6  -2  -8    0.23    0.59
   6   2  -8   -0.27    0.82
   6   2  -8    0.86    0.64
   6   2  -8    1.32    0.67
   4  -2  -8    6.78    1.60
   4  -2  -8    8.14    1.52
   4   2  -8    7.90    1.84
   4   2  -8    7.79    1.33
   2  -2  -8   -0.56    0.55
   2  -2  -8    0.77    0.84
   2   2  -8   -0.29    0.45
   2   2  -8   -0.23    0.66
   0  -2  -8    3.37    1.47
   0   2  -8    9.12    1.98
   0   2  -8    4.39    1.12
  -2  -2  -8    2.07    1.31
  -2   2  -8    2.56    1.14
  -2   2  -8    1.54    0.80
  -4  -2  -8    2.37    1.50
  -4   2  -8    5.02    1.49
  -4   2  -8    4.47    1.35
  -6  -2  -8    0.08    1.45
  -6   2  -8    1.33    1.13
  -8  -2  -8    2.70    2.22
  -8   2  -8    1.97    1.47
  13  -3  -8   59.84    4.16
 -13  -3   8   54.84    4.94
 -13  -3   8   45.65    7.31
  13   3  -8   58.15    5.37
  13   3  -8   54.32    4.15
 -11  -3   8   63.77    8.25
 -11  -3   8   53.42    4.38
  11  -3  -8   54.67    3.88
  11   3  -8   46.94    3.76
  11   3  -8   55.76    3.85
  11   3  -8   52.45    4.91
   9  -3  -8   86.38    4.79
  -9  -3   8   83.31    5.04
   9   3  -8   81.74    4.32
   9   3  -8   79.03    5.81
   9   3  -8   74.68    4.48
   7  -3  -8   86.44    4.80
  -7  -3   8   85.09    4.71
   7   3  -8   81.62    5.86
   7   3  -8   84.91    4.39
   7   3  -8   82.76    4.07
   5  -3  -8   78.70    4.67
   5   3  -8   78.99    5.50
   5   3  -8   88.23    4.23
   3  -3  -8   73.79    4.56
   3  -3  -8   83.62    4.74
   3   3  -8   76.54    3.89
   3   3  -8   78.57    5.18
   1  -3  -8  122.09    6.27
   1  -3  -8  135.16    6.88
   1   3  -8  127.60    5.48
   1   3  -8  124.41    6.70
  -1  -3  -8  110.21    6.67
  -1   3  -8  108.01    5.13
  -1   3  -8  104.45    5.92
  -3  -3  -8  122.52    7.86
  -3   3  -8  110.31    5.60
  -3   3  -8  128.47    6.64
  -5  -3  -8   56.60    5.92
  -5   3  -8   58.63    4.11
  -7  -3  -8  137.22   10.15
  -7   3  -8  150.94    7.36
  -9  -3  -8   38.33    6.40
  -9   3  -8   42.97    4.59
 -12  -4   8  245.83   11.04
  12  -4  -8  235.34    9.72
 -12  -4   8  241.13   14.99
  12   4  -8  233.34   12.06
  12   4  -8  229.17    9.82
  12   4  -8  227.61    9.89
 -10  -4   8    1.16    2.33
  10  -4  -8    1.17    1.11
 -10  -4   8    3.47    1.49
  10   4  -8    2.00    1.27
  10   4  -8    0.94    0.99
  10   4  -8    1.16    1.44
  -8  -4   8  384.37   13.65
   8  -4  -8  399.58   13.97
   8   4  -8  374.95   15.94
   8   4  -8  377.76   13.05
  -6  -4   8    1.38    1.01
   6  -4  -8    0.49    0.93
   6   4  -8    1.57    1.37
   6   4  -8    1.06    0.88
   4  -4  -8  364.40   13.83
   4   4  -8  382.48   12.45
   4   4  -8  383.74   15.28
   2  -4  -8   39.11    3.73
   2   4  -8   41.69    2.90
   2   4  -8   44.86    4.00
   0  -4  -8  392.12   15.05
   0  -4  -8  367.50   14.20
   0   4  -8  380.30   14.59
   0   4  -8  356.68   12.32
  -2  -4  -8   47.20    4.48
  -2   4  -8   38.92    3.05
  -4  -4  -8  200.86   11.30
  -4   4  -8  199.80    8.28
  -6  -4  -8   86.96    7.81
  -6   4  -8   73.64    4.80
  -8  -4  -8  133.59   10.54
  -8   4  -8  141.89    7.22
 -11  -5   8   15.49    3.12
 -11  -5   8    8.41    3.80
  11  -5  -8   13.24    2.43
  11   5  -8   13.18    3.26
  11   5  -8   12.92    2.50
  11   5  -8   14.71    2.65
   9  -5  -8   28.84    3.46
  -9  -5   8   25.89    3.53
  -9  -5   8   22.36    5.13
   9   5  -8   22.94    3.92
   9   5  -8   25.46    3.26
   7  -5  -8   27.36    3.55
  -7  -5   8   26.07    3.25
   7   5  -8   29.14    3.24
   7   5  -8   30.18    4.19
   5  -5  -8   11.29    2.44
  -5  -5   8   10.77    2.22
   5   5  -8   15.74    2.31
   5   5  -8   18.06    3.23
   3  -5  -8   18.11    3.01
   3   5  -8   18.71    3.05
   3   5  -8   18.78    2.36
   1  -5  -8   41.96    4.80
   1   5  -8   41.37    3.09
  -1  -5  -8   35.20    4.43
  -1   5  -8   31.65    2.82
  -3  -5  -8   28.51    4.37
  -3   5  -8   27.63    3.08
  -5  -5  -8   14.30    3.59
  -5   5  -8   12.35    2.22
  -7  -5  -8   44.78    6.51
  -7   5  -8   50.47    4.03
  -8  -6   8   39.34    6.60
   8  -6  -8   25.00    3.53
  -8  -6   8   30.10    3.95
   8   6  -8   29.01    4.53
   8   6  -8   27.21    3.48
  -6  -6   8    1.20    1.21
   6  -6  -8    1.24    1.35
   6   6  -8    1.35    1.10
   6   6  -8    0.94    1.47
  -4  -6   8   42.29    3.67
   4  -6  -8   47.31    4.44
   4   6  -8   39.11    3.30
   2  -6  -8    1.34    1.49
   2   6  -8    1.80    1.19
   0  -6  -8   25.69    4.03
   0   6  -8   23.69    2.76
  -2  -6  -8    6.70    2.47
  -2   6  -8    7.12    1.75
  -4   6  -8   23.52    2.93
   5  -7  -8   72.24    5.65
   3  -7  -8   67.78    5.74
   1  -7  -8   81.57    6.45
  -1  -7  -8   63.39    5.77
 -12   0   9    0.37    1.14
  12   0  -9   -0.38    0.72
  10   0  -9    0.96    0.90
  10   0  -9    0.20    1.03
 -10   0   9    0.68    0.97
  10   0  -9    1.70    0.92
   8   0  -9   -0.07    0.95
   8   0  -9   -0.16    0.50
  -8   0   9    0.69    0.92
   8   0  -9   -0.53    0.58
   6   0  -9    1.85    1.06
   6   0  -9    0.00    0.55
   6   0  -9    1.08    0.74
  -6   0   9    0.16    0.59
   4   0  -9    0.16    0.50
   4   0  -9   -0.11    0.84
   2   0  -9    0.29    0.98
   2   0  -9    0.09    0.44
   0   0  -9    2.58    1.32
   0   0  -9   -0.21    0.53
  -2   0  -9    0.48    0.73
  -2   0  -9   -0.02    0.91
  -4   0  -9    0.76    0.81
  -4   0  -9    0.22    1.15
  -6   0  -9    2.46    1.83
  -6   0  -9    1.25    1.12
  -8   0  -9    0.66    1.59
  -8   0  -9    0.16    1.37
  13  -1  -9   55.70    4.00
 -13  -1   9   62.80    7.71
 -13  -1   9   58.66    4.94
  13   1  -9   54.61    4.81
  13   1  -9   52.89    3.90
 -11  -1   9   30.89    3.73
  11  -1  -9   38.10    3.08
  11   1  -9   35.11    4.31
  11   1  -9   24.89    3.03
  11   1  -9   29.29    2.72
   9  -1  -9   64.03    3.86
  -9  -1   9   59.78    4.07
   9   1  -9   64.78    3.77
   9   1  -9   68.60    5.27
   9   1  -9   62.22    3.85
  -7  -1   9   81.64    4.37
   7  -1  -9   66.66    3.88
   7  -1  -9   75.09    5.09
   7   1  -9   79.75    4.06
   7   1  -9   71.81    3.83
   7   1  -9   74.40    5.44
   5  -1  -9  109.72    5.01
  -5  -1   9  107.04    5.11
   5  -1  -9  119.32    6.45
   5   1  -9  116.39    4.92
   5   1  -9  106.15    6.44
   3  -1  -9   88.63    5.49
   3   1  -9   87.33    5.63
   3   1  -9   86.96    4.06
   1  -1  -9   80.43    5.37
   1   1  -9   80.49    5.31
   1   1  -9   83.10    3.99
  -1  -1  -9  147.11    8.14
  -1   1  -9  156.28    6.35
  -1   1  -9  148.14    7.78
  -3  -1  -9   73.90    5.79
  -3   1  -9   69.06    5.14
  -3   1  -9   84.19    4.64
  -5  -1  -9  139.27    8.58
  -5   1  -9  129.67    6.80
  -5   1  -9  139.32    7.88
  -7  -1  -9   30.08    4.84
  -7   1  -9   24.72    3.58
  -7   1  -9   20.96    3.51
  12  -2  -9    1.70    1.12
 -12  -2   9    4.01    2.47
 -12  -2   9    2.38    1.73
  12   2  -9    1.33    1.46
  12   2  -9    1.38    1.14
  12   2  -9    0.06    1.04
 -10  -2   9  269.23   10.95
  10  -2  -9  287.66   10.53
  10   2  -9  281.96   10.24
  10   2  -9  275.16   12.62
  10   2  -9  266.36   10.40
  -8  -2   9   15.16    2.37
   8  -2  -9   13.58    2.04
   8   2  -9   14.89    2.01
   8   2  -9   14.90    2.13
   8   2  -9   14.17    2.89
   6  -2  -9  365.99   12.59
   6  -2  -9  388.02   15.08
  -6  -2   9  376.90   12.56
   6   2  -9  382.97   12.19
   6   2  -9  348.35   15.16
   4  -2  -9   22.08    2.51
   4  -2  -9   21.35    2.85
   4   2  -9   19.88    2.20
   4   2  -9   20.11    3.14
   2  -2  -9  261.74   11.28
   2   2  -9  273.32    9.22
   2   2  -9  253.75   11.37
   0  -2  -9   64.75    5.02
   0   2  -9   66.48    3.82
   0   2  -9   63.89    4.64
  -2  -2  -9  233.05   11.61
  -2   2  -9  235.21    9.06
  -2   2  -9  242.10   10.68
  -4  -2  -9   23.08    4.03
  -4   2  -9   29.67    3.33
  -4   2  -9   34.67    3.57
  -6  -2  -9  130.86    8.96
  -6   2  -9  114.08    6.62
  -8  -2  -9   45.09    6.76
  -8   2  -9   39.73    4.64
 -11  -3   9   12.12    2.62
  11  -3  -9   11.40    2.17
  11   3  -9   15.82    3.20
  11   3  -9   11.98    2.18
  11   3  -9   16.46    2.74
   9  -3  -9   37.94    3.27
  -9  -3   9   27.78    3.41
   9   3  -9   35.62    4.76
   9   3  -9   39.24    3.27
   9   3  -9   36.14    2.89
   7  -3  -9   40.70    3.35
  -7  -3   9   38.36    3.25
   7   3  -9   44.70    4.32
   7   3  -9   41.09    3.13
   5  -3  -9   65.05    4.32
   5   3  -9   72.87    4.01
   5   3  -9   65.33    5.26
   3  -3  -9   44.04    3.69
   3  -3  -9   36.36    3.27
   3   3  -9   45.19    4.06
   3   3  -9   42.55    3.00
   1  -3  -9   44.22    4.02
   1   3  -9   43.09    3.10
   1   3  -9   41.64    3.86
  -1  -3  -9   88.93    6.43
  -1   3  -9   89.21    4.90
  -1   3  -9   91.38    5.78
  -3  -3  -9   44.70    5.74
  -3   3  -9   46.43    3.62
  -3   3  -9   47.24    4.06
  -5  -3  -9   65.24    6.41
  -5   3  -9   64.06    4.50
  -7  -3  -9   14.15    4.01
  -7   3  -9   13.77    2.73
  10  -4  -9   19.79    2.91
 -10  -4   9   11.12    2.42
  10   4  -9   15.48    2.60
  10   4  -9   17.78    3.69
   8  -4  -9    2.23    1.27
  -8  -4   9   -0.91    0.82
   8   4  -9   -0.27    1.26
   8   4  -9    0.09    0.86
   6  -4  -9   13.35    2.53
  -6  -4   9   14.44    2.42
   6   4  -9   13.69    3.04
   6   4  -9   12.79    2.16
   4  -4  -9    2.90    1.39
   4   4  -9    2.68    1.52
   4   4  -9    2.24    1.14
   2  -4  -9   18.24    3.06
   2   4  -9   15.58    2.27
   2   4  -9   24.08    3.56
   0  -4  -9    1.20    1.33
   0  -4  -9   -0.07    1.10
   0   4  -9    0.75    1.13
   0   4  -9    0.90    0.91
  -2  -4  -9   13.09    3.09
  -2   4  -9    8.53    1.91
  -4  -4  -9    3.62    2.03
  -4   4  -9    1.14    1.12
  -6  -4  -9    3.59    2.61
  -6   4  -9   10.32    2.25
  -9  -5   9   70.04    8.97
  -9  -5   9   78.32    5.51
   9  -5  -9   78.36    5.24
   9   5  -9   69.39    4.92
   9   5  -9   69.74    6.04
   7  -5  -9   69.41    5.13
  -7  -5   9   69.41    4.90
   7   5  -9   71.76    4.64
   7   5  -9   67.63    5.66
   5  -5  -9   98.92    6.46
  -5  -5   9  100.72    5.80
   5   5  -9  105.97    7.09
   5   5  -9  110.48    5.68
   3  -5  -9  102.07    6.59
   3   5  -9  101.72    6.70
   3   5  -9  100.09    5.43
   1  -5  -9   90.78    6.55
   1   5  -9   94.56    5.17
  -1  -5  -9  151.60    8.88
  -1   5  -9  130.27    6.52
  -3  -5  -9   67.45    6.20
  -3   5  -9   66.19    4.50
  -5  -5  -9  130.29    9.67
  -5   5  -9  151.44    7.23
  -6  -6   9  221.23    9.88
   6  -6  -9  246.90   11.05
   6   6  -9  217.46    9.50
   6   6  -9  240.28   11.69
  -4  -6   9   12.85    2.50
   4  -6  -9   18.85    3.54
   4   6  -9   15.50    2.58
   2  -6  -9  180.70    9.82
   2   6  -9  170.38    7.80
   0  -6  -9   33.83    4.99
   0   6  -9   36.78    3.30
  -2   6  -9  144.12    6.98
 -12   0  10  228.42   10.28
  12   0 -10  235.20    9.48
  10   0 -10    3.93    1.41
 -10   0  10    5.55    1.66
  10   0 -10    5.11    1.81
  10   0 -10    4.80    1.39
   8   0 -10  222.32   10.37
   8   0 -10  199.09    7.79
   8   0 -10  183.65    7.65
  -8   0  10  197.87    8.12
   6   0 -10   27.07    3.67
  -6   0  10   28.53    2.51
   6   0 -10   28.23    2.39
   4   0 -10  239.48    8.50
   4   0 -10  261.57   11.61
   2   0 -10   15.41    1.91
   2   0 -10   15.14    2.90
   0   0 -10  165.29    6.42
   0   0 -10  150.15    8.40
  -2   0 -10   30.68    2.69
  -2   0 -10   26.65    3.97
  -4   0 -10  159.35    9.28
  -4   0 -10  171.50    7.54
  -6   0 -10   12.11    3.20
  -6   0 -10    8.88    2.15
 -11  -1  10   60.46    4.74
  11  -1 -10   67.77    4.34
  11   1 -10   71.59    5.58
  11   1 -10   70.20    4.56
  11   1 -10   68.32    4.27
   9  -1 -10   31.92    2.83
  -9  -1  10   36.85    3.34
   9   1 -10   34.14    3.01
   9   1 -10   36.52    4.51
   9   1 -10   36.20    2.87
   7  -1 -10   58.99    3.63
  -7  -1  10   64.37    4.01
   7  -1 -10   64.66    5.03
   7   1 -10   59.24    5.22
   7   1 -10   62.83    3.76
  -5  -1  10   90.43    4.80
   5  -1 -10  101.94    6.31
   5   1 -10   93.68    4.59
   5   1 -10   96.75    6.41
   3  -1 -10   85.49    5.83
   3   1 -10   85.58    4.31
   3   1 -10   89.15    6.03
   1  -1 -10   92.68    6.25
   1   1 -10   98.90    4.73
   1   1 -10   94.02    6.24
  -1  -1 -10   28.00    4.04
  -1   1 -10   36.77    3.86
  -1   1 -10   33.77    2.81
  -3  -1 -10  134.43    8.54
  -3   1 -10  144.95    6.77
  -3   1 -10  131.99    7.86
  -5  -1 -10   15.43    3.48
  -5   1 -10   20.49    3.10
  -5   1 -10   20.12    3.40
  -7  -1 -10   92.40    7.92
  -7   1 -10   89.98    6.84
  -7   1 -10   83.56    6.03
  12   2 -10    0.93    1.73
  12   2 -10    3.29    1.37
 -10  -2  10    1.09    1.20
  10  -2 -10   -0.08    0.88
  10   2 -10    0.52    1.12
  10   2 -10    0.25    1.35
  10   2 -10    1.87    1.09
  -8  -2  10    3.69    1.45
   8  -2 -10    4.16    1.33
   8   2 -10    4.07    1.40
   8   2 -10    4.36    1.87
  -6  -2  10    0.57    0.87
   6  -2 -10    0.38    0.82
   6   2 -10    0.49    0.78
   6   2 -10    0.32    1.24
   4  -2 -10    1.60    1.27
   4   2 -10    2.27    1.41
   4   2 -10    4.63    1.30
   2  -2 -10    0.16    1.10
   2   2 -10    0.41    0.71
   2   2 -10    1.05    1.16
   0  -2 -10    2.84    1.55
   0   2 -10    3.36    1.28
   0   2 -10    3.83    1.58
  -2  -2 -10    0.53    1.47
  -2   2 -10    0.87    1.12
  -2   2 -10    0.39    1.11
  -4  -2 -10    2.37    2.10
  -4   2 -10    0.25    1.08
  -4   2 -10    2.32    1.48
  -6  -2 -10    1.41    1.99
  -6   2 -10   -1.21    1.07
 -11  -3  10   79.13    6.13
  11   3 -10   82.79    5.79
  11   3 -10   85.35    6.77
  11   3 -10   75.89    4.92
  -9  -3  10   53.21    4.21
   9  -3 -10   56.63    4.10
   9   3 -10   54.19    5.21
   9   3 -10   52.93    3.95
  -7  -3  10   89.06    5.23
   7  -3 -10   86.17    5.11
   7   3 -10   84.67    4.91
   7   3 -10   84.64    6.44
   5  -3 -10  117.48    6.11
  -5  -3  10  118.64    6.04
   5   3 -10  110.46    5.57
   5   3 -10  119.83    7.67
   3  -3 -10  112.68    6.55
   3  -3 -10   98.62    5.62
   3   3 -10  103.62    6.81
   3   3 -10   97.70    5.22
   1  -3 -10  137.85    8.10
   1   3 -10  145.84    8.13
   1   3 -10  145.41    6.62
  -1  -3 -10   51.03    5.15
  -1   3 -10   45.83    3.71
  -1   3 -10   57.47    4.79
  -3  -3 -10  187.86   11.09
  -3   3 -10  182.00    9.99
  -3   3 -10  157.90    7.87
  -5  -3 -10   19.73    4.55
  -5   3 -10   23.38    3.49
   8  -4 -10  164.87    7.99
  -8  -4  10  165.36    8.08
   8   4 -10  159.66    7.58
   8   4 -10  159.62    9.56
  -6  -4  10   21.20    3.01
   6  -4 -10   23.12    3.32
   6   4 -10   16.28    2.50
   6   4 -10   21.02    3.79
   4  -4 -10  199.03    9.19
   4   4 -10  197.26    8.25
   4   4 -10  178.79    9.99
   2  -4 -10    9.94    2.38
   2   4 -10   10.87    2.01
   2   4 -10   17.83    3.29
   0  -4 -10  139.12    8.32
   0   4 -10  136.39    6.73
   0   4 -10  139.62    8.06
  -2  -4 -10   21.67    4.18
  -2   4 -10   20.37    2.85
  -4  -4 -10  130.06    9.69
  -4   4 -10  136.21    7.11
  -7  -5  10   27.05    3.63
   7  -5 -10   29.91    4.01
   7   5 -10   20.10    3.72
   7   5 -10   26.80    3.39
   5  -5 -10   34.17    4.27
  -5  -5  10   44.48    3.92
   5   5 -10   44.78    3.71
   5   5 -10   41.44    5.37
   3  -5 -10   38.65    4.76
   3   5 -10   45.01    4.62
   3   5 -10   37.86    3.51
   1  -5 -10   40.90    5.07
   1   5 -10   39.28    3.52
  -1   5 -10   12.23    2.39
   2  -6 -10    2.42    2.15
  10   0 -11   -0.15    1.28
  10   0 -11    0.58    0.90
   8   0 -11    1.32    1.43
   6   0 -11   -0.42    1.19
   4   0 -11    0.47    1.19
   2   0 -11    0.73    1.35
   0   0 -11   -1.07    1.13
  -2   0 -11    0.23    1.21
  -4   0 -11    1.42    1.68
 -11  -1  11   49.66    5.55
  11   1 -11   55.65    3.94
  11   1 -11   57.02    5.44
  11   1 -11   50.11    4.56
   9  -1 -11   85.14    4.80
  -9  -1  11   75.51    5.01
   9   1 -11   83.77    6.54
   9   1 -11   86.63    5.02
   7  -1 -11   90.76    6.42
  -7  -1  11   78.97    4.81
   7   1 -11   89.25    4.78
   7   1 -11   77.57    6.42
   5  -1 -11   57.12    4.99
  -5  -1  11   49.73    3.59
   5   1 -11   50.59    4.93
   5   1 -11   57.21    3.63
   3  -1 -11  148.97    8.63
   3   1 -11  147.40    8.67
   3   1 -11  148.42    6.45
   1  -1 -11   45.17    4.74
   1   1 -11   43.23    3.23
   1   1 -11   42.39    5.18
  -1  -1 -11  123.06    8.19
  -1   1 -11  128.43    6.19
  -1   1 -11  114.29    7.58
  -3  -1 -11    7.49    2.83
  -3   1 -11    9.12    2.59
  -3   1 -11   14.42    2.57
  -5   1 -11  106.68    6.58
  -5   1 -11  118.08    7.85
 -10  -2  11  165.82    8.24
  10  -2 -11  162.20    7.54
  10   2 -11  153.73    9.46
  10   2 -11  162.65    7.79
  -8  -2  11    3.14    1.44
   8  -2 -11    1.69    1.14
   8   2 -11    3.39    1.35
   8   2 -11    2.33    1.70
  -6  -2  11  125.80    6.34
   6  -2 -11  131.45    6.41
   6   2 -11  134.54    6.30
   6   2 -11  133.99    8.59
   4  -2 -11    7.81    2.31
   4   2 -11   11.67    2.04
   4   2 -11    9.12    2.68
   2  -2 -11  180.95    9.98
   2   2 -11  189.06   10.14
   2   2 -11  194.71    7.96
   0  -2 -11    2.60    1.88
   0   2 -11    1.18    1.44
   0   2 -11    2.27    1.28
  -2  -2 -11  142.97    9.46
  -2   2 -11  144.18    7.27
  -2   2 -11  146.73    8.58
  -4  -2 -11   11.67    3.40
  -4   2 -11   12.88    3.13
  -4   2 -11   12.91    2.72
  -9  -3  11   62.12    4.78
   9  -3 -11   51.82    4.18
   9   3 -11   50.25    6.15
   9   3 -11   51.42    4.26
   7  -3 -11   41.95    3.66
  -7  -3  11   46.17    3.87
   7   3 -11   42.90    3.64
   7   3 -11   48.42    5.03
  -5  -3  11   28.24    3.38
   5  -3 -11   27.65    3.32
   5   3 -11   32.89    3.49
   5   3 -11   28.57    4.35
   3   3 -11   95.60    5.41
   3   3 -11   89.55    6.73
   1  -3 -11   26.91    4.02
   1   3 -11   25.68    3.87
   1   3 -11   25.98    3.28
  -1  -3 -11   71.95    6.43
  -1   3 -11   75.91    5.99
  -1   3 -11   65.90    4.80
  -3  -3 -11    5.04    2.79
  -3   3 -11    1.57    1.44
  -6  -4  11    8.66    2.18
   6  -4 -11    7.82    2.15
   6   4 -11    5.36    2.37
   6   4 -11    7.25    2.00
   4  -4 -11    1.68    1.29
   4   4 -11    1.74    1.73
   4   4 -11    0.41    1.14
   2   4 -11    1.79    1.34
   2   4 -11    7.72    2.55
   0   4 -11    0.42    1.16
  -2  -4 -11    6.31    2.95
   3  -5 -11  156.51    8.81
   3   5 -11  147.92    9.44
   8   0 -12  147.77    9.20
   6   0 -12    1.72    1.73
   4   0 -12  154.14    9.35
   2   0 -12    5.63    2.29
   0   0 -12  178.61   10.39
  -2   0 -12    4.16    2.25
  -7  -1  12   38.78    3.44
   7  -1 -12   40.34    5.04
   7   1 -12   40.95    5.62
   7   1 -12   33.84    3.16
   5  -1 -12   81.18    6.37
  -5  -1  12   69.39    4.54
   5   1 -12   73.45    4.41
   5   1 -12   75.22    6.41
   3  -1 -12   18.12    3.76
   3   1 -12   15.01    2.35
   3   1 -12   20.54    4.02
   1  -1 -12   97.33    7.43
   1   1 -12  102.37    5.45
   1   1 -12   93.49    7.15
  -1  -1 -12    6.77    2.60
  -1   1 -12    9.75    2.86
  -1   1 -12   11.38    2.28
  -6  -2  12    0.17    0.96
   6   2 -12   -1.30    0.86
   6   2 -12    0.43    1.45
   4  -2 -12    1.61    1.77
   4   2 -12    5.10    1.60
   4   2 -12    2.96    1.96
   2  -2 -12   -0.57    1.27
   2   2 -12    4.97    1.58
   2   2 -12   -0.73    1.08
   0  -2 -12    0.55    1.85
   0   2 -12    1.56    1.41
   0   2 -12    0.39    1.63
   5   3 -12   94.87    6.39
   5   3 -12  112.32    9.02
   3   3 -12   23.08    4.32
   3   3 -12   23.46    3.26
   1  -3 -12  122.31    8.54
   1   3 -12  130.04    8.42
   1   3 -12  115.62    7.34
   0   0   0    0.00    0.00
;
_shelx_hkl_checksum              32640
#END Tags that were not found in dictionaries
loop_
_space_group_symop_operation_xyz
'x, y, z'
'-x, y, -z+1/2'
'x+1/2, y+1/2, z'
'-x+1/2, y+1/2, -z+1/2'
'-x, -y, -z'
'x, -y, z-1/2'
'-x+1/2, -y+1/2, -z'
'x+1/2, -y+1/2, z-1/2'
loop_
_atom_site_label
_atom_site_type_symbol
_atom_site_fract_x
_atom_site_fract_y
_atom_site_fract_z
_atom_site_U_iso_or_equiv
_atom_site_adp_type
_atom_site_occupancy
_atom_site_site_symmetry_order
_atom_site_calc_flag
_atom_site_refinement_flags_posn
_atom_site_refinement_flags_adp
_atom_site_refinement_flags_occupancy
Pt1 Pt 0.12899(2) 0.13395(3) 0.00415(3) 0.00373(10) Uani 1 1 d . . .
Al1 Al 0.0000 0.1086(5) 0.2500 0.0041(4) Uani 1 2 d S T P
Ca3 Ca 0.35026(13) 0.1314(2) 0.35132(17) 0.0060(2) Uani 1 1 d . . .
loop_
_atom_site_aniso_label
_atom_site_aniso_U_11
_atom_site_aniso_U_22
_atom_site_aniso_U_33
_atom_site_aniso_U_23
_atom_site_aniso_U_13
_atom_site_aniso_U_12
Pt1 0.00190(13) 0.00301(14) 0.00593(13) 0.00006(7) -0.00002(8) -0.00060(7)
Al1 0.0015(10) 0.0066(11) 0.0039(10) 0.000 -0.0002(8) 0.000
Ca3 0.0044(5) 0.0041(5) 0.0090(5) 0.0001(4) 0.0003(4) -0.0008(3)
loop_
_atom_type_symbol
_atom_type_description
_atom_type_scat_dispersion_real
_atom_type_scat_dispersion_imag
_atom_type_scat_source
Al Al 0.0645 0.0514 'International Tables Vol C Tables 4.2.6.8 and 6.1.1.4'
Ca Ca 0.2262 0.3064 'International Tables Vol C Tables 4.2.6.8 and 6.1.1.4'
Pt Pt -1.7033 8.3905 'International Tables Vol C Tables 4.2.6.8 and 6.1.1.4'
loop_
_geom_angle_atom_site_label_1
_geom_angle_atom_site_label_2
_geom_angle_atom_site_label_3
_geom_angle
_geom_angle_site_symmetry_1
_geom_angle_site_symmetry_3
Al1 Pt1 Al1 108.02(3) . 5
Al1 Pt1 Pt1 128.69(4) . 7
Al1 Pt1 Pt1 123.272(19) 5 7
Al1 Pt1 Pt1 54.49(4) . 5
Al1 Pt1 Pt1 53.537(18) 5 5
Pt1 Pt1 Pt1 176.607(15) 7 5
Al1 Pt1 Ca3 76.53(4) . 8_455
Al1 Pt1 Ca3 71.21(5) 5 8_455
Pt1 Pt1 Ca3 119.15(3) 7 8_455
Pt1 Pt1 Ca3 61.79(2) 5 8_455
Al1 Pt1 Ca3 77.41(7) . 4
Al1 Pt1 Ca3 141.66(6) 5 4
Pt1 Pt1 Ca3 63.94(2) 7 4
Pt1 Pt1 Ca3 119.15(2) 5 4
Ca3 Pt1 Ca3 73.53(4) 8_455 4
Al1 Pt1 Ca3 140.48(6) . 6
Al1 Pt1 Ca3 73.03(3) 5 6
Pt1 Pt1 Ca3 63.16(2) 7 6
Pt1 Pt1 Ca3 113.74(3) 5 6
Ca3 Pt1 Ca3 135.57(4) 8_455 6
Ca3 Pt1 Ca3 127.10(2) 4 6
Al1 Pt1 Ca3 73.31(2) . .
Al1 Pt1 Ca3 145.52(6) 5 .
Pt1 Pt1 Ca3 64.18(2) 7 .
Pt1 Pt1 Ca3 117.56(2) 5 .
Ca3 Pt1 Ca3 138.67(3) 8_455 .
Ca3 Pt1 Ca3 72.82(3) 4 .
Ca3 Pt1 Ca3 84.64(3) 6 .
Al1 Pt1 Ca3 71.07(7) . 4_545
Al1 Pt1 Ca3 75.59(6) 5 4_545
Pt1 Pt1 Ca3 118.13(3) 7 4_545
Pt1 Pt1 Ca3 60.83(2) 5 4_545
Ca3 Pt1 Ca3 122.61(2) 8_455 4_545
Ca3 Pt1 Ca3 138.28(4) 4 4_545
Ca3 Pt1 Ca3 71.17(4) 6 4_545
Ca3 Pt1 Ca3 72.44(3) . 4_545
Al1 Pt1 Ca3 146.68(5) . 7
Al1 Pt1 Ca3 70.38(5) 5 7
Pt1 Pt1 Ca3 63.40(2) 7 7
Pt1 Pt1 Ca3 114.79(3) 5 7
Ca3 Pt1 Ca3 71.52(4) 8_455 7
Ca3 Pt1 Ca3 84.640(18) 4 7
Ca3 Pt1 Ca3 72.25(2) 6 7
Ca3 Pt1 Ca3 127.57(2) . 7
Ca3 Pt1 Ca3 135.63(3) 4_545 7
Pt1 Al1 Pt1 173.31(14) 2 .
Pt1 Al1 Pt1 111.95(5) 2 5
Pt1 Al1 Pt1 71.97(3) . 5
Pt1 Al1 Pt1 71.97(3) 2 6_556
Pt1 Al1 Pt1 111.95(5) . 6_556
Pt1 Al1 Pt1 113.06(11) 5 6_556
Pt1 Al1 Ca3 62.90(5) 2 3_445
Pt1 Al1 Ca3 123.57(9) . 3_445
Pt1 Al1 Ca3 63.12(6) 5 3_445
Pt1 Al1 Ca3 61.99(6) 6_556 3_445
Pt1 Al1 Ca3 123.57(9) 2 4_545
Pt1 Al1 Ca3 62.90(5) . 4_545
Pt1 Al1 Ca3 61.99(6) 5 4_545
Pt1 Al1 Ca3 63.12(6) 6_556 4_545
Ca3 Al1 Ca3 66.63(7) 3_445 4_545
Pt1 Al1 Ca3 61.43(2) 2 2
Pt1 Al1 Ca3 118.28(2) . 2
Pt1 Al1 Ca3 61.09(2) 5 2
Pt1 Al1 Ca3 121.75(6) 6_556 2
Ca3 Al1 Ca3 66.56(4) 3_445 2
Ca3 Al1 Ca3 117.56(8) 4_545 2
Pt1 Al1 Ca3 118.28(2) 2 .
Pt1 Al1 Ca3 61.42(2) . .
Pt1 Al1 Ca3 121.75(6) 5 .
Pt1 Al1 Ca3 61.09(2) 6_556 .
Ca3 Al1 Ca3 117.56(8) 3_445 .
Ca3 Al1 Ca3 66.56(4) 4_545 .
Ca3 Al1 Ca3 175.55(11) 2 .
Pt1 Al1 Ca3 59.06(3) 2 7_556
Pt1 Al1 Ca3 117.64(5) . 7_556
Pt1 Al1 Ca3 169.05(8) 5 7_556
Pt1 Al1 Ca3 59.55(2) 6_556 7_556
Ca3 Al1 Ca3 106.02(4) 3_445 7_556
Ca3 Al1 Ca3 116.35(5) 4_545 7_556
Ca3 Al1 Ca3 114.54(5) 2 7_556
Ca3 Al1 Ca3 63.34(4) . 7_556
Pt1 Al1 Ca3 117.64(5) 2 8_455
Pt1 Al1 Ca3 59.06(3) . 8_455
Pt1 Al1 Ca3 59.55(2) 5 8_455
Pt1 Al1 Ca3 169.05(8) 6_556 8_455
Ca3 Al1 Ca3 116.35(5) 3_445 8_455
Ca3 Al1 Ca3 106.02(4) 4_545 8_455
Ca3 Al1 Ca3 63.34(4) 2 8_455
Ca3 Al1 Ca3 114.54(5) . 8_455
Ca3 Al1 Ca3 128.99(10) 7_556 8_455
Pt1 Al1 Ca3 114.98(9) 2 4
Pt1 Al1 Ca3 58.51(5) . 4
Pt1 Al1 Ca3 117.69(4) 5 4
Pt1 Al1 Ca3 118.76(4) 6_556 4
Ca3 Al1 Ca3 177.65(6) 3_445 4
Ca3 Al1 Ca3 115.72(3) 4_545 4
Ca3 Al1 Ca3 111.70(7) 2 4
Ca3 Al1 Ca3 64.13(4) . 4
Ca3 Al1 Ca3 73.10(5) 7_556 4
Ca3 Al1 Ca3 63.39(5) 8_455 4
Pt1 Al1 Ca3 58.51(5) 2 3_455
Pt1 Al1 Ca3 114.98(9) . 3_455
Pt1 Al1 Ca3 118.76(4) 5 3_455
Pt1 Al1 Ca3 117.69(4) 6_556 3_455
Ca3 Al1 Ca3 115.72(3) 3_445 3_455
Ca3 Al1 Ca3 177.65(6) 4_545 3_455
Ca3 Al1 Ca3 64.13(4) 2 3_455
Ca3 Al1 Ca3 111.70(7) . 3_455
Ca3 Al1 Ca3 63.39(5) 7_556 3_455
Ca3 Al1 Ca3 73.10(5) 8_455 3_455
Ca3 Al1 Ca3 61.93(6) 4 3_455
Pt1 Ca3 Pt1 106.47(4) 8_556 4_545
Pt1 Ca3 Pt1 135.57(4) 8_556 6_556
Pt1 Ca3 Pt1 52.90(2) 4_545 6_556
Pt1 Ca3 Pt1 138.30(4) 8_556 .
Pt1 Ca3 Pt1 107.72(4) 4_545 .
Pt1 Ca3 Pt1 84.92(3) 6_556 .
Pt1 Ca3 Pt1 57.39(2) 8_556 4
Pt1 Ca3 Pt1 138.28(4) 4_545 4
Pt1 Ca3 Pt1 108.83(4) 6_556 4
Pt1 Ca3 Pt1 107.02(4) . 4
Pt1 Ca3 Pt1 86.24(3) 8_556 7
Pt1 Ca3 Pt1 135.82(4) 4_545 7
Pt1 Ca3 Pt1 137.24(4) 6_556 7
Pt1 Ca3 Pt1 52.43(2) . 7
Pt1 Ca3 Pt1 84.45(3) 4 7
Pt1 Ca3 Al1 46.81(2) 8_556 3
Pt1 Ca3 Al1 150.27(5) 4_545 3
Pt1 Ca3 Al1 152.97(5) 6_556 3
Pt1 Ca3 Al1 93.29(3) . 3
Pt1 Ca3 Al1 46.03(3) 4 3
Pt1 Ca3 Al1 46.50(2) 7 3
Pt1 Ca3 Al1 153.56(6) 8_556 .
Pt1 Ca3 Al1 92.10(6) 4_545 .
Pt1 Ca3 Al1 45.88(4) 6_556 .
Pt1 Ca3 Al1 45.266(18) . .
Pt1 Ca3 Al1 96.24(6) 4 .
Pt1 Ca3 Al1 93.48(4) 7 .
Al1 Ca3 Al1 117.56(8) 3 .
Pt1 Ca3 Al1 44.41(2) 8_556 7_556
Pt1 Ca3 Al1 95.35(6) 4_545 7_556
Pt1 Ca3 Al1 94.28(4) 6_556 7_556
Pt1 Ca3 Al1 149.85(6) . 7_556
Pt1 Ca3 Al1 44.86(5) 4 7_556
Pt1 Ca3 Al1 120.47(5) 7 7_556
Al1 Ca3 Al1 73.98(4) 3 7_556
Al1 Ca3 Al1 116.66(4) . 7_556
Pt1 Ca3 Al1 94.68(4) 8_556 3_545
Pt1 Ca3 Al1 44.08(3) 4_545 3_545
Pt1 Ca3 Al1 91.31(4) 6_556 3_545
Pt1 Ca3 Al1 93.53(3) . 3_545
Pt1 Ca3 Al1 152.06(5) 4 3_545
Pt1 Ca3 Al1 93.85(4) 7 3_545
Al1 Ca3 Al1 115.72(3) 3 3_545
Al1 Ca3 Al1 111.70(7) . 3_545
Al1 Ca3 Al1 116.61(5) 7_556 3_545
Pt1 Ca3 Ca3 98.58(5) 8_556 7_556
Pt1 Ca3 Ca3 97.15(5) 4_545 7_556
Pt1 Ca3 Ca3 54.51(3) 6_556 7_556
Pt1 Ca3 Ca3 100.12(5) . 7_556
Pt1 Ca3 Ca3 54.32(3) 4 7_556
Pt1 Ca3 Ca3 123.16(6) 7 7_556
Al1 Ca3 Ca3 99.63(5) 3 7_556
Al1 Ca3 Ca3 59.73(4) . 7_556
Al1 Ca3 Ca3 56.93(4) 7_556 7_556
Al1 Ca3 Ca3 141.22(6) 3_545 7_556
Pt1 Ca3 Ca3 54.85(3) 8_556 2_655
Pt1 Ca3 Ca3 99.21(3) 4_545 2_655
Pt1 Ca3 Ca3 150.34(2) 6_556 2_655
Pt1 Ca3 Ca3 96.42(5) . 2_655
Pt1 Ca3 Ca3 99.13(3) 4 2_655
Pt1 Ca3 Ca3 53.63(3) 7 2_655
Al1 Ca3 Ca3 56.69(4) 3 2_655
Al1 Ca3 Ca3 141.57(6) . 2_655
Al1 Ca3 Ca3 98.79(4) 7_556 2_655
Al1 Ca3 Ca3 59.04(3) 3_545 2_655
Ca3 Ca3 Ca3 151.92(6) 7_556 2_655
loop_
_geom_bond_atom_site_label_1
_geom_bond_atom_site_label_2
_geom_bond_distance
_geom_bond_site_symmetry_2
Pt1 Al1 2.4946(3) .
Pt1 Al1 2.5248(17) 5
Pt1 Pt1 2.7335(4) 7
Pt1 Pt1 2.9496(4) 5
Pt1 Ca3 3.0575(13) 8_455
Pt1 Ca3 3.0580(12) 4
Pt1 Ca3 3.0786(12) 6
Pt1 Ca3 3.0839(13) .
Pt1 Ca3 3.0857(12) 4_545
Pt1 Ca3 3.1046(12) 7
Al1 Pt1 2.4946(3) 2
Al1 Pt1 2.5248(17) 5
Al1 Pt1 2.5248(17) 6_556
Al1 Ca3 3.279(3) 3_445
Al1 Ca3 3.279(3) 4_545
Al1 Ca3 3.3637(13) 2
Al1 Ca3 3.3637(13) .
Al1 Ca3 3.4668(18) 7_556
Al1 Ca3 3.4668(18) 8_455
Al1 Ca3 3.500(3) 4
Al1 Ca3 3.500(3) 3_455
Ca3 Pt1 3.0575(13) 8_556
Ca3 Pt1 3.0580(12) 4_545
Ca3 Pt1 3.0787(12) 6_556
Ca3 Pt1 3.0857(12) 4
Ca3 Pt1 3.1046(12) 7
Ca3 Al1 3.279(3) 3
Ca3 Al1 3.4668(18) 7_556
Ca3 Al1 3.500(3) 3_545
Ca3 Ca3 3.587(2) 7_556
Ca3 Ca3 3.601(2) 2_655
