#------------------------------------------------------------------------------
#$Date: 2019-10-29 22:52:03 +0200 (Tue, 29 Oct 2019) $
#$Revision: 220370 $
#$URL: file:///home/coder/svn-repositories/cod/cif/4/00/29/4002946.cif $
#------------------------------------------------------------------------------
#
# This file is available in the Crystallography Open Database (COD),
# http://www.crystallography.net/
#
# All data on this site have been placed in the public domain by the
# contributors.
#
data_4002946
loop_
_publ_author_name
'Gouget, Guillaume'
'Duttine, Mathieu'
'Chung, U-Chan'
'Fourcade, S\'ebastien'
'Mauvy, Fabrice'
'Braida, Marc-David'
'Le Mercier, Thierry'
'Demourgues, Alain'
_publ_section_title
;
 High Ionic Conductivity in Oxygen-Deficient Ti-Substituted Sodium
 Niobates and the Key Role of Structural Features
;
_journal_issue                   8
_journal_name_full               'Chemistry of Materials'
_journal_page_first              2828
_journal_paper_doi               10.1021/acs.chemmater.8b05292
_journal_volume                  31
_journal_year                    2019
_chemical_formula_sum            'Na Nb0.9 O2.95 Ti0.1'
_chemical_formula_weight         158.6
_space_group_IT_number           63
_space_group_name_Hall           '-C 2c 2'
_space_group_name_H-M_alt        'C m c m'
_symmetry_cell_setting           orthorhombic
_symmetry_Int_Tables_number      63
_symmetry_space_group_name_Hall  '-C 2c 2'
_symmetry_space_group_name_H-M   'C m c m'
_cell_angle_alpha                90
_cell_angle_beta                 90
_cell_angle_gamma                90
_cell_formula_units_Z            8
_cell_length_a                   7.8200(6)
_cell_length_b                   7.8238(6)
_cell_length_c                   7.8325(3)
_cell_measurement_temperature    573
_cell_volume                     479.21(6)
_diffrn_ambient_temperature      573
_diffrn_radiation_probe          x-ray
_diffrn_radiation_wavelength     1.790276
_exptl_absorpt_coefficient_mu    59.18
_exptl_crystal_density_diffrn    4.3963
_exptl_crystal_F_000             590
_pd_instr_location               ' ?'
_pd_meas_2theta_range_inc        0.017
_pd_meas_2theta_range_max        74.987
_pd_meas_2theta_range_min        15.011
_pd_meas_number_of_points        3529
_pd_proc_2theta_range_inc        0.017
_pd_proc_2theta_range_max        74.987
_pd_proc_2theta_range_min        15.011
_pd_proc_ls_background_function  '6 Legendre polynoms'
_pd_proc_ls_pref_orient_corr     none
_pd_proc_ls_profile_function     Pseudo-Voigt
_pd_proc_ls_prof_R_factor        0.0242
_pd_proc_ls_prof_wR_expected     0.0171
_pd_proc_ls_prof_wR_factor       0.0316
_refine_ls_goodness_of_fit_all   1.85
_refine_ls_number_constraints    0
_refine_ls_number_parameters     21
_refine_ls_number_restraints     0
_refine_ls_R_factor_all          0.0231
_refine_ls_R_factor_gt           0.0185
_refine_ls_shift/su_max          0.0484
_refine_ls_shift/su_mean         0.0094
_refine_ls_weighting_scheme      sigma
_refine_ls_wR_factor_all         0.0283
_refine_ls_wR_factor_gt          0.0274
_cod_data_source_file            cm8b05292_si_003.cif
_cod_data_source_block           I
_cod_depositor_comments
;
The following automatic conversions were performed:

'_diffrn_radiation_probe' value 'X-ray' changed to 'x-ray' according
to
/home/data/users/saulius/crontab/automatic-downloads/current/ACS/lib/dictionaries/cif_core.dic
dictionary named 'cif_core.dic' version 2.4.2 from 2011-04-26.

Automatic conversion script
Id: cif_fix_values 4973 2017-02-22 13:04:09Z antanas 
;
_cod_original_sg_symbol_Hall     '-C -2x;-2yc;-2zc'
_cod_original_formula_sum        'Na1 Nb0.9 O2.95 Ti0.1'
_cod_database_code               4002946
loop_
_space_group_symop_id
_space_group_symop_operation_xyz
1 x,y,z
2 -x,-y,z+1/2
3 -x,y,-z+1/2
4 x,-y,-z
5 -x,-y,-z
6 x,y,-z+1/2
7 x,-y,z+1/2
8 -x,y,z
9 x+1/2,y+1/2,z
10 -x+1/2,-y+1/2,z+1/2
11 -x+1/2,y+1/2,-z+1/2
12 x+1/2,-y+1/2,-z
13 -x+1/2,-y+1/2,-z
14 x+1/2,y+1/2,-z+1/2
15 x+1/2,-y+1/2,z+1/2
16 -x+1/2,y+1/2,z
loop_
_atom_site_label
_atom_site_type_symbol
_atom_site_fract_x
_atom_site_fract_y
_atom_site_fract_z
_atom_site_adp_type
_atom_site_U_iso_or_equiv
_atom_site_site_symmetry_multiplicity
_atom_site_occupancy
_atom_site_calc_flag
Nb1 Nb 0.25 0.25 0 Uiso 0.0063 8 0.9 d
Ti1 Ti 0.25 0.25 0 Uiso 0.0063 8 0.1 d
Na1 Na 0 0.017(3) 0.25 Uiso 0.0127 4 1 d
Na2 Na 0 0.506(6) 0.25 Uiso 0.0127 4 1 d
O1 O 0.231(3) 0 0 Uiso 0.0127 8 1 d
O2 O 0 0.286(3) -0.0470(14) Uiso 0.0127 8 0.95 d
O3 O 0.243(6) 0.254(3) 0.25 Uiso 0.0127 8 1 d
loop_
_atom_type_symbol
_atom_type_scat_dispersion_real
_atom_type_scat_dispersion_imag
_atom_type_scat_source
Na 0.1670 0.1667 'International Tables Vol C tables 4.2.6.8 and 6.1.1.1'
Nb 0.0496 3.2133 'International Tables Vol C tables 4.2.6.8 and 6.1.1.1'
O 0.0630 0.0440 'International Tables Vol C tables 4.2.6.8 and 6.1.1.1'
Ti -0.0617 2.3213 'International Tables Vol C tables 4.2.6.8 and 6.1.1.1'
loop_
_pd_proc_point_id
_pd_proc_2theta_corrected
_pd_proc_intensity_net
_pd_calc_intensity_net
_pd_proc_ls_weight
1 15.0430 2157.00 2078.64 46.44
2 15.0600 2186.00 2081.21 46.75
3 15.0770 2151.00 2083.78 46.38
4 15.0940 2256.00 2086.34 47.50
5 15.1110 2148.00 2088.90 46.35
6 15.1280 2208.00 2091.45 46.99
7 15.1450 2246.00 2094.00 47.39
8 15.1620 2196.00 2096.54 46.86
9 15.1790 2261.00 2099.07 47.55
10 15.1960 2219.00 2101.60 47.11
11 15.2130 2236.00 2104.12 47.29
12 15.2300 2229.00 2106.64 47.21
13 15.2470 2255.00 2109.15 47.49
14 15.2640 2135.00 2111.66 46.21
15 15.2810 2200.00 2114.16 46.90
16 15.2980 2312.00 2116.66 48.08
17 15.3150 2266.00 2119.15 47.60
18 15.3320 2232.00 2121.63 47.24
19 15.3490 2105.00 2124.11 45.88
20 15.3660 2209.00 2126.58 47.00
21 15.3830 2298.00 2129.05 47.94
22 15.4000 2336.00 2131.51 48.33
23 15.4170 2365.00 2133.97 48.63
24 15.4340 2296.00 2136.42 47.92
25 15.4510 2261.00 2138.86 47.55
26 15.4680 2270.00 2141.30 47.64
27 15.4850 2320.00 2143.73 48.17
28 15.5020 2345.00 2146.16 48.43
29 15.5190 2320.00 2148.58 48.17
30 15.5360 2356.00 2151.00 48.54
31 15.5530 2360.00 2153.41 48.58
32 15.5700 2210.00 2155.82 47.01
33 15.5870 2300.00 2158.22 47.96
34 15.6040 2221.00 2160.62 47.13
35 15.6210 2203.00 2163.01 46.94
36 15.6380 2241.00 2165.39 47.34
37 15.6550 2189.00 2167.77 46.79
38 15.6720 2278.00 2170.14 47.73
39 15.6890 2249.00 2172.51 47.42
40 15.7060 2289.00 2174.87 47.84
41 15.7230 2280.00 2177.23 47.75
42 15.7400 2229.00 2179.58 47.21
43 15.7570 2257.00 2181.93 47.51
44 15.7740 2252.00 2184.27 47.46
45 15.7910 2197.00 2186.60 46.87
46 15.8080 2197.00 2188.93 46.87
47 15.8250 2332.00 2191.26 48.29
48 15.8420 2295.00 2193.58 47.91
49 15.8590 2188.00 2195.89 46.78
50 15.8760 2248.00 2198.20 47.41
51 15.8930 2276.00 2200.50 47.71
52 15.9100 2170.00 2202.80 46.58
53 15.9270 2190.00 2205.10 46.80
54 15.9440 2199.00 2207.38 46.89
55 15.9610 2250.00 2209.66 47.43
56 15.9780 2231.00 2211.94 47.23
57 15.9950 2318.00 2214.21 48.15
58 16.0120 2295.00 2216.48 47.91
59 16.0290 2289.00 2218.74 47.84
60 16.0460 2277.00 2221.00 47.72
61 16.0630 2362.00 2223.25 48.60
62 16.0800 2330.00 2225.49 48.27
63 16.0970 2295.00 2227.73 47.91
64 16.1140 2333.00 2229.97 48.30
65 16.1310 2345.00 2232.20 48.43
66 16.1480 2270.00 2234.42 47.64
67 16.1650 2353.00 2236.64 48.51
68 16.1820 2328.00 2238.85 48.25
69 16.1990 2254.00 2241.06 47.48
70 16.2160 2255.00 2243.26 47.49
71 16.2330 2238.00 2245.46 47.31
72 16.2500 2248.00 2247.66 47.41
73 16.2670 2208.00 2249.84 46.99
74 16.2840 2221.00 2252.03 47.13
75 16.3010 2296.00 2254.20 47.92
76 16.3180 2275.00 2256.37 47.70
77 16.3350 2284.00 2258.54 47.79
78 16.3520 2265.00 2260.70 47.59
79 16.3690 2224.00 2262.86 47.16
80 16.3860 2214.00 2265.01 47.05
81 16.4030 2332.00 2267.16 48.29
82 16.4200 2298.00 2269.30 47.94
83 16.4370 2264.00 2271.44 47.58
84 16.4540 2302.00 2273.57 47.98
85 16.4710 2312.00 2275.69 48.08
86 16.4880 2332.00 2277.82 48.29
87 16.5050 2307.00 2279.93 48.03
88 16.5220 2289.00 2282.04 47.84
89 16.5390 2352.00 2284.15 48.50
90 16.5560 2336.00 2286.25 48.33
91 16.5730 2288.00 2288.35 47.83
92 16.5900 2218.00 2290.44 47.10
93 16.6070 2237.00 2292.52 47.30
94 16.6240 2295.00 2294.60 47.91
95 16.6410 2291.00 2296.71 47.86
96 16.6580 2265.00 2298.78 47.59
97 16.6750 2248.00 2300.85 47.41
98 16.6920 2301.00 2302.92 47.97
99 16.7090 2271.00 2304.98 47.65
100 16.7260 2324.00 2307.03 48.21
101 16.7430 2272.00 2309.08 47.67
102 16.7600 2331.00 2311.12 48.28
103 16.7770 2311.00 2313.16 48.07
104 16.7940 2342.00 2315.19 48.39
105 16.8110 2276.00 2317.22 47.71
106 16.8280 2326.00 2319.24 48.23
107 16.8450 2389.00 2321.26 48.88
108 16.8620 2426.00 2323.27 49.25
109 16.8790 2284.00 2325.28 47.79
110 16.8960 2365.00 2327.28 48.63
111 16.9130 2278.00 2329.28 47.73
112 16.9300 2263.00 2331.27 47.57
113 16.9470 2263.00 2333.26 47.57
114 16.9640 2248.00 2335.24 47.41
115 16.9810 2269.00 2337.22 47.63
116 16.9980 2264.00 2339.19 47.58
117 17.0150 2320.00 2341.16 48.17
118 17.0320 2331.00 2343.13 48.28
119 17.0490 2278.00 2345.08 47.73
120 17.0660 2345.00 2347.04 48.43
121 17.0830 2379.00 2348.99 48.78
122 17.1000 2309.00 2350.93 48.05
123 17.1170 2275.00 2352.87 47.70
124 17.1340 2337.00 2354.81 48.34
125 17.1510 2454.00 2356.74 49.54
126 17.1680 2410.00 2358.67 49.09
127 17.1850 2303.00 2360.59 47.99
128 17.2020 2323.00 2362.50 48.20
129 17.2190 2307.00 2364.42 48.03
130 17.2360 2271.00 2366.32 47.65
131 17.2530 2334.00 2368.23 48.31
132 17.2700 2378.00 2370.12 48.76
133 17.2870 2435.00 2372.02 49.35
134 17.3040 2424.00 2373.91 49.23
135 17.3210 2293.00 2375.79 47.89
136 17.3380 2338.00 2377.67 48.35
137 17.3550 2217.00 2379.55 47.08
138 17.3720 2292.00 2381.42 47.87
139 17.3890 2409.00 2383.28 49.08
140 17.4060 2372.00 2385.14 48.70
141 17.4230 2338.00 2387.00 48.35
142 17.4400 2384.00 2388.85 48.83
143 17.4570 2409.00 2390.70 49.08
144 17.4740 2416.00 2392.54 49.15
145 17.4910 2329.00 2394.38 48.26
146 17.5080 2286.00 2396.21 47.81
147 17.5250 2297.00 2398.04 47.93
148 17.5420 2289.00 2399.87 47.84
149 17.5590 2418.00 2401.69 49.17
150 17.5760 2378.00 2403.51 48.76
151 17.5930 2333.00 2405.32 48.30
152 17.6100 2261.00 2407.13 47.55
153 17.6270 2271.00 2408.93 47.65
154 17.6440 2321.00 2410.73 48.18
155 17.6610 2361.00 2412.52 48.59
156 17.6780 2288.00 2414.32 47.83
157 17.6950 2330.00 2416.10 48.27
158 17.7120 2351.00 2417.88 48.49
159 17.7290 2367.00 2419.66 48.65
160 17.7460 2282.00 2421.44 47.77
161 17.7630 2345.00 2423.21 48.43
162 17.7800 2313.00 2424.97 48.09
163 17.7970 2360.00 2426.73 48.58
164 17.8140 2318.00 2428.49 48.15
165 17.8310 2184.00 2430.25 46.73
166 17.8480 2279.00 2432.00 47.74
167 17.8650 2330.00 2433.74 48.27
168 17.8820 2346.00 2435.49 48.44
169 17.8990 2349.00 2437.23 48.47
170 17.9160 2355.00 2438.96 48.53
171 17.9330 2372.00 2440.70 48.70
172 17.9500 2366.00 2442.43 48.64
173 17.9670 2381.00 2444.15 48.80
174 17.9840 2342.00 2445.88 48.39
175 18.0010 2325.00 2447.60 48.22
176 18.0180 2404.00 2449.32 49.03
177 18.0350 2390.00 2451.03 48.89
178 18.0520 2414.00 2452.75 49.13
179 18.0690 2424.00 2454.46 49.23
180 18.0860 2418.00 2456.17 49.17
181 18.1030 2367.00 2457.88 48.65
182 18.1200 2451.00 2459.59 49.51
183 18.1370 2428.00 2461.30 49.27
184 18.1540 2471.00 2463.01 49.71
185 18.1710 2396.00 2464.72 48.95
186 18.1880 2365.00 2466.43 48.63
187 18.2050 2391.00 2468.15 48.90
188 18.2220 2352.00 2469.87 48.50
189 18.2390 2326.00 2471.59 48.23
190 18.2560 2507.00 2473.33 50.07
191 18.2730 2528.00 2475.07 50.28
192 18.2900 2413.00 2476.83 49.12
193 18.3070 2454.00 2478.60 49.54
194 18.3240 2485.00 2480.40 49.85
195 18.3410 2412.00 2482.22 49.11
196 18.3580 2479.00 2484.07 49.79
197 18.3750 2479.00 2485.98 49.79
198 18.3920 2374.00 2487.93 48.72
199 18.4090 2461.00 2489.97 49.61
200 18.4260 2473.00 2492.11 49.73
201 18.4430 2416.00 2494.40 49.15
202 18.4600 2433.00 2496.91 49.33
203 18.4770 2417.00 2499.73 49.16
204 18.4940 2376.00 2503.04 48.74
205 18.5110 2345.00 2507.06 48.43
206 18.5280 2345.00 2512.09 48.43
207 18.5450 2343.00 2518.46 48.40
208 18.5620 2494.00 2526.42 49.94
209 18.5790 2492.00 2535.80 49.92
210 18.5960 2545.00 2545.33 50.45
211 18.6130 2487.00 2552.42 49.87
212 18.6300 2415.00 2554.92 49.14
213 18.6470 2355.00 2553.07 48.53
214 18.6640 2317.00 2548.33 48.14
215 18.6810 2343.00 2542.32 48.40
216 18.6980 2346.00 2536.70 48.44
217 18.7150 2518.00 2532.40 50.18
218 18.7320 2421.00 2529.54 49.20
219 18.7490 2339.00 2527.90 48.36
220 18.7660 2416.00 2527.16 49.15
221 18.7830 2562.00 2527.06 50.62
222 18.8000 2408.00 2527.40 49.07
223 18.8170 2387.00 2528.03 48.86
224 18.8340 2413.00 2528.86 49.12
225 18.8510 2444.00 2529.82 49.44
226 18.8680 2536.00 2530.89 50.36
227 18.8850 2457.00 2532.02 49.57
228 18.9020 2545.00 2533.21 50.45
229 18.9190 2450.00 2534.44 49.50
230 18.9360 2399.00 2535.71 48.98
231 18.9530 2364.00 2537.00 48.62
232 18.9700 2405.00 2538.31 49.04
233 18.9870 2360.00 2539.63 48.58
234 19.0040 2462.00 2540.97 49.62
235 19.0210 2522.00 2542.32 50.22
236 19.0380 2419.00 2543.68 49.18
237 19.0550 2366.00 2545.04 48.64
238 19.0720 2413.00 2546.40 49.12
239 19.0890 2452.00 2547.77 49.52
240 19.1060 2391.00 2549.14 48.90
241 19.1230 2458.00 2550.52 49.58
242 19.1400 2489.00 2551.89 49.89
243 19.1570 2528.00 2553.26 50.28
244 19.1740 2487.00 2554.64 49.87
245 19.1910 2442.00 2556.01 49.42
246 19.2080 2416.00 2557.38 49.15
247 19.2250 2455.00 2558.75 49.55
248 19.2420 2539.00 2560.12 50.39
249 19.2590 2502.00 2561.48 50.02
250 19.2760 2507.00 2562.85 50.07
251 19.2930 2527.00 2564.21 50.27
252 19.3100 2583.00 2565.57 50.82
253 19.3270 2622.00 2566.93 51.21
254 19.3440 2596.00 2568.28 50.95
255 19.3610 2569.00 2569.63 50.69
256 19.3780 2559.00 2570.98 50.59
257 19.3950 2445.00 2572.32 49.45
258 19.4120 2452.00 2573.67 49.52
259 19.4290 2532.00 2575.01 50.32
260 19.4460 2557.00 2576.34 50.57
261 19.4630 2606.00 2577.67 51.05
262 19.4800 2557.00 2579.00 50.57
263 19.4970 2404.00 2580.33 49.03
264 19.5140 2496.00 2581.65 49.96
265 19.5310 2520.00 2582.97 50.20
266 19.5480 2512.00 2584.29 50.12
267 19.5650 2565.00 2585.60 50.65
268 19.5820 2550.00 2586.91 50.50
269 19.5990 2544.00 2588.22 50.44
270 19.6160 2519.00 2589.52 50.19
271 19.6330 2394.00 2590.82 48.93
272 19.6500 2510.00 2592.11 50.10
273 19.6670 2495.00 2593.41 49.95
274 19.6840 2522.00 2594.69 50.22
275 19.7010 2528.00 2595.98 50.28
276 19.7180 2472.00 2597.26 49.72
277 19.7350 2535.00 2598.54 50.35
278 19.7520 2587.00 2599.81 50.86
279 19.7690 2493.00 2601.08 49.93
280 19.7860 2510.00 2602.35 50.10
281 19.8030 2527.00 2603.61 50.27
282 19.8200 2574.00 2604.87 50.73
283 19.8370 2476.00 2606.13 49.76
284 19.8540 2507.00 2607.38 50.07
285 19.8710 2526.00 2608.63 50.26
286 19.8880 2533.00 2609.88 50.33
287 19.9050 2560.00 2611.12 50.60
288 19.9220 2530.00 2612.36 50.30
289 19.9390 2558.00 2613.59 50.58
290 19.9560 2517.00 2614.82 50.17
291 19.9730 2432.00 2616.05 49.32
292 19.9900 2480.00 2617.27 49.80
293 20.0070 2504.00 2618.50 50.04
294 20.0240 2539.00 2619.71 50.39
295 20.0410 2586.00 2620.93 50.85
296 20.0580 2626.00 2622.14 51.24
297 20.0750 2596.00 2623.34 50.95
298 20.0920 2519.00 2624.54 50.19
299 20.1090 2606.00 2625.74 51.05
300 20.1260 2651.00 2626.94 51.49
301 20.1430 2513.00 2628.13 50.13
302 20.1600 2473.00 2629.32 49.73
303 20.1770 2569.00 2630.51 50.69
304 20.1940 2651.00 2631.69 51.49
305 20.2110 2617.00 2632.86 51.16
306 20.2280 2670.00 2634.04 51.67
307 20.2450 2571.00 2635.21 50.71
308 20.2620 2485.00 2636.38 49.85
309 20.2790 2536.00 2637.54 50.36
310 20.2960 2559.00 2638.70 50.59
311 20.3130 2656.00 2639.86 51.54
312 20.3300 2569.00 2641.01 50.69
313 20.3470 2585.00 2642.16 50.84
314 20.3640 2600.00 2643.31 50.99
315 20.3810 2509.00 2644.45 50.09
316 20.3980 2468.00 2645.59 49.68
317 20.4150 2658.00 2646.73 51.56
318 20.4320 2715.00 2647.86 52.11
319 20.4490 2610.00 2648.99 51.09
320 20.4660 2652.00 2650.11 51.50
321 20.4830 2650.00 2651.23 51.48
322 20.5000 2540.00 2652.35 50.40
323 20.5170 2586.00 2653.47 50.85
324 20.5340 2618.00 2654.58 51.17
325 20.5510 2549.00 2655.69 50.49
326 20.5680 2585.00 2656.79 50.84
327 20.5850 2527.00 2657.89 50.27
328 20.6020 2624.00 2658.96 51.22
329 20.6190 2490.00 2660.06 49.90
330 20.6360 2591.00 2661.14 50.90
331 20.6530 2567.00 2662.22 50.67
332 20.6700 2621.00 2663.31 51.20
333 20.6870 2550.00 2664.39 50.50
334 20.7040 2641.00 2665.47 51.39
335 20.7210 2574.00 2666.54 50.73
336 20.7380 2570.00 2667.61 50.70
337 20.7550 2665.00 2668.68 51.62
338 20.7720 2637.00 2669.85 51.35
339 20.7890 2583.00 2670.91 50.82
340 20.8060 2583.00 2671.97 50.82
341 20.8230 2602.00 2673.08 51.01
342 20.8400 2600.00 2674.14 50.99
343 20.8570 2682.00 2675.19 51.79
344 20.8740 2693.00 2676.23 51.89
345 20.8910 2691.00 2677.28 51.87
346 20.9080 2685.00 2678.32 51.82
347 20.9250 2705.00 2679.36 52.01
348 20.9420 2642.00 2680.39 51.40
349 20.9590 2609.00 2681.42 51.08
350 20.9760 2596.00 2682.45 50.95
351 20.9930 2581.00 2683.47 50.80
352 21.0100 2606.00 2684.50 51.05
353 21.0270 2559.00 2685.51 50.59
354 21.0440 2560.00 2686.53 50.60
355 21.0610 2636.00 2687.54 51.34
356 21.0780 2628.00 2688.55 51.26
357 21.0950 2614.00 2689.55 51.13
358 21.1120 2537.00 2690.56 50.37
359 21.1290 2602.00 2691.56 51.01
360 21.1460 2657.00 2692.55 51.55
361 21.1630 2633.00 2693.55 51.31
362 21.1800 2582.00 2694.54 50.81
363 21.1970 2563.00 2695.52 50.63
364 21.2140 2645.00 2696.51 51.43
365 21.2310 2553.00 2697.49 50.53
366 21.2480 2629.00 2698.46 51.27
367 21.2650 2716.00 2699.44 52.12
368 21.2820 2674.00 2700.41 51.71
369 21.2990 2698.00 2701.38 51.94
370 21.3160 2626.00 2702.34 51.24
371 21.3330 2610.00 2703.31 51.09
372 21.3500 2701.00 2704.27 51.97
373 21.3670 2735.00 2705.22 52.30
374 21.3840 2699.00 2706.18 51.95
375 21.4010 2595.00 2707.13 50.94
376 21.4180 2672.00 2708.08 51.69
377 21.4350 2812.00 2709.02 53.03
378 21.4520 2801.00 2709.96 52.92
379 21.4690 2662.00 2710.90 51.59
380 21.4860 2703.00 2711.84 51.99
381 21.5030 2561.00 2712.77 50.61
382 21.5200 2701.00 2713.70 51.97
383 21.5370 2854.00 2714.63 53.42
384 21.5540 2788.00 2715.56 52.80
385 21.5710 2714.00 2716.48 52.10
386 21.5880 2705.00 2717.40 52.01
387 21.6050 2747.00 2718.32 52.41
388 21.6220 2632.00 2719.23 51.30
389 21.6390 2808.00 2720.14 52.99
390 21.6560 2766.00 2721.05 52.59
391 21.6730 2795.00 2721.96 52.87
392 21.6900 2850.00 2722.86 53.39
393 21.7070 2809.00 2723.77 53.00
394 21.7240 2779.00 2724.67 52.72
395 21.7410 2833.00 2725.56 53.23
396 21.7580 2795.00 2726.46 52.87
397 21.7750 2834.00 2727.35 53.24
398 21.7920 2790.00 2728.24 52.82
399 21.8090 2826.00 2729.13 53.16
400 21.8260 2743.00 2730.02 52.37
401 21.8430 2945.00 2730.90 54.27
402 21.8600 2764.00 2731.78 52.57
403 21.8770 2751.00 2732.66 52.45
404 21.8940 2735.00 2733.54 52.30
405 21.9110 2724.00 2734.42 52.19
406 21.9280 2789.00 2735.30 52.81
407 21.9450 2751.00 2736.17 52.45
408 21.9620 2809.00 2737.04 53.00
409 21.9790 2813.00 2737.92 53.04
410 21.9960 2852.00 2738.79 53.40
411 22.0130 2803.00 2739.66 52.94
412 22.0300 2797.00 2740.53 52.89
413 22.0470 2746.00 2741.40 52.40
414 22.0640 2771.00 2742.26 52.64
415 22.0810 2835.00 2743.13 53.24
416 22.0980 2809.00 2744.00 53.00
417 22.1150 2780.00 2744.87 52.73
418 22.1320 2868.00 2745.74 53.55
419 22.1490 2843.00 2746.61 53.32
420 22.1660 2832.00 2747.49 53.22
421 22.1830 2815.00 2748.36 53.06
422 22.2000 2753.00 2749.24 52.47
423 22.2170 2771.00 2750.12 52.64
424 22.2340 2778.00 2751.01 52.71
425 22.2510 2700.00 2751.90 51.96
426 22.2680 2776.00 2752.79 52.69
427 22.2850 2928.00 2753.70 54.11
428 22.3020 2844.00 2754.61 53.33
429 22.3190 2798.00 2755.53 52.90
430 22.3360 2791.00 2756.46 52.83
431 22.3530 2827.00 2757.40 53.17
432 22.3700 2761.00 2758.36 52.55
433 22.3870 2809.00 2759.34 53.00
434 22.4040 2762.00 2760.33 52.55
435 22.4210 2881.00 2761.35 53.67
436 22.4380 2829.00 2762.40 53.19
437 22.4550 2772.00 2763.49 52.65
438 22.4720 2824.00 2764.61 53.14
439 22.4890 2748.00 2765.78 52.42
440 22.5060 2705.00 2767.01 52.01
441 22.5230 2733.00 2768.31 52.28
442 22.5400 2681.00 2769.70 51.78
443 22.5570 2792.00 2771.19 52.84
444 22.5740 2846.00 2772.82 53.35
445 22.5910 2857.00 2774.60 53.45
446 22.6080 2823.00 2776.60 53.13
447 22.6250 2762.00 2778.87 52.55
448 22.6420 2813.00 2781.51 53.04
449 22.6590 2824.00 2784.65 53.14
450 22.6760 2757.00 2788.50 52.51
451 22.6930 2677.00 2793.42 51.74
452 22.7100 2743.00 2799.89 52.37
453 22.7270 2829.00 2808.65 53.19
454 22.7440 2837.00 2820.59 53.26
455 22.7610 2770.00 2836.75 52.63
456 22.7780 2779.00 2857.99 52.72
457 22.7950 2855.00 2884.25 53.43
458 22.8120 2941.00 2912.93 54.23
459 22.8290 2862.00 2937.23 53.50
460 22.8460 2854.00 2948.95 53.42
461 22.8630 2833.00 2946.05 53.23
462 22.8800 2843.00 2932.52 53.32
463 22.8970 2794.00 2911.95 52.86
464 22.9140 2895.00 2887.81 53.81
465 22.9310 2826.00 2864.59 53.16
466 22.9480 2700.00 2845.26 51.96
467 22.9650 2782.00 2830.52 52.74
468 22.9820 2862.00 2819.82 53.50
469 22.9990 2724.00 2812.27 52.19
470 23.0160 2752.00 2806.99 52.46
471 23.0330 2824.00 2803.32 53.14
472 23.0500 2813.00 2800.75 53.04
473 23.0670 2857.00 2798.93 53.45
474 23.0840 2828.00 2797.64 53.18
475 23.1010 2789.00 2796.73 52.81
476 23.1180 2792.00 2796.10 52.84
477 23.1350 2771.00 2795.69 52.64
478 23.1520 2816.00 2795.44 53.07
479 23.1690 2839.00 2795.33 53.28
480 23.1860 2833.00 2795.32 53.23
481 23.2030 2868.00 2795.41 53.55
482 23.2200 2886.00 2795.56 53.72
483 23.2370 2784.00 2795.77 52.76
484 23.2540 2787.00 2796.03 52.79
485 23.2710 2781.00 2796.33 52.74
486 23.2880 2769.00 2796.67 52.62
487 23.3050 2798.00 2797.03 52.90
488 23.3220 2673.00 2797.42 51.70
489 23.3390 2767.00 2797.83 52.60
490 23.3560 2818.00 2798.26 53.08
491 23.3730 2815.00 2798.71 53.06
492 23.3900 2907.00 2799.16 53.92
493 23.4070 2872.00 2799.63 53.59
494 23.4240 2904.00 2800.11 53.89
495 23.4410 2907.00 2800.60 53.92
496 23.4580 2930.00 2801.09 54.13
497 23.4750 2929.00 2801.59 54.12
498 23.4920 2790.00 2802.09 52.82
499 23.5090 2775.00 2802.60 52.68
500 23.5260 2792.00 2803.12 52.84
501 23.5430 2793.00 2803.63 52.85
502 23.5600 2857.00 2804.15 53.45
503 23.5770 2885.00 2804.67 53.71
504 23.5940 2940.00 2805.20 54.22
505 23.6110 2841.00 2805.72 53.30
506 23.6280 2996.00 2806.24 54.74
507 23.6450 2991.00 2806.77 54.69
508 23.6620 3024.00 2807.30 54.99
509 23.6790 3009.00 2807.82 54.85
510 23.6960 2933.00 2808.35 54.16
511 23.7130 2957.00 2808.88 54.38
512 23.7300 2865.00 2809.40 53.53
513 23.7470 2956.00 2809.93 54.37
514 23.7640 2971.00 2810.45 54.51
515 23.7810 2917.00 2810.98 54.01
516 23.7980 2925.00 2811.50 54.08
517 23.8150 2876.00 2812.02 53.63
518 23.8320 2978.00 2812.54 54.57
519 23.8490 2980.00 2813.06 54.59
520 23.8660 3040.00 2813.58 55.14
521 23.8830 2956.00 2814.10 54.37
522 23.9000 3063.00 2814.62 55.34
523 23.9170 3085.00 2815.13 55.54
524 23.9340 3038.00 2815.65 55.12
525 23.9510 3200.00 2816.16 56.57
526 23.9680 3121.00 2816.67 55.87
527 23.9850 2953.00 2817.18 54.34
528 24.0020 3035.00 2817.68 55.09
529 24.0190 3094.00 2818.19 55.62
530 24.0360 3085.00 2818.69 55.54
531 24.0530 2941.00 2819.19 54.23
532 24.0700 2935.00 2819.70 54.18
533 24.0870 2967.00 2820.19 54.47
534 24.1040 2909.00 2820.69 53.94
535 24.1210 2879.00 2821.18 53.66
536 24.1380 2977.00 2821.68 54.56
537 24.1550 2959.00 2822.17 54.40
538 24.1720 2947.00 2822.66 54.29
539 24.1890 2981.00 2823.14 54.60
540 24.2060 2976.00 2823.63 54.55
541 24.2230 2919.00 2824.11 54.03
542 24.2400 2932.00 2824.59 54.15
543 24.2570 2864.00 2835.50 53.52
544 24.2740 2842.00 2836.14 53.31
545 24.2910 2812.00 2836.79 53.03
546 24.3080 2900.00 2837.44 53.85
547 24.3250 2954.00 2854.48 54.35
548 24.3420 2919.00 2872.67 54.03
549 24.3590 2884.00 2879.56 53.70
550 24.3760 2895.00 2880.88 53.81
551 24.3930 2917.00 2882.21 54.01
552 24.4100 2809.00 2883.57 53.00
553 24.4270 2937.00 2884.94 54.19
554 24.4440 2972.00 2886.34 54.52
555 24.4610 3029.00 2887.76 55.04
556 24.4780 2950.00 2889.20 54.31
557 24.4950 2900.00 2890.66 53.85
558 24.5120 2885.00 2892.15 53.71
559 24.5290 2932.00 2893.67 54.15
560 24.5460 2902.00 2895.21 53.87
561 24.5630 2872.00 2896.78 53.59
562 24.5800 2924.00 2898.37 54.07
563 24.5970 2993.00 2900.00 54.71
564 24.6140 2923.00 2901.66 54.06
565 24.6310 2854.00 2903.35 53.42
566 24.6480 2898.00 2905.08 53.83
567 24.6650 2950.00 2906.84 54.31
568 24.6820 2910.00 2908.64 53.94
569 24.6990 2964.00 2910.47 54.44
570 24.7160 2952.00 2912.34 54.33
571 24.7330 2891.00 2914.26 53.77
572 24.7500 2961.00 2916.22 54.42
573 24.7670 2994.00 2918.22 54.72
574 24.7840 2939.00 2920.27 54.21
575 24.8010 3047.00 2922.37 55.20
576 24.8180 3072.00 2924.52 55.43
577 24.8350 3096.00 2926.72 55.64
578 24.8520 3075.00 2928.98 55.45
579 24.8690 3053.00 2931.29 55.25
580 24.8860 3054.00 2933.67 55.26
581 24.9030 3147.00 2936.11 56.10
582 24.9200 3147.00 2938.51 56.10
583 24.9370 3078.00 2941.09 55.48
584 24.9540 2973.00 2943.73 54.53
585 24.9710 2971.00 2946.41 54.51
586 24.9880 2915.00 2949.21 53.99
587 25.0050 3036.00 2952.10 55.10
588 25.0220 3043.00 2955.08 55.16
589 25.0390 3016.00 2958.14 54.92
590 25.0560 2961.00 2961.31 54.42
591 25.0730 3099.00 2964.57 55.67
592 25.0900 3112.00 2967.95 55.79
593 25.1070 3115.00 2971.43 55.81
594 25.1240 3078.00 2975.03 55.48
595 25.1410 3041.00 2978.76 55.15
596 25.1580 3083.00 2982.62 55.52
597 25.1750 3160.00 2986.61 56.21
598 25.1920 3068.00 2990.75 55.39
599 25.2090 3056.00 2995.05 55.28
600 25.2260 3219.00 2999.50 56.74
601 25.2430 3119.00 3004.13 55.85
602 25.2600 3082.00 3008.94 55.52
603 25.2770 3043.00 3013.95 55.16
604 25.2940 3137.00 3019.15 56.01
605 25.3110 3162.00 3024.58 56.23
606 25.3280 3291.00 3030.23 57.37
607 25.3450 3293.00 3036.13 57.38
608 25.3620 3192.00 3042.29 56.50
609 25.3790 3166.00 3048.72 56.27
610 25.3960 3125.00 3055.45 55.90
611 25.4130 3096.00 3062.49 55.64
612 25.4300 3211.00 3069.86 56.67
613 25.4470 3227.00 3077.60 56.81
614 25.4640 3181.00 3085.71 56.40
615 25.4810 3190.00 3094.24 56.48
616 25.4980 3278.00 3103.21 57.25
617 25.5150 3257.00 3112.64 57.07
618 25.5320 3180.00 3122.59 56.39
619 25.5490 3140.00 3133.08 56.04
620 25.5660 3181.00 3144.16 56.40
621 25.5830 3280.00 3155.87 57.27
622 25.6000 3229.00 3168.27 56.82
623 25.6170 3192.00 3181.41 56.50
624 25.6340 3194.00 3195.36 56.52
625 25.6510 3319.00 3210.18 57.61
626 25.6680 3336.00 3225.95 57.76
627 25.6850 3265.00 3242.76 57.14
628 25.7020 3289.00 3260.70 57.35
629 25.7190 3336.00 3279.87 57.76
630 25.7360 3335.00 3300.40 57.75
631 25.7530 3478.00 3322.41 58.97
632 25.7700 3498.00 3346.07 59.14
633 25.7870 3555.00 3371.53 59.62
634 25.8040 3563.00 3398.99 59.69
635 25.8210 3630.00 3428.67 60.25
636 25.8380 3641.00 3460.81 60.34
637 25.8550 3682.00 3495.70 60.68
638 25.8720 3685.00 3533.66 60.70
639 25.8890 3771.00 3575.07 61.41
640 25.9060 3717.00 3620.36 60.97
641 25.9230 3778.00 3670.03 61.47
642 25.9400 3755.00 3724.68 61.28
643 25.9570 3908.00 3784.98 62.51
644 25.9740 3982.00 3851.75 63.10
645 25.9910 3991.00 3925.96 63.17
646 26.0080 4144.00 4008.75 64.37
647 26.0250 4139.00 4101.49 64.34
648 26.0420 4269.00 4205.84 65.34
649 26.0590 4368.00 4323.83 66.09
650 26.0760 4421.00 4457.91 66.49
651 26.0930 4582.00 4611.17 67.69
652 26.1100 4771.00 4787.37 69.07
653 26.1270 5013.00 4991.36 70.80
654 26.1440 5250.00 5229.25 72.46
655 26.1610 5474.00 5508.96 73.99
656 26.1780 5836.00 5841.01 76.39
657 26.1950 6228.00 6239.77 78.92
658 26.2120 6721.00 6725.59 81.98
659 26.2290 7464.00 7328.48 86.39
660 26.2460 8329.00 8093.72 91.26
661 26.2630 9422.00 9090.45 97.07
662 26.2800 10777.00 10421.20 103.81
663 26.2970 12932.00 12232.70 113.72
664 26.3140 15997.00 14719.90 126.48
665 26.3310 19800.00 18118.10 140.71
666 26.3480 24405.00 22666.20 156.22
667 26.3650 29647.00 28504.00 172.18
668 26.3820 34766.00 35459.40 186.46
669 26.3990 40567.00 42796.00 201.41
670 26.4160 45556.00 49264.30 213.44
671 26.4330 49620.00 53533.20 222.76
672 26.4500 51807.00 54615.20 227.61
673 26.4670 51377.00 52426.10 226.66
674 26.4840 47603.00 47865.00 218.18
675 26.5010 42454.00 41932.90 206.04
676 26.5180 36451.00 35345.40 190.92
677 26.5350 29110.00 28860.20 170.62
678 26.5520 23360.00 23175.50 152.84
679 26.5690 18668.00 18609.50 136.63
680 26.5860 14534.00 15130.40 120.56
681 26.6030 11511.00 12550.60 107.29
682 26.6200 9840.00 10655.30 99.20
683 26.6370 8420.00 9258.22 91.76
684 26.6540 7454.00 8213.69 86.34
685 26.6710 6851.00 7415.94 82.77
686 26.6880 6239.00 6791.77 78.99
687 26.7050 5782.00 6292.00 76.04
688 26.7220 5356.00 5883.90 73.18
689 26.7390 5093.00 5545.34 71.37
690 26.7560 4814.00 5260.93 69.38
691 26.7730 4683.00 5019.60 68.43
692 26.7900 4508.00 4812.96 67.14
693 26.8070 4365.00 4634.72 66.07
694 26.8240 4406.00 4479.93 66.38
695 26.8410 4145.00 4344.66 64.38
696 26.8580 3901.00 4225.79 62.46
697 26.8750 3920.00 4120.77 62.61
698 26.8920 3843.00 4027.55 61.99
699 26.9090 3814.00 3944.43 61.76
700 26.9260 3837.00 3870.02 61.94
701 26.9430 3651.00 3803.13 60.42
702 26.9600 3646.00 3742.79 60.38
703 26.9770 3596.00 3688.18 59.97
704 26.9940 3658.00 3638.59 60.48
705 27.0110 3601.00 3593.44 60.01
706 27.0280 3524.00 3552.20 59.36
707 27.0450 3482.00 3514.45 59.01
708 27.0620 3459.00 3479.80 58.81
709 27.0790 3479.00 3447.93 58.98
710 27.0960 3449.00 3418.54 58.73
711 27.1130 3444.00 3391.38 58.69
712 27.1300 3403.00 3366.24 58.34
713 27.1470 3400.00 3342.92 58.31
714 27.1640 3391.00 3321.26 58.23
715 27.1810 3369.00 3301.09 58.04
716 27.1980 3327.00 3282.29 57.68
717 27.2150 3296.00 3264.73 57.41
718 27.2320 3195.00 3248.31 56.52
719 27.2490 3254.00 3232.94 57.04
720 27.2660 3315.00 3218.52 57.58
721 27.2830 3232.00 3204.98 56.85
722 27.3000 3292.00 3192.25 57.38
723 27.3170 3268.00 3180.27 57.17
724 27.3340 3236.00 3168.98 56.89
725 27.3510 3278.00 3158.33 57.25
726 27.3680 3258.00 3148.27 57.08
727 27.3850 3108.00 3138.76 55.75
728 27.4020 3116.00 3129.81 55.82
729 27.4190 3173.00 3121.29 56.33
730 27.4360 3191.00 3113.20 56.49
731 27.4530 3197.00 3105.53 56.54
732 27.4700 3101.00 3098.27 55.69
733 27.4870 3139.00 3091.35 56.03
734 27.5040 3101.00 3084.76 55.69
735 27.5210 3132.00 3078.49 55.96
736 27.5380 2911.00 3072.51 53.95
737 27.5550 3107.00 3066.82 55.74
738 27.5720 3128.00 3061.38 55.93
739 27.5890 3141.00 3056.19 56.04
740 27.6060 3075.00 3051.23 55.45
741 27.6230 3053.00 3046.49 55.25
742 27.6400 3095.00 3041.95 55.63
743 27.6570 3102.00 3037.61 55.70
744 27.6740 3070.00 3033.45 55.41
745 27.6910 3084.00 3029.46 55.53
746 27.7080 3044.00 3025.64 55.17
747 27.7250 3105.00 3021.97 55.72
748 27.7420 3025.00 3018.45 55.00
749 27.7590 3047.00 3015.07 55.20
750 27.7760 3024.00 3011.82 54.99
751 27.7930 2924.00 3008.70 54.07
752 27.8100 2991.00 3005.69 54.69
753 27.8270 3080.00 3002.80 55.50
754 27.8440 2984.00 3000.01 54.63
755 27.8610 3158.00 2997.33 56.20
756 27.8780 3132.00 2994.75 55.96
757 27.8950 2981.00 2992.26 54.60
758 27.9120 3011.00 2989.85 54.87
759 27.9290 3032.00 2987.54 55.06
760 27.9460 2944.00 2985.30 54.26
761 27.9630 2973.00 2983.14 54.53
762 27.9800 2982.00 2981.05 54.61
763 27.9970 2968.00 2979.03 54.48
764 28.0140 3049.00 2977.08 55.22
765 28.0310 3079.00 2975.20 55.49
766 28.0480 3112.00 2973.37 55.79
767 28.0650 3010.00 2971.61 54.86
768 28.0820 2977.00 2969.90 54.56
769 28.0990 3054.00 2968.24 55.26
770 28.1160 3070.00 2966.64 55.41
771 28.1330 3060.00 2965.09 55.32
772 28.1500 3018.00 2963.58 54.94
773 28.1670 3010.00 2962.12 54.86
774 28.1840 3054.00 2960.70 55.26
775 28.2010 3119.00 2959.33 55.85
776 28.2180 3204.00 2958.00 56.60
777 28.2350 3113.00 2956.70 55.79
778 28.2520 3078.00 2955.45 55.48
779 28.2690 3090.00 2954.22 55.59
780 28.2860 2994.00 2953.04 54.72
781 28.3030 3070.00 2951.89 55.41
782 28.3200 3073.00 2950.76 55.43
783 28.3370 3077.00 2949.67 55.47
784 28.3540 3064.00 2948.61 55.35
785 28.3710 3037.00 2947.58 55.11
786 28.3880 2954.00 2946.58 54.35
787 28.4050 2905.00 2945.60 53.90
788 28.4220 3039.00 2944.65 55.13
789 28.4390 3013.00 2943.73 54.89
790 28.4560 3008.00 2942.82 54.85
791 28.4730 2911.00 2941.95 53.95
792 28.4900 2996.00 2941.09 54.74
793 28.5070 2929.00 2940.26 54.12
794 28.5240 2930.00 2939.44 54.13
795 28.5410 2949.00 2938.65 54.30
796 28.5580 3048.00 2937.88 55.21
797 28.5750 3088.00 2926.88 55.57
798 28.5920 3020.00 2915.58 54.95
799 28.6090 3097.00 2903.81 55.65
800 28.6260 3000.00 2898.50 54.77
801 28.6430 3029.00 2898.37 55.04
802 28.6600 3039.00 2893.00 55.13
803 28.6770 3015.00 2887.38 54.91
804 28.6940 2889.00 2887.44 53.75
805 28.7110 2955.00 2887.49 54.36
806 28.7280 2939.00 2887.54 54.21
807 28.7450 3039.00 2887.59 55.13
808 28.7620 2910.00 2887.65 53.94
809 28.7790 3054.00 2887.70 55.26
810 28.7960 2921.00 2887.75 54.05
811 28.8130 3014.00 2887.80 54.90
812 28.8300 2958.00 2887.85 54.39
813 28.8470 3006.00 2887.91 54.83
814 28.8640 2902.00 2887.96 53.87
815 28.8810 2963.00 2888.01 54.43
816 28.8980 2916.00 2888.07 54.00
817 28.9150 2926.00 2888.13 54.09
818 28.9320 2965.00 2888.18 54.45
819 28.9490 2963.00 2888.24 54.43
820 28.9660 2858.00 2888.30 53.46
821 28.9830 2823.00 2888.37 53.13
822 29.0000 2920.00 2888.43 54.04
823 29.0170 2827.00 2888.50 53.17
824 29.0340 2847.00 2888.57 53.36
825 29.0510 2900.00 2888.65 53.85
826 29.0680 2963.00 2888.73 54.43
827 29.0850 2919.00 2888.81 54.03
828 29.1020 2891.00 2888.90 53.77
829 29.1190 2978.00 2889.00 54.57
830 29.1360 2919.00 2889.11 54.03
831 29.1530 2903.00 2889.23 53.88
832 29.1700 2943.00 2889.35 54.25
833 29.1870 3012.00 2889.49 54.88
834 29.2040 2895.00 2889.65 53.81
835 29.2210 2873.00 2889.82 53.60
836 29.2380 2914.00 2890.01 53.98
837 29.2550 2897.00 2890.23 53.82
838 29.2720 2941.00 2890.47 54.23
839 29.2890 2986.00 2890.75 54.64
840 29.3060 2937.00 2891.07 54.19
841 29.3230 2979.00 2891.45 54.58
842 29.3400 2978.00 2891.88 54.57
843 29.3570 2976.00 2892.40 54.55
844 29.3740 3057.00 2893.01 55.29
845 29.3910 2919.00 2893.75 54.03
846 29.4080 2847.00 2894.66 53.36
847 29.4250 2896.00 2895.79 53.81
848 29.4420 2963.00 2897.24 54.43
849 29.4590 2966.00 2899.16 54.46
850 29.4760 2962.00 2901.74 54.42
851 29.4930 2982.00 2905.29 54.61
852 29.5100 2934.00 2910.16 54.17
853 29.5270 2910.00 2916.77 53.94
854 29.5440 2888.00 2925.52 53.74
855 29.5610 2991.00 2936.57 54.69
856 29.5780 2867.00 2949.48 53.54
857 29.5950 3008.00 2962.43 54.85
858 29.6120 3030.00 2972.07 55.05
859 29.6290 2869.00 2975.53 53.56
860 29.6460 2947.00 2973.12 54.29
861 29.6630 2911.00 2967.22 53.95
862 29.6800 2889.00 2959.08 53.75
863 29.6970 2856.00 2948.93 53.44
864 29.7140 2796.00 2937.79 52.88
865 29.7310 2898.00 2927.28 53.83
866 29.7480 2875.00 2918.42 53.62
867 29.7650 2927.00 2911.45 54.10
868 29.7820 2971.00 2906.18 54.51
869 29.7990 2957.00 2902.25 54.38
870 29.8160 2952.00 2899.34 54.33
871 29.8330 2909.00 2897.17 53.94
872 29.8500 2920.00 2895.52 54.04
873 29.8670 2975.00 2894.24 54.54
874 29.8840 3002.00 2893.22 54.79
875 29.9010 2941.00 2892.38 54.23
876 29.9180 2928.00 2891.69 54.11
877 29.9350 2918.00 2891.10 54.02
878 29.9520 2895.00 2890.60 53.81
879 29.9690 2909.00 2890.16 53.94
880 29.9860 2921.00 2889.77 54.05
881 30.0030 2861.00 2889.44 53.49
882 30.0200 2865.00 2889.13 53.53
883 30.0370 2836.00 2888.86 53.25
884 30.0540 2872.00 2888.61 53.59
885 30.0710 2874.00 2888.39 53.61
886 30.0880 2922.00 2888.18 54.06
887 30.1050 2948.00 2887.99 54.30
888 30.1220 2795.00 2887.81 52.87
889 30.1390 2785.00 2887.64 52.77
890 30.1560 2874.00 2887.49 53.61
891 30.1730 2907.00 2887.34 53.92
892 30.1900 2982.00 2887.20 54.61
893 30.2070 2864.00 2887.06 53.52
894 30.2240 2818.00 2886.94 53.08
895 30.2410 2744.00 2886.81 52.38
896 30.2580 2820.00 2886.69 53.10
897 30.2750 2765.00 2886.58 52.58
898 30.2920 2775.00 2886.47 52.68
899 30.3090 2816.00 2886.36 53.07
900 30.3260 2836.00 2886.25 53.25
901 30.3430 2861.00 2886.14 53.49
902 30.3600 2739.00 2886.04 52.34
903 30.3770 2867.00 2885.94 53.54
904 30.3940 2811.00 2885.84 53.02
905 30.4110 2884.00 2885.74 53.70
906 30.4280 2898.00 2885.64 53.83
907 30.4450 2851.00 2885.54 53.39
908 30.4620 2865.00 2885.45 53.53
909 30.4790 2871.00 2885.35 53.58
910 30.4960 2867.00 2885.26 53.54
911 30.5130 2975.00 2885.16 54.54
912 30.5300 2911.00 2885.07 53.95
913 30.5470 2922.00 2884.97 54.06
914 30.5640 2895.00 2884.88 53.81
915 30.5810 2894.00 2884.78 53.80
916 30.5980 2871.00 2884.69 53.58
917 30.6150 2797.00 2884.59 52.89
918 30.6320 2843.00 2884.50 53.32
919 30.6490 2936.00 2884.40 54.18
920 30.6660 2881.00 2884.31 53.67
921 30.6830 2879.00 2884.21 53.66
922 30.7000 2998.00 2884.12 54.75
923 30.7170 2853.00 2884.02 53.41
924 30.7340 2905.00 2883.93 53.90
925 30.7510 2924.00 2883.83 54.07
926 30.7680 2923.00 2883.73 54.06
927 30.7850 2878.00 2883.64 53.65
928 30.8020 2905.00 2883.54 53.90
929 30.8190 2961.00 2883.44 54.42
930 30.8360 2967.00 2883.34 54.47
931 30.8530 2866.00 2883.24 53.53
932 30.8700 3007.00 2883.15 54.84
933 30.8870 2913.00 2883.05 53.97
934 30.9040 2934.00 2882.95 54.17
935 30.9210 2962.00 2882.84 54.42
936 30.9380 2959.00 2882.74 54.40
937 30.9550 2897.00 2882.64 53.82
938 30.9720 2968.00 2882.54 54.48
939 30.9890 3067.00 2882.43 55.38
940 31.0060 2930.00 2882.33 54.13
941 31.0230 2888.00 2882.23 53.74
942 31.0400 3010.00 2882.12 54.86
943 31.0570 2958.00 2882.02 54.39
944 31.0740 2905.00 2881.91 53.90
945 31.0910 2886.00 2881.80 53.72
946 31.1080 2894.00 2881.70 53.80
947 31.1250 2924.00 2881.59 54.07
948 31.1420 2890.00 2881.48 53.76
949 31.1590 2902.00 2881.37 53.87
950 31.1760 2926.00 2881.26 54.09
951 31.1930 2931.00 2881.15 54.14
952 31.2100 2970.00 2881.04 54.50
953 31.2270 2859.00 2880.93 53.47
954 31.2440 2922.00 2880.81 54.06
955 31.2610 3032.00 2880.70 55.06
956 31.2780 2976.00 2880.59 54.55
957 31.2950 2875.00 2880.47 53.62
958 31.3120 2928.00 2880.36 54.11
959 31.3290 2881.00 2880.24 53.67
960 31.3460 3036.00 2880.13 55.10
961 31.3630 2963.00 2880.01 54.43
962 31.3800 3010.00 2879.89 54.86
963 31.3970 3082.00 2879.77 55.52
964 31.4140 2874.00 2879.65 53.61
965 31.4310 2927.00 2879.54 54.10
966 31.4480 2865.00 2879.42 53.53
967 31.4650 2913.00 2879.29 53.97
968 31.4820 2846.00 2879.17 53.35
969 31.4990 2863.00 2879.05 53.51
970 31.5160 2928.00 2878.93 54.11
971 31.5330 2984.00 2878.81 54.63
972 31.5500 2774.00 2878.68 52.67
973 31.5670 2916.00 2878.56 54.00
974 31.5840 2936.00 2878.43 54.18
975 31.6010 2855.00 2878.31 53.43
976 31.6180 2895.00 2878.18 53.81
977 31.6350 2866.00 2878.05 53.53
978 31.6520 2904.00 2877.93 53.89
979 31.6690 2798.00 2877.80 52.90
980 31.6860 2817.00 2877.67 53.08
981 31.7030 2792.00 2877.54 52.84
982 31.7200 2702.00 2877.41 51.98
983 31.7370 2781.00 2877.28 52.74
984 31.7540 2724.00 2877.15 52.19
985 31.7710 2831.00 2877.02 53.21
986 31.7880 2848.00 2876.89 53.37
987 31.8050 2854.00 2876.76 53.42
988 31.8220 2893.00 2876.62 53.79
989 31.8390 2826.00 2876.49 53.16
990 31.8560 2967.00 2876.30 54.47
991 31.8730 2940.00 2876.17 54.22
992 31.8900 2884.00 2876.04 53.70
993 31.9070 2905.00 2875.90 53.90
994 31.9240 2849.00 2875.74 53.38
995 31.9410 2823.00 2875.61 53.13
996 31.9580 2751.00 2875.48 52.45
997 31.9750 2759.00 2875.34 52.53
998 31.9920 2913.00 2875.21 53.97
999 32.0090 3008.00 2875.07 54.85
1000 32.0260 2942.00 2874.94 54.24
1001 32.0430 2917.00 2874.80 54.01
1002 32.0600 2806.00 2874.67 52.97
1003 32.0770 2834.00 2874.53 53.24
1004 32.0940 2903.00 2874.40 53.88
1005 32.1110 2890.00 2874.26 53.76
1006 32.1280 2864.00 2874.13 53.52
1007 32.1450 2912.00 2874.00 53.96
1008 32.1620 2846.00 2873.87 53.35
1009 32.1790 2918.00 2873.74 54.02
1010 32.1960 2840.00 2873.62 53.29
1011 32.2130 2702.00 2873.49 51.98
1012 32.2300 2808.00 2873.37 52.99
1013 32.2470 2963.00 2873.26 54.43
1014 32.2640 2841.00 2873.15 53.30
1015 32.2810 2827.00 2873.05 53.17
1016 32.2980 2758.00 2872.96 52.52
1017 32.3150 2881.00 2872.88 53.67
1018 32.3320 2831.00 2872.83 53.21
1019 32.3490 2885.00 2872.81 53.71
1020 32.3660 2744.00 2872.83 52.38
1021 32.3830 2875.00 2872.92 53.62
1022 32.4000 2879.00 2873.09 53.66
1023 32.4170 2889.00 2873.37 53.75
1024 32.4340 2873.00 2873.78 53.60
1025 32.4510 2896.00 2874.32 53.81
1026 32.4680 2964.00 2874.94 54.44
1027 32.4850 3006.00 2875.52 54.83
1028 32.5020 2934.00 2875.87 54.17
1029 32.5190 2868.00 2875.84 53.55
1030 32.5360 2971.00 2875.50 54.51
1031 32.5530 2849.00 2874.99 53.38
1032 32.5700 2772.00 2874.38 52.65
1033 32.5870 2850.00 2873.66 53.39
1034 32.6040 2850.00 2872.87 53.39
1035 32.6210 2933.00 2872.08 54.16
1036 32.6380 2863.00 2871.38 53.51
1037 32.6550 2856.00 2870.78 53.44
1038 32.6720 2868.00 2870.27 53.55
1039 32.6890 2891.00 2869.85 53.77
1040 32.7060 2865.00 2869.50 53.53
1041 32.7230 2810.00 2869.19 53.01
1042 32.7400 2869.00 2868.92 53.56
1043 32.7570 2880.00 2868.67 53.67
1044 32.7740 2819.00 2868.44 53.09
1045 32.7910 2852.00 2868.22 53.40
1046 32.8080 2928.00 2868.01 54.11
1047 32.8250 2850.00 2867.81 53.39
1048 32.8420 2758.00 2867.61 52.52
1049 32.8590 2872.00 2867.41 53.59
1050 32.8760 2850.00 2867.22 53.39
1051 32.8930 2857.00 2867.03 53.45
1052 32.9100 2829.00 2866.84 53.19
1053 32.9270 2815.00 2866.66 53.06
1054 32.9440 2821.00 2866.47 53.11
1055 32.9610 2947.00 2866.29 54.29
1056 32.9780 2958.00 2866.11 54.39
1057 32.9950 2963.00 2865.92 54.43
1058 33.0120 2960.00 2865.74 54.41
1059 33.0290 2865.00 2865.56 53.53
1060 33.0460 2874.00 2865.38 53.61
1061 33.0630 2925.00 2865.20 54.08
1062 33.0800 2919.00 2865.02 54.03
1063 33.0970 2932.00 2864.83 54.15
1064 33.1140 2926.00 2864.65 54.09
1065 33.1310 2824.00 2864.47 53.14
1066 33.1480 2938.00 2864.29 54.20
1067 33.1650 3019.00 2864.11 54.95
1068 33.1820 2874.00 2863.93 53.61
1069 33.1990 2754.00 2863.74 52.48
1070 33.2160 2848.00 2863.56 53.37
1071 33.2330 2822.00 2863.38 53.12
1072 33.2500 2885.00 2863.20 53.71
1073 33.2670 2909.00 2863.01 53.94
1074 33.2840 2784.00 2862.83 52.76
1075 33.3010 2986.00 2862.64 54.64
1076 33.3180 2947.00 2862.46 54.29
1077 33.3350 2914.00 2862.28 53.98
1078 33.3520 2826.00 2862.09 53.16
1079 33.3690 2761.00 2861.91 52.55
1080 33.3860 2836.00 2861.72 53.25
1081 33.4030 2870.00 2861.53 53.57
1082 33.4200 2832.00 2861.35 53.22
1083 33.4370 2745.00 2861.16 52.39
1084 33.4540 2730.00 2860.97 52.25
1085 33.4710 2735.00 2860.79 52.30
1086 33.4880 2830.00 2860.60 53.20
1087 33.5050 2797.00 2860.41 52.89
1088 33.5220 2739.00 2860.22 52.34
1089 33.5390 2858.00 2860.03 53.46
1090 33.5560 2851.00 2859.84 53.39
1091 33.5730 2832.00 2859.65 53.22
1092 33.5900 2879.00 2859.46 53.66
1093 33.6070 2828.00 2859.27 53.18
1094 33.6240 2898.00 2859.08 53.83
1095 33.6410 2824.00 2858.89 53.14
1096 33.6580 2912.00 2858.70 53.96
1097 33.6750 2955.00 2858.51 54.36
1098 33.6920 2807.00 2858.31 52.98
1099 33.7090 2889.00 2858.12 53.75
1100 33.7260 2850.00 2857.93 53.39
1101 33.7430 2821.00 2857.73 53.11
1102 33.7600 2855.00 2857.54 53.43
1103 33.7770 2854.00 2857.35 53.42
1104 33.7940 2840.00 2857.15 53.29
1105 33.8110 2807.00 2856.96 52.98
1106 33.8280 2858.00 2856.76 53.46
1107 33.8450 2805.00 2856.57 52.96
1108 33.8620 2867.00 2856.37 53.54
1109 33.8790 2903.00 2856.17 53.88
1110 33.8960 2872.00 2855.98 53.59
1111 33.9130 2863.00 2855.78 53.51
1112 33.9300 2776.00 2855.58 52.69
1113 33.9470 2836.00 2855.38 53.25
1114 33.9640 2958.00 2855.19 54.39
1115 33.9810 2836.00 2854.99 53.25
1116 33.9980 2815.00 2854.79 53.06
1117 34.0150 2850.00 2854.59 53.39
1118 34.0320 2903.00 2854.39 53.88
1119 34.0490 2966.00 2854.19 54.46
1120 34.0660 2888.00 2853.99 53.74
1121 34.0830 2980.00 2853.79 54.59
1122 34.1000 2977.00 2853.59 54.56
1123 34.1170 2889.00 2853.39 53.75
1124 34.1340 2877.00 2853.18 53.64
1125 34.1510 2842.00 2852.98 53.31
1126 34.1680 2793.00 2852.78 52.85
1127 34.1850 2772.00 2852.58 52.65
1128 34.2020 2893.00 2852.37 53.79
1129 34.2190 2798.00 2852.17 52.90
1130 34.2360 2858.00 2851.97 53.46
1131 34.2530 2830.00 2851.76 53.20
1132 34.2700 2861.00 2851.56 53.49
1133 34.2870 2821.00 2851.35 53.11
1134 34.3040 2829.00 2851.15 53.19
1135 34.3210 2751.00 2850.94 52.45
1136 34.3380 2754.00 2850.74 52.48
1137 34.3550 2708.00 2850.53 52.04
1138 34.3720 2817.00 2850.32 53.08
1139 34.3890 2680.00 2850.12 51.77
1140 34.4060 2818.00 2849.91 53.08
1141 34.4230 2807.00 2849.70 52.98
1142 34.4400 2790.00 2849.50 52.82
1143 34.4570 2851.00 2849.29 53.39
1144 34.4740 2886.00 2849.08 53.72
1145 34.4910 2841.00 2848.87 53.30
1146 34.5080 2862.00 2848.66 53.50
1147 34.5250 2852.00 2848.45 53.40
1148 34.5420 2893.00 2848.24 53.79
1149 34.5590 2921.00 2848.04 54.05
1150 34.5760 2866.00 2847.83 53.53
1151 34.5930 2863.00 2847.62 53.51
1152 34.6100 2783.00 2847.40 52.75
1153 34.6270 2845.00 2847.19 53.34
1154 34.6440 2881.00 2846.98 53.67
1155 34.6610 2841.00 2846.77 53.30
1156 34.6780 2835.00 2846.56 53.24
1157 34.6950 2888.00 2846.35 53.74
1158 34.7120 2835.00 2846.14 53.24
1159 34.7290 2837.00 2845.92 53.26
1160 34.7460 2799.00 2845.71 52.91
1161 34.7630 2770.00 2845.50 52.63
1162 34.7800 2769.00 2845.28 52.62
1163 34.7970 2750.00 2845.07 52.44
1164 34.8140 2811.00 2844.85 53.02
1165 34.8310 2737.00 2844.64 52.32
1166 34.8480 2693.00 2844.43 51.89
1167 34.8650 2733.00 2844.21 52.28
1168 34.8820 2878.00 2843.99 53.65
1169 34.8990 2913.00 2843.78 53.97
1170 34.9160 2794.00 2843.56 52.86
1171 34.9330 2822.00 2843.35 53.12
1172 34.9500 2862.00 2843.13 53.50
1173 34.9670 2820.00 2842.92 53.10
1174 34.9840 2775.00 2842.70 52.68
1175 35.0010 2690.00 2842.48 51.87
1176 35.0180 2750.00 2842.27 52.44
1177 35.0350 2806.00 2842.05 52.97
1178 35.0520 2800.00 2841.83 52.92
1179 35.0690 2790.00 2841.61 52.82
1180 35.0860 2777.00 2841.40 52.70
1181 35.1030 2894.00 2841.18 53.80
1182 35.1200 2800.00 2840.96 52.92
1183 35.1370 2758.00 2840.74 52.52
1184 35.1540 2729.00 2840.52 52.24
1185 35.1710 2671.00 2840.30 51.68
1186 35.1880 2773.00 2840.09 52.66
1187 35.2050 2812.00 2839.87 53.03
1188 35.2220 2811.00 2839.65 53.02
1189 35.2390 2822.00 2839.43 53.12
1190 35.2560 2816.00 2839.21 53.07
1191 35.2730 2817.00 2838.99 53.08
1192 35.2900 2752.00 2838.77 52.46
1193 35.3070 2862.00 2848.16 53.50
1194 35.3240 2948.00 2848.07 54.30
1195 35.3410 2787.00 2847.99 52.79
1196 35.3580 2770.00 2847.91 52.63
1197 35.3750 2717.00 2847.84 52.12
1198 35.3920 2795.00 2864.67 52.87
1199 35.4090 2743.00 2882.45 52.37
1200 35.4260 2806.00 2888.47 52.97
1201 35.4430 2795.00 2889.01 52.87
1202 35.4600 2860.00 2889.57 53.48
1203 35.4770 2773.00 2890.14 52.66
1204 35.4940 2755.00 2890.73 52.49
1205 35.5110 2727.00 2891.34 52.22
1206 35.5280 2792.00 2891.96 52.84
1207 35.5450 2748.00 2892.61 52.42
1208 35.5620 2846.00 2893.27 53.35
1209 35.5790 2743.00 2893.96 52.37
1210 35.5960 2711.00 2894.67 52.07
1211 35.6130 2876.00 2895.40 53.63
1212 35.6300 2812.00 2896.15 53.03
1213 35.6470 2704.00 2896.93 52.00
1214 35.6640 2846.00 2897.73 53.35
1215 35.6810 2796.00 2898.56 52.88
1216 35.6980 2742.00 2899.41 52.36
1217 35.7150 2722.00 2900.29 52.17
1218 35.7320 2834.00 2901.20 53.24
1219 35.7490 2888.00 2902.13 53.74
1220 35.7660 2850.00 2903.10 53.39
1221 35.7830 2840.00 2904.10 53.29
1222 35.8000 2910.00 2905.12 53.94
1223 35.8170 2805.00 2906.19 52.96
1224 35.8340 2860.00 2907.28 53.48
1225 35.8510 2921.00 2908.41 54.05
1226 35.8680 2886.00 2909.58 53.72
1227 35.8850 2850.00 2910.78 53.39
1228 35.9020 2827.00 2912.03 53.17
1229 35.9190 2885.00 2913.32 53.71
1230 35.9360 2880.00 2914.64 53.67
1231 35.9530 2820.00 2916.02 53.10
1232 35.9700 2906.00 2917.44 53.91
1233 35.9870 2779.00 2918.90 52.72
1234 36.0040 2690.00 2920.42 51.87
1235 36.0210 2773.00 2921.98 52.66
1236 36.0380 2849.00 2923.60 53.38
1237 36.0550 2791.00 2925.28 52.83
1238 36.0720 2790.00 2927.01 52.82
1239 36.0890 2769.00 2928.81 52.62
1240 36.1060 2750.00 2930.66 52.44
1241 36.1230 2846.00 2932.59 53.35
1242 36.1400 2801.00 2934.58 52.92
1243 36.1570 2755.00 2936.64 52.49
1244 36.1740 2723.00 2938.77 52.18
1245 36.1910 2819.00 2940.98 53.09
1246 36.2080 2780.00 2943.28 52.73
1247 36.2250 2905.00 2945.66 53.90
1248 36.2420 2762.00 2948.12 52.55
1249 36.2590 2816.00 2950.68 53.07
1250 36.2760 2891.00 2953.34 53.77
1251 36.2930 2851.00 2956.09 53.39
1252 36.3100 2864.00 2958.95 53.52
1253 36.3270 2903.00 2961.93 53.88
1254 36.3440 2902.00 2965.02 53.87
1255 36.3610 2808.00 2968.23 52.99
1256 36.3780 2856.00 2971.57 53.44
1257 36.3950 2894.00 2975.04 53.80
1258 36.4120 2875.00 2978.66 53.62
1259 36.4290 2955.00 2982.42 54.36
1260 36.4460 2869.00 2986.34 53.56
1261 36.4630 3006.00 2990.43 54.83
1262 36.4800 2956.00 2994.69 54.37
1263 36.4970 2994.00 2999.13 54.72
1264 36.5140 2983.00 3003.76 54.62
1265 36.5310 2996.00 3008.61 54.74
1266 36.5480 2925.00 3013.66 54.08
1267 36.5650 2851.00 3018.95 53.39
1268 36.5820 2875.00 3024.47 53.62
1269 36.5990 3023.00 3030.25 54.98
1270 36.6160 3029.00 3036.30 55.04
1271 36.6330 3057.00 3042.64 55.29
1272 36.6500 2992.00 3049.28 54.70
1273 36.6670 2989.00 3056.25 54.67
1274 36.6840 3173.00 3063.57 56.33
1275 36.7010 3151.00 3071.25 56.13
1276 36.7180 3113.00 3079.33 55.79
1277 36.7350 3171.00 3087.82 56.31
1278 36.7520 3169.00 3096.76 56.29
1279 36.7690 3272.00 3106.17 57.20
1280 36.7860 3179.00 3116.11 56.38
1281 36.8030 3191.00 3126.58 56.49
1282 36.8200 3312.00 3137.65 57.55
1283 36.8370 3239.00 3149.35 56.91
1284 36.8540 3233.00 3161.73 56.86
1285 36.8710 3231.00 3174.85 56.84
1286 36.8880 3246.00 3188.75 56.97
1287 36.9050 3232.00 3203.52 56.85
1288 36.9220 3347.00 3219.21 57.85
1289 36.9390 3387.00 3235.90 58.20
1290 36.9560 3316.00 3253.68 57.58
1291 36.9730 3355.00 3272.66 57.92
1292 36.9900 3337.00 3292.91 57.77
1293 37.0070 3348.00 3314.58 57.86
1294 37.0240 3438.00 3337.80 58.63
1295 37.0410 3412.00 3362.70 58.41
1296 37.0580 3404.00 3389.47 58.34
1297 37.0750 3448.00 3418.27 58.72
1298 37.0920 3597.00 3449.34 59.97
1299 37.1090 3579.00 3482.89 59.82
1300 37.1260 3572.00 3519.23 59.77
1301 37.1430 3549.00 3558.62 59.57
1302 37.1600 3627.00 3601.45 60.22
1303 37.1770 3592.00 3648.14 59.93
1304 37.1940 3598.00 3699.11 59.98
1305 37.2110 3677.00 3754.96 60.64
1306 37.2280 3745.00 3816.26 61.20
1307 37.2450 3734.00 3883.81 61.11
1308 37.2620 3862.00 3958.41 62.15
1309 37.2790 3849.00 4041.14 62.04
1310 37.2960 4061.00 4133.15 63.73
1311 37.3130 4220.00 4235.91 64.96
1312 37.3300 4344.00 4351.14 65.91
1313 37.3470 4466.00 4480.88 66.83
1314 37.3640 4577.00 4627.77 67.65
1315 37.3810 4605.00 4794.77 67.86
1316 37.3980 4936.00 4985.87 70.26
1317 37.4150 5282.00 5205.70 72.68
1318 37.4320 5403.00 5460.54 73.51
1319 37.4490 5741.00 5758.07 75.77
1320 37.4660 6156.00 6108.98 78.46
1321 37.4830 6622.00 6527.77 81.38
1322 37.5000 7232.00 7035.27 85.04
1323 37.5170 7937.00 7662.21 89.09
1324 37.5340 8351.00 8454.23 91.38
1325 37.5510 9176.00 9479.29 95.79
1326 37.5680 10718.00 10832.40 103.53
1327 37.5850 12223.00 12643.40 110.56
1328 37.6020 14404.00 15072.10 120.02
1329 37.6190 17482.00 18303.10 132.22
1330 37.6360 21710.00 22511.50 147.34
1331 37.6530 27334.00 27814.30 165.33
1332 37.6700 33497.00 34141.80 183.02
1333 37.6870 40183.00 41028.10 200.46
1334 37.7040 47319.00 47433.60 217.53
1335 37.7210 52659.00 51964.00 229.48
1336 37.7380 55916.00 53712.10 236.47
1337 37.7550 55735.00 52866.70 236.08
1338 37.7720 53032.00 50366.80 230.29
1339 37.7890 48271.00 47003.70 219.71
1340 37.8060 43979.00 42959.90 209.71
1341 37.8230 39423.00 38180.20 198.55
1342 37.8400 33887.00 32879.80 184.08
1343 37.8570 28106.00 27573.70 167.65
1344 37.8740 22876.00 22771.70 151.25
1345 37.8910 18669.00 18742.90 136.63
1346 37.9080 15427.00 15528.00 124.21
1347 37.9250 12738.00 13035.00 112.86
1348 37.9420 10724.00 11133.90 103.56
1349 37.9590 9382.00 9691.50 96.86
1350 37.9760 8201.00 8593.55 90.56
1351 37.9930 7419.00 7748.06 86.13
1352 38.0100 6815.00 7085.40 82.55
1353 38.0270 6246.00 6555.29 79.03
1354 38.0440 5796.00 6122.61 76.13
1355 38.0610 5402.00 5763.20 73.50
1356 38.0780 5102.00 5460.12 71.43
1357 38.0950 4898.00 5201.75 69.99
1358 38.1120 4627.00 4979.27 68.02
1359 38.1290 4477.00 4786.36 66.91
1360 38.1460 4372.00 4617.85 66.12
1361 38.1630 4264.00 4469.83 65.30
1362 38.1800 4198.00 4339.10 64.79
1363 38.1970 4057.00 4223.07 63.69
1364 38.2140 3873.00 4119.62 62.23
1365 38.2310 3884.00 4026.98 62.32
1366 38.2480 3749.00 3943.73 61.23
1367 38.2650 3675.00 3868.58 60.62
1368 38.2820 3642.00 3800.58 60.35
1369 38.2990 3718.00 3738.80 60.98
1370 38.3160 3614.00 3682.52 60.12
1371 38.3330 3482.00 3631.10 59.01
1372 38.3500 3434.00 3584.00 58.60
1373 38.3670 3400.00 3540.74 58.31
1374 38.3840 3390.00 3500.92 58.22
1375 38.4010 3335.00 3464.18 57.75
1376 38.4180 3313.00 3430.20 57.56
1377 38.4350 3364.00 3398.73 58.00
1378 38.4520 3361.00 3369.51 57.97
1379 38.4690 3312.00 3342.33 57.55
1380 38.4860 3133.00 3317.01 55.97
1381 38.5030 3175.00 3293.37 56.35
1382 38.5200 3192.00 3271.28 56.50
1383 38.5370 3213.00 3250.60 56.68
1384 38.5540 3204.00 3231.20 56.60
1385 38.5710 3158.00 3213.00 56.20
1386 38.5880 3138.00 3195.88 56.02
1387 38.6050 3258.00 3179.76 57.08
1388 38.6220 3160.00 3164.57 56.21
1389 38.6390 3081.00 3150.23 55.51
1390 38.6560 3164.00 3136.68 56.25
1391 38.6730 3168.00 3123.87 56.28
1392 38.6900 3113.00 3111.74 55.79
1393 38.7070 3027.00 3100.23 55.02
1394 38.7240 3060.00 3089.32 55.32
1395 38.7410 3118.00 3078.95 55.84
1396 38.7580 3065.00 3069.10 55.36
1397 38.7750 3036.00 3059.72 55.10
1398 38.7920 3093.00 3050.79 55.61
1399 38.8090 3110.00 3042.28 55.77
1400 38.8260 3080.00 3034.16 55.50
1401 38.8430 3003.00 3026.41 54.80
1402 38.8600 3040.00 3019.00 55.14
1403 38.8770 3051.00 3011.92 55.24
1404 38.8940 3034.00 3005.14 55.08
1405 38.9110 3026.00 2998.65 55.01
1406 38.9280 3019.00 2992.43 54.95
1407 38.9450 3029.00 2986.47 55.04
1408 38.9620 2986.00 2980.74 54.64
1409 38.9790 2975.00 2975.25 54.54
1410 38.9960 2941.00 2969.97 54.23
1411 39.0130 2958.00 2964.90 54.39
1412 39.0300 2910.00 2960.02 53.94
1413 39.0470 2985.00 2955.32 54.64
1414 39.0640 3080.00 2950.80 55.50
1415 39.0810 2952.00 2946.44 54.33
1416 39.0980 2960.00 2942.24 54.41
1417 39.1150 2959.00 2938.19 54.40
1418 39.1320 2887.00 2934.29 53.73
1419 39.1490 2844.00 2930.52 53.33
1420 39.1660 2995.00 2926.87 54.73
1421 39.1830 3049.00 2923.35 55.22
1422 39.2000 3022.00 2919.95 54.97
1423 39.2170 2883.00 2916.66 53.69
1424 39.2340 2905.00 2913.48 53.90
1425 39.2510 2848.00 2910.40 53.37
1426 39.2680 2961.00 2907.42 54.42
1427 39.2850 2934.00 2904.53 54.17
1428 39.3020 2802.00 2901.74 52.93
1429 39.3190 2936.00 2899.03 54.18
1430 39.3360 2970.00 2896.40 54.50
1431 39.3530 2931.00 2893.85 54.14
1432 39.3700 2907.00 2891.38 53.92
1433 39.3870 2861.00 2888.99 53.49
1434 39.4040 2920.00 2886.66 54.04
1435 39.4210 2875.00 2884.41 53.62
1436 39.4380 2925.00 2882.22 54.08
1437 39.4550 2900.00 2880.10 53.85
1438 39.4720 2783.00 2878.04 52.75
1439 39.4890 2833.00 2876.04 53.23
1440 39.5060 2847.00 2874.10 53.36
1441 39.5230 2802.00 2872.21 52.93
1442 39.5400 2923.00 2870.39 54.06
1443 39.5570 2860.00 2868.62 53.48
1444 39.5740 2914.00 2866.90 53.98
1445 39.5910 2984.00 2865.24 54.63
1446 39.6080 2882.00 2863.63 53.68
1447 39.6250 2821.00 2862.08 53.11
1448 39.6420 2843.00 2860.58 53.32
1449 39.6590 2787.00 2859.14 52.79
1450 39.6760 2938.00 2857.75 54.20
1451 39.6930 2946.00 2856.42 54.28
1452 39.7100 2893.00 2855.15 53.79
1453 39.7270 2916.00 2853.94 54.00
1454 39.7440 2947.00 2852.79 54.29
1455 39.7610 2900.00 2851.72 53.85
1456 39.7780 2910.00 2850.72 53.94
1457 39.7950 2832.00 2849.81 53.22
1458 39.8120 2720.00 2848.99 52.15
1459 39.8290 2836.00 2848.28 53.25
1460 39.8460 2858.00 2847.69 53.46
1461 39.8630 2783.00 2847.25 52.75
1462 39.8800 2854.00 2847.09 53.42
1463 39.8970 2915.00 2847.06 53.99
1464 39.9140 2827.00 2847.33 53.17
1465 39.9310 2859.00 2848.01 53.47
1466 39.9480 2901.00 2849.24 53.86
1467 39.9650 2859.00 2851.26 53.47
1468 39.9820 2868.00 2854.46 53.55
1469 39.9990 2981.00 2859.01 54.60
1470 40.0160 2893.00 2865.36 53.79
1471 40.0330 2825.00 2873.91 53.15
1472 40.0500 2864.00 2884.92 53.52
1473 40.0670 2917.00 2898.24 54.01
1474 40.0840 2887.00 2912.88 53.73
1475 40.1010 2834.00 2926.45 53.24
1476 40.1180 2936.00 2935.42 54.18
1477 40.1350 2878.00 2916.60 53.65
1478 40.1520 2855.00 2912.76 53.43
1479 40.1690 2863.00 2894.83 53.51
1480 40.1860 2831.00 2887.28 53.21
1481 40.2030 2874.00 2878.97 53.61
1482 40.2200 2896.00 2858.67 53.81
1483 40.2370 2903.00 2847.06 53.88
1484 40.2540 2829.00 2829.50 53.19
1485 40.2710 2898.00 2818.39 53.83
1486 40.2880 2878.00 2808.92 53.65
1487 40.3050 2801.00 2801.26 52.92
1488 40.3220 2759.00 2795.22 52.53
1489 40.3390 2819.00 2790.53 53.09
1490 40.3560 2784.00 2786.91 52.76
1491 40.3730 2984.00 2784.10 54.63
1492 40.3900 2837.00 2781.89 53.26
1493 40.4070 2780.00 2780.11 52.73
1494 40.4240 2797.00 2778.65 52.89
1495 40.4410 2775.00 2777.43 52.68
1496 40.4580 2833.00 2776.38 53.23
1497 40.4750 2778.00 2775.46 52.71
1498 40.4920 2746.00 2774.65 52.40
1499 40.5090 2803.00 2773.92 52.94
1500 40.5260 2856.00 2773.26 53.44
1501 40.5430 2921.00 2772.66 54.05
1502 40.5600 2842.00 2772.10 53.31
1503 40.5770 2833.00 2771.59 53.23
1504 40.5940 2779.00 2771.11 52.72
1505 40.6110 2864.00 2770.66 53.52
1506 40.6280 2755.00 2770.24 52.49
1507 40.6450 2801.00 2769.84 52.92
1508 40.6620 2792.00 2769.46 52.84
1509 40.6790 2837.00 2769.09 53.26
1510 40.6960 2786.00 2768.74 52.78
1511 40.7130 2703.00 2768.41 51.99
1512 40.7300 2740.00 2768.08 52.35
1513 40.7470 2826.00 2767.77 53.16
1514 40.7640 2817.00 2767.46 53.08
1515 40.7810 2799.00 2767.17 52.91
1516 40.7980 2823.00 2766.88 53.13
1517 40.8150 2818.00 2766.60 53.08
1518 40.8320 2791.00 2766.33 52.83
1519 40.8490 2778.00 2766.06 52.71
1520 40.8660 2704.00 2765.79 52.00
1521 40.8830 2828.00 2765.54 53.18
1522 40.9000 2941.00 2765.28 54.23
1523 40.9170 2765.00 2765.03 52.58
1524 40.9340 2792.00 2764.79 52.84
1525 40.9510 2808.00 2764.54 52.99
1526 40.9680 2810.00 2764.31 53.01
1527 40.9850 2829.00 2764.07 53.19
1528 41.0020 2771.00 2763.84 52.64
1529 41.0190 2744.00 2763.61 52.38
1530 41.0360 2724.00 2763.38 52.19
1531 41.0530 2788.00 2763.16 52.80
1532 41.0700 2775.00 2762.94 52.68
1533 41.0870 2675.00 2762.72 51.72
1534 41.1040 2794.00 2762.50 52.86
1535 41.1210 2773.00 2762.29 52.66
1536 41.1380 2786.00 2762.08 52.78
1537 41.1550 2816.00 2761.87 53.07
1538 41.1720 2782.00 2761.66 52.74
1539 41.1890 2774.00 2761.46 52.67
1540 41.2060 2792.00 2761.26 52.84
1541 41.2230 2807.00 2761.06 52.98
1542 41.2400 2829.00 2760.86 53.19
1543 41.2570 2755.00 2760.67 52.49
1544 41.2740 2856.00 2760.47 53.44
1545 41.2910 2793.00 2760.28 52.85
1546 41.3080 2803.00 2760.09 52.94
1547 41.3250 2800.00 2759.91 52.92
1548 41.3420 2726.00 2759.73 52.21
1549 41.3590 2774.00 2759.55 52.67
1550 41.3760 2767.00 2759.37 52.60
1551 41.3930 2739.00 2759.19 52.34
1552 41.4100 2709.00 2759.02 52.05
1553 41.4270 2786.00 2758.85 52.78
1554 41.4440 2798.00 2758.68 52.90
1555 41.4610 2815.00 2758.52 53.06
1556 41.4780 2751.00 2758.36 52.45
1557 41.4950 2876.00 2758.21 53.63
1558 41.5120 2774.00 2758.05 52.67
1559 41.5290 2741.00 2757.91 52.35
1560 41.5460 2722.00 2757.76 52.17
1561 41.5630 2793.00 2757.62 52.85
1562 41.5800 2796.00 2757.49 52.88
1563 41.5970 2797.00 2757.36 52.89
1564 41.6140 2792.00 2757.24 52.84
1565 41.6310 2764.00 2757.12 52.57
1566 41.6480 2796.00 2757.01 52.88
1567 41.6650 2782.00 2756.91 52.74
1568 41.6820 2759.00 2756.82 52.53
1569 41.6990 2775.00 2756.73 52.68
1570 41.7160 2779.00 2756.65 52.72
1571 41.7330 2791.00 2756.59 52.83
1572 41.7500 2744.00 2756.53 52.38
1573 41.7670 2665.00 2756.49 51.62
1574 41.7840 2773.00 2756.46 52.66
1575 41.8010 2856.00 2756.44 53.44
1576 41.8180 2785.00 2756.44 52.77
1577 41.8350 2707.00 2756.46 52.03
1578 41.8520 2698.00 2756.50 51.94
1579 41.8690 2738.00 2756.56 52.33
1580 41.8860 2710.00 2756.65 52.06
1581 41.9030 2658.00 2756.77 51.56
1582 41.9200 2728.00 2756.92 52.23
1583 41.9370 2725.00 2757.11 52.20
1584 41.9540 2771.00 2757.34 52.64
1585 41.9710 2775.00 2757.83 52.68
1586 41.9880 2734.00 2758.17 52.29
1587 42.0050 2727.00 2758.58 52.22
1588 42.0220 2835.00 2759.05 53.24
1589 42.0390 2746.00 2759.62 52.40
1590 42.0560 2731.00 2760.30 52.26
1591 42.0730 2799.00 2761.24 52.91
1592 42.0900 2722.00 2762.19 52.17
1593 42.1070 2751.00 2763.39 52.45
1594 42.1240 2751.00 2764.76 52.45
1595 42.1410 2732.00 2766.40 52.27
1596 42.1580 2729.00 2768.40 52.24
1597 42.1750 2789.00 2770.88 52.81
1598 42.1920 2807.00 2774.00 52.98
1599 42.2090 2712.00 2778.02 52.08
1600 42.2260 2662.00 2783.30 51.59
1601 42.2430 2812.00 2790.32 53.03
1602 42.2600 2754.00 2799.71 52.48
1603 42.2770 2823.00 2812.23 53.13
1604 42.2940 2799.00 2828.66 52.91
1605 42.3110 2778.00 2849.72 52.71
1606 42.3280 2824.00 2875.72 53.14
1607 42.3450 2817.00 2906.03 53.08
1608 42.3620 2907.00 2938.15 53.92
1609 42.3790 2890.00 2966.87 53.76
1610 42.3960 2941.00 2985.61 54.23
1611 42.4130 2894.00 2990.52 53.80
1612 42.4300 2961.00 2983.61 54.42
1613 42.4470 3009.00 2970.61 54.85
1614 42.4640 3020.00 2955.89 54.95
1615 42.4810 2891.00 2940.04 53.77
1616 42.4980 2869.00 2921.37 53.56
1617 42.5150 2880.00 2899.12 53.67
1618 42.5320 2774.00 2874.99 52.67
1619 42.5490 2881.00 2851.66 53.67
1620 42.5660 2852.00 2831.10 53.40
1621 42.5830 2802.00 2814.05 52.93
1622 42.6000 2883.00 2800.34 53.69
1623 42.6170 2827.00 2789.68 53.17
1624 42.6340 2893.00 2781.42 53.79
1625 42.6510 2804.00 2775.06 52.95
1626 42.6680 2702.00 2770.12 51.98
1627 42.6850 2818.00 2766.21 53.08
1628 42.7020 2910.00 2763.10 53.94
1629 42.7190 2800.00 2760.55 52.92
1630 42.7360 2791.00 2758.43 52.83
1631 42.7530 2806.00 2756.63 52.97
1632 42.7700 2726.00 2755.07 52.21
1633 42.7870 2730.00 2753.71 52.25
1634 42.8040 2793.00 2752.52 52.85
1635 42.8210 2768.00 2751.45 52.61
1636 42.8380 2747.00 2750.50 52.41
1637 42.8550 2688.00 2749.64 51.85
1638 42.8720 2760.00 2748.86 52.54
1639 42.8890 2783.00 2748.14 52.75
1640 42.9060 2745.00 2747.49 52.39
1641 42.9230 2786.00 2746.88 52.78
1642 42.9400 2738.00 2746.33 52.33
1643 42.9570 2817.00 2745.81 53.08
1644 42.9740 2852.00 2745.32 53.40
1645 42.9910 2758.00 2744.86 52.52
1646 43.0080 2791.00 2744.43 52.83
1647 43.0250 2756.00 2744.03 52.50
1648 43.0420 2811.00 2743.65 53.02
1649 43.0590 2759.00 2743.28 52.53
1650 43.0760 2751.00 2742.94 52.45
1651 43.0930 2761.00 2742.61 52.55
1652 43.1100 2880.00 2742.29 53.67
1653 43.1270 2747.00 2741.99 52.41
1654 43.1440 2713.00 2741.70 52.09
1655 43.1610 2763.00 2741.42 52.56
1656 43.1780 2673.00 2741.15 51.70
1657 43.1950 2733.00 2740.89 52.28
1658 43.2120 2811.00 2740.64 53.02
1659 43.2290 2782.00 2740.40 52.74
1660 43.2460 2656.00 2740.17 51.54
1661 43.2630 2705.00 2739.94 52.01
1662 43.2800 2666.00 2739.73 51.63
1663 43.2970 2735.00 2739.52 52.30
1664 43.3140 2645.00 2739.31 51.43
1665 43.3310 2768.00 2739.11 52.61
1666 43.3480 2792.00 2738.92 52.84
1667 43.3650 2800.00 2738.74 52.92
1668 43.3820 2779.00 2738.56 52.72
1669 43.3990 2726.00 2738.38 52.21
1670 43.4160 2727.00 2738.22 52.22
1671 43.4330 2739.00 2738.05 52.34
1672 43.4500 2780.00 2737.90 52.73
1673 43.4670 2787.00 2737.75 52.79
1674 43.4840 2818.00 2737.60 53.08
1675 43.5010 2839.00 2737.46 53.28
1676 43.5180 2683.00 2737.33 51.80
1677 43.5350 2682.00 2737.21 51.79
1678 43.5520 2758.00 2737.09 52.52
1679 43.5690 2787.00 2736.97 52.79
1680 43.5860 2860.00 2736.87 53.48
1681 43.6030 2761.00 2736.77 52.55
1682 43.6200 2704.00 2736.67 52.00
1683 43.6370 2741.00 2736.59 52.35
1684 43.6540 2769.00 2736.51 52.62
1685 43.6710 2758.00 2736.44 52.52
1686 43.6880 2755.00 2736.38 52.49
1687 43.7050 2648.00 2736.33 51.46
1688 43.7220 2680.00 2736.29 51.77
1689 43.7390 2669.00 2736.27 51.66
1690 43.7560 2665.00 2736.25 51.62
1691 43.7730 2689.00 2736.24 51.86
1692 43.7900 2593.00 2736.25 50.92
1693 43.8070 2618.00 2736.27 51.17
1694 43.8240 2742.00 2736.31 52.36
1695 43.8410 2781.00 2736.37 52.74
1696 43.8580 2801.00 2736.44 52.92
1697 43.8750 2826.00 2736.54 53.16
1698 43.8920 2744.00 2736.65 52.38
1699 43.9090 2754.00 2736.79 52.48
1700 43.9260 2704.00 2736.96 52.00
1701 43.9430 2606.00 2737.16 51.05
1702 43.9600 2683.00 2737.39 51.80
1703 43.9770 2785.00 2737.66 52.77
1704 43.9940 2823.00 2737.96 53.13
1705 44.0110 2794.00 2738.32 52.86
1706 44.0280 2782.00 2738.72 52.74
1707 44.0450 2741.00 2739.89 52.35
1708 44.0620 2761.00 2740.43 52.55
1709 44.0790 2742.00 2741.04 52.36
1710 44.0960 2692.00 2741.74 51.88
1711 44.1130 2679.00 2742.54 51.76
1712 44.1300 2751.00 2743.45 52.45
1713 44.1470 2746.00 2744.84 52.40
1714 44.1640 2706.00 2746.05 52.02
1715 44.1810 2770.00 2747.43 52.63
1716 44.1980 2717.00 2749.02 52.12
1717 44.2150 2679.00 2750.88 51.76
1718 44.2320 2751.00 2753.04 52.45
1719 44.2490 2813.00 2755.57 53.04
1720 44.2660 2801.00 2758.58 52.92
1721 44.2830 2730.00 2762.18 52.25
1722 44.3000 2736.00 2766.55 52.31
1723 44.3170 2718.00 2771.96 52.13
1724 44.3340 2738.00 2778.80 52.33
1725 44.3510 2873.00 2787.61 53.60
1726 44.3680 2862.00 2799.15 53.50
1727 44.3850 2827.00 2814.41 53.17
1728 44.4020 2797.00 2834.56 52.89
1729 44.4190 2915.00 2860.95 53.99
1730 44.4360 2904.00 2894.80 53.89
1731 44.4530 2929.00 2937.02 54.12
1732 44.4700 2964.00 2987.29 54.44
1733 44.4870 2878.00 3042.96 53.65
1734 44.5040 2998.00 3097.42 54.75
1735 44.5210 2966.00 3140.71 54.46
1736 44.5380 2975.00 3164.68 54.54
1737 44.5550 3058.00 3168.67 55.30
1738 44.5720 3046.00 3158.29 55.19
1739 44.5890 3031.00 3139.65 55.05
1740 44.6060 3067.00 3116.01 55.38
1741 44.6230 3037.00 3087.53 55.11
1742 44.6400 2985.00 3053.30 54.64
1743 44.6570 3021.00 3014.32 54.96
1744 44.6740 3038.00 2973.42 55.12
1745 44.6910 3059.00 2933.51 55.31
1746 44.7080 3044.00 2896.90 55.17
1747 44.7250 2941.00 2865.08 54.23
1748 44.7420 2859.00 2838.68 53.47
1749 44.7590 2898.00 2817.46 53.83
1750 44.7760 2830.00 2800.77 53.20
1751 44.7930 2850.00 2787.76 53.39
1752 44.8100 2824.00 2777.64 53.14
1753 44.8270 2794.00 2769.73 52.86
1754 44.8440 2765.00 2763.46 52.58
1755 44.8610 2735.00 2758.42 52.30
1756 44.8780 2696.00 2754.29 51.92
1757 44.8950 2770.00 2750.85 52.63
1758 44.9120 2754.00 2747.84 52.48
1759 44.9290 2756.00 2745.29 52.50
1760 44.9460 2818.00 2743.12 53.08
1761 44.9630 2781.00 2741.23 52.74
1762 44.9800 2801.00 2739.56 52.92
1763 44.9970 2768.00 2738.08 52.61
1764 45.0140 2742.00 2736.72 52.36
1765 45.0310 2679.00 2735.51 51.76
1766 45.0480 2754.00 2734.44 52.48
1767 45.0650 2721.00 2733.48 52.16
1768 45.0820 2724.00 2732.61 52.19
1769 45.0990 2711.00 2731.81 52.07
1770 45.1160 2780.00 2731.08 52.73
1771 45.1330 2669.00 2730.42 51.66
1772 45.1500 2681.00 2729.80 51.78
1773 45.1670 2684.00 2729.24 51.81
1774 45.1840 2722.00 2728.71 52.17
1775 45.2010 2750.00 2728.23 52.44
1776 45.2180 2696.00 2727.78 51.92
1777 45.2350 2733.00 2727.36 52.28
1778 45.2520 2766.00 2726.97 52.59
1779 45.2690 2657.00 2726.61 51.55
1780 45.2860 2619.00 2726.28 51.18
1781 45.3030 2691.00 2725.97 51.87
1782 45.3200 2669.00 2725.67 51.66
1783 45.3370 2729.00 2725.40 52.24
1784 45.3540 2811.00 2725.15 53.02
1785 45.3710 2796.00 2724.91 52.88
1786 45.3880 2730.00 2724.70 52.25
1787 45.4050 2709.00 2724.49 52.05
1788 45.4220 2736.00 2724.31 52.31
1789 45.4390 2737.00 2724.13 52.32
1790 45.4560 2662.00 2723.98 51.59
1791 45.4730 2648.00 2723.83 51.46
1792 45.4900 2633.00 2723.70 51.31
1793 45.5070 2685.00 2723.59 51.82
1794 45.5240 2753.00 2723.48 52.47
1795 45.5410 2759.00 2723.39 52.53
1796 45.5580 2718.00 2723.32 52.13
1797 45.5750 2609.00 2723.25 51.08
1798 45.5920 2704.00 2723.20 52.00
1799 45.6090 2739.00 2723.16 52.34
1800 45.6260 2717.00 2723.14 52.12
1801 45.6430 2707.00 2723.13 52.03
1802 45.6600 2745.00 2723.14 52.39
1803 45.6770 2849.00 2723.16 53.38
1804 45.6940 2816.00 2723.20 53.07
1805 45.7110 2737.00 2723.25 52.32
1806 45.7280 2671.00 2723.32 51.68
1807 45.7450 2710.00 2723.41 52.06
1808 45.7620 2790.00 2723.52 52.82
1809 45.7790 2771.00 2723.64 52.64
1810 45.7960 2724.00 2723.79 52.19
1811 45.8130 2783.00 2723.96 52.75
1812 45.8300 2872.00 2724.15 53.59
1813 45.8470 2692.00 2724.37 51.88
1814 45.8640 2679.00 2724.62 51.76
1815 45.8810 2701.00 2724.90 51.97
1816 45.8980 2574.00 2725.20 50.73
1817 45.9150 2757.00 2725.54 52.51
1818 45.9320 2802.00 2725.92 52.93
1819 45.9490 2874.00 2726.34 53.61
1820 45.9660 2826.00 2726.80 53.16
1821 45.9830 2786.00 2727.31 52.78
1822 46.0000 2771.00 2727.88 52.64
1823 46.0170 2873.00 2728.50 53.60
1824 46.0340 2873.00 2729.18 53.60
1825 46.0510 2769.00 2729.93 52.62
1826 46.0680 2865.00 2730.76 53.53
1827 46.0850 2780.00 2731.68 52.73
1828 46.1020 2824.00 2732.69 53.14
1829 46.1190 2911.00 2733.81 53.95
1830 46.1360 2916.00 2735.04 54.00
1831 46.1530 2870.00 2736.42 53.57
1832 46.1700 2821.00 2737.94 53.11
1833 46.1870 2800.00 2739.64 52.92
1834 46.2040 2814.00 2741.54 53.05
1835 46.2210 2652.00 2743.67 51.50
1836 46.2380 2687.00 2746.06 51.84
1837 46.2550 2769.00 2748.75 52.62
1838 46.2720 2758.00 2751.79 52.52
1839 46.2890 2844.00 2755.24 53.33
1840 46.3060 2790.00 2759.18 52.82
1841 46.3230 2756.00 2763.69 52.50
1842 46.3400 2829.00 2768.89 53.19
1843 46.3570 2813.00 2774.93 53.04
1844 46.3740 2859.00 2781.99 53.47
1845 46.3910 2792.00 2790.33 52.84
1846 46.4080 2864.00 2800.33 53.52
1847 46.4250 2883.00 2812.50 53.69
1848 46.4420 2862.00 2827.62 53.50
1849 46.4590 2783.00 2846.80 52.75
1850 46.4760 2888.00 2871.63 53.74
1851 46.4930 2858.00 2904.21 53.46
1852 46.5100 2949.00 2947.21 54.30
1853 46.5270 3054.00 3003.74 55.26
1854 46.5440 3040.00 3077.07 55.14
1855 46.5610 3179.00 3170.05 56.38
1856 46.5780 3428.00 3284.12 58.55
1857 46.5950 3474.00 3417.18 58.94
1858 46.6120 3578.00 3560.21 59.82
1859 46.6290 3802.00 3692.94 61.66
1860 46.6460 3849.00 3786.43 62.04
1861 46.6630 3859.00 3818.69 62.12
1862 46.6800 3804.00 3793.39 61.68
1863 46.6970 3837.00 3736.22 61.94
1864 46.7140 3710.00 3672.62 60.91
1865 46.7310 3584.00 3612.45 59.87
1866 46.7480 3576.00 3549.72 59.80
1867 46.7650 3549.00 3473.10 59.57
1868 46.7820 3389.00 3379.40 58.22
1869 46.7990 3265.00 3277.16 57.14
1870 46.8160 3216.00 3178.51 56.71
1871 46.8330 3164.00 3091.43 56.25
1872 46.8500 3017.00 3018.77 54.93
1873 46.8670 2920.00 2960.19 54.04
1874 46.8840 2988.00 2913.97 54.66
1875 46.9010 2966.00 2877.99 54.46
1876 46.9180 2752.00 2850.12 52.46
1877 46.9350 2798.00 2828.50 52.90
1878 46.9520 2872.00 2811.56 53.59
1879 46.9690 2810.00 2798.07 53.01
1880 46.9860 2755.00 2787.14 52.49
1881 47.0030 2656.00 2778.10 51.54
1882 47.0200 2765.00 2770.51 52.58
1883 47.0370 2673.00 2764.04 51.70
1884 47.0540 2698.00 2758.47 51.94
1885 47.0710 2688.00 2753.61 51.85
1886 47.0880 2751.00 2749.35 52.45
1887 47.1050 2795.00 2745.38 52.87
1888 47.1220 2753.00 2742.05 52.47
1889 47.1390 2800.00 2739.04 52.92
1890 47.1560 2765.00 2736.34 52.58
1891 47.1730 2645.00 2733.94 51.43
1892 47.1900 2690.00 2731.77 51.87
1893 47.2070 2692.00 2729.70 51.88
1894 47.2240 2719.00 2727.91 52.14
1895 47.2410 2746.00 2726.25 52.40
1896 47.2580 2773.00 2724.73 52.66
1897 47.2750 2666.00 2723.35 51.63
1898 47.2920 2686.00 2722.07 51.83
1899 47.3090 2599.00 2720.90 50.98
1900 47.3260 2740.00 2719.80 52.35
1901 47.3430 2739.00 2718.78 52.34
1902 47.3600 2675.00 2717.84 51.72
1903 47.3770 2745.00 2716.95 52.39
1904 47.3940 2697.00 2716.12 51.93
1905 47.4110 2765.00 2715.34 52.58
1906 47.4280 2718.00 2714.61 52.13
1907 47.4450 2731.00 2713.92 52.26
1908 47.4620 2663.00 2713.27 51.60
1909 47.4790 2706.00 2712.65 52.02
1910 47.4960 2713.00 2712.07 52.09
1911 47.5130 2820.00 2711.51 53.10
1912 47.5300 2855.00 2710.99 53.43
1913 47.5470 2860.00 2710.49 53.48
1914 47.5640 2702.00 2710.01 51.98
1915 47.5810 2836.00 2709.55 53.25
1916 47.5980 2840.00 2709.12 53.29
1917 47.6150 2768.00 2708.70 52.61
1918 47.6320 2722.00 2708.30 52.17
1919 47.6490 2753.00 2707.92 52.47
1920 47.6660 2824.00 2707.55 53.14
1921 47.6830 2763.00 2707.19 52.56
1922 47.7000 2779.00 2706.85 52.72
1923 47.7170 2783.00 2706.52 52.75
1924 47.7340 2737.00 2706.21 52.32
1925 47.7510 2730.00 2705.90 52.25
1926 47.7680 2770.00 2705.60 52.63
1927 47.7850 2714.00 2705.32 52.10
1928 47.8020 2645.00 2705.04 51.43
1929 47.8190 2699.00 2704.77 51.95
1930 47.8360 2705.00 2704.51 52.01
1931 47.8530 2724.00 2704.26 52.19
1932 47.8700 2665.00 2704.01 51.62
1933 47.8870 2673.00 2703.77 51.70
1934 47.9040 2678.00 2703.54 51.75
1935 47.9210 2683.00 2703.31 51.80
1936 47.9380 2734.00 2703.17 52.29
1937 47.9550 2719.00 2702.96 52.14
1938 47.9720 2682.00 2702.75 51.79
1939 47.9890 2680.00 2702.54 51.77
1940 48.0060 2744.00 2702.34 52.38
1941 48.0230 2670.00 2702.15 51.67
1942 48.0400 2702.00 2702.05 51.98
1943 48.0570 2718.00 2701.90 52.13
1944 48.0740 2743.00 2701.72 52.37
1945 48.0910 2748.00 2701.54 52.42
1946 48.1080 2910.00 2701.37 53.94
1947 48.1250 2727.00 2701.20 52.22
1948 48.1420 2780.00 2701.04 52.73
1949 48.1590 2734.00 2700.88 52.29
1950 48.1760 2778.00 2700.72 52.71
1951 48.1930 2650.00 2700.57 51.48
1952 48.2100 2676.00 2700.42 51.73
1953 48.2270 2709.00 2700.27 52.05
1954 48.2440 2587.00 2700.13 50.86
1955 48.2610 2700.00 2699.99 51.96
1956 48.2780 2713.00 2699.86 52.09
1957 48.2950 2667.00 2699.73 51.64
1958 48.3120 2724.00 2699.60 52.19
1959 48.3290 2744.00 2699.48 52.38
1960 48.3460 2710.00 2699.36 52.06
1961 48.3630 2681.00 2699.25 51.78
1962 48.3800 2704.00 2699.14 52.00
1963 48.3970 2613.00 2699.04 51.12
1964 48.4140 2763.00 2698.95 52.56
1965 48.4310 2818.00 2698.87 53.08
1966 48.4480 2726.00 2698.81 52.21
1967 48.4650 2725.00 2698.76 52.20
1968 48.4820 2733.00 2698.74 52.28
1969 48.4990 2718.00 2698.76 52.13
1970 48.5160 2656.00 2698.82 51.54
1971 48.5330 2606.00 2698.93 51.05
1972 48.5500 2633.00 2699.11 51.31
1973 48.5670 2625.00 2699.36 51.23
1974 48.5840 2616.00 2699.67 51.15
1975 48.6010 2699.00 2700.04 51.95
1976 48.6180 2661.00 2700.40 51.58
1977 48.6350 2615.00 2700.68 51.14
1978 48.6520 2675.00 2700.77 51.72
1979 48.6690 2752.00 2700.65 52.46
1980 48.6860 2775.00 2700.38 52.68
1981 48.7030 2741.00 2700.06 52.35
1982 48.7200 2680.00 2699.75 51.77
1983 48.7370 2689.00 2699.45 51.86
1984 48.7540 2677.00 2699.14 51.74
1985 48.7710 2648.00 2698.77 51.46
1986 48.7880 2743.00 2698.35 52.37
1987 48.8050 2692.00 2697.91 51.88
1988 48.8220 2651.00 2697.49 51.49
1989 48.8390 2710.00 2697.11 52.06
1990 48.8560 2725.00 2696.78 52.20
1991 48.8730 2853.00 2696.49 53.41
1992 48.8900 2813.00 2696.25 53.04
1993 48.9070 2688.00 2696.04 51.85
1994 48.9240 2708.00 2695.86 52.04
1995 48.9410 2697.00 2695.70 51.93
1996 48.9580 2780.00 2695.55 52.73
1997 48.9750 2799.00 2695.42 52.91
1998 48.9920 2776.00 2695.30 52.69
1999 49.0090 2662.00 2695.18 51.59
2000 49.0260 2658.00 2695.07 51.56
2001 49.0430 2704.00 2694.97 52.00
2002 49.0600 2802.00 2694.87 52.93
2003 49.0770 2815.00 2694.77 53.06
2004 49.0940 2806.00 2694.68 52.97
2005 49.1110 2763.00 2694.59 52.56
2006 49.1280 2815.00 2694.50 53.06
2007 49.1450 2703.00 2694.41 51.99
2008 49.1620 2608.00 2694.32 51.07
2009 49.1790 2665.00 2694.24 51.62
2010 49.1960 2642.00 2694.16 51.40
2011 49.2130 2701.00 2694.08 51.97
2012 49.2300 2693.00 2694.01 51.89
2013 49.2470 2739.00 2693.93 52.34
2014 49.2640 2849.00 2693.86 53.38
2015 49.2810 2752.00 2693.09 52.46
2016 49.2980 2694.00 2693.03 51.90
2017 49.3150 2837.00 2692.97 53.26
2018 49.3320 2695.00 2692.91 51.91
2019 49.3490 2655.00 2692.85 51.53
2020 49.3660 2659.00 2692.79 51.57
2021 49.3830 2645.00 2692.39 51.43
2022 49.4000 2620.00 2692.34 51.19
2023 49.4170 2721.00 2692.30 52.16
2024 49.4340 2790.00 2692.25 52.82
2025 49.4510 2725.00 2692.21 52.20
2026 49.4680 2663.00 2692.16 51.60
2027 49.4850 2643.00 2692.12 51.41
2028 49.5020 2713.00 2692.08 52.09
2029 49.5190 2799.00 2692.04 52.91
2030 49.5360 2816.00 2692.01 53.07
2031 49.5530 2731.00 2691.97 52.26
2032 49.5700 2826.00 2691.94 53.16
2033 49.5870 2705.00 2691.91 52.01
2034 49.6040 2663.00 2691.88 51.60
2035 49.6210 2667.00 2691.85 51.64
2036 49.6380 2737.00 2691.83 52.32
2037 49.6550 2704.00 2691.81 52.00
2038 49.6720 2599.00 2691.79 50.98
2039 49.6890 2711.00 2691.77 52.07
2040 49.7060 2691.00 2691.76 51.87
2041 49.7230 2730.00 2691.75 52.25
2042 49.7400 2768.00 2691.74 52.61
2043 49.7570 2695.00 2691.74 51.91
2044 49.7740 2755.00 2691.74 52.49
2045 49.7910 2740.00 2691.74 52.35
2046 49.8080 2677.00 2691.75 51.74
2047 49.8250 2777.00 2691.76 52.70
2048 49.8420 2713.00 2691.78 52.09
2049 49.8590 2700.00 2691.81 51.96
2050 49.8760 2731.00 2691.83 52.26
2051 49.8930 2730.00 2691.87 52.25
2052 49.9100 2718.00 2691.91 52.13
2053 49.9270 2686.00 2691.96 51.83
2054 49.9440 2627.00 2692.02 51.25
2055 49.9610 2725.00 2692.08 52.20
2056 49.9780 2712.00 2692.16 52.08
2057 49.9950 2747.00 2692.25 52.41
2058 50.0120 2779.00 2692.34 52.72
2059 50.0290 2810.00 2692.45 53.01
2060 50.0460 2722.00 2692.58 52.17
2061 50.0630 2673.00 2692.72 51.70
2062 50.0800 2686.00 2692.87 51.83
2063 50.0970 2664.00 2693.05 51.61
2064 50.1140 2660.00 2693.25 51.58
2065 50.1310 2724.00 2693.47 52.19
2066 50.1480 2703.00 2693.72 51.99
2067 50.1650 2676.00 2694.00 51.73
2068 50.1820 2670.00 2694.31 51.67
2069 50.1990 2783.00 2694.67 52.75
2070 50.2160 2720.00 2695.07 52.15
2071 50.2330 2644.00 2695.52 51.42
2072 50.2500 2758.00 2696.04 52.52
2073 50.2670 2701.00 2696.62 51.97
2074 50.2840 2582.00 2697.29 50.81
2075 50.3010 2729.00 2698.06 52.24
2076 50.3180 2630.00 2698.94 51.28
2077 50.3350 2563.00 2699.97 50.63
2078 50.3520 2637.00 2701.16 51.35
2079 50.3690 2621.00 2702.57 51.20
2080 50.3860 2596.00 2704.24 50.95
2081 50.4030 2617.00 2706.27 51.16
2082 50.4200 2720.00 2708.76 52.15
2083 50.4370 2666.00 2711.89 51.63
2084 50.4540 2691.00 2715.88 51.87
2085 50.4710 2719.00 2721.07 52.14
2086 50.4880 2759.00 2727.85 52.53
2087 50.5050 2709.00 2736.71 52.05
2088 50.5220 2732.00 2748.18 52.27
2089 50.5390 2751.00 2762.78 52.45
2090 50.5560 2661.00 2780.87 51.58
2091 50.5730 2627.00 2802.47 51.25
2092 50.5900 2716.00 2826.82 52.12
2093 50.6070 2793.00 2851.79 52.85
2094 50.6240 2849.00 2873.50 53.38
2095 50.6410 2893.00 2887.34 53.79
2096 50.6580 2790.00 2890.63 52.82
2097 50.6750 2779.00 2884.78 52.72
2098 50.6920 2782.00 2874.12 52.74
2099 50.7090 2801.00 2862.74 52.92
2100 50.7260 2862.00 2852.41 53.50
2101 50.7430 2743.00 2842.43 52.37
2102 50.7600 2830.00 2830.84 53.20
2103 50.7770 2784.00 2816.34 52.76
2104 50.7940 2732.00 2799.47 52.27
2105 50.8110 2756.00 2782.03 52.50
2106 50.8280 2752.00 2765.74 52.46
2107 50.8450 2873.00 2751.56 53.60
2108 50.8620 2833.00 2739.74 53.23
2109 50.8790 2658.00 2730.18 51.56
2110 50.8960 2645.00 2722.58 51.43
2111 50.9130 2647.00 2716.61 51.45
2112 50.9300 2663.00 2711.94 51.60
2113 50.9470 2715.00 2708.27 52.11
2114 50.9640 2694.00 2705.37 51.90
2115 50.9810 2663.00 2703.03 51.60
2116 50.9980 2647.00 2701.11 51.45
2117 51.0150 2691.00 2699.51 51.87
2118 51.0320 2624.00 2698.16 51.22
2119 51.0490 2616.00 2697.00 51.15
2120 51.0660 2576.00 2695.99 50.75
2121 51.0830 2656.00 2695.10 51.54
2122 51.1000 2692.00 2694.32 51.88
2123 51.1170 2687.00 2693.63 51.84
2124 51.1340 2762.00 2693.01 52.55
2125 51.1510 2666.00 2692.45 51.63
2126 51.1680 2613.00 2691.94 51.12
2127 51.1850 2598.00 2691.49 50.97
2128 51.2020 2699.00 2691.07 51.95
2129 51.2190 2763.00 2690.69 52.56
2130 51.2360 2743.00 2690.34 52.37
2131 51.2530 2651.00 2690.02 51.49
2132 51.2700 2704.00 2689.72 52.00
2133 51.2870 2730.00 2689.45 52.25
2134 51.3040 2628.00 2689.19 51.26
2135 51.3210 2729.00 2688.95 52.24
2136 51.3380 2713.00 2688.73 52.09
2137 51.3550 2744.00 2688.52 52.38
2138 51.3720 2739.00 2688.33 52.34
2139 51.3890 2702.00 2688.14 51.98
2140 51.4060 2630.00 2687.97 51.28
2141 51.4230 2666.00 2687.81 51.63
2142 51.4400 2599.00 2687.65 50.98
2143 51.4570 2595.00 2687.50 50.94
2144 51.4740 2624.00 2687.36 51.22
2145 51.4910 2666.00 2687.23 51.63
2146 51.5080 2724.00 2687.11 52.19
2147 51.5250 2667.00 2686.98 51.64
2148 51.5420 2689.00 2686.87 51.86
2149 51.5590 2633.00 2690.32 51.31
2150 51.5760 2655.00 2690.26 51.53
2151 51.5930 2669.00 2690.20 51.66
2152 51.6100 2712.00 2690.15 52.08
2153 51.6270 2693.00 2690.10 51.89
2154 51.6440 2643.00 2690.06 51.41
2155 51.6610 2674.00 2690.02 51.71
2156 51.6780 2682.00 2689.98 51.79
2157 51.6950 2716.00 2695.57 52.12
2158 51.7120 2662.00 2695.61 51.59
2159 51.7290 2654.00 2695.66 51.52
2160 51.7460 2594.00 2701.67 50.93
2161 51.7630 2618.00 2701.80 51.17
2162 51.7800 2682.00 2703.86 51.79
2163 51.7970 2747.00 2704.02 52.41
2164 51.8140 2669.00 2704.19 51.66
2165 51.8310 2695.00 2704.37 51.91
2166 51.8480 2643.00 2704.56 51.41
2167 51.8650 2523.00 2704.75 50.23
2168 51.8820 2669.00 2704.94 51.66
2169 51.8990 2737.00 2705.15 52.32
2170 51.9160 2687.00 2705.36 51.84
2171 51.9330 2609.00 2705.58 51.08
2172 51.9500 2620.00 2705.80 51.19
2173 51.9670 2711.00 2706.03 52.07
2174 51.9840 2709.00 2706.27 52.05
2175 52.0010 2653.00 2706.52 51.51
2176 52.0180 2665.00 2706.77 51.62
2177 52.0350 2655.00 2707.03 51.53
2178 52.0520 2597.00 2707.30 50.96
2179 52.0690 2659.00 2707.57 51.57
2180 52.0860 2680.00 2707.86 51.77
2181 52.1030 2692.00 2708.15 51.88
2182 52.1200 2677.00 2708.45 51.74
2183 52.1370 2710.00 2708.75 52.06
2184 52.1540 2650.00 2709.07 51.48
2185 52.1710 2670.00 2709.40 51.67
2186 52.1880 2730.00 2709.73 52.25
2187 52.2050 2669.00 2710.08 51.66
2188 52.2220 2705.00 2710.43 52.01
2189 52.2390 2560.00 2710.79 50.60
2190 52.2560 2794.00 2711.16 52.86
2191 52.2730 2757.00 2711.55 52.51
2192 52.2900 2699.00 2711.94 51.95
2193 52.3070 2681.00 2712.35 51.78
2194 52.3240 2596.00 2712.76 50.95
2195 52.3410 2624.00 2713.19 51.22
2196 52.3580 2625.00 2713.63 51.23
2197 52.3750 2679.00 2714.08 51.76
2198 52.3920 2687.00 2714.54 51.84
2199 52.4090 2544.00 2715.02 50.44
2200 52.4260 2649.00 2715.51 51.47
2201 52.4430 2748.00 2716.02 52.42
2202 52.4600 2677.00 2716.53 51.74
2203 52.4770 2699.00 2717.07 51.95
2204 52.4940 2723.00 2717.62 52.18
2205 52.5110 2691.00 2718.18 51.87
2206 52.5280 2706.00 2718.76 52.02
2207 52.5450 2676.00 2719.36 51.73
2208 52.5620 2692.00 2719.97 51.88
2209 52.5790 2734.00 2720.61 52.29
2210 52.5960 2727.00 2721.26 52.22
2211 52.6130 2663.00 2721.93 51.60
2212 52.6300 2698.00 2722.62 51.94
2213 52.6470 2722.00 2723.33 52.17
2214 52.6640 2793.00 2724.06 52.85
2215 52.6810 2724.00 2724.82 52.19
2216 52.6980 2679.00 2725.60 51.76
2217 52.7150 2708.00 2726.40 52.04
2218 52.7320 2732.00 2727.23 52.27
2219 52.7490 2708.00 2728.08 52.04
2220 52.7660 2600.00 2728.96 50.99
2221 52.7830 2652.00 2729.87 51.50
2222 52.8000 2666.00 2730.81 51.63
2223 52.8170 2690.00 2731.78 51.87
2224 52.8340 2693.00 2732.78 51.89
2225 52.8510 2595.00 2733.81 50.94
2226 52.8680 2747.00 2734.88 52.41
2227 52.8850 2798.00 2735.98 52.90
2228 52.9020 2794.00 2737.12 52.86
2229 52.9190 2748.00 2738.30 52.42
2230 52.9360 2755.00 2739.53 52.49
2231 52.9530 2729.00 2740.79 52.24
2232 52.9700 2762.00 2742.10 52.55
2233 52.9870 2756.00 2743.46 52.50
2234 53.0040 2697.00 2744.86 51.93
2235 53.0210 2788.00 2746.32 52.80
2236 53.0380 2807.00 2747.83 52.98
2237 53.0550 2655.00 2749.39 51.53
2238 53.0720 2715.00 2751.02 52.11
2239 53.0890 2678.00 2752.71 51.75
2240 53.1060 2710.00 2754.46 52.06
2241 53.1230 2743.00 2756.28 52.37
2242 53.1400 2695.00 2758.18 51.91
2243 53.1570 2770.00 2760.14 52.63
2244 53.1740 2779.00 2762.19 52.72
2245 53.1910 2742.00 2764.33 52.36
2246 53.2080 2821.00 2766.55 53.11
2247 53.2250 2678.00 2768.87 51.75
2248 53.2420 2702.00 2771.29 51.98
2249 53.2590 2788.00 2773.81 52.80
2250 53.2760 2797.00 2776.44 52.89
2251 53.2930 2785.00 2779.19 52.77
2252 53.3100 2872.00 2782.07 53.59
2253 53.3270 2896.00 2785.08 53.81
2254 53.3440 2857.00 2788.22 53.45
2255 53.3610 2889.00 2791.44 53.75
2256 53.3780 2950.00 2794.85 54.31
2257 53.3950 2860.00 2798.48 53.48
2258 53.4120 2707.00 2802.29 52.03
2259 53.4290 2889.00 2806.28 53.75
2260 53.4460 2856.00 2810.49 53.44
2261 53.4630 2935.00 2814.91 54.18
2262 53.4800 2934.00 2819.54 54.17
2263 53.4970 2914.00 2824.43 53.98
2264 53.5140 2928.00 2829.61 54.11
2265 53.5310 2935.00 2835.09 54.18
2266 53.5480 2927.00 2840.88 54.10
2267 53.5650 2956.00 2847.01 54.37
2268 53.5820 2837.00 2853.50 53.26
2269 53.5990 2860.00 2860.38 53.48
2270 53.6160 2916.00 2867.69 54.00
2271 53.6330 2877.00 2875.46 53.64
2272 53.6500 2977.00 2883.73 54.56
2273 53.6670 2968.00 2892.55 54.48
2274 53.6840 2933.00 2901.96 54.16
2275 53.7010 2959.00 2912.03 54.40
2276 53.7180 2975.00 2922.80 54.54
2277 53.7350 2966.00 2934.35 54.46
2278 53.7520 3004.00 2946.76 54.81
2279 53.7690 3012.00 2960.11 54.88
2280 53.7860 2966.00 2974.51 54.46
2281 53.8030 3011.00 2990.05 54.87
2282 53.8200 2924.00 3006.88 54.07
2283 53.8370 3011.00 3025.13 54.87
2284 53.8540 3056.00 3044.97 55.28
2285 53.8710 3115.00 3066.59 55.81
2286 53.8880 3106.00 3090.21 55.73
2287 53.9050 3194.00 3116.09 56.52
2288 53.9220 3213.00 3144.51 56.68
2289 53.9390 3233.00 3175.84 56.86
2290 53.9560 3320.00 3210.47 57.62
2291 53.9730 3368.00 3248.90 58.03
2292 53.9900 3356.00 3291.68 57.93
2293 54.0070 3564.00 3339.53 59.70
2294 54.0240 3536.00 3393.26 59.46
2295 54.0410 3514.00 3453.90 59.28
2296 54.0580 3688.00 3522.77 60.73
2297 54.0750 3850.00 3601.43 62.05
2298 54.0920 3913.00 3692.09 62.55
2299 54.1090 4114.00 3797.53 64.14
2300 54.1260 4162.00 3921.77 64.51
2301 54.1430 4227.00 4070.15 65.02
2302 54.1600 4399.00 4250.30 66.32
2303 54.1770 4753.00 4472.50 68.94
2304 54.1940 5038.00 4750.50 70.98
2305 54.2110 5316.00 5102.02 72.91
2306 54.2280 5518.00 5548.80 74.28
2307 54.2450 6141.00 6116.74 78.36
2308 54.2620 6659.00 6833.30 81.60
2309 54.2790 7558.00 7725.95 86.94
2310 54.2960 8297.00 8812.66 91.09
2311 54.3130 9613.00 10091.30 98.05
2312 54.3300 10984.00 11519.00 104.81
2313 54.3470 12517.00 13003.90 111.88
2314 54.3640 14484.00 14431.60 120.35
2315 54.3810 16451.00 15723.50 128.26
2316 54.3980 17839.00 16851.00 133.56
2317 54.4150 18965.00 17769.90 137.71
2318 54.4320 19369.00 18373.10 139.17
2319 54.4490 19075.00 18540.70 138.11
2320 54.4660 17940.00 18233.80 133.94
2321 54.4830 17027.00 17532.00 130.49
2322 54.5000 16382.00 16594.20 127.99
2323 54.5170 15586.00 15582.60 124.84
2324 54.5340 14912.00 14593.90 122.11
2325 54.5510 14140.00 13631.80 118.91
2326 54.5680 13094.00 12640.00 114.43
2327 54.5850 11726.00 11571.00 108.29
2328 54.6020 10322.00 10437.20 101.60
2329 54.6190 9240.00 9303.23 96.12
2330 54.6360 8094.00 8246.65 89.97
2331 54.6530 7215.00 7317.78 84.94
2332 54.6700 6442.00 6534.58 80.26
2333 54.6870 5906.00 5892.00 76.85
2334 54.7040 5513.00 5373.91 74.25
2335 54.7210 5158.00 4960.50 71.82
2336 54.7380 4657.00 4632.06 68.24
2337 54.7550 4519.00 4370.79 67.22
2338 54.7720 4271.00 4161.40 65.35
2339 54.7890 4113.00 3991.78 64.13
2340 54.8060 3915.00 3852.29 62.57
2341 54.8230 3875.00 3735.84 62.25
2342 54.8400 3732.00 3637.18 61.09
2343 54.8570 3574.00 3552.50 59.78
2344 54.8740 3485.00 3479.04 59.03
2345 54.8910 3423.00 3414.75 58.51
2346 54.9080 3338.00 3358.07 57.78
2347 54.9250 3321.00 3307.81 57.63
2348 54.9420 3327.00 3263.02 57.68
2349 54.9590 3264.00 3222.91 57.13
2350 54.9760 3102.00 3186.84 55.70
2351 54.9930 3123.00 3154.29 55.88
2352 55.0100 3122.00 3124.81 55.87
2353 55.0270 3135.00 3098.03 55.99
2354 55.0440 2995.00 3073.62 54.73
2355 55.0610 3048.00 3051.31 55.21
2356 55.0780 3108.00 3030.87 55.75
2357 55.0950 3141.00 3012.09 56.04
2358 55.1120 2998.00 2994.80 54.75
2359 55.1290 3032.00 2978.84 55.06
2360 55.1460 3051.00 2964.07 55.24
2361 55.1630 2998.00 2950.39 54.75
2362 55.1800 3019.00 2937.69 54.95
2363 55.1970 2950.00 2925.87 54.31
2364 55.2140 3012.00 2914.86 54.88
2365 55.2310 3044.00 2904.58 55.17
2366 55.2480 3082.00 2894.97 55.52
2367 55.2650 2968.00 2885.98 54.48
2368 55.2820 2929.00 2877.54 54.12
2369 55.2990 2884.00 2869.62 53.70
2370 55.3160 2915.00 2862.18 53.99
2371 55.3330 2883.00 2855.17 53.69
2372 55.3500 2841.00 2848.57 53.30
2373 55.3670 2894.00 2842.34 53.80
2374 55.3840 2729.00 2836.46 52.24
2375 55.4010 2805.00 2830.89 52.96
2376 55.4180 2784.00 2825.63 52.76
2377 55.4350 2801.00 2820.64 52.92
2378 55.4520 2832.00 2815.91 53.22
2379 55.4690 2858.00 2811.42 53.46
2380 55.4860 2849.00 2807.15 53.38
2381 55.5030 2889.00 2803.09 53.75
2382 55.5200 2859.00 2799.23 53.47
2383 55.5370 2865.00 2795.56 53.53
2384 55.5540 2795.00 2792.05 52.87
2385 55.5710 2795.00 2788.71 52.87
2386 55.5880 2884.00 2785.52 53.70
2387 55.6050 2818.00 2782.48 53.08
2388 55.6220 2739.00 2779.57 52.34
2389 55.6390 2795.00 2776.79 52.87
2390 55.6560 2802.00 2774.12 52.93
2391 55.6730 2732.00 2771.58 52.27
2392 55.6900 2749.00 2769.13 52.43
2393 55.7070 2800.00 2766.80 52.92
2394 55.7240 2826.00 2764.55 53.16
2395 55.7410 2834.00 2762.40 53.24
2396 55.7580 2821.00 2760.34 53.11
2397 55.7750 2816.00 2758.36 53.07
2398 55.7920 2850.00 2756.46 53.39
2399 55.8090 2879.00 2754.63 53.66
2400 55.8260 2745.00 2752.88 52.39
2401 55.8430 2740.00 2751.19 52.35
2402 55.8600 2711.00 2749.57 52.07
2403 55.8770 2622.00 2748.02 51.21
2404 55.8940 2661.00 2746.53 51.58
2405 55.9110 2727.00 2745.10 52.22
2406 55.9280 2713.00 2743.73 52.09
2407 55.9450 2644.00 2742.41 51.42
2408 55.9620 2782.00 2741.16 52.74
2409 55.9790 2766.00 2739.96 52.59
2410 55.9960 2710.00 2738.83 52.06
2411 56.0130 2738.00 2737.76 52.33
2412 56.0300 2715.00 2736.76 52.11
2413 56.0470 2675.00 2735.84 51.72
2414 56.0640 2677.00 2735.03 51.74
2415 56.0810 2800.00 2734.32 52.92
2416 56.0980 2809.00 2733.75 53.00
2417 56.1150 2752.00 2733.33 52.46
2418 56.1320 2770.00 2733.09 52.63
2419 56.1490 2825.00 2733.05 53.15
2420 56.1660 2693.00 2733.21 51.89
2421 56.1830 2815.00 2733.54 53.06
2422 56.2000 2714.00 2733.96 52.10
2423 56.2170 2701.00 2734.31 51.97
2424 56.2340 2772.00 2734.38 52.65
2425 56.2510 2717.00 2733.98 52.12
2426 56.2680 2760.00 2733.08 52.54
2427 56.2850 2789.00 2731.85 52.81
2428 56.3020 2658.00 2730.52 51.56
2429 56.3190 2772.00 2729.25 52.65
2430 56.3360 2788.00 2728.11 52.80
2431 56.3530 2663.00 2727.04 51.60
2432 56.3700 2746.00 2725.93 52.40
2433 56.3870 2663.00 2724.71 51.60
2434 56.4040 2659.00 2723.34 51.57
2435 56.4210 2686.00 2721.91 51.83
2436 56.4380 2673.00 2720.51 51.70
2437 56.4550 2696.00 2719.20 51.92
2438 56.4720 2653.00 2718.02 51.51
2439 56.4890 2719.00 2716.95 52.14
2440 56.5060 2701.00 2716.00 51.97
2441 56.5230 2732.00 2715.14 52.27
2442 56.5400 2722.00 2714.38 52.17
2443 56.5570 2638.00 2713.68 51.36
2444 56.5740 2648.00 2713.04 51.46
2445 56.5910 2676.00 2712.45 51.73
2446 56.6080 2749.00 2711.89 52.43
2447 56.6250 2717.00 2711.37 52.12
2448 56.6420 2660.00 2710.87 51.58
2449 56.6590 2805.00 2710.39 52.96
2450 56.6760 2725.00 2709.94 52.20
2451 56.6930 2722.00 2709.49 52.17
2452 56.7100 2825.00 2709.07 53.15
2453 56.7270 2791.00 2708.66 52.83
2454 56.7440 2732.00 2708.26 52.27
2455 56.7610 2737.00 2707.87 52.32
2456 56.7780 2671.00 2707.49 51.68
2457 56.7950 2706.00 2707.13 52.02
2458 56.8120 2714.00 2706.79 52.10
2459 56.8290 2722.00 2706.45 52.17
2460 56.8460 2742.00 2706.11 52.36
2461 56.8630 2661.00 2705.78 51.58
2462 56.8800 2683.00 2705.47 51.80
2463 56.8970 2670.00 2705.15 51.67
2464 56.9140 2763.00 2704.85 52.56
2465 56.9310 2675.00 2704.55 51.72
2466 56.9480 2728.00 2704.32 52.23
2467 56.9650 2680.00 2704.08 51.77
2468 56.9820 2576.00 2703.82 50.75
2469 56.9990 2675.00 2703.55 51.72
2470 57.0160 2644.00 2703.29 51.42
2471 57.0330 2687.00 2703.03 51.84
2472 57.0500 2683.00 2702.78 51.80
2473 57.0670 2723.00 2702.54 52.18
2474 57.0840 2703.00 2702.30 51.99
2475 57.1010 2657.00 2702.07 51.55
2476 57.1180 2741.00 2701.84 52.35
2477 57.1350 2632.00 2701.62 51.30
2478 57.1520 2611.00 2701.40 51.10
2479 57.1690 2685.00 2701.18 51.82
2480 57.1860 2666.00 2697.46 51.63
2481 57.2030 2585.00 2697.29 50.84
2482 57.2200 2730.00 2697.13 52.25
2483 57.2370 2584.00 2696.98 50.83
2484 57.2540 2686.00 2693.23 51.83
2485 57.2710 2630.00 2689.26 51.28
2486 57.2880 2573.00 2689.21 50.72
2487 57.3050 2610.00 2687.40 51.09
2488 57.3220 2583.00 2687.37 50.82
2489 57.3390 2618.00 2687.34 51.17
2490 57.3560 2652.00 2687.31 51.50
2491 57.3730 2760.00 2685.49 52.54
2492 57.3900 2635.00 2685.48 51.33
2493 57.4070 2621.00 2683.58 51.20
2494 57.4240 2672.00 2683.59 51.69
2495 57.4410 2733.00 2683.61 52.28
2496 57.4580 2640.00 2683.63 51.38
2497 57.4750 2646.00 2683.65 51.44
2498 57.4920 2689.00 2683.67 51.86
2499 57.5090 2668.00 2683.69 51.65
2500 57.5260 2572.00 2683.71 50.71
2501 57.5430 2554.00 2683.73 50.54
2502 57.5600 2638.00 2683.76 51.36
2503 57.5770 2716.00 2683.78 52.12
2504 57.5940 2640.00 2683.80 51.38
2505 57.6110 2626.00 2683.83 51.24
2506 57.6280 2694.00 2683.86 51.90
2507 57.6450 2730.00 2683.88 52.25
2508 57.6620 2716.00 2683.91 52.12
2509 57.6790 2675.00 2683.94 51.72
2510 57.6960 2643.00 2683.98 51.41
2511 57.7130 2724.00 2684.01 52.19
2512 57.7300 2641.00 2684.05 51.39
2513 57.7470 2718.00 2684.09 52.13
2514 57.7640 2749.00 2684.14 52.43
2515 57.7810 2727.00 2684.19 52.22
2516 57.7980 2641.00 2684.25 51.39
2517 57.8150 2691.00 2684.31 51.87
2518 57.8320 2670.00 2684.39 51.67
2519 57.8490 2683.00 2684.49 51.80
2520 57.8660 2681.00 2684.61 51.78
2521 57.8830 2650.00 2684.75 51.48
2522 57.9000 2564.00 2684.93 50.64
2523 57.9170 2703.00 2685.15 51.99
2524 57.9340 2685.00 2685.42 51.82
2525 57.9510 2678.00 2685.73 51.75
2526 57.9680 2689.00 2686.09 51.86
2527 57.9850 2712.00 2686.49 52.08
2528 58.0020 2576.00 2686.91 50.75
2529 58.0190 2526.00 2687.29 50.26
2530 58.0360 2682.00 2687.59 51.79
2531 58.0530 2671.00 2687.73 51.68
2532 58.0700 2623.00 2687.71 51.22
2533 58.0870 2725.00 2687.57 52.20
2534 58.1040 2674.00 2687.38 51.71
2535 58.1210 2744.00 2687.21 52.38
2536 58.1380 2694.00 2687.07 51.90
2537 58.1550 2633.00 2686.96 51.31
2538 58.1720 2676.00 2686.84 51.73
2539 58.1890 2729.00 2686.69 52.24
2540 58.2060 2632.00 2686.49 51.30
2541 58.2230 2581.00 2686.25 50.80
2542 58.2400 2641.00 2686.00 51.39
2543 58.2570 2683.00 2685.78 51.80
2544 58.2740 2728.00 2685.58 52.23
2545 58.2910 2672.00 2685.42 51.69
2546 58.3080 2650.00 2685.29 51.48
2547 58.3250 2645.00 2685.19 51.43
2548 58.3420 2678.00 2685.12 51.75
2549 58.3590 2713.00 2685.07 52.09
2550 58.3760 2673.00 2685.03 51.70
2551 58.3930 2663.00 2685.01 51.60
2552 58.4100 2621.00 2685.00 51.20
2553 58.4270 2645.00 2684.99 51.43
2554 58.4440 2690.00 2684.99 51.87
2555 58.4610 2688.00 2686.08 51.85
2556 58.4780 2712.00 2686.10 52.08
2557 58.4950 2757.00 2686.12 52.51
2558 58.5120 2751.00 2686.15 52.45
2559 58.5290 2694.00 2686.18 51.90
2560 58.5460 2702.00 2686.22 51.98
2561 58.5630 2763.00 2686.25 52.56
2562 58.5800 2706.00 2686.29 52.02
2563 58.5970 2635.00 2690.75 51.33
2564 58.6140 2696.00 2690.84 51.92
2565 58.6310 2733.00 2690.94 52.28
2566 58.6480 2705.00 2693.34 52.01
2567 58.6650 2775.00 2697.66 52.68
2568 58.6820 2745.00 2698.50 52.39
2569 58.6990 2715.00 2698.70 52.11
2570 58.7160 2723.00 2698.90 52.18
2571 58.7330 2661.00 2699.10 51.58
2572 58.7500 2842.00 2699.31 53.31
2573 58.7670 2812.00 2699.52 53.03
2574 58.7840 2680.00 2699.74 51.77
2575 58.8010 2683.00 2699.96 51.80
2576 58.8180 2620.00 2700.19 51.19
2577 58.8350 2661.00 2700.42 51.58
2578 58.8520 2658.00 2700.66 51.56
2579 58.8690 2658.00 2700.91 51.56
2580 58.8860 2634.00 2701.16 51.32
2581 58.9030 2711.00 2701.41 52.07
2582 58.9200 2737.00 2701.68 52.32
2583 58.9370 2577.00 2701.95 50.76
2584 58.9540 2609.00 2702.23 51.08
2585 58.9710 2658.00 2702.51 51.56
2586 58.9880 2580.00 2702.81 50.79
2587 59.0050 2717.00 2703.11 52.12
2588 59.0220 2604.00 2703.42 51.03
2589 59.0390 2645.00 2703.74 51.43
2590 59.0560 2609.00 2704.07 51.08
2591 59.0730 2619.00 2704.41 51.18
2592 59.0900 2726.00 2704.77 52.21
2593 59.1070 2696.00 2705.12 51.92
2594 59.1240 2619.00 2705.50 51.18
2595 59.1410 2633.00 2705.89 51.31
2596 59.1580 2600.00 2706.30 50.99
2597 59.1750 2714.00 2706.72 52.10
2598 59.1920 2661.00 2707.16 51.58
2599 59.2090 2688.00 2707.62 51.85
2600 59.2260 2559.00 2708.09 50.59
2601 59.2430 2620.00 2708.59 51.19
2602 59.2600 2749.00 2709.11 52.43
2603 59.2770 2614.00 2709.66 51.13
2604 59.2940 2636.00 2710.24 51.34
2605 59.3110 2643.00 2710.86 51.41
2606 59.3280 2611.00 2711.50 51.10
2607 59.3450 2489.00 2712.19 49.89
2608 59.3620 2568.00 2712.93 50.68
2609 59.3790 2704.00 2713.72 52.00
2610 59.3960 2609.00 2714.57 51.08
2611 59.4130 2623.00 2715.49 51.22
2612 59.4300 2778.00 2716.49 52.71
2613 59.4470 2728.00 2717.59 52.23
2614 59.4640 2699.00 2718.80 51.95
2615 59.4810 2718.00 2720.15 52.13
2616 59.4980 2673.00 2721.69 51.70
2617 59.5150 2702.00 2723.45 51.98
2618 59.5320 2743.00 2725.52 52.37
2619 59.5490 2720.00 2727.98 52.15
2620 59.5660 2680.00 2730.96 51.77
2621 59.5830 2667.00 2734.65 51.64
2622 59.6000 2768.00 2739.23 52.61
2623 59.6170 2721.00 2744.94 52.16
2624 59.6340 2683.00 2752.02 51.80
2625 59.6510 2771.00 2760.71 52.64
2626 59.6680 2842.00 2771.15 53.31
2627 59.6850 2731.00 2783.35 52.26
2628 59.7020 2809.00 2796.96 53.00
2629 59.7190 2807.00 2811.14 52.98
2630 59.7360 2732.00 2824.33 52.27
2631 59.7530 2815.00 2834.59 53.06
2632 59.7700 2752.00 2840.32 52.46
2633 59.7870 2730.00 2841.14 52.25
2634 59.8040 2760.00 2838.04 52.54
2635 59.8210 2799.00 2832.81 52.91
2636 59.8380 2816.00 2827.20 53.07
2637 59.8550 2726.00 2822.30 52.21
2638 59.8720 2707.00 2818.25 52.03
2639 59.8890 2757.00 2814.41 52.51
2640 59.9060 2800.00 2809.87 52.92
2641 59.9230 2782.00 2804.03 52.74
2642 59.9400 2815.00 2796.94 53.06
2643 59.9570 2837.00 2789.16 53.26
2644 59.9740 2697.00 2781.41 51.93
2645 59.9910 2723.00 2774.30 52.18
2646 60.0080 2726.00 2768.19 52.21
2647 60.0250 2764.00 2763.20 52.57
2648 60.0420 2808.00 2759.30 52.99
2649 60.0590 2747.00 2756.37 52.41
2650 60.0760 2716.00 2754.29 52.12
2651 60.0930 2681.00 2752.90 51.78
2652 60.1100 2715.00 2752.08 52.11
2653 60.1270 2726.00 2751.72 52.21
2654 60.1440 2758.00 2751.72 52.52
2655 60.1610 2746.00 2752.01 52.40
2656 60.1780 2738.00 2752.54 52.33
2657 60.1950 2814.00 2753.27 53.05
2658 60.2120 2797.00 2754.16 52.89
2659 60.2290 2850.00 2755.21 53.39
2660 60.2460 2908.00 2756.39 53.93
2661 60.2630 2810.00 2757.71 53.01
2662 60.2800 2884.00 2759.14 53.70
2663 60.2970 2848.00 2760.70 53.37
2664 60.3140 2760.00 2762.38 52.54
2665 60.3310 2774.00 2764.18 52.67
2666 60.3480 2842.00 2766.08 53.31
2667 60.3650 2809.00 2768.11 53.00
2668 60.3820 2738.00 2770.26 52.33
2669 60.3990 2755.00 2772.54 52.49
2670 60.4160 2866.00 2774.95 53.53
2671 60.4330 2723.00 2777.49 52.18
2672 60.4500 2733.00 2780.18 52.28
2673 60.4670 2820.00 2783.01 53.10
2674 60.4840 2810.00 2786.00 53.01
2675 60.5010 2797.00 2789.16 52.89
2676 60.5180 2786.00 2792.49 52.78
2677 60.5350 2850.00 2796.01 53.39
2678 60.5520 2893.00 2799.72 53.79
2679 60.5690 2813.00 2803.64 53.04
2680 60.5860 2864.00 2807.79 53.52
2681 60.6030 2895.00 2812.18 53.81
2682 60.6200 2855.00 2816.83 53.43
2683 60.6370 2821.00 2821.76 53.11
2684 60.6540 2965.00 2826.98 54.45
2685 60.6710 2885.00 2832.53 53.71
2686 60.6880 2784.00 2838.42 52.76
2687 60.7050 2807.00 2844.69 52.98
2688 60.7220 2843.00 2851.37 53.32
2689 60.7390 2882.00 2858.49 53.68
2690 60.7560 3033.00 2866.09 55.07
2691 60.7730 2973.00 2874.22 54.53
2692 60.7900 2954.00 2882.92 54.35
2693 60.8070 3077.00 2892.26 55.47
2694 60.8240 2996.00 2902.28 54.74
2695 60.8410 3071.00 2913.06 55.42
2696 60.8580 3078.00 2924.68 55.48
2697 60.8750 3033.00 2937.23 55.07
2698 60.8920 3080.00 2950.81 55.50
2699 60.9090 3203.00 2965.54 56.60
2700 60.9260 3179.00 2981.53 56.38
2701 60.9430 3241.00 2998.96 56.93
2702 60.9600 3199.00 3017.98 56.56
2703 60.9770 3264.00 3038.81 57.13
2704 60.9940 3325.00 3061.67 57.66
2705 61.0110 3230.00 3086.84 56.83
2706 61.0280 3180.00 3114.64 56.39
2707 61.0450 3339.00 3145.46 57.78
2708 61.0620 3408.00 3179.73 58.38
2709 61.0790 3472.00 3218.01 58.92
2710 61.0960 3631.00 3260.94 60.26
2711 61.1130 3551.00 3309.33 59.59
2712 61.1300 3763.00 3364.21 61.34
2713 61.1470 3856.00 3426.85 62.10
2714 61.1640 3933.00 3498.93 62.71
2715 61.1810 4106.00 3582.80 64.08
2716 61.1980 4185.00 3681.55 64.69
2717 61.2150 4247.00 3799.47 65.17
2718 61.2320 4485.00 3942.43 66.97
2719 61.2490 4456.00 4118.30 66.75
2720 61.2660 4801.00 4337.44 69.29
2721 61.2830 5022.00 4612.93 70.87
2722 61.3000 5382.00 4960.63 73.36
2723 61.3170 5685.00 5398.75 75.40
2724 61.3340 6316.00 5946.69 79.47
2725 61.3510 6760.00 6622.79 82.22
2726 61.3680 7407.00 7439.97 86.06
2727 61.3850 8452.00 8398.09 91.93
2728 61.4020 9579.00 9472.87 97.87
2729 61.4190 10807.00 10605.50 103.96
2730 61.4360 12216.00 11705.90 110.53
2731 61.4530 13413.00 12676.80 115.82
2732 61.4700 14442.00 13442.20 120.18
2733 61.4870 14950.00 13948.50 122.27
2734 61.5040 14725.00 14155.50 121.35
2735 61.5210 14360.00 14054.20 119.83
2736 61.5380 13926.00 13695.40 118.01
2737 61.5550 13080.00 13180.20 114.37
2738 61.5720 12344.00 12608.60 111.10
2739 61.5890 12015.00 12038.10 109.61
2740 61.6060 11499.00 11481.20 107.23
2741 61.6230 11092.00 10924.50 105.32
2742 61.6400 10597.00 10339.50 102.94
2743 61.6570 9930.00 9694.59 99.65
2744 61.6740 9099.00 8977.75 95.39
2745 61.6910 8207.00 8211.89 90.59
2746 61.7080 7421.00 7445.57 86.15
2747 61.7250 6725.00 6727.78 82.01
2748 61.7420 5952.00 6090.24 77.15
2749 61.7590 5562.00 5545.12 74.58
2750 61.7760 5180.00 5090.95 71.97
2751 61.7930 4780.00 4719.09 69.14
2752 61.8100 4496.00 4418.01 67.05
2753 61.8270 4311.00 4175.75 65.66
2754 61.8440 4141.00 3980.74 64.35
2755 61.8610 3920.00 3823.35 62.61
2756 61.8780 3768.00 3695.06 61.38
2757 61.8950 3823.00 3589.29 61.83
2758 61.9120 3679.00 3500.88 60.65
2759 61.9290 3569.00 3425.96 59.74
2760 61.9460 3379.00 3361.65 58.13
2761 61.9630 3270.00 3305.83 57.18
2762 61.9800 3262.00 3256.92 57.11
2763 61.9970 3289.00 3213.75 57.35
2764 62.0140 3169.00 3175.38 56.29
2765 62.0310 3084.00 3141.12 55.53
2766 62.0480 3065.00 3110.38 55.36
2767 62.0650 3194.00 3082.68 56.52
2768 62.0820 3082.00 3057.64 55.52
2769 62.0990 3096.00 3034.91 55.64
2770 62.1160 3037.00 3014.23 55.11
2771 62.1330 2995.00 2995.34 54.73
2772 62.1500 3059.00 2978.06 55.31
2773 62.1670 3019.00 2962.20 54.95
2774 62.1840 2963.00 2947.60 54.43
2775 62.2010 2896.00 2934.15 53.81
2776 62.2180 2996.00 2921.71 54.74
2777 62.2350 2889.00 2910.19 53.75
2778 62.2520 2944.00 2899.51 54.26
2779 62.2690 2955.00 2889.57 54.36
2780 62.2860 2932.00 2880.32 54.15
2781 62.3030 2883.00 2871.69 53.69
2782 62.3200 2785.00 2863.63 52.77
2783 62.3370 2828.00 2856.08 53.18
2784 62.3540 2777.00 2849.01 52.70
2785 62.3710 2749.00 2842.37 52.43
2786 62.3880 2839.00 2836.14 53.28
2787 62.4050 2722.00 2830.27 52.17
2788 62.4220 2784.00 2824.74 52.76
2789 62.4390 2796.00 2819.53 52.88
2790 62.4560 2801.00 2814.61 52.92
2791 62.4730 2815.00 2809.96 53.06
2792 62.4900 2758.00 2805.56 52.52
2793 62.5070 2761.00 2801.39 52.55
2794 62.5240 2843.00 2797.44 53.32
2795 62.5410 2854.00 2793.69 53.42
2796 62.5580 2800.00 2790.13 52.92
2797 62.5750 2737.00 2786.74 52.32
2798 62.5920 2672.00 2783.52 51.69
2799 62.6090 2687.00 2780.46 51.84
2800 62.6260 2746.00 2777.54 52.40
2801 62.6430 2722.00 2774.75 52.17
2802 62.6600 2742.00 2772.10 52.36
2803 62.6770 2741.00 2769.57 52.35
2804 62.6940 2668.00 2767.14 51.65
2805 62.7110 2654.00 2764.81 51.52
2806 62.7280 2573.00 2762.57 50.72
2807 62.7450 2636.00 2760.43 51.34
2808 62.7620 2600.00 2758.41 50.99
2809 62.7790 2773.00 2756.48 52.66
2810 62.7960 2766.00 2754.63 52.59
2811 62.8130 2698.00 2752.86 51.94
2812 62.8300 2668.00 2751.16 51.65
2813 62.8470 2678.00 2749.53 51.75
2814 62.8640 2699.00 2747.96 51.95
2815 62.8810 2670.00 2746.49 51.67
2816 62.8980 2676.00 2745.06 51.73
2817 62.9150 2652.00 2743.72 51.50
2818 62.9320 2610.00 2742.45 51.09
2819 62.9490 2620.00 2741.25 51.19
2820 62.9660 2551.00 2740.12 50.51
2821 62.9830 2699.00 2739.08 51.95
2822 63.0000 2714.00 2738.13 52.10
2823 63.0170 2718.00 2737.29 52.13
2824 63.0340 2571.00 2736.57 50.71
2825 63.0510 2785.00 2736.00 52.77
2826 63.0680 2732.00 2735.61 52.27
2827 63.0850 2627.00 2735.40 51.25
2828 63.1020 2723.00 2735.40 52.18
2829 63.1190 2758.00 2735.63 52.52
2830 63.1360 2693.00 2736.05 51.89
2831 63.1530 2701.00 2736.61 51.97
2832 63.1700 2563.00 2737.18 50.63
2833 63.1870 2608.00 2737.58 51.07
2834 63.2040 2700.00 2737.56 51.96
2835 63.2210 2743.00 2736.99 52.37
2836 63.2380 2725.00 2735.91 52.20
2837 63.2550 2690.00 2734.49 51.87
2838 63.2720 2727.00 2732.99 52.22
2839 63.2890 2752.00 2731.59 52.46
2840 63.3060 2688.00 2730.35 51.85
2841 63.3230 2740.00 2729.26 52.35
2842 63.3400 2728.00 2728.22 52.23
2843 63.3570 2711.00 2727.12 52.07
2844 63.3740 2669.00 2725.87 51.66
2845 63.3910 2647.00 2724.45 51.45
2846 63.4080 2686.00 2722.95 51.83
2847 63.4250 2707.00 2721.45 52.03
2848 63.4420 2604.00 2720.03 51.03
2849 63.4590 2591.00 2718.73 50.90
2850 63.4760 2708.00 2717.56 52.04
2851 63.4930 2668.00 2716.51 51.65
2852 63.5100 2653.00 2715.57 51.51
2853 63.5270 2646.00 2714.73 51.44
2854 63.5440 2636.00 2713.97 51.34
2855 63.5610 2681.00 2713.28 51.78
2856 63.5780 2750.00 2712.64 52.44
2857 63.5950 2709.00 2712.05 52.05
2858 63.6120 2676.00 2711.50 51.73
2859 63.6290 2714.00 2710.97 52.10
2860 63.6460 2603.00 2710.48 51.02
2861 63.6630 2636.00 2710.00 51.34
2862 63.6800 2611.00 2709.54 51.10
2863 63.6970 2635.00 2709.10 51.33
2864 63.7140 2634.00 2708.68 51.32
2865 63.7310 2658.00 2708.27 51.56
2866 63.7480 2705.00 2707.87 52.01
2867 63.7650 2607.00 2707.48 51.06
2868 63.7820 2640.00 2707.10 51.38
2869 63.7990 2690.00 2706.74 51.87
2870 63.8160 2714.00 2706.38 52.10
2871 63.8330 2668.00 2706.03 51.65
2872 63.8500 2625.00 2705.69 51.23
2873 63.8670 2637.00 2705.36 51.35
2874 63.8840 2677.00 2705.04 51.74
2875 63.9010 2694.00 2704.73 51.90
2876 63.9180 2716.00 2704.42 52.12
2877 63.9350 2675.00 2704.12 51.72
2878 63.9520 2692.00 2703.82 51.88
2879 63.9690 2733.00 2703.53 52.28
2880 63.9860 2758.00 2703.25 52.52
2881 64.0030 2710.00 2702.98 52.06
2882 64.0200 2691.00 2702.71 51.87
2883 64.0370 2578.00 2702.44 50.77
2884 64.0540 2713.00 2702.18 52.09
2885 64.0710 2636.00 2701.93 51.34
2886 64.0880 2612.00 2701.68 51.11
2887 64.1050 2611.00 2701.43 51.10
2888 64.1220 2631.00 2701.19 51.29
2889 64.1390 2644.00 2700.96 51.42
2890 64.1560 2608.00 2700.73 51.07
2891 64.1730 2612.00 2700.50 51.11
2892 64.1900 2611.00 2700.28 51.10
2893 64.2070 2527.00 2700.06 50.27
2894 64.2240 2623.00 2699.84 51.22
2895 64.2410 2629.00 2699.63 51.27
2896 64.2580 2624.00 2699.42 51.22
2897 64.2750 2605.00 2699.22 51.04
2898 64.2920 2642.00 2699.02 51.40
2899 64.3090 2647.00 2698.83 51.45
2900 64.3260 2583.00 2698.63 50.82
2901 64.3430 2619.00 2698.44 51.18
2902 64.3600 2650.00 2698.26 51.48
2903 64.3770 2645.00 2698.08 51.43
2904 64.3940 2708.00 2697.90 52.04
2905 64.4110 2736.00 2697.72 52.31
2906 64.4280 2714.00 2697.55 52.10
2907 64.4450 2758.00 2694.68 52.52
2908 64.4620 2771.00 2694.55 52.64
2909 64.4790 2662.00 2694.42 51.59
2910 64.4960 2759.00 2693.14 52.53
2911 64.5130 2679.00 2690.26 51.76
2912 64.5300 2672.00 2688.86 51.69
2913 64.5470 2714.00 2688.81 52.10
2914 64.5640 2675.00 2688.76 51.72
2915 64.5810 2637.00 2688.71 51.35
2916 64.5980 2609.00 2687.34 51.08
2917 64.6150 2641.00 2687.33 51.39
2918 64.6320 2756.00 2686.75 52.50
2919 64.6490 2555.00 2686.77 50.55
2920 64.6660 2663.00 2685.45 51.60
2921 64.6830 2742.00 2684.88 52.36
2922 64.7000 2633.00 2685.00 51.31
2923 64.7170 2668.00 2685.15 51.65
2924 64.7340 2683.00 2685.36 51.80
2925 64.7510 2743.00 2685.61 52.37
2926 64.7680 2678.00 2685.91 51.75
2927 64.7850 2773.00 2686.26 52.66
2928 64.8020 2755.00 2686.64 52.49
2929 64.8190 2676.00 2687.02 51.73
2930 64.8360 2666.00 2687.32 51.63
2931 64.8530 2660.00 2687.50 51.58
2932 64.8700 2664.00 2687.51 51.61
2933 64.8870 2680.00 2687.37 51.77
2934 64.9040 2675.00 2690.53 51.72
2935 64.9210 2658.00 2690.31 51.56
2936 64.9380 2783.00 2690.11 52.75
2937 64.9550 2727.00 2689.96 52.22
2938 64.9720 2737.00 2689.85 52.32
2939 64.9890 2761.00 2689.76 52.55
2940 65.0060 2786.00 2689.65 52.78
2941 65.0230 2729.00 2689.49 52.24
2942 65.0400 2749.00 2689.28 52.43
2943 65.0570 2662.00 2694.09 51.59
2944 65.0740 2625.00 2693.90 51.23
2945 65.0910 2709.00 2693.71 52.05
2946 65.1080 2673.00 2698.09 51.70
2947 65.1250 2731.00 2699.36 52.26
2948 65.1420 2659.00 2699.33 51.57
2949 65.1590 2677.00 2699.34 51.74
2950 65.1760 2592.00 2699.37 50.91
2951 65.1930 2591.00 2699.43 50.90
2952 65.2100 2700.00 2699.50 51.96
2953 65.2270 2710.00 2699.60 52.06
2954 65.2440 2701.00 2699.70 51.97
2955 65.2610 2697.00 2699.82 51.93
2956 65.2780 2631.00 2699.95 51.29
2957 65.2950 2653.00 2700.08 51.51
2958 65.3120 2681.00 2700.23 51.78
2959 65.3290 2627.00 2700.38 51.25
2960 65.3460 2718.00 2700.53 52.13
2961 65.3630 2763.00 2700.69 52.56
2962 65.3800 2698.00 2700.86 51.94
2963 65.3970 2585.00 2701.03 50.84
2964 65.4140 2604.00 2701.20 51.03
2965 65.4310 2590.00 2701.39 50.89
2966 65.4480 2623.00 2701.57 51.22
2967 65.4650 2589.00 2701.76 50.88
2968 65.4820 2658.00 2701.96 51.56
2969 65.4990 2669.00 2702.16 51.66
2970 65.5160 2667.00 2702.37 51.64
2971 65.5330 2607.00 2702.58 51.06
2972 65.5500 2557.00 2702.80 50.57
2973 65.5670 2598.00 2703.02 50.97
2974 65.5840 2591.00 2703.25 50.90
2975 65.6010 2631.00 2703.48 51.29
2976 65.6180 2646.00 2703.72 51.44
2977 65.6350 2709.00 2703.96 52.05
2978 65.6520 2727.00 2704.22 52.22
2979 65.6690 2632.00 2704.47 51.30
2980 65.6860 2539.00 2704.74 50.39
2981 65.7030 2636.00 2705.01 51.34
2982 65.7200 2709.00 2705.28 52.05
2983 65.7370 2710.00 2705.56 52.06
2984 65.7540 2704.00 2705.85 52.00
2985 65.7710 2664.00 2706.15 51.61
2986 65.7880 2635.00 2706.46 51.33
2987 65.8050 2635.00 2706.77 51.33
2988 65.8220 2582.00 2707.09 50.81
2989 65.8390 2737.00 2707.41 52.32
2990 65.8560 2736.00 2707.75 52.31
2991 65.8730 2708.00 2708.09 52.04
2992 65.8900 2658.00 2708.45 51.56
2993 65.9070 2649.00 2708.81 51.47
2994 65.9240 2562.00 2709.18 50.62
2995 65.9410 2562.00 2709.56 50.62
2996 65.9580 2601.00 2709.95 51.00
2997 65.9750 2647.00 2710.35 51.45
2998 65.9920 2603.00 2710.76 51.02
2999 66.0090 2731.00 2711.18 52.26
3000 66.0260 2649.00 2711.61 51.47
3001 66.0430 2684.00 2712.06 51.81
3002 66.0600 2700.00 2712.51 51.96
3003 66.0770 2678.00 2712.98 51.75
3004 66.0940 2636.00 2713.46 51.34
3005 66.1110 2650.00 2713.95 51.48
3006 66.1280 2652.00 2714.46 51.50
3007 66.1450 2708.00 2714.98 52.04
3008 66.1620 2704.00 2715.52 52.00
3009 66.1790 2639.00 2716.07 51.37
3010 66.1960 2590.00 2716.64 50.89
3011 66.2130 2754.00 2717.22 52.48
3012 66.2300 2665.00 2717.82 51.62
3013 66.2470 2703.00 2718.43 51.99
3014 66.2640 2676.00 2719.06 51.73
3015 66.2810 2587.00 2719.71 50.86
3016 66.2980 2683.00 2720.38 51.80
3017 66.3150 2605.00 2721.08 51.04
3018 66.3320 2574.00 2721.79 50.73
3019 66.3490 2730.00 2722.52 52.25
3020 66.3660 2717.00 2723.28 52.12
3021 66.3830 2687.00 2724.06 51.84
3022 66.4000 2643.00 2724.86 51.41
3023 66.4170 2718.00 2725.69 52.13
3024 66.4340 2723.00 2726.54 52.18
3025 66.4510 2699.00 2727.42 51.95
3026 66.4680 2620.00 2728.33 51.19
3027 66.4850 2715.00 2729.30 52.11
3028 66.5020 2686.00 2730.27 51.83
3029 66.5190 2623.00 2731.28 51.22
3030 66.5360 2678.00 2732.31 51.75
3031 66.5530 2716.00 2733.38 52.12
3032 66.5700 2649.00 2734.49 51.47
3033 66.5870 2621.00 2735.63 51.20
3034 66.6040 2776.00 2736.82 52.69
3035 66.6210 2770.00 2738.04 52.63
3036 66.6380 2740.00 2739.33 52.35
3037 66.6550 2774.00 2740.64 52.67
3038 66.6720 2710.00 2742.00 52.06
3039 66.6890 2688.00 2743.41 51.85
3040 66.7060 2792.00 2744.87 52.84
3041 66.7230 2725.00 2746.39 52.20
3042 66.7400 2733.00 2747.96 52.28
3043 66.7570 2827.00 2749.59 53.17
3044 66.7740 2744.00 2751.29 52.38
3045 66.7910 2689.00 2753.05 51.86
3046 66.8080 2768.00 2754.88 52.61
3047 66.8250 2802.00 2756.78 52.93
3048 66.8420 2760.00 2758.76 52.54
3049 66.8590 2821.00 2760.82 53.11
3050 66.8760 2761.00 2762.97 52.55
3051 66.8930 2717.00 2765.21 52.12
3052 66.9100 2832.00 2767.53 53.22
3053 66.9270 2771.00 2769.96 52.64
3054 66.9440 2630.00 2772.50 51.28
3055 66.9610 2762.00 2775.15 52.55
3056 66.9780 2801.00 2777.91 52.92
3057 66.9950 2739.00 2780.80 52.34
3058 67.0120 2850.00 2783.82 53.39
3059 67.0290 2826.00 2786.99 53.16
3060 67.0460 2866.00 2790.30 53.53
3061 67.0630 2741.00 2793.77 52.35
3062 67.0800 2826.00 2797.41 53.16
3063 67.0970 2837.00 2801.24 53.26
3064 67.1140 2744.00 2805.25 52.38
3065 67.1310 2795.00 2809.47 52.87
3066 67.1480 2793.00 2813.91 52.85
3067 67.1650 2788.00 2818.58 52.80
3068 67.1820 2902.00 2823.50 53.87
3069 67.1990 2802.00 2828.69 52.93
3070 67.2160 2896.00 2834.17 53.81
3071 67.2330 2858.00 2839.96 53.46
3072 67.2500 2921.00 2846.09 54.05
3073 67.2670 2955.00 2852.58 54.36
3074 67.2840 2907.00 2859.45 53.92
3075 67.3010 2863.00 2866.74 53.51
3076 67.3180 2927.00 2874.50 54.10
3077 67.3350 2884.00 2882.74 53.70
3078 67.3520 2888.00 2891.51 53.74
3079 67.3690 2944.00 2900.87 54.26
3080 67.3860 2874.00 2910.87 53.61
3081 67.4030 2852.00 2921.55 53.40
3082 67.4200 2972.00 2933.00 54.52
3083 67.4370 2968.00 2945.28 54.48
3084 67.4540 3095.00 2958.47 55.63
3085 67.4710 3084.00 2972.67 55.53
3086 67.4880 2968.00 2987.98 54.48
3087 67.5050 2957.00 3004.52 54.38
3088 67.5220 3075.00 3022.41 55.45
3089 67.5390 3234.00 3041.84 56.87
3090 67.5560 3176.00 3062.96 56.36
3091 67.5730 3104.00 3085.97 55.71
3092 67.5900 3165.00 3111.09 56.26
3093 67.6070 3243.00 3138.63 56.95
3094 67.6240 3318.00 3168.89 57.60
3095 67.6410 3395.00 3202.21 58.27
3096 67.6580 3369.00 3239.02 58.04
3097 67.6750 3404.00 3279.87 58.34
3098 67.6920 3539.00 3325.36 59.49
3099 67.7090 3610.00 3376.19 60.08
3100 67.7260 3685.00 3433.26 60.70
3101 67.7430 3808.00 3497.73 61.71
3102 67.7600 3946.00 3571.02 62.82
3103 67.7770 4065.00 3655.00 63.76
3104 67.7940 4057.00 3752.15 63.69
3105 67.8110 4200.00 3865.85 64.81
3106 67.8280 4308.00 4000.67 65.64
3107 67.8450 4483.00 4162.80 66.96
3108 67.8620 4606.00 4360.50 67.87
3109 67.8790 5089.00 4604.50 71.34
3110 67.8960 5239.00 4908.21 72.38
3111 67.9130 5633.00 5288.24 75.05
3112 67.9300 6123.00 5763.54 78.25
3113 67.9470 6381.00 6354.04 79.88
3114 67.9640 7044.00 7079.57 83.93
3115 67.9810 7696.00 7957.08 87.73
3116 67.9980 8816.00 8994.09 93.89
3117 68.0150 9954.00 10179.20 99.77
3118 68.0320 11125.00 11471.70 105.47
3119 68.0490 12554.00 12792.20 112.04
3120 68.0660 13895.00 14022.30 117.88
3121 68.0830 15105.00 15031.50 122.90
3122 68.1000 15757.00 15708.70 125.53
3123 68.1170 15843.00 15988.40 125.87
3124 68.1340 15699.00 15867.00 125.30
3125 68.1510 14843.00 15419.10 121.83
3126 68.1680 13996.00 14783.10 118.31
3127 68.1850 13448.00 14107.70 115.97
3128 68.2020 12925.00 13495.60 113.69
3129 68.2190 12509.00 12980.30 111.84
3130 68.2360 12277.00 12533.90 110.80
3131 68.2530 12084.00 12097.70 109.93
3132 68.2700 11615.00 11608.80 107.77
3133 68.2870 11172.00 11019.40 105.70
3134 68.3040 10249.00 10311.80 101.24
3135 68.3210 9593.00 9509.22 97.94
3136 68.3380 8683.00 8665.69 93.18
3137 68.3550 7801.00 7841.32 88.32
3138 68.3720 7215.00 7082.40 84.94
3139 68.3890 6553.00 6413.09 80.95
3140 68.4060 6031.00 5841.10 77.66
3141 68.4230 5608.00 5361.92 74.89
3142 68.4400 5111.00 4966.56 71.49
3143 68.4570 4838.00 4643.41 69.56
3144 68.4740 4621.00 4380.96 67.98
3145 68.4910 4306.00 4167.67 65.62
3146 68.5080 4146.00 3993.74 64.39
3147 68.5250 4121.00 3850.83 64.19
3148 68.5420 3949.00 3731.98 62.84
3149 68.5590 3665.00 3632.04 60.54
3150 68.5760 3651.00 3546.86 60.42
3151 68.5930 3534.00 3473.41 59.45
3152 68.6100 3409.00 3409.33 58.39
3153 68.6270 3388.00 3352.97 58.21
3154 68.6440 3419.00 3303.04 58.47
3155 68.6610 3304.00 3258.49 57.48
3156 68.6780 3289.00 3218.54 57.35
3157 68.6950 3257.00 3182.58 57.07
3158 68.7120 3062.00 3150.07 55.34
3159 68.7290 3062.00 3120.58 55.34
3160 68.7460 3105.00 3093.73 55.72
3161 68.7630 3068.00 3069.21 55.39
3162 68.7800 3007.00 3046.78 54.84
3163 68.7970 3054.00 3026.19 55.26
3164 68.8140 3108.00 3007.24 55.75
3165 68.8310 3004.00 2989.76 54.81
3166 68.8480 2966.00 2973.61 54.46
3167 68.8650 3003.00 2958.65 54.80
3168 68.8820 3057.00 2944.76 55.29
3169 68.8990 2979.00 2931.85 54.58
3170 68.9160 2795.00 2919.82 52.87
3171 68.9330 2915.00 2908.60 53.99
3172 68.9500 2993.00 2898.11 54.71
3173 68.9670 2767.00 2888.30 52.60
3174 68.9840 2916.00 2879.09 54.00
3175 69.0010 2794.00 2870.45 52.86
3176 69.0180 2845.00 2862.34 53.34
3177 69.0350 2881.00 2854.70 53.67
3178 69.0520 2881.00 2847.51 53.67
3179 69.0690 2837.00 2840.72 53.26
3180 69.0860 2781.00 2834.31 52.74
3181 69.1030 2895.00 2828.25 53.81
3182 69.1200 2959.00 2822.53 54.40
3183 69.1370 2812.00 2817.10 53.03
3184 69.1540 2852.00 2811.96 53.40
3185 69.1710 2891.00 2807.09 53.77
3186 69.1880 2826.00 2802.47 53.16
3187 69.2050 2868.00 2798.08 53.55
3188 69.2220 2922.00 2793.91 54.06
3189 69.2390 2931.00 2789.95 54.14
3190 69.2560 2848.00 2786.19 53.37
3191 69.2730 2877.00 2782.62 53.64
3192 69.2900 2800.00 2779.23 52.92
3193 69.3070 2791.00 2776.00 52.83
3194 69.3240 2858.00 2772.95 53.46
3195 69.3410 2842.00 2770.06 53.31
3196 69.3580 2846.00 2767.32 53.35
3197 69.3750 2878.00 2764.74 53.65
3198 69.3920 2731.00 2762.32 52.26
3199 69.4090 2754.00 2760.07 52.48
3200 69.4260 2672.00 2757.98 51.69
3201 69.4430 2739.00 2756.09 52.34
3202 69.4600 2759.00 2754.41 52.53
3203 69.4770 2705.00 2752.97 52.01
3204 69.4940 2744.00 2751.84 52.38
3205 69.5110 2793.00 2751.03 52.85
3206 69.5280 2802.00 2750.62 52.93
3207 69.5450 2657.00 2750.69 51.55
3208 69.5620 2589.00 2751.29 50.88
3209 69.5790 2665.00 2752.48 51.62
3210 69.5960 2695.00 2754.30 51.91
3211 69.6130 2737.00 2756.73 52.32
3212 69.6300 2752.00 2759.65 52.46
3213 69.6470 2809.00 2762.80 53.00
3214 69.6640 2678.00 2765.71 51.75
3215 69.6810 2761.00 2767.68 52.55
3216 69.6980 2737.00 2768.10 52.32
3217 69.7150 2723.00 2766.68 52.18
3218 69.7320 2758.00 2763.72 52.52
3219 69.7490 2774.00 2759.88 52.67
3220 69.7660 2691.00 2755.88 51.87
3221 69.7830 2749.00 2752.23 52.43
3222 69.8000 2697.00 2749.17 51.93
3223 69.8170 2728.00 2746.71 52.23
3224 69.8340 2658.00 2744.65 51.56
3225 69.8510 2570.00 2742.61 50.70
3226 69.8680 2503.00 2740.22 50.03
3227 69.8850 2573.00 2737.23 50.72
3228 69.9020 2654.00 2733.68 51.52
3229 69.9190 2810.00 2729.81 53.01
3230 69.9360 2673.00 2725.91 51.70
3231 69.9530 2693.00 2722.22 51.89
3232 69.9700 2726.00 2718.82 52.21
3233 69.9870 2758.00 2715.78 52.52
3234 70.0040 2689.00 2713.10 51.86
3235 70.0210 2746.00 2710.74 52.40
3236 70.0380 2682.00 2708.67 51.79
3237 70.0550 2723.00 2706.84 52.18
3238 70.0720 2692.00 2705.23 51.88
3239 70.0890 2731.00 2703.79 52.26
3240 70.1060 2682.00 2702.48 51.79
3241 70.1230 2757.00 2701.29 52.51
3242 70.1400 2675.00 2700.18 51.72
3243 70.1570 2618.00 2699.15 51.17
3244 70.1740 2729.00 2698.18 52.24
3245 70.1910 2665.00 2697.25 51.62
3246 70.2080 2683.00 2696.38 51.80
3247 70.2250 2662.00 2695.54 51.59
3248 70.2420 2684.00 2694.73 51.81
3249 70.2590 2622.00 2693.95 51.21
3250 70.2760 2726.00 2693.20 52.21
3251 70.2930 2683.00 2692.48 51.80
3252 70.3100 2671.00 2691.78 51.68
3253 70.3270 2676.00 2691.10 51.73
3254 70.3440 2734.00 2690.44 52.29
3255 70.3610 2735.00 2689.80 52.30
3256 70.3780 2760.00 2689.17 52.54
3257 70.3950 2718.00 2688.56 52.13
3258 70.4120 2706.00 2687.97 52.02
3259 70.4290 2728.00 2687.40 52.23
3260 70.4460 2583.00 2686.83 50.82
3261 70.4630 2619.00 2686.29 51.18
3262 70.4800 2647.00 2685.75 51.45
3263 70.4970 2578.00 2685.23 50.77
3264 70.5140 2546.00 2684.72 50.46
3265 70.5310 2685.00 2684.22 51.82
3266 70.5480 2714.00 2683.73 52.10
3267 70.5650 2636.00 2683.25 51.34
3268 70.5820 2565.00 2682.79 50.65
3269 70.5990 2658.00 2682.33 51.56
3270 70.6160 2692.00 2681.89 51.88
3271 70.6330 2668.00 2681.46 51.65
3272 70.6500 2763.00 2681.03 52.56
3273 70.6670 2682.00 2680.62 51.79
3274 70.6840 2599.00 2680.22 50.98
3275 70.7010 2506.00 2679.83 50.06
3276 70.7180 2642.00 2679.45 51.40
3277 70.7350 2681.00 2679.08 51.78
3278 70.7520 2662.00 2678.72 51.59
3279 70.7690 2730.00 2678.38 52.25
3280 70.7860 2686.00 2678.04 51.83
3281 70.8030 2711.00 2677.72 52.07
3282 70.8200 2667.00 2677.42 51.64
3283 70.8370 2623.00 2677.12 51.22
3284 70.8540 2697.00 2676.85 51.93
3285 70.8710 2718.00 2676.59 52.13
3286 70.8880 2751.00 2676.35 52.45
3287 70.9050 2678.00 2676.14 51.75
3288 70.9220 2695.00 2675.94 51.91
3289 70.9390 2601.00 2675.78 51.00
3290 70.9560 2634.00 2675.64 51.32
3291 70.9730 2651.00 2675.55 51.49
3292 70.9900 2651.00 2675.49 51.49
3293 71.0070 2584.00 2675.50 50.83
3294 71.0240 2641.00 2675.57 51.39
3295 71.0410 2586.00 2675.74 50.85
3296 71.0580 2641.00 2676.02 51.39
3297 71.0750 2686.00 2676.44 51.83
3298 71.0920 2777.00 2677.05 52.70
3299 71.1090 2728.00 2677.90 52.23
3300 71.1260 2717.00 2679.03 52.12
3301 71.1430 2601.00 2680.50 51.00
3302 71.1600 2660.00 2682.36 51.58
3303 71.1770 2587.00 2684.67 50.86
3304 71.1940 2573.00 2687.42 50.72
3305 71.2110 2677.00 2690.59 51.74
3306 71.2280 2716.00 2694.05 52.12
3307 71.2450 2614.00 2697.57 51.13
3308 71.2620 2628.00 2697.48 51.26
3309 71.2790 2634.00 2700.13 51.32
3310 71.2960 2661.00 2701.84 51.58
3311 71.3130 2699.00 2699.30 51.95
3312 71.3300 2706.00 2696.10 52.02
3313 71.3470 2705.00 2694.66 52.01
3314 71.3640 2755.00 2692.65 52.49
3315 71.3810 2745.00 2690.48 52.39
3316 71.3980 2747.00 2688.46 52.41
3317 71.4150 2732.00 2686.73 52.27
3318 71.4320 2685.00 2683.61 51.82
3319 71.4490 2774.00 2682.29 52.67
3320 71.4660 2716.00 2680.92 52.12
3321 71.4830 2632.00 2677.78 51.30
3322 71.5000 2585.00 2674.55 50.84
3323 71.5170 2568.00 2672.32 50.68
3324 71.5340 2728.00 2669.86 52.23
3325 71.5510 2666.00 2667.32 51.63
3326 71.5680 2706.00 2664.86 52.02
3327 71.5850 2685.00 2662.57 51.82
3328 71.6020 2549.00 2660.54 50.49
3329 71.6190 2743.00 2658.77 52.37
3330 71.6360 2786.00 2657.25 52.78
3331 71.6530 2669.00 2655.96 51.66
3332 71.6700 2672.00 2654.88 51.69
3333 71.6870 2640.00 2653.97 51.38
3334 71.7040 2664.00 2653.19 51.61
3335 71.7210 2717.00 2652.54 52.12
3336 71.7380 2670.00 2651.97 51.67
3337 71.7550 2716.00 2651.47 52.12
3338 71.7720 2609.00 2651.03 51.08
3339 71.7890 2756.00 2650.63 52.50
3340 71.8060 2710.00 2650.27 52.06
3341 71.8230 2693.00 2649.94 51.89
3342 71.8400 2572.00 2649.63 50.71
3343 71.8570 2643.00 2649.34 51.41
3344 71.8740 2652.00 2649.07 51.50
3345 71.8910 2715.00 2648.81 52.11
3346 71.9080 2656.00 2648.56 51.54
3347 71.9250 2620.00 2648.33 51.19
3348 71.9420 2675.00 2648.10 51.72
3349 71.9590 2634.00 2647.89 51.32
3350 71.9760 2674.00 2647.68 51.71
3351 71.9930 2638.00 2647.47 51.36
3352 72.0100 2670.00 2647.28 51.67
3353 72.0270 2552.00 2647.09 50.52
3354 72.0440 2604.00 2646.91 51.03
3355 72.0610 2650.00 2646.73 51.48
3356 72.0780 2590.00 2646.56 50.89
3357 72.0950 2621.00 2646.39 51.20
3358 72.1120 2608.00 2646.23 51.07
3359 72.1290 2623.00 2646.07 51.22
3360 72.1460 2673.00 2645.92 51.70
3361 72.1630 2731.00 2645.77 52.26
3362 72.1800 2690.00 2645.63 51.87
3363 72.1970 2562.00 2645.49 50.62
3364 72.2140 2562.00 2645.36 50.62
3365 72.2310 2597.00 2645.23 50.96
3366 72.2480 2538.00 2645.11 50.38
3367 72.2650 2576.00 2645.00 50.75
3368 72.2820 2631.00 2644.90 51.29
3369 72.2990 2615.00 2644.80 51.14
3370 72.3160 2599.00 2644.71 50.98
3371 72.3330 2658.00 2644.63 51.56
3372 72.3500 2706.00 2644.56 52.02
3373 72.3670 2625.00 2644.50 51.23
3374 72.3840 2614.00 2644.45 51.13
3375 72.4010 2699.00 2644.42 51.95
3376 72.4180 2607.00 2644.41 51.06
3377 72.4350 2578.00 2644.42 50.77
3378 72.4520 2526.00 2644.45 50.26
3379 72.4690 2600.00 2644.51 50.99
3380 72.4860 2566.00 2644.61 50.66
3381 72.5030 2568.00 2644.75 50.68
3382 72.5200 2618.00 2644.94 51.17
3383 72.5370 2667.00 2645.20 51.64
3384 72.5540 2634.00 2645.54 51.32
3385 72.5710 2661.00 2646.00 51.58
3386 72.5880 2619.00 2646.60 51.18
3387 72.6050 2661.00 2647.39 51.58
3388 72.6220 2684.00 2648.41 51.81
3389 72.6390 2632.00 2649.73 51.30
3390 72.6560 2684.00 2651.39 51.81
3391 72.6730 2699.00 2653.46 51.95
3392 72.6900 2661.00 2656.02 51.58
3393 72.7070 2646.00 2659.02 51.44
3394 72.7240 2602.00 2662.48 51.01
3395 72.7410 2607.00 2666.31 51.06
3396 72.7580 2716.00 2670.27 52.12
3397 72.7750 2638.00 2673.98 51.36
3398 72.7920 2692.00 2676.92 51.88
3399 72.8090 2709.00 2678.63 52.05
3400 72.8260 2722.00 2678.93 52.17
3401 72.8430 2548.00 2677.99 50.48
3402 72.8600 2608.00 2676.25 51.07
3403 72.8770 2721.00 2674.18 52.16
3404 72.8940 2763.00 2672.10 52.56
3405 72.9110 2659.00 2670.24 51.57
3406 72.9280 2712.00 2668.70 52.08
3407 72.9450 2674.00 2667.43 51.71
3408 72.9620 2753.00 2666.32 52.47
3409 72.9790 2692.00 2665.10 51.88
3410 72.9960 2658.00 2663.53 51.56
3411 73.0130 2730.00 2661.52 52.25
3412 73.0300 2728.00 2659.16 52.23
3413 73.0470 2557.00 2656.60 50.57
3414 73.0640 2602.00 2654.02 51.01
3415 73.0810 2634.00 2651.51 51.32
3416 73.0980 2710.00 2649.16 52.06
3417 73.1150 2667.00 2647.00 51.64
3418 73.1320 2669.00 2645.09 51.66
3419 73.1490 2744.00 2643.43 52.38
3420 73.1660 2609.00 2642.00 51.08
3421 73.1830 2571.00 2640.78 50.71
3422 73.2000 2639.00 2639.75 51.37
3423 73.2170 2684.00 2638.86 51.81
3424 73.2340 2739.00 2638.10 52.34
3425 73.2510 2680.00 2637.44 51.77
3426 73.2680 2753.00 2636.86 52.47
3427 73.2850 2776.00 2636.34 52.69
3428 73.3020 2668.00 2635.88 51.65
3429 73.3190 2670.00 2635.45 51.67
3430 73.3360 2704.00 2635.06 52.00
3431 73.3530 2728.00 2634.69 52.23
3432 73.3700 2698.00 2634.35 51.94
3433 73.3870 2682.00 2634.02 51.79
3434 73.4040 2641.00 2633.71 51.39
3435 73.4210 2660.00 2633.41 51.58
3436 73.4380 2607.00 2633.12 51.06
3437 73.4550 2566.00 2632.85 50.66
3438 73.4720 2657.00 2632.58 51.55
3439 73.4890 2677.00 2632.31 51.74
3440 73.5060 2635.00 2632.06 51.33
3441 73.5230 2648.00 2631.81 51.46
3442 73.5400 2669.00 2631.57 51.66
3443 73.5570 2665.00 2631.33 51.62
3444 73.5740 2606.00 2631.09 51.05
3445 73.5910 2543.00 2630.86 50.43
3446 73.6080 2601.00 2630.63 51.00
3447 73.6250 2592.00 2630.40 50.91
3448 73.6420 2636.00 2630.18 51.34
3449 73.6590 2687.00 2629.96 51.84
3450 73.6760 2693.00 2629.74 51.89
3451 73.6930 2759.00 2629.53 52.53
3452 73.7100 2749.00 2629.31 52.43
3453 73.7270 2681.00 2629.10 51.78
3454 73.7440 2649.00 2628.89 51.47
3455 73.7610 2604.00 2628.68 51.03
3456 73.7780 2633.00 2628.47 51.31
3457 73.7950 2647.00 2628.26 51.45
3458 73.8120 2585.00 2628.06 50.84
3459 73.8290 2670.00 2627.85 51.67
3460 73.8460 2699.00 2627.65 51.95
3461 73.8630 2590.00 2627.44 50.89
3462 73.8800 2588.00 2627.24 50.87
3463 73.8970 2619.00 2627.04 51.18
3464 73.9140 2567.00 2626.84 50.67
3465 73.9310 2605.00 2626.63 51.04
3466 73.9480 2700.00 2626.43 51.96
3467 73.9650 2618.00 2626.23 51.17
3468 73.9820 2660.00 2626.03 51.58
3469 73.9990 2672.00 2625.83 51.69
3470 74.0160 2600.00 2625.63 50.99
3471 74.0330 2677.00 2625.44 51.74
3472 74.0500 2684.00 2625.24 51.81
3473 74.0670 2632.00 2625.04 51.30
3474 74.0840 2606.00 2624.85 51.05
3475 74.1010 2505.00 2624.65 50.05
3476 74.1180 2639.00 2624.45 51.37
3477 74.1350 2695.00 2624.25 51.91
3478 74.1520 2585.00 2624.06 50.84
3479 74.1690 2738.00 2623.86 52.33
3480 74.1860 2699.00 2623.66 51.95
3481 74.2030 2641.00 2623.47 51.39
3482 74.2200 2624.00 2623.27 51.22
3483 74.2370 2605.00 2623.07 51.04
3484 74.2540 2659.00 2622.88 51.57
3485 74.2710 2550.00 2622.69 50.50
3486 74.2880 2580.00 2622.49 50.79
3487 74.3050 2607.00 2622.30 51.06
3488 74.3220 2597.00 2622.10 50.96
3489 74.3390 2690.00 2621.91 51.87
3490 74.3560 2690.00 2621.71 51.87
3491 74.3730 2685.00 2621.51 51.82
3492 74.3900 2648.00 2621.32 51.46
3493 74.4070 2633.00 2621.12 51.31
3494 74.4240 2743.00 2620.93 52.37
3495 74.4410 2705.00 2620.73 52.01
3496 74.4580 2552.00 2620.54 50.52
3497 74.4750 2579.00 2620.34 50.78
3498 74.4920 2718.00 2620.15 52.13
3499 74.5090 2678.00 2619.95 51.75
3500 74.5260 2573.00 2619.75 50.72
3501 74.5430 2569.00 2619.56 50.69
3502 74.5600 2536.00 2619.35 50.36
3503 74.5770 2569.00 2619.16 50.69
3504 74.5940 2623.00 2618.96 51.22
3505 74.6110 2656.00 2618.76 51.54
3506 74.6280 2645.00 2618.56 51.43
3507 74.6450 2567.00 2618.36 50.67
3508 74.6620 2656.00 2618.17 51.54
3509 74.6790 2576.00 2617.98 50.75
3510 74.6960 2579.00 2617.78 50.78
3511 74.7130 2596.00 2617.59 50.95
3512 74.7300 2670.00 2617.39 51.67
3513 74.7470 2570.00 2617.20 50.70
3514 74.7640 2580.00 2617.00 50.79
3515 74.7810 2703.00 2616.81 51.99
3516 74.7980 2596.00 2616.61 50.95
3517 74.8150 2650.00 2616.42 51.48
3518 74.8320 2573.00 2616.23 50.72
3519 74.8490 2603.00 2616.04 51.02
3520 74.8660 2611.00 2615.84 51.10
3521 74.8830 2700.00 2615.65 51.96
3522 74.9000 2523.00 2615.46 50.23
3523 74.9170 2594.00 2615.27 50.93
3524 74.9340 2551.00 2615.08 50.51
3525 74.9510 2601.00 2614.90 51.00
3526 74.9680 2567.00 2614.71 50.67
3527 74.9850 2543.00 2614.52 50.43
3528 75.0020 2607.00 2614.33 51.06
3529 75.0190 2621.00 2614.15 51.20
loop_
_refln_index_h
_refln_index_k
_refln_index_l
_refln_F_squared_calc
_refln_F_squared_meas
_refln_F_squared_sigma
_refln_observed_status
_refln_d_spacing
1 1 0 34.69 10.66 15.94 < 5.530937
1 1 1 102.18 50.48 16.07 o 4.518027
0 0 2 58303.37 57386.54 1155.99 o 3.916261
0 2 0 60434.14 59356.63 1195.77 o 3.911911
2 0 0 64403.02 63151.05 1272.27 o 3.910016
0 2 1 195.12 94.66 69.50 < 3.499696
1 1 2 7.65 3.55 15.33 < 3.196170
0 2 2 65186.81 66010.05 1337.27 o 2.767675
2 0 2 77343.50 78303.23 1586.15 o 2.767004
2 2 0 76333.76 77197.08 1563.60 o 2.765468
2 2 1 281.67 227.33 43.05 o 2.607700
1 3 0 851.72 654.19 83.66 o 2.473989
3 1 0 568.01 437.15 55.80 o 2.473031
1 1 3 1135.90 873.43 61.27 o 2.361012
1 3 1 188.80 146.07 10.21 o 2.359105
3 1 1 198.41 153.52 10.66 o 2.358274
2 2 2 4054.07 4231.33 135.22 o 2.259014
0 2 3 33.24 23.23 56.03 < 2.171607
1 3 2 584.94 366.91 63.22 o 2.091595
3 1 2 379.22 238.50 40.95 o 2.091016
0 0 4 128023.89 129514.52 2650.29 o 1.958131
0 4 0 131501.39 132527.83 2709.46 o 1.955955
4 0 0 139925.17 140909.48 2881.00 o 1.955008
2 2 3 2.19 1.53 0.71 < 1.898455
0 4 1 129.04 90.01 45.34 < 1.897679
1 1 4 1.04 0.66 1.78 < 1.845865
3 3 0 47.53 28.15 79.42 < 1.843646
1 3 3 207.95 126.83 25.28 o 1.795807
3 1 3 448.06 271.40 54.09 o 1.795440
3 3 1 273.67 165.80 32.62 o 1.794600
0 2 4 27098.56 28082.92 574.35 o 1.751016
2 0 4 41851.45 43349.33 887.10 o 1.750846
0 4 2 29559.82 30508.03 623.50 o 1.749848
2 4 0 39901.37 41118.80 840.58 o 1.749290
4 0 2 30846.96 31763.62 649.05 o 1.749170
4 2 0 33927.57 34900.36 713.21 o 1.748782
2 4 1 22.92 12.63 7.43 < 1.707230
4 2 1 91.68 51.78 29.46 < 1.706758
3 3 2 35.42 15.76 52.72 < 1.668050
2 2 4 55419.46 54446.48 1116.81 o 1.598085
2 4 2 51815.28 50923.07 1043.72 o 1.597197
4 2 2 44375.58 43617.11 893.98 o 1.596810
0 4 3 1026.87 642.90 160.89 o 1.565390
1 3 4 68.44 51.48 35.00 < 1.535398
3 1 4 132.08 100.24 67.65 < 1.535169
1 5 0 534.98 416.79 273.82 < 1.534349
5 1 0 78.80 61.49 40.88 < 1.533663
1 1 5 469.87 472.38 339.74 < 1.507218
3 3 3 50.86 50.41 36.10 < 1.506009
1 5 1 30.94 30.68 22.37 < 1.505730
5 1 1 0.01 0.00 0.00 < 1.505082
