#------------------------------------------------------------------------------
#$Date: 2016-03-21 01:21:50 +0200 (Mon, 21 Mar 2016) $
#$Revision: 178377 $
#$URL: svn://www.crystallography.net/cod/cif/4/00/21/4002110.cif $
#------------------------------------------------------------------------------
#
# This file is available in the Crystallography Open Database (COD),
# http://www.crystallography.net/
#
# All data on this site have been placed in the public domain by the
# contributors.
#
data_4002110
loop_
_publ_author_name
'Nanthamathee, Chompoonoot'
'Ling, Sanliang'
'Slater, Ben'
'Attfield, Martin P.'
_publ_section_title
;
 Contradistinct Thermoresponsive Behavior of Isostructural MIL-53 Type
 Metal--Organic Frameworks by Modifying the Framework Inorganic Anion
;
_journal_name_full               'Chemistry of Materials'
_journal_page_first              141223143002002
_journal_paper_doi               10.1021/cm503311x
_journal_year                    2014
_chemical_formula_sum            'C8 Al O5'
_chemical_formula_weight         203.07
_chemical_name_systematic        ' ?'
_space_group_IT_number           74
_symmetry_cell_setting           orthorhombic
_symmetry_space_group_name_Hall  '-I 2b 2'
_symmetry_space_group_name_H-M   'I m m a'
_audit_creation_date             2014-08-28T12:19
_audit_creation_method           'from EXP file using GSAS2CIF'
_audit_update_record
' 2014-08-28T12:19  Initial CIF as created by GSAS2CIF'
_cell_angle_alpha                90.0
_cell_angle_beta                 90.0
_cell_angle_gamma                90.0
_cell_formula_units_Z            4
_cell_length_a                   6.62857(6)
_cell_length_b                   16.71675(18)
_cell_length_c                   12.84727(23)
_cell_volume                     1423.58(3)
_computing_structure_refinement  GSAS
_diffrn_radiation_polarisn_ratio 0.95
_diffrn_radiation_probe          x-ray
_diffrn_radiation_wavelength     0.825993
_exptl_absorpt_correction_T_max  1.00000
_exptl_absorpt_correction_T_min  1.00000
_exptl_absorpt_process_details
;   GSAS Absorption/surface roughness correction: function number 0
 No correction is applied.
;
_pd_block_id                     2014-08-28T12:19|475K|300k|i11
_pd_calc_method                  'Rietveld Refinement'
_pd_instr_location               ' ?'
_pd_meas_2theta_range_inc        0.003
_pd_meas_2theta_range_max        149.9955
_pd_meas_2theta_range_min        0.0015
_pd_meas_number_of_points        49999
_pd_phase_name                   300K
_pd_proc_2theta_range_inc        0.003
_pd_proc_2theta_range_max        150.00418
_pd_proc_2theta_range_min        0.010179
_pd_proc_info_datetime           2014-08-28T12:19:44
_pd_proc_info_excluded_regions   ' ?'
_pd_proc_ls_background_function
;   GSAS Background function number 1 with  2 terms.
 Shifted Chebyshev function of 1st kind
      1:    0.00000     2:    0.00000    
;
_pd_proc_ls_peak_cutoff          0.00010
_pd_proc_ls_profile_function
;
 CW Profile function number 4 with  18 terms
 Pseudovoigt profile coefficients as parameterized in
 P. Thompson, D.E. Cox & J.B. Hastings (1987). J. Appl. Cryst.,20,79-83.
 Asymmetry correction of L.W. Finger, D.E. Cox & A. P. Jephcoat (1994).
 J. Appl. Cryst.,27,892-900.
 Microstrain broadening by P.W. Stephens,  (1999). J. Appl. Cryst.,32,281-289.
 Peak tails are ignored  where the intensity is below 0.0001 times the peak
   Aniso. broadening axis   1.0   0.0   1.0
;
_pd_proc_ls_prof_R_factor        0.0359
_pd_proc_ls_prof_wR_expected     0.0226
_pd_proc_ls_prof_wR_factor       0.0485
_pd_proc_number_of_points        49999
_pd_spec_mounting                ' ?'
_refine_ls_goodness_of_fit_all   2.14
_refine_ls_matrix_type           full
_refine_ls_number_parameters     27
_refine_ls_number_restraints     0
_refine_ls_R_Fsqd_factor         0.23182
_refine_ls_shift/su_max          0.04
_refine_ls_shift/su_mean         0.01
_reflns_d_resolution_high        1.210
_reflns_d_resolution_low         8.358
_reflns_limit_h_max              5
_reflns_limit_h_min              0
_reflns_limit_k_max              13
_reflns_limit_k_min              0
_reflns_limit_l_max              10
_reflns_limit_l_min              0
_reflns_number_total             252
_cod_data_source_file            aloh475K.cif
_cod_data_source_block           475K_publ
_cod_depositor_comments
;
The following automatic conversions were performed:

'_geom_bond_publ_flag' value 'N' changed to 'n' according to
/home/saulius/struct/COD-crude-data--automatic-downloads/rss-feeds/ACS/lib/dictionaries/cif_core.dic
dictionary named 'cif_core.dic' version 2.4.2 from 2011-04-26 (18
times).

'_geom_angle_publ_flag' value 'N' changed to 'n' according
to
/home/saulius/struct/COD-crude-data--automatic-downloads/rss-feeds/ACS/lib/dictionaries/cif_core.dic
dictionary named 'cif_core.dic' version 2.4.2 from 2011-04-26 (24
times).

Automatic conversion script
Id: cif_fix_values 2935 2014-11-11 08:27:57Z andrius 
;
_cod_original_cell_volume        1423.583(31)
_cod_database_code               4002110
#BEGIN Tags that were not found in dictionaries:
_gsas_exptl_extinct_corr_t_min   1.00000
_gsas_exptl_extinct_corr_t_max   1.00000
#END Tags that were not found in dictionaries
loop_
_symmetry_equiv_pos_site_id
_symmetry_equiv_pos_as_xyz
1 +x,+y,+z
2 -x,+y,+z
3 +x,-y+1/2,+z
4 -x,-y+1/2,+z
-1 -x,-y,-z
-2 +x,-y,-z
-3 -x,+y+1/2,-z
-4 +x,+y+1/2,-z
101 +x+1/2,+y+1/2,+z+1/2
102 -x+1/2,+y+1/2,+z+1/2
103 +x+1/2,-y,+z+1/2
104 -x+1/2,-y,+z+1/2
-101 -x+1/2,-y+1/2,-z+1/2
-102 +x+1/2,-y+1/2,-z+1/2
-103 -x+1/2,+y,-z+1/2
-104 +x+1/2,+y,-z+1/2
loop_
_atom_site_type_symbol
_atom_site_label
_atom_site_fract_x
_atom_site_fract_y
_atom_site_fract_z
_atom_site_occupancy
_atom_site_thermal_displace_type
_atom_site_U_iso_or_equiv
_atom_site_symmetry_multiplicity
Al Al1 0.25 0.25 0.75 1.0 Uiso 0.0212(10) 4
O O2 0.0 0.25 0.6858(4) 1.0 Uiso 0.0196(8) 4
O O1 0.16467(33) 0.16836(15) 0.84265(22) 1.0 Uiso 0.0196(8) 16
C C3 -0.1909(5) 0.03561(31) 0.9677(4) 1.0 Uiso 0.0413(15) 16
C C2 0.0 0.0619(4) 0.9472(6) 1.0 Uiso 0.0413(15) 8
C C1 0.0 0.1369(4) 0.8727(6) 1.0 Uiso 0.0413(15) 8
loop_
_atom_type_symbol
_atom_type_number_in_cell
_atom_type_scat_dispersion_real
_atom_type_scat_dispersion_imag
_atom_type_scat_Cromer_Mann_a1
_atom_type_scat_Cromer_Mann_a2
_atom_type_scat_Cromer_Mann_a3
_atom_type_scat_Cromer_Mann_a4
_atom_type_scat_Cromer_Mann_b1
_atom_type_scat_Cromer_Mann_b2
_atom_type_scat_Cromer_Mann_b3
_atom_type_scat_Cromer_Mann_b4
_atom_type_scat_Cromer_Mann_c
_atom_type_scat_source
Al 4.0 0.000 0.000 6.42020 3.03870 1.90020 0.74260 1.59360 31.5472 1.96460
85.0886 1.11510 International_Tables_Vol_C
O 20.0 0.000 0.000 3.04850 13.2771 2.28680 5.70110 1.54630 0.32390 0.86700
32.9089 0.25080 International_Tables_Vol_C
C 32.0 0.000 0.000 2.31000 20.8439 1.02000 10.2075 1.58860 0.56870 0.86500
51.6512 0.21560 International_Tables_Vol_C
loop_
_geom_angle_atom_site_label_1
_geom_angle_atom_site_label_2
_geom_angle_atom_site_label_3
_geom_angle
_geom_angle_site_symmetry_1
_geom_angle_site_symmetry_3
_geom_angle_publ_flag
O2 Al1 O2 180.0 1_555 -101_546 n
O2 Al1 O1 90.71(12) 1_555 1_555 n
O2 Al1 O1 90.71(12) 1_555 3_555 n
O2 Al1 O1 89.29(12) 1_555 -101_566 n
O2 Al1 O1 89.29(12) 1_555 -103_566 n
O2 Al1 O1 89.29(12) -101_566 1_555 n
O2 Al1 O1 89.29(12) -101_566 3_555 n
O2 Al1 O1 90.71(12) -101_566 -101_566 n
O2 Al1 O1 90.71(12) -101_566 -103_566 n
O1 Al1 O1 92.00(19) 1_555 3_555 n
O1 Al1 O1 180.0 1_555 -101_566 n
O1 Al1 O1 88.00(19) 1_555 -103_566 n
O1 Al1 O1 88.00(19) 3_555 -101_566 n
O1 Al1 O1 180.0 3_555 -103_566 n
O1 Al1 O1 92.00(19) -101_566 -103_566 n
Al1 O2 Al1 127.11(31) 1_555 2_555 n
Al1 O1 C1 138.1(4) 1_555 1_555 n
C3 C3 C2 112.0(4) -2_557 1_555 n
C3 C2 C3 135.9(7) 1_555 2_555 n
C3 C2 C1 111.9(4) 1_555 1_555 n
C3 C2 C1 111.9(4) 2_555 1_555 n
O1 C1 O1 118.3(6) 1_555 2_555 n
O1 C1 C2 120.87(31) 1_555 1_555 n
O1 C1 C2 120.87(31) 2_555 1_555 n
loop_
_geom_bond_atom_site_label_1
_geom_bond_atom_site_label_2
_geom_bond_distance
_geom_bond_site_symmetry_2
_geom_bond_publ_flag
Al1 O2 1.8508(25) 1_555 n
Al1 O2 1.8508(25) -101_445 n
Al1 O1 1.8972(21) 1_555 n
Al1 O1 1.8972(21) 3_555 n
Al1 O1 1.8972(21) -101_445 n
Al1 O1 1.8972(21) -103_445 n
O2 Al1 1.8508(25) 1_555 n
O2 Al1 1.8508(25) 2_555 n
O1 Al1 1.8972(21) 1_555 n
O1 C1 1.272(4) 1_555 n
C3 C3 1.451(8) -2_557 n
C3 C2 1.3655(32) 1_555 n
C2 C3 1.3655(32) 1_555 n
C2 C3 1.3655(32) 2_555 n
C2 C1 1.577(7) 1_555 n
C1 O1 1.272(4) 1_555 n
C1 O1 1.272(4) 2_555 n
C1 C2 1.577(7) 1_555 n
loop_
_pd_meas_intensity_total
_pd_proc_ls_weight
_pd_proc_intensity_bkg_calc
_pd_calc_intensity_total
15.0(22) 0.0 0.00 .
21.1(25) 0.0 0.00 .
20.2(25) 0.0 0.00 .
15.2(22) 0.0 0.00 .
23.4(27) 0.0 0.00 .
52(4) 0.0 0.0 .
81(5) 0.0 0.0 .
493(13) 0.0 0.0 .
939(17) 0.0 0.0 .
1931(23) 0.0 0.0 .
2229(25) 0.0 0.0 .
2231(25) 0.0 0.0 .
2298(26) 0.0 0.0 .
835(16) 0.0 0.0 .
72(4) 0.0 0.0 .
49(4) 0.0 0.0 .
54(4) 0.0 0.0 .
27.1(27) 0.0 0.00 .
29.7(31) 0.0 0.00 .
51(4) 0.0 0.0 .
173(7) 0.0 0.0 .
290(9) 0.0 0.0 .
619(14) 0.0 0.0 .
800(15) 0.0 0.0 .
876(15) 0.0 0.0 .
1092(18) 0.0 0.0 .
1202(19) 0.0 0.0 .
1417(20) 0.0 0.0 .
1629(21) 0.0 0.0 .
1703(21) 0.0 0.0 .
1874(23) 0.0 0.0 .
1983(25) 0.0 0.0 .
1704(22) 0.0 0.0 .
1518(20) 0.0 0.0 .
1114(17) 0.0 0.0 .
586(13) 0.0 0.0 .
334(10) 0.0 0.0 .
192(7) 0.0 0.0 .
121(6) 0.0 0.0 .
73(4) 0.0 0.0 .
33.8(31) 0.0 0.00 .
25.6(28) 0.0 0.00 .
36(4) 0.0 0.0 .
28.7(29) 0.0 0.00 .
24.3(26) 0.0 0.00 .
29.7(30) 0.0 0.00 .
28.9(29) 0.0 0.00 .
33.0(30) 0.0 0.00 .
23.0(25) 0.0 0.00 .
24.4(26) 0.0 0.00 .
28.4(29) 0.0 0.00 .
27.2(29) 0.0 0.00 .
29.3(29) 0.0 0.00 .
27.1(27) 0.0 0.00 .
28.9(28) 0.0 0.00 .
32.2(31) 0.0 0.00 .
29.3(29) 0.0 0.00 .
31.7(30) 0.0 0.00 .
33.5(30) 0.0 0.00 .
27.7(27) 0.0 0.00 .
24.8(28) 0.0 0.00 .
38(4) 0.0 0.0 .
28.8(28) 0.0 0.00 .
33.5(31) 0.0 0.00 .
24.4(27) 0.0 0.00 .
45(4) 0.0 0.0 .
29.1(28) 0.0 0.00 .
31.2(29) 0.0 0.00 .
36.6(32) 0.0 0.00 .
31.2(30) 0.0 0.00 .
32.5(30) 0.0 0.00 .
29.0(28) 0.0 0.00 .
37.0(33) 0.0 0.00 .
33.9(31) 0.0 0.00 .
33.0(31) 0.0 0.00 .
29.0(28) 0.0 0.00 .
29.3(29) 0.0 0.00 .
33.3(31) 0.0 0.00 .
32.3(30) 0.0 0.00 .
32.0(31) 0.0 0.00 .
36.6(34) 0.0 0.00 .
30.3(28) 0.0 0.00 .
41.0(34) 0.0 0.00 .
35.1(31) 0.0 0.00 .
34.1(31) 0.0 0.00 .
31.8(30) 0.0 0.00 .
42(4) 0.0 0.0 .
47(4) 0.0 0.0 .
33.0(31) 0.0 0.00 .
48(4) 0.0 0.0 .
43(4) 0.0 0.0 .
36.5(31) 0.0 0.00 .
33.4(30) 0.0 0.00 .
49(4) 0.0 0.0 .
51(4) 0.0 0.0 .
63(4) 0.0 0.0 .
74(5) 0.0 0.0 .
71(4) 0.0 0.0 .
80(5) 0.0 0.0 .
101(5) 0.0 0.0 .
97(5) 0.0 0.0 .
106(6) 0.0 0.0 .
107(5) 0.0 0.0 .
116(6) 0.0 0.0 .
123(6) 0.0 0.0 .
141(7) 0.0 0.0 .
162(7) 0.0 0.0 .
178(7) 0.0 0.0 .
181(7) 0.0 0.0 .
192(7) 0.0 0.0 .
188(7) 0.0 0.0 .
187(7) 0.0 0.0 .
212(8) 0.0 0.0 .
210(8) 0.0 0.0 .
230(8) 0.0 0.0 .
230(8) 0.0 0.0 .
253(9) 0.0 0.0 .
234(8) 0.0 0.0 .
260(9) 0.0 0.0 .
258(9) 0.0 0.0 .
272(9) 0.0 0.0 .
286(9) 0.0 0.0 .
306(9) 0.0 0.0 .
294(9) 0.0 0.0 .
306(10) 0.0 0.0 .
315(10) 0.0 0.0 .
331(10) 0.0 0.0 .
348(10) 0.0 0.0 .
346(10) 0.0 0.0 .
364(10) 0.0 0.0 .
364(10) 0.0 0.0 .
370(10) 0.0 0.0 .
387(10) 0.0 0.0 .
363(10) 0.0 0.0 .
389(11) 0.0 0.0 .
419(11) 0.0 0.0 .
424(11) 0.0 0.0 .
407(10) 0.0 0.0 .
437(11) 0.0 0.0 .
469(12) 0.0 0.0 .
460(11) 0.0 0.0 .
471(11) 0.0 0.0 .
471(11) 0.0 0.0 .
497(12) 0.0 0.0 .
513(13) 0.0 0.0 .
480(12) 0.0 0.0 .
478(11) 0.0 0.0 .
477(11) 0.0 0.0 .
473(12) 0.0 0.0 .
516(13) 0.0 0.0 .
508(12) 0.0 0.0 .
525(12) 0.0 0.0 .
522(12) 0.0 0.0 .
521(12) 0.0 0.0 .
516(12) 0.0 0.0 .
548(13) 0.0 0.0 .
527(12) 0.0 0.0 .
550(12) 0.0 0.0 .
546(13) 0.0 0.0 .
569(13) 0.0 0.0 .
571(13) 0.0 0.0 .
522(12) 0.0 0.0 .
545(13) 0.0 0.0 .
561(13) 0.0 0.0 .
553(13) 0.0 0.0 .
548(12) 0.0 0.0 .
587(13) 0.0 0.0 .
569(13) 0.0 0.0 .
560(13) 0.0 0.0 .
574(13) 0.0 0.0 .
622(13) 0.0 0.0 .
607(13) 0.0 0.0 .
600(13) 0.0 0.0 .
602(13) 0.0 0.0 .
596(13) 0.0 0.0 .
600(13) 0.0 0.0 .
594(13) 0.0 0.0 .
631(14) 0.0 0.0 .
605(13) 0.0 0.0 .
626(13) 0.0 0.0 .
617(13) 0.0 0.0 .
620(13) 0.0 0.0 .
636(14) 0.0 0.0 .
658(14) 0.0 0.0 .
648(14) 0.0 0.0 .
645(13) 0.0 0.0 .
640(13) 0.0 0.0 .
645(14) 0.0 0.0 .
661(14) 0.0 0.0 .
645(13) 0.0 0.0 .
661(13) 0.0 0.0 .
681(13) 0.0 0.0 .
671(14) 0.0 0.0 .
678(15) 0.0 0.0 .
670(14) 0.0 0.0 .
697(14) 0.0 0.0 .
668(13) 0.0 0.0 .
681(14) 0.0 0.0 .
653(14) 0.0 0.0 .
684(14) 0.0 0.0 .
679(14) 0.0 0.0 .
684(14) 0.0 0.0 .
667(14) 0.0 0.0 .
670(14) 0.0 0.0 .
671(14) 0.0 0.0 .
700(14) 0.0 0.0 .
664(14) 0.0 0.0 .
717(14) 0.0 0.0 .
750(15) 0.0 0.0 .
740(15) 0.0 0.0 .
716(14) 0.0 0.0 .
701(14) 0.0 0.0 .
735(15) 0.0 0.0 .
739(15) 0.0 0.0 .
755(15) 0.0 0.0 .
727(14) 0.0 0.0 .
724(14) 0.0 0.0 .
706(14) 0.0 0.0 .
744(15) 0.0 0.0 .
755(15) 0.0 0.0 .
754(14) 0.0 0.0 .
728(14) 0.0 0.0 .
767(15) 0.0 0.0 .
796(15) 0.0 0.0 .
772(15) 0.0 0.0 .
761(14) 0.0 0.0 .
788(15) 0.0 0.0 .
777(15) 0.0 0.0 .
786(15) 0.0 0.0 .
788(15) 0.0 0.0 .
764(14) 0.0 0.0 .
798(15) 0.0 0.0 .
780(16) 0.0 0.0 .
747(15) 0.0 0.0 .
804(15) 0.0 0.0 .
779(15) 0.0 0.0 .
822(15) 0.0 0.0 .
821(16) 0.0 0.0 .
802(15) 0.0 0.0 .
805(15) 0.0 0.0 .
816(15) 0.0 0.0 .
817(15) 0.0 0.0 .
845(16) 0.0 0.0 .
845(15) 0.0 0.0 .
826(15) 0.0 0.0 .
822(15) 0.0 0.0 .
830(15) 0.0 0.0 .
904(17) 0.0 0.0 .
862(16) 0.0 0.0 .
865(15) 0.0 0.0 .
813(15) 0.0 0.0 .
877(16) 0.0 0.0 .
842(16) 0.0 0.0 .
874(16) 0.0 0.0 .
838(15) 0.0 0.0 .
857(15) 0.0 0.0 .
868(16) 0.0 0.0 .
892(16) 0.0 0.0 .
831(16) 0.0 0.0 .
805(15) 0.0 0.0 .
846(15) 0.0 0.0 .
906(16) 0.0 0.0 .
832(15) 0.0 0.0 .
886(16) 0.0 0.0 .
867(15) 0.0 0.0 .
860(16) 0.0 0.0 .
883(16) 0.0 0.0 .
853(16) 0.0 0.0 .
867(16) 0.0 0.0 .
904(16) 0.0 0.0 .
887(16) 0.0 0.0 .
865(16) 0.0 0.0 .
886(16) 0.0 0.0 .
910(16) 0.0 0.0 .
876(15) 0.0 0.0 .
844(16) 0.0 0.0 .
905(17) 0.0 0.0 .
930(16) 0.0 0.0 .
877(15) 0.0 0.0 .
884(15) 0.0 0.0 .
872(16) 0.0 0.0 .
902(16) 0.0 0.0 .
921(16) 0.0 0.0 .
863(15) 0.0 0.0 .
927(16) 0.0 0.0 .
877(16) 0.0 0.0 .
899(17) 0.0 0.0 .
942(16) 0.0 0.0 .
888(15) 0.0 0.0 .
895(15) 0.0 0.0 .
914(16) 0.0 0.0 .
918(17) 0.0 0.0 .
892(16) 0.0 0.0 .
945(16) 0.0 0.0 .
934(16) 0.0 0.0 .
975(17) 0.0 0.0 .
961(17) 0.0 0.0 .
937(16) 0.0 0.0 .
938(16) 0.0 0.0 .
953(16) 0.0 0.0 .
944(16) 0.0 0.0 .
960(17) 0.0 0.0 .
986(17) 0.0 0.0 .
887(15) 0.0 0.0 .
909(16) 0.0 0.0 .
894(16) 0.0 0.0 .
889(16) 0.0 0.0 .
906(16) 0.0 0.0 .
972(16) 0.0 0.0 .
901(16) 0.0 0.0 .
968(17) 0.0 0.0 .
972(17) 0.0 0.0 .
979(17) 0.0 0.0 .
904(16) 0.0 0.0 .
951(16) 0.0 0.0 .
981(17) 0.0 0.0 .
988(17) 0.0 0.0 .
977(16) 0.0 0.0 .
945(16) 0.0 0.0 .
982(17) 0.0 0.0 .
1012(18) 0.0 0.0 .
961(17) 0.0 0.0 .
950(16) 0.0 0.0 .
957(16) 0.0 0.0 .
995(17) 0.0 0.0 .
965(17) 0.0 0.0 .
980(17) 0.0 0.0 .
962(16) 0.0 0.0 .
970(16) 0.0 0.0 .
959(17) 0.0 0.0 .
995(17) 0.0 0.0 .
1026(17) 0.0 0.0 .
1024(17) 0.0 0.0 .
985(16) 0.0 0.0 .
941(16) 0.0 0.0 .
1014(18) 0.0 0.0 .
990(17) 0.0 0.0 .
1016(17) 0.0 0.0 .
1005(16) 0.0 0.0 .
1049(17) 0.0 0.0 .
1015(18) 0.0 0.0 .
964(17) 0.0 0.0 .
981(16) 0.0 0.0 .
1009(17) 0.0 0.0 .
1002(17) 0.0 0.0 .
1003(17) 0.0 0.0 .
1014(17) 0.0 0.0 .
998(16) 0.0 0.0 .
1082(17) 0.0 0.0 .
1016(17) 0.0 0.0 .
987(17) 0.0 0.0 .
1063(18) 0.0 0.0 .
982(16) 0.0 0.0 .
1041(17) 0.0 0.0 .
1050(17) 0.0 0.0 .
1013(17) 0.0 0.0 .
1028(17) 0.0 0.0 .
1036(17) 0.0 0.0 .
1007(17) 0.0 0.0 .
1068(18) 0.0 0.0 .
1104(18) 0.0 0.0 .
1074(18) 0.0 0.0 .
1115(17) 0.0 0.0 .
1032(17) 0.0 0.0 .
1052(18) 0.0 0.0 .
1077(18) 0.0 0.0 .
1035(17) 0.0 0.0 .
1063(17) 0.0 0.0 .
1119(18) 0.0 0.0 .
1116(18) 0.0 0.0 .
1092(18) 0.0 0.0 .
1097(18) 0.0 0.0 .
1103(17) 0.0 0.0 .
1099(18) 0.0 0.0 .
1106(18) 0.0 0.0 .
1123(18) 0.0 0.0 .
1167(18) 0.0 0.0 .
1146(18) 0.0 0.0 .
1134(18) 0.0 0.0 .
1105(18) 0.0 0.0 .
1104(18) 0.0 0.0 .
1145(18) 0.0 0.0 .
1197(18) 0.0 0.0 .
1119(18) 0.0 0.0 .
1113(18) 0.0 0.0 .
1207(19) 0.0 0.0 .
1133(18) 0.0 0.0 .
1165(18) 0.0 0.0 .
1138(18) 0.0 0.0 .
1166(19) 0.0 0.0 .
1169(18) 0.0 0.0 .
1149(18) 0.0 0.0 .
1141(18) 0.0 0.0 .
1211(19) 0.0 0.0 .
1126(19) 0.0 0.0 .
1158(18) 0.0 0.0 .
1153(18) 0.0 0.0 .
1195(18) 0.0 0.0 .
1212(19) 0.0 0.0 .
1169(19) 0.0 0.0 .
1173(18) 0.0 0.0 .
1190(18) 0.0 0.0 .
1166(18) 0.0 0.0 .
1199(19) 0.0 0.0 .
1204(19) 0.0 0.0 .
1186(18) 0.0 0.0 .
1197(18) 0.0 0.0 .
1214(18) 0.0 0.0 .
1224(19) 0.0 0.0 .
1212(19) 0.0 0.0 .
1147(18) 0.0 0.0 .
1176(18) 0.0 0.0 .
1168(18) 0.0 0.0 .
1211(19) 0.0 0.0 .
1247(19) 0.0 0.0 .
1268(19) 0.0 0.0 .
1190(18) 0.0 0.0 .
1231(19) 0.0 0.0 .
1212(19) 0.0 0.0 .
1218(19) 0.0 0.0 .
1207(18) 0.0 0.0 .
1254(18) 0.0 0.0 .
1233(19) 0.0 0.0 .
1230(19) 0.0 0.0 .
1253(19) 0.0 0.0 .
1154(18) 0.0 0.0 .
1257(18) 0.0 0.0 .
1215(19) 0.0 0.0 .
1261(19) 0.0 0.0 .
1261(19) 0.0 0.0 .
1240(18) 0.0 0.0 .
1260(18) 0.0 0.0 .
1239(19) 0.0 0.0 .
1246(19) 0.0 0.0 .
1219(19) 0.0 0.0 .
1253(19) 0.0 0.0 .
1256(18) 0.0 0.0 .
1228(19) 0.0 0.0 .
1228(19) 0.0 0.0 .
1254(19) 0.0 0.0 .
1275(19) 0.0 0.0 .
1268(18) 0.0 0.0 .
1254(19) 0.0 0.0 .
1250(20) 0.0 0.0 .
1236(19) 0.0 0.0 .
1245(18) 0.0 0.0 .
1264(19) 0.0 0.0 .
1274(19) 0.0 0.0 .
1215(19) 0.0 0.0 .
1228(19) 0.0 0.0 .
1214(18) 0.0 0.0 .
1249(19) 0.0 0.0 .
1229(19) 0.0 0.0 .
1286(20) 0.0 0.0 .
1227(19) 0.0 0.0 .
1217(18) 0.0 0.0 .
1266(19) 0.0 0.0 .
1240(19) 0.0 0.0 .
1257(19) 0.0 0.0 .
1241(19) 0.0 0.0 .
1171(18) 0.0 0.0 .
1221(18) 0.0 0.0 .
1225(19) 0.0 0.0 .
1214(19) 0.0 0.0 .
1222(19) 0.0 0.0 .
1284(19) 0.0 0.0 .
1216(18) 0.0 0.0 .
1220(19) 0.0 0.0 .
1222(19) 0.0 0.0 .
1212(18) 0.0 0.0 .
1221(18) 0.0 0.0 .
1209(19) 0.0 0.0 .
1221(19) 0.0 0.0 .
1250(19) 0.0 0.0 .
1207(18) 0.0 0.0 .
1223(18) 0.0 0.0 .
1252(19) 0.0 0.0 .
1227(19) 0.0 0.0 .
1231(19) 0.0 0.0 .
1233(18) 0.0 0.0 .
1246(18) 0.0 0.0 .
1297(19) 0.0 0.0 .
1220(19) 0.0 0.0 .
1196(18) 0.0 0.0 .
1185(18) 0.0 0.0 .
1253(18) 0.0 0.0 .
1232(19) 0.0 0.0 .
1236(20) 0.0 0.0 .
1248(19) 0.0 0.0 .
1268(19) 0.0 0.0 .
1278(19) 0.0 0.0 .
1213(19) 0.0 0.0 .
1240(20) 0.0 0.0 .
1248(19) 0.0 0.0 .
1229(18) 0.0 0.0 .
1202(18) 0.0 0.0 .
1198(19) 0.0 0.0 .
1223(19) 0.0 0.0 .
1251(19) 0.0 0.0 .
1237(18) 0.0 0.0 .
1236(18) 0.0 0.0 .
1245(19) 0.0 0.0 .
1253(20) 0.0 0.0 .
1232(19) 0.0 0.0 .
1234(18) 0.0 0.0 .
1176(18) 0.0 0.0 .
1231(19) 0.0 0.0 .
1244(19) 0.0 0.0 .
1281(19) 0.0 0.0 .
1184(18) 0.0 0.0 .
1222(18) 0.0 0.0 .
1210(19) 0.0 0.0 .
1225(19) 0.0 0.0 .
1203(19) 0.0 0.0 .
1190(18) 0.0 0.0 .
1213(18) 0.0 0.0 .
1208(19) 0.0 0.0 .
1217(19) 0.0 0.0 .
1250(19) 0.0 0.0 .
1280(19) 0.0 0.0 .
1277(19) 0.0 0.0 .
1206(19) 0.0 0.0 .
1174(19) 0.0 0.0 .
1210(19) 0.0 0.0 .
1233(18) 0.0 0.0 .
1195(19) 0.0 0.0 .
1226(19) 0.0 0.0 .
1221(19) 0.0 0.0 .
1247(19) 0.0 0.0 .
1226(18) 0.0 0.0 .
1245(19) 0.0 0.0 .
1223(19) 0.0 0.0 .
1251(19) 0.0 0.0 .
1209(18) 0.0 0.0 .
1217(18) 0.0 0.0 .
1189(19) 0.0 0.0 .
1231(19) 0.0 0.0 .
1235(19) 0.0 0.0 .
1188(18) 0.0 0.0 .
1191(18) 0.0 0.0 .
1250(19) 0.0 0.0 .
1225(20) 0.0 0.0 .
1241(19) 0.0 0.0 .
1222(18) 0.0 0.0 .
1207(18) 0.0 0.0 .
1207(19) 0.0 0.0 .
1227(20) 0.0 0.0 .
1195(19) 0.0 0.0 .
1198(18) 0.0 0.0 .
1221(18) 0.0 0.0 .
1174(18) 0.0 0.0 .
1262(20) 0.0 0.0 .
1193(18) 0.0 0.0 .
1258(18) 0.0 0.0 .
1217(18) 0.0 0.0 .
1157(18) 0.0 0.0 .
1193(19) 0.0 0.0 .
1192(19) 0.0 0.0 .
1193(18) 0.0 0.0 .
1209(18) 0.0 0.0 .
1198(19) 0.0 0.0 .
1220(19) 0.0 0.0 .
1236(19) 0.0 0.0 .
1164(18) 0.0 0.0 .
1168(18) 0.0 0.0 .
1202(19) 0.0 0.0 .
1199(19) 0.0 0.0 .
1218(19) 0.0 0.0 .
1195(18) 0.0 0.0 .
1201(18) 0.0 0.0 .
1194(19) 0.0 0.0 .
1205(19) 0.0 0.0 .
1225(18) 0.0 0.0 .
1243(18) 0.0 0.0 .
1203(19) 0.0 0.0 .
1194(19) 0.0 0.0 .
1190(19) 0.0 0.0 .
1224(19) 0.0 0.0 .
1192(18) 0.0 0.0 .
1213(19) 0.0 0.0 .
1176(19) 0.0 0.0 .
1226(19) 0.0 0.0 .
1220(18) 0.0 0.0 .
1188(18) 0.0 0.0 .
1240(19) 0.0 0.0 .
1122(18) 0.0 0.0 .
1256(19) 0.0 0.0 .
1155(18) 0.0 0.0 .
1213(18) 0.0 0.0 .
1191(18) 0.0 0.0 .
1173(19) 0.0 0.0 .
1182(18) 0.0 0.0 .
1163(18) 0.0 0.0 .
1212(18) 0.0 0.0 .
1201(18) 0.0 0.0 .
1178(19) 0.0 0.0 .
1160(18) 0.0 0.0 .
1194(18) 0.0 0.0 .
1181(18) 0.0 0.0 .
1164(18) 0.0 0.0 .
1132(19) 0.0 0.0 .
1199(19) 0.0 0.0 .
1156(18) 0.0 0.0 .
1186(18) 0.0 0.0 .
1183(19) 0.0 0.0 .
1136(18) 0.0 0.0 .
1191(19) 0.0 0.0 .
1157(18) 0.0 0.0 .
1176(18) 0.0 0.0 .
1180(18) 0.0 0.0 .
1186(19) 0.0 0.0 .
1166(18) 0.0 0.0 .
1158(18) 0.0 0.0 .
1152(18) 0.0 0.0 .
1214(19) 0.0 0.0 .
1158(18) 0.0 0.0 .
1164(18) 0.0 0.0 .
1158(18) 0.0 0.0 .
1206(19) 0.0 0.0 .
1167(19) 0.0 0.0 .
1144(18) 0.0 0.0 .
1184(18) 0.0 0.0 .
1144(18) 0.0 0.0 .
1211(19) 0.0 0.0 .
1133(18) 0.0 0.0 .
1168(18) 0.0 0.0 .
1133(18) 0.0 0.0 .
1089(17) 0.0 0.0 .
1158(18) 0.0 0.0 .
1109(18) 0.0 0.0 .
1143(18) 0.0 0.0 .
1179(18) 0.0 0.0 .
1191(18) 0.0 0.0 .
1166(18) 0.0 0.0 .
1158(19) 0.0 0.0 .
1128(18) 0.0 0.0 .
1162(18) 0.0 0.0 .
1152(18) 0.0 0.0 .
1154(18) 0.0 0.0 .
1131(19) 0.0 0.0 .
1129(18) 0.0 0.0 .
1128(18) 0.0 0.0 .
1136(17) 0.0 0.0 .
1144(18) 0.0 0.0 .
1122(19) 0.0 0.0 .
1148(18) 0.0 0.0 .
1127(17) 0.0 0.0 .
1122(17) 0.0 0.0 .
1113(18) 0.0 0.0 .
1175(19) 0.0 0.0 .
1195(19) 0.0 0.0 .
1132(17) 0.0 0.0 .
1124(18) 0.0 0.0 .
1131(18) 0.0 0.0 .
1103(18) 0.0 0.0 .
1120(18) 0.0 0.0 .
1141(18) 0.0 0.0 .
1140(18) 0.0 0.0 .
1124(18) 0.0 0.0 .
1099(18) 0.0 0.0 .
1110(18) 0.0 0.0 .
1080(17) 0.0 0.0 .
1112(18) 0.0 0.0 .
1137(18) 0.0 0.0 .
1154(18) 0.0 0.0 .
1096(18) 0.0 0.0 .
1102(17) 0.0 0.0 .
1109(18) 0.0 0.0 .
1093(18) 0.0 0.0 .
1113(18) 0.0 0.0 .
1135(18) 0.0 0.0 .
1069(17) 0.0 0.0 .
1103(18) 0.0 0.0 .
1103(18) 0.0 0.0 .
1091(18) 0.0 0.0 .
1084(17) 0.0 0.0 .
1128(17) 0.0 0.0 .
1118(18) 0.0 0.0 .
1116(18) 0.0 0.0 .
1107(18) 0.0 0.0 .
1132(18) 0.0 0.0 .
1117(17) 0.0 0.0 .
1081(18) 0.0 0.0 .
1053(18) 0.0 0.0 .
1081(18) 0.0 0.0 .
1111(17) 0.0 0.0 .
1076(17) 0.0 0.0 .
1076(18) 0.0 0.0 .
1046(18) 0.0 0.0 .
1151(18) 0.0 0.0 .
1077(17) 0.0 0.0 .
1108(17) 0.0 0.0 .
1065(17) 0.0 0.0 .
1087(18) 0.0 0.0 .
1109(18) 0.0 0.0 .
1067(17) 0.0 0.0 .
1105(17) 0.0 0.0 .
1053(18) 0.0 0.0 .
1071(18) 0.0 0.0 .
1058(17) 0.0 0.0 .
1083(17) 0.0 0.0 .
1119(18) 0.0 0.0 .
1039(17) 0.0 0.0 .
1060(18) 0.0 0.0 .
1084(18) 0.0 0.0 .
1070(17) 0.0 0.0 .
1108(18) 0.0 0.0 .
1051(17) 0.0 0.0 .
1056(18) 0.0 0.0 .
1031(17) 0.0 0.0 .
1077(17) 0.0 0.0 .
1080(17) 0.0 0.0 .
1084(18) 0.0 0.0 .
1041(18) 0.0 0.0 .
1076(18) 0.0 0.0 .
1100(17) 0.0 0.0 .
1066(17) 0.0 0.0 .
1048(18) 0.0 0.0 .
1023(17) 0.0 0.0 .
1026(17) 0.0 0.0 .
1050(17) 0.0 0.0 .
1053(17) 0.0 0.0 .
1091(18) 0.0 0.0 .
1056(18) 0.0 0.0 .
1062(17) 0.0 0.0 .
1086(17) 0.0 0.0 .
1012(17) 0.0 0.0 .
1061(18) 0.0 0.0 .
1045(17) 0.0 0.0 .
1041(17) 0.0 0.0 .
1073(17) 0.0 0.0 .
1071(18) 0.0 0.0 .
1019(17) 0.0 0.0 .
1030(17) 0.0 0.0 .
1057(17) 0.0 0.0 .
1043(17) 0.0 0.0 .
1048(17) 0.0 0.0 .
1054(18) 0.0 0.0 .
1053(17) 0.0 0.0 .
1015(17) 0.0 0.0 .
1054(17) 0.0 0.0 .
1026(17) 0.0 0.0 .
1002(18) 0.0 0.0 .
1019(17) 0.0 0.0 .
1044(17) 0.0 0.0 .
1053(17) 0.0 0.0 .
1025(17) 0.0 0.0 .
1028(18) 0.0 0.0 .
993(17) 0.0 0.0 .
1028(17) 0.0 0.0 .
1034(17) 0.0 0.0 .
1067(18) 0.0 0.0 .
1012(17) 0.0 0.0 .
1056(18) 0.0 0.0 .
974(16) 0.0 0.0 .
965(16) 0.0 0.0 .
1014(17) 0.0 0.0 .
1012(17) 0.0 0.0 .
1044(17) 0.0 0.0 .
1026(17) 0.0 0.0 .
1101(18) 0.0 0.0 .
1068(18) 0.0 0.0 .
1050(18) 0.0 0.0 .
1030(17) 0.0 0.0 .
989(16) 0.0 0.0 .
1008(17) 0.0 0.0 .
970(17) 0.0 0.0 .
1019(17) 0.0 0.0 .
1031(17) 0.0 0.0 .
988(16) 0.0 0.0 .
1021(17) 0.0 0.0 .
960(17) 0.0 0.0 .
967(17) 0.0 0.0 .
1006(17) 0.0 0.0 .
991(16) 0.0 0.0 .
1029(17) 0.0 0.0 .
1008(17) 0.0 0.0 .
974(17) 0.0 0.0 .
991(17) 0.0 0.0 .
1011(16) 0.0 0.0 .
984(17) 0.0 0.0 .
974(17) 0.0 0.0 .
955(16) 0.0 0.0 .
963(16) 0.0 0.0 .
1002(16) 0.0 0.0 .
966(17) 0.0 0.0 .
965(17) 0.0 0.0 .
978(17) 0.0 0.0 .
977(16) 0.0 0.0 .
992(16) 0.0 0.0 .
948(17) 0.0 0.0 .
955(17) 0.0 0.0 .
971(17) 0.0 0.0 .
997(16) 0.0 0.0 .
997(16) 0.0 0.0 .
1017(17) 0.0 0.0 .
966(17) 0.0 0.0 .
990(17) 0.0 0.0 .
965(16) 0.0 0.0 .
973(16) 0.0 0.0 .
996(17) 0.0 0.0 .
1012(18) 0.0 0.0 .
1047(17) 0.0 0.0 .
974(16) 0.0 0.0 .
947(16) 0.0 0.0 .
966(17) 0.0 0.0 .
968(17) 0.0 0.0 .
988(17) 0.0 0.0 .
953(16) 0.0 0.0 .
947(16) 0.0 0.0 .
992(17) 0.0 0.0 .
971(17) 0.0 0.0 .
988(17) 0.0 0.0 .
925(16) 0.0 0.0 .
957(16) 0.0 0.0 .
942(16) 0.0 0.0 .
1005(17) 0.0 0.0 .
1007(17) 0.0 0.0 .
980(16) 0.0 0.0 .
950(16) 0.0 0.0 .
979(17) 0.0 0.0 .
980(17) 0.0 0.0 .
959(16) 0.0 0.0 .
962(16) 0.0 0.0 .
979(17) 0.0 0.0 .
970(17) 0.0 0.0 .
939(16) 0.0 0.0 .
970(16) 0.0 0.0 .
952(16) 0.0 0.0 .
970(17) 0.0 0.0 .
959(17) 0.0 0.0 .
966(17) 0.0 0.0 .
971(16) 0.0 0.0 .
959(16) 0.0 0.0 .
937(16) 0.0 0.0 .
936(17) 0.0 0.0 .
972(17) 0.0 0.0 .
959(16) 0.0 0.0 .
936(16) 0.0 0.0 .
926(16) 0.0 0.0 .
975(17) 0.0 0.0 .
988(17) 0.0 0.0 .
996(16) 0.0 0.0 .
921(16) 0.0 0.0 .
972(16) 0.0 0.0 .
954(17) 0.0 0.0 .
997(17) 0.0 0.0 .
937(16) 0.0 0.0 .
962(16) 0.0 0.0 .
947(17) 0.0 0.0 .
938(17) 0.0 0.0 .
963(17) 0.0 0.0 .
941(16) 0.0 0.0 .
972(16) 0.0 0.0 .
940(16) 0.0 0.0 .
967(17) 0.0 0.0 .
967(17) 0.0 0.0 .
925(16) 0.0 0.0 .
948(16) 0.0 0.0 .
912(16) 0.0 0.0 .
968(17) 0.0 0.0 .
909(16) 0.0 0.0 .
912(16) 0.0 0.0 .
929(16) 0.0 0.0 .
961(17) 0.0 0.0 .
947(17) 0.0 0.0 .
915(16) 0.0 0.0 .
878(15) 0.0 0.0 .
946(16) 0.0 0.0 .
942(17) 0.0 0.0 .
960(17) 0.0 0.0 .
917(16) 0.0 0.0 .
925(16) 0.0 0.0 .
929(16) 0.0 0.0 .
918(16) 0.0 0.0 .
919(16) 0.0 0.0 .
941(16) 0.0 0.0 .
974(16) 0.0 0.0 .
984(17) 0.0 0.0 .
940(17) 0.0 0.0 .
961(17) 0.0 0.0 .
930(16) 0.0 0.0 .
931(16) 0.0 0.0 .
941(17) 0.0 0.0 .
928(17) 0.0 0.0 .
946(17) 0.0 0.0 .
928(16) 0.0 0.0 .
936(16) 0.0 0.0 .
960(17) 0.0 0.0 .
896(16) 0.0 0.0 .
946(17) 0.0 0.0 .
910(16) 0.0 0.0 .
919(16) 0.0 0.0 .
909(16) 0.0 0.0 .
888(16) 0.0 0.0 .
912(16) 0.0 0.0 .
897(16) 0.0 0.0 .
884(16) 0.0 0.0 .
896(16) 0.0 0.0 .
908(17) 0.0 0.0 .
933(17) 0.0 0.0 .
907(16) 0.0 0.0 .
915(16) 0.0 0.0 .
844(15) 0.0 0.0 .
917(17) 0.0 0.0 .
897(16) 0.0 0.0 .
951(16) 0.0 0.0 .
917(16) 0.0 0.0 .
898(16) 0.0 0.0 .
881(16) 0.0 0.0 .
905(16) 0.0 0.0 .
946(16) 0.0 0.0 .
881(16) 0.0 0.0 .
892(16) 0.0 0.0 .
833(16) 0.0 0.0 .
887(16) 0.0 0.0 .
876(15) 0.0 0.0 .
886(16) 0.0 0.0 .
912(16) 0.0 0.0 .
890(16) 0.0 0.0 .
927(16) 0.0 0.0 .
880(15) 0.0 0.0 .
881(16) 0.0 0.0 .
870(16) 0.0 0.0 .
910(16) 0.0 0.0 .
918(16) 0.0 0.0 .
887(15) 0.0 0.0 .
905(16) 0.0 0.0 .
903(16) 0.0 0.0 .
916(16) 0.0 0.0 .
916(16) 0.0 0.0 .
911(16) 0.0 0.0 .
895(16) 0.0 0.0 .
892(16) 0.0 0.0 .
867(16) 0.0 0.0 .
908(16) 0.0 0.0 .
937(16) 0.0 0.0 .
876(16) 0.0 0.0 .
873(16) 0.0 0.0 .
891(16) 0.0 0.0 .
889(15) 0.0 0.0 .
923(16) 0.0 0.0 .
886(16) 0.0 0.0 .
869(16) 0.0 0.0 .
887(16) 0.0 0.0 .
871(15) 0.0 0.0 .
871(15) 0.0 0.0 .
860(16) 0.0 0.0 .
847(16) 0.0 0.0 .
882(16) 0.0 0.0 .
908(16) 0.0 0.0 .
878(15) 0.0 0.0 .
873(16) 0.0 0.0 .
864(16) 0.0 0.0 .
826(15) 0.0 0.0 .
863(15) 0.0 0.0 .
866(15) 0.0 0.0 .
903(16) 0.0 0.0 .
845(16) 0.0 0.0 .
861(16) 0.0 0.0 .
853(15) 0.0 0.0 .
849(15) 0.0 0.0 .
851(16) 0.0 0.0 .
867(16) 0.0 0.0 .
874(16) 0.0 0.0 .
882(15) 0.0 0.0 .
864(16) 0.0 0.0 .
847(16) 0.0 0.0 .
854(16) 0.0 0.0 .
875(16) 0.0 0.0 .
844(15) 0.0 0.0 .
855(15) 0.0 0.0 .
863(16) 0.0 0.0 .
830(16) 0.0 0.0 .
801(15) 0.0 0.0 .
849(15) 0.0 0.0 .
886(16) 0.0 0.0 .
845(16) 0.0 0.0 .
843(16) 0.0 0.0 .
819(15) 0.0 0.0 .
859(15) 0.0 0.0 .
856(16) 0.0 0.0 .
843(16) 0.0 0.0 .
831(16) 0.0 0.0 .
833(15) 0.0 0.0 .
854(15) 0.0 0.0 .
818(15) 0.0 0.0 .
828(16) 0.0 0.0 .
823(15) 0.0 0.0 .
879(16) 0.0 0.0 .
829(15) 0.0 0.0 .
810(15) 0.0 0.0 .
820(16) 0.0 0.0 .
833(15) 0.0 0.0 .
822(15) 0.0 0.0 .
817(15) 0.0 0.0 .
833(16) 0.0 0.0 .
840(16) 0.0 0.0 .
820(15) 0.0 0.0 .
810(15) 0.0 0.0 .
824(15) 0.0 0.0 .
872(16) 0.0 0.0 .
861(16) 0.0 0.0 .
833(15) 0.0 0.0 .
891(15) 0.0 0.0 .
856(15) 0.0 0.0 .
806(15) 0.0 0.0 .
796(15) 0.0 0.0 .
822(15) 0.0 0.0 .
872(15) 0.0 0.0 .
830(15) 0.0 0.0 .
836(16) 0.0 0.0 .
842(16) 0.0 0.0 .
849(16) 0.0 0.0 .
803(15) 0.0 0.0 .
820(15) 0.0 0.0 .
833(15) 0.0 0.0 .
853(16) 0.0 0.0 .
822(15) 0.0 0.0 .
829(15) 0.0 0.0 .
826(15) 0.0 0.0 .
817(15) 0.0 0.0 .
843(15) 0.0 0.0 .
811(15) 0.0 0.0 .
833(15) 0.0 0.0 .
868(16) 0.0 0.0 .
854(16) 0.0 0.0 .
829(15) 0.0 0.0 .
842(15) 0.0 0.0 .
833(15) 0.0 0.0 .
783(15) 0.0 0.0 .
790(15) 0.0 0.0 .
811(15) 0.0 0.0 .
787(15) 0.0 0.0 .
814(15) 0.0 0.0 .
880(16) 0.0 0.0 .
779(15) 0.0 0.0 .
782(15) 0.0 0.0 .
821(15) 0.0 0.0 .
778(14) 0.0 0.0 .
760(15) 0.0 0.0 .
798(16) 0.0 0.0 .
770(15) 0.0 0.0 .
792(15) 0.0 0.0 .
810(15) 0.0 0.0 .
789(15) 0.0 0.0 .
811(16) 0.0 0.0 .
791(15) 0.0 0.0 .
787(15) 0.0 0.0 .
801(15) 0.0 0.0 .
777(15) 0.0 0.0 .
783(15) 0.0 0.0 .
775(15) 0.0 0.0 .
801(15) 0.0 0.0 .
807(15) 0.0 0.0 .
778(15) 0.0 0.0 .
780(15) 0.0 0.0 .
778(15) 0.0 0.0 .
779(14) 0.0 0.0 .
764(15) 0.0 0.0 .
775(15) 0.0 0.0 .
804(16) 0.0 0.0 .
781(15) 0.0 0.0 .
783(15) 0.0 0.0 .
797(15) 0.0 0.0 .
775(15) 0.0 0.0 .
798(15) 0.0 0.0 .
795(15) 0.0 0.0 .
739(14) 0.0 0.0 .
793(15) 0.0 0.0 .
798(15) 0.0 0.0 .
815(15) 0.0 0.0 .
761(15) 0.0 0.0 .
768(14) 0.0 0.0 .
832(15) 0.0 0.0 .
775(15) 0.0 0.0 .
720(14) 0.0 0.0 .
760(14) 0.0 0.0 .
782(15) 0.0 0.0 .
735(15) 0.0 0.0 .
781(15) 0.0 0.0 .
775(15) 0.0 0.0 .
762(15) 0.0 0.0 .
774(14) 0.0 0.0 .
777(15) 0.0 0.0 .
752(15) 0.0 0.0 .
777(15) 0.0 0.0 .
777(15) 0.0 0.0 .
796(15) 0.0 0.0 .
754(15) 0.0 0.0 .
753(15) 0.0 0.0 .
747(15) 0.0 0.0 .
705(14) 0.0 0.0 .
753(14) 0.0 0.0 .
724(14) 0.0 0.0 .
739(15) 0.0 0.0 .
769(15) 0.0 0.0 .
739(14) 0.0 0.0 .
715(14) 0.0 0.0 .
742(15) 0.0 0.0 .
758(15) 0.0 0.0 .
749(15) 0.0 0.0 .
735(14) 0.0 0.0 .
746(14) 0.0 0.0 .
755(15) 0.0 0.0 .
720(15) 0.0 0.0 .
715(14) 0.0 0.0 .
792(15) 0.0 0.0 .
758(14) 0.0 0.0 .
754(15) 0.0 0.0 .
713(15) 0.0 0.0 .
734(15) 0.0 0.0 .
727(14) 0.0 0.0 .
758(15) 0.0 0.0 .
719(14) 0.0 0.0 .
739(15) 0.0 0.0 .
738(15) 0.0 0.0 .
694(14) 0.0 0.0 .
746(15) 0.0 0.0 .
790(15) 0.0 0.0 .
735(14) 0.0 0.0 .
744(15) 0.0 0.0 .
717(14) 0.0 0.0 .
775(15) 0.0 0.0 .
737(15) 0.0 0.0 .
734(15) 0.0 0.0 .
789(15) 0.0 0.0 .
750(14) 0.0 0.0 .
716(14) 0.0 0.0 .
734(15) 0.0 0.0 .
747(15) 0.0 0.0 .
748(14) 0.0 0.0 .
727(14) 0.0 0.0 .
739(15) 0.0 0.0 .
710(14) 0.0 0.0 .
761(15) 0.0 0.0 .
742(14) 0.0 0.0 .
709(14) 0.0 0.0 .
731(15) 0.0 0.0 .
736(15) 0.0 0.0 .
730(14) 0.0 0.0 .
752(14) 0.0 0.0 .
741(14) 0.0 0.0 .
722(14) 0.0 0.0 .
748(15) 0.0 0.0 .
725(14) 0.0 0.0 .
669(13) 0.0 0.0 .
736(14) 0.0 0.0 .
700(14) 0.0 0.0 .
740(15) 0.0 0.0 .
723(14) 0.0 0.0 .
711(14) 0.0 0.0 .
699(14) 0.0 0.0 .
715(14) 0.0 0.0 .
738(15) 0.0 0.0 .
734(14) 0.0 0.0 .
749(14) 0.0 0.0 .
760(15) 0.0 0.0 .
760(15) 0.0 0.0 .
722(15) 0.0 0.0 .
717(14) 0.0 0.0 .
756(14) 0.0 0.0 .
720(14) 0.0 0.0 .
689(14) 0.0 0.0 .
731(15) 0.0 0.0 .
724(14) 0.0 0.0 .
720(14) 0.0 0.0 .
698(14) 0.0 0.0 .
702(14) 0.0 0.0 .
701(14) 0.0 0.0 .
724(14) 0.0 0.0 .
741(14) 0.0 0.0 .
712(14) 0.0 0.0 .
694(14) 0.0 0.0 .
693(14) 0.0 0.0 .
717(14) 0.0 0.0 .
749(14) 0.0 0.0 .
718(14) 0.0 0.0 .
702(14) 0.0 0.0 .
692(14) 0.0 0.0 .
733(14) 0.0 0.0 .
689(14) 0.0 0.0 .
750(15) 0.0 0.0 .
703(14) 0.0 0.0 .
708(14) 0.0 0.0 .
721(14) 0.0 0.0 .
655(13) 0.0 0.0 .
719(14) 0.0 0.0 .
693(14) 0.0 0.0 .
695(14) 0.0 0.0 .
718(14) 0.0 0.0 .
702(14) 0.0 0.0 .
712(14) 0.0 0.0 .
729(15) 0.0 0.0 .
705(14) 0.0 0.0 .
720(14) 0.0 0.0 .
676(13) 0.0 0.0 .
743(14) 0.0 0.0 .
721(15) 0.0 0.0 .
671(14) 0.0 0.0 .
691(14) 0.0 0.0 .
687(14) 0.0 0.0 .
718(14) 0.0 0.0 .
722(15) 0.0 0.0 .
672(14) 0.0 0.0 .
720(14) 0.0 0.0 .
727(14) 0.0 0.0 .
700(14) 0.0 0.0 .
731(15) 0.0 0.0 .
660(14) 0.0 0.0 .
693(14) 0.0 0.0 .
667(14) 0.0 0.0 .
717(15) 0.0 0.0 .
676(14) 0.0 0.0 .
733(15) 0.0 0.0 .
703(14) 0.0 0.0 .
705(14) 0.0 0.0 .
729(15) 0.0 0.0 .
724(15) 0.0 0.0 .
679(14) 0.0 0.0 .
682(14) 0.0 0.0 .
707(14) 0.0 0.0 .
721(15) 0.0 0.0 .
681(14) 0.0 0.0 .
682(14) 0.0 0.0 .
712(14) 0.0 0.0 .
704(14) 0.0 0.0 .
693(14) 0.0 0.0 .
709(14) 0.0 0.0 .
716(14) 0.0 0.0 .
715(14) 0.0 0.0 .
706(14) 0.0 0.0 .
683(14) 0.0 0.0 .
702(14) 0.0 0.0 .
705(14) 0.0 0.0 .
678(13) 0.0 0.0 .
693(14) 0.0 0.0 .
697(15) 0.0 0.0 .
697(14) 0.0 0.0 .
694(14) 0.0 0.0 .
687(14) 0.0 0.0 .
700(14) 0.0 0.0 .
700(15) 0.0 0.0 .
684(14) 0.0 0.0 .
640(13) 0.0 0.0 .
681(14) 0.0 0.0 .
683(14) 0.0 0.0 .
666(15) 0.0 0.0 .
664(14) 0.0 0.0 .
663(13) 0.0 0.0 .
667(13) 0.0 0.0 .
702(14) 0.0 0.0 .
671(14) 0.0 0.0 .
685(14) 0.0 0.0 .
700(14) 0.0 0.0 .
679(14) 0.0 0.0 .
683(14) 0.0 0.0 .
678(14) 0.0 0.0 .
696(14) 0.0 0.0 .
687(14) 0.0 0.0 .
648(13) 0.0 0.0 .
662(14) 0.0 0.0 .
678(14) 0.0 0.0 .
654(14) 0.0 0.0 .
677(13) 0.0 0.0 .
677(14) 0.0 0.0 .
672(14) 0.0 0.0 .
666(14) 0.0 0.0 .
706(14) 0.0 0.0 .
698(14) 0.0 0.0 .
682(14) 0.0 0.0 .
679(14) 0.0 0.0 .
694(14) 0.0 0.0 .
677(14) 0.0 0.0 .
674(13) 0.0 0.0 .
648(14) 0.0 0.0 .
652(14) 0.0 0.0 .
623(13) 0.0 0.0 .
691(14) 0.0 0.0 .
680(14) 0.0 0.0 .
663(14) 0.0 0.0 .
661(14) 0.0 0.0 .
684(14) 0.0 0.0 .
643(13) 0.0 0.0 .
679(13) 0.0 0.0 .
658(14) 0.0 0.0 .
661(14) 0.0 0.0 .
685(14) 0.0 0.0 .
673(14) 0.0 0.0 .
667(13) 0.0 0.0 .
663(14) 0.0 0.0 .
658(14) 0.0 0.0 .
656(14) 0.0 0.0 .
635(13) 0.0 0.0 .
665(13) 0.0 0.0 .
634(13) 0.0 0.0 .
650(14) 0.0 0.0 .
678(14) 0.0 0.0 .
657(13) 0.0 0.0 .
675(14) 0.0 0.0 .
651(14) 0.0 0.0 .
635(14) 0.0 0.0 .
626(13) 0.0 0.0 .
687(14) 0.0 0.0 .
685(14) 0.0 0.0 .
667(14) 0.0 0.0 .
639(14) 0.0 0.0 .
682(14) 0.0 0.0 .
668(13) 0.0 0.0 .
648(13) 0.0 0.0 .
670(14) 0.0 0.0 .
658(14) 0.0 0.0 .
662(14) 0.0 0.0 .
654(13) 0.0 0.0 .
648(13) 0.0 0.0 .
640(13) 0.0 0.0 .
650(14) 0.0 0.0 .
661(14) 0.0 0.0 .
646(13) 0.0 0.0 .
685(14) 0.0 0.0 .
695(14) 0.0 0.0 .
687(14) 0.0 0.0 .
689(14) 0.0 0.0 .
650(13) 0.0 0.0 .
663(14) 0.0 0.0 .
635(14) 0.0 0.0 .
638(13) 0.0 0.0 .
661(14) 0.0 0.0 .
636(13) 0.0 0.0 .
649(14) 0.0 0.0 .
694(15) 0.0 0.0 .
684(14) 0.0 0.0 .
657(13) 0.0 0.0 .
667(13) 0.0 0.0 .
666(14) 0.0 0.0 .
644(14) 0.0 0.0 .
672(14) 0.0 0.0 .
656(13) 0.0 0.0 .
661(13) 0.0 0.0 .
672(14) 0.0 0.0 .
678(14) 0.0 0.0 .
673(14) 0.0 0.0 .
635(13) 0.0 0.0 .
663(13) 0.0 0.0 .
644(14) 0.0 0.0 .
644(14) 0.0 0.0 .
672(14) 0.0 0.0 .
668(13) 0.0 0.0 .
673(13) 0.0 0.0 .
650(14) 0.0 0.0 .
661(14) 0.0 0.0 .
685(14) 0.0 0.0 .
668(13) 0.0 0.0 .
669(13) 0.0 0.0 .
633(13) 0.0 0.0 .
621(14) 0.0 0.0 .
639(14) 0.0 0.0 .
643(13) 0.0 0.0 .
656(13) 0.0 0.0 .
671(14) 0.0 0.0 .
641(14) 0.0 0.0 .
646(14) 0.0 0.0 .
681(14) 0.0 0.0 .
661(13) 0.0 0.0 .
648(14) 0.0 0.0 .
677(14) 0.0 0.0 .
620(13) 0.0 0.0 .
635(13) 0.0 0.0 .
607(13) 0.0 0.0 .
627(14) 0.0 0.0 .
663(14) 0.0 0.0 .
660(14) 0.0 0.0 .
641(13) 0.0 0.0 .
669(14) 0.0 0.0 .
618(13) 0.0 0.0 .
653(14) 0.0 0.0 .
654(14) 0.0 0.0 .
637(13) 0.0 0.0 .
633(14) 0.0 0.0 .
641(14) 0.0 0.0 .
639(14) 0.0 0.0 .
638(13) 0.0 0.0 .
628(13) 0.0 0.0 .
625(13) 0.0 0.0 .
615(14) 0.0 0.0 .
642(14) 0.0 0.0 .
658(13) 0.0 0.0 .
657(13) 0.0 0.0 .
652(14) 0.0 0.0 .
638(14) 0.0 0.0 .
641(14) 0.0 0.0 .
651(13) 0.0 0.0 .
635(13) 0.0 0.0 .
636(14) 0.0 0.0 .
678(14) 0.0 0.0 .
656(14) 0.0 0.0 .
661(13) 0.0 0.0 .
647(13) 0.0 0.0 .
659(14) 0.0 0.0 .
647(14) 0.0 0.0 .
647(14) 0.0 0.0 .
660(13) 0.0 0.0 .
665(13) 0.0 0.0 .
654(14) 0.0 0.0 .
643(14) 0.0 0.0 .
662(14) 0.0 0.0 .
673(14) 0.0 0.0 .
668(13) 0.0 0.0 .
665(14) 0.0 0.0 .
650(14) 0.0 0.0 .
649(14) 0.0 0.0 .
656(13) 0.0 0.0 .
652(13) 0.0 0.0 .
658(14) 0.0 0.0 .
657(14) 0.0 0.0 .
635(14) 0.0 0.0 .
657(13) 0.0 0.0 .
681(14) 0.0 0.0 .
665(14) 0.0 0.0 .
684(14) 0.0 0.0 .
678(14) 0.0 0.0 .
668(13) 0.0 0.0 .
681(14) 0.0 0.0 .
651(14) 0.0 0.0 .
642(14) 0.0 0.0 .
659(14) 0.0 0.0 .
646(13) 0.0 0.0 .
636(13) 0.0 0.0 .
661(14) 0.0 0.0 .
677(14) 0.0 0.0 .
640(13) 0.0 0.0 .
663(13) 0.0 0.0 .
664(14) 0.0 0.0 .
649(14) 0.0 0.0 .
681(14) 0.0 0.0 .
690(14) 0.0 0.0 .
660(13) 0.0 0.0 .
705(15) 0.0 0.0 .
666(14) 0.0 0.0 .
665(14) 0.0 0.0 .
658(13) 0.0 0.0 .
659(13) 0.0 0.0 .
661(14) 0.0 0.0 .
651(14) 0.0 0.0 .
679(14) 0.0 0.0 .
658(13) 0.0 0.0 .
653(13) 0.0 0.0 .
671(14) 0.0 0.0 .
657(14) 0.0 0.0 .
669(14) 0.0 0.0 .
663(13) 0.0 0.0 .
647(13) 0.0 0.0 .
662(14) 0.0 0.0 .
674(14) 0.0 0.0 .
688(14) 0.0 0.0 .
680(14) 0.0 0.0 .
683(14) 0.0 0.0 .
659(14) 0.0 0.0 .
663(14) 0.0 0.0 .
667(14) 0.0 0.0 .
709(14) 0.0 0.0 .
680(14) 0.0 0.0 .
699(14) 0.0 0.0 .
666(14) 0.0 0.0 .
672(14) 0.0 0.0 .
715(14) 0.0 0.0 .
718(14) 0.0 0.0 .
685(14) 0.0 0.0 .
685(14) 0.0 0.0 .
718(14) 0.0 0.0 .
693(14) 0.0 0.0 .
691(14) 0.0 0.0 .
736(15) 0.0 0.0 .
750(15) 0.0 0.0 .
717(14) 0.0 0.0 .
739(14) 0.0 0.0 .
719(14) 0.0 0.0 .
701(14) 0.0 0.0 .
724(15) 0.0 0.0 .
736(14) 0.0 0.0 .
721(14) 0.0 0.0 .
719(14) 0.0 0.0 .
740(15) 0.0 0.0 .
746(15) 0.0 0.0 .
758(15) 0.0 0.0 .
746(14) 0.0 0.0 .
757(15) 0.0 0.0 .
769(15) 0.0 0.0 .
767(15) 0.0 0.0 .
783(15) 0.0 0.0 .
775(14) 0.0 0.0 .
784(15) 0.0 0.0 .
781(15) 0.0 0.0 .
854(16) 0.0 0.0 .
830(15) 0.0 0.0 .
811(15) 0.0 0.0 .
837(15) 0.0 0.0 .
884(17) 0.0 0.0 .
858(16) 0.0 0.0 .
920(16) 0.0 0.0 .
865(15) 0.0 0.0 .
880(16) 0.0 0.0 .
902(17) 0.0 0.0 .
915(16) 0.0 0.0 .
887(15) 0.0 0.0 .
961(16) 0.0 0.0 .
945(16) 0.0 0.0 .
990(17) 0.0 0.0 .
979(17) 0.0 0.0 .
1047(17) 0.0 0.0 .
1068(17) 0.0 0.0 .
1095(18) 0.0 0.0 .
1140(19) 0.0 0.0 .
1161(18) 0.0 0.0 .
1206(18) 0.0 0.0 .
1278(19) 0.0 0.0 .
1325(20) 0.0 0.0 .
1407(21) 0.0 0.0 .
1486(21) 0.0 0.0 .
1641(21) 0.0 0.0 .
1776(22) 0.0 0.0 .
1988(24) 0.0 0.0 .
2257(26) 0.0 0.0 .
2678(28) 0.0 0.0 .
3104(29) 0.0 0.0 .
3950(33) 0.0 0.0 .
4924(38) 0.0 0. .
6139(43) 0.0 0. .
7602(47) 0.0 0. .
9392(51) 0.0 0. .
11414(58) 0.0 0. .
13709(64) 0.0 0. .
15963(69) 0.0 0. .
18340(73) 0.0 0. .
20841(76) 0.0 0. .
23109(83) 0.0 0. .
25927(90) 0.0 0. .
28327(93) 0.0 0. .
30900(94) 0.0 0. .
34900(100) 0.0 0. .
39060(110) 0.0 0. .
44880(120) 0.0 0. .
52220(130) 0.0 0. .
61570(140) 0.0 0. .
72630(150) 0.0 0. .
84380(170) 0.0 0. .
93690(180) 0.0 0. .
93250(180) 0.0 0. .
77670(150) 0.0 0. .
57770(130) 0.0 0. .
40790(110) 0.0 0. .
29146(97) 0.0 0. .
21517(79) 0.0 0. .
16244(67) 0.0 0. .
12864(60) 0.0 0. .
10016(54) 0.0 0. .
8312(51) 0.0 0. .
6949(45) 0.0 0. .
6001(40) 0.0 0. .
5107(38) 0.0 0. .
4411(36) 0.0 0. .
4063(35) 0.0 0. .
3553(32) 0.0 0.0 .
3133(29) 0.0 0.0 .
2881(28) 0.0 0.0 .
2637(28) 0.0 0.0 .
2447(27) 0.0 0.0 .
2228(25) 0.0 0.0 .
2079(24) 0.0 0.0 .
1933(23) 0.0 0.0 .
1825(23) 0.0 0.0 .
1694(22) 0.0 0.0 .
1643(22) 0.0 0.0 .
1508(20) 0.0 0.0 .
1466(20) 0.0 0.0 .
1439(21) 0.0 0.0 .
1335(20) 0.0 0.0 .
1331(19) 0.0 0.0 .
1235(18) 0.0 0.0 .
1228(19) 0.0 0.0 .
1135(18) 0.0 0.0 .
1119(18) 0.0 0.0 .
1044(17) 0.0 0.0 .
1051(17) 0.0 0.0 .
1023(18) 0.0 0.0 .
1048(18) 0.0 0.0 .
1001(17) 0.0 0.0 .
1005(17) 0.0 0.0 .
954(16) 0.0 0.0 .
913(16) 0.0 0.0 .
932(17) 0.0 0.0 .
937(16) 0.0 0.0 .
857(15) 0.0 0.0 .
867(15) 0.0 0.0 .
870(16) 0.0 0.0 .
850(16) 0.0 0.0 .
856(16) 0.0 0.0 .
824(15) 0.0 0.0 .
823(15) 0.0 0.0 .
803(15) 0.0 0.0 .
818(16) 0.0 0.0 .
765(15) 0.0 0.0 .
770(14) 0.0 0.0 .
749(14) 0.0 0.0 .
727(14) 0.0 0.0 .
802(16) 0.0 0.0 .
755(15) 0.0 0.0 .
754(14) 0.0 0.0 .
732(14) 0.0 0.0 .
727(14) 0.0 0.0 .
740(15) 0.0 0.0 .
744(15) 0.0 0.0 .
748(14) 0.0 0.0 .
727(14) 0.0 0.0 .
729(15) 0.0 0.0 .
714(15) 0.0 0.0 .
663(14) 0.0 0.0 .
704(14) 0.0 0.0 .
726(14) 0.0 0.0 .
724(15) 0.0 0.0 .
694(14) 0.0 0.0 .
659(14) 0.0 0.0 .
673(13) 0.0 0.0 .
692(14) 0.0 0.0 .
637(13) 0.0 0.0 .
696(14) 0.0 0.0 .
692(14) 0.0 0.0 .
657(13) 0.0 0.0 .
655(13) 0.0 0.0 .
688(14) 0.0 0.0 .
669(14) 0.0 0.0 .
678(14) 0.0 0.0 .
714(14) 0.0 0.0 .
648(14) 0.0 0.0 .
655(14) 0.0 0.0 .
660(14) 0.0 0.0 .
678(14) 0.0 0.0 .
659(13) 0.0 0.0 .
662(14) 0.0 0.0 .
630(14) 0.0 0.0 .
646(14) 0.0 0.0 .
625(13) 0.0 0.0 .
625(13) 0.0 0.0 .
643(14) 0.0 0.0 .
634(14) 0.0 0.0 .
652(14) 0.0 0.0 .
627(13) 0.0 0.0 .
595(13) 0.0 0.0 .
645(14) 0.0 0.0 .
653(14) 0.0 0.0 .
662(14) 0.0 0.0 .
629(13) 0.0 0.0 .
639(13) 0.0 0.0 .
666(14) 0.0 0.0 .
647(14) 0.0 0.0 .
643(14) 0.0 0.0 .
624(13) 0.0 0.0 .
654(13) 0.0 0.0 .
608(13) 0.0 0.0 .
636(14) 0.0 0.0 .
617(13) 0.0 0.0 .
613(13) 0.0 0.0 .
610(13) 0.0 0.0 .
656(14) 0.0 0.0 .
643(14) 0.0 0.0 .
637(14) 0.0 0.0 .
634(13) 0.0 0.0 .
611(13) 0.00585 625.4 58.2
615(13) 0.00553 625.4 57.2
599(13) 0.00571 625.4 56.3
623(13) 0.00557 625.4 55.4
623(13) 0.00599 625.4 54.5
622(13) 0.00565 625.1 53.7
614(13) 0.00558 624.6 52.8
602(13) 0.00576 624.1 52.0
588(13) 0.00598 623.6 51.2
600(13) 0.00623 623.0 50.5
587(13) 0.00593 622.5 49.7
603(13) 0.00563 622.0 49.0
590(13) 0.00582 621.5 48.2
619(13) 0.00581 621.0 47.5
633(13) 0.00587 620.4 46.8
644(14) 0.00529 619.9 46.2
597(13) 0.00575 619.4 45.5
614(13) 0.00572 618.9 44.9
631(13) 0.00574 618.3 44.2
640(13) 0.00579 617.8 43.6
624(14) 0.00539 617.3 43.0
583(13) 0.00595 616.8 42.4
601(13) 0.00578 616.3 41.8
585(13) 0.00626 615.7 41.3
593(13) 0.00632 615.2 40.7
597(13) 0.00581 614.7 40.2
577(13) 0.00575 614.2 39.6
602(13) 0.00583 613.7 39.1
605(13) 0.00612 613.1 38.6
594(13) 0.00622 612.6 38.1
605(13) 0.00567 612.1 37.6
587(14) 0.00540 611.6 37.1
586(13) 0.00610 611.1 36.6
619(13) 0.00594 610.5 36.2
587(13) 0.00630 610.0 35.7
567(13) 0.00619 609.5 35.3
587(14) 0.00544 609.0 34.8
574(13) 0.00608 608.5 34.4
564(12) 0.00662 607.9 34.0
564(12) 0.00659 607.4 33.6
603(13) 0.00561 606.9 33.2
615(14) 0.00515 606.4 32.8
582(13) 0.00582 605.8 32.4
568(12) 0.00658 605.3 32.0
586(13) 0.00631 604.8 31.6
577(13) 0.00621 604.3 31.2
582(13) 0.00572 603.8 30.9
591(13) 0.00574 603.2 30.5
575(12) 0.00645 602.7 30.2
595(13) 0.00595 602.2 29.8
588(13) 0.00571 601.7 29.5
586(13) 0.00572 601.2 29.2
590(13) 0.00584 600.6 28.8
600(13) 0.00624 600.1 28.5
599(13) 0.00597 599.6 28.2
546(13) 0.00617 599.1 27.9
570(13) 0.00588 598.6 27.6
568(13) 0.00612 598.0 27.3
586(13) 0.00635 597.5 27.0
562(13) 0.00627 597.0 26.7
557(13) 0.00602 596.5 26.5
565(13) 0.00601 596.0 26.2
570(13) 0.00624 595.4 25.9
601(13) 0.00619 594.9 25.6
591(13) 0.00600 594.4 25.4
594(13) 0.00566 593.9 25.1
565(13) 0.00628 593.3 24.9
606(13) 0.00590 592.8 24.6
574(12) 0.00650 592.3 24.4
592(13) 0.00570 591.8 24.1
563(13) 0.00583 591.3 23.9
569(13) 0.00606 590.7 23.7
554(12) 0.00650 590.2 23.4
577(12) 0.00649 589.7 23.2
583(13) 0.00582 589.2 23.0
613(14) 0.00525 588.7 22.8
575(13) 0.00597 588.1 22.5
598(13) 0.00609 587.6 22.3
558(12) 0.00675 587.1 22.1
595(13) 0.00572 586.6 21.9
583(14) 0.00547 586.1 21.7
566(13) 0.00621 585.5 21.5
566(12) 0.00654 585.0 21.3
568(12) 0.00661 584.5 21.1
540(13) 0.00638 584.0 20.9
511(13) 0.00634 583.4 20.8
567(13) 0.00611 582.9 20.6
546(12) 0.00661 582.4 20.4
568(12) 0.00660 581.9 20.2
591(13) 0.00571 581.4 20.1
574(13) 0.00572 580.8 19.9
566(13) 0.00621 580.3 19.7
556(12) 0.00667 579.8 19.6
565(12) 0.00644 579.3 19.4
554(13) 0.00638 578.8 19.2
580(13) 0.00570 578.2 19.1
573(13) 0.00605 577.7 18.9
570(12) 0.00651 577.2 18.8
528(12) 0.00689 576.7 18.6
530(12) 0.00644 576.2 18.5
527(13) 0.00633 575.6 18.3
561(13) 0.00607 575.1 18.2
574(12) 0.00648 574.6 18.1
539(12) 0.00671 574.1 17.9
548(13) 0.00626 573.6 17.8
555(13) 0.00600 573.0 17.7
567(13) 0.00606 572.5 17.5
591(13) 0.00632 572.0 17.4
562(13) 0.00622 571.5 17.3
571(13) 0.00610 570.9 17.2
580(13) 0.00595 570.4 17.0
562(12) 0.00646 569.9 16.9
593(13) 0.00626 569.4 16.8
577(13) 0.00592 568.9 16.7
569(13) 0.00589 568.3 16.6
575(13) 0.00605 567.8 16.5
567(12) 0.00641 567.3 16.4
600(13) 0.00623 566.8 16.3
565(13) 0.00595 566.3 16.2
598(14) 0.00543 565.7 16.1
553(13) 0.00634 565.2 16.0
558(12) 0.00669 564.7 15.9
529(12) 0.00699 564.2 15.8
520(12) 0.00668 563.7 15.7
554(13) 0.00592 563.1 15.6
565(13) 0.00621 562.6 15.5
554(12) 0.00667 562.1 15.5
561(12) 0.00660 561.6 15.4
589(13) 0.00575 561.1 15.3
550(13) 0.00607 560.5 15.2
586(13) 0.00588 560.0 15.2
564(12) 0.00641 559.5 15.1
510(12) 0.00740 559.0 15.0
569(13) 0.00602 558.4 15.0
540(13) 0.00596 557.9 14.9
559(13) 0.00622 557.4 14.9
599(13) 0.00623 556.9 14.8
524(12) 0.00695 556.4 14.7
576(13) 0.00590 556.3 14.7
554(13) 0.00591 556.2 14.7
577(13) 0.00615 556.1 14.6
570(12) 0.00659 555.9 14.6
533(12) 0.00691 555.8 14.5
563(13) 0.00609 555.7 14.5
567(13) 0.00599 555.6 14.5
575(13) 0.00607 555.4 14.4
588(13) 0.00633 555.3 14.4
555(12) 0.00654 555.2 14.4
554(13) 0.00630 555.1 14.4
555(13) 0.00604 554.9 14.4
550(13) 0.00626 554.8 14.4
597(13) 0.00616 554.7 14.4
541(12) 0.00676 554.6 14.4
542(13) 0.00617 554.4 14.4
555(13) 0.00609 554.3 14.4
546(12) 0.00641 554.2 14.4
582(12) 0.00641 554.1 14.4
569(13) 0.00628 553.9 14.5
538(13) 0.00635 553.8 14.5
529(12) 0.00646 553.7 14.6
538(12) 0.00670 553.6 14.6
535(12) 0.00697 553.4 14.7
522(12) 0.00699 553.3 14.7
550(13) 0.00608 553.2 14.8
533(12) 0.00659 553.1 14.9
565(12) 0.00644 552.9 15.0
585(13) 0.00636 552.8 15.1
561(13) 0.00602 552.7 15.2
538(13) 0.00638 552.6 15.3
545(13) 0.00624 552.4 15.5
542(12) 0.00660 552.3 15.6
545(12) 0.00681 552.2 15.8
558(13) 0.00615 552.1 16.0
560(13) 0.00594 551.9 16.2
545(13) 0.00624 551.8 16.4
550(12) 0.00666 551.7 16.7
542(12) 0.00684 551.6 16.9
555(12) 0.00641 551.4 17.2
554(13) 0.00595 551.3 17.6
570(13) 0.00602 551.2 17.9
584(13) 0.00632 551.1 8.9
580(13) 0.00635 550.9 9.4
569(13) 0.00609 550.8 9.9
577(13) 0.00550 550.7 10.5
548(12) 0.00641 550.6 11.1
543(12) 0.00669 550.4 11.8
554(12) 0.00674 550.3 12.5
558(13) 0.00629 550.2 13.3
606(14) 0.00513 550.1 14.2
555(13) 0.00630 549.9 15.2
560(12) 0.00668 549.8 16.3
577(13) 0.00623 549.7 17.5
561(13) 0.00631 549.6 18.8
606(14) 0.00536 549.4 20.3
598(13) 0.00577 549.3 22.0
617(13) 0.00603 549.2 23.9
619(13) 0.00593 549.1 26.0
603(13) 0.00581 548.9 28.5
596(13) 0.00571 548.8 31.3
600(13) 0.00579 548.7 34.5
634(13) 0.00587 548.6 38.3
624(13) 0.00573 548.4 42.7
670(14) 0.00522 548.3 47.9
660(14) 0.00518 548.2 54.3
683(14) 0.00509 548.1 62.3
710(14) 0.00525 547.9 72.6
761(15) 0.00471 547.8 86.3
772(15) 0.00445 547.7 105.2
810(16) 0.00416 547.6 131.7
828(15) 0.00430 547.4 169.0
886(15) 0.00418 547.3 220.5
936(16) 0.00379 547.2 289.9
1008(17) 0.003365 547.1 379.5
1022(17) 0.003320 546.9 489.7
1092(18) 0.003222 546.8 616.9
1091(17) 0.003410 546.7 751.1
1173(19) 0.002900 546.6 873.2
1273(19) 0.002657 546.4 955.0
1280(19) 0.002747 546.3 970.0
1353(19) 0.002634 546.2 912.8
1178(18) 0.003145 546.1 803.2
1070(18) 0.003117 545.9 670.9
934(17) 0.00355 545.8 539.3
821(15) 0.00430 545.7 421.5
747(14) 0.00492 545.6 323.4
679(13) 0.00549 545.5 246.1
648(14) 0.00547 545.3 187.8
646(14) 0.00523 545.2 145.3
665(14) 0.00518 545.1 114.8
639(13) 0.00579 545.0 93.2
572(12) 0.00646 544.8 77.6
557(13) 0.00638 544.7 66.1
579(13) 0.00570 544.6 57.3
577(13) 0.00595 544.5 50.4
532(12) 0.00677 544.3 44.7
541(12) 0.00693 544.2 40.0
531(12) 0.00656 544.1 36.0
547(13) 0.00592 544.0 32.5
576(13) 0.00598 543.8 29.6
540(12) 0.00686 543.7 27.0
559(12) 0.00662 543.6 24.7
511(12) 0.00692 543.5 22.7
524(13) 0.00629 543.3 21.0
519(12) 0.00668 543.2 19.4
528(12) 0.00711 543.1 18.0
559(12) 0.00648 543.0 16.7
546(13) 0.00636 542.8 15.6
537(13) 0.00609 542.7 14.6
570(13) 0.00599 542.6 13.7
554(12) 0.00675 542.5 12.8
539(12) 0.00660 542.3 12.1
515(12) 0.00684 542.2 11.4
514(12) 0.00673 542.1 10.7
525(12) 0.00644 542.0 10.1
553(12) 0.00671 541.8 9.6
516(12) 0.00687 541.7 9.1
535(13) 0.00632 541.6 8.6
533(12) 0.00658 541.5 8.2
539(12) 0.00656 541.3 7.8
569(12) 0.00654 541.2 7.4
563(13) 0.00632 541.1 7.1
557(13) 0.00608 541.0 6.8
543(13) 0.00626 540.8 6.5
546(12) 0.00645 540.7 6.2
509(12) 0.00729 540.6 5.9
545(12) 0.00658 540.5 5.7
559(13) 0.00595 540.3 5.5
504(12) 0.00692 540.2 5.2
536(12) 0.00669 540.1 5.0
556(12) 0.00672 540.0 4.8
534(13) 0.00635 539.8 4.7
529(13) 0.00620 539.7 4.5
538(13) 0.00635 539.6 4.3
516(12) 0.00719 539.5 4.2
533(12) 0.00689 539.3 4.0
555(13) 0.00625 539.2 3.9
520(12) 0.00650 539.1 3.8
591(13) 0.00564 539.0 3.6
538(12) 0.00684 538.8 3.5
556(12) 0.00677 538.7 3.4
543(12) 0.00650 538.6 3.3
521(13) 0.00626 538.5 3.2
551(13) 0.00613 538.3 3.1
529(12) 0.00698 538.2 3.0
521(12) 0.00725 538.1 2.9
538(12) 0.00653 538.0 2.8
534(13) 0.00596 537.8 2.7
503(12) 0.00702 537.7 2.7
528(12) 0.00708 537.6 2.6
531(12) 0.00691 537.5 2.5
502(12) 0.00697 537.3 2.4
521(13) 0.00609 537.2 2.4
505(12) 0.00687 537.1 2.3
546(12) 0.00689 537.0 2.3
540(12) 0.00674 536.8 2.2
531(13) 0.00636 536.7 2.1
530(13) 0.00629 536.6 2.1
534(12) 0.00654 536.5 2.0
506(12) 0.00733 536.3 2.0
550(13) 0.00638 536.2 1.9
543(13) 0.00625 536.1 1.9
525(12) 0.00651 536.0 1.8
522(12) 0.00671 535.8 1.8
531(12) 0.00700 535.7 1.8
539(12) 0.00663 535.6 1.7
571(13) 0.00588 535.5 1.7
530(12) 0.00649 535.3 1.6
543(13) 0.00632 535.2 1.6
539(12) 0.00692 535.1 1.6
546(12) 0.00649 535.0 1.5
557(13) 0.00620 534.8 1.5
544(13) 0.00631 534.7 1.5
549(13) 0.00633 534.6 1.4
503(12) 0.00741 534.5 1.4
555(13) 0.00632 534.4 1.4
557(13) 0.00606 534.4 1.4
548(13) 0.00628 534.4 1.3
558(12) 0.00654 534.3 1.3
537(12) 0.00692 534.3 1.3
537(12) 0.00641 534.3 1.2
510(12) 0.00660 534.2 1.2
525(12) 0.00665 534.2 1.2
527(12) 0.00684 534.2 1.2
534(12) 0.00698 534.1 1.2
515(12) 0.00674 534.1 1.1
517(12) 0.00655 534.1 1.1
561(13) 0.00614 534.0 1.1
518(12) 0.00715 534.0 1.1
515(12) 0.00727 534.0 1.1
519(12) 0.00665 534.0 1.0
542(13) 0.00590 533.9 1.0
537(12) 0.00655 533.9 1.0
543(12) 0.00689 533.9 1.0
540(12) 0.00685 533.8 1.0
537(13) 0.00640 533.8 0.9
505(12) 0.00652 533.8 0.9
509(12) 0.00682 533.7 0.9
538(12) 0.00695 533.7 0.9
544(12) 0.00667 533.7 0.9
528(12) 0.00645 533.6 0.9
521(13) 0.00617 533.6 0.9
514(12) 0.00672 533.6 0.8
536(12) 0.00691 533.5 0.8
491(12) 0.00753 533.5 0.8
522(12) 0.00668 533.5 0.8
531(13) 0.00616 533.4 0.8
519(12) 0.00659 533.4 0.8
529(12) 0.00701 533.4 0.8
527(12) 0.00699 533.4 0.8
534(12) 0.00664 533.3 0.7
566(13) 0.00598 533.3 0.7
550(13) 0.00617 533.3 0.7
561(12) 0.00671 533.2 0.7
560(12) 0.00641 533.2 0.7
512(12) 0.00685 533.2 0.7
537(13) 0.00621 533.1 0.7
521(12) 0.00661 533.1 0.7
533(12) 0.00698 533.1 0.7
550(12) 0.00652 533.0 0.7
544(13) 0.00635 533.0 0.6
517(12) 0.00668 533.0 0.6
501(12) 0.00702 532.9 0.6
512(12) 0.00722 532.9 0.6
505(12) 0.00695 532.9 0.6
505(12) 0.00668 532.8 0.6
517(12) 0.00682 532.8 0.6
501(12) 0.00724 532.8 0.6
487(12) 0.00755 532.8 0.6
502(12) 0.00692 532.7 0.6
497(12) 0.00680 532.7 0.6
504(12) 0.00686 532.7 0.6
529(12) 0.00680 532.6 0.5
506(12) 0.00733 532.6 0.5
536(13) 0.00619 532.6 0.5
510(12) 0.00665 532.5 0.5
531(12) 0.00657 532.5 0.5
502(12) 0.00731 532.5 0.5
497(12) 0.00746 532.4 0.5
556(13) 0.00619 532.4 0.5
526(13) 0.00624 532.4 0.5
525(12) 0.00676 532.3 0.5
526(12) 0.00709 532.3 0.5
523(12) 0.00701 532.3 0.5
555(13) 0.00612 532.3 0.5
523(13) 0.00616 532.2 0.5
501(12) 0.00709 532.2 0.5
514(12) 0.00717 532.2 0.5
533(12) 0.00683 532.1 0.4
503(12) 0.00699 532.1 0.4
517(12) 0.00656 532.1 0.4
524(12) 0.00682 532.0 0.4
533(12) 0.00690 532.0 0.4
519(12) 0.00702 532.0 0.4
508(12) 0.00699 531.9 0.4
534(13) 0.00626 531.9 0.4
539(12) 0.00658 531.9 0.4
514(12) 0.00726 531.8 0.4
489(11) 0.00759 531.8 0.4
530(12) 0.00657 531.8 0.4
515(12) 0.00656 531.7 0.4
521(12) 0.00668 531.7 0.4
491(11) 0.00762 531.7 0.4
493(12) 0.00728 531.7 0.4
533(12) 0.00649 531.6 0.4
521(12) 0.00647 531.6 0.4
522(12) 0.00664 531.6 0.4
511(12) 0.00731 531.5 0.4
544(12) 0.00663 531.5 0.4
543(12) 0.00643 531.5 0.4
525(12) 0.00665 531.4 0.4
555(12) 0.00653 531.4 0.3
523(12) 0.00715 531.4 0.3
519(12) 0.00687 531.3 0.3
532(12) 0.00646 531.3 0.3
524(13) 0.00639 531.3 0.3
472(12) 0.00741 531.2 0.3
524(12) 0.00714 531.2 0.3
513(12) 0.00696 531.2 0.3
511(12) 0.00651 531.2 0.3
538(12) 0.00650 531.1 0.3
521(12) 0.00701 531.1 0.3
533(12) 0.00692 531.1 0.3
528(12) 0.00674 531.0 0.3
509(12) 0.00673 531.0 0.3
526(12) 0.00651 531.0 0.3
542(12) 0.00678 530.9 0.3
531(12) 0.00693 530.9 0.3
515(12) 0.00690 530.9 0.3
521(13) 0.00635 530.8 0.3
526(12) 0.00653 530.8 0.3
532(12) 0.00692 530.8 0.3
497(12) 0.00751 530.7 0.3
529(12) 0.00659 530.7 0.3
541(13) 0.00580 530.7 0.3
555(13) 0.00625 530.6 0.3
559(12) 0.00670 530.6 0.3
525(12) 0.00700 530.6 0.3
540(12) 0.00643 530.6 0.3
510(13) 0.00639 530.5 0.3
501(12) 0.00693 530.5 0.3
509(12) 0.00739 530.5 0.3
472(11) 0.00779 530.4 0.3
530(12) 0.00654 530.4 0.3
521(13) 0.00633 530.4 0.3
526(12) 0.00670 530.3 0.3
538(12) 0.00691 530.3 0.3
496(12) 0.00741 530.3 0.2
552(13) 0.00600 530.2 0.2
502(12) 0.00674 530.2 0.2
526(12) 0.00642 530.2 0.2
508(12) 0.00735 530.1 0.2
512(12) 0.00715 530.1 0.2
531(12) 0.00658 530.1 0.2
504(12) 0.00696 530.0 0.2
528(12) 0.00671 530.0 0.2
528(12) 0.00704 530.0 0.2
542(12) 0.00649 530.0 0.2
525(13) 0.00635 529.9 0.2
521(12) 0.00649 529.9 0.2
550(13) 0.00627 529.9 0.2
527(12) 0.00710 529.8 0.2
506(12) 0.00706 529.8 0.2
533(12) 0.00643 529.8 0.2
523(12) 0.00650 529.7 0.2
523(12) 0.00673 529.7 0.2
492(11) 0.00757 529.7 0.2
521(12) 0.00687 529.6 0.2
530(12) 0.00660 529.6 0.2
564(13) 0.00607 529.6 0.2
519(12) 0.00696 529.5 0.2
524(12) 0.00706 529.5 0.2
496(12) 0.00682 529.5 0.2
498(12) 0.00678 529.5 0.2
504(12) 0.00693 529.4 0.2
494(12) 0.00749 529.4 0.2
530(12) 0.00701 529.4 0.2
505(12) 0.00657 529.3 0.2
490(12) 0.00683 529.3 0.2
514(12) 0.00687 529.3 0.2
504(12) 0.00739 529.2 0.2
504(12) 0.00741 529.2 0.2
551(13) 0.00626 529.2 0.2
560(13) 0.00581 529.1 0.2
555(13) 0.00613 529.1 0.2
502(12) 0.00738 529.1 0.2
525(12) 0.00705 529.0 0.2
534(12) 0.00646 529.0 0.2
524(13) 0.00601 529.0 0.2
493(12) 0.00700 528.9 0.2
502(12) 0.00736 528.9 0.2
537(12) 0.00679 528.9 0.2
548(13) 0.00621 528.9 0.2
536(13) 0.00609 528.8 0.2
550(13) 0.00621 528.8 0.2
514(12) 0.00728 528.8 0.2
506(12) 0.00714 528.7 0.2
513(12) 0.00670 528.7 0.2
537(13) 0.00622 528.7 0.2
516(12) 0.00679 528.6 0.2
528(12) 0.00706 528.6 0.2
545(12) 0.00665 528.6 0.2
514(12) 0.00680 528.5 0.2
527(13) 0.00629 528.5 0.2
529(12) 0.00651 528.5 0.2
501(12) 0.00747 528.4 0.2
476(12) 0.00740 528.4 0.2
512(12) 0.00661 528.4 0.2
527(12) 0.00641 528.3 0.2
487(12) 0.00724 528.3 0.2
523(12) 0.00709 528.3 0.2
515(12) 0.00701 528.3 0.2
539(13) 0.00624 528.2 0.2
520(12) 0.00667 528.2 0.2
520(12) 0.00681 528.2 0.1
526(12) 0.00704 528.1 0.1
531(12) 0.00657 528.1 0.1
539(13) 0.00635 528.1 0.1
552(13) 0.00637 528.0 0.1
534(12) 0.00669 528.0 0.1
560(12) 0.00665 528.0 0.1
538(12) 0.00640 527.9 0.1
519(12) 0.00647 527.9 0.1
519(12) 0.00668 527.9 0.1
534(12) 0.00674 527.8 0.1
507(12) 0.00734 527.8 0.1
539(13) 0.00630 527.8 0.1
534(13) 0.00631 527.8 0.1
539(12) 0.00643 527.7 0.1
498(12) 0.00745 527.7 0.1
529(12) 0.00702 527.7 0.1
530(12) 0.00663 527.6 0.1
527(13) 0.00613 527.6 0.1
524(12) 0.00653 527.6 0.1
508(12) 0.00717 527.5 0.1
538(12) 0.00690 527.5 0.1
506(12) 0.00704 527.5 0.1
508(13) 0.00630 527.4 0.1
527(12) 0.00669 527.4 0.1
552(12) 0.00656 527.5 0.1
528(12) 0.00701 527.5 0.1
508(12) 0.00675 527.6 0.1
525(13) 0.00616 527.7 0.1
503(12) 0.00723 527.7 0.1
554(12) 0.00670 527.8 0.1
526(12) 0.00706 527.8 0.1
554(13) 0.00616 527.9 0.1
534(13) 0.00628 528.0 0.1
511(12) 0.00684 528.0 0.1
498(12) 0.00752 528.1 0.1
549(12) 0.00650 528.1 0.1
505(12) 0.00686 528.2 0.1
533(13) 0.00609 528.3 0.1
540(13) 0.00627 528.3 0.1
539(12) 0.00689 528.4 0.1
535(12) 0.00685 528.4 0.1
542(12) 0.00640 528.5 0.1
532(13) 0.00620 528.6 0.1
551(13) 0.00623 528.6 0.1
494(12) 0.00751 528.7 0.1
522(12) 0.00681 528.7 0.1
547(13) 0.00605 528.8 0.1
517(12) 0.00678 528.9 0.1
548(13) 0.00636 528.9 0.1
530(12) 0.00698 529.0 0.1
493(12) 0.00716 529.0 0.1
511(12) 0.00676 529.1 0.1
547(13) 0.00630 529.2 0.1
559(12) 0.00651 529.2 0.1
546(12) 0.00676 529.3 0.1
515(12) 0.00667 529.3 0.1
529(13) 0.00625 529.4 0.1
551(13) 0.00619 529.5 0.1
533(12) 0.00679 529.5 0.1
523(12) 0.00700 529.6 0.1
544(13) 0.00628 529.6 0.1
513(12) 0.00648 529.7 0.1
524(12) 0.00653 529.8 0.1
551(12) 0.00657 529.8 0.1
529(12) 0.00695 529.9 0.1
525(12) 0.00661 529.9 0.1
533(13) 0.00609 530.0 0.1
513(12) 0.00690 530.1 0.1
546(12) 0.00665 530.1 0.1
559(12) 0.00669 530.2 0.1
534(12) 0.00662 530.2 0.1
521(13) 0.00616 530.3 0.1
524(12) 0.00673 530.4 0.1
560(12) 0.00658 530.4 0.1
526(12) 0.00700 530.5 0.1
528(12) 0.00654 530.5 0.1
544(13) 0.00587 530.6 0.1
544(13) 0.00629 530.7 0.1
516(12) 0.00706 530.7 0.1
558(12) 0.00652 530.8 0.0
504(12) 0.00703 530.8 0.0
509(12) 0.00653 530.9 0.0
529(12) 0.00649 531.0 0.0
559(12) 0.00670 531.0 0.0
549(12) 0.00655 531.1 0.0
559(13) 0.00604 531.1 0.0
538(13) 0.00624 531.2 0.0
521(12) 0.00676 531.3 0.0
489(11) 0.00763 531.3 0.0
549(12) 0.00656 531.4 0.0
517(12) 0.00669 531.4 0.0
508(12) 0.00667 531.5 0.0
547(12) 0.00643 531.6 0.0
584(13) 0.00639 531.6 0.0
550(12) 0.00670 531.7 0.0
519(12) 0.00689 531.7 0.0
512(12) 0.00684 531.8 0.0
562(13) 0.00631 531.9 0.0
564(12) 0.00659 531.9 0.0
546(13) 0.00639 532.0 0.0
492(12) 0.00710 532.0 0.0
535(12) 0.00653 532.1 0.0
563(12) 0.00642 532.2 0.0
544(12) 0.00691 532.2 0.0
535(12) 0.00645 532.3 0.0
505(12) 0.00672 532.4 0.0
520(12) 0.00656 532.4 0.0
503(12) 0.00718 532.5 0.0
527(12) 0.00706 532.5 0.0
554(13) 0.00616 532.6 0.0
529(13) 0.00614 532.7 0.0
530(12) 0.00653 532.7 0.0
543(12) 0.00670 532.8 0.0
519(12) 0.00715 532.8 0.0
550(13) 0.00627 532.9 0.0
592(14) 0.00538 533.0 0.0
558(13) 0.00598 533.0 0.0
523(12) 0.00713 533.1 0.0
539(12) 0.00679 533.1 0.0
523(12) 0.00656 533.2 0.0
516(13) 0.00637 533.3 0.8
561(13) 0.00622 533.3 0.8
551(12) 0.00672 533.4 0.8
517(12) 0.00725 533.4 0.8
556(13) 0.00627 533.5 0.8
519(12) 0.00655 533.6 0.8
535(12) 0.00650 533.6 0.8
508(12) 0.00739 533.7 0.8
512(12) 0.00722 533.7 0.8
497(12) 0.00711 533.8 0.8
499(13) 0.00639 533.9 0.8
529(13) 0.00638 533.9 0.8
565(12) 0.00650 534.0 0.8
527(12) 0.00684 534.0 0.8
524(12) 0.00652 534.1 0.9
554(13) 0.00598 534.2 0.9
550(13) 0.00616 534.2 0.9
520(12) 0.00714 534.3 0.9
512(12) 0.00712 534.3 0.9
565(13) 0.00597 534.4 0.9
514(12) 0.00665 534.5 0.9
532(12) 0.00669 534.5 0.9
546(12) 0.00680 534.6 0.9
527(12) 0.00658 534.6 0.9
548(13) 0.00621 534.7 0.9
549(13) 0.00623 534.8 0.9
534(12) 0.00656 534.8 0.9
518(12) 0.00717 534.9 0.9
543(12) 0.00657 534.9 0.9
531(12) 0.00640 535.0 0.9
513(12) 0.00684 535.1 0.9
509(12) 0.00692 535.1 0.9
529(12) 0.00700 535.2 0.9
502(12) 0.00706 535.2 1.0
550(13) 0.00605 535.3 1.0
538(12) 0.00649 535.4 1.0
546(13) 0.00637 535.4 1.0
529(12) 0.00708 535.5 1.0
530(12) 0.00654 535.5 1.0
542(13) 0.00621 535.6 1.0
539(12) 0.00643 535.7 1.0
520(12) 0.00715 535.7 1.0
508(12) 0.00731 535.8 1.0
514(12) 0.00675 535.8 1.0
520(13) 0.00640 535.9 1.0
537(12) 0.00648 536.0 1.0
530(12) 0.00686 536.0 1.0
515(12) 0.00727 536.1 1.0
541(12) 0.00662 536.1 1.0
548(13) 0.00609 536.2 1.1
559(13) 0.00631 536.3 1.1
546(12) 0.00679 536.3 1.1
523(12) 0.00710 536.4 1.1
559(13) 0.00604 536.4 1.1
538(13) 0.00602 536.5 1.1
540(12) 0.00644 536.6 1.1
544(12) 0.00682 536.6 1.1
523(12) 0.00714 536.7 1.1
529(12) 0.00658 536.7 1.1
522(13) 0.00628 536.8 1.1
514(12) 0.00683 536.9 1.1
537(12) 0.00692 536.9 1.1
516(12) 0.00709 537.0 1.1
538(13) 0.00636 537.0 1.2
528(13) 0.00613 537.1 1.2
519(12) 0.00676 537.2 1.2
498(12) 0.00743 537.2 1.2
538(12) 0.00672 537.3 1.2
551(13) 0.00629 537.3 1.2
501(12) 0.00690 537.4 1.2
538(13) 0.00639 537.5 1.2
508(12) 0.00734 537.5 1.2
521(12) 0.00697 537.6 1.2
540(13) 0.00625 537.6 1.2
541(13) 0.00619 537.7 1.2
528(12) 0.00663 537.8 1.3
537(12) 0.00694 537.8 1.3
522(12) 0.00677 537.9 1.3
565(13) 0.00605 537.9 1.3
530(12) 0.00664 538.0 1.3
540(12) 0.00670 538.1 1.3
546(12) 0.00682 538.1 1.3
527(12) 0.00677 538.2 1.3
522(12) 0.00661 538.2 1.3
541(13) 0.00633 538.3 1.3
554(13) 0.00639 538.4 1.3
542(12) 0.00689 538.4 1.4
553(13) 0.00612 538.5 1.4
577(13) 0.00563 538.5 1.4
549(13) 0.00631 538.6 1.4
543(12) 0.00661 538.7 1.4
564(12) 0.00659 538.7 1.4
518(12) 0.00683 538.8 1.4
488(12) 0.00688 538.8 1.4
532(12) 0.00653 538.9 1.4
562(12) 0.00652 539.0 1.5
554(12) 0.00671 539.0 1.5
521(12) 0.00657 539.1 1.5
494(12) 0.00661 539.1 1.5
567(13) 0.00596 539.2 1.5
532(12) 0.00691 539.3 1.5
525(12) 0.00711 539.3 1.5
539(12) 0.00645 539.4 1.5
502(12) 0.00642 539.4 1.6
526(12) 0.00662 539.5 1.6
551(12) 0.00680 539.6 1.6
555(12) 0.00660 539.6 1.6
553(12) 0.00647 539.7 1.6
540(13) 0.00604 539.7 1.6
556(13) 0.00624 539.8 1.6
566(12) 0.00664 539.9 1.7
571(12) 0.00647 539.9 1.7
549(12) 0.00670 540.0 1.7
515(12) 0.00650 540.0 1.7
528(12) 0.00644 540.1 1.7
529(12) 0.00706 540.2 1.8
517(12) 0.00709 540.2 1.8
514(12) 0.00673 540.3 1.8
527(13) 0.00637 540.3 1.8
502(12) 0.00700 540.4 1.8
516(12) 0.00718 540.5 1.9
544(12) 0.00666 540.5 1.9
526(12) 0.00654 540.6 1.9
528(13) 0.00638 540.6 1.9
523(12) 0.00658 540.7 2.0
528(12) 0.00706 540.8 2.0
547(12) 0.00661 540.8 2.0
556(13) 0.00614 540.9 2.1
524(12) 0.00656 540.9 2.1
548(12) 0.00654 541.0 2.1
526(12) 0.00713 541.1 2.2
545(12) 0.00653 541.1 2.2
541(13) 0.00634 541.2 2.3
540(13) 0.00630 541.2 2.3
542(12) 0.00674 541.3 2.4
561(12) 0.00659 541.4 2.5
547(13) 0.00625 541.4 2.5
515(12) 0.00668 541.5 2.6
527(12) 0.00663 541.5 2.7
550(12) 0.00658 541.6 2.8
551(12) 0.00681 541.7 3.0
521(12) 0.00661 541.7 3.1
545(13) 0.00602 541.8 3.3
548(13) 0.00629 541.8 3.5
507(12) 0.00723 541.9 3.7
511(12) 0.00731 542.0 3.9
500(12) 0.00695 542.0 4.1
537(13) 0.00606 542.1 4.4
532(12) 0.00647 542.2 4.6
552(12) 0.00664 542.2 4.9
514(12) 0.00723 542.3 5.1
546(13) 0.00633 542.3 5.3
521(13) 0.00609 542.4 5.4
528(12) 0.00654 542.5 5.5
563(12) 0.00662 542.5 5.5
558(12) 0.00660 542.6 5.4
534(12) 0.00646 542.6 5.3
532(13) 0.00612 542.7 5.1
557(13) 0.00603 542.8 4.9
531(12) 0.00700 542.8 4.7
534(12) 0.00690 542.9 4.5
541(12) 0.00649 542.9 4.3
532(13) 0.00624 543.0 4.1
541(12) 0.00657 543.1 3.9
504(12) 0.00741 543.1 3.8
539(12) 0.00667 543.2 3.6
541(13) 0.00638 543.2 3.5
540(13) 0.00618 543.3 3.4
559(13) 0.00623 543.4 3.3
525(12) 0.00706 543.4 3.3
573(12) 0.00641 543.5 3.2
536(12) 0.00648 543.5 3.2
533(13) 0.00631 543.6 3.2
536(12) 0.00655 543.7 3.1
557(12) 0.00669 543.7 3.1
544(13) 0.00639 543.8 3.1
537(13) 0.00632 543.8 3.1
548(13) 0.00593 543.9 3.1
503(12) 0.00698 544.0 3.1
528(12) 0.00706 544.0 3.1
539(12) 0.00662 544.1 3.1
537(12) 0.00649 544.1 3.1
579(13) 0.00571 544.2 3.2
520(12) 0.00691 544.3 3.2
512(12) 0.00728 544.3 3.2
555(13) 0.00626 544.4 3.2
533(13) 0.00625 544.4 3.2
535(13) 0.00630 544.5 3.3
508(12) 0.00705 544.6 3.3
546(12) 0.00678 544.6 3.3
541(13) 0.00634 544.7 3.3
552(13) 0.00606 544.7 3.4
514(12) 0.00699 544.8 3.4
554(12) 0.00664 544.9 3.4
547(12) 0.00678 544.9 3.4
534(13) 0.00640 545.0 3.5
523(13) 0.00621 545.0 3.5
518(12) 0.00687 545.1 3.5
557(12) 0.00663 545.2 3.6
535(12) 0.00688 545.2 3.6
540(12) 0.00642 545.3 3.7
536(13) 0.00621 545.3 3.7
531(12) 0.00649 545.4 3.7
548(12) 0.00668 545.5 3.8
562(12) 0.00661 545.5 3.8
548(13) 0.00624 545.6 3.8
544(13) 0.00593 545.6 3.9
540(12) 0.00642 545.7 3.9
559(12) 0.00663 545.8 4.0
575(12) 0.00649 545.8 4.0
535(12) 0.00649 545.9 4.1
529(13) 0.00617 545.9 4.1
524(12) 0.00661 546.0 4.2
539(12) 0.00686 546.1 4.2
586(13) 0.00630 546.1 4.3
588(13) 0.00601 546.2 4.3
545(13) 0.00611 546.2 4.4
536(13) 0.00635 546.3 4.4
562(12) 0.00661 546.4 4.5
567(12) 0.00651 546.4 4.5
545(13) 0.00633 546.5 4.6
528(13) 0.00637 546.5 4.6
526(12) 0.00650 546.6 4.7
553(12) 0.00672 546.7 4.8
524(12) 0.00691 546.7 4.8
520(12) 0.00687 546.8 4.9
527(12) 0.00670 547.1 4.9
556(13) 0.00636 547.3 5.0
569(12) 0.00652 547.6 5.1
563(13) 0.00619 547.8 5.1
530(12) 0.00644 548.1 5.2
558(13) 0.00611 548.4 5.3
549(12) 0.00650 548.6 5.4
553(12) 0.00674 548.9 5.4
574(13) 0.00606 549.1 5.5
545(13) 0.00623 549.4 5.6
548(13) 0.00635 549.7 5.7
559(12) 0.00646 549.9 5.7
546(12) 0.00678 550.2 5.8
537(12) 0.00651 550.4 5.9
574(13) 0.00584 550.7 6.0
566(13) 0.00625 550.9 6.1
552(12) 0.00663 551.2 6.2
543(12) 0.00684 551.5 6.3
532(13) 0.00625 551.7 6.4
559(13) 0.00594 552.0 6.5
547(13) 0.00632 552.2 7.5
561(12) 0.00645 552.5 7.6
535(12) 0.00691 552.8 7.7
581(13) 0.00583 553.0 7.8
538(13) 0.00595 553.3 7.9
533(12) 0.00654 553.5 8.0
539(12) 0.00690 553.8 8.2
538(12) 0.00697 554.1 8.3
532(13) 0.00635 554.3 8.4
556(13) 0.00578 554.6 8.5
553(13) 0.00629 554.8 8.7
549(12) 0.00675 555.1 8.8
560(12) 0.00659 555.3 8.9
540(12) 0.00653 555.6 9.1
521(13) 0.00638 555.9 9.2
545(12) 0.00643 556.1 9.4
556(12) 0.00671 556.4 9.5
548(12) 0.00681 556.6 9.7
533(12) 0.00645 556.9 9.8
561(13) 0.00572 557.2 10.0
567(13) 0.00617 557.4 10.2
545(12) 0.00680 557.7 10.3
554(12) 0.00666 557.9 10.5
526(12) 0.00677 558.2 10.7
559(13) 0.00606 558.4 10.9
584(13) 0.00596 558.7 11.1
581(13) 0.00637 559.0 11.3
547(12) 0.00673 559.2 11.5
573(13) 0.00611 559.5 11.7
548(13) 0.00599 559.7 11.9
544(13) 0.00639 560.0 12.1
563(12) 0.00663 560.3 12.3
530(12) 0.00670 560.5 12.6
552(13) 0.00628 560.8 12.8
544(13) 0.00622 561.0 13.1
574(13) 0.00588 561.3 13.3
557(12) 0.00672 561.5 13.6
577(13) 0.00586 561.8 13.9
545(13) 0.00628 562.1 14.1
559(13) 0.00603 562.3 14.4
557(13) 0.00634 562.6 14.7
569(12) 0.00654 562.8 15.0
572(13) 0.00615 563.1 15.4
604(14) 0.00543 563.4 15.7
574(13) 0.00605 563.6 16.0
570(13) 0.00631 563.9 16.4
562(12) 0.00661 564.1 16.8
543(12) 0.00646 564.4 17.2
528(12) 0.00644 564.6 17.6
566(13) 0.00617 564.9 18.0
535(12) 0.00688 565.2 18.4
585(13) 0.00639 565.4 18.8
545(13) 0.00637 565.7 19.3
583(13) 0.00551 565.9 19.8
556(13) 0.00632 566.2 20.3
545(12) 0.00680 566.5 20.8
563(12) 0.00663 566.7 21.3
586(13) 0.00598 567.0 21.9
555(13) 0.00586 567.2 22.5
572(13) 0.00625 567.5 23.1
541(12) 0.00685 567.8 23.7
542(12) 0.00680 568.0 24.4
601(13) 0.00579 568.3 25.1
581(13) 0.00557 568.5 25.8
555(13) 0.00629 568.8 26.6
556(12) 0.00670 569.0 27.3
571(13) 0.00633 569.3 28.2
575(13) 0.00595 569.6 29.0
605(14) 0.00541 569.8 29.9
590(13) 0.00598 570.1 30.9
593(13) 0.00627 570.3 31.9
558(12) 0.00659 570.6 33.0
573(13) 0.00601 570.9 34.1
542(13) 0.00630 571.1 35.2
597(13) 0.00570 571.4 36.5
583(13) 0.00634 571.6 37.7
590(13) 0.00610 571.9 39.1
593(13) 0.00585 572.1 40.6
606(13) 0.00558 572.4 42.1
557(13) 0.00629 572.7 43.7
577(13) 0.00639 572.9 45.4
584(13) 0.00611 573.2 47.2
594(13) 0.00593 573.4 49.2
600(13) 0.00585 573.7 51.2
584(13) 0.00598 574.0 53.4
610(13) 0.00609 574.2 55.8
597(13) 0.00588 574.5 58.3
568(13) 0.00615 574.7 60.9
598(13) 0.00579 575.0 63.8
614(13) 0.00564 575.2 66.9
557(12) 0.00665 575.5 70.2
600(13) 0.00551 575.8 73.7
584(13) 0.00577 576.0 77.6
580(13) 0.00582 576.3 81.7
592(13) 0.00597 576.5 86.2
590(13) 0.00631 576.8 91.1
643(14) 0.00529 577.1 96.4
636(14) 0.00515 577.3 102.2
621(13) 0.00556 577.6 108.6
613(13) 0.00594 577.8 115.5
625(13) 0.00596 578.1 123.2
638(14) 0.00543 578.4 131.6
637(14) 0.00515 578.6 140.9
661(14) 0.00519 578.9 151.3
681(14) 0.00538 579.1 162.9
664(13) 0.00560 579.4 175.8
678(14) 0.00503 579.6 190.3
665(14) 0.00489 579.9 206.7
703(14) 0.00494 580.2 225.3
719(14) 0.00513 580.4 246.5
790(15) 0.00473 580.7 270.9
750(15) 0.00466 580.9 298.9
806(16) 0.00403 581.2 331.5
856(16) 0.00402 581.5 369.7
892(16) 0.00414 581.7 414.9
970(16) 0.00382 582.0 469.1
1071(18) 0.003224 582.2 535.3
1246(19) 0.002650 582.5 618.7
1458(21) 0.002370 582.7 727.9
1765(22) 0.002101 583.0 878.0
2205(25) 0.001664 583.3 1093.7
2746(28) 0.001268 583.5 1412.7
3325(32) 0.000992 583.8 1886.6
4099(35) 0.000828 584.0 2576.6
4738(36) 0.000780 584. 3541.
5526(39) 0.000656 585. 4814.
6377(43) 0.000547 585. 6380.
7556(48) 0.000440 585. 8132.
9227(52) 0.000366 585. 9826.
11137(55) 0.0003282 586. 11046.
12715(60) 0.0002764 586. 11344.
12560(61) 0.0002672 586. 10590.
10627(56) 0.0003163 586. 9098.
8047(48) 0.000439 587. 7336.
5905(40) 0.000622 587. 5646.
4343(35) 0.000795 587. 4205.
3386(32) 0.000999 587.4 3071.8
2611(27) 0.001334 587.7 2237.0
2267(25) 0.001581 587.9 1651.5
1843(22) 0.002019 588.2 1254.1
1615(22) 0.002117 588.4 987.0
1451(21) 0.002321 588.7 804.5
1262(19) 0.002767 588.9 675.2
1170(18) 0.003134 589.2 579.0
1044(17) 0.00356 589.5 504.1
996(17) 0.003465 589.7 443.8
953(17) 0.003480 590.0 393.9
911(16) 0.00377 590.2 352.1
837(15) 0.00434 590.5 316.6
858(15) 0.00427 590.8 286.1
826(16) 0.00409 591.0 259.9
766(15) 0.00434 591.3 237.0
764(15) 0.00452 591.5 217.0
726(14) 0.00513 591.8 199.5
731(14) 0.00509 592.1 184.0
764(15) 0.00451 592.3 170.2
736(15) 0.00442 592.6 157.9
683(14) 0.00508 592.8 146.9
688(14) 0.00540 593.1 137.1
667(14) 0.00546 593.3 128.2
663(14) 0.00512 593.6 120.1
655(14) 0.00490 593.9 112.8
649(14) 0.00537 594.1 106.2
614(13) 0.00604 594.4 100.1
646(13) 0.00564 594.6 94.6
645(14) 0.00537 594.9 89.5
632(14) 0.00513 595.2 84.8
649(14) 0.00527 595.4 80.5
612(13) 0.00603 595.7 76.5
635(13) 0.00578 595.9 72.8
622(14) 0.00540 596.2 69.4
573(13) 0.00584 596.4 66.2
639(14) 0.00534 596.7 63.2
562(12) 0.00662 597.0 60.4
605(13) 0.00593 597.2 57.9
601(13) 0.00577 597.5 55.5
622(14) 0.00527 597.7 53.2
607(13) 0.00567 598.0 51.1
618(13) 0.00606 598.3 49.1
597(13) 0.00589 598.5 47.2
636(14) 0.00539 598.8 45.5
589(13) 0.00584 599.0 43.8
602(13) 0.00583 599.3 42.3
621(13) 0.00600 599.5 40.8
613(13) 0.00559 599.8 39.4
637(14) 0.00529 600.1 38.1
632(14) 0.00534 600.3 36.9
604(13) 0.00593 600.6 35.7
603(13) 0.00616 600.8 34.6
623(13) 0.00564 601.1 33.5
590(13) 0.00590 601.4 32.5
614(13) 0.00568 601.6 31.5
627(13) 0.00585 601.9 30.6
636(13) 0.00583 602.1 29.7
582(13) 0.00597 602.4 28.9
628(14) 0.00542 602.6 28.1
625(13) 0.00564 602.9 27.3
597(13) 0.00618 603.2 26.6
586(13) 0.00631 603.4 25.9
616(13) 0.00557 603.7 25.3
613(14) 0.00536 603.9 24.6
618(13) 0.00570 604.2 24.0
621(13) 0.00590 604.5 23.5
576(12) 0.00648 604.7 22.9
623(13) 0.00552 605.0 22.4
619(14) 0.00526 605.2 21.9
601(13) 0.00584 605.5 21.4
605(13) 0.00621 605.8 20.9
597(13) 0.00618 606.0 20.5
623(13) 0.00557 606.3 20.0
603(14) 0.00523 606.5 19.6
604(13) 0.00580 606.8 19.2
627(13) 0.00594 607.0 18.8
607(13) 0.00607 607.3 18.4
628(14) 0.00543 607.6 18.1
629(14) 0.00500 607.8 17.7
593(13) 0.00591 608.1 17.4
616(13) 0.00602 608.3 17.1
613(13) 0.00592 608.6 16.8
591(13) 0.00593 608.9 16.5
605(13) 0.00554 609.1 16.2
619(13) 0.00557 609.4 15.9
596(13) 0.00626 609.6 15.6
623(13) 0.00580 609.9 15.4
607(13) 0.00574 610.1 15.1
612(13) 0.00559 610.4 14.9
599(13) 0.00586 610.7 14.7
598(13) 0.00618 610.9 14.4
610(13) 0.00602 611.2 14.2
610(13) 0.00562 611.4 14.0
610(13) 0.00567 611.7 13.8
629(13) 0.00558 612.0 13.6
604(13) 0.00613 612.2 13.4
624(13) 0.00574 612.5 13.2
615(13) 0.00567 612.7 13.1
665(14) 0.00511 613.0 12.9
605(13) 0.00587 613.2 12.7
606(13) 0.00613 613.5 12.6
635(13) 0.00559 613.8 12.4
578(13) 0.00606 614.0 12.3
638(14) 0.00532 614.3 12.1
609(13) 0.00590 614.5 12.0
647(13) 0.00574 614.8 11.8
624(14) 0.00539 615.1 11.7
626(14) 0.00544 615.3 11.6
633(14) 0.00543 615.6 11.4
603(13) 0.00613 615.8 11.3
606(13) 0.00607 616.1 11.2
570(13) 0.00601 616.3 11.1
620(14) 0.00534 616.6 11.0
622(13) 0.00562 616.9 10.9
637(13) 0.00577 617.1 10.8
570(12) 0.00656 617.4 10.7
628(13) 0.00552 617.6 10.6
633(14) 0.00501 617.9 10.5
639(14) 0.00545 618.2 10.4
622(13) 0.00593 618.4 10.3
583(13) 0.00636 618.7 10.2
619(13) 0.00550 618.9 10.1
630(14) 0.00509 619.2 10.1
592(13) 0.00597 619.5 10.0
626(13) 0.00595 619.7 9.9
671(14) 0.00545 620.0 9.8
599(13) 0.00593 620.2 9.8
619(14) 0.00534 620.5 9.7
641(14) 0.00536 620.7 9.6
616(13) 0.00606 621.0 9.6
660(13) 0.00557 621.3 9.5
614(13) 0.00590 621.5 9.4
646(14) 0.00506 621.8 9.4
616(13) 0.00570 622.0 9.3
643(13) 0.00575 622.3 9.3
626(13) 0.00580 622.6 9.2
621(13) 0.00566 622.8 9.2
638(14) 0.00511 623.1 9.1
643(14) 0.00526 623.3 9.1
599(13) 0.00620 623.6 9.1
592(13) 0.00616 623.8 9.0
591(13) 0.00600 624.1 9.0
631(14) 0.00537 624.4 8.9
589(13) 0.00596 624.6 8.9
620(13) 0.00598 624.9 8.9
624(13) 0.00575 625.1 8.8
609(13) 0.00575 625.4 8.8
599(13) 0.00567 625.8 8.8
591(13) 0.00590 626.3 8.7
622(13) 0.00596 626.8 8.7
577(13) 0.00617 627.3 8.7
624(14) 0.00545 627.8 8.7
628(13) 0.00552 628.2 8.6
605(13) 0.00596 628.7 8.6
669(13) 0.00554 629.2 8.6
637(14) 0.00547 629.7 8.6
619(14) 0.00544 630.1 8.6
621(13) 0.00557 630.6 8.6
593(13) 0.00602 631.1 8.5
606(13) 0.00617 631.6 8.5
663(14) 0.00499 632.1 8.5
601(13) 0.00561 632.5 8.5
571(13) 0.00614 633.0 8.5
632(13) 0.00574 633.5 8.5
651(13) 0.00572 634.0 8.5
672(14) 0.00506 634.5 8.5
624(14) 0.00530 634.9 8.5
632(13) 0.00552 635.4 8.5
634(13) 0.00575 635.9 8.5
640(13) 0.00579 636.4 8.5
664(14) 0.00531 636.8 8.5
612(13) 0.00551 637.3 8.5
611(13) 0.00573 637.8 8.5
650(13) 0.00574 638.3 8.5
636(13) 0.00578 638.8 8.5
642(14) 0.00538 639.2 8.5
634(14) 0.00525 639.7 8.5
661(14) 0.00527 640.2 8.5
620(13) 0.00608 640.7 8.5
639(13) 0.00578 641.2 8.5
626(13) 0.00560 641.6 8.5
610(13) 0.00549 642.1 8.6
674(14) 0.00521 642.6 8.6
648(13) 0.00576 643.1 8.6
630(13) 0.00585 643.5 8.6
615(13) 0.00566 644.0 8.6
628(14) 0.00542 644.5 8.6
668(14) 0.00529 645.0 8.7
687(14) 0.00543 645.5 8.7
669(14) 0.00545 645.9 8.7
626(13) 0.00557 646.4 8.7
601(13) 0.00562 646.9 8.8
618(13) 0.00563 647.4 8.8
666(13) 0.00555 647.9 8.8
624(13) 0.00581 648.3 8.8
641(14) 0.00529 648.8 8.9
632(14) 0.00538 649.3 8.9
657(14) 0.00540 649.8 8.9
658(13) 0.00569 650.2 9.0
655(14) 0.00540 650.7 9.0
646(14) 0.00515 651.2 9.0
621(14) 0.00548 651.7 9.1
629(13) 0.00573 652.2 9.1
677(14) 0.00547 652.6 9.1
638(14) 0.00547 653.1 9.2
627(14) 0.00541 653.6 9.2
650(14) 0.00516 654.1 9.3
625(13) 0.00574 654.5 9.3
658(13) 0.00561 655.0 9.4
680(14) 0.00508 655.5 9.4
651(14) 0.00511 656.0 9.5
631(13) 0.00557 656.5 9.5
661(13) 0.00551 656.9 9.6
647(13) 0.00571 657.4 9.6
658(14) 0.00527 657.9 9.7
622(14) 0.00525 658.4 9.9
638(14) 0.00536 658.9 9.9
685(14) 0.00519 659.3 10.0
659(13) 0.00571 659.8 10.1
679(14) 0.00494 660.3 10.1
635(14) 0.00514 660.8 10.2
712(14) 0.00490 661.2 10.3
702(14) 0.00527 661.7 10.3
678(14) 0.00546 662.2 10.4
693(14) 0.00487 662.7 10.5
654(14) 0.00497 663.2 10.5
662(14) 0.00515 663.6 10.6
637(13) 0.00580 664.1 10.7
624(13) 0.00592 664.6 10.7
660(14) 0.00527 665.1 10.8
644(14) 0.00515 665.6 10.9
661(14) 0.00520 666.0 11.0
669(13) 0.00556 666.5 11.1
671(14) 0.00546 667.0 11.2
669(14) 0.00523 667.5 11.2
688(14) 0.00476 667.9 11.3
645(14) 0.00536 668.4 11.4
638(13) 0.00583 668.9 11.5
661(14) 0.00540 669.4 11.6
672(14) 0.00517 669.9 11.7
671(14) 0.00499 670.3 11.8
664(14) 0.00513 670.8 11.9
678(14) 0.00547 671.3 12.0
630(13) 0.00556 671.8 12.1
666(14) 0.00510 672.3 12.2
683(14) 0.00490 672.7 12.3
690(14) 0.00507 673.2 12.4
667(13) 0.00560 673.7 12.5
674(14) 0.00518 674.2 12.7
663(14) 0.00524 674.6 12.8
679(14) 0.00504 675.1 12.9
681(14) 0.00520 675.6 13.0
658(13) 0.00565 676.1 13.2
659(14) 0.00536 676.6 13.3
671(14) 0.00497 677.0 13.4
657(14) 0.00521 677.5 13.6
631(13) 0.00581 678.0 13.7
689(14) 0.00540 678.5 13.8
666(14) 0.00516 679.0 14.0
688(14) 0.00483 679.4 14.1
674(14) 0.00524 679.9 14.3
646(13) 0.00561 680.5 14.4
635(13) 0.00586 681.0 14.6
673(14) 0.00522 681.6 14.8
670(14) 0.00495 682.2 14.9
688(14) 0.00513 682.8 15.1
687(14) 0.00531 683.3 15.3
669(13) 0.00555 683.9 15.4
697(14) 0.00506 684.5 15.6
675(14) 0.00494 685.1 15.8
661(14) 0.00524 685.6 16.0
650(13) 0.00562 686.2 16.2
696(14) 0.00535 686.8 16.4
684(14) 0.00512 687.4 16.6
670(14) 0.00485 687.9 16.8
680(14) 0.00527 688.5 17.0
717(14) 0.00516 689.1 17.2
656(13) 0.00571 689.7 17.4
693(14) 0.00503 690.2 17.7
667(14) 0.00501 690.8 17.9
696(14) 0.00506 691.4 18.1
707(14) 0.00524 691.9 18.4
711(14) 0.00513 692.5 18.6
703(15) 0.00472 693.1 18.9
703(15) 0.00467 693.7 19.2
688(14) 0.00507 694.2 19.4
724(14) 0.00516 694.8 19.7
685(14) 0.00524 695.4 20.0
671(14) 0.00526 696.0 20.3
691(14) 0.00483 696.5 20.6
723(14) 0.00476 697.1 20.9
719(14) 0.00518 697.7 21.2
709(14) 0.00511 698.3 21.5
734(15) 0.00461 698.8 21.8
673(14) 0.00507 699.4 22.2
680(14) 0.00516 700.0 22.5
663(13) 0.00561 700.6 22.9
700(14) 0.00511 701.1 23.2
740(15) 0.00458 701.7 23.6
730(15) 0.00473 702.3 24.0
737(14) 0.00483 702.8 24.4
730(14) 0.00511 703.4 24.8
694(14) 0.00514 704.0 25.2
713(14) 0.00478 704.6 25.6
684(14) 0.00513 705.1 26.1
690(14) 0.00524 705.7 26.5
719(14) 0.00516 706.3 27.0
709(14) 0.00490 706.9 27.5
702(14) 0.00492 707.4 28.0
690(14) 0.00513 708.0 28.5
727(14) 0.00501 708.6 29.0
716(14) 0.00520 709.2 29.5
723(15) 0.00467 709.7 30.1
686(14) 0.00480 710.3 30.6
710(14) 0.00497 710.9 31.2
686(14) 0.00530 711.5 31.8
698(14) 0.00536 712.0 32.5
708(14) 0.00486 712.6 33.1
713(15) 0.00459 713.2 33.8
711(14) 0.00490 713.8 34.5
742(14) 0.00493 714.3 35.2
766(14) 0.00484 714.9 35.9
749(15) 0.00463 715.5 36.7
744(15) 0.00436 716.0 37.5
727(14) 0.00490 716.6 38.3
715(14) 0.00519 717.2 39.1
675(14) 0.00546 717.8 40.0
703(14) 0.00494 718.3 40.9
722(15) 0.00448 718.9 41.8
753(15) 0.00464 719.5 42.8
759(14) 0.00496 720.1 43.8
773(15) 0.00466 720.6 44.8
737(15) 0.00464 721.2 45.9
717(15) 0.00450 721.8 47.0
706(14) 0.00489 722.4 48.2
721(14) 0.00518 722.9 49.4
743(14) 0.00490 723.5 50.6
751(14) 0.00476 724.1 51.9
760(15) 0.00444 724.7 53.3
736(15) 0.00463 725.2 54.7
738(14) 0.00500 725.8 56.2
762(14) 0.00477 726.4 57.7
761(15) 0.00454 727.0 59.3
728(14) 0.00476 727.5 61.0
703(14) 0.00504 728.1 62.7
709(14) 0.00526 728.7 64.5
732(14) 0.00489 729.2 66.4
801(15) 0.00426 729.8 68.4
758(15) 0.00457 730.4 70.5
743(14) 0.00480 731.0 72.6
746(14) 0.00500 731.5 74.9
766(15) 0.00466 732.1 77.3
813(16) 0.00414 732.7 79.8
768(15) 0.00445 733.3 82.5
811(15) 0.00433 733.8 85.2
789(15) 0.00471 734.4 88.1
767(15) 0.00455 735.0 91.2
772(15) 0.00438 735.6 94.4
755(15) 0.00452 736.1 98.0
769(15) 0.00462 736.7 101.6
752(14) 0.00494 737.3 105.4
787(15) 0.00440 737.9 109.5
789(15) 0.00422 738.4 113.7
815(15) 0.00422 739.0 118.3
774(15) 0.00473 739.6 123.1
823(15) 0.00453 740.2 128.2
792(15) 0.00430 740.7 133.6
807(16) 0.00410 741.3 139.4
811(15) 0.00424 741.9 145.6
826(15) 0.00449 742.4 152.2
877(15) 0.00428 743.0 159.2
868(16) 0.00395 743.6 166.8
853(16) 0.00377 744.2 175.0
822(15) 0.00428 744.7 183.7
865(15) 0.00422 745.3 193.1
834(15) 0.00446 745.9 203.3
874(16) 0.00395 746.5 214.3
852(16) 0.00382 747.0 226.3
875(16) 0.00390 747.6 239.3
908(16) 0.00412 748.2 253.4
952(16) 0.00389 748.8 268.9
919(16) 0.00383 749.3 285.8
929(17) 0.00352 749.9 304.4
972(17) 0.00357 750.5 324.9
1006(16) 0.00371 751.1 347.5
1027(17) 0.00358 751.6 372.7
1085(18) 0.003140 752.2 400.8
1090(18) 0.003031 752.8 432.3
1106(18) 0.003143 753.3 467.9
1131(17) 0.003293 753.9 508.5
1215(18) 0.002991 754.5 555.6
1287(19) 0.002683 755.1 610.9
1308(20) 0.002552 755.6 677.1
1389(20) 0.002475 756.2 757.7
1541(20) 0.002408 756.8 857.0
1681(22) 0.002151 757.4 979.8
1824(23) 0.001896 757.9 1131.6
2014(24) 0.001694 758.5 1317.1
2225(25) 0.001561 759.1 1540.0
2563(26) 0.001450 759.7 1802.0
2851(28) 0.001242 760.2 2100.5
3220(31) 0.001066 760.8 2429.2
3672(33) 0.000935 761.4 2785.3
4171(34) 0.000843 762.0 3185.1
4779(36) 0.000773 763. 3670.
5500(40) 0.000635 763. 4289.
6298(43) 0.000537 764. 5085.
7236(46) 0.000474 764. 6083.
8225(48) 0.000430 765. 7282.
9470(51) 0.000386 765. 8649.
10947(57) 0.0003115 766. 10102.
12357(61) 0.0002660 767. 11484.
13716(64) 0.0002477 767. 12566.
14557(64) 0.0002441 768. 13098.
14165(62) 0.0002571 768. 12927.
13050(62) 0.0002577 769. 12099.
11473(60) 0.0002813 769. 10820.
9894(53) 0.0003499 770. 9341.
8343(48) 0.000438 771. 7858.
7073(44) 0.000517 771. 6488.
6066(42) 0.000562 772. 5291.
5163(40) 0.000631 772. 4285.
4379(35) 0.000800 773. 3465.
3859(32) 0.000957 773.4 2812.9
3357(30) 0.001096 774.0 2304.1
2917(29) 0.001181 774.6 1911.8
2661(29) 0.001203 775.2 1610.4
2420(26) 0.001451 775.7 1377.8
2174(24) 0.001702 776.3 1196.2
2076(24) 0.001775 776.9 1051.9
1875(23) 0.001869 777.5 934.9
1754(23) 0.001858 778.0 838.1
1603(21) 0.002194 778.6 756.6
1574(21) 0.002368 779.2 686.9
1479(20) 0.002480 779.7 626.6
1443(20) 0.002421 780.3 574.0
1367(20) 0.002409 780.9 527.7
1269(19) 0.002773 781.5 486.7
1300(19) 0.002860 782.0 450.3
1225(18) 0.002933 782.6 417.8
1185(19) 0.002912 783.2 388.7
1145(19) 0.002892 783.8 362.4
1112(18) 0.003155 784.3 338.8
1126(17) 0.003314 784.9 317.3
1081(17) 0.003290 785.5 297.8
1085(18) 0.003090 786.1 280.1
1055(18) 0.003245 786.6 263.9
1027(17) 0.003418 787.2 249.0
1011(16) 0.00368 787.8 235.4
976(16) 0.00370 788.4 222.9
1019(17) 0.003331 788.9 211.3
949(17) 0.00362 789.5 200.6
915(16) 0.00379 790.1 190.7
956(16) 0.00389 790.7 181.5
945(16) 0.00374 791.2 173.0
930(17) 0.00364 791.8 165.1
929(16) 0.00373 792.4 157.7
941(16) 0.00380 792.9 150.8
925(16) 0.00402 793.5 144.3
915(16) 0.00376 794.1 138.2
897(16) 0.00374 794.7 132.6
890(16) 0.00391 795.2 127.2
898(16) 0.00405 795.8 122.2
871(15) 0.00424 796.4 117.5
883(16) 0.00389 797.0 113.1
888(16) 0.00371 797.5 108.9
845(16) 0.00410 798.1 104.9
835(15) 0.00444 798.7 101.2
854(15) 0.00435 799.3 97.6
911(16) 0.00379 799.8 94.3
893(16) 0.00368 800.4 91.1
898(16) 0.00386 801.0 88.1
887(16) 0.00412 801.6 85.2
878(15) 0.00422 802.1 82.5
858(16) 0.00404 802.7 79.9
867(16) 0.00375 803.3 77.4
860(16) 0.00406 803.8 75.0
837(15) 0.00444 804.4 72.8
834(15) 0.00438 805.0 70.7
836(15) 0.00421 805.6 68.6
820(16) 0.00406 806.1 66.7
848(16) 0.00410 806.7 64.8
863(15) 0.00429 807.3 63.0
829(15) 0.00434 807.9 61.3
849(16) 0.00398 808.4 59.6
844(16) 0.00386 809.0 58.1
846(16) 0.00404 809.6 56.6
831(15) 0.00449 810.2 55.1
814(15) 0.00438 810.7 53.7
819(15) 0.00430 811.3 52.4
822(16) 0.00405 811.9 51.1
855(16) 0.00392 812.5 49.9
818(15) 0.00456 813.0 48.7
805(15) 0.00447 813.6 47.6
809(15) 0.00422 814.2 46.5
833(16) 0.00395 814.8 45.4
868(16) 0.00398 815.3 44.4
873(15) 0.00426 815.9 43.5
866(16) 0.00412 816.5 42.5
839(16) 0.00412 817.0 41.6
850(16) 0.00404 817.6 40.7
855(16) 0.00403 818.2 39.9
803(15) 0.00464 818.8 39.1
797(15) 0.00450 819.3 38.3
823(16) 0.00410 819.9 37.5
848(16) 0.00399 820.5 36.8
865(16) 0.00407 821.1 36.1
787(15) 0.00474 821.6 35.4
827(15) 0.00421 822.2 34.8
826(15) 0.00420 822.8 34.1
809(15) 0.00433 823.4 33.5
777(15) 0.00463 823.9 32.9
803(15) 0.00461 824.5 32.4
832(16) 0.00410 825.1 31.8
838(16) 0.00389 825.7 31.3
845(16) 0.00414 826.2 30.8
832(15) 0.00438 826.8 30.3
851(15) 0.00440 827.4 29.8
859(16) 0.00404 828.0 29.3
828(16) 0.00394 828.5 28.9
825(15) 0.00424 829.1 28.4
893(16) 0.00411 829.7 28.0
834(15) 0.00443 830.2 27.6
792(15) 0.00434 830.8 27.2
833(16) 0.00385 831.4 26.9
829(15) 0.00430 832.0 26.5
847(15) 0.00440 832.5 26.2
852(15) 0.00438 833.1 25.8
883(16) 0.00393 833.7 25.5
843(16) 0.00378 834.3 25.2
857(16) 0.00399 834.8 24.9
809(15) 0.00459 835.4 24.7
857(15) 0.00430 836.0 24.4
840(16) 0.00412 836.6 24.1
828(16) 0.00397 837.1 23.9
856(16) 0.00400 837.7 23.7
850(15) 0.00435 838.3 23.5
813(15) 0.00454 838.9 23.3
846(15) 0.00417 839.5 23.1
868(16) 0.00387 840.1 22.9
829(15) 0.00422 840.7 22.8
845(15) 0.00442 841.3 22.6
853(15) 0.00423 841.9 22.5
811(15) 0.00423 842.5 22.4
834(16) 0.00399 843.0 22.3
837(16) 0.00413 843.6 22.2
783(15) 0.00472 844.2 22.1
855(15) 0.00421 844.8 22.1
886(16) 0.00384 845.4 22.1
880(16) 0.00391 846.0 22.1
872(16) 0.00403 846.6 22.1
842(15) 0.00443 847.2 22.1
869(16) 0.00401 847.8 22.2
843(16) 0.00413 848.4 22.3
869(16) 0.00397 849.0 22.4
840(15) 0.00422 849.6 22.5
863(15) 0.00430 850.2 22.7
858(16) 0.00404 850.7 22.9
889(16) 0.00379 851.3 23.1
865(16) 0.00411 851.9 23.4
891(16) 0.00401 852.5 23.8
854(15) 0.00434 853.1 24.2
875(16) 0.00399 853.7 24.6
892(16) 0.00371 854.3 25.1
827(15) 0.00417 854.9 25.7
850(15) 0.00427 855.5 26.4
836(15) 0.00444 856.1 27.2
836(15) 0.00421 856.7 28.1
866(16) 0.00384 857.3 29.1
860(16) 0.00411 857.8 30.3
889(16) 0.00415 858.4 31.6
908(16) 0.00407 859.0 33.2
850(16) 0.00405 859.6 35.0
871(16) 0.00369 860.2 37.1
851(16) 0.00413 860.8 39.5
913(16) 0.00407 861.4 42.4
869(15) 0.00429 862.0 45.7
899(16) 0.00383 862.6 49.8
888(17) 0.00366 863.2 54.6
949(17) 0.00363 863.8 60.6
945(16) 0.00394 864.4 67.8
939(16) 0.00392 865.0 77.0
988(17) 0.00355 865.5 89.2
982(17) 0.003374 866.1 106.6
1116(18) 0.002974 866.7 134.1
1205(18) 0.003060 867.3 182.1
1375(19) 0.002664 867.9 269.1
1523(21) 0.002308 868.5 422.7
1716(23) 0.001939 869.1 673.3
1996(24) 0.001681 869.7 1040.2
2120(24) 0.001739 870.3 1508.5
2498(26) 0.001458 870.9 2009.9
2901(29) 0.001196 871.5 2408.6
3438(32) 0.000963 872.1 2534.7
3793(33) 0.000899 872.7 2319.6
3155(29) 0.001174 873.2 1875.9
2169(25) 0.001606 873.8 1372.7
1626(22) 0.002112 874.4 927.6
1374(20) 0.002512 875.0 592.8
1174(18) 0.003065 875.6 371.1
1110(17) 0.003348 876.2 238.7
1047(17) 0.003301 876.8 164.5
986(17) 0.00351 877.4 123.4
954(17) 0.00360 878.0 99.2
960(16) 0.00368 878.6 83.4
919(16) 0.00407 879.2 72.0
966(17) 0.00358 879.8 63.2
956(17) 0.00354 880.3 56.1
937(16) 0.00374 880.9 50.3
931(16) 0.00390 881.5 45.5
922(16) 0.00402 882.1 41.5
891(16) 0.00389 882.7 38.0
902(17) 0.00365 883.3 35.1
904(16) 0.00383 883.9 32.6
906(16) 0.00399 884.5 30.4
875(15) 0.00427 885.1 28.4
903(16) 0.00389 885.7 26.7
888(16) 0.00379 886.3 25.2
854(16) 0.00414 886.9 23.9
904(16) 0.00401 887.5 22.7
924(16) 0.00401 888.0 21.6
865(16) 0.00393 888.6 20.7
881(16) 0.00368 889.2 19.8
869(16) 0.00403 889.8 19.0
948(16) 0.00389 890.4 18.3
887(15) 0.00419 891.0 17.6
887(16) 0.00387 891.6 17.0
868(16) 0.00371 892.2 16.4
836(15) 0.00417 892.8 15.9
885(15) 0.00420 893.4 15.4
878(15) 0.00420 894.0 15.0
871(16) 0.00389 894.6 14.6
891(17) 0.00360 895.2 14.2
872(16) 0.00404 895.7 13.8
877(15) 0.00425 896.3 13.5
877(15) 0.00427 896.9 13.2
919(16) 0.00378 897.5 12.9
857(16) 0.00386 898.1 12.6
908(16) 0.00381 898.7 12.4
938(16) 0.00396 899.3 12.1
888(16) 0.00403 899.9 11.9
874(16) 0.00397 900.5 11.7
905(16) 0.00369 901.1 11.5
899(16) 0.00389 901.7 11.3
906(16) 0.00410 902.3 11.1
890(16) 0.00403 902.9 10.9
897(16) 0.00387 903.4 10.7
865(16) 0.00394 904.0 10.3
876(16) 0.00395 904.6 10.2
920(16) 0.00406 905.2 10.0
911(16) 0.00393 905.8 9.9
916(16) 0.00369 906.4 9.8
926(17) 0.00367 907.0 9.6
907(16) 0.00389 907.6 9.5
932(16) 0.00399 908.2 9.4
890(16) 0.00393 908.8 9.3
946(17) 0.00352 909.4 9.2
916(16) 0.00377 910.0 9.1
936(16) 0.00388 910.6 9.0
891(16) 0.00415 911.2 8.9
918(16) 0.00380 911.8 8.8
932(17) 0.00364 912.4 8.7
952(17) 0.00365 913.1 8.6
921(16) 0.00400 913.7 8.6
914(16) 0.00407 914.3 8.5
911(16) 0.00383 914.9 8.4
890(16) 0.00380 915.5 8.3
907(16) 0.00379 916.2 8.3
908(16) 0.00405 916.8 8.2
911(16) 0.00407 917.4 8.2
937(16) 0.00370 918.0 8.1
916(17) 0.00361 918.7 8.0
943(17) 0.00365 919.3 8.0
934(16) 0.00397 919.9 7.9
908(16) 0.00407 920.5 7.9
935(16) 0.00378 921.2 7.8
944(17) 0.003392 921.8 7.8
936(16) 0.00373 922.4 7.7
952(16) 0.00390 923.0 7.7
916(16) 0.00407 923.7 7.7
889(16) 0.00396 924.3 7.6
934(17) 0.003376 924.9 7.6
916(16) 0.00379 925.5 7.6
908(16) 0.00406 926.2 7.5
928(16) 0.00397 926.8 7.5
950(17) 0.00358 927.4 7.5
925(17) 0.00356 928.0 7.4
959(17) 0.00361 928.7 7.4
928(16) 0.00400 929.3 7.4
945(16) 0.00387 929.9 7.4
929(16) 0.00370 930.5 7.3
968(17) 0.003417 931.2 7.3
930(16) 0.00381 931.8 7.3
940(16) 0.00398 932.4 7.3
904(16) 0.00400 933.0 7.3
914(16) 0.00380 933.7 7.3
921(17) 0.00364 934.3 7.2
970(17) 0.00355 934.9 7.2
944(16) 0.00391 935.5 7.2
932(16) 0.00387 936.1 7.2
992(17) 0.003431 936.8 7.2
987(17) 0.003468 937.4 7.2
963(17) 0.00367 938.0 7.2
946(16) 0.00392 938.6 7.2
936(16) 0.00370 939.3 7.2
903(16) 0.00374 939.9 7.2
926(16) 0.00368 940.5 7.2
957(16) 0.00371 941.1 7.2
948(16) 0.00395 941.8 7.2
963(17) 0.00360 942.4 7.2
947(17) 0.00352 943.0 7.2
900(16) 0.00391 943.6 7.2
894(16) 0.00410 944.3 7.2
936(16) 0.00393 944.9 7.2
952(17) 0.00365 945.5 7.2
944(17) 0.003453 946.1 7.2
923(16) 0.00376 946.8 7.2
994(17) 0.00366 947.4 7.3
967(16) 0.00386 948.0 7.3
977(17) 0.00352 948.6 7.3
899(17) 0.00365 949.3 7.3
909(16) 0.00379 949.9 7.3
987(16) 0.00370 950.5 7.4
968(16) 0.00385 951.1 7.4
957(17) 0.00361 951.8 7.4
975(17) 0.003299 952.4 7.4
950(16) 0.00368 953.0 7.5
940(16) 0.00396 953.6 7.5
982(16) 0.00377 954.3 7.5
926(16) 0.00379 954.9 7.5
927(17) 0.00353 955.5 7.6
955(17) 0.00361 956.1 7.6
977(16) 0.00380 956.7 7.7
961(16) 0.00382 957.4 7.7
919(16) 0.00390 958.0 7.7
976(17) 0.003337 958.6 7.8
996(17) 0.003491 959.2 7.8
983(16) 0.00379 959.9 7.9
946(16) 0.00385 960.5 7.9
943(16) 0.00368 961.1 8.0
978(17) 0.003375 961.7 8.0
994(17) 0.003447 962.4 8.1
936(16) 0.00396 963.0 8.1
987(17) 0.00362 963.6 8.2
961(17) 0.00359 964.2 8.2
966(17) 0.003508 964.9 8.3
1000(17) 0.003443 965.5 8.4
995(16) 0.00372 966.1 8.4
976(16) 0.00372 966.7 8.5
1016(17) 0.003418 967.4 8.6
994(17) 0.003361 968.0 8.7
942(16) 0.00372 968.6 8.7
989(16) 0.00377 969.2 8.8
993(17) 0.00354 969.9 8.9
988(17) 0.003409 970.5 9.0
994(17) 0.003390 971.1 9.1
1010(17) 0.003494 971.7 9.2
989(16) 0.00372 972.4 9.3
981(17) 0.00365 973.0 9.4
991(17) 0.003397 973.6 9.5
962(17) 0.00357 974.2 9.6
1016(17) 0.00353 974.8 9.7
986(16) 0.00375 975.5 9.8
1010(17) 0.003327 976.1 9.9
1007(17) 0.003351 976.7 10.1
1009(17) 0.003405 977.3 10.2
961(16) 0.00385 978.0 10.3
986(16) 0.00377 978.6 10.5
989(17) 0.003470 979.2 10.6
1000(17) 0.003305 979.8 10.8
1002(17) 0.00352 980.5 10.9
1061(17) 0.003462 981.1 11.1
966(16) 0.00388 981.7 11.2
1000(17) 0.00352 982.4 11.4
1016(18) 0.003194 983.0 11.6
971(17) 0.00362 983.6 11.8
987(16) 0.00373 984.3 12.0
997(16) 0.00372 984.9 12.2
1014(17) 0.003462 985.6 12.4
976(17) 0.003365 986.2 12.6
978(17) 0.00353 986.9 12.8
978(16) 0.00380 987.5 13.0
970(16) 0.00380 988.2 13.3
1010(17) 0.003414 988.8 13.5
1026(18) 0.003143 989.4 13.8
984(17) 0.00356 990.1 14.0
1059(17) 0.003498 990.7 14.3
1020(17) 0.00362 991.4 14.6
1014(17) 0.003429 992.0 14.9
1021(18) 0.003223 992.7 15.2
1006(17) 0.003416 993.3 15.5
987(16) 0.00378 994.0 15.9
1007(17) 0.00362 994.6 16.2
1042(17) 0.003327 995.2 16.6
1036(18) 0.003243 995.9 17.0
997(17) 0.003415 996.5 17.4
1016(17) 0.00367 997.2 17.8
1069(17) 0.003361 997.8 18.3
1042(17) 0.003322 998.5 18.7
1040(18) 0.003220 999.1 19.2
1062(17) 0.003316 999.8 19.7
994(16) 0.00374 1000.4 20.2
1032(17) 0.003433 1001.1 20.8
1043(17) 0.003328 1001.7 21.4
1028(17) 0.003409 1002.3 22.0
998(17) 0.00362 1003.0 22.6
1005(16) 0.00369 1003.6 23.3
1017(17) 0.00351 1004.3 24.0
1001(17) 0.003389 1004.9 24.8
952(17) 0.00361 1005.6 25.6
995(17) 0.00360 1006.2 26.4
1013(17) 0.00366 1006.9 27.3
1045(17) 0.003328 1007.5 28.2
1017(17) 0.003345 1008.1 29.2
1020(17) 0.003403 1008.8 30.2
1043(17) 0.003447 1009.4 31.3
1083(17) 0.003441 1010.1 32.5
1040(17) 0.003318 1010.7 33.7
991(17) 0.003404 1011.4 35.0
1032(17) 0.003356 1012.0 36.4
1017(17) 0.00359 1012.7 37.9
1053(17) 0.00354 1013.3 39.5
1045(17) 0.003349 1013.9 41.2
980(17) 0.003382 1014.6 43.0
1030(17) 0.003299 1015.2 45.0
1067(17) 0.003465 1015.9 47.1
1051(17) 0.00353 1016.5 49.3
996(17) 0.00352 1017.2 51.7
1068(18) 0.003006 1017.8 54.4
1083(18) 0.003178 1018.5 57.2
1085(17) 0.003419 1019.1 60.2
1037(17) 0.00354 1019.7 63.5
1044(17) 0.003276 1020.4 67.1
1092(19) 0.002896 1021.0 71.1
1048(17) 0.003291 1021.7 75.3
1102(17) 0.003384 1022.3 80.0
1108(17) 0.003328 1023.0 85.2
1083(18) 0.003194 1023.6 90.8
1092(18) 0.003033 1024.3 97.1
1132(18) 0.003026 1024.9 104.0
1097(17) 0.003405 1025.5 111.7
1106(17) 0.003307 1026.2 120.3
1077(18) 0.003212 1026.8 129.9
1166(19) 0.002821 1027.5 140.8
1172(18) 0.002985 1028.1 153.2
1175(18) 0.003127 1028.8 167.4
1153(18) 0.003123 1029.4 183.8
1200(19) 0.002843 1030.1 203.1
1304(20) 0.002553 1030.7 226.0
1260(19) 0.002806 1031.3 253.5
1286(19) 0.002895 1032.0 287.0
1342(19) 0.002658 1032.6 328.0
1369(20) 0.002537 1033.3 378.5
1422(20) 0.002423 1033.9 441.0
1528(21) 0.002296 1034.6 517.8
1620(21) 0.002289 1035.2 611.7
1723(22) 0.002075 1035.9 725.1
1898(24) 0.001773 1036.5 860.4
2044(24) 0.001696 1037.1 1018.8
2216(25) 0.001605 1037.8 1199.9
2439(26) 0.001518 1038.4 1400.9
2684(28) 0.001295 1039.1 1614.8
2904(29) 0.001168 1039.7 1828.5
3131(30) 0.001105 1040.4 2021.3
3356(30) 0.001077 1041.0 2166.3
3374(30) 0.001097 1041.7 2237.7
3235(31) 0.001052 1042.3 2220.5
3088(31) 0.001069 1042.9 2118.4
2887(29) 0.001193 1043.6 1951.9
2635(27) 0.001387 1044.2 1748.2
2456(26) 0.001509 1044.9 1532.4
2242(25) 0.001539 1045.5 1322.3
2173(26) 0.001492 1046.2 1128.2
1943(24) 0.001806 1046.8 955.6
1844(22) 0.001990 1047.5 806.1
1745(22) 0.002125 1048.1 679.3
1639(22) 0.002117 1048.7 573.6
1564(22) 0.002065 1049.4 486.5
1482(21) 0.002317 1050.0 415.4
1393(19) 0.002650 1050.7 357.8
1409(20) 0.002585 1051.3 311.1
1376(20) 0.002489 1052.0 273.2
1289(20) 0.002536 1052.6 242.2
1313(20) 0.002611 1053.3 216.6
1227(18) 0.003023 1053.9 195.1
1273(19) 0.002899 1054.6 177.0
1239(19) 0.002789 1055.2 161.5
1181(19) 0.002763 1055.8 148.0
1221(19) 0.002828 1056.5 136.2
1240(18) 0.002986 1057.1 125.8
1212(18) 0.002977 1057.8 116.6
1218(19) 0.002851 1058.4 108.3
1137(18) 0.002943 1059.1 100.9
1176(19) 0.002919 1059.7 94.3
1186(18) 0.003094 1060.4 88.2
1170(18) 0.003097 1061.0 82.8
1125(18) 0.003051 1061.6 77.8
1169(19) 0.002865 1062.3 73.2
1141(18) 0.003035 1062.9 69.1
1144(18) 0.003214 1063.6 65.3
1163(18) 0.003016 1064.2 61.8
1160(19) 0.002907 1064.9 58.6
1159(18) 0.002939 1065.5 55.6
1135(18) 0.003099 1066.2 52.8
1144(18) 0.003234 1066.8 50.3
1140(18) 0.003079 1067.4 47.9
1116(18) 0.003002 1068.1 45.7
1120(18) 0.003060 1068.7 43.7
1115(18) 0.003157 1069.4 41.8
1124(17) 0.003291 1070.0 40.0
1126(18) 0.003048 1070.7 38.3
1115(18) 0.002990 1071.3 36.7
1125(18) 0.003056 1072.0 35.3
1096(17) 0.003278 1072.6 33.9
1099(17) 0.003373 1073.2 32.6
1046(17) 0.003272 1073.9 31.4
1083(18) 0.003119 1074.5 30.2
1135(18) 0.003058 1075.2 29.1
1142(18) 0.003194 1075.8 28.1
1070(17) 0.003484 1076.5 27.1
1079(18) 0.003171 1077.1 26.2
1077(18) 0.003002 1077.8 25.3
1109(18) 0.003106 1078.4 24.5
1116(17) 0.003286 1079.0 23.7
1131(17) 0.003283 1079.7 22.9
1102(18) 0.003140 1080.3 22.2
1134(19) 0.002852 1081.0 21.6
1085(18) 0.003192 1081.6 20.9
1119(17) 0.003329 1082.3 20.3
1161(18) 0.003184 1082.9 19.7
1086(18) 0.003263 1083.6 19.2
1083(18) 0.002982 1084.2 18.6
1138(18) 0.003052 1084.8 18.1
1118(17) 0.003352 1085.5 17.6
1113(17) 0.003335 1086.1 17.1
1082(18) 0.003216 1086.8 16.7
1126(19) 0.002880 1087.4 16.3
1108(18) 0.003163 1088.1 15.9
1122(17) 0.003289 1088.7 15.5
1068(17) 0.003426 1089.4 15.1
1037(17) 0.003327 1090.0 14.7
1079(18) 0.003078 1090.6 14.4
1144(18) 0.002984 1091.3 14.0
1144(18) 0.003245 1091.9 13.7
1143(18) 0.003130 1092.6 13.4
1060(17) 0.003294 1093.2 13.1
1095(18) 0.003050 1093.9 12.8
1112(18) 0.003090 1094.5 12.5
1107(17) 0.003353 1095.2 12.3
1166(18) 0.003027 1095.8 12.0
1095(18) 0.003154 1096.4 11.7
1101(18) 0.003050 1097.1 11.5
1106(18) 0.003171 1097.7 11.3
1142(18) 0.003257 1098.4 11.0
1078(18) 0.003259 1099.0 10.8
1125(18) 0.003028 1099.7 10.6
1180(19) 0.002864 1100.3 10.4
1098(17) 0.003278 1101.0 10.2
1112(17) 0.003362 1101.6 10.0
1130(18) 0.003126 1102.3 9.8
1114(18) 0.003044 1102.9 9.7
1119(18) 0.003098 1103.5 9.5
1085(17) 0.003369 1104.2 9.3
1132(17) 0.003285 1104.8 9.1
1145(18) 0.003044 1105.5 9.0
1096(18) 0.003103 1106.1 7.9
1128(18) 0.003112 1106.8 7.8
1114(17) 0.003326 1107.4 7.6
1091(17) 0.003396 1108.1 7.5
1114(18) 0.003126 1108.7 7.4
1124(19) 0.002873 1109.3 7.2
1116(18) 0.003102 1110.0 7.1
1157(18) 0.003201 1110.6 7.0
1133(18) 0.003260 1111.3 6.9
1157(18) 0.002985 1111.9 6.7
1183(19) 0.002689 1112.6 6.6
1110(18) 0.003119 1113.2 6.5
1126(17) 0.003300 1113.9 6.4
1156(18) 0.003188 1114.5 6.3
1153(18) 0.003090 1115.1 6.2
1129(19) 0.002830 1115.8 6.1
1094(18) 0.003198 1116.4 6.0
1102(17) 0.003369 1117.1 5.9
1153(18) 0.003159 1117.7 5.9
1119(18) 0.003104 1118.4 5.8
1140(19) 0.002872 1119.0 5.7
1095(18) 0.003179 1119.7 5.6
1089(17) 0.003382 1120.3 5.5
1114(17) 0.003326 1120.9 5.5
1124(18) 0.003085 1121.6 5.4
1129(18) 0.002968 1122.2 5.3
1136(18) 0.003084 1122.9 5.2
1115(17) 0.003349 1123.5 5.2
1139(18) 0.003184 1124.2 5.1
1150(18) 0.003077 1124.8 5.1
1118(18) 0.003065 1125.5 5.0
1128(18) 0.003092 1126.1 4.9
1104(17) 0.003343 1126.7 4.9
1121(18) 0.003175 1127.4 4.8
1145(18) 0.003000 1128.0 4.8
1166(18) 0.002941 1128.7 4.7
1139(18) 0.003113 1129.3 4.7
1140(18) 0.003248 1130.0 4.6
1165(18) 0.003095 1130.6 4.6
1103(18) 0.003171 1131.3 4.5
1114(18) 0.003070 1131.7 4.5
1145(18) 0.003109 1131.8 4.4
1145(18) 0.003246 1132.0 4.4
1138(18) 0.003098 1132.2 4.3
1162(19) 0.002881 1132.4 4.3
1119(18) 0.003174 1132.6 4.3
1157(18) 0.003103 1132.7 4.2
1108(17) 0.003351 1132.9 4.2
1115(18) 0.003072 1133.1 4.2
1149(18) 0.002941 1133.3 4.1
1135(18) 0.003087 1133.5 4.1
1169(18) 0.003116 1133.6 4.1
1108(17) 0.003344 1133.8 4.1
1127(18) 0.003062 1134.0 4.0
1166(19) 0.002816 1134.2 4.0
1105(18) 0.003225 1134.4 4.0
1146(18) 0.003197 1134.5 4.0
1150(18) 0.003236 1134.7 4.0
1103(18) 0.003122 1134.9 3.9
1128(19) 0.002863 1135.1 3.9
1148(18) 0.002961 1135.3 3.9
1128(18) 0.003208 1135.4 3.9
1137(17) 0.003297 1135.6 3.9
1131(18) 0.003126 1135.8 3.9
1147(19) 0.002822 1136.0 3.9
1140(18) 0.003067 1136.2 3.9
1133(17) 0.003270 1136.3 3.9
1150(18) 0.003239 1136.5 3.9
1121(18) 0.003071 1136.7 3.9
1110(18) 0.003043 1136.9 3.9
1156(18) 0.003054 1137.1 3.9
1138(17) 0.003277 1137.2 3.9
1147(18) 0.003184 1137.4 3.9
1121(18) 0.003171 1137.6 3.9
1143(19) 0.002893 1137.8 3.9
1141(18) 0.003055 1138.0 4.0
1135(17) 0.003287 1138.1 4.0
1185(18) 0.003064 1138.3 4.0
1181(18) 0.002933 1138.5 4.1
1186(19) 0.002786 1138.7 4.1
1138(18) 0.003040 1138.9 4.1
1188(18) 0.003131 1139.0 4.2
1172(18) 0.003090 1139.2 4.2
1132(18) 0.003068 1139.4 4.3
1161(19) 0.002909 1139.6 4.3
1133(18) 0.003117 1139.8 4.4
1128(17) 0.003301 1139.9 4.5
1158(18) 0.003096 1140.1 4.6
1165(19) 0.002884 1140.3 4.7
1149(18) 0.003004 1140.5 4.7
1155(18) 0.003065 1140.7 4.9
1133(17) 0.003290 1140.8 5.0
1146(18) 0.003086 1141.0 5.1
1128(18) 0.003064 1141.2 5.2
1186(19) 0.002905 1141.4 5.4
1186(18) 0.002966 1141.6 5.6
1176(18) 0.003163 1141.7 5.7
1137(18) 0.003093 1141.9 5.9
1135(18) 0.003009 1142.1 6.2
1192(19) 0.002869 1142.3 6.4
1161(18) 0.003091 1142.5 6.7
1163(18) 0.003212 1142.6 7.0
1155(18) 0.002982 1142.8 7.3
1174(19) 0.002786 1143.0 7.7
1133(18) 0.003038 1143.2 8.1
1154(18) 0.003182 1143.4 8.6
1155(18) 0.003205 1143.5 9.2
1218(19) 0.002768 1143.7 9.8
1139(19) 0.002874 1143.9 10.5
1153(18) 0.002933 1144.1 11.4
1199(18) 0.003067 1144.3 12.4
1223(18) 0.003032 1144.4 13.6
1131(18) 0.003139 1144.6 15.0
1189(19) 0.002660 1144.8 16.8
1167(18) 0.003008 1145.0 18.8
1205(18) 0.003067 1145.2 21.4
1166(18) 0.003162 1145.3 24.4
1182(18) 0.002938 1145.5 28.0
1181(19) 0.002701 1145.7 32.2
1179(18) 0.002923 1145.9 37.2
1192(18) 0.003104 1146.1 42.9
1220(18) 0.003017 1146.2 49.4
1255(19) 0.002770 1146.4 56.6
1254(20) 0.002628 1146.6 64.3
1177(18) 0.002989 1146.8 72.3
1281(19) 0.002876 1147.0 80.1
1234(18) 0.002950 1147.1 87.1
1250(19) 0.002789 1147.3 92.4
1290(20) 0.002599 1147.5 95.3
1286(19) 0.002710 1147.7 95.2
1255(18) 0.002972 1147.9 92.3
1225(18) 0.002964 1148.0 87.0
1227(19) 0.002795 1148.2 80.0
1222(19) 0.002721 1148.4 72.2
1266(19) 0.002683 1148.6 64.3
1261(18) 0.002934 1148.8 56.6
1195(18) 0.002986 1148.9 49.4
1203(19) 0.002861 1149.1 43.0
1191(19) 0.002902 1149.3 37.3
1196(18) 0.002966 1149.5 32.5
1242(18) 0.002990 1149.7 28.3
1238(19) 0.002868 1149.8 24.8
1215(19) 0.002797 1150.0 21.9
1203(19) 0.002832 1150.2 19.4
1114(18) 0.003213 1150.4 17.5
1166(18) 0.003196 1150.6 15.8
1205(19) 0.002843 1150.8 14.5
1214(19) 0.002750 1150.9 13.4
1179(18) 0.002959 1151.1 12.6
1171(18) 0.003082 1151.3 11.8
1176(18) 0.003146 1151.5 11.2
1180(19) 0.002881 1151.6 10.7
1178(19) 0.002856 1151.8 10.3
1175(18) 0.003038 1152.0 9.9
1183(18) 0.003066 1152.2 9.6
1167(18) 0.003193 1152.4 9.2
1162(18) 0.002996 1152.5 8.9
1167(19) 0.002839 1152.7 8.6
1185(18) 0.002925 1152.9 8.2
1166(18) 0.003153 1153.1 7.9
1169(18) 0.003179 1153.3 7.6
1233(19) 0.002840 1153.4 7.2
1187(19) 0.002735 1153.6 6.9
1199(19) 0.002870 1153.8 6.5
1150(18) 0.003179 1154.0 6.2
1165(18) 0.003229 1154.2 5.9
1181(18) 0.002958 1154.3 5.6
1216(19) 0.002659 1154.5 5.3
1254(19) 0.002747 1154.7 5.0
1169(18) 0.003159 1154.9 4.8
1154(18) 0.003204 1155.1 4.6
1207(19) 0.002868 1155.3 4.4
1116(18) 0.003007 1155.4 4.2
1118(18) 0.003124 1155.6 4.0
1131(17) 0.003322 1155.8 3.8
1138(18) 0.003186 1156.0 3.6
1181(19) 0.002846 1156.1 3.5
1143(18) 0.002936 1156.3 3.4
1165(18) 0.002967 1156.5 3.2
1175(18) 0.003169 1156.7 3.1
1194(18) 0.003047 1156.9 3.0
1147(18) 0.003073 1157.0 2.9
1185(19) 0.002834 1157.2 2.8
1184(18) 0.002928 1157.4 2.7
1175(18) 0.003164 1157.6 2.6
1142(18) 0.003073 1157.8 2.6
1158(18) 0.002936 1157.9 2.5
1196(19) 0.002841 1158.1 2.4
1182(18) 0.002959 1158.3 2.4
1174(18) 0.003176 1158.5 2.3
1188(18) 0.002989 1158.7 2.3
1153(18) 0.002974 1158.8 2.2
1142(18) 0.003017 1159.0 2.2
1152(18) 0.003091 1159.2 2.1
1218(18) 0.003047 1159.4 2.1
1198(19) 0.002907 1159.6 2.0
1197(19) 0.002770 1159.8 2.0
1162(18) 0.003028 1159.9 1.9
1165(18) 0.003156 1160.1 1.9
1169(18) 0.003179 1160.3 1.9
1193(19) 0.002892 1160.5 1.8
1165(19) 0.002862 1160.7 1.8
1175(18) 0.002964 1160.8 1.8
1178(18) 0.003112 1161.0 1.7
1171(18) 0.003176 1161.2 1.7
1151(18) 0.003040 1161.4 1.7
1222(19) 0.002737 1161.5 1.7
1184(18) 0.002929 1161.7 1.6
1153(18) 0.003207 1161.9 1.6
1205(18) 0.003072 1162.1 1.6
1156(18) 0.002949 1162.3 1.6
1186(19) 0.002697 1162.4 1.5
1159(18) 0.003061 1162.6 1.5
1171(18) 0.003127 1162.8 1.5
1199(18) 0.003072 1163.0 1.5
1131(18) 0.003167 1163.2 1.4
1185(19) 0.002757 1163.3 1.4
1152(18) 0.003046 1163.5 1.4
1183(18) 0.003127 1163.7 1.4
1195(18) 0.003067 1163.9 1.4
1130(18) 0.003108 1164.1 1.4
1166(19) 0.002789 1164.3 1.3
1163(18) 0.002985 1164.4 1.3
1176(18) 0.003152 1164.6 1.3
1163(18) 0.003157 1164.8 1.3
1160(18) 0.002936 1165.0 1.3
1167(19) 0.002791 1165.2 1.3
1183(18) 0.002936 1165.3 1.2
1216(18) 0.003058 1165.5 1.2
1129(17) 0.003287 1165.7 1.2
1145(18) 0.002983 1165.9 1.2
1205(19) 0.002709 1165.6 1.2
1158(18) 0.002991 1165.3 1.2
1169(18) 0.003185 1165.0 1.2
1184(18) 0.002988 1164.7 1.1
1176(18) 0.002933 1164.4 1.1
1166(19) 0.002889 1164.1 1.1
1172(18) 0.002978 1163.8 1.1
1207(18) 0.003078 1163.4 1.1
1135(18) 0.003138 1163.1 1.1
1181(19) 0.002882 1162.8 1.1
1205(19) 0.002830 1162.5 1.1
1197(19) 0.002921 1162.2 1.1
1227(18) 0.003047 1161.9 1.0
1182(19) 0.002909 1161.6 1.0
1141(18) 0.003009 1161.2 1.0
1209(19) 0.002817 1160.9 1.1
1174(18) 0.003030 1160.6 1.1
1209(18) 0.003076 1160.3 1.1
1167(18) 0.003001 1160.0 1.1
1187(19) 0.002839 1159.7 1.1
1186(19) 0.002884 1159.4 1.1
1201(18) 0.003053 1159.0 1.1
1158(18) 0.003223 1158.7 1.1
1179(18) 0.002937 1158.4 1.1
1206(19) 0.002735 1158.1 1.1
1179(19) 0.002918 1157.8 1.1
1195(18) 0.003053 1157.5 1.0
1181(18) 0.003142 1157.2 1.0
1175(18) 0.002971 1156.9 1.0
1131(18) 0.002923 1156.5 1.0
1209(19) 0.002796 1156.2 1.0
1184(18) 0.003125 1155.9 1.0
1180(18) 0.003122 1155.6 1.0
1172(18) 0.003003 1155.3 1.0
1183(19) 0.002703 1155.0 1.0
1188(18) 0.002944 1154.7 1.0
1220(18) 0.003011 1154.3 1.0
1174(18) 0.003173 1154.0 1.0
1147(18) 0.003078 1153.7 1.0
1176(19) 0.002789 1153.4 1.0
1225(19) 0.002825 1153.1 1.0
1163(18) 0.003192 1152.8 1.0
1208(18) 0.003032 1152.5 1.0
1206(19) 0.002880 1152.1 1.0
1197(19) 0.002767 1151.8 1.0
1195(18) 0.002924 1151.5 0.9
1172(18) 0.003175 1151.2 0.9
1185(18) 0.003032 1150.9 0.9
1115(18) 0.003125 1150.6 0.9
1128(18) 0.002986 1150.3 0.9
1179(19) 0.002895 1149.9 0.9
1136(17) 0.003270 1149.6 0.9
1164(18) 0.003070 1149.3 0.9
1193(19) 0.002835 1149.0 0.9
1141(18) 0.002998 1148.7 0.9
1213(19) 0.002871 1148.4 0.9
1183(18) 0.003147 1148.1 0.9
1173(18) 0.003007 1147.8 0.9
1123(18) 0.003027 1147.4 0.9
1163(18) 0.002932 1147.1 0.9
1201(18) 0.002956 1146.8 0.9
1177(18) 0.003156 1146.5 0.9
1190(18) 0.002936 1146.2 0.9
1169(18) 0.002933 1145.9 0.9
1144(18) 0.003004 1145.6 0.9
1153(18) 0.003069 1145.2 0.9
1160(18) 0.003215 1144.9 0.9
1171(18) 0.002940 1144.6 0.8
1137(19) 0.002900 1144.3 0.8
1172(19) 0.002880 1144.0 0.8
1177(18) 0.003066 1143.7 0.8
1165(18) 0.003183 1143.4 0.8
1192(19) 0.002861 1143.0 0.8
1190(19) 0.002766 1142.7 0.8
1182(18) 0.002941 1142.4 0.8
1129(17) 0.003296 1142.1 0.8
1172(18) 0.003145 1141.8 0.8
1200(19) 0.002867 1141.5 0.8
1188(19) 0.002771 1141.2 0.8
1201(19) 0.002909 1140.8 0.8
1213(18) 0.002998 1140.5 0.8
1224(18) 0.003020 1140.2 0.8
1134(18) 0.003145 1139.9 0.8
1142(19) 0.002804 1139.6 0.8
1153(18) 0.002983 1139.3 0.8
1233(18) 0.002998 1139.0 0.8
1164(18) 0.003177 1138.7 0.8
1152(18) 0.003015 1138.3 0.8
1120(18) 0.002952 1138.0 0.8
1189(18) 0.002936 1137.7 0.8
1203(18) 0.003097 1137.4 0.8
1155(18) 0.003185 1137.1 0.8
1174(18) 0.003026 1136.8 0.8
1210(19) 0.002757 1136.5 0.8
1203(19) 0.002872 1136.1 0.8
1164(18) 0.003192 1135.8 0.8
1155(18) 0.003159 1135.5 0.8
1175(18) 0.002926 1135.2 0.8
1157(18) 0.002962 1134.9 0.8
1168(18) 0.003041 1134.6 0.7
1182(18) 0.003133 1134.3 0.7
1183(18) 0.003050 1133.9 0.7
1202(19) 0.002865 1133.6 0.7
1187(19) 0.002868 1133.3 0.7
1153(18) 0.003008 1133.0 0.7
1149(18) 0.003248 1132.7 0.7
1179(18) 0.003035 1132.4 0.7
1156(18) 0.002987 1132.1 0.7
1174(19) 0.002914 1131.7 0.7
1193(18) 0.002932 1131.4 0.7
1155(18) 0.003226 1131.1 0.7
1152(18) 0.003064 1130.8 0.7
1205(19) 0.002769 1130.5 0.7
1187(19) 0.002772 1130.2 0.7
1117(18) 0.003201 1129.9 0.7
1137(17) 0.003275 1129.6 0.7
1176(18) 0.003028 1129.2 0.7
1159(18) 0.002923 1128.9 0.7
1163(18) 0.003005 1128.6 0.7
1172(18) 0.003088 1128.3 0.7
1178(18) 0.003145 1128.0 0.7
1142(18) 0.003078 1127.7 0.7
1191(19) 0.002807 1127.4 0.7
1199(19) 0.002897 1127.0 0.7
1157(18) 0.003186 1126.7 0.7
1125(17) 0.003315 1126.4 0.7
1157(18) 0.002988 1126.1 0.7
1152(19) 0.002908 1125.8 0.7
1164(18) 0.003024 1125.5 0.7
1189(18) 0.003057 1125.2 0.7
1144(18) 0.003252 1124.8 0.7
1214(19) 0.002820 1124.5 0.7
1155(19) 0.002799 1124.2 0.7
1118(18) 0.003150 1123.9 0.7
1170(18) 0.003166 1123.6 0.7
1164(18) 0.003166 1123.3 0.7
1167(18) 0.002958 1123.0 0.7
1139(19) 0.002827 1122.6 0.7
1140(18) 0.003051 1122.3 0.7
1144(18) 0.003222 1122.0 0.7
1157(18) 0.003175 1121.7 0.7
1199(19) 0.002864 1121.4 0.7
1159(19) 0.002860 1121.1 0.7
1142(18) 0.003032 1120.8 0.7
1137(17) 0.003280 1120.5 0.7
1180(18) 0.003092 1120.1 0.7
1153(18) 0.003082 1119.8 0.7
1163(19) 0.002842 1119.5 0.7
1134(18) 0.002957 1119.2 0.7
1179(18) 0.003177 1118.9 0.7
1173(18) 0.003052 1118.6 0.7
1122(18) 0.003092 1118.3 0.7
1133(18) 0.002964 1117.9 0.7
1170(18) 0.002959 1117.6 0.7
1133(18) 0.003255 1117.3 0.7
1155(18) 0.003158 1117.0 0.7
1137(18) 0.003064 1116.7 0.6
1160(18) 0.002954 1116.4 0.6
1173(18) 0.002991 1116.1 0.6
1165(18) 0.003179 1115.7 0.6
1139(18) 0.003095 1115.4 0.6
1086(18) 0.003217 1115.1 0.6
1120(18) 0.003079 1114.8 0.6
1195(19) 0.002919 1114.5 0.6
1122(17) 0.003298 1114.2 0.6
1133(18) 0.003102 1113.9 0.6
1144(19) 0.002912 1113.5 0.6
1117(18) 0.003043 1113.2 0.6
1173(18) 0.003058 1112.9 0.6
1181(18) 0.003136 1112.6 0.6
1148(18) 0.003019 1112.3 0.6
1172(19) 0.002788 1112.0 0.6
1100(18) 0.003198 1111.7 0.6
1106(17) 0.003302 1111.4 0.6
1157(18) 0.003185 1111.0 0.6
1136(18) 0.003061 1110.7 0.6
1126(18) 0.002934 1110.4 0.6
1111(18) 0.003142 1110.1 0.6
1096(17) 0.003340 1109.8 0.6
1100(17) 0.003382 1109.5 0.6
1160(18) 0.003033 1109.2 0.6
1182(19) 0.002739 1108.8 0.6
1118(18) 0.003102 1108.5 0.6
1163(18) 0.003168 1108.2 0.6
1170(18) 0.003164 1107.9 0.6
1175(18) 0.003001 1107.6 0.6
1139(19) 0.002835 1107.3 0.6
1154(18) 0.003023 1107.0 0.6
1141(18) 0.003259 1106.6 0.6
1085(17) 0.003395 1106.3 0.6
1085(18) 0.003225 1106.0 0.6
1127(19) 0.002861 1105.7 0.6
1157(18) 0.002982 1105.4 0.6
1112(17) 0.003349 1105.1 0.6
1146(18) 0.003175 1104.8 0.6
1109(18) 0.003085 1104.5 0.6
1108(18) 0.003016 1104.1 0.6
1124(18) 0.003111 1103.8 0.6
1063(17) 0.003501 1103.5 0.6
1147(18) 0.003167 1103.2 0.6
1081(17) 0.003311 1102.9 0.6
1093(18) 0.003091 1102.6 0.6
1058(18) 0.003213 1102.3 0.6
1110(17) 0.003343 1101.9 0.6
1104(18) 0.003257 1101.6 0.6
1064(17) 0.003292 1101.3 0.6
1083(18) 0.003148 1101.0 0.6
1101(18) 0.003157 1100.7 0.6
1119(17) 0.003326 1100.4 0.6
1102(18) 0.003250 1100.1 0.6
1122(18) 0.003001 1099.7 0.6
1123(18) 0.002975 1099.4 0.6
1077(17) 0.003359 1099.1 0.6
1113(17) 0.003349 1098.8 0.6
1097(18) 0.003157 1098.5 0.6
1103(18) 0.003048 1098.2 0.6
1112(18) 0.003126 1097.9 0.6
1123(18) 0.003122 1097.5 0.6
1129(17) 0.003299 1097.2 0.6
1106(18) 0.003090 1096.9 0.6
1087(18) 0.003132 1096.6 0.6
1134(18) 0.003092 1096.3 0.6
1125(18) 0.003244 1096.0 0.6
1091(17) 0.003408 1095.7 0.6
1112(18) 0.003140 1095.4 0.6
1159(19) 0.002813 1095.0 0.6
1125(18) 0.003064 1094.7 0.6
1087(17) 0.003349 1094.4 0.6
1119(17) 0.003336 1094.1 0.6
1110(18) 0.003124 1093.8 0.6
1055(18) 0.003134 1093.5 0.6
1061(17) 0.003333 1093.2 0.6
1033(17) 0.00356 1092.8 0.6
1127(17) 0.003276 1092.5 0.6
1091(18) 0.003166 1092.2 0.6
1131(19) 0.002840 1091.9 0.6
1108(18) 0.003162 1091.6 0.6
1075(17) 0.003468 1091.3 0.6
1030(17) 0.00358 1091.0 0.6
1053(18) 0.003224 1090.6 0.6
1089(18) 0.002975 1090.3 0.6
1115(18) 0.003109 1090.0 0.6
1096(17) 0.003375 1089.7 0.6
1098(17) 0.003353 1089.4 0.6
1121(18) 0.003049 1089.1 0.6
1086(18) 0.003018 1088.8 0.6
1068(18) 0.003216 1088.4 0.6
1091(17) 0.003397 1088.1 0.6
1087(17) 0.003352 1087.8 0.6
1086(18) 0.003160 1087.5 0.6
1091(18) 0.003071 1087.2 0.6
1107(18) 0.003135 1086.9 0.6
1088(17) 0.003392 1086.6 0.6
1070(17) 0.003418 1086.3 0.6
1083(18) 0.003193 1085.9 0.6
1078(18) 0.003095 1085.6 0.6
1034(17) 0.003350 1085.3 0.6
1047(17) 0.00357 1085.0 0.6
1088(17) 0.003278 1084.7 0.6
1064(18) 0.003202 1084.4 0.7
1056(18) 0.003212 1084.1 0.7
1089(18) 0.003209 1083.7 0.7
1073(17) 0.003479 1083.4 0.7
1065(17) 0.003282 1083.1 0.7
1091(18) 0.003083 1082.8 0.7
1087(18) 0.003158 1082.5 0.8
1064(17) 0.003354 1082.2 0.8
1024(17) 0.00362 1081.9 0.8
1053(17) 0.003318 1081.5 0.8
1061(18) 0.003145 1081.2 0.8
1095(18) 0.003156 1080.9 0.8
1105(17) 0.003311 1080.6 0.8
1072(17) 0.003482 1080.0 0.8
1080(18) 0.003204 1079.3 0.8
1065(18) 0.003167 1078.7 0.8
1064(17) 0.003281 1078.0 0.8
1075(17) 0.003379 1077.3 0.8
1046(17) 0.00355 1076.7 0.8
1045(17) 0.003311 1076.0 0.8
1073(18) 0.003112 1075.4 0.8
1063(18) 0.003234 1074.7 0.8
1080(17) 0.003386 1074.0 0.9
1072(17) 0.003422 1073.4 0.9
1099(18) 0.003142 1072.7 0.9
1090(18) 0.002964 1072.0 0.9
1076(18) 0.003247 1071.4 0.9
1089(17) 0.003411 1070.7 0.9
1100(17) 0.003361 1070.0 0.9
1039(17) 0.003390 1069.4 0.9
1054(18) 0.003042 1068.7 0.9
1035(17) 0.003363 1068.1 0.9
1075(17) 0.003477 1067.4 0.9
1023(17) 0.00359 1066.7 0.9
1078(18) 0.003226 1066.1 0.9
1114(18) 0.002933 1065.4 0.9
1070(17) 0.003283 1064.7 0.9
1102(17) 0.003347 1064.1 0.9
1082(17) 0.003361 1063.4 0.9
1103(18) 0.003094 1062.7 0.9
1082(18) 0.003078 1062.1 0.9
1060(17) 0.003270 1061.4 0.9
1067(17) 0.003463 1060.8 0.9
1076(17) 0.003365 1060.1 0.9
1100(18) 0.003145 1059.4 0.9
1050(18) 0.003198 1058.8 0.9
1060(18) 0.003256 1058.1 0.9
1076(17) 0.003452 1057.4 0.9
1057(17) 0.003375 1056.8 0.9
1050(18) 0.003250 1056.1 0.9
1038(17) 0.003310 1055.4 0.9
1036(17) 0.003383 1054.8 0.9
1027(17) 0.00363 1054.1 0.9
1036(17) 0.003387 1053.4 0.9
1018(17) 0.003361 1052.8 0.9
1056(17) 0.003298 1052.1 0.9
1085(17) 0.003280 1051.5 0.9
1019(17) 0.00364 1050.8 1.0
1009(17) 0.00351 1050.1 1.0
1041(18) 0.003213 1049.5 1.0
1061(18) 0.003199 1048.8 1.0
1020(17) 0.00351 1048.1 1.0
1056(17) 0.00353 1047.5 1.0
1019(17) 0.003340 1046.8 1.0
1038(18) 0.003204 1046.1 1.0
1043(17) 0.003327 1045.5 1.0
1076(17) 0.003411 1044.8 1.0
1042(17) 0.00354 1044.2 1.0
1046(17) 0.003281 1043.5 1.0
1039(18) 0.003171 1042.8 1.0
1015(17) 0.003397 1042.2 1.0
998(17) 0.00367 1041.5 1.0
1026(17) 0.00361 1040.8 1.0
1044(17) 0.003331 1040.2 1.0
1091(18) 0.002936 1039.5 1.0
1026(17) 0.003384 1038.8 1.0
1060(17) 0.003504 1038.2 1.0
1024(17) 0.00358 1037.5 1.0
1027(17) 0.003294 1036.9 1.0
1030(18) 0.003105 1036.2 1.0
1012(17) 0.003418 1035.5 1.0
1006(16) 0.00369 1034.9 1.1
1024(17) 0.00362 1034.2 1.1
1027(17) 0.003361 1033.5 1.1
1011(18) 0.003246 1032.9 1.1
1077(18) 0.003193 1032.2 1.1
1024(17) 0.00362 1031.5 1.1
1002(16) 0.00368 1030.9 1.1
1009(17) 0.003476 1030.2 1.1
1059(18) 0.003121 1029.6 1.1
1078(18) 0.003199 1028.9 1.1
1006(16) 0.00367 1028.2 1.1
1038(17) 0.003485 1027.6 1.1
1013(17) 0.003432 1026.9 1.1
1048(18) 0.003129 1026.2 1.1
1045(17) 0.003285 1025.6 1.1
1029(17) 0.00361 1024.9 1.1
1034(17) 0.003443 1024.2 1.1
1049(17) 0.003281 1023.6 1.1
1055(18) 0.003126 1022.9 1.1
1002(17) 0.00353 1022.3 1.2
1009(17) 0.00367 1021.6 1.2
1035(17) 0.003374 1020.9 1.2
966(17) 0.00365 1020.3 1.2
1035(18) 0.003250 1019.6 1.2
1035(17) 0.003422 1018.9 1.2
997(16) 0.00371 1018.3 1.2
1010(17) 0.003417 1017.6 1.2
983(17) 0.003372 1016.9 1.2
999(17) 0.003416 1016.3 1.2
1015(17) 0.00357 1015.6 1.2
1030(17) 0.00359 1015.0 1.2
1019(17) 0.003380 1014.3 1.2
1022(17) 0.003307 1013.6 1.2
1010(17) 0.003412 1013.0 1.3
1005(17) 0.00356 1012.3 1.3
1033(17) 0.00356 1011.6 1.3
1032(17) 0.003367 1011.0 1.3
993(17) 0.003379 1010.3 1.3
1039(17) 0.003318 1009.6 1.3
1019(17) 0.00359 1009.0 1.3
1018(17) 0.00366 1008.3 1.3
1036(17) 0.003393 1007.7 1.3
997(17) 0.003338 1007.0 1.3
1014(17) 0.003426 1006.3 1.3
981(16) 0.00378 1005.7 1.3
1047(17) 0.003505 1005.0 1.4
1011(17) 0.003432 1004.3 1.4
1029(18) 0.003053 1003.7 1.4
1001(17) 0.003467 1003.0 1.4
992(16) 0.00379 1002.3 1.4
1025(17) 0.00359 1001.7 1.4
1003(17) 0.003497 1001.0 1.4
980(17) 0.003400 1000.4 1.4
996(17) 0.003429 999.7 1.4
972(16) 0.00380 999.0 1.4
987(16) 0.00370 998.4 1.5
931(16) 0.00384 997.7 1.5
929(17) 0.00360 997.0 1.5
1029(17) 0.003345 996.4 1.5
1010(16) 0.00370 995.7 1.5
1005(17) 0.00362 995.0 1.5
993(17) 0.003491 994.4 1.5
1008(17) 0.003401 993.7 1.5
988(17) 0.003472 993.1 1.6
945(16) 0.00392 992.4 1.6
1001(17) 0.00357 991.7 1.6
985(17) 0.00356 991.1 1.6
981(17) 0.003431 990.4 1.6
957(17) 0.00367 989.7 1.6
967(16) 0.00384 989.1 1.6
973(16) 0.00374 988.4 1.7
979(17) 0.003502 987.7 1.7
1003(17) 0.003360 987.1 1.7
967(17) 0.00365 986.4 1.7
966(16) 0.00385 985.8 1.7
1010(17) 0.003407 985.1 1.7
991(17) 0.003406 984.4 1.7
993(17) 0.003457 983.8 1.8
1000(17) 0.00357 983.1 1.8
994(16) 0.00374 982.4 1.8
976(17) 0.003485 981.8 1.8
993(17) 0.003333 981.1 1.8
957(16) 0.00372 980.4 1.9
975(16) 0.00375 979.8 1.9
966(16) 0.00386 979.1 1.9
978(17) 0.003444 978.5 1.9
997(17) 0.003325 977.8 1.9
1015(17) 0.003476 977.1 2.0
970(16) 0.00380 976.5 2.0
990(16) 0.00377 975.8 2.0
1007(17) 0.003441 975.1 2.0
968(17) 0.003406 974.5 2.0
1006(17) 0.003495 973.8 2.1
955(16) 0.00387 973.1 2.1
979(16) 0.00382 972.5 2.1
942(16) 0.00372 971.8 2.1
954(17) 0.003350 971.2 2.2
990(17) 0.00352 970.5 2.2
982(16) 0.00381 969.8 2.2
965(16) 0.00382 969.2 2.3
964(17) 0.00367 968.5 2.3
978(17) 0.003377 967.8 2.3
988(17) 0.003458 967.2 2.3
978(16) 0.00382 966.5 2.4
985(16) 0.00368 965.8 2.4
959(17) 0.00364 965.2 2.4
962(17) 0.003452 964.5 2.5
991(17) 0.00354 963.9 2.5
940(16) 0.00396 963.2 2.6
992(16) 0.00367 962.5 2.6
962(17) 0.00364 961.9 2.6
951(17) 0.00352 961.2 2.7
962(17) 0.00365 960.6 2.7
997(16) 0.00374 960.0 2.8
970(16) 0.00376 959.5 2.8
969(17) 0.00363 958.9 2.9
954(17) 0.00356 958.3 2.9
999(17) 0.003465 957.7 3.0
1001(16) 0.00372 957.1 3.0
937(16) 0.00382 956.5 3.1
959(17) 0.00362 955.9 3.1
967(17) 0.00355 955.4 3.2
964(17) 0.00366 954.8 3.2
939(16) 0.00397 954.2 3.3
970(17) 0.00363 953.6 3.4
973(17) 0.003449 953.0 3.4
957(17) 0.00364 952.4 3.5
981(17) 0.00365 951.8 3.6
951(16) 0.00391 951.2 3.7
918(16) 0.00385 950.7 3.7
966(17) 0.003499 950.1 3.8
941(16) 0.00376 949.5 3.9
1019(17) 0.00359 948.9 4.0
951(16) 0.00389 948.3 4.1
911(16) 0.00374 947.7 4.2
923(17) 0.00358 947.1 4.3
900(16) 0.00378 946.6 4.5
944(16) 0.00388 946.0 4.6
986(16) 0.00377 945.4 4.7
959(17) 0.00363 944.8 4.9
973(17) 0.003312 944.2 5.0
915(16) 0.00383 943.6 5.2
932(16) 0.00390 943.0 5.4
918(16) 0.00406 942.5 5.6
988(17) 0.00353 941.9 5.8
978(17) 0.003283 941.3 6.0
954(17) 0.00365 940.7 6.3
1011(17) 0.00363 940.1 6.5
926(16) 0.00400 939.5 6.8
964(17) 0.00356 938.9 7.2
966(18) 0.003235 938.4 7.5
959(17) 0.00365 937.8 8.0
989(16) 0.00374 937.2 8.4
983(16) 0.00375 936.6 8.9
963(17) 0.00356 936.0 9.5
962(17) 0.003379 935.4 10.1
936(16) 0.00376 934.8 10.8
945(16) 0.00397 934.3 11.5
957(16) 0.00384 933.7 12.4
958(17) 0.00362 933.1 13.3
946(17) 0.003480 932.5 14.3
947(17) 0.00359 931.9 15.3
947(16) 0.00396 931.3 16.5
932(16) 0.00393 930.7 17.7
962(17) 0.00362 930.1 19.0
932(17) 0.00367 929.6 20.3
964(17) 0.00357 929.0 21.6
941(16) 0.00397 928.4 22.9
910(16) 0.00396 927.8 24.1
946(17) 0.00365 927.2 25.1
939(17) 0.00358 926.6 25.9
972(17) 0.00361 926.0 26.5
986(16) 0.00375 925.5 26.9
942(16) 0.00378 924.9 26.9
952(17) 0.00356 924.3 26.6
905(16) 0.00378 923.7 26.1
939(16) 0.00375 923.1 25.5
988(16) 0.00378 922.5 24.7
911(16) 0.00381 921.9 23.8
943(17) 0.00356 921.4 22.9
914(16) 0.00379 920.8 22.0
944(16) 0.00381 920.2 21.2
915(16) 0.00405 919.6 20.5
954(17) 0.00363 919.0 19.8
935(17) 0.00353 918.4 19.3
914(16) 0.00382 917.8 18.8
935(16) 0.00391 917.3 18.5
942(16) 0.00390 916.7 18.2
928(16) 0.00368 916.1 18.1
949(17) 0.003487 915.5 18.1
908(16) 0.00389 914.9 18.1
974(16) 0.00377 914.3 18.3
942(16) 0.00393 913.7 18.6
929(16) 0.00379 913.2 19.0
935(17) 0.003472 912.6 19.5
917(16) 0.00376 912.0 20.2
913(16) 0.00403 911.4 20.9
891(15) 0.00417 910.8 21.8
950(17) 0.00366 910.2 22.8
961(17) 0.003305 909.6 24.0
961(17) 0.00363 909.0 25.4
928(16) 0.00402 908.5 26.9
923(16) 0.00395 907.9 28.7
936(16) 0.00368 907.3 30.7
960(17) 0.003357 906.7 33.1
930(16) 0.00374 906.1 35.7
948(16) 0.00392 905.5 38.8
911(16) 0.00401 904.9 42.4
950(16) 0.00373 904.4 46.5
980(17) 0.003348 903.8 51.4
949(17) 0.00364 903.2 57.2
970(16) 0.00384 902.6 64.1
972(16) 0.00376 902.0 72.4
1023(17) 0.003354 901.4 82.6
1007(17) 0.003291 900.8 95.4
1032(17) 0.003360 900.3 112.4
1054(17) 0.00351 899.7 136.3
1068(17) 0.003422 899.1 172.7
1156(18) 0.002990 898.5 231.0
1273(19) 0.002635 897.9 326.5
1373(20) 0.002526 897.3 478.7
1544(20) 0.002405 896.7 708.1
1879(23) 0.001920 896.2 1026.2
2180(25) 0.001573 895.6 1424.3
2482(27) 0.001364 895.0 1859.7
2923(29) 0.001192 894.4 2242.2
3415(30) 0.001087 893.8 2440.1
3572(32) 0.000979 893.2 2359.0
3241(31) 0.001034 892.6 2039.9
2523(27) 0.001378 892.0 1613.3
1978(23) 0.001837 891.5 1191.3
1694(21) 0.002181 890.9 835.6
1441(21) 0.002370 890.3 568.1
1320(20) 0.002529 889.7 384.4
1221(19) 0.002834 889.1 266.8
1194(18) 0.003049 888.5 194.5
1130(17) 0.003299 887.9 150.0
1090(18) 0.003183 887.4 121.6
1039(18) 0.003236 886.8 102.0
1003(17) 0.003451 886.2 87.6
981(17) 0.00367 885.6 76.3
1002(17) 0.00366 885.0 67.2
1001(17) 0.003471 884.4 59.7
951(17) 0.003468 883.8 53.5
933(16) 0.00369 883.3 48.2
916(16) 0.00405 882.7 43.7
935(16) 0.00395 882.1 39.8
928(16) 0.00377 881.5 36.4
910(17) 0.00358 880.9 33.5
928(16) 0.00380 880.3 31.0
924(16) 0.00397 879.7 28.8
936(16) 0.00399 879.2 26.8
943(16) 0.00368 878.6 25.0
903(17) 0.00360 878.0 23.5
923(16) 0.00374 877.4 22.1
913(16) 0.00409 876.8 20.8
923(16) 0.00393 876.2 19.7
888(16) 0.00391 875.6 18.6
854(16) 0.00393 875.1 17.7
855(16) 0.00404 874.5 16.9
864(15) 0.00429 873.9 16.1
874(16) 0.00406 873.3 15.4
888(16) 0.00390 872.7 14.8
876(16) 0.00392 872.1 14.2
874(16) 0.00395 871.5 13.6
885(15) 0.00419 870.9 13.1
874(16) 0.00415 870.4 12.7
904(16) 0.00385 869.8 12.3
929(17) 0.00362 869.2 11.9
859(16) 0.00408 868.6 11.5
872(15) 0.00427 868.0 11.2
900(16) 0.00395 867.4 10.9
859(16) 0.00404 866.8 10.6
843(16) 0.00399 866.3 10.3
805(15) 0.00450 865.7 10.1
886(15) 0.00419 865.1 9.9
895(16) 0.00395 864.5 9.7
858(16) 0.00397 863.9 9.5
849(16) 0.00409 863.3 9.3
847(15) 0.00427 862.7 9.1
840(15) 0.00441 862.2 9.0
886(16) 0.00394 861.6 8.8
872(16) 0.00386 861.0 8.7
864(16) 0.00398 860.4 8.6
863(15) 0.00418 859.8 8.5
878(15) 0.00424 859.2 8.4
909(16) 0.00387 858.6 8.4
927(17) 0.00354 858.1 8.3
862(16) 0.00404 857.5 8.3
818(15) 0.00445 856.9 8.3
882(15) 0.00418 856.3 8.3
894(16) 0.00389 855.7 8.2
924(17) 0.00352 855.1 8.1
857(16) 0.00405 854.5 8.0
816(15) 0.00452 854.0 7.9
850(15) 0.00433 853.4 7.8
844(15) 0.00417 852.8 7.7
847(16) 0.00386 852.2 7.7
864(16) 0.00409 851.6 7.6
856(15) 0.00435 851.0 7.6
835(15) 0.00440 850.4 7.6
850(16) 0.00411 849.8 7.6
869(16) 0.00379 849.3 7.6
881(16) 0.00394 848.7 7.6
837(15) 0.00441 848.1 7.6
853(15) 0.00432 847.5 7.6
845(16) 0.00416 846.9 7.6
847(16) 0.00392 846.3 7.6
823(15) 0.00425 845.7 7.7
848(15) 0.00439 845.2 7.7
852(15) 0.00425 844.6 7.7
868(16) 0.00401 844.0 7.8
825(16) 0.00411 843.4 7.8
844(16) 0.00411 842.8 7.8
884(15) 0.00419 842.2 7.9
840(15) 0.00430 841.6 7.9
866(16) 0.00398 841.1 8.0
846(16) 0.00392 840.5 8.1
873(16) 0.00399 839.9 8.1
895(16) 0.00416 839.3 8.2
888(16) 0.00401 838.7 8.3
828(15) 0.00422 838.2 8.3
807(15) 0.00421 837.6 8.4
843(16) 0.00414 837.1 8.5
862(15) 0.00432 836.5 8.6
852(16) 0.00412 835.9 8.7
825(16) 0.00416 835.4 8.8
884(16) 0.00387 834.8 8.9
872(16) 0.00409 834.3 9.0
879(15) 0.00426 833.7 9.1
852(16) 0.00405 833.2 9.2
826(16) 0.00410 832.6 9.3
827(16) 0.00413 832.1 9.4
852(15) 0.00424 831.5 9.6
842(15) 0.00445 831.0 9.7
851(16) 0.00409 830.4 9.9
870(16) 0.00375 829.8 10.0
838(16) 0.00416 829.3 10.2
864(15) 0.00418 828.7 10.3
852(15) 0.00437 828.2 10.5
809(15) 0.00433 827.6 10.7
867(16) 0.00373 827.1 10.8
831(15) 0.00425 826.5 11.0
833(15) 0.00444 826.0 11.2
829(15) 0.00448 825.4 11.4
859(16) 0.00406 824.8 11.6
885(16) 0.00370 824.3 11.9
864(16) 0.00397 823.7 12.1
882(16) 0.00409 823.2 12.3
828(15) 0.00453 822.6 12.6
842(16) 0.00407 822.1 12.8
837(16) 0.00379 821.5 13.1
816(15) 0.00431 821.0 13.4
819(15) 0.00452 820.4 13.7
812(15) 0.00454 819.9 14.0
818(15) 0.00424 819.3 14.3
818(16) 0.00394 818.7 14.6
830(15) 0.00418 818.2 15.0
842(15) 0.00442 817.6 15.4
835(15) 0.00435 817.1 15.7
840(15) 0.00419 816.5 16.1
873(16) 0.00386 816.0 16.5
783(15) 0.00447 815.4 17.0
839(15) 0.00442 814.9 17.4
881(16) 0.00411 814.3 17.9
874(16) 0.00387 813.8 18.4
803(16) 0.00415 813.2 18.9
831(15) 0.00418 812.6 19.5
873(15) 0.00425 812.1 20.0
882(16) 0.00403 811.5 20.6
828(15) 0.00420 811.0 21.3
825(15) 0.00418 810.4 21.9
893(16) 0.00395 809.9 22.7
829(15) 0.00449 809.3 23.4
815(15) 0.00432 808.8 24.2
817(16) 0.00414 808.2 25.0
858(16) 0.00387 807.7 25.9
808(15) 0.00440 807.1 26.8
859(15) 0.00432 806.5 27.8
820(15) 0.00430 806.0 28.8
824(16) 0.00405 805.4 29.9
859(16) 0.00400 804.9 31.1
820(15) 0.00448 804.3 32.3
827(15) 0.00446 803.8 33.7
833(16) 0.00415 803.2 35.1
849(16) 0.00394 802.7 36.6
844(16) 0.00413 802.1 38.3
853(15) 0.00428 801.6 40.0
848(15) 0.00439 801.0 41.9
842(16) 0.00412 800.4 43.9
851(16) 0.00389 799.9 46.1
874(16) 0.00395 799.3 48.5
814(15) 0.00451 798.8 51.1
860(15) 0.00433 798.2 53.9
856(16) 0.00405 797.7 57.0
811(16) 0.00412 797.1 60.4
879(16) 0.00401 796.6 64.1
893(15) 0.00417 796.0 68.3
837(15) 0.00440 795.4 72.9
879(16) 0.00394 794.9 78.1
877(17) 0.00365 794.3 84.0
843(15) 0.00417 793.8 90.9
912(16) 0.00408 793.2 99.0
899(16) 0.00411 792.7 108.5
955(17) 0.00353 792.1 120.0
940(17) 0.003456 791.6 133.9
938(17) 0.00366 791.0 150.7
986(16) 0.00379 790.5 171.2
1062(17) 0.003409 789.9 195.8
1019(17) 0.003417 789.3 225.1
1058(18) 0.003141 788.8 259.3
1078(17) 0.003272 788.2 298.3
1128(17) 0.003289 787.7 341.3
1162(18) 0.003115 787.1 386.6
1230(19) 0.002792 786.6 430.9
1277(19) 0.002634 786.0 469.6
1289(20) 0.002619 785.5 498.4
1303(19) 0.002858 784.9 515.2
1314(19) 0.002752 784.4 522.2
1319(20) 0.002588 783.8 524.6
1283(19) 0.002678 783.2 528.9
1330(19) 0.002652 782.7 540.4
1282(19) 0.002898 782.1 563.0
1294(19) 0.002749 781.6 599.5
1362(20) 0.002508 781.0 651.5
1482(21) 0.002268 780.5 720.0
1565(21) 0.002276 779.9 805.3
1637(21) 0.002269 779.4 906.6
1775(22) 0.002006 778.8 1021.9
1972(24) 0.001707 778.3 1147.5
2127(25) 0.001620 777.7 1276.7
2302(25) 0.001561 777.1 1399.9
2453(26) 0.001509 776.6 1504.1
2406(27) 0.001408 776.0 1574.9
2401(27) 0.001397 775.5 1600.6
2356(26) 0.001459 774.9 1576.1
2213(25) 0.001643 774.4 1505.1
2069(24) 0.001782 773.8 1398.8
1955(24) 0.001760 773.3 1270.9
1867(24) 0.001749 772.7 1134.5
1732(22) 0.001994 772.2 999.3
1625(21) 0.002224 771.6 871.6
1503(20) 0.002470 771.0 755.1
1395(20) 0.002518 770.5 651.4
1349(20) 0.002431 769.9 560.8
1273(19) 0.002753 769.4 482.8
1229(18) 0.003003 768.8 416.5
1158(18) 0.003201 768.3 360.7
1125(18) 0.003071 767.7 314.0
1091(19) 0.002915 767.2 275.2
1066(17) 0.003290 766.6 242.9
1046(17) 0.00356 766.1 216.1
1013(17) 0.00363 765.5 193.7
1004(17) 0.003452 764.9 174.8
992(17) 0.003367 764.4 158.9
961(16) 0.00371 763.8 145.2
949(16) 0.00393 763.3 133.4
923(16) 0.00399 762.7 123.1
878(16) 0.00401 762.2 114.0
894(16) 0.00372 761.6 106.0
845(16) 0.00413 761.1 98.8
813(15) 0.00456 760.5 92.4
873(16) 0.00412 759.9 86.6
877(16) 0.00393 759.4 81.3
879(16) 0.00372 758.8 76.5
870(16) 0.00399 758.3 72.2
826(15) 0.00447 757.7 68.2
844(15) 0.00428 757.2 64.6
857(16) 0.00404 756.6 61.2
841(16) 0.00400 756.1 58.1
834(16) 0.00414 755.5 55.3
817(15) 0.00453 755.0 52.7
806(15) 0.00441 754.4 50.3
831(16) 0.00404 753.8 48.0
816(15) 0.00420 753.3 46.0
811(15) 0.00438 752.7 44.0
813(15) 0.00458 752.2 42.2
781(15) 0.00449 751.6 40.5
777(15) 0.00438 751.1 39.0
767(15) 0.00447 750.5 37.5
805(15) 0.00436 750.0 36.2
828(15) 0.00453 749.4 34.9
785(15) 0.00437 748.9 33.7
793(15) 0.00417 748.3 32.6
758(15) 0.00458 747.7 31.5
793(15) 0.00462 747.2 30.6
784(15) 0.00474 746.6 29.6
799(15) 0.00428 746.1 28.8
773(15) 0.00437 745.5 28.0
806(15) 0.00439 745.0 27.2
777(15) 0.00470 744.4 26.5
750(14) 0.00498 743.9 25.8
763(15) 0.00458 743.3 25.2
753(15) 0.00434 742.8 24.6
774(15) 0.00444 742.2 24.1
738(14) 0.00507 741.6 23.6
795(15) 0.00461 741.1 23.1
777(15) 0.00459 740.5 22.7
825(16) 0.00394 740.0 22.2
784(15) 0.00449 739.4 21.9
748(14) 0.00490 738.9 21.5
737(14) 0.00505 738.3 21.2
750(15) 0.00457 737.8 20.9
732(15) 0.00445 737.2 20.6
726(15) 0.00472 736.7 20.4
742(14) 0.00502 736.1 20.2
738(14) 0.00500 735.5 20.0
756(15) 0.00458 735.0 19.8
765(15) 0.00431 734.4 19.7
748(15) 0.00458 733.9 19.5
750(14) 0.00497 733.3 19.5
743(14) 0.00484 732.8 19.4
768(15) 0.00443 732.2 19.4
760(15) 0.00436 731.7 19.3
769(15) 0.00451 731.2 19.4
767(14) 0.00487 730.8 19.4
787(15) 0.00455 730.3 19.5
729(15) 0.00471 729.8 19.6
767(15) 0.00429 729.3 19.8
758(15) 0.00465 728.8 19.9
751(14) 0.00494 728.3 20.2
756(14) 0.00479 727.9 20.4
758(15) 0.00457 727.4 20.7
750(15) 0.00460 726.9 21.1
754(15) 0.00465 726.4 21.5
756(14) 0.00490 725.9 21.9
736(14) 0.00483 725.5 22.4
739(15) 0.00467 725.0 23.0
739(15) 0.00455 724.5 23.7
713(14) 0.00495 724.0 24.4
737(14) 0.00507 723.5 25.3
751(15) 0.00464 723.1 26.2
724(15) 0.00457 722.6 27.3
746(15) 0.00455 722.1 28.5
691(14) 0.00533 721.6 29.9
753(14) 0.00488 721.1 31.5
792(15) 0.00431 720.6 33.3
773(15) 0.00433 720.2 35.5
735(14) 0.00480 719.7 38.0
746(14) 0.00491 719.2 41.2
747(14) 0.00503 718.7 45.6
777(15) 0.00447 718.2 52.3
787(16) 0.00416 717.8 64.3
820(15) 0.00422 717.3 86.6
823(15) 0.00444 716.8 126.5
913(16) 0.00402 716.3 189.8
945(16) 0.00369 715.8 275.7
1053(18) 0.002992 715.3 370.7
1102(18) 0.003152 714.9 447.2
1293(19) 0.002814 714.4 473.0
1319(19) 0.002793 713.9 437.8
1159(18) 0.003003 713.4 365.2
1007(18) 0.003211 712.9 288.0
877(16) 0.00398 712.5 228.1
865(15) 0.00431 712.0 193.4
872(15) 0.00423 711.5 180.9
866(16) 0.00410 711.0 183.6
868(16) 0.00380 710.5 194.9
898(16) 0.00379 710.0 210.1
913(16) 0.00403 709.6 226.7
903(16) 0.00406 709.1 242.8
903(16) 0.00386 708.6 256.9
923(17) 0.00363 708.1 267.4
908(16) 0.00379 707.6 273.2
949(16) 0.00389 707.2 273.3
910(16) 0.00398 706.7 267.8
891(16) 0.00384 706.2 257.3
895(17) 0.00362 705.7 242.7
822(16) 0.00408 705.2 225.5
859(15) 0.00434 704.8 206.9
849(15) 0.00420 704.3 187.9
832(16) 0.00411 703.8 169.5
796(15) 0.00427 703.3 152.0
831(15) 0.00424 702.8 135.8
810(15) 0.00460 702.3 121.1
817(15) 0.00433 701.9 107.8
752(15) 0.00469 701.4 96.0
794(15) 0.00429 700.9 85.6
793(15) 0.00456 700.4 76.5
767(14) 0.00485 699.9 68.5
777(15) 0.00437 699.5 61.6
759(15) 0.00446 699.0 55.6
757(15) 0.00457 698.5 50.4
748(14) 0.00478 698.0 45.9
730(14) 0.00510 697.5 42.1
751(15) 0.00457 697.0 38.7
745(15) 0.00454 696.6 35.8
717(14) 0.00487 696.1 33.2
723(14) 0.00502 695.6 30.9
731(14) 0.00509 695.1 28.9
720(14) 0.00477 694.6 27.1
751(15) 0.00439 694.2 25.5
726(15) 0.00473 693.7 24.1
756(14) 0.00487 693.2 22.8
725(14) 0.00516 692.7 21.6
731(15) 0.00473 692.2 20.5
707(15) 0.00452 691.8 19.5
707(14) 0.00488 691.3 18.6
682(14) 0.00532 690.8 17.7
721(14) 0.00516 690.3 17.0
731(14) 0.00476 689.8 16.2
701(15) 0.00451 689.3 15.6
697(14) 0.00483 688.9 14.9
671(13) 0.00557 688.4 14.3
713(14) 0.00510 687.9 13.8
687(14) 0.00506 687.4 13.3
693(15) 0.00475 686.9 12.8
708(14) 0.00489 686.5 12.4
708(14) 0.00525 686.0 11.9
725(14) 0.00505 685.5 11.6
682(14) 0.00509 685.0 11.2
726(15) 0.00450 684.5 10.8
691(14) 0.00504 684.0 10.5
720(14) 0.00516 683.6 10.2
693(14) 0.00536 683.1 9.9
697(14) 0.00498 682.6 9.6
681(14) 0.00494 682.1 9.4
698(14) 0.00489 681.6 9.1
724(14) 0.00515 681.2 8.9
690(14) 0.00519 680.7 8.7
665(14) 0.00526 680.2 8.4
726(15) 0.00467 679.7 8.2
668(14) 0.00530 679.2 8.0
723(14) 0.00516 678.7 7.9
695(14) 0.00509 678.3 7.7
667(14) 0.00519 677.8 7.5
719(15) 0.00467 677.3 7.4
677(14) 0.00531 676.8 7.2
689(14) 0.00534 676.3 7.1
675(14) 0.00515 675.9 7.0
680(14) 0.00496 675.4 6.8
692(14) 0.00492 674.9 6.7
706(14) 0.00507 674.4 6.6
687(14) 0.00540 673.9 6.5
650(14) 0.00525 673.5 6.4
641(14) 0.00527 673.0 6.3
710(14) 0.00476 672.5 6.2
668(14) 0.00540 672.0 6.1
660(13) 0.00565 671.5 6.1
694(14) 0.00492 671.0 6.0
645(14) 0.00527 670.6 5.9
693(14) 0.00500 670.1 5.9
660(14) 0.00545 669.6 5.9
667(13) 0.00559 669.1 5.8
673(14) 0.00498 668.6 5.8
656(14) 0.00493 668.2 5.8
653(14) 0.00529 667.7 5.8
677(14) 0.00537 667.2 5.8
697(14) 0.00531 666.7 5.9
650(14) 0.00529 666.2 5.9
677(15) 0.00466 665.7 6.0
664(14) 0.00513 665.3 6.1
684(14) 0.00544 664.8 6.3
662(13) 0.00551 664.3 6.5
686(14) 0.00498 663.8 6.7
678(14) 0.00478 663.3 7.0
657(14) 0.00522 662.9 7.3
653(13) 0.00572 662.4 7.7
659(14) 0.00543 661.9 8.2
683(14) 0.00511 661.4 8.7
699(15) 0.00472 660.9 9.2
704(14) 0.00494 660.4 9.7
653(13) 0.00562 660.0 10.3
659(14) 0.00544 659.5 10.7
700(14) 0.00493 659.0 11.0
664(14) 0.00500 658.5 11.2
670(14) 0.00501 658.0 11.2
673(14) 0.00547 657.6 11.0
672(14) 0.00532 657.1 10.6
666(14) 0.00507 656.6 10.1
646(14) 0.00505 656.1 9.6
690(14) 0.00499 655.6 9.0
677(14) 0.00539 655.2 8.4
653(14) 0.00543 654.7 7.9
647(14) 0.00514 654.2 7.4
641(14) 0.00534 653.7 7.0
668(14) 0.00521 653.2 6.6
630(13) 0.00583 652.7 6.3
675(14) 0.00517 652.3 6.1
662(14) 0.00498 651.8 5.9
656(14) 0.00530 651.3 5.7
667(14) 0.00528 651.0 5.6
661(13) 0.00563 650.7 5.5
661(14) 0.00515 650.4 5.4
686(14) 0.00476 650.1 5.4
671(14) 0.00510 649.7 5.4
688(14) 0.00534 649.4 5.4
651(13) 0.00573 649.1 5.4
661(14) 0.00515 648.8 5.5
684(14) 0.00482 648.5 5.5
638(13) 0.00550 648.2 5.6
660(13) 0.00560 647.9 5.6
662(13) 0.00563 647.5 5.7
654(14) 0.00542 647.2 5.8
644(14) 0.00512 646.9 5.9
681(14) 0.00498 646.6 5.9
700(14) 0.00526 646.3 6.0
667(13) 0.00559 646.0 6.1
630(13) 0.00570 645.6 6.1
702(15) 0.00466 645.3 6.1
711(14) 0.00490 645.0 6.2
687(14) 0.00541 644.7 6.2
661(13) 0.00560 644.4 6.1
642(13) 0.00556 644.1 6.1
638(14) 0.00511 643.8 6.0
627(13) 0.00563 643.4 6.0
665(13) 0.00558 643.1 5.9
628(13) 0.00591 642.8 5.8
639(14) 0.00544 642.5 5.6
683(14) 0.00489 642.2 5.5
672(14) 0.00510 641.9 5.4
670(14) 0.00548 641.5 5.2
649(13) 0.00559 641.2 5.1
669(14) 0.00531 640.9 4.9
681(14) 0.00496 640.6 4.8
687(14) 0.00500 640.3 4.7
656(13) 0.00560 640.0 4.5
645(13) 0.00566 639.7 4.4
651(14) 0.00532 639.3 4.3
635(14) 0.00516 639.0 4.2
631(14) 0.00544 638.7 4.1
661(13) 0.00563 638.4 4.0
636(13) 0.00579 638.1 3.8
660(14) 0.00528 637.8 3.7
682(14) 0.00508 637.4 3.6
675(14) 0.00528 637.1 3.6
634(13) 0.00588 636.8 3.5
645(13) 0.00549 636.5 3.4
646(14) 0.00529 636.2 3.4
668(14) 0.00518 635.9 3.3
669(14) 0.00542 635.6 3.3
658(13) 0.00565 635.2 3.2
639(14) 0.00544 634.9 3.2
644(14) 0.00511 634.6 3.2
647(14) 0.00527 634.3 3.1
660(14) 0.00547 634.0 3.1
626(13) 0.00589 633.7 3.1
631(13) 0.00550 633.3 3.1
624(14) 0.00535 633.0 3.1
628(14) 0.00544 632.7 3.1
646(13) 0.00566 632.4 3.0
650(13) 0.00571 632.1 3.0
622(13) 0.00569 631.8 3.0
645(14) 0.00519 631.4 3.0
657(14) 0.00529 631.1 3.1
628(13) 0.00582 630.8 3.1
633(13) 0.00583 630.5 3.1
622(13) 0.00557 630.2 3.1
627(14) 0.00510 629.9 3.1
613(14) 0.00547 629.6 3.1
621(13) 0.00603 629.2 3.2
640(13) 0.00581 628.9 3.2
645(14) 0.00533 628.6 3.2
620(14) 0.00534 628.3 3.3
615(13) 0.00570 628.0 3.3
658(13) 0.00563 627.7 3.4
659(13) 0.00558 627.3 3.5
665(14) 0.00530 627.0 3.5
647(14) 0.00503 626.7 3.6
617(13) 0.00577 626.4 3.7
598(13) 0.00623 626.1 3.8
650(13) 0.00563 625.8 3.9
633(13) 0.00550 625.5 4.0
649(14) 0.00502 625.1 4.1
641(14) 0.00534 624.8 4.2
655(13) 0.00573 624.5 4.4
617(13) 0.00579 624.2 4.6
621(14) 0.00545 623.9 4.7
629(14) 0.00510 623.6 4.9
629(13) 0.00567 623.2 5.2
642(13) 0.00580 622.9 5.4
596(13) 0.00607 622.6 5.7
639(14) 0.00521 622.3 6.0
619(13) 0.00556 622.0 6.4
604(13) 0.00583 621.7 6.8
606(13) 0.00612 621.4 7.3
643(13) 0.00552 621.0 7.9
657(14) 0.00509 620.7 8.5
652(14) 0.00514 620.4 9.2
604(13) 0.00601 620.1 10.1
653(13) 0.00566 619.8 11.1
647(14) 0.00543 619.5 12.4
656(14) 0.00513 619.1 13.8
605(13) 0.00586 618.8 15.6
622(13) 0.00573 618.5 17.8
594(13) 0.00622 618.2 20.7
643(14) 0.00532 617.9 24.6
652(14) 0.00524 617.6 30.5
639(14) 0.00540 617.2 40.1
668(14) 0.00542 616.9 56.5
700(14) 0.00533 616.6 84.5
741(15) 0.00465 616.3 129.9
752(15) 0.00445 616.0 197.4
830(15) 0.00422 615.7 287.2
939(16) 0.00393 615.4 391.3
1073(17) 0.003467 615.0 489.9
1143(18) 0.003050 614.7 550.6
1211(19) 0.002703 614.4 544.4
1178(18) 0.002954 614.1 474.7
977(16) 0.00378 613.8 373.1
857(15) 0.00432 613.5 270.4
780(15) 0.00451 613.1 184.1
742(15) 0.00450 612.8 120.6
707(14) 0.00492 612.5 78.6
662(13) 0.00558 612.2 53.0
668(13) 0.00555 611.9 38.0
657(14) 0.00520 611.6 29.2
617(14) 0.00519 611.3 23.7
663(14) 0.00511 610.9 20.0
612(13) 0.00604 610.6 17.3
651(13) 0.00556 610.3 15.1
645(14) 0.00537 610.0 13.4
606(14) 0.00546 609.7 12.0
591(13) 0.00590 609.4 10.8
579(12) 0.00646 609.0 9.8
610(13) 0.00606 608.7 8.9
614(13) 0.00572 608.4 8.2
628(14) 0.00546 608.1 7.5
602(13) 0.00551 607.8 7.0
615(13) 0.00604 607.5 6.5
613(13) 0.00573 607.2 6.1
581(13) 0.00604 606.8 5.7
618(14) 0.00545 606.5 5.4
633(14) 0.00544 606.2 5.1
610(13) 0.00610 605.9 4.8
596(13) 0.00599 605.6 4.6
574(13) 0.00616 605.3 4.3
617(14) 0.00547 604.9 4.2
596(13) 0.00595 604.6 4.0
596(13) 0.00622 604.3 3.8
601(13) 0.00579 604.0 3.7
631(14) 0.00536 603.7 3.5
601(13) 0.00577 603.4 3.4
568(12) 0.00642 603.0 3.3
645(13) 0.00575 602.7 3.2
603(13) 0.00570 602.4 3.1
609(13) 0.00553 602.1 3.0
602(13) 0.00568 601.8 2.9
591(13) 0.00624 601.5 2.8
585(13) 0.00636 601.2 2.8
599(13) 0.00562 600.8 2.7
622(14) 0.00528 600.5 2.6
592(13) 0.00586 600.2 2.6
602(13) 0.00602 599.9 2.5
588(13) 0.00632 599.6 2.5
646(14) 0.00528 599.3 2.4
607(14) 0.00537 598.9 2.4
578(13) 0.00604 598.6 2.4
578(13) 0.00633 598.3 2.3
590(13) 0.00633 598.0 2.3
611(13) 0.00556 597.7 2.2
583(13) 0.00567 597.4 2.2
603(13) 0.00583 597.1 2.2
608(13) 0.00609 596.7 2.2
621(13) 0.00595 596.4 2.1
591(13) 0.00590 596.1 2.1
602(14) 0.00540 595.8 2.1
585(13) 0.00607 595.5 2.1
594(13) 0.00621 595.2 2.0
577(13) 0.00627 594.8 2.0
586(13) 0.00595 594.5 2.0
575(13) 0.00582 594.2 2.0
607(13) 0.00567 593.9 2.0
625(13) 0.00596 593.6 2.0
637(13) 0.00581 593.3 2.0
611(13) 0.00565 593.0 2.0
600(13) 0.00554 592.6 1.9
589(13) 0.00578 592.3 1.9
564(12) 0.00661 592.0 1.9
572(13) 0.00634 591.7 1.9
584(13) 0.00591 591.4 1.9
600(13) 0.00564 591.1 1.9
586(13) 0.00595 590.7 1.9
608(13) 0.00610 590.4 1.9
594(13) 0.00614 590.1 1.9
595(13) 0.00585 589.8 1.9
620(13) 0.00552 589.5 1.9
580(13) 0.00609 589.2 1.9
574(12) 0.00651 588.8 1.9
600(13) 0.00580 588.5 2.0
604(13) 0.00559 588.2 2.0
580(13) 0.00595 587.9 2.0
600(13) 0.00598 587.6 2.0
586(13) 0.00639 587.3 2.0
614(13) 0.00561 587.0 2.0
569(13) 0.00583 586.6 2.1
582(13) 0.00601 586.3 2.1
593(13) 0.00607 586.0 2.1
574(12) 0.00654 585.7 2.2
599(13) 0.00579 585.4 2.2
609(14) 0.00540 585.1 2.3
571(13) 0.00612 584.7 2.3
599(13) 0.00598 584.4 2.4
576(12) 0.00646 584.1 2.5
579(13) 0.00600 583.8 2.6
588(13) 0.00563 583.5 2.7
594(13) 0.00579 583.2 2.8
604(13) 0.00609 582.9 3.0
596(13) 0.00629 582.5 3.2
582(13) 0.00596 582.2 3.4
628(14) 0.00508 581.9 3.7
624(13) 0.00549 581.6 4.0
634(13) 0.00578 581.3 4.5
589(13) 0.00632 581.0 5.3
584(13) 0.00594 580.6 6.5
586(14) 0.00544 580.3 8.5
577(13) 0.00601 580.0 11.5
581(13) 0.00639 579.7 16.1
605(13) 0.00612 579.4 22.4
601(13) 0.00555 579.1 30.3
588(14) 0.00544 578.8 39.1
568(13) 0.00600 578.4 47.2
618(13) 0.00604 578.1 51.9
575(13) 0.00635 577.8 51.2
619(13) 0.00562 577.5 45.4
614(13) 0.00554 577.2 37.0
603(13) 0.00573 576.9 28.3
599(13) 0.00618 576.5 20.7
565(13) 0.00637 576.2 14.9
603(13) 0.00575 575.9 10.7
583(13) 0.00579 575.6 8.0
547(12) 0.00652 575.3 6.3
600(13) 0.00619 575.0 5.2
572(13) 0.00614 574.6 4.5
605(13) 0.00571 574.3 4.1
574(13) 0.00595 574.0 3.7
562(13) 0.00614 573.7 3.5
586(13) 0.00632 573.4 3.3
564(12) 0.00642 573.1 3.1
585(13) 0.00574 572.8 3.0
584(13) 0.00589 572.4 2.9
557(13) 0.00632 572.1 2.8
590(13) 0.00626 571.8 2.7
587(13) 0.00582 571.5 2.7
562(13) 0.00591 571.2 2.6
555(13) 0.00617 570.9 2.6
572(13) 0.00622 570.5 2.5
583(13) 0.00634 570.2 2.5
562(13) 0.00613 569.9 2.5
575(13) 0.00568 569.6 2.5
565(13) 0.00622 569.3 2.5
565(13) 0.00635 569.0 2.4
566(12) 0.00657 568.7 2.4
588(13) 0.00581 568.3 2.4
588(13) 0.00566 568.0 2.4
544(12) 0.00646 567.7 2.4
525(12) 0.00692 567.5 2.4
596(13) 0.00623 567.3 2.5
578(13) 0.00602 567.0 2.5
582(13) 0.00549 566.8 2.5
592(13) 0.00589 566.6 2.5
569(12) 0.00653 566.4 2.5
547(12) 0.00668 566.1 2.5
589(13) 0.00596 565.9 2.5
578(13) 0.00558 565.7 2.6
588(13) 0.00592 565.5 2.6
588(13) 0.00629 565.2 2.6
570(13) 0.00637 565.0 2.6
578(13) 0.00594 564.8 2.7
553(13) 0.00603 564.5 2.7
574(13) 0.00609 564.3 2.7
593(13) 0.00629 564.1 2.8
544(12) 0.00668 563.9 2.8
576(13) 0.00612 563.6 2.8
542(13) 0.00626 563.4 2.9
548(13) 0.00630 563.2 2.9
562(12) 0.00657 563.0 2.9
544(12) 0.00676 562.7 3.0
544(13) 0.00638 562.5 3.0
537(13) 0.00633 562.3 3.1
561(13) 0.00608 562.0 3.1
546(12) 0.00685 561.8 3.2
609(13) 0.00572 561.6 3.2
578(13) 0.00594 561.4 3.3
584(13) 0.00563 561.1 3.3
549(13) 0.00634 560.9 3.4
563(12) 0.00661 560.7 3.5
595(13) 0.00607 560.5 3.5
581(13) 0.00593 560.2 3.6
584(13) 0.00585 560.0 3.7
571(13) 0.00635 559.8 3.7
565(12) 0.00659 559.5 3.8
551(13) 0.00629 559.3 3.9
563(13) 0.00597 559.1 4.0
581(13) 0.00578 558.9 4.1
559(13) 0.00622 558.6 4.2
589(13) 0.00632 558.4 4.3
557(13) 0.00621 558.2 4.4
539(13) 0.00638 558.0 4.5
561(13) 0.00613 557.7 4.6
548(12) 0.00668 557.5 4.7
534(12) 0.00697 557.3 4.8
554(13) 0.00624 557.0 4.9
554(13) 0.00604 556.8 5.1
567(13) 0.00618 556.6 5.2
545(12) 0.00675 556.4 5.3
544(12) 0.00682 556.1 5.5
558(13) 0.00638 555.9 5.6
551(13) 0.00598 555.7 5.8
542(12) 0.00646 555.5 6.0
539(12) 0.00681 555.2 6.2
552(12) 0.00674 555.0 6.3
553(12) 0.00641 554.8 6.6
602(14) 0.00530 554.5 6.8
586(13) 0.00588 554.3 7.0
535(12) 0.00692 554.1 7.2
531(12) 0.00700 553.9 7.5
564(13) 0.00603 553.6 7.7
534(13) 0.00620 553.4 8.0
554(13) 0.00619 553.2 8.3
537(12) 0.00693 553.0 8.6
572(12) 0.00650 552.7 9.0
586(13) 0.00598 552.5 9.3
567(13) 0.00592 552.3 9.7
577(13) 0.00598 552.0 10.1
540(12) 0.00693 551.8 10.6
520(12) 0.00693 551.6 11.1
582(13) 0.00582 551.4 11.6
580(13) 0.00559 551.1 12.1
562(13) 0.00604 550.9 12.7
569(12) 0.00652 550.7 13.4
597(13) 0.00587 550.5 14.1
572(13) 0.00612 550.2 14.9
588(13) 0.00585 550.0 15.7
546(12) 0.00648 549.8 16.6
552(12) 0.00670 549.5 17.6
572(13) 0.00613 549.3 18.7
571(13) 0.00584 549.1 19.9
548(13) 0.00623 548.9 21.3
564(13) 0.00627 548.6 22.7
577(12) 0.00649 548.4 24.3
560(13) 0.00613 548.2 26.0
562(13) 0.00605 548.0 27.9
543(13) 0.00630 547.7 30.0
578(13) 0.00610 547.5 32.2
566(12) 0.00658 547.3 34.7
557(13) 0.00628 547.0 37.3
547(13) 0.00627 546.8 40.2
552(13) 0.00619 546.6 43.3
587(13) 0.00609 546.4 46.7
563(12) 0.00665 546.1 50.2
574(13) 0.00608 545.9 54.0
576(13) 0.00582 545.7 58.1
597(13) 0.00572 545.5 62.3
612(13) 0.00600 545.2 66.7
583(13) 0.00636 545.0 71.3
596(13) 0.00592 544.8 76.0
605(14) 0.00528 544.5 80.6
602(13) 0.00583 544.3 85.2
665(13) 0.00552 544.1 89.7
629(13) 0.00590 543.9 93.8
635(13) 0.00552 543.6 97.5
645(14) 0.00513 543.4 100.5
672(14) 0.00532 543.2 102.9
627(13) 0.00591 543.0 104.4
620(13) 0.00598 542.7 105.0
637(13) 0.00551 542.5 104.7
640(14) 0.00507 542.3 103.5
646(14) 0.00539 542.0 101.4
626(13) 0.00589 541.8 98.5
621(13) 0.00595 541.6 95.1
627(13) 0.00552 541.4 91.1
574(13) 0.00582 541.1 86.7
627(13) 0.00559 540.9 82.2
621(13) 0.00601 540.7 77.5
609(13) 0.00598 540.5 72.9
607(13) 0.00570 540.2 68.3
591(13) 0.00564 540.0 63.8
600(13) 0.00585 539.8 59.5
598(13) 0.00623 539.5 55.4
568(13) 0.00636 539.3 51.5
593(13) 0.00578 539.1 47.9
566(13) 0.00612 538.9 44.5
586(13) 0.00605 538.6 41.3
579(12) 0.00644 538.4 38.3
559(13) 0.00628 538.2 35.6
591(13) 0.00568 538.0 33.1
558(13) 0.00615 537.7 30.8
561(13) 0.00638 537.5 28.7
554(12) 0.00672 537.3 26.7
569(13) 0.00613 537.0 24.9
532(12) 0.00648 536.8 23.3
560(13) 0.00599 536.6 21.8
558(12) 0.00646 536.4 20.5
560(12) 0.00663 536.1 19.3
542(13) 0.00637 535.9 18.1
566(13) 0.00582 535.7 17.1
560(13) 0.00615 535.5 16.2
575(13) 0.00629 535.2 15.3
548(12) 0.00675 535.0 14.5
544(13) 0.00630 534.8 13.8
561(13) 0.00600 534.5 13.2
528(12) 0.00678 534.3 12.6
554(12) 0.00657 534.1 12.0
550(12) 0.00681 533.9 11.5
541(12) 0.00641 533.6 11.0
539(13) 0.00623 533.4 10.6
541(12) 0.00660 533.2 10.2
532(12) 0.00701 533.0 9.8
530(12) 0.00701 532.7 9.5
567(13) 0.00606 532.5 9.2
517(12) 0.00645 532.3 8.9
540(13) 0.00622 532.0 8.6
538(12) 0.00683 531.8 8.3
535(12) 0.00697 531.6 8.1
542(13) 0.00639 531.4 7.9
537(13) 0.00622 531.1 7.6
539(12) 0.00650 530.9 7.5
541(12) 0.00688 530.7 7.3
526(12) 0.00703 530.5 7.1
521(12) 0.00661 530.2 6.9
516(13) 0.00633 530.0 6.8
545(13) 0.00617 529.8 6.7
519(12) 0.00715 529.5 6.5
580(13) 0.00632 529.3 6.4
519(12) 0.00677 529.1 6.3
524(13) 0.00632 528.9 6.2
534(13) 0.00630 528.6 6.2
562(12) 0.00669 528.4 6.1
540(12) 0.00660 528.2 6.1
535(12) 0.00653 528.0 6.0
512(12) 0.00662 527.7 6.0
522(12) 0.00667 527.5 6.0
526(12) 0.00705 527.3 6.0
535(12) 0.00651 527.1 6.1
506(12) 0.00693 526.8 6.1
518(12) 0.00659 526.6 6.3
494(12) 0.00694 526.4 6.4
513(12) 0.00724 526.1 6.5
537(12) 0.00649 525.9 6.7
505(12) 0.00674 525.7 6.9
522(13) 0.00635 525.5 7.1
539(12) 0.00649 525.2 7.4
538(12) 0.00700 525.0 7.7
534(12) 0.00653 524.8 8.2
565(13) 0.00593 524.6 8.7
570(13) 0.00586 524.3 9.4
509(12) 0.00712 524.1 10.3
499(12) 0.00740 523.9 11.5
553(13) 0.00635 523.6 13.0
542(13) 0.00620 523.4 15.0
551(13) 0.00619 523.2 17.6
516(12) 0.00717 523.0 20.9
551(12) 0.00678 522.7 25.1
508(12) 0.00675 522.5 30.2
540(13) 0.00610 522.3 36.2
555(13) 0.00604 522.1 43.0
541(12) 0.00679 521.8 50.1
586(13) 0.00634 521.6 56.9
587(13) 0.00591 521.4 62.2
570(13) 0.00557 521.1 64.9
593(13) 0.00572 520.9 64.1
592(13) 0.00621 520.7 60.1
556(12) 0.00667 520.5 54.0
570(13) 0.00591 520.2 46.9
573(13) 0.00563 520.0 39.8
562(13) 0.00616 519.8 33.2
542(12) 0.00682 519.6 27.5
520(12) 0.00705 519.3 22.7
544(13) 0.00629 519.1 18.8
534(13) 0.00621 518.9 15.7
510(12) 0.00704 518.6 13.2
531(12) 0.00702 518.4 11.4
540(12) 0.00685 518.2 9.9
544(12) 0.00648 518.0 8.8
520(13) 0.00632 517.7 7.9
548(13) 0.00632 517.5 7.2
531(12) 0.00704 517.3 6.7
538(12) 0.00671 517.1 6.2
569(13) 0.00598 516.8 5.8
530(13) 0.00639 516.6 5.4
502(12) 0.00702 516.4 5.1
494(12) 0.00752 516.1 4.8
506(12) 0.00706 515.9 4.6
502(12) 0.00688 515.7 4.4
522(12) 0.00641 515.5 4.2
536(12) 0.00654 515.2 4.0
509(12) 0.00730 515.0 3.8
528(12) 0.00667 514.8 3.7
514(12) 0.00665 514.6 3.6
497(12) 0.00700 514.3 3.4
485(12) 0.00731 514.1 3.3
536(12) 0.00695 513.9 3.2
509(12) 0.00705 513.6 3.1
532(13) 0.00627 513.4 3.1
513(12) 0.00667 513.2 3.0
523(12) 0.00703 513.0 2.9
536(12) 0.00695 512.7 2.8
523(12) 0.00664 512.5 2.8
510(12) 0.00670 512.3 2.7
527(12) 0.00645 512.1 2.7
550(12) 0.00652 511.8 2.6
514(12) 0.00729 511.6 2.6
489(12) 0.00717 511.4 2.5
504(12) 0.00658 511.1 2.5
521(12) 0.00653 510.9 2.4
504(12) 0.00723 510.7 2.4
502(12) 0.00747 510.5 2.3
498(12) 0.00717 510.2 2.3
526(13) 0.00624 510.0 2.3
471(11) 0.00761 509.8 2.3
499(12) 0.00744 509.6 2.2
533(12) 0.00693 509.3 2.2
517(12) 0.00674 509.1 2.2
505(12) 0.00656 508.9 2.1
528(12) 0.00684 508.6 2.1
506(12) 0.00734 508.4 2.1
500(12) 0.00746 508.2 2.1
465(12) 0.00742 508.0 2.0
509(13) 0.00621 507.7 2.0
532(12) 0.00649 507.5 2.0
493(11) 0.00759 507.3 2.0
517(12) 0.00712 507.1 2.0
509(12) 0.00669 506.8 2.0
535(13) 0.00613 506.6 1.9
510(12) 0.00682 506.4 1.9
511(12) 0.00734 506.1 1.9
517(12) 0.00690 505.9 1.9
497(12) 0.00674 505.7 1.9
522(13) 0.00639 505.5 1.9
527(12) 0.00650 505.2 1.9
506(12) 0.00726 505.0 1.8
511(12) 0.00696 504.8 1.8
506(12) 0.00686 504.6 1.8
526(13) 0.00633 504.3 1.8
506(12) 0.00684 504.1 1.8
475(11) 0.00781 503.9 1.8
499(12) 0.00706 503.6 1.8
485(12) 0.00717 503.4 1.8
518(12) 0.00643 503.2 1.8
518(12) 0.00679 503.0 1.8
474(11) 0.00787 502.7 1.8
506(12) 0.00666 502.5 1.7
478(12) 0.00709 502.3 1.7
504(12) 0.00668 502.1 1.7
520(12) 0.00694 501.8 1.7
534(12) 0.00696 501.6 1.7
503(12) 0.00680 501.4 1.7
511(12) 0.00641 501.1 1.7
504(12) 0.00691 500.9 1.7
511(12) 0.00705 500.7 1.7
496(12) 0.00753 500.5 1.7
482(12) 0.00701 500.2 1.7
496(13) 0.00634 500.0 1.7
482(12) 0.00701 499.8 1.7
497(12) 0.00741 499.6 1.7
515(12) 0.00725 499.3 1.7
514(12) 0.00671 499.1 1.7
509(12) 0.00659 498.9 1.7
485(12) 0.00728 498.6 1.7
510(12) 0.00715 498.4 1.7
521(12) 0.00708 498.2 1.7
478(12) 0.00732 498.0 1.7
501(12) 0.00651 497.7 1.7
490(12) 0.00713 497.5 1.7
501(12) 0.00734 497.3 1.7
494(12) 0.00746 497.1 1.7
499(12) 0.00673 496.8 1.7
467(12) 0.00703 496.6 1.7
508(12) 0.00672 496.4 1.7
457(11) 0.00817 496.1 1.7
516(12) 0.00710 495.9 1.7
507(12) 0.00680 495.7 1.7
494(12) 0.00658 495.5 1.7
536(12) 0.00655 495.2 1.7
500(12) 0.00739 495.0 1.7
509(12) 0.00717 494.8 1.7
522(12) 0.00667 494.6 1.7
493(12) 0.00680 494.3 1.7
521(12) 0.00652 494.1 1.7
510(12) 0.00724 493.9 1.7
493(12) 0.00730 493.6 1.7
490(12) 0.00701 493.4 1.7
489(12) 0.00675 493.2 1.7
493(12) 0.00685 493.0 1.7
494(11) 0.00756 492.7 1.7
493(12) 0.00720 492.5 1.7
455(11) 0.00762 492.3 1.8
503(12) 0.00681 492.1 1.8
501(12) 0.00706 491.8 1.8
507(12) 0.00733 491.6 1.8
494(12) 0.00719 491.4 1.8
515(12) 0.00654 491.1 1.8
493(12) 0.00695 490.9 1.8
492(12) 0.00737 490.7 1.8
482(11) 0.00764 490.5 1.8
513(12) 0.00678 490.2 1.8
488(12) 0.00696 490.0 1.8
483(12) 0.00690 489.8 1.9
509(12) 0.00691 489.7 1.9
486(11) 0.00769 489.6 1.9
492(12) 0.00692 489.5 1.9
508(13) 0.00638 489.4 1.9
506(12) 0.00683 489.2 1.9
511(12) 0.00710 489.1 2.0
456(11) 0.00814 489.0 2.0
471(12) 0.00715 488.9 2.0
480(12) 0.00687 488.8 2.0
507(12) 0.00683 488.6 2.0
505(12) 0.00713 488.5 2.1
480(11) 0.00783 488.4 2.1
477(12) 0.00722 488.3 2.1
500(12) 0.00641 488.2 2.2
486(12) 0.00721 488.1 2.2
501(12) 0.00734 487.9 2.2
502(12) 0.00737 487.8 2.3
517(12) 0.00663 487.7 2.3
495(12) 0.00644 487.6 2.4
482(12) 0.00703 487.5 2.4
473(11) 0.00770 487.3 2.5
471(11) 0.00771 487.2 2.5
507(12) 0.00686 487.1 2.6
499(12) 0.00653 487.0 2.6
490(12) 0.00724 486.9 2.7
480(11) 0.00779 486.7 2.8
463(11) 0.00771 486.6 2.9
495(12) 0.00682 486.5 3.0
503(12) 0.00645 486.4 3.1
481(12) 0.00694 486.3 3.2
494(12) 0.00745 486.1 3.3
488(12) 0.00745 486.0 3.4
484(12) 0.00709 485.9 3.5
488(12) 0.00681 485.8 3.6
492(12) 0.00707 485.7 3.8
471(11) 0.00790 485.5 3.9
511(12) 0.00688 485.4 4.1
469(12) 0.00756 485.3 4.2
480(12) 0.00709 485.2 4.4
497(12) 0.00692 485.1 4.5
490(11) 0.00759 484.9 4.7
504(12) 0.00705 484.8 4.8
479(12) 0.00727 484.7 4.9
499(12) 0.00693 484.6 5.0
513(12) 0.00702 484.5 5.1
497(12) 0.00745 484.4 5.1
482(12) 0.00727 484.2 5.2
500(12) 0.00672 484.1 5.2
492(12) 0.00713 484.0 5.1
465(11) 0.00774 483.9 5.1
490(11) 0.00766 483.8 5.0
482(12) 0.00713 483.6 4.9
495(12) 0.00667 483.5 4.9
487(12) 0.00707 483.4 4.7
500(12) 0.00701 483.3 4.6
511(12) 0.00729 483.2 4.5
465(12) 0.00741 483.0 4.4
468(12) 0.00718 482.9 4.3
461(11) 0.00766 482.8 4.2
470(11) 0.00778 482.7 4.1
480(11) 0.00776 482.6 4.0
463(12) 0.00750 482.4 3.9
494(12) 0.00654 482.3 3.8
460(11) 0.00789 482.2 3.7
514(12) 0.00723 482.1 3.7
498(12) 0.00750 482.0 3.6
482(12) 0.00731 481.8 3.5
513(13) 0.00614 481.7 3.5
461(11) 0.00775 481.6 3.4
499(12) 0.00746 481.5 3.4
504(12) 0.00729 481.4 3.4
491(12) 0.00703 481.3 3.3
481(12) 0.00696 481.1 3.3
518(12) 0.00662 481.0 3.3
486(11) 0.00763 480.9 3.3
491(12) 0.00737 480.8 3.3
480(12) 0.00754 480.7 3.3
482(12) 0.00697 480.5 3.3
505(12) 0.00692 480.4 3.3
500(12) 0.00741 480.3 3.3
453(11) 0.00812 480.2 3.3
507(12) 0.00672 480.1 3.3
462(12) 0.00747 479.9 3.3
488(12) 0.00715 479.8 3.4
489(11) 0.00763 479.7 3.4
500(12) 0.00711 479.6 3.4
453(11) 0.00783 479.5 3.4
485(12) 0.00703 479.3 3.5
441(11) 0.00799 479.2 3.5
516(12) 0.00722 479.1 3.5
497(12) 0.00715 479.0 3.6
469(12) 0.00740 478.9 3.6
497(12) 0.00679 478.7 3.7
473(12) 0.00744 478.6 3.7
467(11) 0.00794 478.5 3.7
452(11) 0.00767 478.4 3.8
490(12) 0.00682 478.3 3.8
490(12) 0.00701 478.1 3.9
487(12) 0.00725 478.0 4.0
494(12) 0.00753 477.9 4.0
501(12) 0.00687 477.8 4.1
469(12) 0.00720 477.7 4.1
467(12) 0.00742 477.6 4.2
512(12) 0.00700 477.4 4.3
488(11) 0.00765 477.3 4.3
488(12) 0.00710 477.2 4.4
496(12) 0.00664 477.1 4.5
477(12) 0.00701 477.0 4.6
488(12) 0.00754 476.8 4.7
467(11) 0.00788 476.7 4.7
482(12) 0.00715 476.6 4.8
484(12) 0.00675 476.5 4.9
467(12) 0.00733 476.4 5.0
468(11) 0.00778 476.2 5.1
466(11) 0.00805 476.1 5.3
481(12) 0.00705 476.0 5.4
466(12) 0.00688 475.9 5.5
461(11) 0.00774 475.8 5.6
472(11) 0.00786 475.6 5.8
464(11) 0.00787 475.5 5.9
473(12) 0.00749 475.4 6.0
437(12) 0.00731 475.3 6.2
444(11) 0.00780 475.2 6.4
491(12) 0.00753 475.0 6.5
485(11) 0.00776 474.9 6.7
485(12) 0.00736 474.8 6.9
493(12) 0.00672 474.7 7.1
496(12) 0.00696 474.6 7.3
464(11) 0.00802 474.5 7.5
469(11) 0.00784 474.3 7.8
514(12) 0.00679 474.2 8.0
510(12) 0.00654 474.1 8.3
479(12) 0.00723 474.0 8.6
464(11) 0.00800 473.9 8.9
451(11) 0.00808 473.7 9.2
454(11) 0.00774 473.6 9.5
475(12) 0.00711 473.5 9.9
472(11) 0.00758 473.4 10.3
492(11) 0.00763 473.3 10.7
490(12) 0.00714 473.1 11.2
515(12) 0.00651 473.0 11.6
474(12) 0.00738 472.9 12.2
491(12) 0.00739 472.8 12.7
483(11) 0.00761 472.7 13.4
486(12) 0.00731 472.5 14.0
488(12) 0.00680 472.4 14.8
464(12) 0.00726 472.3 15.6
467(12) 0.00739 472.2 16.5
448(11) 0.00831 472.1 17.5
478(12) 0.00734 471.9 18.6
476(12) 0.00731 471.8 19.8
479(12) 0.00717 471.7 21.2
474(12) 0.00743 471.6 22.7
500(12) 0.00744 471.5 24.4
536(13) 0.00619 471.3 26.3
512(12) 0.00667 471.2 28.4
496(12) 0.00702 471.1 30.8
493(12) 0.00742 471.0 33.4
505(12) 0.00734 470.9 36.3
502(12) 0.00686 470.8 39.5
502(13) 0.00639 470.6 43.0
500(12) 0.00682 470.5 46.9
491(11) 0.00760 470.4 51.1
520(12) 0.00707 470.3 55.7
519(12) 0.00676 470.2 60.6
539(13) 0.00581 470.0 65.8
533(12) 0.00653 469.9 71.3
526(12) 0.00705 469.8 77.1
545(12) 0.00680 469.7 83.1
525(12) 0.00665 469.6 89.5
589(14) 0.00540 469.4 96.6
568(13) 0.00614 469.3 104.9
582(13) 0.00630 469.2 115.4
598(13) 0.00611 469.1 129.7
572(13) 0.00610 469.0 150.1
636(14) 0.00505 468.8 179.1
629(13) 0.00549 468.7 219.2
691(14) 0.00537 468.6 272.3
745(14) 0.00490 468.5 338.6
831(15) 0.00426 468.4 415.6
920(17) 0.00363 468.2 495.7
989(17) 0.003439 468.1 567.7
1033(17) 0.00357 468.0 623.8
1125(18) 0.003224 467.9 668.0
1127(18) 0.003083 467.8 711.1
1187(19) 0.002824 467.7 757.2
1283(19) 0.002668 467.5 798.2
1373(19) 0.002706 467.4 814.3
1331(19) 0.002659 467.3 787.0
1197(19) 0.002841 467.2 714.4
1097(18) 0.003112 467.1 613.1
935(16) 0.00384 466.9 504.2
878(15) 0.00423 466.8 402.1
807(15) 0.00430 466.7 314.3
690(14) 0.00507 466.6 243.2
689(14) 0.00502 466.5 188.3
686(14) 0.00522 466.3 147.4
608(13) 0.00615 466.2 117.7
560(13) 0.00617 466.1 96.4
560(13) 0.00607 466.0 81.0
543(12) 0.00659 465.9 69.7
539(12) 0.00678 465.7 61.1
512(12) 0.00721 465.6 54.3
495(12) 0.00689 465.5 48.9
524(13) 0.00639 465.4 44.3
504(12) 0.00711 465.3 40.5
527(12) 0.00690 465.1 37.2
499(12) 0.00750 465.0 34.4
499(12) 0.00711 464.9 32.0
526(13) 0.00606 464.8 29.8
496(12) 0.00703 464.7 27.9
488(12) 0.00753 464.5 26.3
472(11) 0.00788 464.4 24.8
511(12) 0.00690 464.3 23.5
520(13) 0.00628 464.2 22.4
486(12) 0.00717 464.1 21.4
473(11) 0.00769 464.0 20.4
461(11) 0.00800 463.8 19.6
478(12) 0.00698 463.7 18.9
467(12) 0.00696 463.6 18.2
495(12) 0.00695 463.5 17.6
437(11) 0.00847 463.4 17.1
494(12) 0.00743 463.2 16.7
464(11) 0.00774 463.1 16.2
453(12) 0.00734 463.0 15.9
467(11) 0.00759 462.9 15.5
510(12) 0.00729 462.8 15.2
425(11) 0.00870 462.6 15.0
458(11) 0.00764 462.5 14.8
442(11) 0.00758 462.4 14.6
462(12) 0.00749 462.3 14.4
473(11) 0.00787 462.2 14.3
466(11) 0.00763 462.0 14.2
440(11) 0.00800 461.9 14.1
427(11) 0.00786 461.8 14.1
428(11) 0.00801 461.7 14.0
458(11) 0.00817 461.6 14.0
490(12) 0.00737 461.4 14.1
472(12) 0.00745 461.3 14.1
475(12) 0.00718 461.2 14.2
457(11) 0.00779 461.1 14.3
433(11) 0.00849 460.9 14.4
457(11) 0.00780 460.7 14.5
489(12) 0.00675 460.5 14.7
490(12) 0.00688 460.3 14.9
481(12) 0.00735 460.2 15.1
466(11) 0.00796 460.0 15.4
458(11) 0.00766 459.8 15.6
475(12) 0.00710 459.6 15.9
420(11) 0.00867 459.4 16.3
469(11) 0.00764 459.2 16.6
457(11) 0.00817 459.0 17.0
469(12) 0.00752 458.8 17.5
485(12) 0.00688 458.6 18.0
498(12) 0.00682 458.4 18.5
461(11) 0.00775 458.3 19.1
470(11) 0.00800 458.1 19.7
458(11) 0.00772 457.9 20.4
465(12) 0.00714 457.7 21.1
502(12) 0.00680 457.5 21.9
472(11) 0.00768 457.3 22.8
478(11) 0.00766 457.1 23.7
451(11) 0.00766 456.9 24.8
443(12) 0.00743 456.7 25.9
495(12) 0.00710 456.5 27.2
483(11) 0.00771 456.4 28.5
478(11) 0.00775 456.2 30.0
508(12) 0.00675 456.0 31.7
509(13) 0.00620 455.8 33.5
483(12) 0.00732 455.6 35.6
504(12) 0.00751 455.4 37.8
475(11) 0.00774 455.2 40.3
472(12) 0.00746 455.0 43.2
499(12) 0.00660 454.8 46.3
492(12) 0.00729 454.6 49.9
491(12) 0.00756 454.5 54.0
492(12) 0.00742 454.3 58.6
535(12) 0.00651 454.1 63.9
506(12) 0.00663 453.9 70.0
537(13) 0.00631 453.7 77.1
536(12) 0.00695 453.5 85.6
526(12) 0.00703 453.3 95.8
579(13) 0.00583 453.1 108.3
571(13) 0.00591 452.9 124.1
579(13) 0.00596 452.7 144.6
632(13) 0.00586 452.6 171.9
625(13) 0.00573 452.4 208.8
675(14) 0.00507 452.2 258.6
754(15) 0.00443 452.0 325.5
839(16) 0.00402 451.8 413.3
866(15) 0.00432 451.6 525.4
1010(17) 0.00356 451.4 663.0
1212(19) 0.002823 451.2 824.3
1471(21) 0.002313 451.0 1001.2
1640(21) 0.002186 450.8 1176.6
1837(22) 0.002020 450.7 1321.1
1944(24) 0.001798 450.5 1398.9
1812(23) 0.001899 450.3 1385.2
1716(22) 0.001992 450.1 1284.8
1552(21) 0.002321 449.9 1128.1
1337(19) 0.002775 449.7 950.6
1168(19) 0.002919 449.5 777.7
1066(18) 0.003088 449.3 623.7
982(17) 0.00351 449.1 494.3
892(16) 0.00403 448.9 390.5
788(15) 0.00472 448.8 310.1
757(15) 0.00449 448.6 249.7
725(15) 0.00454 448.4 205.0
673(14) 0.00522 448.2 172.4
676(14) 0.00537 448.0 148.4
628(13) 0.00591 447.8 130.7
575(13) 0.00600 447.6 117.3
600(14) 0.00542 447.4 107.0
563(12) 0.00644 447.2 99.0
565(12) 0.00648 447.0 92.8
572(12) 0.00655 446.9 87.9
567(13) 0.00622 446.7 84.3
583(13) 0.00556 446.5 81.7
602(13) 0.00575 446.3 80.1
570(12) 0.00652 446.1 79.5
511(12) 0.00732 445.9 79.9
546(13) 0.00630 445.7 81.2
537(13) 0.00596 445.5 83.9
546(13) 0.00632 445.3 87.9
566(12) 0.00657 445.1 93.9
601(13) 0.00608 445.0 102.3
583(13) 0.00578 444.8 114.2
594(13) 0.00559 444.6 130.9
667(14) 0.00527 444.4 154.0
669(13) 0.00557 444.2 185.4
709(14) 0.00520 444.0 227.0
741(14) 0.00481 443.8 280.7
783(15) 0.00434 443.6 347.6
895(16) 0.00384 443.4 427.2
974(16) 0.00382 443.2 516.8
1039(17) 0.003487 443.1 609.7
1166(18) 0.002962 442.9 693.7
1248(19) 0.002753 442.7 751.3
1352(20) 0.002555 442.5 766.2
1307(19) 0.002839 442.3 733.3
1207(18) 0.002945 442.1 662.8
1088(18) 0.003089 441.9 572.5
906(16) 0.00368 441.7 478.4
806(15) 0.00434 441.5 390.5
735(14) 0.00511 441.3 313.9
650(14) 0.00534 441.2 250.4
611(13) 0.00550 441.0 199.6
586(13) 0.00588 440.8 160.2
577(13) 0.00612 440.6 130.3
546(12) 0.00685 440.4 107.9
542(12) 0.00642 440.2 91.2
496(12) 0.00707 440.0 78.5
517(12) 0.00680 439.8 68.8
497(12) 0.00721 439.6 61.0
488(11) 0.00764 439.4 54.8
485(12) 0.00726 439.3 49.6
454(12) 0.00755 439.1 45.2
475(12) 0.00725 438.9 41.5
489(12) 0.00744 438.7 38.2
470(11) 0.00786 438.5 35.4
468(12) 0.00752 438.3 32.8
461(12) 0.00725 438.1 30.6
462(12) 0.00747 437.9 28.6
462(11) 0.00796 437.7 26.8
465(11) 0.00786 437.5 25.2
449(11) 0.00798 437.4 23.8
421(11) 0.00777 437.2 22.5
436(11) 0.00775 437.0 21.3
464(11) 0.00807 436.8 20.2
475(11) 0.00785 436.6 19.2
488(12) 0.00703 436.4 18.3
425(11) 0.00767 436.2 17.5
471(12) 0.00713 436.0 16.7
444(11) 0.00821 435.8 16.0
462(11) 0.00797 435.6 15.3
465(12) 0.00726 435.5 14.7
439(11) 0.00762 435.3 14.2
436(11) 0.00795 435.1 13.6
435(11) 0.00849 434.9 13.1
481(11) 0.00774 434.7 12.7
444(11) 0.00807 434.5 12.2
445(12) 0.00743 434.3 11.8
458(12) 0.00732 434.1 11.5
434(11) 0.00865 433.9 11.1
448(11) 0.00804 433.7 10.8
436(11) 0.00808 433.6 10.4
455(12) 0.00746 433.4 10.1
457(11) 0.00769 433.2 9.9
481(11) 0.00772 433.0 9.6
436(11) 0.00802 432.8 9.3
458(12) 0.00722 432.6 9.1
449(12) 0.00754 432.4 8.9
459(11) 0.00763 432.2 8.6
461(11) 0.00807 432.0 8.4
426(11) 0.00828 431.8 8.2
441(12) 0.00742 431.7 8.1
436(11) 0.00772 431.5 7.9
461(12) 0.00755 431.3 7.7
439(11) 0.00836 431.1 7.5
414(11) 0.00854 430.9 7.4
448(12) 0.00747 430.7 7.2
405(11) 0.00861 430.5 7.1
437(11) 0.00814 430.3 7.0
452(11) 0.00822 430.1 6.8
425(11) 0.00810 429.9 6.7
461(12) 0.00727 429.8 6.6
435(11) 0.00807 429.6 6.5
451(11) 0.00804 429.4 6.4
429(11) 0.00859 429.2 6.3
429(11) 0.00813 429.0 6.2
424(11) 0.00761 428.8 6.1
422(11) 0.00811 428.6 6.0
411(11) 0.00868 428.4 5.9
418(11) 0.00893 428.2 5.8
436(11) 0.00799 428.0 5.7
438(12) 0.00724 427.9 5.7
399(11) 0.00870 427.7 5.6
428(11) 0.00866 427.5 5.5
435(11) 0.00848 427.3 5.4
435(11) 0.00811 427.1 5.4
422(11) 0.00782 426.9 5.3
409(11) 0.00875 426.7 5.3
437(11) 0.00840 426.5 5.2
439(11) 0.00851 426.3 5.1
441(11) 0.00811 426.1 5.1
416(11) 0.00798 426.0 5.0
427(11) 0.00798 425.8 5.0
455(11) 0.00823 425.6 4.9
441(11) 0.00838 425.4 4.9
440(11) 0.00764 425.2 4.8
415(11) 0.00780 425.0 4.8
457(12) 0.00738 424.8 4.8
427(11) 0.00873 424.6 4.7
420(11) 0.00875 424.4 4.7
414(11) 0.00833 424.2 4.7
441(12) 0.00738 424.1 4.6
413(11) 0.00831 423.9 4.6
430(11) 0.00856 423.7 4.6
412(11) 0.00897 423.5 4.5
424(11) 0.00794 423.5 4.5
439(12) 0.00751 423.4 4.5
423(11) 0.00856 423.4 4.5
429(11) 0.00863 423.3 4.4
421(11) 0.00824 423.2 4.4
432(11) 0.00795 423.2 4.4
455(11) 0.00766 423.1 4.4
449(11) 0.00791 423.1 4.4
429(11) 0.00871 423.0 4.3
427(11) 0.00782 422.9 4.3
449(12) 0.00726 422.9 4.3
464(12) 0.00704 422.8 4.3
397(10) 0.00925 422.8 4.3
449(11) 0.00820 422.7 4.3
433(11) 0.00804 422.6 4.3
427(11) 0.00784 422.6 4.3
423(11) 0.00815 422.5 4.3
424(11) 0.00870 422.5 4.3
427(11) 0.00875 422.4 4.3
420(11) 0.00821 422.3 4.3
431(11) 0.00767 422.3 4.3
454(11) 0.00762 422.2 4.3
435(11) 0.00849 422.1 4.3
407(10) 0.00914 422.1 4.3
389(11) 0.00899 422.0 4.3
424(12) 0.00749 422.0 4.3
440(11) 0.00776 421.9 4.3
412(11) 0.00882 421.8 4.3
422(11) 0.00864 421.8 4.4
451(11) 0.00768 421.7 4.4
427(12) 0.00754 421.7 4.4
434(11) 0.00781 421.6 4.4
413(11) 0.00887 421.5 4.5
402(10) 0.00912 421.5 4.5
419(11) 0.00819 421.4 4.5
436(12) 0.00737 421.4 4.6
443(11) 0.00775 421.3 4.6
420(11) 0.00897 421.2 4.7
421(11) 0.00864 421.2 4.8
436(11) 0.00785 421.1 4.8
428(12) 0.00754 421.1 4.9
446(11) 0.00763 421.0 5.0
424(11) 0.00880 420.9 5.1
433(11) 0.00851 420.9 5.3
443(11) 0.00771 420.8 5.4
444(12) 0.00727 420.7 5.6
432(11) 0.00781 420.7 5.9
443(11) 0.00843 420.6 6.1
426(11) 0.00859 420.6 6.5
435(11) 0.00798 420.5 6.9
440(12) 0.00755 420.4 7.6
442(11) 0.00785 420.4 8.7
447(11) 0.00834 420.3 10.9
440(11) 0.00817 420.3 15.6
449(11) 0.00757 420.2 24.7
461(12) 0.00724 420.1 41.1
460(11) 0.00759 420.1 66.3
492(11) 0.00758 420.0 98.3
494(12) 0.00727 420.0 130.6
608(14) 0.00547 419.9 151.6
592(13) 0.00578 419.8 150.8
558(12) 0.00642 419.8 128.7
553(12) 0.00669 419.7 96.1
484(12) 0.00711 419.6 64.4
469(12) 0.00710 419.6 40.0
479(12) 0.00720 419.5 24.2
456(11) 0.00787 419.5 15.5
432(11) 0.00863 419.4 11.2
426(11) 0.00819 419.3 9.2
421(11) 0.00775 419.3 8.2
410(11) 0.00878 419.2 7.6
455(11) 0.00801 419.2 7.2
424(11) 0.00880 419.1 6.9
429(11) 0.00807 419.0 6.7
404(11) 0.00828 419.0 6.6
445(11) 0.00800 418.9 6.5
464(11) 0.00798 418.9 6.4
421(11) 0.00873 418.8 6.3
421(11) 0.00840 418.7 6.3
415(11) 0.00777 418.7 6.3
440(11) 0.00777 418.6 6.3
423(11) 0.00862 418.6 6.3
448(11) 0.00814 418.5 6.3
460(12) 0.00734 418.4 6.3
427(11) 0.00772 418.4 6.4
426(11) 0.00816 418.3 6.4
423(11) 0.00881 418.2 6.5
408(11) 0.00903 418.2 6.5
448(11) 0.00767 418.1 6.6
434(12) 0.00746 418.1 6.7
427(11) 0.00811 418.0 6.7
432(11) 0.00867 417.9 6.8
403(10) 0.00914 417.9 6.9
417(11) 0.00818 417.8 7.0
410(11) 0.00831 417.8 7.1
440(11) 0.00791 417.9 7.2
407(10) 0.00920 417.9 7.4
414(11) 0.00869 417.9 7.5
392(11) 0.00878 417.9 7.6
425(11) 0.00788 417.9 7.8
419(11) 0.00836 418.0 7.9
420(11) 0.00881 418.0 8.1
406(11) 0.00883 418.0 8.3
433(11) 0.00794 418.0 8.5
422(11) 0.00791 418.1 8.6
399(11) 0.00901 418.1 8.9
427(11) 0.00866 418.1 9.1
433(11) 0.00795 418.1 9.3
455(11) 0.00757 418.2 9.5
437(11) 0.00799 418.2 9.8
431(11) 0.00844 418.2 10.1
442(11) 0.00841 418.2 10.4
415(11) 0.00860 418.2 10.7
439(11) 0.00778 418.3 11.0
435(11) 0.00810 418.3 11.4
445(11) 0.00799 418.3 11.7
427(11) 0.00874 418.3 12.2
402(11) 0.00859 418.4 12.6
427(11) 0.00768 418.4 13.1
435(11) 0.00778 418.4 13.6
417(11) 0.00886 418.4 14.1
398(10) 0.00944 418.5 14.7
426(11) 0.00791 418.5 15.4
435(12) 0.00746 418.5 16.1
417(11) 0.00821 418.5 16.8
414(11) 0.00896 418.5 17.7
428(11) 0.00876 418.6 18.6
417(11) 0.00827 418.6 19.6
425(12) 0.00749 418.6 20.8
436(11) 0.00783 418.6 22.1
447(11) 0.00836 418.7 23.5
439(11) 0.00841 418.7 25.2
437(11) 0.00805 418.7 27.0
455(12) 0.00703 418.7 29.2
433(11) 0.00805 418.8 31.8
463(11) 0.00806 418.8 35.0
466(11) 0.00806 418.8 38.8
443(11) 0.00808 418.8 43.6
453(12) 0.00728 418.8 49.5
439(11) 0.00771 418.9 57.0
480(11) 0.00779 418.9 66.3
483(12) 0.00752 418.9 77.8
497(12) 0.00698 418.9 91.8
517(13) 0.00631 419.0 108.4
503(12) 0.00690 419.0 127.5
568(12) 0.00655 419.0 148.8
594(13) 0.00602 419.0 171.2
584(13) 0.00599 419.1 192.7
600(13) 0.00567 419.1 210.6
617(13) 0.00561 419.1 221.7
643(13) 0.00583 419.1 224.2
670(14) 0.00528 419.1 218.3
627(13) 0.00556 419.2 206.7
613(13) 0.00560 419.2 192.6
600(13) 0.00583 419.2 178.9
583(12) 0.00641 419.2 167.4
580(13) 0.00608 419.3 159.2
561(13) 0.00598 419.3 154.6
554(13) 0.00605 419.3 153.7
537(12) 0.00668 419.3 156.4
573(12) 0.00647 419.4 162.1
609(13) 0.00576 419.4 170.5
611(13) 0.00556 419.4 180.6
637(14) 0.00541 419.4 191.5
670(14) 0.00543 419.4 202.0
668(13) 0.00558 419.5 210.6
684(14) 0.00500 419.5 215.9
660(14) 0.00504 419.5 217.0
609(13) 0.00559 419.5 213.4
619(13) 0.00582 419.6 205.4
641(13) 0.00575 419.6 193.7
606(13) 0.00568 419.6 179.8
618(14) 0.00524 419.6 164.6
578(13) 0.00595 419.7 149.2
558(12) 0.00659 419.7 134.2
525(12) 0.00705 419.7 120.2
534(13) 0.00628 419.7 107.4
532(13) 0.00613 419.7 95.9
496(12) 0.00719 419.8 85.7
516(12) 0.00716 419.8 76.7
516(12) 0.00711 419.8 69.0
466(11) 0.00764 419.8 62.3
457(12) 0.00723 419.9 56.6
503(12) 0.00669 419.9 51.7
476(11) 0.00768 419.9 47.5
465(11) 0.00803 419.9 44.0
428(11) 0.00805 420.0 41.1
404(11) 0.00837 420.0 38.6
451(12) 0.00755 420.0 36.4
441(11) 0.00853 420.0 34.6
441(11) 0.00812 420.0 33.1
431(11) 0.00798 420.1 31.8
472(12) 0.00685 420.1 30.6
438(11) 0.00812 420.1 29.7
446(11) 0.00836 420.1 28.9
424(11) 0.00846 420.2 28.2
408(11) 0.00842 420.2 27.6
440(11) 0.00763 420.2 27.1
439(11) 0.00775 420.2 26.8
450(11) 0.00826 420.3 26.5
430(11) 0.00835 420.3 26.3
418(11) 0.00834 420.3 26.1
407(11) 0.00844 420.3 26.1
441(11) 0.00779 420.3 26.1
431(11) 0.00861 420.4 26.2
420(11) 0.00859 420.4 26.4
434(11) 0.00812 420.4 26.6
445(11) 0.00786 420.4 27.0
434(11) 0.00827 420.5 27.4
434(11) 0.00858 420.5 27.8
421(11) 0.00847 420.5 28.4
453(12) 0.00755 420.5 29.0
444(11) 0.00778 420.6 29.7
405(11) 0.00907 420.6 30.5
410(10) 0.00908 420.6 31.4
437(11) 0.00772 420.6 32.3
437(11) 0.00770 420.6 33.3
414(11) 0.00870 420.7 34.4
428(11) 0.00864 420.7 35.5
428(11) 0.00862 420.6 36.6
416(11) 0.00832 420.4 37.8
433(11) 0.00757 420.2 38.9
452(12) 0.00741 420.0 40.0
417(11) 0.00900 419.8 41.0
419(11) 0.00880 419.6 41.9
443(11) 0.00779 419.4 42.8
434(11) 0.00760 419.2 43.7
415(11) 0.00850 418.9 44.5
447(11) 0.00817 418.7 45.3
453(11) 0.00814 418.5 46.2
419(11) 0.00852 418.3 47.1
435(12) 0.00754 418.1 48.1
454(11) 0.00791 417.9 49.3
434(11) 0.00849 417.7 50.7
435(11) 0.00852 417.5 52.3
439(11) 0.00807 417.3 54.1
449(12) 0.00739 417.1 56.2
437(11) 0.00794 416.9 58.6
468(11) 0.00785 416.7 61.3
431(11) 0.00835 416.5 64.4
431(11) 0.00792 416.3 67.9
442(11) 0.00770 416.1 71.8
442(11) 0.00770 415.9 76.1
460(11) 0.00803 415.6 81.0
428(11) 0.00863 415.4 86.3
452(11) 0.00761 415.2 92.0
506(13) 0.00627 415.0 98.1
467(12) 0.00734 414.8 104.7
491(11) 0.00759 414.6 111.7
500(12) 0.00708 414.4 119.3
506(12) 0.00695 414.2 127.7
528(13) 0.00626 414.0 137.3
529(12) 0.00655 413.8 148.4
495(12) 0.00746 413.6 161.3
540(12) 0.00653 413.4 176.4
509(12) 0.00662 413.2 193.9
523(12) 0.00644 413.0 214.3
554(13) 0.00633 412.8 237.7
573(12) 0.00644 412.6 264.5
617(13) 0.00570 412.3 294.8
649(14) 0.00528 412.1 328.8
676(14) 0.00511 411.9 366.5
724(14) 0.00486 411.7 407.8
783(15) 0.00470 411.5 452.3
878(16) 0.00392 411.3 499.3
917(17) 0.00359 411.1 547.5
936(17) 0.00365 410.9 595.1
993(17) 0.00366 410.7 639.7
1015(17) 0.00367 410.5 678.3
1059(18) 0.003229 410.3 707.6
998(17) 0.003311 410.1 725.0
1019(17) 0.003350 409.9 728.6
950(16) 0.00383 409.7 718.2
911(16) 0.00410 409.5 695.1
940(17) 0.00359 409.3 661.8
901(17) 0.00357 409.0 621.5
871(16) 0.00401 408.8 577.2
862(15) 0.00435 408.6 531.5
810(15) 0.00458 408.4 486.5
796(15) 0.00437 408.2 443.4
754(15) 0.00423 408.0 403.2
709(14) 0.00491 407.8 366.3
686(14) 0.00542 407.6 332.8
648(13) 0.00578 407.4 302.8
647(14) 0.00548 407.2 276.0
662(14) 0.00492 407.0 252.4
598(13) 0.00599 406.8 231.5
596(13) 0.00619 406.6 213.2
571(12) 0.00649 406.4 197.0
575(13) 0.00607 406.2 182.8
597(13) 0.00563 406.0 170.2
557(13) 0.00627 405.7 159.1
559(12) 0.00659 405.5 149.1
542(12) 0.00683 405.3 140.2
494(12) 0.00719 405.1 132.1
490(12) 0.00695 404.9 124.7
508(12) 0.00688 404.7 118.0
492(12) 0.00751 404.5 111.7
492(12) 0.00742 404.3 106.0
507(12) 0.00673 404.1 100.7
476(12) 0.00696 403.9 95.7
495(12) 0.00701 403.7 91.0
509(12) 0.00733 403.5 86.7
463(11) 0.00763 403.3 82.7
477(12) 0.00717 403.1 78.9
473(12) 0.00734 402.9 75.4
452(11) 0.00786 402.7 72.1
457(11) 0.00811 402.4 69.0
488(12) 0.00728 402.2 66.2
464(12) 0.00743 402.0 63.5
469(12) 0.00743 401.8 61.1
471(11) 0.00762 401.6 58.9
463(11) 0.00802 401.4 56.8
461(11) 0.00760 401.2 55.0
447(11) 0.00761 401.0 53.3
451(11) 0.00781 400.8 51.9
471(11) 0.00758 400.6 50.6
452(11) 0.00820 400.4 49.6
449(11) 0.00773 400.2 48.7
454(12) 0.00733 400.0 48.1
452(11) 0.00769 399.8 47.7
443(11) 0.00836 399.6 47.6
456(11) 0.00810 399.4 47.7
442(11) 0.00787 399.1 48.2
444(12) 0.00752 398.9 49.0
455(12) 0.00754 398.7 50.2
454(11) 0.00818 398.5 51.8
453(11) 0.00817 398.3 53.9
445(11) 0.00806 398.1 56.4
454(12) 0.00723 397.9 59.4
457(11) 0.00779 397.7 63.0
471(11) 0.00793 397.5 67.0
464(11) 0.00797 397.3 71.6
449(11) 0.00768 397.1 76.6
475(12) 0.00667 396.9 81.9
483(12) 0.00722 396.7 87.4
497(12) 0.00752 396.5 92.7
503(12) 0.00732 396.3 97.7
500(12) 0.00692 396.1 101.8
520(12) 0.00641 395.8 104.7
544(13) 0.00632 395.6 106.0
513(12) 0.00727 395.4 105.4
514(12) 0.00713 395.2 103.1
530(12) 0.00654 395.0 99.1
499(12) 0.00683 394.8 94.0
489(12) 0.00724 394.6 88.0
438(11) 0.00849 394.4 81.6
459(11) 0.00774 394.2 75.1
478(12) 0.00697 394.0 68.7
475(12) 0.00698 393.8 62.7
451(11) 0.00759 393.6 57.1
412(11) 0.00895 393.4 51.9
436(11) 0.00815 393.2 47.3
427(11) 0.00798 393.0 43.1
446(11) 0.00766 392.8 39.3
431(11) 0.00802 392.5 36.0
421(11) 0.00887 392.3 33.1
399(10) 0.00910 392.1 30.5
385(10) 0.00914 391.9 28.3
393(11) 0.00865 391.7 26.3
405(11) 0.00880 391.5 24.5
419(11) 0.00892 391.3 23.0
420(11) 0.00832 391.1 21.7
401(11) 0.00867 390.9 20.5
407(11) 0.00875 390.7 19.4
395(10) 0.00933 390.5 18.5
400(10) 0.00924 390.3 17.6
411(11) 0.00814 390.1 16.8
415(11) 0.00778 389.9 16.1
383(10) 0.00914 389.7 15.5
375(10) 0.00977 389.5 14.9
399(10) 0.00934 389.2 14.3
415(11) 0.00828 389.0 13.8
397(11) 0.00844 388.8 13.3
405(11) 0.00874 388.6 12.9
429(11) 0.00864 388.4 12.5
398(10) 0.00932 388.2 12.1
408(11) 0.00851 388.0 11.7
411(11) 0.00803 387.8 11.3
402(11) 0.00835 387.6 11.0
406(10) 0.00909 387.4 10.7
407(10) 0.00914 387.2 10.4
360(10) 0.00989 387.0 10.1
371(11) 0.00859 386.8 9.9
369(10) 0.00937 386.6 9.6
384(10) 0.00966 386.4 9.4
390(10) 0.00955 386.2 9.1
408(11) 0.00834 385.9 8.9
389(11) 0.00844 385.7 8.7
409(11) 0.00836 385.5 8.5
390(10) 0.00955 385.3 8.3
396(10) 0.00930 385.1 8.1
408(11) 0.00850 384.9 8.0
378(11) 0.00903 384.7 7.8
389(11) 0.00889 384.5 7.6
375(10) 0.00994 384.3 7.5
403(11) 0.00887 384.1 7.3
389(11) 0.00871 383.9 7.2
395(11) 0.00839 383.7 7.0
411(11) 0.00831 383.5 6.9
410(11) 0.00900 383.3 6.8
404(11) 0.00886 383.1 6.6
390(11) 0.00882 382.9 6.5
378(10) 0.00925 382.6 6.4
367(10) 0.00956 382.4 6.3
387(10) 0.00955 382.2 6.2
413(11) 0.00863 382.0 6.1
391(11) 0.00891 381.8 6.0
406(11) 0.00849 381.6 5.9
377(10) 0.00956 381.4 5.8
402(10) 0.00915 381.2 5.7
390(10) 0.00929 381.0 5.6
411(11) 0.00827 380.8 5.5
363(10) 0.00973 380.6 5.4
420(11) 0.00834 380.4 5.3
401(10) 0.00930 380.2 5.2
384(11) 0.00889 380.0 5.1
419(11) 0.00773 379.8 5.1
394(11) 0.00884 379.6 5.0
393(10) 0.00922 379.3 4.9
372(10) 0.00996 379.1 4.8
386(10) 0.00920 378.9 4.8
376(11) 0.00869 378.7 4.7
379(11) 0.00888 378.5 4.6
373(10) 0.00985 378.3 4.6
371(10) 0.00998 378.1 4.5
379(10) 0.00931 377.9 4.5
378(11) 0.00859 377.7 4.4
380(10) 0.00915 377.5 4.3
358(10) 0.01028 377.3 4.3
380(10) 0.00983 377.1 4.2
387(10) 0.00916 376.9 4.2
387(11) 0.00841 376.7 4.1
385(11) 0.00891 376.5 4.1
389(10) 0.00938 376.3 4.0
369(10) 0.01006 376.0 4.0
394(11) 0.00895 375.8 3.9
376(11) 0.00904 375.6 3.9
386(10) 0.00926 375.4 3.8
363(10) 0.01027 375.2 3.8
355(10) 0.01056 375.0 3.7
362(10) 0.01001 374.8 3.7
394(11) 0.00823 374.6 3.6
363(10) 0.00973 374.4 3.6
387(10) 0.00958 374.2 3.6
381(10) 0.00969 374.0 3.5
387(11) 0.00904 373.8 3.5
396(11) 0.00828 373.6 3.4
391(11) 0.00874 373.4 3.4
405(10) 0.00915 373.2 3.4
419(11) 0.00841 373.0 3.3
385(11) 0.00889 372.8 3.3
408(11) 0.00820 372.5 3.3
380(10) 0.00919 372.3 3.2
398(10) 0.00936 372.1 3.2
382(10) 0.00933 371.9 3.2
396(11) 0.00864 371.7 3.1
383(10) 0.00913 371.5 3.1
398(11) 0.00878 371.3 3.1
397(10) 0.00942 371.1 3.0
381(10) 0.00909 370.9 3.0
362(10) 0.00935 370.7 3.0
376(10) 0.00912 370.5 3.0
384(10) 0.00951 370.3 2.9
398(10) 0.00935 370.1 2.9
370(10) 0.00918 369.9 2.9
361(10) 0.00916 369.7 2.8
355(10) 0.00967 369.5 2.8
372(10) 0.00978 369.2 2.8
392(10) 0.00959 369.0 2.8
351(10) 0.00988 368.8 2.7
379(11) 0.00883 368.6 2.7
414(11) 0.00819 368.4 2.7
380(10) 0.00959 368.2 2.7
383(10) 0.00974 368.0 2.7
386(11) 0.00880 367.8 2.6
356(10) 0.00910 367.6 2.6
392(11) 0.00872 367.4 2.6
361(10) 0.01008 367.2 2.6
370(10) 0.01005 367.0 2.5
352(10) 0.01006 366.8 2.5
354(10) 0.00950 366.6 2.5
372(10) 0.00928 366.4 2.5
370(10) 0.00991 366.2 2.5
351(10) 0.01052 365.9 2.4
385(11) 0.00888 365.9 2.4
366(10) 0.00915 365.8 2.4
375(10) 0.00960 365.8 2.4
396(10) 0.00946 365.7 2.4
352(10) 0.01036 365.6 2.4
346(10) 0.00951 365.6 2.3
350(10) 0.00923 365.5 2.3
358(10) 0.00991 365.5 2.3
358(10) 0.01018 365.4 2.3
369(10) 0.00999 365.4 2.3
384(10) 0.00932 365.3 2.3
354(10) 0.00957 365.3 2.2
385(11) 0.00903 365.2 2.2
365(10) 0.01022 365.1 2.2
364(10) 0.01019 365.1 2.2
384(10) 0.00918 365.0 2.2
362(10) 0.00929 365.0 2.2
342(10) 0.01051 364.9 2.1
370(10) 0.01009 364.9 2.1
402(11) 0.00887 364.8 2.1
375(11) 0.00895 364.8 2.1
390(11) 0.00838 364.7 2.1
380(10) 0.00929 364.6 2.1
359(10) 0.01035 364.6 2.1
386(10) 0.00924 364.5 2.1
373(10) 0.00921 364.5 2.0
346(10) 0.01037 364.4 2.0
362(10) 0.01015 364.4 2.0
375(10) 0.01002 364.3 2.0
375(10) 0.00925 364.3 2.0
375(11) 0.00893 364.2 2.0
380(10) 0.00910 364.1 2.0
378(10) 0.00933 364.1 2.0
412(11) 0.00906 364.0 2.0
387(11) 0.00880 364.0 1.9
374(10) 0.00923 363.9 1.9
364(10) 0.00978 363.9 1.9
349(10) 0.01062 363.8 1.9
386(10) 0.00973 363.8 1.9
373(10) 0.00959 363.7 1.9
372(11) 0.00875 363.6 1.9
370(11) 0.00901 363.6 1.9
386(10) 0.00929 363.5 1.9
345(10) 0.01087 363.5 1.9
373(10) 0.00931 363.4 1.9
363(11) 0.00881 363.4 1.8
366(10) 0.00929 363.3 1.8
374(10) 0.00994 363.3 1.8
368(10) 0.01011 363.2 1.8
353(10) 0.01012 363.1 1.8
376(11) 0.00860 363.1 1.8
374(10) 0.00948 363.0 1.8
365(10) 0.01026 363.0 1.8
367(10) 0.01009 362.9 1.8
382(11) 0.00888 362.9 1.8
372(11) 0.00893 362.8 1.8
376(11) 0.00899 362.7 1.8
379(10) 0.00977 362.7 1.8
376(10) 0.00982 362.6 1.8
372(10) 0.00920 362.6 1.8
364(10) 0.00935 362.5 1.7
373(10) 0.00938 362.5 1.7
358(10) 0.01024 362.4 1.7
369(10) 0.00977 362.4 1.7
379(10) 0.00908 362.3 1.7
334(10) 0.00986 362.2 1.7
362(10) 0.00939 362.2 1.7
376(10) 0.00992 362.1 1.7
359(10) 0.01021 362.1 1.7
356(10) 0.00952 362.0 1.7
367(11) 0.00905 362.0 1.7
373(10) 0.00942 361.9 1.7
377(10) 0.00989 361.9 1.7
352(10) 0.01011 361.8 1.7
372(11) 0.00875 361.7 1.7
373(11) 0.00893 361.7 1.7
332(10) 0.01058 361.6 1.7
360(10) 0.01021 361.6 1.7
363(10) 0.00965 361.5 1.7
360(10) 0.00932 361.5 1.7
341(10) 0.01034 361.4 1.7
351(10) 0.00988 361.4 1.7
371(10) 0.01002 361.3 1.7
367(10) 0.00953 361.2 1.7
362(10) 0.00934 361.2 1.7
372(10) 0.00912 361.1 1.7
359(10) 0.01012 361.1 1.7
404(10) 0.00912 361.0 1.7
367(10) 0.00952 361.0 1.7
370(11) 0.00890 360.9 1.7
359(10) 0.00980 360.9 1.7
380(10) 0.00972 360.8 1.7
362(10) 0.01031 360.7 1.7
354(10) 0.01020 360.7 1.7
362(11) 0.00903 360.6 1.7
357(10) 0.00971 360.6 1.7
363(10) 0.01014 360.5 1.7
379(10) 0.00963 360.5 1.7
369(10) 0.00959 360.4 1.7
359(11) 0.00893 360.4 1.7
360(10) 0.00974 360.3 1.7
377(10) 0.00983 360.2 1.7
375(10) 0.00972 360.2 1.7
359(10) 0.00969 360.1 1.7
383(11) 0.00856 360.1 1.7
370(10) 0.00941 360.0 1.8
356(10) 0.01040 360.0 1.8
342(10) 0.01099 359.9 1.8
340(10) 0.01030 359.9 1.8
385(11) 0.00837 359.8 1.8
363(10) 0.00981 359.7 1.8
365(10) 0.01019 359.7 1.8
362(10) 0.00967 359.6 1.8
384(11) 0.00880 359.6 1.8
371(11) 0.00893 359.5 1.9
360(10) 0.00974 359.5 1.9
390(10) 0.00950 359.4 1.9
370(10) 0.00995 359.4 1.9
355(10) 0.00950 359.3 1.9
375(11) 0.00869 359.2 2.0
351(10) 0.01004 359.2 2.0
347(10) 0.01062 359.1 2.0
372(10) 0.00966 359.1 2.0
373(10) 0.00949 359.0 2.1
358(10) 0.00936 359.0 2.1
357(10) 0.01009 358.9 2.1
348(10) 0.01072 358.9 2.2
368(10) 0.00936 358.8 2.2
379(11) 0.00895 358.7 2.3
370(10) 0.00929 358.7 2.3
354(10) 0.01012 358.6 2.4
373(10) 0.00993 358.6 2.4
377(11) 0.00901 358.5 2.5
412(11) 0.00802 358.5 2.6
364(10) 0.00969 358.4 2.7
377(10) 0.00965 358.4 2.8
370(10) 0.01005 358.3 2.9
368(10) 0.00947 358.2 3.0
368(11) 0.00904 358.2 3.2
366(10) 0.00920 358.1 3.5
344(10) 0.01088 358.1 3.9
394(10) 0.00938 358.0 4.4
360(10) 0.00990 358.0 5.3
366(11) 0.00895 357.9 6.7
365(10) 0.00959 357.9 8.6
348(10) 0.01054 357.8 11.0
371(10) 0.00988 357.7 13.8
370(10) 0.00955 357.7 16.5
371(11) 0.00858 357.6 18.5
391(11) 0.00889 357.6 18.9
402(10) 0.00927 357.5 17.5
407(11) 0.00902 357.5 15.2
373(10) 0.00949 357.4 12.5
375(11) 0.00869 357.4 10.2
363(10) 0.00947 357.3 8.3
378(10) 0.00979 357.2 7.0
364(10) 0.01021 357.2 6.2
373(10) 0.00943 357.1 5.8
390(11) 0.00827 357.1 5.5
379(10) 0.00929 357.0 5.5
385(10) 0.00968 357.0 5.5
355(10) 0.01032 356.9 5.6
371(11) 0.00901 356.9 5.7
360(10) 0.00926 356.8 5.9
361(10) 0.00957 356.7 6.0
364(10) 0.01031 356.7 6.2
393(11) 0.00892 356.6 6.4
374(10) 0.00919 356.6 6.6
362(10) 0.00951 356.5 6.9
375(10) 0.00926 356.5 7.1
361(10) 0.01035 356.4 7.3
371(10) 0.00973 356.4 7.6
404(11) 0.00834 356.3 7.9
408(11) 0.00814 356.2 8.1
381(10) 0.00935 356.2 8.3
377(10) 0.00991 356.1 8.6
377(11) 0.00907 356.1 8.7
353(10) 0.00972 356.0 8.9
361(10) 0.00985 356.0 9.0
365(10) 0.00976 355.9 9.1
373(10) 0.00993 355.9 9.2
393(11) 0.00888 355.8 9.2
382(11) 0.00875 355.7 9.2
394(11) 0.00865 355.7 9.2
358(10) 0.01015 355.6 9.1
374(10) 0.00991 355.6 9.0
359(10) 0.00962 355.5 8.8
376(11) 0.00870 355.5 8.7
376(11) 0.00904 355.4 8.5
378(10) 0.00960 355.4 8.3
346(10) 0.01079 355.3 8.0
353(10) 0.00968 355.2 7.8
374(11) 0.00886 355.2 7.5
387(10) 0.00916 355.1 7.3
371(10) 0.00978 355.1 7.0
359(10) 0.01025 355.0 6.8
341(10) 0.01046 355.0 6.5
384(11) 0.00810 354.9 6.3
375(11) 0.00871 354.9 6.1
349(10) 0.01055 354.8 5.8
347(10) 0.01066 354.7 5.6
355(10) 0.00969 354.7 5.4
369(11) 0.00902 354.6 5.2
381(11) 0.00894 354.6 5.1
365(10) 0.01025 354.5 4.9
353(10) 0.01050 354.5 4.7
368(10) 0.00968 354.4 4.6
361(11) 0.00895 354.4 4.4
364(10) 0.00967 354.3 4.3
381(10) 0.00971 354.2 4.2
394(10) 0.00928 354.2 4.1
348(10) 0.00999 354.1 4.0
367(10) 0.00915 354.1 3.9
379(10) 0.00919 354.0 3.8
367(10) 0.01007 354.0 3.7
342(10) 0.01072 353.9 3.7
353(10) 0.00982 353.9 3.6
349(10) 0.00973 353.8 3.6
347(10) 0.00997 353.7 3.5
350(10) 0.01060 353.7 3.5
347(10) 0.01014 353.6 3.5
361(10) 0.00947 353.6 3.5
344(10) 0.01005 353.5 3.5
350(10) 0.00987 353.5 3.5
347(10) 0.01071 353.4 3.5
358(10) 0.00976 353.4 3.5
324(10) 0.01088 353.3 3.6
350(10) 0.00954 353.2 3.6
347(10) 0.01006 353.2 3.8
367(10) 0.01019 353.1 3.8
329(10) 0.01035 353.1 4.0
356(10) 0.00910 353.0 4.1
359(10) 0.00964 353.0 4.3
364(10) 0.00971 352.9 4.5
359(10) 0.01034 352.9 4.8
362(10) 0.00928 352.8 5.1
362(10) 0.00969 352.7 5.6
372(10) 0.00953 352.7 6.2
358(10) 0.01002 352.6 6.9
376(10) 0.01001 352.6 7.8
349(10) 0.01012 352.5 8.9
375(11) 0.00866 352.5 10.3
324(10) 0.01089 352.4 11.9
344(10) 0.01078 352.4 13.8
380(10) 0.00978 352.3 15.9
361(10) 0.00979 352.2 18.1
358(10) 0.00918 352.2 20.3
347(10) 0.01012 352.1 22.3
359(10) 0.01026 352.1 23.6
322(9) 0.01141 352.0 24.2
362(10) 0.00962 352.0 23.7
354(10) 0.00911 351.9 22.3
363(10) 0.00962 351.9 20.4
342(10) 0.01096 351.8 18.1
351(10) 0.01061 351.7 15.9
355(10) 0.00980 351.7 13.8
352(10) 0.00933 351.6 11.9
373(10) 0.00922 351.6 10.3
355(10) 0.01048 351.5 8.9
355(10) 0.01048 351.5 7.8
363(10) 0.00932 351.4 6.9
356(10) 0.00908 351.3 6.2
363(10) 0.00953 351.3 5.6
354(10) 0.01051 351.2 5.1
323(9) 0.01143 351.2 4.8
350(10) 0.00964 351.1 4.5
320(10) 0.01080 351.1 4.2
333(10) 0.01022 351.0 4.0
365(10) 0.01015 350.9 3.9
367(10) 0.00974 350.9 3.8
353(10) 0.00956 350.8 3.6
350(10) 0.00966 350.8 3.5
362(10) 0.00931 350.7 3.5
337(10) 0.01095 350.7 3.4
342(10) 0.01043 350.6 3.4
337(10) 0.01035 350.5 3.3
350(10) 0.01005 350.5 3.3
361(10) 0.00973 350.4 3.3
355(10) 0.01057 350.4 3.3
375(10) 0.00918 350.3 3.3
358(10) 0.00976 350.2 3.3
353(10) 0.00991 350.2 3.3
355(10) 0.01006 350.1 3.3
373(10) 0.00998 350.1 3.4
346(10) 0.00986 350.0 3.4
346(10) 0.00935 350.0 3.4
345(10) 0.00993 349.9 3.5
347(10) 0.01038 349.8 3.5
343(10) 0.01088 349.8 3.6
339(10) 0.00986 349.7 3.7
357(11) 0.00904 349.7 3.8
340(10) 0.01022 349.6 3.9
377(10) 0.00960 349.6 4.0
351(10) 0.01053 349.5 4.1
357(10) 0.00951 349.4 4.3
355(10) 0.00915 349.4 4.5
359(10) 0.00932 349.3 4.7
346(10) 0.01046 349.3 4.9
359(10) 0.01039 349.2 5.1
328(10) 0.01092 349.1 5.4
350(10) 0.00919 349.1 5.7
382(10) 0.00915 349.0 6.1
388(10) 0.00947 349.0 6.5
365(10) 0.01012 348.9 6.9
335(10) 0.01046 348.9 7.4
348(10) 0.00956 348.8 7.9
366(10) 0.00947 348.7 8.4
364(10) 0.01021 348.7 9.0
380(10) 0.00964 348.6 9.7
363(10) 0.00952 348.6 10.3
368(11) 0.00867 348.5 11.0
379(11) 0.00891 348.5 11.8
336(9) 0.01112 348.4 12.4
340(10) 0.01059 348.3 13.1
360(10) 0.00949 348.3 13.7
355(10) 0.00934 348.2 14.2
337(10) 0.01049 348.2 14.6
350(10) 0.01060 348.1 14.8
336(10) 0.01099 348.0 14.9
350(10) 0.00985 348.0 14.8
349(10) 0.00983 347.9 14.6
357(10) 0.01012 347.9 14.2
375(10) 0.00984 347.8 13.7
336(10) 0.01057 347.8 13.1
356(10) 0.00962 347.7 12.5
344(10) 0.00992 347.6 11.9
338(10) 0.01045 347.6 11.3
341(10) 0.01091 347.5 10.7
362(10) 0.00962 347.5 10.2
347(10) 0.01008 347.4 9.6
374(11) 0.00899 347.4 9.2
334(10) 0.01052 347.3 8.8
356(10) 0.01043 347.2 8.4
324(10) 0.01083 347.2 8.1
362(11) 0.00875 347.1 7.8
359(10) 0.00950 347.1 7.6
340(10) 0.01070 347.0 7.4
359(10) 0.01022 347.0 7.3
339(10) 0.01016 346.9 7.2
348(10) 0.00935 346.8 7.1
344(10) 0.01013 346.8 7.1
336(10) 0.01090 346.7 7.1
347(10) 0.01079 346.7 7.1
350(10) 0.00982 346.6 7.2
364(11) 0.00901 346.5 7.3
348(10) 0.01039 346.5 7.4
356(10) 0.01037 346.4 7.6
325(9) 0.01141 346.4 7.7
344(10) 0.01023 346.3 7.9
343(10) 0.00944 346.3 8.1
348(10) 0.01035 346.2 8.3
322(9) 0.01153 346.1 8.5
340(10) 0.01090 346.1 8.7
336(10) 0.01054 346.0 8.9
360(11) 0.00885 346.0 9.1
364(10) 0.00958 345.9 9.3
338(10) 0.01093 345.9 9.4
341(10) 0.01084 345.8 9.6
371(10) 0.00940 345.7 9.7
353(10) 0.00963 345.7 9.8
366(10) 0.00952 345.6 9.9
322(9) 0.01141 345.6 9.9
329(9) 0.01110 345.5 9.9
339(10) 0.01030 345.4 9.8
354(10) 0.00921 345.4 9.7
337(10) 0.01037 345.3 9.6
342(10) 0.01081 345.3 9.5
348(10) 0.01029 345.2 9.4
367(10) 0.00932 345.2 9.2
362(10) 0.00939 345.1 9.0
333(10) 0.01063 345.0 8.9
354(10) 0.01050 345.0 8.7
366(10) 0.00987 344.9 8.6
356(10) 0.01017 344.9 8.4
340(10) 0.01023 344.8 8.3
310(9) 0.01143 344.8 8.2
322(9) 0.01148 344.7 8.1
332(10) 0.01062 344.6 8.0
363(11) 0.00901 344.6 7.9
362(10) 0.00938 344.5 7.9
341(10) 0.01050 344.5 7.8
361(10) 0.01021 344.4 7.8
357(10) 0.00983 344.3 7.8
334(10) 0.00995 344.3 7.8
330(10) 0.01062 344.2 7.8
353(10) 0.01017 344.2 7.8
351(10) 0.01056 344.1 7.9
329(10) 0.01048 344.1 7.9
326(10) 0.01023 344.0 8.0
359(10) 0.00959 343.9 8.1
339(10) 0.01076 343.9 8.3
370(10) 0.00992 343.8 8.4
333(10) 0.01082 343.8 8.6
354(10) 0.00928 343.7 8.7
377(10) 0.00913 343.7 8.9
353(10) 0.01048 343.6 9.1
349(10) 0.01055 343.5 9.4
368(10) 0.00940 343.5 9.6
364(11) 0.00883 343.4 9.9
364(10) 0.00955 343.4 10.2
350(10) 0.01058 343.3 10.6
355(10) 0.01056 343.3 11.0
349(10) 0.00996 343.2 11.4
335(10) 0.00974 343.1 11.8
349(10) 0.01007 343.1 12.3
368(10) 0.01011 343.0 12.8
346(10) 0.01071 343.0 13.4
340(10) 0.01029 342.9 14.1
319(10) 0.01008 342.8 14.8
340(10) 0.01033 342.8 15.6
347(10) 0.01078 342.7 16.4
361(10) 0.00989 342.7 17.3
357(10) 0.00986 342.6 18.3
348(10) 0.00939 342.6 19.4
330(10) 0.01057 342.5 20.6
367(10) 0.00988 342.4 21.8
347(10) 0.01028 342.4 23.2
345(10) 0.00977 342.3 24.7
348(10) 0.00967 342.3 26.3
354(10) 0.00969 342.2 28.1
350(10) 0.01062 342.2 30.1
370(10) 0.00983 342.1 32.3
370(10) 0.00946 342.0 34.7
381(11) 0.00883 342.0 37.4
393(11) 0.00874 341.9 40.4
385(10) 0.00962 341.9 43.6
416(11) 0.00817 341.8 47.1
403(11) 0.00844 341.7 50.9
377(10) 0.00954 341.7 55.0
416(11) 0.00847 341.6 59.3
383(10) 0.00978 341.6 63.9
395(11) 0.00855 341.5 68.7
393(11) 0.00858 341.5 73.6
421(11) 0.00840 341.4 78.6
422(11) 0.00860 341.3 83.6
437(11) 0.00846 341.3 88.4
440(11) 0.00759 341.2 92.8
453(12) 0.00718 341.2 96.8
458(11) 0.00762 341.1 100.2
468(11) 0.00763 341.1 102.7
451(11) 0.00818 341.0 104.3
429(11) 0.00811 340.9 105.0
466(12) 0.00710 340.9 104.6
445(11) 0.00776 340.8 103.4
456(11) 0.00808 340.8 101.3
438(11) 0.00841 340.7 98.6
440(11) 0.00793 340.6 95.4
442(12) 0.00741 340.6 91.8
443(11) 0.00772 340.5 87.9
447(11) 0.00820 340.5 83.9
415(11) 0.00891 340.4 79.9
415(11) 0.00825 340.4 75.8
400(11) 0.00810 340.3 71.8
394(11) 0.00894 340.2 67.9
396(10) 0.00943 340.2 64.0
395(10) 0.00928 340.1 60.3
386(10) 0.00948 340.1 56.8
409(11) 0.00786 340.0 53.4
401(11) 0.00848 340.0 50.1
400(10) 0.00926 339.9 47.0
394(10) 0.00917 339.8 44.1
401(11) 0.00839 339.8 41.4
398(11) 0.00819 339.7 38.8
383(11) 0.00885 339.7 36.4
338(10) 0.01093 339.6 34.1
368(10) 0.00995 339.5 32.1
350(10) 0.00977 339.5 30.2
367(11) 0.00902 339.4 28.4
349(10) 0.00956 339.4 26.7
361(10) 0.01025 339.3 25.2
365(10) 0.00959 339.3 23.7
357(10) 0.00957 339.2 22.4
365(10) 0.00923 339.1 21.1
374(10) 0.00925 339.1 20.0
364(10) 0.01024 339.0 18.9
349(10) 0.01034 339.0 17.9
366(10) 0.00931 338.9 17.0
339(10) 0.01023 338.9 16.1
341(10) 0.01055 338.8 15.3
394(10) 0.00949 338.7 14.6
347(10) 0.01028 338.7 13.9
318(9) 0.01109 338.6 13.3
335(10) 0.01013 338.6 12.7
344(10) 0.01037 338.5 12.1
328(9) 0.01120 338.5 11.6
344(10) 0.00986 338.4 11.1
334(10) 0.00992 338.3 10.6
313(9) 0.01145 338.3 10.2
364(10) 0.01019 338.2 9.8
341(10) 0.01085 338.2 9.4
332(10) 0.01017 338.1 9.1
316(10) 0.01097 338.0 8.8
349(10) 0.00994 338.0 8.4
372(10) 0.01004 337.9 8.2
357(10) 0.01016 337.9 7.9
325(10) 0.01078 337.8 7.6
339(10) 0.00939 337.8 7.4
347(10) 0.01030 337.7 7.2
351(10) 0.01065 337.6 6.9
369(10) 0.00989 337.6 6.7
335(10) 0.01064 337.5 6.5
344(10) 0.00947 337.5 6.4
332(10) 0.01066 337.4 6.2
342(10) 0.01098 337.4 6.0
353(10) 0.01049 337.3 5.9
336(10) 0.01052 337.2 5.7
325(10) 0.00998 337.2 5.6
346(10) 0.01003 337.1 5.4
344(10) 0.01073 337.1 5.3
352(10) 0.01051 337.0 5.2
301(9) 0.01225 336.9 5.1
339(10) 0.00990 336.9 4.9
337(10) 0.01062 336.8 4.8
350(10) 0.01079 336.8 4.7
360(10) 0.00986 336.7 4.6
355(10) 0.00952 336.7 4.5
350(10) 0.00946 336.6 4.4
351(10) 0.00973 336.5 4.3
314(9) 0.01200 336.5 4.3
340(10) 0.01076 336.4 4.2
335(10) 0.00994 336.4 4.1
342(10) 0.00954 336.3 4.0
346(10) 0.01014 336.3 4.0
336(10) 0.01102 336.2 3.9
350(10) 0.01033 336.1 3.8
332(10) 0.01037 336.1 3.8
331(10) 0.01015 336.0 3.7
349(10) 0.01023 336.0 3.6
342(10) 0.01085 335.9 3.6
314(9) 0.01119 335.8 3.5
317(10) 0.01049 335.8 3.5
330(10) 0.01039 335.7 3.4
335(10) 0.01067 335.7 3.4
346(10) 0.01075 335.6 3.3
355(10) 0.01006 335.6 3.3
351(10) 0.00984 335.5 3.2
316(9) 0.01159 335.4 3.2
357(10) 0.01006 335.4 3.2
342(10) 0.01074 335.3 3.1
319(10) 0.01107 335.3 3.1
338(10) 0.00989 335.2 3.0
322(9) 0.01129 335.2 3.0
334(10) 0.01083 335.1 3.0
353(10) 0.01071 335.0 2.9
343(10) 0.01036 335.0 2.9
355(10) 0.00922 334.9 2.9
318(9) 0.01139 334.9 2.8
330(10) 0.01100 334.8 2.8
320(9) 0.01156 334.8 2.8
323(10) 0.01080 334.7 2.8
325(10) 0.01054 334.6 2.7
332(10) 0.01069 334.6 2.7
329(9) 0.01143 334.5 2.7
339(10) 0.01088 334.5 2.7
318(9) 0.01140 334.4 2.6
310(10) 0.01090 334.3 2.6
337(10) 0.01029 334.3 2.6
332(9) 0.01117 334.2 2.6
325(9) 0.01155 334.2 2.5
336(10) 0.01080 334.1 2.5
312(10) 0.01100 334.1 2.5
348(10) 0.00960 334.0 2.5
342(10) 0.01067 333.9 2.5
315(9) 0.01135 333.9 2.5
341(10) 0.00978 333.8 2.4
330(10) 0.00986 333.8 2.4
313(10) 0.01093 333.7 2.4
333(9) 0.01119 333.7 2.4
347(10) 0.01050 333.6 2.4
339(10) 0.01005 333.5 2.4
331(10) 0.01063 333.5 2.4
354(10) 0.00991 333.4 2.4
322(9) 0.01150 333.4 2.3
333(10) 0.01060 333.3 2.3
324(10) 0.01060 333.2 2.3
310(10) 0.01108 333.2 2.3
337(10) 0.01032 333.1 2.3
323(9) 0.01155 333.1 2.3
346(10) 0.00984 333.0 2.3
351(10) 0.00940 333.0 2.3
338(10) 0.01035 332.9 2.3
333(10) 0.01090 332.8 2.3
348(10) 0.01056 332.8 2.3
374(10) 0.00945 332.7 2.2
330(10) 0.01095 332.7 2.2
362(10) 0.00956 332.6 2.2
347(10) 0.01013 332.6 2.2
328(9) 0.01131 332.5 2.2
346(10) 0.01004 332.4 2.2
299(9) 0.01139 332.4 2.2
326(10) 0.01077 332.3 2.2
342(10) 0.01082 332.3 2.2
340(10) 0.01100 332.2 2.2
332(10) 0.01008 332.1 2.2
318(10) 0.01079 332.1 2.2
347(10) 0.00990 332.0 2.2
320(9) 0.01127 332.0 2.2
306(9) 0.01227 331.9 2.2
359(10) 0.00938 331.9 2.2
365(11) 0.00881 331.8 2.2
334(10) 0.01052 331.7 2.2
307(9) 0.01237 331.7 2.2
366(10) 0.00991 331.6 2.2
355(10) 0.00979 331.6 2.2
348(10) 0.00908 331.5 2.2
329(10) 0.01080 331.5 2.2
353(10) 0.01044 331.4 2.2
321(9) 0.01161 331.3 2.2
313(9) 0.01115 331.3 2.2
330(10) 0.01010 331.4 2.2
316(9) 0.01123 331.4 2.2
307(9) 0.01214 331.5 2.2
344(10) 0.01033 331.5 2.2
339(10) 0.01039 331.6 2.2
343(10) 0.00976 331.6 2.2
339(10) 0.00974 331.6 2.2
338(10) 0.01098 331.7 2.2
332(10) 0.01098 331.7 2.2
333(10) 0.01031 331.8 2.3
333(10) 0.00991 331.8 2.3
328(10) 0.01057 331.9 2.3
323(9) 0.01143 331.9 2.3
341(10) 0.01074 332.0 2.3
339(10) 0.01037 332.0 2.3
334(10) 0.00992 332.0 2.3
336(10) 0.01039 332.1 2.4
327(9) 0.01133 332.1 2.4
328(10) 0.01087 332.2 2.4
337(10) 0.00998 332.2 2.4
310(10) 0.01089 332.3 2.4
323(10) 0.01088 332.3 2.4
325(9) 0.01141 332.4 2.4
342(10) 0.01008 332.4 2.4
322(10) 0.01010 332.4 2.5
329(10) 0.01031 332.5 2.5
323(9) 0.01125 332.5 2.5
317(9) 0.01174 332.6 2.5
339(10) 0.01029 332.6 2.5
349(10) 0.00967 332.7 2.5
342(10) 0.00984 332.7 2.5
331(9) 0.01111 332.8 2.6
332(9) 0.01118 332.8 2.6
328(10) 0.01052 332.8 2.6
344(10) 0.00953 332.9 2.6
319(10) 0.01102 332.9 2.6
341(10) 0.01053 333.0 2.7
338(9) 0.01110 333.0 2.7
312(10) 0.01100 333.1 2.7
296(10) 0.01098 333.1 2.7
324(10) 0.01071 333.2 2.7
346(10) 0.01048 333.2 2.8
334(9) 0.01126 333.2 2.8
356(10) 0.00961 333.3 2.8
317(10) 0.01015 333.3 2.8
322(10) 0.01045 333.4 2.9
323(9) 0.01155 333.4 2.9
318(9) 0.01158 333.5 2.9
340(10) 0.00992 333.5 3.0
347(10) 0.00951 333.6 3.0
356(10) 0.00962 333.6 3.0
321(9) 0.01168 333.6 3.1
337(10) 0.01051 333.7 3.1
336(10) 0.01078 333.7 3.1
321(10) 0.01071 333.8 3.2
302(9) 0.01163 333.8 3.2
331(9) 0.01113 333.9 3.2
355(10) 0.01056 333.9 3.3
336(10) 0.01031 333.9 3.3
309(10) 0.01082 334.0 3.4
325(10) 0.01034 334.0 3.4
320(9) 0.01173 334.1 3.5
349(10) 0.01022 334.1 3.5
341(10) 0.01046 334.2 3.6
351(10) 0.00965 334.2 3.7
323(10) 0.01097 334.3 3.8
349(10) 0.01058 334.3 3.8
351(10) 0.01012 334.3 3.9
343(10) 0.01024 334.4 4.0
348(10) 0.01004 334.4 4.1
351(10) 0.01001 334.5 4.2
338(10) 0.01096 334.5 4.3
332(10) 0.01065 334.6 4.4
318(10) 0.01091 334.6 4.6
360(10) 0.00938 334.7 4.7
354(10) 0.00998 334.7 4.8
332(9) 0.01119 334.7 5.0
327(10) 0.01060 334.8 5.2
331(10) 0.01056 334.8 5.4
347(10) 0.00993 334.9 5.6
355(10) 0.01048 334.9 5.8
368(10) 0.00986 335.0 6.1
325(10) 0.01038 335.0 6.3
337(10) 0.00958 335.1 6.6
336(10) 0.01014 335.1 6.8
339(10) 0.01089 335.1 7.1
341(10) 0.01100 335.2 7.4
357(10) 0.00933 335.2 7.6
341(10) 0.00979 335.3 7.9
355(10) 0.01003 335.3 8.1
340(10) 0.01077 335.4 8.3
358(10) 0.01026 335.4 8.4
355(10) 0.00996 335.5 8.5
343(10) 0.00956 335.5 8.5
338(10) 0.01057 335.5 8.5
347(10) 0.01068 335.6 8.4
336(10) 0.01097 335.6 8.3
345(10) 0.00997 335.7 8.3
332(10) 0.00985 335.7 8.2
356(10) 0.00970 335.8 8.1
368(10) 0.01009 335.8 8.0
337(10) 0.01071 335.9 7.9
352(10) 0.00987 335.9 7.9
331(10) 0.01036 335.9 7.8
363(10) 0.00950 336.0 7.8
365(10) 0.01007 336.0 7.8
335(10) 0.01069 336.1 7.8
320(9) 0.01114 336.1 7.9
358(10) 0.00919 336.2 7.9
346(10) 0.01001 336.2 8.0
333(10) 0.01086 336.3 8.1
351(10) 0.01045 336.3 8.2
358(10) 0.00972 336.3 8.4
336(10) 0.01030 336.4 8.5
359(10) 0.00977 336.4 8.7
347(10) 0.01060 336.5 8.9
342(10) 0.01066 336.5 9.1
319(9) 0.01116 336.6 9.4
347(10) 0.00963 336.6 9.7
350(10) 0.01006 336.7 10.0
341(10) 0.01099 336.7 10.3
351(10) 0.00991 336.7 10.6
338(10) 0.01040 336.8 11.0
344(10) 0.00993 336.8 11.5
365(10) 0.00992 336.9 11.9
314(9) 0.01193 336.9 12.4
338(10) 0.01018 337.0 12.9
343(10) 0.01002 337.0 13.5
335(10) 0.01006 337.1 14.1
352(10) 0.01014 337.1 14.8
343(10) 0.01092 337.1 15.5
354(10) 0.00972 337.2 16.3
337(10) 0.01021 337.2 17.3
386(11) 0.00845 337.3 18.3
330(9) 0.01148 337.3 19.4
361(10) 0.01002 337.4 20.6
346(10) 0.00983 337.4 22.0
366(11) 0.00904 337.5 23.6
370(10) 0.00931 337.5 25.4
364(10) 0.01006 337.5 27.4
371(10) 0.01019 337.6 29.7
391(11) 0.00902 337.6 32.4
392(11) 0.00858 337.7 35.6
417(11) 0.00804 337.7 39.2
371(10) 0.01008 337.8 43.6
422(11) 0.00871 337.8 48.8
457(12) 0.00754 337.9 55.2
444(12) 0.00731 337.9 63.4
464(12) 0.00731 337.9 74.4
460(11) 0.00802 338.0 90.0
513(12) 0.00721 338.0 113.4
548(12) 0.00645 338.1 149.1
589(14) 0.00546 338.1 203.7
675(14) 0.00494 338.2 284.2
743(14) 0.00500 338.2 396.8
852(15) 0.00432 338.3 543.7
1011(17) 0.003471 338.3 718.0
1250(19) 0.002637 338.3 901.0
1486(21) 0.002275 338.4 1054.8
1658(21) 0.002232 338.4 1128.7
1654(21) 0.002184 338.5 1090.0
1407(20) 0.002448 338.5 957.0
1110(18) 0.003012 338.6 778.8
836(15) 0.00421 338.6 599.5
729(14) 0.00510 338.7 443.5
606(13) 0.00581 338.7 320.3
530(13) 0.00635 338.7 230.7
481(12) 0.00701 338.8 169.2
463(11) 0.00762 338.8 128.9
469(11) 0.00793 338.9 102.9
453(11) 0.00778 338.9 86.0
434(11) 0.00773 339.0 74.5
396(11) 0.00852 339.0 66.4
413(11) 0.00846 339.1 60.3
422(11) 0.00887 339.1 55.6
385(11) 0.00903 339.1 52.0
404(11) 0.00829 339.2 49.1
390(11) 0.00888 339.2 46.9
405(11) 0.00848 339.3 45.2
399(10) 0.00935 339.3 44.0
402(11) 0.00854 339.4 43.1
373(10) 0.00935 339.4 42.7
361(10) 0.01004 339.5 42.6
383(10) 0.00945 339.5 42.8
374(10) 0.00996 339.5 43.3
373(10) 0.00910 339.6 44.1
389(11) 0.00840 339.6 45.2
396(11) 0.00888 339.7 46.6
390(10) 0.00936 339.7 48.4
361(10) 0.01033 339.8 50.6
379(10) 0.00937 339.8 53.2
384(11) 0.00831 339.9 56.2
390(11) 0.00878 339.9 59.8
396(10) 0.00929 339.9 64.1
379(10) 0.00976 340.0 69.3
421(11) 0.00826 340.0 75.4
427(12) 0.00750 340.1 82.9
452(11) 0.00762 340.1 92.0
434(11) 0.00854 340.2 103.3
440(11) 0.00844 340.2 117.1
472(12) 0.00730 340.3 134.3
468(12) 0.00700 340.3 155.5
475(12) 0.00731 340.3 181.4
509(12) 0.00732 340.4 212.9
553(12) 0.00661 340.4 250.6
604(13) 0.00564 340.5 295.0
604(13) 0.00552 340.5 346.2
699(14) 0.00495 340.6 403.9
802(15) 0.00459 340.6 466.5
869(15) 0.00417 340.6 531.1
1009(17) 0.003423 340.7 593.0
1003(17) 0.003392 340.7 645.0
1024(17) 0.003389 340.8 679.2
1023(17) 0.00363 340.8 689.2
967(16) 0.00373 340.9 672.8
909(16) 0.00375 340.9 633.5
893(16) 0.00378 341.0 578.4
804(15) 0.00438 341.0 515.3
704(14) 0.00533 341.0 450.9
700(14) 0.00490 341.1 389.5
630(13) 0.00550 341.1 333.4
637(14) 0.00549 341.2 283.9
599(13) 0.00602 341.2 241.3
524(12) 0.00710 341.3 205.4
524(12) 0.00675 341.3 175.6
502(12) 0.00672 341.4 151.2
467(12) 0.00752 341.4 131.4
488(12) 0.00742 341.4 115.6
469(11) 0.00792 341.5 102.9
436(11) 0.00786 341.5 93.0
455(12) 0.00720 341.6 85.2
419(11) 0.00841 341.6 79.2
434(11) 0.00818 341.7 74.9
413(11) 0.00906 341.7 72.3
436(11) 0.00787 341.8 71.9
431(11) 0.00777 341.8 74.8
434(11) 0.00808 341.8 83.2
455(11) 0.00818 341.9 100.3
465(11) 0.00800 341.9 130.0
515(12) 0.00673 342.0 175.2
545(13) 0.00587 342.0 235.4
654(14) 0.00515 342.1 303.9
731(14) 0.00505 342.1 366.0
842(15) 0.00441 342.2 398.8
811(15) 0.00424 342.2 385.5
736(15) 0.00423 342.2 332.0
608(13) 0.00586 342.3 261.2
557(12) 0.00668 342.3 192.2
477(11) 0.00772 342.4 135.7
456(11) 0.00768 342.4 94.8
438(12) 0.00731 342.5 67.9
402(11) 0.00897 342.5 51.5
389(10) 0.00954 342.6 41.6
365(10) 0.01026 342.6 35.6
398(11) 0.00864 342.6 31.6
430(12) 0.00738 342.7 28.6
379(10) 0.00919 342.7 26.3
345(10) 0.01080 342.8 24.4
394(10) 0.00926 342.8 22.8
365(10) 0.00968 342.9 21.4
364(10) 0.00921 342.9 20.2
367(10) 0.00943 343.0 19.2
376(10) 0.00990 343.0 18.3
359(10) 0.01013 343.0 17.4
353(10) 0.00994 343.1 16.7
369(10) 0.00928 343.1 16.0
344(10) 0.01013 343.2 15.4
374(10) 0.00989 343.2 14.9
329(10) 0.01102 343.3 14.4
357(10) 0.00964 343.3 13.9
363(10) 0.00931 343.4 13.5
328(9) 0.01122 343.4 13.1
345(10) 0.01085 343.4 12.8
356(10) 0.00987 343.5 12.4
337(10) 0.00995 343.5 12.1
341(10) 0.00963 343.6 11.9
352(10) 0.01023 343.6 11.6
379(10) 0.00976 343.7 11.4
351(10) 0.01005 343.7 11.1
369(10) 0.00915 343.8 10.9
351(10) 0.00968 343.8 10.8
342(10) 0.01046 343.8 10.6
333(9) 0.01131 343.9 10.4
356(10) 0.00961 343.9 10.3
344(10) 0.00967 344.0 10.1
385(11) 0.00902 344.0 10.0
351(10) 0.01065 344.1 9.9
323(9) 0.01154 344.1 9.8
317(10) 0.01105 344.2 9.7
335(10) 0.00963 344.2 9.6
342(10) 0.00986 344.2 9.5
355(10) 0.01037 344.3 9.5
337(9) 0.01110 344.3 9.4
348(10) 0.01006 344.4 9.3
383(11) 0.00834 344.4 9.3
356(10) 0.00960 344.5 9.3
335(9) 0.01109 344.5 9.2
356(10) 0.01026 344.6 9.2
328(10) 0.01068 344.6 9.2
344(10) 0.00937 344.6 9.2
371(10) 0.00932 344.7 9.2
367(10) 0.01001 344.7 9.2
350(10) 0.01053 344.8 9.2
350(10) 0.00984 344.8 9.2
355(10) 0.00972 344.9 9.3
335(10) 0.01049 344.9 9.3
372(10) 0.00993 345.0 9.3
352(10) 0.01058 345.0 9.4
352(10) 0.00968 345.0 9.4
348(10) 0.00968 345.1 9.5
362(10) 0.00976 345.1 9.6
372(10) 0.00993 345.2 9.7
332(10) 0.01081 345.2 9.8
360(10) 0.00924 345.3 9.9
329(10) 0.01056 345.3 10.0
364(10) 0.00950 345.4 10.1
356(10) 0.01048 345.4 10.3
346(10) 0.01022 345.4 10.4
346(10) 0.01002 345.5 10.6
348(10) 0.00980 345.5 10.7
329(10) 0.01059 345.6 10.9
327(9) 0.01129 345.6 11.1
359(10) 0.00982 345.7 11.3
376(11) 0.00901 345.7 11.5
375(10) 0.00924 345.7 11.8
340(10) 0.01068 345.8 12.0
347(10) 0.01061 345.8 12.3
339(10) 0.01044 345.8 12.6
333(10) 0.01061 345.8 12.9
363(10) 0.00936 345.9 13.2
363(10) 0.00987 345.9 13.5
353(10) 0.01054 345.9 13.9
346(10) 0.00985 345.9 14.3
357(10) 0.00921 346.0 14.7
344(10) 0.00985 346.0 15.1
334(10) 0.01074 346.0 15.6
348(10) 0.01071 346.0 16.0
341(10) 0.01013 346.0 16.5
335(10) 0.00994 346.1 17.0
347(10) 0.01033 346.1 17.6
350(10) 0.01062 346.1 18.1
347(10) 0.01051 346.1 18.7
364(10) 0.00943 346.2 19.4
341(10) 0.00943 346.2 20.0
366(10) 0.00920 346.2 20.7
355(10) 0.01043 346.2 21.4
363(10) 0.01030 346.3 22.1
376(10) 0.00947 346.3 22.8
365(11) 0.00884 346.3 23.6
342(10) 0.01043 346.3 24.4
346(10) 0.01084 346.4 25.2
360(10) 0.01042 346.4 26.0
378(11) 0.00902 346.4 26.9
382(11) 0.00815 346.4 27.7
379(10) 0.00936 346.5 28.6
370(10) 0.01002 346.5 29.5
341(10) 0.01090 346.5 30.3
365(10) 0.00964 346.5 31.2
374(11) 0.00863 346.5 32.0
352(10) 0.00965 346.6 32.8
380(10) 0.00983 346.6 33.6
363(10) 0.00999 346.6 34.4
362(10) 0.00959 346.6 35.1
367(11) 0.00907 346.7 35.8
394(11) 0.00868 346.7 36.4
372(10) 0.00989 346.7 37.0
348(10) 0.01053 346.7 37.5
349(10) 0.01007 346.8 37.9
358(10) 0.00955 346.8 38.2
364(10) 0.00954 346.8 38.5
377(10) 0.00996 346.8 38.8
383(10) 0.00935 346.9 38.9
365(10) 0.00927 346.9 39.1
339(10) 0.01002 346.9 39.1
345(10) 0.01057 346.9 39.2
343(10) 0.01085 346.9 39.2
366(10) 0.00956 347.0 39.2
375(10) 0.00913 347.0 39.3
401(11) 0.00851 347.0 39.4
395(10) 0.00913 347.0 39.5
377(10) 0.00981 347.1 39.8
377(11) 0.00892 347.1 40.2
367(10) 0.00912 347.1 40.7
395(11) 0.00863 347.1 41.4
375(10) 0.00988 347.2 42.3
400(10) 0.00925 347.2 43.5
382(11) 0.00901 347.2 44.9
382(11) 0.00879 347.2 46.6
376(10) 0.00912 347.3 48.7
414(11) 0.00876 347.3 51.1
391(10) 0.00957 347.3 53.8
407(11) 0.00873 347.3 56.8
420(11) 0.00782 347.4 60.1
388(11) 0.00893 347.4 63.6
408(10) 0.00926 347.4 67.0
423(11) 0.00867 347.4 70.3
427(11) 0.00799 347.4 73.2
428(12) 0.00728 347.5 75.2
434(11) 0.00787 347.5 76.3
434(11) 0.00863 347.5 76.3
419(11) 0.00881 347.5 75.1
463(12) 0.00752 347.6 72.9
456(12) 0.00730 347.6 69.9
429(11) 0.00801 347.6 66.4
428(11) 0.00865 347.6 62.7
393(10) 0.00941 347.7 59.0
379(10) 0.00914 347.7 55.5
405(11) 0.00781 347.7 52.2
400(11) 0.00859 347.7 49.3
397(10) 0.00947 347.8 46.8
407(11) 0.00894 347.8 44.7
397(11) 0.00897 347.8 43.0
416(11) 0.00822 347.8 41.6
382(11) 0.00868 347.8 40.6
403(10) 0.00923 347.9 40.0
410(11) 0.00866 347.9 39.8
375(10) 0.00939 347.9 39.9
395(11) 0.00840 347.9 40.4
371(10) 0.00943 348.0 41.2
395(10) 0.00940 348.0 42.5
416(11) 0.00858 348.0 44.2
414(11) 0.00848 348.0 46.3
426(11) 0.00796 348.1 49.0
423(11) 0.00822 348.1 52.3
421(11) 0.00885 348.1 56.3
416(11) 0.00845 348.1 61.1
460(12) 0.00712 348.2 66.7
446(11) 0.00768 348.2 73.3
459(11) 0.00781 348.2 81.1
434(11) 0.00856 348.2 90.0
482(12) 0.00721 348.2 100.1
487(12) 0.00689 348.3 111.6
484(12) 0.00713 348.3 124.4
486(12) 0.00740 348.3 138.5
524(12) 0.00706 348.3 153.6
537(12) 0.00652 348.4 169.5
536(13) 0.00624 348.4 185.6
559(13) 0.00622 348.4 201.1
570(13) 0.00637 348.4 214.9
593(13) 0.00627 348.5 225.9
612(13) 0.00572 348.5 232.9
615(14) 0.00532 348.5 235.1
602(13) 0.00587 348.5 232.2
614(13) 0.00605 348.6 224.5
631(13) 0.00590 348.6 212.9
590(13) 0.00587 348.6 198.6
537(13) 0.00598 348.6 182.9
539(12) 0.00652 348.7 166.7
485(11) 0.00775 348.7 150.8
502(12) 0.00740 348.7 135.6
450(11) 0.00775 348.7 121.6
451(12) 0.00714 348.7 108.8
440(11) 0.00793 348.8 97.3
425(11) 0.00879 348.8 87.2
424(11) 0.00882 348.8 78.3
403(11) 0.00884 348.8 70.5
396(11) 0.00837 348.9 63.8
411(11) 0.00837 348.9 58.1
389(10) 0.00957 348.9 53.2
378(10) 0.00957 348.9 49.0
375(10) 0.00949 349.0 45.5
392(11) 0.00866 349.0 42.5
387(11) 0.00890 349.0 39.9
370(10) 0.01008 349.0 37.8
401(11) 0.00893 349.1 36.0
372(10) 0.00907 349.1 34.6
368(11) 0.00898 349.1 33.3
370(10) 0.00931 349.1 32.3
419(11) 0.00873 349.1 31.5
386(10) 0.00948 349.2 30.9
368(10) 0.00914 349.2 30.5
360(10) 0.00933 349.2 30.2
387(11) 0.00906 349.2 30.1
383(10) 0.00972 349.3 30.2
382(11) 0.00902 349.3 30.4
379(11) 0.00887 349.3 30.8
391(11) 0.00869 349.3 31.4
347(10) 0.01041 349.4 32.2
368(10) 0.01011 349.4 33.2
399(11) 0.00846 349.4 34.6
375(10) 0.00943 349.4 36.2
400(11) 0.00886 349.5 38.3
356(10) 0.01020 349.5 40.9
377(10) 0.00994 349.5 44.3
409(11) 0.00853 349.5 48.7
418(11) 0.00790 349.6 54.6
409(11) 0.00855 349.6 62.3
426(11) 0.00861 349.6 72.3
439(11) 0.00828 349.6 85.1
422(11) 0.00821 349.6 101.4
429(12) 0.00756 349.7 122.7
495(12) 0.00669 349.7 151.2
534(12) 0.00693 349.7 191.1
584(13) 0.00627 349.7 246.0
657(14) 0.00536 349.8 318.3
810(16) 0.00388 349.8 407.6
939(16) 0.00375 349.8 508.8
1105(17) 0.003323 349.8 610.7
1318(19) 0.002802 349.9 692.4
1378(20) 0.002498 349.9 729.2
1290(20) 0.002477 349.9 706.5
1125(18) 0.003150 349.9 633.3
968(16) 0.00379 350.0 533.4
852(15) 0.00430 350.0 429.4
767(15) 0.00446 350.0 334.6
697(15) 0.00469 350.0 255.3
647(14) 0.00533 350.0 193.2
528(12) 0.00704 350.1 146.9
539(12) 0.00674 350.1 113.9
485(12) 0.00733 350.1 90.8
479(12) 0.00688 350.1 74.7
447(11) 0.00780 350.2 63.4
429(11) 0.00869 350.2 55.2
446(11) 0.00815 350.2 49.0
433(11) 0.00788 350.2 44.2
410(11) 0.00832 350.3 40.3
416(11) 0.00823 350.3 37.0
420(11) 0.00885 350.3 34.3
419(11) 0.00852 350.3 32.0
379(10) 0.00919 350.4 30.0
390(11) 0.00871 350.4 28.4
404(11) 0.00870 350.4 26.9
391(10) 0.00957 350.4 25.7
397(11) 0.00863 350.4 24.6
365(10) 0.00958 350.5 23.7
394(11) 0.00880 350.5 23.0
376(10) 0.00968 350.5 22.3
365(10) 0.01028 350.5 21.8
394(11) 0.00872 350.6 21.3
385(11) 0.00899 350.6 21.0
374(10) 0.00958 350.6 20.7
405(11) 0.00904 350.6 20.5
410(11) 0.00905 350.7 20.4
361(10) 0.00940 350.7 20.3
355(10) 0.00936 350.7 20.3
380(10) 0.00913 350.7 20.4
346(10) 0.01054 350.8 20.6
384(10) 0.00969 350.8 20.8
408(11) 0.00858 350.8 21.1
367(11) 0.00897 350.8 21.5
383(11) 0.00864 350.9 22.0
384(10) 0.00950 350.9 22.6
389(10) 0.00946 350.9 23.2
378(10) 0.00946 350.9 24.0
380(11) 0.00883 350.9 25.0
363(10) 0.00995 351.0 26.0
414(11) 0.00895 351.0 27.3
389(10) 0.00961 351.0 28.7
401(11) 0.00848 351.0 30.3
412(11) 0.00803 351.1 32.3
418(11) 0.00843 351.1 34.5
397(10) 0.00934 351.1 37.2
414(11) 0.00886 351.1 40.5
434(11) 0.00803 351.2 44.4
405(11) 0.00836 351.2 49.4
430(11) 0.00813 351.2 55.7
448(11) 0.00840 351.2 63.8
463(11) 0.00781 351.3 74.2
508(12) 0.00680 351.3 87.8
507(12) 0.00653 351.3 105.1
515(12) 0.00671 351.3 127.1
555(12) 0.00670 351.3 154.2
585(13) 0.00629 351.4 186.8
585(13) 0.00597 351.4 224.9
652(14) 0.00508 351.4 267.4
728(15) 0.00473 351.4 312.0
765(14) 0.00484 351.5 354.5
835(15) 0.00427 351.5 388.4
880(16) 0.00388 351.5 406.6
868(16) 0.00384 351.5 404.5
841(16) 0.00408 351.6 382.5
786(15) 0.00472 351.6 346.4
665(14) 0.00519 351.6 303.2
617(14) 0.00532 351.6 259.0
574(13) 0.00584 351.7 217.5
505(12) 0.00719 351.7 180.8
486(11) 0.00759 351.7 149.6
484(12) 0.00703 351.7 123.9
446(11) 0.00776 351.8 103.3
428(11) 0.00805 351.8 87.1
404(11) 0.00893 351.8 74.6
434(11) 0.00852 351.8 65.0
429(11) 0.00781 351.8 57.7
409(11) 0.00829 351.9 52.2
423(11) 0.00818 351.9 47.9
400(10) 0.00917 351.9 44.6
416(11) 0.00899 351.9 42.0
383(10) 0.00923 352.0 40.0
403(11) 0.00833 352.0 38.4
411(11) 0.00858 352.0 37.2
387(10) 0.00960 352.0 36.4
378(10) 0.00986 352.1 35.9
377(10) 0.00920 352.1 35.6
348(10) 0.00946 352.1 35.7
409(11) 0.00847 352.1 36.0
403(10) 0.00919 352.2 36.6
396(10) 0.00933 352.2 37.5
374(10) 0.00917 352.2 38.8
416(11) 0.00762 352.2 40.5
399(11) 0.00902 352.2 42.7
383(10) 0.00980 352.3 45.5
383(10) 0.00971 352.3 49.1
406(11) 0.00848 352.3 53.9
416(11) 0.00783 352.3 60.5
405(11) 0.00874 352.4 69.5
417(11) 0.00888 352.4 82.2
422(11) 0.00878 352.4 100.2
473(12) 0.00743 352.4 125.4
482(12) 0.00680 352.5 159.5
530(12) 0.00647 352.5 204.1
583(13) 0.00633 352.5 259.8
622(13) 0.00583 352.5 325.1
707(14) 0.00497 352.6 395.7
817(16) 0.00405 352.6 462.0
926(17) 0.00356 352.6 509.2
881(15) 0.00421 352.6 522.2
837(16) 0.00416 352.6 495.9
743(15) 0.00454 352.7 439.9
679(14) 0.00504 352.7 370.5
650(14) 0.00548 352.7 300.6
564(12) 0.00662 352.7 237.9
512(12) 0.00683 352.8 185.7
488(12) 0.00696 352.8 144.4
446(11) 0.00762 352.8 113.2
449(11) 0.00784 352.8 90.4
431(11) 0.00869 352.9 74.0
443(11) 0.00774 352.9 62.3
416(11) 0.00850 352.9 53.8
412(11) 0.00853 352.9 47.5
418(11) 0.00856 353.0 42.7
373(10) 0.00993 353.0 38.9
429(11) 0.00781 353.0 35.8
407(11) 0.00859 353.0 33.3
393(11) 0.00884 353.1 31.1
407(11) 0.00880 353.1 29.3
378(10) 0.00977 353.1 27.8
385(11) 0.00899 353.1 26.4
378(11) 0.00829 353.1 25.3
356(10) 0.00922 353.2 24.4
358(10) 0.01020 353.2 23.7
395(10) 0.00945 353.2 23.1
400(11) 0.00881 353.2 22.6
391(11) 0.00823 353.3 22.3
360(10) 0.01012 353.3 22.2
391(10) 0.00939 353.3 22.3
362(10) 0.01019 353.3 22.9
399(11) 0.00827 353.4 24.0
392(11) 0.00811 353.4 26.3
377(10) 0.00926 353.4 30.1
403(10) 0.00933 353.4 36.2
415(11) 0.00875 353.5 44.9
429(11) 0.00806 353.5 56.3
441(12) 0.00728 353.5 69.2
467(12) 0.00741 353.5 81.3
476(11) 0.00769 353.5 88.7
464(11) 0.00802 353.6 88.1
454(11) 0.00774 353.6 79.7
427(11) 0.00803 353.6 67.1
427(11) 0.00825 353.6 54.0
391(10) 0.00949 353.7 42.7
393(10) 0.00942 353.7 34.0
380(10) 0.00924 353.7 28.0
398(11) 0.00838 353.7 24.1
389(11) 0.00865 353.8 21.7
392(10) 0.00958 353.8 20.2
390(10) 0.00914 353.8 19.4
363(10) 0.00957 353.8 18.8
393(11) 0.00851 353.9 18.4
367(10) 0.00945 353.9 18.2
369(10) 0.01012 353.9 18.0
382(10) 0.00930 353.9 17.9
369(10) 0.00942 354.0 17.9
373(10) 0.00919 354.0 17.9
357(10) 0.00984 354.0 18.0
365(10) 0.01021 354.0 18.0
353(10) 0.00999 354.0 18.2
387(11) 0.00863 354.1 18.3
361(10) 0.00924 354.1 18.5
358(10) 0.01008 354.1 18.7
359(10) 0.01039 354.1 18.9
365(10) 0.00967 354.2 19.1
366(10) 0.00915 354.2 19.4
345(10) 0.00984 354.2 19.7
376(10) 0.00944 354.2 20.0
375(10) 0.01002 354.3 20.4
374(10) 0.00921 354.3 20.7
363(10) 0.00921 354.3 21.1
347(10) 0.01044 354.3 21.5
387(10) 0.00957 354.4 22.0
388(10) 0.00952 354.4 22.4
352(10) 0.01012 354.4 22.9
371(11) 0.00875 354.3 23.5
353(10) 0.00961 354.3 24.0
358(10) 0.01007 354.3 24.6
379(10) 0.00976 354.3 25.3
353(10) 0.00985 354.2 25.9
386(11) 0.00827 354.2 26.6
389(11) 0.00898 354.2 27.4
383(10) 0.00966 354.1 28.2
372(10) 0.01000 354.1 29.0
374(10) 0.00926 354.1 29.9
377(11) 0.00843 354.1 30.8
392(10) 0.00908 354.0 31.8
385(10) 0.00978 354.0 32.9
361(10) 0.01013 354.0 34.0
398(11) 0.00870 354.0 35.2
365(11) 0.00898 353.9 36.4
392(11) 0.00847 353.9 37.8
387(10) 0.00962 353.9 39.2
377(10) 0.00974 353.9 40.7
384(11) 0.00898 353.8 42.4
393(11) 0.00833 353.8 44.1
378(10) 0.00907 353.8 46.0
400(10) 0.00931 353.8 48.0
405(11) 0.00884 353.7 50.1
416(11) 0.00809 353.7 52.5
412(11) 0.00826 353.7 55.0
396(11) 0.00892 353.6 57.7
407(10) 0.00909 353.6 60.6
397(11) 0.00896 353.6 63.9
386(11) 0.00888 353.6 67.4
390(11) 0.00868 353.5 71.2
435(11) 0.00811 353.5 75.5
410(11) 0.00905 353.5 80.2
452(11) 0.00765 353.5 85.4
438(11) 0.00763 353.4 91.1
462(12) 0.00729 353.4 97.6
438(11) 0.00811 353.4 104.8
447(11) 0.00831 353.4 112.8
452(11) 0.00781 353.3 121.8
477(12) 0.00704 353.3 132.0
468(12) 0.00746 353.3 143.3
507(12) 0.00701 353.3 156.0
486(11) 0.00775 353.2 170.3
504(12) 0.00668 353.2 186.1
525(12) 0.00641 353.2 203.8
571(13) 0.00611 353.1 223.5
574(13) 0.00634 353.1 245.2
572(12) 0.00646 353.1 269.0
586(13) 0.00589 353.1 295.1
639(14) 0.00505 353.0 323.5
658(14) 0.00529 353.0 354.1
726(14) 0.00501 353.0 386.7
752(14) 0.00496 353.0 421.1
786(15) 0.00442 352.9 456.7
847(16) 0.00384 352.9 492.9
880(16) 0.00401 352.9 528.7
987(16) 0.00372 352.9 562.9
1023(17) 0.00362 352.8 594.0
1024(17) 0.003477 352.8 620.2
1015(17) 0.003267 352.8 640.1
1005(17) 0.003401 352.8 652.2
998(16) 0.00371 352.7 655.6
960(16) 0.00379 352.7 650.1
923(16) 0.00372 352.7 636.1
866(16) 0.00382 352.7 614.6
894(16) 0.00382 352.6 587.1
861(15) 0.00431 352.6 555.4
826(15) 0.00440 352.6 520.9
775(15) 0.00458 352.5 485.2
735(15) 0.00454 352.5 449.4
684(14) 0.00504 352.5 414.4
680(14) 0.00543 352.5 380.8
684(14) 0.00526 352.4 349.1
702(14) 0.00478 352.4 319.5
646(14) 0.00530 352.4 292.1
617(13) 0.00558 352.4 267.0
595(13) 0.00625 352.3 244.2
579(13) 0.00620 352.3 223.5
559(13) 0.00633 352.3 204.9
530(12) 0.00654 352.3 188.2
521(12) 0.00655 352.2 173.2
524(12) 0.00713 352.2 160.0
515(12) 0.00703 352.2 148.2
515(12) 0.00667 352.2 137.8
500(12) 0.00673 352.1 128.6
498(12) 0.00699 352.1 120.5
479(11) 0.00777 352.1 113.4
474(12) 0.00754 352.0 107.1
467(12) 0.00721 352.0 101.6
419(11) 0.00825 352.0 96.9
455(11) 0.00790 352.0 92.7
466(11) 0.00796 351.9 89.1
453(11) 0.00773 351.9 85.9
441(11) 0.00762 351.9 83.3
457(11) 0.00761 351.9 81.0
425(11) 0.00872 351.8 79.2
464(11) 0.00802 351.8 77.7
445(11) 0.00787 351.8 76.7
460(12) 0.00712 351.8 76.0
456(11) 0.00779 351.7 75.8
448(11) 0.00819 351.7 76.1
431(11) 0.00857 351.7 76.8
460(11) 0.00768 351.7 78.2
450(12) 0.00740 351.6 80.2
459(11) 0.00760 351.6 82.9
446(11) 0.00838 351.6 86.4
453(11) 0.00824 351.5 90.6
453(12) 0.00750 351.5 95.6
490(12) 0.00657 351.5 101.1
465(12) 0.00756 351.5 107.0
454(11) 0.00817 351.4 112.8
474(11) 0.00758 351.4 117.9
476(12) 0.00728 351.4 121.6
503(12) 0.00644 351.4 123.2
506(12) 0.00661 351.3 122.9
499(12) 0.00745 351.3 121.0
492(12) 0.00750 351.3 118.3
486(12) 0.00710 351.3 115.5
479(12) 0.00706 351.2 113.2
491(12) 0.00720 351.2 111.9
471(11) 0.00783 351.2 111.8
458(11) 0.00791 351.2 112.9
462(11) 0.00767 351.1 115.3
448(11) 0.00795 351.1 119.1
474(12) 0.00744 351.1 124.0
466(11) 0.00795 351.0 130.0
469(11) 0.00772 351.0 136.6
489(12) 0.00693 351.0 143.5
471(12) 0.00730 351.0 150.0
507(12) 0.00693 350.9 155.5
516(12) 0.00719 350.9 159.0
503(12) 0.00702 350.9 160.0
497(12) 0.00689 350.9 158.1
521(12) 0.00640 350.8 153.5
517(12) 0.00691 350.8 146.7
463(11) 0.00798 350.8 138.4
483(12) 0.00717 350.8 129.3
462(12) 0.00741 350.7 120.0
455(12) 0.00746 350.7 111.0
426(11) 0.00832 350.7 102.5
442(11) 0.00847 350.7 94.7
444(11) 0.00779 350.6 87.5
429(11) 0.00775 350.6 81.1
421(11) 0.00811 350.6 75.4
428(11) 0.00839 350.5 70.4
392(10) 0.00951 350.5 65.8
406(11) 0.00860 350.5 61.8
427(12) 0.00753 350.5 58.2
414(11) 0.00821 350.4 54.9
403(10) 0.00917 350.4 51.9
416(11) 0.00887 350.4 49.2
401(11) 0.00863 350.4 46.7
398(11) 0.00814 350.3 44.4
384(10) 0.00934 350.3 42.2
420(11) 0.00883 350.3 40.2
413(11) 0.00897 350.3 38.3
388(10) 0.00928 350.2 36.5
395(11) 0.00837 350.2 34.9
410(11) 0.00843 350.2 33.3
385(10) 0.00964 350.2 31.8
385(10) 0.00945 350.1 30.5
372(10) 0.00908 350.1 29.2
365(10) 0.00908 350.1 27.9
355(10) 0.00993 350.1 26.8
371(10) 0.01005 350.0 25.7
422(11) 0.00851 350.0 24.7
381(10) 0.00928 350.0 23.8
360(10) 0.00915 349.9 22.9
367(10) 0.00926 349.9 22.1
361(10) 0.01023 349.9 21.3
394(10) 0.00919 349.9 20.6
369(10) 0.00919 349.8 19.9
374(11) 0.00858 349.8 19.2
382(11) 0.00904 349.8 18.7
397(10) 0.00939 349.8 18.1
376(10) 0.00968 349.7 17.6
372(10) 0.00932 349.7 17.1
382(11) 0.00863 349.7 16.6
358(10) 0.00975 349.7 16.2
364(10) 0.01027 349.6 15.8
335(10) 0.01085 349.6 15.4
347(10) 0.00975 349.6 15.0
368(10) 0.00925 349.6 14.7
379(10) 0.00913 349.5 14.4
376(10) 0.00990 349.5 14.1
380(10) 0.00911 349.5 13.8
361(10) 0.00948 349.4 13.6
370(10) 0.00910 349.4 13.3
381(10) 0.00931 349.4 13.1
361(10) 0.01033 349.4 12.9
375(10) 0.00940 349.3 12.7
385(11) 0.00866 349.3 12.5
350(10) 0.00979 349.3 12.3
365(10) 0.01005 349.3 12.1
383(10) 0.00961 349.2 12.0
366(10) 0.00954 349.2 11.8
343(10) 0.00958 349.2 11.7
350(10) 0.00954 349.2 11.6
344(10) 0.01056 349.1 11.4
364(10) 0.01022 349.1 11.3
377(10) 0.00909 349.1 11.2
355(10) 0.00916 349.1 11.2
356(10) 0.00987 349.0 11.1
346(10) 0.01092 349.0 11.0
351(10) 0.01061 349.0 10.9
345(10) 0.01000 348.9 10.9
358(11) 0.00906 348.9 10.9
384(10) 0.00907 348.9 10.8
382(10) 0.00977 348.9 10.8
359(10) 0.01024 348.8 10.8
383(10) 0.00909 348.8 10.8
365(11) 0.00900 348.8 10.8
354(10) 0.00993 348.8 10.8
358(10) 0.01026 348.7 10.8
351(10) 0.01035 348.7 10.9
371(10) 0.00936 348.7 10.9
369(11) 0.00870 348.7 11.0
335(10) 0.01057 348.6 11.0
356(10) 0.01054 348.6 11.1
346(10) 0.01065 348.6 11.2
359(10) 0.00947 348.6 11.3
386(11) 0.00844 348.5 11.5
359(10) 0.00972 348.5 11.6
382(10) 0.00974 348.5 11.8
398(11) 0.00902 348.4 12.0
370(10) 0.00938 348.4 12.2
335(10) 0.01018 348.4 12.4
353(10) 0.00967 348.4 12.7
378(10) 0.00974 348.3 13.0
356(10) 0.01023 348.3 13.3
389(11) 0.00843 348.3 13.7
369(10) 0.00913 348.3 14.1
348(10) 0.01012 348.2 14.6
357(10) 0.01036 348.2 15.1
385(10) 0.00948 348.2 15.7
367(10) 0.00954 348.2 16.4
363(10) 0.00950 348.1 17.2
385(10) 0.00915 348.1 18.0
364(10) 0.01019 348.1 19.0
386(10) 0.00937 348.1 20.1
376(10) 0.00919 348.0 21.4
378(10) 0.00941 348.0 22.8
402(11) 0.00890 348.0 24.4
402(10) 0.00924 347.9 26.3
412(11) 0.00867 347.9 28.3
394(11) 0.00847 347.9 30.6
377(11) 0.00900 347.9 33.2
408(11) 0.00881 347.8 36.0
409(11) 0.00890 347.8 39.1
392(10) 0.00914 347.8 42.5
415(11) 0.00794 347.8 46.2
434(11) 0.00805 347.7 50.2
454(11) 0.00816 347.7 54.4
439(11) 0.00843 347.7 58.8
424(11) 0.00824 347.7 63.3
439(12) 0.00745 347.6 67.8
455(11) 0.00763 347.6 72.1
441(11) 0.00854 347.6 75.9
479(11) 0.00769 347.6 79.2
485(12) 0.00723 347.5 81.6
492(12) 0.00670 347.5 83.1
451(11) 0.00765 347.5 83.4
446(11) 0.00836 347.4 82.5
460(11) 0.00807 347.4 80.6
472(12) 0.00713 347.4 77.7
427(11) 0.00794 347.4 74.1
448(11) 0.00775 347.3 70.0
426(11) 0.00865 347.3 65.6
429(11) 0.00864 347.3 61.1
441(11) 0.00769 347.3 56.7
402(11) 0.00839 347.2 52.4
410(11) 0.00827 347.2 48.3
406(10) 0.00925 347.2 44.5
426(11) 0.00844 347.2 40.9
402(11) 0.00851 347.1 37.7
367(11) 0.00904 347.1 34.7
370(10) 0.00930 347.1 32.0
369(10) 0.01006 347.1 29.6
383(10) 0.00952 347.0 27.5
365(10) 0.00966 347.0 25.6
369(10) 0.00942 347.0 23.9
341(10) 0.01016 347.0 22.4
342(10) 0.01093 346.9 21.1
378(10) 0.00941 346.9 20.0
330(10) 0.01059 346.9 19.0
348(10) 0.00987 346.8 18.1
376(10) 0.00940 346.8 17.3
372(10) 0.01005 346.8 16.7
363(10) 0.00949 346.8 16.1
344(10) 0.00951 346.7 15.6
341(10) 0.01011 346.7 15.2
360(10) 0.01008 346.7 14.8
367(10) 0.01012 346.7 14.5
380(11) 0.00900 346.6 14.2
363(10) 0.00938 346.6 14.0
379(11) 0.00883 346.6 13.9
318(9) 0.01154 346.6 13.7
367(10) 0.01027 346.5 13.7
369(11) 0.00907 346.5 13.6
347(10) 0.00964 346.5 13.6
380(11) 0.00893 346.5 13.6
357(10) 0.01040 346.4 13.7
351(10) 0.01061 346.4 13.8
328(10) 0.01082 346.4 14.0
362(11) 0.00904 346.3 14.2
363(10) 0.00958 346.3 14.4
336(9) 0.01128 346.3 14.7
353(10) 0.01034 346.3 15.1
376(10) 0.00951 346.2 15.5
366(11) 0.00901 346.2 16.0
363(10) 0.00962 346.2 16.6
361(10) 0.01000 346.2 17.2
354(10) 0.01029 346.1 17.9
378(11) 0.00875 346.1 18.7
386(11) 0.00810 346.1 19.6
382(11) 0.00907 346.1 20.6
365(10) 0.01010 346.0 21.7
359(10) 0.01018 346.0 22.9
368(10) 0.00934 346.0 24.3
352(10) 0.00918 346.0 25.8
337(10) 0.00985 345.9 27.4
362(10) 0.01031 345.9 29.1
380(10) 0.00979 345.9 30.9
379(10) 0.00931 345.8 32.9
393(11) 0.00833 345.8 35.0
387(11) 0.00868 345.8 37.1
367(10) 0.01008 345.8 39.4
389(10) 0.00910 345.7 41.6
384(11) 0.00899 345.7 43.8
356(10) 0.00959 345.7 45.9
380(10) 0.00919 345.7 47.9
395(10) 0.00939 345.6 49.6
388(10) 0.00947 345.6 51.1
393(11) 0.00886 345.6 52.2
407(11) 0.00842 345.6 52.9
371(10) 0.00935 345.5 53.3
387(10) 0.00970 345.5 53.3
416(11) 0.00828 345.5 53.1
412(11) 0.00807 345.5 52.7
410(11) 0.00836 345.4 52.2
402(11) 0.00901 345.4 51.8
404(10) 0.00911 345.4 51.5
406(11) 0.00860 345.3 51.5
390(11) 0.00856 345.3 52.0
398(11) 0.00894 345.3 52.9
392(10) 0.00917 345.3 54.6
387(10) 0.00956 345.2 57.1
379(11) 0.00896 345.2 60.5
427(11) 0.00763 345.2 65.1
419(11) 0.00834 345.2 70.8
412(11) 0.00887 345.1 77.7
400(10) 0.00936 345.1 85.9
419(11) 0.00838 345.1 95.3
425(11) 0.00776 345.1 105.5
455(11) 0.00759 345.0 116.0
455(11) 0.00809 345.0 126.2
462(11) 0.00805 345.0 134.7
480(12) 0.00702 345.0 140.4
473(12) 0.00687 344.9 142.2
458(12) 0.00750 344.9 139.6
457(11) 0.00807 344.9 133.0
450(11) 0.00826 344.8 123.4
451(11) 0.00757 344.8 112.2
437(12) 0.00751 344.8 100.4
444(11) 0.00799 344.8 88.8
411(10) 0.00919 344.7 78.1
401(10) 0.00907 344.7 68.5
399(11) 0.00872 344.7 60.0
394(11) 0.00815 344.7 52.7
394(11) 0.00903 344.6 46.5
364(10) 0.01020 344.6 41.3
387(10) 0.00956 344.6 37.1
377(10) 0.00947 344.6 33.7
390(11) 0.00845 344.5 30.9
384(10) 0.00919 344.5 28.8
388(10) 0.00948 344.5 27.3
371(10) 0.00983 344.5 26.3
373(10) 0.00925 344.4 25.8
379(11) 0.00899 344.4 25.9
427(11) 0.00778 344.4 27.0
382(10) 0.00977 344.4 29.6
417(11) 0.00868 344.3 34.5
405(11) 0.00876 344.3 42.7
453(12) 0.00745 344.3 55.5
458(11) 0.00794 344.2 73.4
502(12) 0.00739 344.2 95.9
547(13) 0.00634 344.2 120.8
613(13) 0.00561 344.2 143.0
617(13) 0.00563 344.1 155.0
592(13) 0.00600 344.1 150.9
559(12) 0.00664 344.1 132.7
485(12) 0.00724 344.1 107.7
460(12) 0.00729 344.0 82.5
436(11) 0.00797 344.0 61.0
420(11) 0.00853 344.0 44.4
407(10) 0.00910 344.0 32.7
403(11) 0.00881 343.9 25.0
378(10) 0.00909 343.9 20.1
388(11) 0.00896 343.9 17.0
356(10) 0.01031 343.9 14.9
393(10) 0.00935 343.8 13.5
366(10) 0.00964 343.8 12.4
367(10) 0.00919 343.8 11.5
356(10) 0.00996 343.7 10.8
374(10) 0.00967 343.7 10.1
351(10) 0.01058 343.7 9.6
346(10) 0.00983 343.7 9.2
367(11) 0.00883 343.6 8.8
371(10) 0.00943 343.6 8.4
373(10) 0.00978 343.6 8.1
352(10) 0.01063 343.6 7.8
347(10) 0.00987 343.5 7.5
356(10) 0.00933 343.5 7.3
338(10) 0.01023 343.5 7.1
341(10) 0.01081 343.5 6.9
349(10) 0.01061 343.4 6.8
362(10) 0.00970 343.4 6.6
354(11) 0.00890 343.4 6.5
335(10) 0.01054 343.4 6.3
351(10) 0.01055 343.3 6.2
373(10) 0.00986 343.3 6.1
339(10) 0.01046 343.3 6.0
335(10) 0.01029 343.2 5.9
338(10) 0.01052 343.2 5.8
371(10) 0.01013 343.2 5.7
356(10) 0.00992 343.2 5.7
348(10) 0.01014 343.1 5.6
323(10) 0.01081 343.1 5.5
365(10) 0.00913 343.1 5.5
367(10) 0.01015 343.1 5.4
349(10) 0.01021 343.0 5.4
353(10) 0.00951 343.0 5.3
307(9) 0.01142 343.0 5.3
325(10) 0.01057 343.0 5.2
350(10) 0.01061 342.9 5.2
343(10) 0.01042 342.9 5.2
356(10) 0.00963 342.9 5.1
355(10) 0.00931 342.9 5.1
320(10) 0.01089 342.8 5.1
337(10) 0.01090 342.8 5.1
359(10) 0.00957 342.8 5.1
354(10) 0.00930 342.7 5.1
366(11) 0.00903 342.7 5.0
343(10) 0.01017 342.6 5.0
344(10) 0.01082 342.6 5.0
333(10) 0.01055 342.6 5.0
390(11) 0.00831 342.5 5.0
360(10) 0.00969 342.5 5.0
350(10) 0.01057 342.5 5.0
338(10) 0.01091 342.4 5.1
334(10) 0.01045 342.4 5.1
338(10) 0.00967 342.4 5.1
368(11) 0.00900 342.3 5.1
345(10) 0.01062 342.3 5.1
351(10) 0.01054 342.3 5.2
342(10) 0.01008 342.2 5.2
351(10) 0.00908 342.2 5.2
345(10) 0.00997 342.2 5.2
362(10) 0.01013 342.1 5.3
366(10) 0.01012 342.1 5.3
349(10) 0.00966 342.1 5.4
341(11) 0.00905 342.0 5.4
319(9) 0.01120 342.0 5.5
354(10) 0.01030 341.9 5.6
349(10) 0.01068 341.9 5.6
340(10) 0.01031 341.9 5.7
357(10) 0.00910 341.8 5.8
350(10) 0.00997 341.8 5.9
348(10) 0.01070 341.8 6.0
341(10) 0.01042 341.7 6.1
336(10) 0.01056 341.7 6.2
350(10) 0.00958 341.7 6.4
361(10) 0.00971 341.6 6.5
327(9) 0.01134 341.6 6.7
333(10) 0.01095 341.6 6.9
345(10) 0.00987 341.5 7.1
360(10) 0.00920 341.5 7.3
355(10) 0.00982 341.5 7.6
356(10) 0.01043 341.4 7.9
367(10) 0.00998 341.4 8.3
346(10) 0.00981 341.4 8.7
340(10) 0.00990 341.3 9.2
341(10) 0.01017 341.3 9.8
347(10) 0.01058 341.3 10.6
373(10) 0.00958 341.2 11.6
403(11) 0.00810 341.2 12.9
363(10) 0.00928 341.1 14.6
368(10) 0.00938 341.1 17.1
378(10) 0.00983 341.1 20.4
385(10) 0.00930 341.0 24.9
398(11) 0.00838 341.0 30.7
409(11) 0.00816 341.0 37.9
426(11) 0.00813 340.9 46.4
455(11) 0.00816 340.9 55.8
496(12) 0.00691 340.9 64.9
500(12) 0.00674 340.8 72.1
510(12) 0.00677 340.8 75.3
511(12) 0.00703 340.8 73.4
472(11) 0.00792 340.7 67.2
443(11) 0.00791 340.7 58.5
413(11) 0.00808 340.7 49.3
409(11) 0.00851 340.6 40.7
399(10) 0.00932 340.6 33.3
358(10) 0.01023 340.6 27.4
388(11) 0.00871 340.5 22.8
355(10) 0.00964 340.5 19.4
373(10) 0.00946 340.4 17.0
363(10) 0.01012 340.4 15.3
343(10) 0.01086 340.4 14.1
346(10) 0.00977 340.3 13.2
339(10) 0.00945 340.3 12.6
343(10) 0.00985 340.3 12.2
326(9) 0.01142 340.2 11.9
348(10) 0.01059 340.2 11.7
343(10) 0.01000 340.2 11.6
340(10) 0.00935 340.1 11.5
350(10) 0.01030 340.1 11.4
361(10) 0.01030 340.1 11.5
340(10) 0.01092 340.0 11.5
353(10) 0.00949 340.0 11.6
346(10) 0.00961 340.0 11.7
328(10) 0.01069 339.9 11.8
329(9) 0.01128 339.9 12.0
392(10) 0.00912 339.9 12.2
352(10) 0.01002 339.8 12.4
358(10) 0.00953 339.8 12.7
348(10) 0.00982 339.8 12.9
334(10) 0.01106 339.7 13.3
363(10) 0.00974 339.7 13.6
362(10) 0.00933 339.6 13.9
343(10) 0.00990 339.6 14.3
368(10) 0.00951 339.6 14.8
332(9) 0.01124 339.5 15.2
331(10) 0.01072 339.5 15.7
353(10) 0.00947 339.5 16.2
361(10) 0.00911 339.4 16.8
360(10) 0.01020 339.4 17.4
372(10) 0.01002 339.4 18.1
359(10) 0.01003 339.3 18.8
353(10) 0.00972 339.3 19.6
349(10) 0.00979 339.3 20.5
351(10) 0.01016 339.2 21.4
374(10) 0.00999 339.2 22.4
363(10) 0.00977 339.2 23.4
356(10) 0.00956 339.1 24.6
357(10) 0.00963 339.1 25.9
337(10) 0.01068 339.1 27.3
369(10) 0.01016 339.0 28.8
347(10) 0.00982 339.0 30.5
371(11) 0.00874 338.9 32.3
378(11) 0.00896 338.9 34.2
365(10) 0.00998 338.9 36.4
374(10) 0.00993 338.8 38.7
386(10) 0.00925 338.8 41.2
363(10) 0.00932 338.8 43.9
398(11) 0.00849 338.7 46.8
379(10) 0.00983 338.7 50.0
408(10) 0.00912 338.7 53.3
384(10) 0.00929 338.6 56.8
378(11) 0.00868 338.6 60.4
428(11) 0.00759 338.6 64.2
403(10) 0.00911 338.5 68.1
409(11) 0.00901 338.5 72.1
399(11) 0.00895 338.5 76.3
437(12) 0.00752 338.4 80.7
437(11) 0.00815 338.4 85.6
440(11) 0.00832 338.4 91.2
447(11) 0.00829 338.3 97.7
420(11) 0.00828 338.3 105.7
454(12) 0.00732 338.3 115.6
507(12) 0.00677 338.2 127.8
500(12) 0.00747 338.2 143.0
488(12) 0.00742 338.1 161.8
543(13) 0.00629 338.1 184.7
591(13) 0.00557 338.1 212.2
588(13) 0.00577 338.0 244.4
646(13) 0.00578 338.0 281.3
720(14) 0.00501 338.0 322.0
795(15) 0.00435 337.9 364.9
819(16) 0.00416 337.9 406.8
897(16) 0.00390 337.9 442.8
930(16) 0.00400 337.8 467.4
898(16) 0.00385 337.8 475.6
848(16) 0.00402 337.8 465.8
792(15) 0.00431 337.7 440.5
795(15) 0.00447 337.7 405.0
737(14) 0.00510 337.7 364.7
707(14) 0.00482 337.6 324.2
682(14) 0.00500 337.6 286.4
613(13) 0.00577 337.6 252.7
594(13) 0.00608 337.5 223.6
568(12) 0.00657 337.5 199.3
601(13) 0.00574 337.4 179.3
565(13) 0.00595 337.4 163.2
559(13) 0.00620 337.4 150.3
517(12) 0.00704 337.3 140.1
510(12) 0.00732 337.3 131.8
528(13) 0.00635 337.3 125.1
505(12) 0.00669 337.2 119.5
491(12) 0.00712 337.2 114.6
478(11) 0.00764 337.2 110.2
480(11) 0.00770 337.1 106.1
444(11) 0.00780 337.1 102.2
490(12) 0.00670 337.1 98.4
475(12) 0.00720 337.0 94.6
452(11) 0.00823 337.0 91.0
476(11) 0.00777 337.0 87.3
480(12) 0.00701 336.9 83.8
464(12) 0.00700 336.9 80.3
443(11) 0.00793 336.9 76.8
456(11) 0.00820 336.8 73.4
420(11) 0.00859 336.8 70.1
428(11) 0.00811 336.7 66.8
405(11) 0.00806 336.7 63.7
400(11) 0.00864 336.7 60.6
385(10) 0.00973 336.6 57.6
429(11) 0.00856 336.6 54.8
413(11) 0.00832 336.6 52.0
408(11) 0.00806 336.5 49.4
394(11) 0.00898 336.5 46.8
389(10) 0.00946 336.5 44.4
393(10) 0.00910 336.4 42.1
387(11) 0.00905 336.4 39.9
384(11) 0.00876 336.4 37.9
382(10) 0.00943 336.3 35.9
381(10) 0.00974 336.3 34.1
384(10) 0.00935 336.3 32.4
358(10) 0.00994 336.2 30.8
374(11) 0.00897 336.2 29.3
388(11) 0.00875 336.2 27.8
378(10) 0.00981 336.1 26.5
385(10) 0.00921 336.1 25.2
384(11) 0.00897 336.1 24.0
374(10) 0.00938 336.0 22.9
373(10) 0.00953 336.0 21.9
325(9) 0.01143 335.9 20.9
371(10) 0.00959 335.9 20.0
370(10) 0.00932 335.9 19.2
351(10) 0.00971 335.8 18.4
344(10) 0.01020 335.8 17.6
364(10) 0.01020 335.8 16.9
360(10) 0.00967 335.7 16.2
360(10) 0.00920 335.7 15.6
363(11) 0.00905 335.7 15.0
345(10) 0.01027 335.6 14.5
355(10) 0.01045 335.6 13.9
340(10) 0.01024 335.6 13.4
344(10) 0.00991 335.5 13.0
351(10) 0.00974 335.5 12.5
371(10) 0.00956 335.5 12.1
342(10) 0.01082 335.4 11.7
346(10) 0.00981 335.4 11.4
342(10) 0.00966 335.4 11.0
329(10) 0.01052 335.3 10.7
333(9) 0.01111 335.3 10.4
372(10) 0.00982 335.2 10.1
356(10) 0.00988 335.2 9.8
346(10) 0.00961 335.2 9.5
346(10) 0.00970 335.1 9.3
337(9) 0.01113 335.1 9.0
341(10) 0.01072 335.1 8.8
370(10) 0.00941 335.0 8.6
336(10) 0.00974 335.0 8.4
363(10) 0.00946 335.0 8.2
347(10) 0.01085 334.9 8.0
327(10) 0.01102 334.9 7.8
322(10) 0.01089 334.9 7.6
336(10) 0.00957 334.8 7.4
342(10) 0.01035 334.8 7.3
332(9) 0.01130 334.8 7.1
348(10) 0.01068 334.7 7.0
341(10) 0.00974 334.7 6.8
322(10) 0.01034 334.7 6.7
310(9) 0.01147 334.6 6.5
345(10) 0.01068 334.6 6.4
359(10) 0.01019 334.6 6.3
323(10) 0.01073 334.5 6.2
325(10) 0.01054 334.5 6.0
317(9) 0.01122 334.4 5.9
344(10) 0.01076 334.4 5.8
351(10) 0.01006 334.4 5.7
350(10) 0.00975 334.3 5.6
366(10) 0.00919 334.3 5.5
344(10) 0.01024 334.3 5.4
347(10) 0.01077 334.2 5.3
342(10) 0.01023 334.2 5.2
330(10) 0.01038 334.2 5.2
326(10) 0.01084 334.1 5.1
324(10) 0.01076 334.1 5.0
342(10) 0.01092 334.1 4.9
350(10) 0.01002 334.0 4.8
343(10) 0.01014 334.0 4.8
348(10) 0.01008 334.0 4.7
329(9) 0.01125 333.9 4.6
322(9) 0.01156 333.9 4.6
321(10) 0.01084 333.9 4.5
340(10) 0.00997 333.8 4.4
322(10) 0.01091 333.8 4.4
343(10) 0.01061 333.7 4.3
350(10) 0.01067 333.7 4.3
323(10) 0.01055 333.7 4.2
309(10) 0.01083 333.6 4.2
340(10) 0.00990 333.6 4.1
332(9) 0.01116 333.6 4.1
354(10) 0.01039 333.5 4.0
337(10) 0.01019 333.5 4.0
341(10) 0.00937 333.5 3.9
340(10) 0.01012 333.4 3.9
347(10) 0.01037 333.4 3.8
345(10) 0.01075 333.4 3.8
340(10) 0.01048 333.3 3.7
345(10) 0.00966 333.3 3.7
325(10) 0.01107 333.3 3.7
307(9) 0.01176 333.2 3.6
320(9) 0.01171 333.2 3.6
340(10) 0.01016 333.2 3.6
340(10) 0.00960 333.1 3.5
336(10) 0.01028 333.1 3.5
342(10) 0.01086 333.0 3.4
322(9) 0.01143 333.0 3.4
341(10) 0.01016 333.0 3.4
332(10) 0.01021 332.9 3.4
330(10) 0.01015 332.9 3.3
319(9) 0.01159 332.9 3.3
335(10) 0.01099 332.8 3.3
332(10) 0.01064 332.8 3.2
323(10) 0.01044 332.8 3.2
331(10) 0.01056 332.7 3.2
338(10) 0.01104 332.7 3.2
342(10) 0.01075 332.7 3.1
329(10) 0.01080 332.6 3.1
327(10) 0.01047 332.6 3.1
340(10) 0.00998 332.6 3.1
323(9) 0.01151 332.5 3.1
353(10) 0.01007 332.5 3.0
337(10) 0.01029 332.5 3.0
318(10) 0.01069 332.4 3.0
328(10) 0.01053 332.4 3.0
328(9) 0.01125 332.4 3.0
327(10) 0.01083 332.3 3.0
340(10) 0.00994 332.3 2.9
358(10) 0.00931 332.2 2.9
348(10) 0.01038 332.2 2.9
352(10) 0.01059 332.2 2.9
307(9) 0.01146 332.1 2.9
305(9) 0.01110 332.1 2.9
317(10) 0.01079 332.1 2.8
310(9) 0.01156 332.0 2.8
328(9) 0.01144 332.0 2.8
306(9) 0.01136 332.0 2.8
328(10) 0.01025 331.9 2.8
322(10) 0.01074 331.9 2.8
336(10) 0.01083 331.9 2.8
302(9) 0.01224 331.8 2.8
324(10) 0.01032 331.8 2.7
318(10) 0.01058 331.8 2.7
334(10) 0.01065 331.7 2.7
345(10) 0.01087 331.7 2.7
325(9) 0.01134 331.7 2.7
341(10) 0.01014 331.6 2.7
314(10) 0.01030 331.6 2.7
316(10) 0.01050 331.5 2.7
314(9) 0.01154 331.5 2.7
324(9) 0.01154 331.5 2.7
347(10) 0.01021 331.4 2.7
322(10) 0.00973 331.4 2.7
322(10) 0.01105 331.4 2.7
338(9) 0.01113 331.3 2.7
309(9) 0.01203 331.3 2.6
313(9) 0.01131 331.3 2.6
333(10) 0.00996 331.2 2.6
319(9) 0.01131 331.2 2.6
313(9) 0.01181 331.2 2.6
317(9) 0.01147 331.1 2.6
323(10) 0.01097 331.1 2.6
336(10) 0.00964 331.0 2.6
321(10) 0.01052 331.0 2.6
306(9) 0.01221 331.0 2.6
329(10) 0.01098 330.9 2.6
339(10) 0.01013 330.9 2.6
327(10) 0.01027 330.9 2.6
303(9) 0.01128 330.8 2.6
307(9) 0.01209 330.8 2.6
336(10) 0.01050 330.7 2.6
342(10) 0.00995 330.7 2.6
352(10) 0.00944 330.7 2.6
334(10) 0.01043 330.6 2.6
323(9) 0.01149 330.6 2.6
344(10) 0.01033 330.6 2.6
329(10) 0.01027 330.5 2.6
342(10) 0.00983 330.5 2.6
313(9) 0.01166 330.4 2.7
329(9) 0.01127 330.4 2.7
321(10) 0.01070 330.4 2.7
330(10) 0.01017 330.3 2.7
300(9) 0.01146 330.3 2.7
310(9) 0.01171 330.3 2.7
327(9) 0.01124 330.2 2.7
345(10) 0.01002 330.2 2.7
330(10) 0.01054 330.1 2.7
320(9) 0.01127 330.1 2.7
319(9) 0.01155 330.1 2.7
324(9) 0.01127 330.0 2.7
344(10) 0.00995 330.0 2.7
312(10) 0.01079 330.0 2.8
322(10) 0.01083 329.9 2.8
342(10) 0.01059 329.9 2.8
340(10) 0.01089 329.9 2.8
350(10) 0.01004 329.8 2.8
308(10) 0.01076 329.8 2.8
338(10) 0.01006 329.7 2.8
323(9) 0.01146 329.7 2.8
310(9) 0.01196 329.7 2.9
333(10) 0.01065 329.6 2.9
330(10) 0.01004 329.6 2.9
352(10) 0.01002 329.6 2.9
320(9) 0.01170 329.5 2.9
328(9) 0.01119 329.5 2.9
330(10) 0.01081 329.4 3.0
332(10) 0.00982 329.4 3.0
318(10) 0.01104 329.4 3.0
336(9) 0.01109 329.3 3.0
341(10) 0.01091 329.3 3.1
341(10) 0.00998 329.3 3.1
312(10) 0.01092 329.2 3.1
335(10) 0.01072 329.2 3.1
332(9) 0.01123 329.1 3.2
341(10) 0.01068 329.1 3.2
329(10) 0.01060 329.1 3.2
333(10) 0.00991 329.0 3.2
319(10) 0.01062 329.0 3.3
347(10) 0.01075 329.0 3.3
338(10) 0.01076 328.9 3.3
323(10) 0.01087 328.9 3.4
340(10) 0.00953 328.8 3.4
307(9) 0.01167 328.8 3.4
327(9) 0.01139 328.8 3.5
319(10) 0.01098 328.7 3.5
336(10) 0.00962 328.7 3.6
325(10) 0.01057 328.7 3.6
320(9) 0.01117 328.6 3.7
303(9) 0.01220 328.6 3.7
297(9) 0.01173 328.5 3.7
321(10) 0.01070 328.5 3.8
332(10) 0.01010 328.5 3.9
342(10) 0.01044 328.4 3.9
352(10) 0.01066 328.4 4.0
346(10) 0.01004 328.4 4.0
335(10) 0.01012 328.3 4.1
297(9) 0.01184 328.3 4.2
329(10) 0.01101 328.3 4.2
326(9) 0.01147 328.2 4.3
335(10) 0.01037 328.2 4.4
305(10) 0.01095 328.1 4.4
323(10) 0.01090 328.1 4.5
327(10) 0.01104 328.1 4.6
269(8) 0.01395 328.0 4.7
312(10) 0.01056 328.0 4.8
321(10) 0.01009 328.0 4.9
320(10) 0.01073 327.9 5.0
341(10) 0.01082 327.9 5.1
315(9) 0.01165 327.8 5.2
312(9) 0.01114 327.8 5.3
355(11) 0.00902 327.8 5.4
332(10) 0.01071 327.7 5.6
315(9) 0.01170 327.7 5.7
330(9) 0.01125 327.7 5.8
312(9) 0.01132 327.6 6.0
357(11) 0.00891 327.6 6.2
327(10) 0.01070 327.5 6.3
327(9) 0.01137 327.5 6.5
356(10) 0.01028 327.5 6.7
372(10) 0.00921 327.4 6.9
349(10) 0.00947 327.4 7.1
353(10) 0.00969 327.4 7.3
341(10) 0.01079 327.3 7.6
334(10) 0.01084 327.3 7.8
317(9) 0.01122 327.2 8.1
325(10) 0.01051 327.2 8.4
325(10) 0.01055 327.2 8.7
317(9) 0.01177 327.1 9.1
341(10) 0.01025 327.1 9.4
324(10) 0.01044 327.1 9.8
342(10) 0.00951 327.0 10.3
354(10) 0.00968 327.0 10.7
329(9) 0.01138 326.9 11.2
338(10) 0.01061 326.9 11.8
339(10) 0.01032 326.9 12.4
332(10) 0.01033 326.8 13.1
337(10) 0.01049 326.8 13.8
336(9) 0.01115 326.8 14.7
350(10) 0.01009 326.7 15.6
363(10) 0.00960 326.7 16.6
345(10) 0.01028 326.7 17.7
359(10) 0.00990 326.6 18.9
338(9) 0.01114 326.6 20.3
344(10) 0.01019 326.5 22.0
346(10) 0.00968 326.5 23.9
368(10) 0.00926 326.5 26.6
390(10) 0.00913 326.4 30.6
377(10) 0.00993 326.4 37.4
374(10) 0.00949 326.4 48.5
385(11) 0.00866 326.3 65.6
406(11) 0.00821 326.3 88.6
428(11) 0.00862 326.2 114.6
472(11) 0.00788 326.2 136.8
493(12) 0.00706 326.2 146.8
451(12) 0.00728 326.1 140.1
423(11) 0.00794 326.1 121.9
404(10) 0.00911 326.1 100.6
383(10) 0.00973 326.0 82.5
412(11) 0.00833 326.0 70.4
411(11) 0.00775 325.9 63.9
409(11) 0.00848 325.9 61.5
377(10) 0.00974 325.9 61.2
378(10) 0.00975 325.8 61.9
407(11) 0.00878 325.8 62.8
379(11) 0.00881 325.8 63.5
395(11) 0.00865 325.7 63.9
402(10) 0.00924 325.7 63.9
389(10) 0.00955 325.6 63.5
383(11) 0.00887 325.6 62.6
383(11) 0.00874 325.6 61.3
379(10) 0.00914 325.5 59.7
391(10) 0.00951 325.5 57.7
398(10) 0.00911 325.5 55.5
398(11) 0.00881 325.4 53.2
390(11) 0.00864 325.4 50.7
368(10) 0.00938 325.3 48.1
401(10) 0.00916 325.3 45.6
382(10) 0.00956 325.3 43.1
362(10) 0.00946 325.2 40.6
355(10) 0.00937 325.2 38.3
350(10) 0.01001 325.2 36.0
356(10) 0.01044 325.1 33.9
372(10) 0.00955 325.1 31.9
362(10) 0.00936 325.0 30.0
351(10) 0.00953 325.0 28.2
350(10) 0.00966 325.0 26.6
343(10) 0.01094 324.9 25.1
338(10) 0.01047 324.9 23.7
356(10) 0.00956 324.9 22.4
351(10) 0.00974 324.8 21.2
340(10) 0.01028 324.8 20.1
332(9) 0.01126 324.8 19.2
350(10) 0.00995 324.7 18.3
344(10) 0.00989 324.7 17.5
358(10) 0.00956 324.6 16.7
338(10) 0.01081 324.6 16.1
320(9) 0.01161 324.6 15.5
330(10) 0.01064 324.5 15.0
327(10) 0.01033 324.5 14.5
339(10) 0.01017 324.5 14.1
317(9) 0.01138 324.4 13.7
316(9) 0.01172 324.4 13.4
319(10) 0.01105 324.3 13.1
335(10) 0.00953 324.3 12.8
341(10) 0.01006 324.3 12.6
361(10) 0.01031 324.2 12.4
340(10) 0.01084 324.2 12.3
335(10) 0.01047 324.2 12.1
311(10) 0.01062 324.1 12.0
343(10) 0.00968 324.1 11.9
323(9) 0.01140 324.0 11.9
323(9) 0.01147 324.0 11.8
319(9) 0.01136 324.0 11.8
328(10) 0.00980 323.9 11.8
324(10) 0.01077 323.9 11.8
315(9) 0.01168 323.9 11.8
320(9) 0.01130 323.8 11.8
310(9) 0.01150 323.8 11.8
337(10) 0.00966 323.7 11.9
363(10) 0.00953 323.7 11.9
340(10) 0.01102 323.7 12.0
345(10) 0.01072 323.6 12.0
341(10) 0.01033 323.6 12.1
320(10) 0.01080 323.6 12.2
340(10) 0.01016 323.5 12.3
330(9) 0.01142 323.5 12.3
316(9) 0.01157 323.4 12.4
341(10) 0.01013 323.4 12.5
351(10) 0.00967 323.4 12.6
331(10) 0.01072 323.3 12.7
336(10) 0.01103 323.3 12.7
340(10) 0.01069 323.3 12.8
296(9) 0.01175 323.2 12.9
334(10) 0.01014 323.2 12.9
336(10) 0.01071 323.2 13.0
307(9) 0.01204 323.1 13.1
303(9) 0.01137 323.1 13.1
316(10) 0.01052 323.0 13.2
332(10) 0.00980 323.0 13.2
340(10) 0.01020 323.0 13.3
329(9) 0.01135 322.9 13.4
331(10) 0.01059 322.9 13.4
333(10) 0.01007 322.9 13.5
337(10) 0.01030 322.8 13.6
337(10) 0.01051 322.8 13.7
315(9) 0.01174 322.7 13.8
330(10) 0.01051 322.7 13.9
312(9) 0.01143 322.7 14.1
345(10) 0.00971 322.6 14.3
333(10) 0.01101 322.6 14.5
351(10) 0.01048 322.6 14.7
338(10) 0.01008 322.5 15.0
330(10) 0.00993 322.5 15.4
323(9) 0.01124 322.4 15.8
321(9) 0.01110 322.4 16.3
298(9) 0.01251 322.4 16.9
328(10) 0.01048 322.3 17.6
328(10) 0.00986 322.3 18.3
344(10) 0.01007 322.3 19.3
323(9) 0.01141 322.2 20.3
330(9) 0.01137 322.2 21.6
345(10) 0.01008 322.1 22.9
328(10) 0.01003 322.1 24.5
385(11) 0.00867 322.1 26.3
320(9) 0.01148 322.0 28.2
349(10) 0.01063 322.0 30.2
340(10) 0.01016 322.0 32.4
345(10) 0.00951 321.9 34.5
360(10) 0.00966 321.9 36.7
371(10) 0.01013 321.8 38.6
366(10) 0.00980 321.8 40.2
310(9) 0.01172 321.8 41.3
337(10) 0.01018 321.7 41.9
364(10) 0.00969 321.7 42.0
373(10) 0.00976 321.7 41.7
331(10) 0.01082 321.6 41.0
356(10) 0.00945 321.6 40.2
364(11) 0.00868 321.5 39.4
336(10) 0.01003 321.5 38.7
351(10) 0.01062 321.5 38.3
359(10) 0.01021 321.4 38.0
362(10) 0.00967 321.4 38.2
355(10) 0.00953 321.4 38.6
350(10) 0.01003 321.3 39.5
359(10) 0.01043 321.3 40.8
347(10) 0.01012 321.3 42.6
337(10) 0.00993 321.2 44.9
354(10) 0.00941 321.2 47.7
352(10) 0.01016 321.1 51.1
366(10) 0.01006 321.1 55.2
384(11) 0.00897 321.1 59.9
373(11) 0.00897 321.0 65.3
377(10) 0.00927 321.0 71.4
406(11) 0.00851 321.0 78.3
446(11) 0.00835 320.9 86.1
419(11) 0.00839 320.9 94.6
416(11) 0.00827 320.8 103.9
461(12) 0.00742 320.8 113.8
483(12) 0.00745 320.8 124.3
490(11) 0.00764 320.7 135.1
476(12) 0.00724 320.7 145.9
485(12) 0.00692 320.7 156.1
513(12) 0.00684 320.6 165.4
521(12) 0.00709 320.6 172.9
536(12) 0.00687 320.5 178.2
509(12) 0.00679 320.5 180.8
512(13) 0.00624 320.5 180.4
505(12) 0.00689 320.4 177.1
517(12) 0.00693 320.4 171.3
468(11) 0.00799 320.4 163.5
482(12) 0.00705 320.3 154.3
456(12) 0.00710 320.3 144.3
450(11) 0.00783 320.2 134.0
449(11) 0.00829 320.2 123.8
444(11) 0.00837 320.2 114.1
436(11) 0.00808 320.1 105.0
438(12) 0.00727 320.1 96.5
441(11) 0.00769 320.1 88.6
404(10) 0.00917 320.0 81.4
394(10) 0.00930 320.0 74.6
392(11) 0.00871 319.9 68.4
388(11) 0.00861 319.9 62.5
409(11) 0.00831 319.9 57.0
381(10) 0.00976 319.8 51.9
376(10) 0.00957 319.8 47.3
361(10) 0.00937 319.8 43.2
401(11) 0.00795 319.7 39.4
337(10) 0.01059 319.7 36.1
356(10) 0.01037 319.7 33.1
337(10) 0.01085 319.6 30.5
329(10) 0.01056 319.6 28.2
335(10) 0.01018 319.5 26.2
321(10) 0.01097 319.5 24.4
347(10) 0.01068 319.5 22.8
358(10) 0.00970 319.4 21.4
332(10) 0.01036 319.4 20.1
351(10) 0.00965 319.4 19.0
364(10) 0.00974 319.3 18.0
335(9) 0.01117 319.3 17.0
345(10) 0.01009 319.2 16.2
323(10) 0.01067 319.2 15.4
317(10) 0.01084 319.2 14.8
325(9) 0.01112 319.1 14.1
304(9) 0.01225 319.1 13.5
320(10) 0.01048 319.1 13.0
327(10) 0.01016 319.0 12.5
351(10) 0.00942 319.0 12.0
297(9) 0.01220 318.9 11.6
329(9) 0.01136 318.9 11.2
319(10) 0.01079 318.9 10.8
312(10) 0.01062 318.8 10.5
329(10) 0.01060 318.8 10.1
347(10) 0.01071 318.8 9.8
330(9) 0.01127 318.7 9.5
338(10) 0.01020 318.7 9.3
317(10) 0.01035 318.6 9.0
318(10) 0.01102 318.6 8.8
321(9) 0.01137 318.6 8.5
324(9) 0.01136 318.5 8.3
330(10) 0.01032 318.5 8.1
331(10) 0.00988 318.5 7.9
342(10) 0.01037 318.4 7.8
343(10) 0.01083 318.4 7.6
306(9) 0.01194 318.3 7.4
305(9) 0.01168 318.3 7.3
344(10) 0.00935 318.3 7.1
318(10) 0.01103 318.2 7.0
291(9) 0.01288 318.2 6.9
300(9) 0.01230 318.2 6.7
310(9) 0.01134 318.1 6.6
343(10) 0.00939 318.1 6.5
344(10) 0.00975 318.1 6.4
312(9) 0.01194 318.0 6.3
315(9) 0.01130 318.0 6.2
326(10) 0.01059 317.9 6.1
306(10) 0.01083 317.9 6.1
313(10) 0.01107 317.9 6.0
322(9) 0.01156 317.8 5.9
322(10) 0.01102 317.8 5.8
354(10) 0.00964 317.8 5.8
323(10) 0.01080 317.7 5.7
320(10) 0.01097 317.7 5.6
303(9) 0.01217 317.6 5.6
325(10) 0.01092 317.6 5.5
315(9) 0.01118 317.6 5.5
323(10) 0.01057 317.5 5.4
328(9) 0.01122 317.5 5.4
323(9) 0.01126 317.5 5.4
306(9) 0.01136 317.4 5.3
329(10) 0.00991 317.4 5.3
311(10) 0.01086 317.3 5.3
314(9) 0.01150 317.3 5.2
297(9) 0.01240 317.3 5.2
330(10) 0.01037 317.2 5.2
293(9) 0.01190 317.2 5.2
313(10) 0.01099 317.2 5.1
336(10) 0.01072 317.1 5.1
336(10) 0.01095 317.1 5.1
315(10) 0.01095 317.0 5.1
334(10) 0.01011 317.0 5.1
334(10) 0.01039 317.0 5.1
312(9) 0.01162 316.9 5.1
334(9) 0.01130 316.9 5.1
331(10) 0.01023 316.9 5.1
330(10) 0.00982 316.9 5.1
346(10) 0.00986 316.9 5.1
338(10) 0.01080 316.9 5.1
291(9) 0.01278 316.9 5.1
321(10) 0.01039 316.9 5.1
313(10) 0.01042 316.8 5.2
328(10) 0.01031 316.8 5.2
308(9) 0.01215 316.8 5.2
336(10) 0.01072 316.8 5.2
305(9) 0.01150 316.8 5.3
329(10) 0.00950 316.8 5.3
309(9) 0.01126 316.8 5.3
315(9) 0.01191 316.8 5.3
296(9) 0.01234 316.8 5.4
332(10) 0.00997 316.8 5.4
335(10) 0.00977 316.8 5.5
341(10) 0.01003 316.8 5.5
330(9) 0.01120 316.8 5.6
327(9) 0.01136 316.8 5.6
329(10) 0.01076 316.8 5.7
334(10) 0.01019 316.7 5.8
341(10) 0.01004 316.7 5.8
316(9) 0.01175 316.7 5.9
312(9) 0.01190 316.7 6.0
328(10) 0.01029 316.7 6.1
304(9) 0.01113 316.7 6.2
320(10) 0.01075 316.7 6.3
311(9) 0.01201 316.7 6.4
325(10) 0.01102 316.7 6.5
323(10) 0.01088 316.7 6.6
342(10) 0.00978 316.7 6.8
338(10) 0.01012 316.7 6.9
305(9) 0.01226 316.7 7.1
322(10) 0.01071 316.7 7.2
329(10) 0.01055 316.6 7.4
336(10) 0.01031 316.6 7.6
334(10) 0.01073 316.6 7.8
349(10) 0.01068 316.6 8.0
335(10) 0.01034 316.6 8.3
314(10) 0.01106 316.6 8.6
324(10) 0.01078 316.6 8.9
330(10) 0.01095 316.6 9.2
316(9) 0.01159 316.6 9.6
337(10) 0.00992 316.6 10.0
345(10) 0.00984 316.6 10.4
329(10) 0.01057 316.6 10.9
335(10) 0.01068 316.6 11.5
337(10) 0.01106 316.6 12.1
327(10) 0.01069 316.6 12.8
345(10) 0.00933 316.5 13.7
348(10) 0.00997 316.5 14.6
332(9) 0.01109 316.5 15.8
324(9) 0.01146 316.5 17.1
332(10) 0.01058 316.5 18.8
350(10) 0.00940 316.5 20.9
363(10) 0.00964 316.5 23.6
371(10) 0.00986 316.5 27.2
362(10) 0.01010 316.5 32.2
379(10) 0.00939 316.5 39.0
389(11) 0.00809 316.5 48.4
384(11) 0.00905 316.5 60.9
402(10) 0.00924 316.5 77.2
415(11) 0.00897 316.5 97.5
453(11) 0.00766 316.5 121.2
491(12) 0.00671 316.4 146.8
511(12) 0.00692 316.4 171.4
571(12) 0.00659 316.4 191.3
572(13) 0.00630 316.4 202.0
521(12) 0.00669 316.4 200.0
516(13) 0.00636 316.4 185.3
481(12) 0.00713 316.4 162.1
457(11) 0.00815 316.4 135.9
433(11) 0.00841 316.4 110.8
429(11) 0.00823 316.4 89.0
389(11) 0.00871 316.4 71.2
375(10) 0.00923 316.4 57.6
360(10) 0.01041 316.4 47.5
393(10) 0.00921 316.4 40.4
379(10) 0.00915 316.4 35.6
368(10) 0.00926 316.3 32.3
353(10) 0.00986 316.3 30.4
363(10) 0.01018 316.3 29.3
342(10) 0.01057 316.3 29.0
372(11) 0.00897 316.3 29.5
365(10) 0.00909 316.3 30.7
367(10) 0.00939 316.3 33.0
356(10) 0.01051 316.3 36.3
372(10) 0.00918 316.3 40.8
384(11) 0.00865 316.3 46.5
386(11) 0.00868 316.3 53.2
375(10) 0.00959 316.3 60.3
368(10) 0.01009 316.3 66.7
416(11) 0.00813 316.3 70.8
393(11) 0.00888 316.3 71.4
393(11) 0.00905 316.2 68.3
377(10) 0.00979 316.2 62.5
390(10) 0.00949 316.2 55.8
362(10) 0.00941 316.2 49.3
398(11) 0.00819 316.2 43.7
362(10) 0.00982 316.2 39.1
359(10) 0.01015 316.2 35.6
340(10) 0.01087 316.2 33.2
350(10) 0.01005 316.2 31.6
369(11) 0.00889 316.2 30.6
377(10) 0.00929 316.2 30.1
370(10) 0.00984 316.2 30.0
366(10) 0.01010 316.2 30.2
371(11) 0.00893 316.2 30.6
340(10) 0.00935 316.2 31.1
347(10) 0.01006 316.1 31.9
355(10) 0.01057 316.1 32.9
347(10) 0.01052 316.1 34.1
362(10) 0.00968 316.1 35.7
349(10) 0.00975 316.1 37.7
374(10) 0.00943 316.1 40.3
367(10) 0.01017 316.1 43.6
377(10) 0.00979 316.1 48.0
376(10) 0.00947 316.1 53.8
387(11) 0.00850 316.1 61.1
406(11) 0.00870 316.1 70.3
399(10) 0.00936 316.1 81.6
409(11) 0.00891 316.1 95.1
453(12) 0.00755 316.1 110.6
453(12) 0.00725 316.1 127.3
476(12) 0.00721 316.0 144.1
481(11) 0.00768 316.0 158.6
513(12) 0.00716 316.0 168.1
526(12) 0.00657 316.0 170.1
480(12) 0.00695 316.0 164.2
470(12) 0.00738 316.0 152.0
483(11) 0.00769 316.0 136.2
460(11) 0.00768 316.0 119.4
396(11) 0.00879 316.0 103.4
403(11) 0.00855 316.0 89.2
401(11) 0.00884 316.0 77.1
395(10) 0.00941 316.0 67.2
370(10) 0.00948 316.0 59.3
380(11) 0.00902 316.0 53.3
343(10) 0.00989 316.0 48.7
348(10) 0.01024 315.9 45.4
351(10) 0.01045 315.9 43.0
379(10) 0.00932 315.9 41.4
353(10) 0.00969 315.9 40.3
361(10) 0.00965 315.9 39.6
357(10) 0.01022 315.9 39.3
352(10) 0.01052 315.9 39.2
362(10) 0.00947 315.9 39.3
324(10) 0.00988 315.9 39.6
366(10) 0.00924 315.9 40.0
384(10) 0.00965 315.9 40.5
377(10) 0.00980 315.9 41.1
358(10) 0.00990 315.9 41.8
380(11) 0.00846 315.9 42.6
388(11) 0.00862 315.9 43.4
365(10) 0.01007 315.8 44.2
348(10) 0.01080 315.8 45.0
383(10) 0.00924 315.8 45.7
401(11) 0.00810 315.8 46.5
366(10) 0.00955 315.8 47.1
348(10) 0.01064 315.8 47.7
364(10) 0.01021 315.8 48.1
373(10) 0.00918 315.8 48.4
359(11) 0.00889 315.8 48.6
364(10) 0.00955 315.8 48.6
365(10) 0.01026 315.8 48.5
355(10) 0.01046 315.8 48.2
375(10) 0.00914 315.8 47.8
360(10) 0.00922 315.8 47.2
354(10) 0.00991 315.7 46.5
370(10) 0.01013 315.7 45.7
351(10) 0.01038 315.7 44.8
351(10) 0.00994 315.7 43.9
353(10) 0.00958 315.7 42.8
357(10) 0.00946 315.7 41.8
362(10) 0.01051 315.7 40.7
337(10) 0.01076 315.7 39.7
342(10) 0.01026 315.7 38.6
348(10) 0.00971 315.7 37.6
361(10) 0.00958 315.7 36.6
358(10) 0.01045 315.7 35.7
326(10) 0.01101 315.7 34.8
350(10) 0.00974 315.7 34.0
345(10) 0.01004 315.7 33.3
379(10) 0.00922 315.6 32.8
372(10) 0.00997 315.6 32.3
366(10) 0.00955 315.6 31.9
356(10) 0.00973 315.6 31.8
379(11) 0.00906 315.6 31.8
356(10) 0.01020 315.6 32.2
376(10) 0.00991 315.6 33.0
354(10) 0.00974 315.6 34.4
363(10) 0.00909 315.6 36.8
381(11) 0.00882 315.6 40.5
384(10) 0.00926 315.6 45.7
387(10) 0.00967 315.6 52.6
408(11) 0.00851 315.6 61.1
384(11) 0.00887 315.6 70.7
428(11) 0.00802 315.6 80.2
459(11) 0.00796 315.5 87.6
436(11) 0.00850 315.5 90.7
431(11) 0.00805 315.5 89.1
438(12) 0.00735 315.5 84.2
391(11) 0.00898 315.5 78.4
390(10) 0.00942 315.5 73.6
409(10) 0.00916 315.5 70.7
386(10) 0.00940 315.5 70.2
404(11) 0.00824 315.5 71.9
424(11) 0.00821 315.5 75.3
424(11) 0.00870 315.5 79.7
424(11) 0.00871 315.5 83.9
426(11) 0.00809 315.5 86.8
413(11) 0.00801 315.5 87.4
436(11) 0.00800 315.5 85.4
411(10) 0.00920 315.4 81.0
404(10) 0.00910 315.4 75.1
384(11) 0.00898 315.4 68.6
386(11) 0.00820 315.4 62.1
379(10) 0.00930 315.4 56.2
390(10) 0.00947 315.4 51.0
368(10) 0.00992 315.4 46.7
372(10) 0.00923 315.4 43.1
349(10) 0.00985 315.4 40.3
377(10) 0.00914 315.4 38.2
362(10) 0.01026 315.4 36.6
343(10) 0.01033 315.4 35.5
344(10) 0.01014 315.4 34.8
349(10) 0.00953 315.4 34.5
349(10) 0.00962 315.4 34.3
331(9) 0.01112 315.3 34.4
363(10) 0.01015 315.3 34.7
361(10) 0.00952 315.3 35.1
367(10) 0.00936 315.3 35.6
339(10) 0.01050 315.3 36.2
360(10) 0.01050 315.3 36.9
365(10) 0.00970 315.3 37.7
369(10) 0.00927 315.3 38.6
367(10) 0.00950 315.3 39.5
364(10) 0.00995 315.3 40.6
356(10) 0.01043 315.3 41.7
341(10) 0.01030 315.3 42.8
352(10) 0.00974 315.3 44.1
356(10) 0.00968 315.3 45.4
349(10) 0.01008 315.3 46.8
346(10) 0.01075 315.2 48.3
371(10) 0.00945 315.2 49.8
382(11) 0.00866 315.2 51.4
351(10) 0.00993 315.2 53.1
353(10) 0.01046 315.2 54.8
365(10) 0.01008 315.2 56.7
372(10) 0.00931 315.2 58.5
327(10) 0.01063 315.2 60.5
379(10) 0.00917 315.2 62.4
382(10) 0.00948 315.2 64.4
389(10) 0.00955 315.2 66.5
388(11) 0.00880 315.2 68.4
380(11) 0.00863 315.2 70.4
375(10) 0.00960 315.2 72.3
367(10) 0.00995 315.2 74.0
411(10) 0.00908 315.1 75.7
391(11) 0.00856 315.1 77.2
380(11) 0.00817 315.1 78.6
365(10) 0.00955 315.1 79.9
388(10) 0.00965 315.1 81.0
359(10) 0.01033 315.1 82.1
351(10) 0.00981 315.1 83.1
361(11) 0.00904 315.1 84.2
338(10) 0.01042 315.1 85.5
373(10) 0.00992 315.1 86.9
410(11) 0.00902 315.1 88.6
386(10) 0.00924 315.1 90.8
390(11) 0.00846 315.1 93.3
380(11) 0.00905 315.1 96.3
396(10) 0.00937 315.1 99.9
379(10) 0.00976 315.0 104.1
402(11) 0.00850 315.0 108.9
381(11) 0.00892 315.0 114.2
388(11) 0.00884 315.0 120.0
436(11) 0.00856 315.0 126.2
409(10) 0.00908 315.0 132.5
431(11) 0.00800 315.0 138.7
444(11) 0.00758 315.0 144.4
443(11) 0.00783 315.0 149.2
445(11) 0.00839 315.0 152.7
438(11) 0.00798 315.0 154.5
448(11) 0.00761 315.0 154.3
434(11) 0.00784 315.0 152.1
426(11) 0.00819 315.0 148.1
421(11) 0.00875 315.0 142.4
423(11) 0.00831 314.9 135.6
412(11) 0.00836 314.9 128.0
412(11) 0.00860 314.9 120.0
424(11) 0.00850 314.9 112.1
403(10) 0.00922 314.9 104.3
377(10) 0.00926 314.9 96.9
398(11) 0.00838 314.9 90.1
404(11) 0.00867 314.9 83.8
367(10) 0.00975 314.9 78.1
365(10) 0.01025 314.9 73.0
360(10) 0.00932 314.9 68.6
360(10) 0.00911 314.9 64.7
377(10) 0.00913 314.9 61.4
363(10) 0.01001 314.9 58.6
354(10) 0.01052 314.9 56.3
376(10) 0.00920 314.8 54.5
363(11) 0.00889 314.8 53.0
347(10) 0.01010 314.8 51.9
354(10) 0.01037 314.8 51.1
365(10) 0.01007 314.8 50.5
393(11) 0.00861 314.8 50.1
361(10) 0.00911 314.8 49.7
363(10) 0.00936 314.8 49.3
394(10) 0.00927 314.8 48.7
354(10) 0.01024 314.8 47.9
340(10) 0.01031 314.8 46.8
367(11) 0.00891 314.8 45.4
352(10) 0.00985 314.8 43.8
348(10) 0.01075 314.8 42.1
353(10) 0.01032 314.7 40.2
341(10) 0.01049 314.7 38.3
320(10) 0.01039 314.7 36.5
330(10) 0.01026 314.7 34.8
337(10) 0.01094 314.7 33.1
344(10) 0.01040 314.7 31.5
348(10) 0.01007 314.7 30.1
362(10) 0.00914 314.7 28.8
340(10) 0.00981 314.7 27.5
318(9) 0.01170 314.7 26.4
322(9) 0.01123 314.7 25.3
341(10) 0.00987 314.7 24.3
345(10) 0.00978 314.7 23.4
329(10) 0.01030 314.7 22.6
309(9) 0.01205 314.7 21.9
344(10) 0.00998 314.6 21.1
323(10) 0.01059 314.6 20.5
325(10) 0.01030 314.6 19.8
351(10) 0.01005 314.6 19.3
326(9) 0.01131 314.6 18.7
335(10) 0.01021 314.6 18.2
314(10) 0.01067 314.6 17.7
326(10) 0.01037 314.6 17.3
317(9) 0.01118 314.6 16.9
339(10) 0.01093 314.6 16.5
332(10) 0.01054 314.6 16.1
323(10) 0.01058 314.6 15.8
324(10) 0.01076 314.6 15.5
334(10) 0.01084 314.6 15.2
339(10) 0.01076 314.6 14.9
331(10) 0.01005 314.5 14.7
354(11) 0.00906 314.5 14.5
308(9) 0.01168 314.5 14.3
313(9) 0.01178 314.5 14.1
346(10) 0.01069 314.5 13.9
313(9) 0.01116 314.5 13.8
324(10) 0.01008 314.5 13.6
353(10) 0.00947 314.5 13.5
319(9) 0.01142 314.5 13.4
356(10) 0.01057 314.5 13.4
333(10) 0.01024 314.5 13.3
341(10) 0.00937 314.5 13.3
345(10) 0.01005 314.5 13.3
318(9) 0.01188 314.5 13.3
348(10) 0.01059 314.5 13.4
326(10) 0.01069 314.4 13.4
314(10) 0.01059 314.4 13.6
338(10) 0.01058 314.4 13.7
311(9) 0.01213 314.4 13.9
341(10) 0.01093 314.4 14.1
343(10) 0.01037 314.4 14.4
353(10) 0.00924 314.4 14.8
328(10) 0.01072 314.4 15.2
321(9) 0.01155 314.4 15.7
316(9) 0.01151 314.4 16.3
337(10) 0.01001 314.4 17.0
351(10) 0.00940 314.4 17.8
345(10) 0.01021 314.4 18.8
350(10) 0.01067 314.4 20.0
358(10) 0.01027 314.4 21.5
345(10) 0.01019 314.3 23.3
364(11) 0.00896 314.3 25.5
365(11) 0.00895 314.3 28.2
390(10) 0.00960 314.3 31.4
369(10) 0.00981 314.3 35.2
377(10) 0.00923 314.3 39.8
363(10) 0.00959 314.3 45.2
382(10) 0.00935 314.3 51.5
375(10) 0.00991 314.3 58.7
398(11) 0.00853 314.3 66.7
435(11) 0.00777 314.3 75.4
428(11) 0.00804 314.3 84.5
424(11) 0.00832 314.3 93.4
439(11) 0.00845 314.3 101.4
462(11) 0.00757 314.3 107.4
471(12) 0.00708 314.2 110.7
485(12) 0.00688 314.2 110.6
468(11) 0.00771 314.2 107.1
440(11) 0.00845 314.2 100.9
427(11) 0.00807 314.2 92.8
417(11) 0.00794 314.2 83.8
395(11) 0.00874 314.2 74.7
408(11) 0.00880 314.2 66.0
383(10) 0.00969 314.2 58.0
377(11) 0.00906 314.2 50.8
352(10) 0.00916 314.2 44.5
349(10) 0.00983 314.2 39.1
312(9) 0.01190 314.2 34.5
357(10) 0.01027 314.2 30.6
336(10) 0.01057 314.2 27.4
365(11) 0.00855 314.1 24.7
323(9) 0.01125 314.1 22.5
361(10) 0.01034 314.1 20.6
339(10) 0.01062 314.1 19.1
328(10) 0.01038 314.1 17.9
331(10) 0.00938 314.1 16.8
331(10) 0.01035 314.1 15.9
346(10) 0.01074 314.1 15.2
354(10) 0.01027 314.1 14.5
344(10) 0.01026 314.1 13.9
312(10) 0.01062 314.1 13.5
331(10) 0.01026 314.1 13.0
311(9) 0.01177 314.1 12.7
338(10) 0.01074 314.1 12.3
326(10) 0.01101 314.1 12.1
313(10) 0.01072 314.0 11.8
321(10) 0.01041 314.0 11.6
331(9) 0.01124 314.0 11.5
337(10) 0.01077 314.0 11.3
348(10) 0.00974 314.0 11.2
319(10) 0.01054 314.0 11.1
318(9) 0.01111 314.0 11.0
314(9) 0.01180 314.0 11.0
289(9) 0.01266 314.0 11.0
324(10) 0.01053 314.1 11.0
322(10) 0.01052 314.1 11.0
342(10) 0.01055 314.1 11.0
332(9) 0.01115 314.1 11.1
330(10) 0.01053 314.1 11.2
321(10) 0.01089 314.1 11.3
307(9) 0.01131 314.1 11.4
330(10) 0.01058 314.1 11.6
330(9) 0.01129 314.1 11.7
318(10) 0.01103 314.1 12.0
323(10) 0.01075 314.2 12.2
342(10) 0.01005 314.2 12.5
317(9) 0.01155 314.2 12.8
331(9) 0.01124 314.2 13.1
316(9) 0.01131 314.2 13.5
337(10) 0.00953 314.2 13.9
295(9) 0.01192 314.2 14.4
341(10) 0.01044 314.2 14.9
349(10) 0.01067 314.2 15.4
370(10) 0.00955 314.3 16.0
348(10) 0.00981 314.3 16.6
316(10) 0.01107 314.3 17.3
346(10) 0.01081 314.3 17.9
374(10) 0.00988 314.3 18.6
338(10) 0.01031 314.3 19.3
360(10) 0.00915 314.3 19.9
338(10) 0.01087 314.3 20.6
340(10) 0.01083 314.3 21.2
352(10) 0.01051 314.3 21.8
333(10) 0.01003 314.4 22.4
339(10) 0.00937 314.4 23.0
369(11) 0.00893 314.4 23.7
345(10) 0.01071 314.4 24.5
356(10) 0.01043 314.4 25.4
348(10) 0.01027 314.4 26.4
325(10) 0.01064 314.4 27.5
339(10) 0.01035 314.4 28.8
329(9) 0.01119 314.4 30.2
362(10) 0.00995 314.5 31.9
346(10) 0.00983 314.5 33.7
310(10) 0.01068 314.5 35.8
324(10) 0.01081 314.5 38.1
324(9) 0.01158 314.5 40.7
340(10) 0.01071 314.5 43.5
335(10) 0.01044 314.5 46.6
329(10) 0.01030 314.5 49.9
367(10) 0.00932 314.5 53.6
371(10) 0.00996 314.5 57.5
330(9) 0.01118 314.6 61.8
360(10) 0.00952 314.6 66.3
366(10) 0.00929 314.6 71.0
356(10) 0.00976 314.6 76.0
377(10) 0.00978 314.6 81.2
366(10) 0.01006 314.6 86.5
416(11) 0.00825 314.6 91.7
412(11) 0.00820 314.6 96.9
429(11) 0.00821 314.6 101.9
400(10) 0.00931 314.7 106.4
411(11) 0.00866 314.7 110.3
383(11) 0.00896 314.7 113.5
406(11) 0.00835 314.7 115.8
437(11) 0.00829 314.7 117.0
420(11) 0.00883 314.7 117.2
399(11) 0.00897 314.7 116.2
406(11) 0.00823 314.7 114.2
372(10) 0.00955 314.7 111.3
383(10) 0.00962 314.7 107.5
399(10) 0.00930 314.8 103.1
406(11) 0.00848 314.8 98.2
367(10) 0.00934 314.8 93.1
401(11) 0.00858 314.8 87.8
377(10) 0.00958 314.8 82.5
392(10) 0.00946 314.8 77.2
391(11) 0.00906 314.8 72.1
382(11) 0.00850 314.8 67.3
341(10) 0.01026 314.8 62.6
369(10) 0.00994 314.9 58.3
352(10) 0.01047 314.9 54.2
361(10) 0.00918 314.9 50.3
352(11) 0.00899 314.9 46.8
344(10) 0.01046 314.9 43.5
347(10) 0.01064 314.9 40.5
369(10) 0.00991 314.9 37.8
353(10) 0.01000 314.9 35.3
333(10) 0.00995 314.9 33.0
336(10) 0.01079 314.9 30.9
329(9) 0.01136 315.0 29.0
336(10) 0.01095 315.0 27.3
338(10) 0.01004 315.0 25.7
359(11) 0.00882 315.0 24.3
346(10) 0.00978 315.0 23.0
333(9) 0.01118 315.0 21.8
354(10) 0.01022 315.0 20.8
329(10) 0.01039 315.0 19.8
319(10) 0.01020 315.0 18.9
347(10) 0.00971 315.1 18.1
323(9) 0.01146 315.1 17.4
311(9) 0.01129 315.1 16.7
327(10) 0.01056 315.1 16.1
341(10) 0.01000 315.1 15.6
346(10) 0.00988 315.1 15.1
339(10) 0.01091 315.1 14.6
338(10) 0.01064 315.1 14.2
363(10) 0.00925 315.1 13.8
358(10) 0.00954 315.2 13.4
309(9) 0.01155 315.2 13.1
342(10) 0.01087 315.2 12.8
322(9) 0.01113 315.2 12.5
314(10) 0.01101 315.2 12.2
341(10) 0.00976 315.2 12.0
331(10) 0.01077 315.2 11.8
311(9) 0.01192 315.2 11.6
314(9) 0.01113 315.2 11.4
350(10) 0.00945 315.2 11.2
335(10) 0.01081 315.3 11.0
326(10) 0.01100 315.3 10.9
331(9) 0.01130 315.3 10.8
338(10) 0.01003 315.3 10.7
333(10) 0.00996 315.3 10.6
359(10) 0.00928 315.3 10.5
312(9) 0.01182 315.3 10.4
331(9) 0.01128 315.3 10.3
331(10) 0.01033 315.3 10.3
306(10) 0.01083 315.4 10.2
317(10) 0.01099 315.4 10.2
330(9) 0.01116 315.4 10.1
343(10) 0.01076 315.4 10.1
312(10) 0.01108 315.4 10.1
328(10) 0.00961 315.4 10.1
321(10) 0.01093 315.4 10.1
322(9) 0.01147 315.4 10.2
314(9) 0.01183 315.4 10.2
312(9) 0.01138 315.4 10.2
323(10) 0.01006 315.5 10.3
322(10) 0.01070 315.5 10.3
299(9) 0.01251 315.5 10.4
324(9) 0.01142 315.5 10.5
341(10) 0.00987 315.5 10.6
326(10) 0.00992 315.5 10.7
299(9) 0.01154 315.5 10.8
310(9) 0.01218 315.5 10.9
319(9) 0.01128 315.5 11.1
339(10) 0.01003 315.6 11.2
355(10) 0.00947 315.6 11.4
359(10) 0.00973 315.6 11.6
350(10) 0.01060 315.6 11.8
325(10) 0.01037 315.6 12.0
318(10) 0.01085 315.6 12.2
332(10) 0.01018 315.6 12.5
324(10) 0.01055 315.6 12.7
310(9) 0.01209 315.6 13.0
348(10) 0.01009 315.6 13.3
321(10) 0.01103 315.7 13.7
337(10) 0.01022 315.7 14.0
317(10) 0.01107 315.7 14.4
329(9) 0.01137 315.7 14.9
360(10) 0.00978 315.7 15.3
319(10) 0.01108 315.7 15.8
326(10) 0.01043 315.7 16.4
326(10) 0.01078 315.7 17.0
337(9) 0.01110 315.7 17.6
338(10) 0.00997 315.8 18.3
339(10) 0.00989 315.8 19.0
339(10) 0.01018 315.8 19.9
331(10) 0.01104 315.8 20.8
365(10) 0.01025 315.8 21.7
331(10) 0.01107 315.8 22.8
363(10) 0.00955 315.8 24.0
356(10) 0.00956 315.8 25.2
349(10) 0.01005 315.8 26.6
340(9) 0.01110 315.8 28.1
356(10) 0.00980 315.9 29.7
358(10) 0.00926 315.9 31.4
373(10) 0.00923 315.9 33.3
370(10) 0.00979 315.9 35.3
336(9) 0.01114 315.9 37.4
362(10) 0.00935 315.9 39.7
354(10) 0.00912 315.9 42.2
354(10) 0.01001 315.9 44.8
358(10) 0.01024 315.9 47.5
388(10) 0.00947 316.0 50.4
408(11) 0.00860 316.0 53.3
408(11) 0.00786 316.0 56.4
394(11) 0.00876 316.0 59.5
385(10) 0.00967 316.0 62.6
404(11) 0.00901 316.0 65.6
413(11) 0.00860 316.0 68.6
409(11) 0.00810 316.0 71.4
407(11) 0.00853 316.0 74.0
394(10) 0.00922 316.0 76.4
418(11) 0.00870 316.1 78.4
397(11) 0.00873 316.1 80.2
406(11) 0.00805 316.1 81.8
405(11) 0.00812 316.1 83.0
411(11) 0.00896 316.1 84.1
403(11) 0.00904 316.1 85.0
411(11) 0.00832 316.1 85.8
413(11) 0.00799 316.1 86.5
408(11) 0.00840 316.1 87.2
399(10) 0.00925 316.2 88.0
406(11) 0.00871 316.2 88.8
412(11) 0.00841 316.2 89.6
429(11) 0.00762 316.2 90.4
392(11) 0.00884 316.2 91.3
388(10) 0.00957 316.2 92.1
406(11) 0.00891 316.2 92.9
403(11) 0.00852 316.2 93.5
403(11) 0.00853 316.2 93.9
427(11) 0.00827 316.3 94.1
400(10) 0.00928 316.3 94.1
426(11) 0.00808 316.3 93.6
399(11) 0.00810 316.3 92.9
423(11) 0.00791 316.3 91.7
442(11) 0.00818 316.3 90.2
422(11) 0.00871 316.3 88.3
387(11) 0.00905 316.3 86.1
398(11) 0.00827 316.3 83.6
403(11) 0.00827 316.3 80.9
393(10) 0.00920 316.4 77.9
379(10) 0.00983 316.4 74.9
404(11) 0.00832 316.4 71.7
411(11) 0.00818 316.4 68.6
416(11) 0.00844 316.4 65.4
409(11) 0.00896 316.4 62.2
378(10) 0.00987 316.4 59.1
348(10) 0.01008 316.4 56.1
342(10) 0.00958 316.4 53.2
361(10) 0.00976 316.5 50.4
355(10) 0.01054 316.5 47.7
388(10) 0.00953 316.5 45.2
358(10) 0.00996 316.5 42.8
360(10) 0.00909 316.5 40.5
357(10) 0.01001 316.5 38.3
353(10) 0.01038 316.5 36.3
335(10) 0.01091 316.5 34.4
337(10) 0.01035 316.5 32.6
332(10) 0.00960 316.5 30.9
315(10) 0.01101 316.6 29.4
307(9) 0.01211 316.6 27.9
316(9) 0.01178 316.6 26.6
338(10) 0.01026 316.6 25.3
324(10) 0.01004 316.6 24.2
304(9) 0.01145 316.6 23.1
319(9) 0.01180 316.6 22.1
313(9) 0.01170 316.6 21.2
321(10) 0.01074 316.6 20.3
337(10) 0.00968 316.7 19.5
354(10) 0.00962 316.7 18.8
346(10) 0.01090 316.7 18.1
331(10) 0.01061 316.7 17.5
338(10) 0.01005 316.7 16.9
327(10) 0.01064 316.7 16.4
339(10) 0.01015 316.7 15.9
319(9) 0.01172 316.7 15.4
314(9) 0.01157 316.7 15.0
325(10) 0.01007 316.7 14.6
310(9) 0.01132 316.8 14.2
337(10) 0.01040 316.8 13.9
313(9) 0.01186 316.8 13.6
314(10) 0.01104 316.8 13.3
335(10) 0.00993 316.8 13.1
318(10) 0.01101 316.8 12.9
301(9) 0.01179 316.8 12.6
308(9) 0.01213 316.8 12.5
324(10) 0.01059 316.8 12.3
322(10) 0.01041 316.9 12.1
359(10) 0.00933 316.9 12.0
324(9) 0.01135 316.9 11.9
347(10) 0.01072 316.9 11.8
322(9) 0.01109 316.9 11.7
353(10) 0.00926 316.9 11.6
345(10) 0.01001 317.0 11.6
347(10) 0.01029 317.0 11.5
349(10) 0.01080 317.0 11.5
331(10) 0.01057 317.1 11.5
337(10) 0.00954 317.1 11.6
309(9) 0.01145 317.1 11.6
328(9) 0.01118 317.2 11.7
294(9) 0.01284 317.2 11.7
320(10) 0.01081 317.2 11.9
317(10) 0.01014 317.3 12.0
354(10) 0.00984 317.3 12.2
348(10) 0.01072 317.3 12.4
324(9) 0.01113 317.3 12.6
312(10) 0.01081 317.4 12.9
320(10) 0.01028 317.4 13.3
339(10) 0.01036 317.4 13.7
317(9) 0.01176 317.5 14.3
337(10) 0.01080 317.5 15.1
324(10) 0.01046 317.5 16.6
316(10) 0.01064 317.6 19.4
333(10) 0.01041 317.6 24.9
363(10) 0.01023 317.6 34.5
380(10) 0.00971 317.7 49.6
380(11) 0.00905 317.7 69.3
402(11) 0.00822 317.7 89.8
435(12) 0.00752 317.8 104.5
420(11) 0.00891 317.8 106.3
393(11) 0.00893 317.8 94.6
343(10) 0.00980 317.8 75.7
339(10) 0.00974 317.9 56.8
351(10) 0.00968 317.9 42.1
331(9) 0.01121 317.9 32.8
325(10) 0.01100 318.0 28.1
323(10) 0.01040 318.0 26.3
336(10) 0.00996 318.0 26.0
341(10) 0.01049 318.1 26.6
366(10) 0.01020 318.1 27.5
346(10) 0.01038 318.1 28.6
373(11) 0.00884 318.2 29.8
344(10) 0.00963 318.2 31.2
334(10) 0.01067 318.2 32.7
351(10) 0.01066 318.3 34.3
349(10) 0.00996 318.3 36.0
364(10) 0.00915 318.3 37.8
377(10) 0.00910 318.4 39.6
350(10) 0.01026 318.4 41.4
354(10) 0.01055 318.4 43.3
381(10) 0.00915 318.4 45.2
389(11) 0.00860 318.5 47.0
380(10) 0.00922 318.5 48.8
398(10) 0.00918 318.5 50.4
376(10) 0.00982 318.6 51.9
382(11) 0.00888 318.6 53.2
396(11) 0.00844 318.6 54.2
382(10) 0.00922 318.7 55.0
374(10) 0.00972 318.7 55.4
357(10) 0.01057 318.7 55.5
366(10) 0.00953 318.8 55.3
369(11) 0.00888 318.8 54.8
382(11) 0.00902 318.8 54.0
376(10) 0.00992 318.9 52.8
390(10) 0.00941 318.9 51.5
344(10) 0.01057 318.9 49.9
358(10) 0.00908 319.0 48.2
361(10) 0.00983 319.0 46.3
378(10) 0.00982 319.0 44.4
355(10) 0.01031 319.0 42.4
340(10) 0.01018 319.1 40.4
342(10) 0.00961 319.1 38.4
368(10) 0.00944 319.1 36.5
360(10) 0.01031 319.2 34.6
345(10) 0.01084 319.2 32.8
362(10) 0.00939 319.2 31.0
347(10) 0.00955 319.3 29.3
343(10) 0.01033 319.3 27.7
343(10) 0.01068 319.3 26.2
352(10) 0.01039 319.4 24.8
360(10) 0.00962 319.4 23.4
345(10) 0.01013 319.4 22.2
352(10) 0.01023 319.5 21.0
332(9) 0.01110 319.5 19.9
352(10) 0.01015 319.5 18.9
335(10) 0.01048 319.5 17.9
309(9) 0.01138 319.6 17.0
343(10) 0.01002 319.6 16.2
325(9) 0.01151 319.6 15.4
344(10) 0.01019 319.7 14.7
341(10) 0.01044 319.7 14.1
319(10) 0.01090 319.7 13.5
334(10) 0.01060 319.8 12.9
331(9) 0.01109 319.8 12.4
337(10) 0.01038 319.8 12.0
317(10) 0.01045 319.9 11.5
322(10) 0.01098 319.9 11.2
314(9) 0.01155 319.9 10.8
332(9) 0.01125 320.0 10.5
310(9) 0.01113 320.0 10.2
320(10) 0.01056 320.0 9.9
341(10) 0.01024 320.1 9.7
317(9) 0.01161 320.1 9.5
354(10) 0.01050 320.1 9.3
350(10) 0.00998 320.1 9.2
316(10) 0.01067 320.2 9.0
326(10) 0.01042 320.2 8.9
328(9) 0.01122 320.2 8.8
360(10) 0.01026 320.3 8.7
316(10) 0.01102 320.3 8.6
301(10) 0.01091 320.3 8.5
320(10) 0.01060 320.4 8.4
324(9) 0.01128 320.4 8.4
313(9) 0.01191 320.4 8.3
297(9) 0.01187 320.5 8.2
313(10) 0.01028 320.5 8.1
328(10) 0.01054 320.5 8.0
319(9) 0.01149 320.6 7.9
318(9) 0.01182 320.6 7.7
322(10) 0.01067 320.6 7.6
295(9) 0.01151 320.6 7.4
315(9) 0.01111 320.7 7.3
338(10) 0.01087 320.7 7.1
350(10) 0.01053 320.7 7.0
319(10) 0.01096 320.8 6.8
333(10) 0.00969 320.8 6.7
316(10) 0.01062 320.8 6.5
298(9) 0.01225 320.9 6.4
328(10) 0.01087 320.9 6.3
339(10) 0.01031 320.9 6.2
322(10) 0.01030 321.0 6.1
327(10) 0.01053 321.0 6.0
345(10) 0.01071 321.0 6.0
329(10) 0.01087 321.1 5.9
331(10) 0.01061 321.1 5.9
351(10) 0.00943 321.1 5.9
313(9) 0.01145 321.2 5.9
321(9) 0.01164 321.2 5.9
310(9) 0.01160 321.2 6.0
329(10) 0.01014 321.2 6.0
313(9) 0.01117 321.3 6.1
328(10) 0.01069 321.3 6.2
315(9) 0.01181 321.3 6.4
339(10) 0.01013 321.4 6.6
338(10) 0.01017 321.4 6.9
342(10) 0.01000 321.4 7.2
327(9) 0.01120 321.5 7.7
352(10) 0.01049 321.5 8.3
334(10) 0.01044 321.5 9.2
343(10) 0.00987 321.6 10.6
328(10) 0.01073 321.6 13.1
334(10) 0.01052 321.6 17.5
365(10) 0.01020 321.7 25.2
379(10) 0.00928 321.7 37.7
397(11) 0.00848 321.7 55.8
459(12) 0.00753 321.7 78.7
490(12) 0.00726 321.8 103.1
545(12) 0.00688 321.8 122.4
572(13) 0.00600 321.8 128.6
517(13) 0.00636 321.9 118.2
454(11) 0.00781 321.9 96.6
418(11) 0.00871 321.9 72.2
382(10) 0.00981 322.0 50.4
342(10) 0.01047 322.0 33.9
347(10) 0.00919 322.0 22.9
344(10) 0.01011 322.1 16.3
345(10) 0.01079 322.1 12.5
350(10) 0.01055 322.1 10.5
342(10) 0.00996 322.2 9.3
314(10) 0.01040 322.2 8.5
320(10) 0.01089 322.2 8.0
330(9) 0.01114 322.3 7.6
329(10) 0.01106 322.3 7.3
311(9) 0.01115 322.3 7.1
299(9) 0.01127 322.3 6.9
301(9) 0.01165 322.4 6.8
322(9) 0.01144 322.4 6.7
344(10) 0.01037 322.4 6.7
316(10) 0.01091 322.5 6.7
329(10) 0.01012 322.5 6.7
322(10) 0.01093 322.5 6.7
320(9) 0.01162 322.6 6.8
315(9) 0.01135 322.6 6.8
322(10) 0.01050 322.6 6.9
349(10) 0.00982 322.7 6.9
341(10) 0.01022 322.7 7.0
344(10) 0.01080 322.7 7.1
337(10) 0.01049 322.8 7.2
326(10) 0.01094 322.8 7.3
333(10) 0.01059 322.8 7.4
329(10) 0.01046 322.9 7.5
308(9) 0.01198 322.9 7.6
322(10) 0.01073 322.9 7.7
326(10) 0.01002 322.9 7.7
329(10) 0.01043 323.0 7.8
336(10) 0.01051 323.0 7.9
329(9) 0.01142 323.0 7.9
336(10) 0.01039 323.1 8.0
334(10) 0.01017 323.1 8.0
340(10) 0.01016 323.1 8.0
333(10) 0.01044 323.2 8.0
343(10) 0.01100 323.2 8.0
344(10) 0.01016 323.2 7.9
337(10) 0.00943 323.3 7.9
318(9) 0.01120 323.3 7.9
324(9) 0.01129 323.3 7.8
302(9) 0.01247 323.4 7.7
328(10) 0.01023 323.4 7.7
357(11) 0.00885 323.4 7.7
343(10) 0.01016 323.4 7.6
340(10) 0.01074 323.5 7.6
331(9) 0.01141 323.5 7.7
317(9) 0.01109 323.5 7.9
329(10) 0.00992 323.6 8.4
342(10) 0.01007 323.6 9.3
320(9) 0.01148 323.6 10.8
341(10) 0.01087 323.7 12.9
345(10) 0.01026 323.7 15.6
361(11) 0.00877 323.7 18.6
379(11) 0.00896 323.8 21.1
411(11) 0.00907 323.8 22.1
388(10) 0.00943 323.8 21.1
359(10) 0.00963 323.9 18.4
354(10) 0.00913 323.9 15.2
369(10) 0.00913 323.9 12.2
326(9) 0.01156 324.0 9.8
336(10) 0.01056 324.0 8.1
313(9) 0.01123 324.0 7.0
330(10) 0.01012 324.0 6.3
340(10) 0.01001 324.1 5.8
359(10) 0.01040 324.1 5.6
322(9) 0.01110 324.1 5.4
310(9) 0.01118 324.2 5.3
331(10) 0.00996 324.2 5.2
320(10) 0.01080 324.2 5.1
309(9) 0.01209 324.3 5.0
316(9) 0.01146 324.3 5.0
302(9) 0.01185 324.3 5.0
335(10) 0.01027 324.4 4.9
312(9) 0.01164 324.4 5.0
328(9) 0.01142 324.4 5.0
319(9) 0.01128 324.5 5.0
321(10) 0.01086 324.5 5.0
315(9) 0.01110 324.5 5.1
329(10) 0.01094 324.5 5.2
320(9) 0.01154 324.6 5.3
324(10) 0.01081 324.6 5.4
341(10) 0.00980 324.6 5.5
311(9) 0.01142 324.7 5.6
298(9) 0.01219 324.7 5.8
310(9) 0.01188 324.7 5.9
297(9) 0.01204 324.8 6.1
329(10) 0.00999 324.8 6.3
326(10) 0.01065 324.8 6.5
316(9) 0.01133 324.9 6.8
352(10) 0.01059 324.9 7.0
335(10) 0.01026 324.9 7.3
331(10) 0.01016 325.0 7.5
326(10) 0.01095 325.0 7.8
336(10) 0.01080 325.0 8.1
324(9) 0.01128 325.1 8.4
341(10) 0.00966 325.1 8.6
327(10) 0.00983 325.1 8.9
347(10) 0.01019 325.1 9.1
325(9) 0.01148 325.2 9.4
342(10) 0.01069 325.2 9.5
338(10) 0.01038 325.2 9.7
341(10) 0.00934 325.3 9.8
346(10) 0.00996 325.3 9.8
342(10) 0.01098 325.3 9.8
343(10) 0.01072 325.4 9.7
326(10) 0.01013 325.4 9.6
335(10) 0.00955 325.4 9.5
340(10) 0.01023 325.5 9.3
336(10) 0.01107 325.5 9.1
326(9) 0.01109 325.5 8.9
316(9) 0.01128 325.5 8.7
344(10) 0.00958 325.5 8.4
322(10) 0.01079 325.5 8.2
329(9) 0.01145 325.5 8.0
347(10) 0.01033 325.5 7.8
321(10) 0.01062 325.5 7.6
314(10) 0.01054 325.4 7.4
308(9) 0.01129 325.4 7.2
334(9) 0.01125 325.4 7.0
316(9) 0.01154 325.4 6.9
307(9) 0.01151 325.4 6.8
306(9) 0.01124 325.4 6.7
325(10) 0.01098 325.3 6.6
336(10) 0.01106 325.3 6.6
313(9) 0.01152 325.3 6.6
335(10) 0.01028 325.3 6.5
339(10) 0.00994 325.3 6.6
341(10) 0.01040 325.3 6.6
329(9) 0.01120 325.3 6.6
337(10) 0.01008 325.2 6.7
317(10) 0.01088 325.2 6.8
315(10) 0.01095 325.2 6.9
347(10) 0.01029 325.2 7.1
332(9) 0.01113 325.2 7.2
339(10) 0.01019 325.2 7.4
327(10) 0.01013 325.1 7.6
343(10) 0.00995 325.1 7.9
326(9) 0.01117 325.1 8.1
328(9) 0.01134 325.1 8.4
335(10) 0.01003 325.1 8.7
341(10) 0.00937 325.1 9.1
305(9) 0.01147 325.1 9.5
347(10) 0.01019 325.0 9.9
315(9) 0.01188 325.0 10.3
343(10) 0.01025 325.0 10.8
336(10) 0.00955 325.0 11.3
315(9) 0.01134 325.0 11.9
343(10) 0.01040 325.0 12.5
331(9) 0.01112 324.9 13.1
331(10) 0.01013 324.9 13.7
342(10) 0.00912 324.9 14.4
327(10) 0.01087 324.9 15.1
323(9) 0.01158 324.9 15.8
314(9) 0.01158 324.9 16.5
340(10) 0.01024 324.8 17.2
337(10) 0.00976 324.8 18.0
332(10) 0.01058 324.8 18.7
321(9) 0.01174 324.8 19.3
336(10) 0.01069 324.8 19.9
334(10) 0.01027 324.8 20.5
328(10) 0.01011 324.8 21.0
335(10) 0.01002 324.7 21.4
353(10) 0.01038 324.7 21.8
339(10) 0.01098 324.7 22.0
361(10) 0.00950 324.7 22.2
343(10) 0.00998 324.7 22.3
371(10) 0.00926 324.7 22.4
360(10) 0.01032 324.6 22.4
347(10) 0.01041 324.6 22.4
331(10) 0.01060 324.6 22.5
337(10) 0.00986 324.6 22.7
327(10) 0.01043 324.6 23.2
353(10) 0.01053 324.6 24.0
370(10) 0.00985 324.6 25.5
346(10) 0.00995 324.5 28.0
341(10) 0.00986 324.5 32.0
365(10) 0.00968 324.5 37.8
380(10) 0.00969 324.5 45.7
384(11) 0.00904 324.5 55.9
353(10) 0.00954 324.5 68.0
373(10) 0.00945 324.4 80.5
370(10) 0.00965 324.4 91.2
395(10) 0.00938 324.4 96.7
417(11) 0.00819 324.4 94.9
387(11) 0.00863 324.4 86.6
369(10) 0.00963 324.4 74.6
366(10) 0.01003 324.4 61.7
396(10) 0.00942 324.3 49.7
351(10) 0.00965 324.3 39.5
353(10) 0.00910 324.3 31.5
347(10) 0.00988 324.3 25.6
335(9) 0.01116 324.3 21.3
352(10) 0.01053 324.3 18.4
335(10) 0.01034 324.2 16.3
307(10) 0.01062 324.2 14.9
323(10) 0.01046 324.2 13.9
336(10) 0.01097 324.2 13.2
318(9) 0.01173 324.2 12.7
324(10) 0.01070 324.2 12.3
335(10) 0.00935 324.2 12.0
344(10) 0.01040 324.1 11.8
331(9) 0.01121 324.1 11.7
328(9) 0.01143 324.1 11.7
350(10) 0.01013 324.1 11.8
358(10) 0.00921 324.1 11.9
346(10) 0.01042 324.1 12.1
316(9) 0.01167 324.0 12.5
335(9) 0.01118 324.0 12.9
337(10) 0.01024 324.0 13.4
331(10) 0.00987 324.0 14.2
339(10) 0.01035 324.0 15.1
329(9) 0.01141 324.0 16.4
337(10) 0.01075 323.9 17.9
355(10) 0.00953 323.9 19.9
331(10) 0.01022 323.9 22.3
351(10) 0.00979 323.9 25.2
339(10) 0.01096 323.9 28.5
321(10) 0.01062 323.9 32.4
330(10) 0.01011 323.9 36.5
327(10) 0.01019 323.8 40.7
343(10) 0.01010 323.8 44.5
356(10) 0.01046 323.8 47.1
329(10) 0.01084 323.8 48.1
360(10) 0.00907 323.8 47.2
358(10) 0.00938 323.8 44.6
328(10) 0.01076 323.7 40.9
319(9) 0.01177 323.7 36.7
330(10) 0.01087 323.7 32.5
328(10) 0.01026 323.7 28.6
367(10) 0.00917 323.7 25.2
338(10) 0.01060 323.7 22.2
327(9) 0.01137 323.7 19.7
336(10) 0.01029 323.6 17.6
316(10) 0.01037 323.6 15.9
292(9) 0.01203 323.6 14.5
340(10) 0.01066 323.6 13.4
334(9) 0.01115 323.6 12.5
332(10) 0.01050 323.6 11.7
315(10) 0.01058 323.5 11.1
291(9) 0.01196 323.5 10.5
319(9) 0.01162 323.5 10.0
337(10) 0.01103 323.5 9.6
341(10) 0.01023 323.5 9.2
329(10) 0.01025 323.5 8.8
319(9) 0.01186 323.5 8.5
345(10) 0.01071 323.4 8.1
323(10) 0.01060 323.4 7.8
305(10) 0.01072 323.4 7.6
314(9) 0.01110 323.4 7.3
344(10) 0.01079 323.4 7.1
323(9) 0.01138 323.4 6.9
321(10) 0.01106 323.3 6.6
370(11) 0.00851 323.3 6.4
336(10) 0.01069 323.3 6.3
335(10) 0.01105 323.3 6.1
325(9) 0.01144 323.3 5.9
315(10) 0.01084 323.3 5.8
310(10) 0.01036 323.2 5.6
344(10) 0.00991 323.2 5.5
310(9) 0.01203 323.2 5.3
306(9) 0.01194 323.2 5.2
320(10) 0.01093 323.2 5.1
328(10) 0.01019 323.2 5.0
343(10) 0.01018 323.2 4.9
347(10) 0.01062 323.1 4.8
318(9) 0.01157 323.1 4.7
332(10) 0.01102 323.1 4.6
336(10) 0.01026 323.1 4.6
348(10) 0.00978 323.1 4.5
336(10) 0.01105 323.1 4.4
316(9) 0.01163 323.0 4.3
339(10) 0.01024 323.0 4.3
329(10) 0.01012 323.0 4.2
338(10) 0.01021 323.0 4.2
327(9) 0.01138 323.0 4.1
343(10) 0.01048 323.0 4.1
339(10) 0.01003 323.0 4.1
312(10) 0.01097 322.9 4.0
342(10) 0.01013 322.9 4.0
353(10) 0.01044 322.9 4.0
346(10) 0.01010 322.9 3.9
330(10) 0.01037 322.9 3.9
340(10) 0.01018 322.9 3.9
318(9) 0.01118 322.8 3.9
338(10) 0.01096 322.8 3.9
328(10) 0.01049 322.8 3.9
327(10) 0.00977 322.8 3.9
325(10) 0.01057 322.8 3.9
351(10) 0.00985 322.8 3.8
311(9) 0.01198 322.8 3.8
339(10) 0.00995 322.7 3.9
328(10) 0.00998 322.7 3.9
312(9) 0.01143 322.7 3.9
337(10) 0.01082 322.7 3.9
330(9) 0.01144 322.7 3.9
342(10) 0.00997 322.7 3.9
318(10) 0.00999 322.6 3.9
322(10) 0.01050 322.6 3.9
356(10) 0.01041 322.6 4.0
339(10) 0.01094 322.6 4.0
335(10) 0.01019 322.6 4.0
330(10) 0.00931 322.6 4.1
322(10) 0.01060 322.6 4.1
293(9) 0.01267 322.5 4.1
294(9) 0.01253 322.5 4.2
326(10) 0.01014 322.5 4.2
303(10) 0.01082 322.5 4.3
321(9) 0.01128 322.5 4.3
337(9) 0.01109 322.5 4.4
338(10) 0.01089 322.4 4.4
330(10) 0.01061 322.4 4.5
302(10) 0.01081 322.4 4.5
325(10) 0.01048 322.4 4.6
314(9) 0.01196 322.4 4.7
323(9) 0.01135 322.4 4.7
325(10) 0.01033 322.3 4.8
319(10) 0.01040 322.3 4.9
320(10) 0.01073 322.3 5.0
304(9) 0.01229 322.3 5.1
331(10) 0.01106 322.3 5.2
313(9) 0.01124 322.3 5.3
304(9) 0.01144 322.3 5.4
336(10) 0.01051 322.2 5.5
346(10) 0.01062 322.2 5.6
302(9) 0.01214 322.2 5.7
319(10) 0.01043 322.2 5.9
354(10) 0.00943 322.2 6.0
339(10) 0.01025 322.2 6.2
334(9) 0.01118 322.1 6.3
335(10) 0.01046 322.1 6.5
354(10) 0.00958 322.1 6.7
334(10) 0.01030 322.1 6.9
339(10) 0.01022 322.1 7.1
352(10) 0.01071 322.1 7.3
347(10) 0.01027 322.1 7.5
329(10) 0.01014 322.0 7.7
312(9) 0.01116 322.0 8.0
330(9) 0.01129 322.0 8.2
345(10) 0.01078 322.0 8.5
344(10) 0.01003 322.0 8.8
338(10) 0.00949 322.0 9.1
336(10) 0.01032 321.9 9.5
343(10) 0.01050 321.9 9.9
353(10) 0.01056 321.9 10.3
333(10) 0.01077 321.9 10.7
351(10) 0.00935 321.9 11.2
340(10) 0.01051 321.9 11.7
322(9) 0.01150 321.9 12.3
355(10) 0.01041 321.8 12.9
366(10) 0.00950 321.8 13.6
345(10) 0.00944 321.8 14.4
334(10) 0.01046 321.8 15.3
350(10) 0.01070 321.8 16.3
364(10) 0.00981 321.8 17.4
357(10) 0.00983 321.7 18.8
353(10) 0.00913 321.7 20.4
328(10) 0.01057 321.7 22.4
334(10) 0.01094 321.7 25.0
358(10) 0.01030 321.7 28.5
379(10) 0.00910 321.7 33.5
341(10) 0.01008 321.7 40.9
402(11) 0.00823 321.6 51.8
415(11) 0.00891 321.6 67.7
411(11) 0.00863 321.6 89.4
462(12) 0.00736 321.6 117.7
457(12) 0.00737 321.6 151.5
519(13) 0.00633 321.6 187.6
587(13) 0.00629 321.5 220.7
552(12) 0.00656 321.5 246.3
568(13) 0.00611 321.5 262.7
527(12) 0.00647 321.5 268.0
530(12) 0.00653 321.5 259.0
498(12) 0.00748 321.5 236.6
480(11) 0.00758 321.4 208.1
440(11) 0.00798 321.4 181.0
427(11) 0.00795 321.4 159.8
437(11) 0.00804 321.4 144.9
419(11) 0.00890 321.4 134.2
434(11) 0.00785 321.4 124.3
420(11) 0.00822 321.4 113.4
436(11) 0.00787 321.3 102.2
404(11) 0.00878 321.3 92.3
394(10) 0.00939 321.3 84.9
405(11) 0.00860 321.3 80.6
415(11) 0.00822 321.3 79.4
417(11) 0.00825 321.3 81.2
418(11) 0.00860 321.2 85.5
409(11) 0.00906 321.2 91.7
410(11) 0.00839 321.2 99.2
406(11) 0.00850 321.2 107.2
436(11) 0.00818 321.2 114.7
433(11) 0.00835 321.2 120.7
459(11) 0.00805 321.2 124.1
457(11) 0.00771 321.1 124.2
472(12) 0.00696 321.1 120.9
435(11) 0.00812 321.1 114.6
432(11) 0.00840 321.1 106.0
415(11) 0.00894 321.1 96.3
432(11) 0.00803 321.1 86.3
409(11) 0.00783 321.0 76.5
373(10) 0.00976 321.0 67.3
389(10) 0.00953 321.0 59.0
340(10) 0.01071 321.0 51.7
357(10) 0.00978 321.0 45.3
365(11) 0.00876 321.0 39.8
361(10) 0.00969 321.0 35.1
379(10) 0.00977 320.9 31.1
306(9) 0.01215 320.9 27.8
344(10) 0.00947 320.9 25.0
346(10) 0.00924 320.9 22.6
354(10) 0.01006 320.9 20.7
332(9) 0.01114 320.9 19.0
319(9) 0.01155 320.8 17.6
353(10) 0.00989 320.8 16.4
340(10) 0.00963 320.8 15.4
301(9) 0.01159 320.8 14.5
319(9) 0.01176 320.8 13.7
338(10) 0.01062 320.8 13.0
369(10) 0.00908 320.8 12.4
352(10) 0.00927 320.7 11.9
352(10) 0.00955 320.7 11.4
340(10) 0.01091 320.7 11.0
352(10) 0.00997 320.7 10.6
323(10) 0.01101 320.7 10.2
338(10) 0.00988 320.7 9.9
318(10) 0.01100 320.6 9.6
335(9) 0.01120 320.6 9.4
363(10) 0.00954 320.6 9.1
330(10) 0.01068 320.6 8.9
324(10) 0.01077 320.6 8.8
345(10) 0.01035 320.6 8.6
329(9) 0.01134 320.5 8.5
345(10) 0.01044 320.5 8.4
344(10) 0.00973 320.5 8.3
336(10) 0.00992 320.5 8.2
335(10) 0.01091 320.5 8.1
355(10) 0.01062 320.5 8.1
342(10) 0.01007 320.5 8.1
343(10) 0.00951 320.4 8.1
322(10) 0.01067 320.4 8.1
316(9) 0.01167 320.4 8.2
345(10) 0.01074 320.4 8.3
315(9) 0.01132 320.4 8.4
347(10) 0.00936 320.4 8.6
338(10) 0.01035 320.3 8.8
317(9) 0.01190 320.3 9.1
344(10) 0.01076 320.3 9.6
342(10) 0.01023 320.3 10.1
324(10) 0.01011 320.3 10.7
339(10) 0.01040 320.3 11.6
332(9) 0.01109 320.3 12.6
352(10) 0.01034 320.2 13.7
329(10) 0.01064 320.2 15.1
337(10) 0.00921 320.2 16.7
318(10) 0.01102 320.2 18.5
322(9) 0.01147 320.2 20.3
351(10) 0.01034 320.2 22.0
339(10) 0.01038 320.1 23.4
332(10) 0.01014 320.1 24.2
341(10) 0.01031 320.1 24.3
326(9) 0.01156 320.1 23.8
325(9) 0.01118 320.1 22.6
360(10) 0.00973 320.1 21.0
339(10) 0.01014 320.1 19.3
360(10) 0.00929 320.0 17.7
355(10) 0.01054 320.0 16.2
328(9) 0.01111 320.0 14.8
329(10) 0.01076 320.0 13.7
334(10) 0.00998 320.0 12.7
320(10) 0.01106 320.0 12.0
328(9) 0.01144 319.9 11.4
305(9) 0.01201 319.9 10.9
346(10) 0.01013 319.9 10.6
327(10) 0.01085 319.9 10.4
353(10) 0.00981 319.9 10.2
324(9) 0.01149 319.9 10.1
356(10) 0.00985 319.8 10.1
344(10) 0.00980 319.8 10.1
328(10) 0.01082 319.8 10.1
339(10) 0.01058 319.8 10.2
334(10) 0.01106 319.8 10.3
371(11) 0.00901 319.8 10.4
337(10) 0.00997 319.9 10.5
360(10) 0.00938 320.0 10.7
350(10) 0.01005 320.1 10.8
339(10) 0.01094 320.2 11.0
341(10) 0.01011 320.3 11.2
358(10) 0.00947 320.4 11.4
331(10) 0.01081 320.5 11.6
331(10) 0.01098 320.5 11.9
343(10) 0.01086 320.6 12.1
343(10) 0.00987 320.7 12.4
338(10) 0.00991 320.8 12.6
341(10) 0.01008 320.9 12.9
320(9) 0.01154 321.0 13.2
347(10) 0.01077 321.1 13.5
358(10) 0.00950 321.2 13.9
337(10) 0.00979 321.3 14.2
322(10) 0.01103 321.3 14.5
341(10) 0.01073 321.4 14.9
357(10) 0.01040 321.5 15.3
360(10) 0.00956 321.6 15.6
352(10) 0.00916 321.7 16.0
352(10) 0.00982 321.8 16.4
320(9) 0.01163 321.9 16.8
317(9) 0.01154 322.0 17.2
351(10) 0.00956 322.1 17.6
354(11) 0.00900 322.1 17.9
344(10) 0.00994 322.2 18.3
352(10) 0.01068 322.3 18.7
343(10) 0.01041 322.4 19.0
316(9) 0.01111 322.5 19.3
338(10) 0.00975 322.6 19.6
356(10) 0.00959 322.7 19.8
355(10) 0.01054 322.8 20.1
342(10) 0.01045 322.9 20.3
348(10) 0.00994 323.0 20.6
346(10) 0.00985 323.0 20.9
337(10) 0.01025 323.1 21.1
352(10) 0.01061 323.2 21.4
367(10) 0.00956 323.3 21.7
334(10) 0.01047 323.4 22.1
343(10) 0.00978 323.5 22.5
350(10) 0.00983 323.6 22.9
349(10) 0.01076 323.7 23.3
339(10) 0.01041 323.8 23.8
350(10) 0.00981 323.8 24.4
321(9) 0.01124 323.9 25.1
334(10) 0.01044 324.0 25.8
361(10) 0.01029 324.1 26.6
349(10) 0.00993 324.2 27.5
336(10) 0.01031 324.3 28.6
355(10) 0.01001 324.4 29.8
369(10) 0.00989 324.5 31.1
366(10) 0.01017 324.6 32.5
377(11) 0.00905 324.7 34.2
377(11) 0.00894 324.7 36.0
360(10) 0.00959 324.8 38.1
364(10) 0.00979 324.9 40.3
375(10) 0.00990 325.0 42.9
375(10) 0.00913 325.1 45.8
388(11) 0.00866 325.2 49.3
376(10) 0.00934 325.3 53.5
378(10) 0.00965 325.4 58.9
397(10) 0.00935 325.5 66.1
413(11) 0.00833 325.5 75.9
383(11) 0.00862 325.6 89.2
436(11) 0.00779 325.7 107.0
452(11) 0.00812 325.8 129.9
454(11) 0.00809 325.9 158.0
478(12) 0.00712 326.0 190.2
481(12) 0.00666 326.1 223.8
534(12) 0.00648 326.2 253.5
566(12) 0.00661 326.3 272.1
560(12) 0.00653 326.3 274.7
543(13) 0.00635 326.4 262.4
540(13) 0.00611 326.5 241.8
508(12) 0.00707 326.6 220.0
509(12) 0.00720 326.7 201.9
528(12) 0.00689 326.8 189.5
517(12) 0.00665 326.9 183.2
524(13) 0.00614 327.0 182.0
496(12) 0.00691 327.1 183.5
500(12) 0.00746 327.2 185.0
480(11) 0.00758 327.2 183.5
466(12) 0.00731 327.3 177.5
464(12) 0.00712 327.4 166.9
452(11) 0.00769 327.5 153.0
415(11) 0.00894 327.6 137.7
455(11) 0.00769 327.7 122.5
474(12) 0.00725 327.8 108.5
435(11) 0.00772 327.9 96.1
432(11) 0.00787 328.0 85.6
426(11) 0.00853 328.0 76.8
449(11) 0.00781 328.1 69.8
403(11) 0.00867 328.2 64.2
422(11) 0.00807 328.3 60.0
426(11) 0.00841 328.4 56.7
392(10) 0.00945 328.5 54.4
381(10) 0.00950 328.6 52.6
395(11) 0.00862 328.7 51.4
387(11) 0.00887 328.8 50.6
401(11) 0.00897 328.9 50.1
400(10) 0.00929 328.9 49.8
380(10) 0.00918 329.0 49.6
385(11) 0.00878 329.1 49.6
379(10) 0.00908 329.2 49.6
422(11) 0.00853 329.3 49.7
401(10) 0.00923 329.4 49.8
400(11) 0.00838 329.5 50.0
364(10) 0.00910 329.6 50.1
389(11) 0.00866 329.7 50.2
391(10) 0.00941 329.7 50.3
368(10) 0.01013 329.8 50.4
399(11) 0.00854 329.9 50.6
405(11) 0.00818 330.0 50.7
380(10) 0.00909 330.1 51.0
361(10) 0.01014 330.2 51.4
392(10) 0.00957 330.3 52.2
374(10) 0.00965 330.4 53.4
378(11) 0.00866 330.5 55.3
376(10) 0.00932 330.6 58.2
376(10) 0.00977 330.6 62.4
374(10) 0.00989 330.7 68.0
385(10) 0.00908 330.8 75.3
393(11) 0.00821 330.9 84.1
400(11) 0.00871 331.0 93.8
437(11) 0.00848 331.1 103.4
414(11) 0.00864 331.2 111.0
429(11) 0.00795 331.3 114.4
416(11) 0.00805 331.4 112.5
406(11) 0.00858 331.4 106.3
399(10) 0.00942 331.5 97.8
390(10) 0.00935 331.6 89.4
395(11) 0.00876 331.7 82.1
415(11) 0.00790 331.8 76.6
407(11) 0.00832 331.9 72.9
389(10) 0.00952 332.0 70.6
399(10) 0.00912 332.1 69.2
420(11) 0.00825 332.2 67.6
390(11) 0.00885 332.2 65.4
370(10) 0.00964 332.3 61.9
342(10) 0.01076 332.4 57.5
375(10) 0.00941 332.5 52.5
384(11) 0.00889 332.6 47.3
398(11) 0.00848 332.7 42.4
371(10) 0.00943 332.8 37.9
355(10) 0.01050 332.9 33.8
357(10) 0.00995 333.0 30.3
344(10) 0.00992 333.1 27.3
347(10) 0.00974 333.1 24.8
367(10) 0.00948 333.2 22.7
346(10) 0.01073 333.3 20.9
347(10) 0.00990 333.4 19.4
373(10) 0.00916 333.5 18.1
355(10) 0.00958 333.6 17.1
370(10) 0.00969 333.7 16.1
352(10) 0.01060 333.8 15.3
338(10) 0.01077 333.9 14.6
370(10) 0.00917 333.9 13.9
368(10) 0.00945 334.0 13.3
341(10) 0.01046 334.1 12.8
356(10) 0.01048 334.2 12.3
311(10) 0.01107 334.3 11.9
348(10) 0.00908 334.4 11.4
339(10) 0.01031 334.5 11.1
347(10) 0.01045 334.6 10.7
348(10) 0.01076 334.7 10.4
355(10) 0.00999 334.8 10.1
368(11) 0.00869 334.8 9.8
350(10) 0.00997 334.9 9.5
376(10) 0.00969 335.0 9.3
321(9) 0.01148 335.1 9.0
355(10) 0.00974 335.2 8.8
317(10) 0.01053 335.3 8.6
338(10) 0.01006 335.4 8.4
352(10) 0.01024 335.5 8.3
373(10) 0.00985 335.6 8.1
339(10) 0.01011 335.6 7.9
338(10) 0.00960 335.7 7.8
350(10) 0.00974 335.8 7.6
347(10) 0.01063 335.9 7.5
341(10) 0.01063 336.0 7.4
344(10) 0.01012 336.1 7.3
344(10) 0.00974 336.2 7.1
317(10) 0.01035 336.3 7.0
307(9) 0.01217 336.4 6.9
337(10) 0.01061 336.4 6.8
336(10) 0.01047 336.5 6.8
362(11) 0.00900 336.6 6.7
328(10) 0.01022 336.7 6.6
329(9) 0.01140 336.8 6.5
355(10) 0.00971 336.9 6.4
362(10) 0.00964 337.0 6.4
354(10) 0.00963 337.1 6.3
316(9) 0.01126 337.2 6.2
318(9) 0.01187 337.3 6.1
348(10) 0.01018 337.3 6.1
368(10) 0.00924 337.4 6.0
346(10) 0.01027 337.5 6.0
346(10) 0.01021 337.6 5.9
321(9) 0.01161 337.7 5.8
311(9) 0.01158 337.8 5.8
334(10) 0.01063 337.9 5.7
357(10) 0.00980 338.0 5.7
363(10) 0.00998 338.1 5.6
345(10) 0.01081 338.1 5.6
334(10) 0.01023 338.2 5.6
344(10) 0.00952 338.3 5.5
324(10) 0.01094 338.4 5.5
311(9) 0.01189 338.5 5.4
343(10) 0.01091 338.6 5.4
334(10) 0.01000 338.7 5.4
333(10) 0.00978 338.8 5.4
331(10) 0.01054 338.9 5.3
356(10) 0.01034 339.0 5.3
346(10) 0.01080 339.0 5.3
340(10) 0.01004 339.1 5.3
323(10) 0.01010 339.2 5.3
341(10) 0.01014 339.3 5.2
368(10) 0.00991 339.4 5.2
332(9) 0.01120 339.5 5.2
327(10) 0.01069 339.6 5.2
325(10) 0.00999 339.7 5.2
348(10) 0.00993 339.8 5.2
350(10) 0.01039 339.8 5.2
337(9) 0.01113 339.9 5.2
318(10) 0.01074 340.0 5.2
338(10) 0.00936 340.1 5.2
336(10) 0.01076 340.2 5.2
379(10) 0.00990 340.3 5.2
328(9) 0.01117 340.4 5.3
326(10) 0.01038 340.5 5.3
320(10) 0.01006 340.6 5.3
308(9) 0.01159 340.7 5.3
338(10) 0.01085 340.7 5.3
337(10) 0.01081 340.8 5.3
325(10) 0.01015 340.9 5.4
351(11) 0.00890 341.0 5.4
301(9) 0.01172 341.1 5.4
346(10) 0.01072 341.2 5.5
359(10) 0.01006 341.3 5.5
355(10) 0.00984 341.4 5.5
355(10) 0.00978 341.5 5.6
337(10) 0.01061 341.5 5.6
340(10) 0.01090 341.6 5.7
330(10) 0.01066 341.7 5.7
340(10) 0.01012 341.8 5.8
332(10) 0.01057 341.9 5.8
344(10) 0.01019 342.0 5.9
319(9) 0.01160 342.1 5.9
350(10) 0.00992 342.2 6.0
349(10) 0.00963 342.3 6.1
331(10) 0.01031 342.3 6.1
361(10) 0.00982 342.4 6.2
347(10) 0.01064 342.5 6.3
345(10) 0.01016 342.6 6.4
368(10) 0.00927 342.7 6.5
349(10) 0.01012 342.8 6.6
355(10) 0.01019 342.9 6.7
323(9) 0.01170 342.9 6.8
333(10) 0.01035 342.9 6.9
348(10) 0.00962 342.9 7.0
372(11) 0.00899 342.9 7.1
352(10) 0.01042 343.0 7.2
354(10) 0.01040 343.0 7.3
348(10) 0.01004 343.0 7.5
366(10) 0.00924 343.0 7.6
384(10) 0.00926 343.0 7.8
353(10) 0.01063 343.1 7.9
337(10) 0.01096 343.1 8.1
335(10) 0.01012 343.1 8.3
325(10) 0.00983 343.1 8.4
350(10) 0.00983 343.1 8.6
339(10) 0.01094 343.2 8.8
355(10) 0.01055 343.2 9.1
367(10) 0.00939 343.2 9.3
350(10) 0.00925 343.2 9.6
355(10) 0.00982 343.2 9.8
340(10) 0.01091 343.3 10.1
325(9) 0.01138 343.3 10.4
337(10) 0.00999 343.3 10.7
359(11) 0.00896 343.3 11.1
354(10) 0.00950 343.3 11.5
336(9) 0.01111 343.4 11.9
351(10) 0.01054 343.4 12.4
377(10) 0.00942 343.4 12.9
369(10) 0.00915 343.4 13.4
355(10) 0.00967 343.4 14.0
350(10) 0.01063 343.5 14.6
372(10) 0.00952 343.5 15.4
386(10) 0.00910 343.5 16.2
360(10) 0.00974 343.5 17.0
353(10) 0.00981 343.5 18.0
338(10) 0.01087 343.6 19.0
349(10) 0.01031 343.6 20.1
365(10) 0.00925 343.6 21.3
348(10) 0.00965 343.6 22.6
343(10) 0.01009 343.6 23.9
369(10) 0.01002 343.7 25.3
338(10) 0.01087 343.7 26.7
361(10) 0.00944 343.7 28.0
382(11) 0.00897 343.7 29.3
396(11) 0.00901 343.7 30.6
395(10) 0.00949 343.8 31.6
367(10) 0.00916 343.8 32.6
395(11) 0.00847 343.8 33.3
395(11) 0.00863 343.8 34.0
394(11) 0.00893 343.8 34.6
380(10) 0.00980 343.9 35.2
373(10) 0.00946 343.9 35.9
364(10) 0.00937 343.9 36.7
367(10) 0.00942 343.9 37.7
369(10) 0.00991 343.9 38.9
389(10) 0.00952 344.0 40.4
379(10) 0.00938 344.0 42.1
387(11) 0.00841 344.0 44.1
366(10) 0.00949 344.0 46.4
399(10) 0.00930 344.0 49.0
395(10) 0.00932 344.1 52.0
412(11) 0.00833 344.1 55.3
381(11) 0.00858 344.1 58.9
399(11) 0.00870 344.1 63.0
405(10) 0.00913 344.1 67.4
420(11) 0.00887 344.2 72.1
406(11) 0.00884 344.2 77.2
409(11) 0.00799 344.2 82.6
423(11) 0.00817 344.2 88.2
431(11) 0.00868 344.2 94.1
444(11) 0.00837 344.3 100.1
436(11) 0.00793 344.3 106.0
406(11) 0.00828 344.3 111.8
465(12) 0.00729 344.3 117.3
457(11) 0.00809 344.3 122.4
436(11) 0.00861 344.4 126.7
490(12) 0.00712 344.4 130.2
477(12) 0.00710 344.4 132.7
477(12) 0.00727 344.4 134.3
426(11) 0.00870 344.4 134.8
429(11) 0.00862 344.5 134.4
437(11) 0.00821 344.5 133.2
449(11) 0.00768 344.5 131.2
447(11) 0.00781 344.5 128.8
457(11) 0.00812 344.5 126.0
433(11) 0.00822 344.6 122.9
443(11) 0.00778 344.6 119.6
432(11) 0.00796 344.6 116.2
424(11) 0.00829 344.6 112.8
422(11) 0.00874 344.6 109.3
444(11) 0.00808 344.7 105.8
431(11) 0.00816 344.7 102.4
397(11) 0.00865 344.7 98.9
397(11) 0.00897 344.7 95.4
439(11) 0.00842 344.7 91.9
415(11) 0.00867 344.8 88.5
408(11) 0.00829 344.8 85.0
450(11) 0.00765 344.8 81.6
445(11) 0.00803 344.8 78.3
424(11) 0.00877 344.8 75.0
395(11) 0.00893 344.9 71.7
396(11) 0.00824 344.9 68.5
399(11) 0.00860 344.9 65.3
409(11) 0.00859 344.9 62.2
390(10) 0.00956 345.0 59.2
404(11) 0.00845 345.0 56.3
372(11) 0.00879 345.0 53.5
381(10) 0.00924 345.0 50.8
410(11) 0.00883 345.0 48.3
387(10) 0.00962 345.1 45.9
401(11) 0.00836 345.1 43.7
401(11) 0.00809 345.1 41.8
380(10) 0.00927 345.1 40.7
397(10) 0.00925 345.1 41.4
411(10) 0.00922 345.2 46.2
401(11) 0.00856 345.2 57.9
403(11) 0.00772 345.2 77.6
409(11) 0.00836 345.2 101.1
401(10) 0.00919 345.2 118.4
437(11) 0.00845 345.3 119.3
423(11) 0.00836 345.3 102.3
389(11) 0.00853 345.3 76.7
399(11) 0.00836 345.3 53.1
360(10) 0.01030 345.3 37.0
359(10) 0.00993 345.4 28.3
376(11) 0.00897 345.4 24.3
357(10) 0.00927 345.4 22.4
333(10) 0.01043 345.4 21.3
360(10) 0.01013 345.4 20.6
349(10) 0.01061 345.5 19.9
332(10) 0.01091 345.5 19.3
357(10) 0.00952 345.5 18.8
366(10) 0.00962 345.5 18.3
377(10) 0.00985 345.5 17.8
339(10) 0.01073 345.6 17.4
396(11) 0.00856 345.6 17.0
354(10) 0.00985 345.6 16.7
357(10) 0.00991 345.6 16.4
343(10) 0.01083 345.6 16.1
330(10) 0.01076 345.7 15.8
368(10) 0.00932 345.7 15.6
344(10) 0.00990 345.7 15.4
359(10) 0.01018 345.7 15.2
359(10) 0.01035 345.7 15.1
386(11) 0.00893 345.8 14.9
366(10) 0.00950 345.8 14.8
354(10) 0.00989 345.8 14.7
352(10) 0.01023 345.8 14.7
337(10) 0.01093 345.8 14.7
362(10) 0.00956 345.9 14.7
357(10) 0.00943 345.9 14.8
357(10) 0.00971 345.9 14.9
327(9) 0.01136 345.9 15.0
341(10) 0.01084 345.9 15.2
365(10) 0.00967 346.0 15.5
361(10) 0.00930 346.0 15.8
354(10) 0.00993 346.0 16.3
390(10) 0.00929 346.0 16.8
399(10) 0.00938 346.0 17.5
350(10) 0.00988 346.1 18.4
375(11) 0.00850 346.1 19.5
357(10) 0.01008 346.1 21.1
392(10) 0.00917 346.1 23.4
406(10) 0.00918 346.1 26.9
412(11) 0.00864 346.2 32.4
403(11) 0.00804 346.2 40.8
416(11) 0.00853 346.2 53.4
441(11) 0.00845 346.2 70.8
486(11) 0.00768 346.2 93.3
522(12) 0.00669 346.3 119.4
556(13) 0.00582 346.3 145.4
574(13) 0.00585 346.3 164.9
587(13) 0.00628 346.3 170.4
580(13) 0.00628 346.3 159.6
479(12) 0.00735 346.4 137.7
474(12) 0.00701 346.4 112.4
460(11) 0.00770 346.4 89.0
407(10) 0.00923 346.4 70.1
397(10) 0.00909 346.4 56.4
407(11) 0.00843 346.5 47.6
412(11) 0.00784 346.5 42.7
408(11) 0.00837 346.5 40.6
389(10) 0.00956 346.5 40.2
390(10) 0.00924 346.5 41.1
381(11) 0.00893 346.6 42.8
406(11) 0.00852 346.6 44.9
418(11) 0.00862 346.6 47.3
398(10) 0.00929 346.6 49.6
430(11) 0.00828 346.6 51.7
411(11) 0.00824 346.7 53.2
386(11) 0.00865 346.7 54.0
380(10) 0.00920 346.7 53.9
396(10) 0.00939 346.7 53.0
404(11) 0.00872 346.7 51.4
380(11) 0.00907 346.8 49.3
390(11) 0.00904 346.8 47.1
383(10) 0.00939 346.8 44.8
388(10) 0.00961 346.8 42.6
364(10) 0.00946 346.8 40.6
368(10) 0.00915 346.9 38.9
384(10) 0.00921 346.9 37.3
367(10) 0.01002 346.9 36.0
377(10) 0.00993 346.9 34.9
375(10) 0.00941 347.0 34.0
371(11) 0.00881 347.0 33.2
357(10) 0.00972 347.0 32.5
380(10) 0.00972 347.0 31.9
381(10) 0.00973 347.0 31.4
394(11) 0.00879 347.1 30.9
393(11) 0.00830 347.1 30.5
381(10) 0.00937 347.1 30.0
380(10) 0.00970 347.1 29.6
353(10) 0.01047 347.1 29.2
365(10) 0.00953 347.2 28.8
375(11) 0.00857 347.2 28.4
381(11) 0.00904 347.2 28.1
385(10) 0.00959 347.2 27.9
380(10) 0.00978 347.2 27.7
377(10) 0.00920 347.3 27.6
375(11) 0.00884 347.3 27.7
388(10) 0.00921 347.3 28.0
408(11) 0.00902 347.3 28.5
393(10) 0.00925 347.3 29.3
393(10) 0.00908 347.4 30.6
396(11) 0.00835 347.4 32.6
401(11) 0.00881 347.4 35.4
398(10) 0.00933 347.4 39.5
398(10) 0.00939 347.4 45.2
433(11) 0.00812 347.5 52.9
427(11) 0.00802 347.5 63.1
448(11) 0.00770 347.5 75.9
456(11) 0.00803 347.5 91.5
490(12) 0.00739 347.5 109.3
541(13) 0.00638 347.6 128.4
573(13) 0.00583 347.6 146.5
539(12) 0.00659 347.6 160.2
512(12) 0.00725 347.6 165.7
496(12) 0.00730 347.6 161.1
490(12) 0.00710 347.7 147.9
476(12) 0.00703 347.7 129.7
423(11) 0.00817 347.7 109.9
420(11) 0.00889 347.7 91.0
405(11) 0.00896 347.7 74.3
411(11) 0.00837 347.8 60.3
411(11) 0.00837 347.8 49.0
390(10) 0.00934 347.8 40.2
398(10) 0.00937 347.8 33.4
382(11) 0.00892 347.8 28.3
381(11) 0.00844 347.9 24.4
373(11) 0.00891 347.9 21.5
385(10) 0.00949 347.9 19.3
400(10) 0.00929 347.9 17.5
384(10) 0.00923 347.9 16.1
384(11) 0.00839 348.0 14.9
366(10) 0.00943 348.0 13.9
378(10) 0.00956 348.0 13.0
389(10) 0.00951 348.0 12.3
334(10) 0.01057 348.0 11.6
370(11) 0.00888 348.1 11.1
368(10) 0.00939 348.1 10.6
342(10) 0.01067 348.1 10.2
353(10) 0.01040 348.1 9.8
361(10) 0.00968 348.1 9.5
362(11) 0.00903 348.2 9.2
357(10) 0.01004 348.2 8.9
369(10) 0.01000 348.2 8.7
369(10) 0.00995 348.2 8.6
380(10) 0.00931 348.2 8.5
360(11) 0.00881 348.3 8.4
342(10) 0.01014 348.3 8.3
344(10) 0.01078 348.3 8.3
348(10) 0.01043 348.3 8.3
363(10) 0.00950 348.3 8.4
363(11) 0.00876 348.4 8.5
350(10) 0.01004 348.4 8.7
376(10) 0.00999 348.4 8.8
356(10) 0.01034 348.4 9.1
357(10) 0.00951 348.4 9.4
352(10) 0.00923 348.5 9.6
367(10) 0.00959 348.5 9.9
366(10) 0.01020 348.5 10.2
368(10) 0.00986 348.5 10.5
338(10) 0.01025 348.5 10.7
364(11) 0.00891 348.6 10.8
355(10) 0.00954 348.6 10.8
371(10) 0.00997 348.6 10.6
337(10) 0.01080 348.6 10.4
350(10) 0.00974 348.6 10.1
389(11) 0.00858 348.6 9.7
384(11) 0.00894 348.5 9.4
359(10) 0.01044 348.5 9.0
389(10) 0.00908 348.5 8.6
379(11) 0.00880 348.5 8.3
365(10) 0.00916 348.4 8.0
355(10) 0.00981 348.4 7.7
354(10) 0.01071 348.4 7.5
335(10) 0.01058 348.4 7.3
356(10) 0.00933 348.4 7.2
364(10) 0.00926 348.3 7.0
349(10) 0.00988 348.3 6.9
362(10) 0.01023 348.3 6.9
340(10) 0.00996 348.3 6.9
367(11) 0.00859 348.3 6.8
335(10) 0.01044 348.2 6.9
321(9) 0.01126 348.2 6.9
334(9) 0.01121 348.2 7.0
330(10) 0.01076 348.2 7.0
358(11) 0.00902 348.2 7.1
336(10) 0.01032 348.1 7.2
344(10) 0.01029 348.1 7.4
364(10) 0.01018 348.1 7.6
360(10) 0.00967 348.1 7.7
350(10) 0.00948 348.1 7.9
355(10) 0.00986 348.0 8.2
352(10) 0.01022 348.0 8.5
365(10) 0.01008 348.0 8.8
385(11) 0.00898 348.0 9.1
404(11) 0.00796 348.0 9.5
365(10) 0.00929 347.9 9.9
364(10) 0.01010 347.9 10.4
362(10) 0.01011 347.9 10.9
385(11) 0.00898 347.9 11.6
370(11) 0.00892 347.9 12.3
365(10) 0.00945 347.8 13.1
379(10) 0.00987 347.8 14.0
369(10) 0.00998 347.8 15.1
352(10) 0.01014 347.8 16.4
359(10) 0.00934 347.7 17.9
367(10) 0.00943 347.7 19.8
399(10) 0.00934 347.7 22.1
387(10) 0.00948 347.7 25.0
401(11) 0.00873 347.7 28.8
417(11) 0.00784 347.6 33.7
384(11) 0.00900 347.6 40.2
429(11) 0.00871 347.6 48.6
418(11) 0.00853 347.6 59.3
416(11) 0.00817 347.6 72.7
453(12) 0.00731 347.5 89.1
470(12) 0.00728 347.5 108.3
470(11) 0.00784 347.5 129.7
456(11) 0.00779 347.5 152.0
475(12) 0.00708 347.5 172.6
538(12) 0.00643 347.4 187.8
544(12) 0.00666 347.4 194.0
526(12) 0.00704 347.4 189.4
485(12) 0.00727 347.4 175.6
460(12) 0.00726 347.4 156.3
432(11) 0.00803 347.3 135.2
439(11) 0.00811 347.3 114.9
412(11) 0.00901 347.3 97.0
382(11) 0.00884 347.3 81.9
379(11) 0.00871 347.3 69.9
392(11) 0.00852 347.2 60.7
401(10) 0.00928 347.2 54.0
371(10) 0.00989 347.2 49.3
363(10) 0.00967 347.2 46.2
383(11) 0.00853 347.2 44.1
388(11) 0.00870 347.1 42.8
355(10) 0.01022 347.1 41.9
367(10) 0.01006 347.1 40.9
385(11) 0.00893 347.1 39.8
376(11) 0.00882 347.1 38.4
378(11) 0.00905 347.0 36.7
352(10) 0.01035 347.0 34.7
362(10) 0.01037 347.0 32.4
397(11) 0.00888 347.0 30.1
357(10) 0.00920 346.9 27.7
368(10) 0.00944 346.9 25.4
373(10) 0.00994 346.9 23.3
361(10) 0.01017 346.9 21.3
366(10) 0.00959 346.9 19.5
360(11) 0.00889 346.8 17.8
355(10) 0.00965 346.8 16.4
372(10) 0.00983 346.8 15.1
364(10) 0.00999 346.8 13.9
353(10) 0.00995 346.8 12.9
347(10) 0.00961 346.7 12.0
338(10) 0.01001 346.7 11.2
355(10) 0.01052 346.7 10.5
371(10) 0.00957 346.7 10.0
344(10) 0.01004 346.7 9.4
351(10) 0.00959 346.6 9.0
328(10) 0.01032 346.6 8.6
349(10) 0.01059 346.6 8.2
365(10) 0.00985 346.6 7.9
340(10) 0.01028 346.6 7.6
346(10) 0.00965 346.5 7.4
348(10) 0.00989 346.5 7.2
345(10) 0.01077 346.5 7.0
342(10) 0.01034 346.5 6.8
364(10) 0.00973 346.5 6.6
373(10) 0.00913 346.4 6.5
360(10) 0.00962 346.4 6.3
356(10) 0.01035 346.4 6.2
339(10) 0.01054 346.4 6.1
361(10) 0.00917 346.4 6.0
347(10) 0.00973 346.3 5.9
355(10) 0.00982 346.3 5.8
362(10) 0.01017 346.3 5.8
350(10) 0.00971 346.3 5.7
319(10) 0.01077 346.2 5.6
327(10) 0.01083 346.2 5.6
357(10) 0.01025 346.2 5.5
380(10) 0.00985 346.2 5.5
334(10) 0.01028 346.2 5.5
355(10) 0.00927 346.1 5.4
350(10) 0.01014 346.1 5.4
356(10) 0.01029 346.1 5.4
351(10) 0.01077 346.1 5.4
358(10) 0.00965 346.1 5.4
380(11) 0.00852 346.0 5.4
361(10) 0.00964 346.0 5.4
340(10) 0.01066 346.0 5.4
364(10) 0.01021 346.0 5.4
372(10) 0.00921 346.0 5.4
362(11) 0.00868 345.9 5.4
352(10) 0.01012 345.9 5.4
337(10) 0.01107 345.9 5.5
356(10) 0.01030 345.9 5.5
346(10) 0.01016 345.9 5.5
364(11) 0.00847 345.8 5.5
350(10) 0.00997 345.8 5.6
381(10) 0.00975 345.8 5.6
354(10) 0.01040 345.8 5.7
345(10) 0.01011 345.8 5.7
361(10) 0.00919 345.7 5.8
325(10) 0.01086 345.7 5.8
351(10) 0.01063 345.8 5.9
355(10) 0.01059 345.8 6.0
347(10) 0.01021 345.8 6.0
349(10) 0.00957 345.8 6.1
344(10) 0.01007 345.9 6.2
347(10) 0.01066 345.9 6.3
363(10) 0.00986 345.9 6.4
364(10) 0.00952 345.9 6.5
351(10) 0.00951 345.9 6.6
371(10) 0.00914 346.0 6.7
359(10) 0.01031 346.0 6.8
326(10) 0.01105 346.0 6.9
342(10) 0.01008 346.0 7.1
365(10) 0.00935 346.0 7.2
357(10) 0.01005 346.1 7.4
349(10) 0.01070 346.1 7.5
368(10) 0.00912 346.1 7.7
347(10) 0.01003 346.1 7.8
371(10) 0.00908 346.1 8.0
363(10) 0.00969 346.2 8.2
373(10) 0.00976 346.2 8.4
364(10) 0.00955 346.2 8.6
352(10) 0.00954 346.2 8.9
351(10) 0.01012 346.3 9.1
361(10) 0.01000 346.3 9.4
356(10) 0.01040 346.3 9.7
357(10) 0.00941 346.3 10.0
364(11) 0.00901 346.3 10.3
342(10) 0.01038 346.4 10.6
376(10) 0.00952 346.4 11.0
337(10) 0.01096 346.4 11.4
354(10) 0.00983 346.4 11.8
359(11) 0.00900 346.4 12.3
344(10) 0.01011 346.5 12.8
328(10) 0.01088 346.5 13.4
366(10) 0.01014 346.5 13.9
354(10) 0.00965 346.5 14.6
325(10) 0.00998 346.5 15.3
355(10) 0.00953 346.6 16.0
373(10) 0.00982 346.6 16.8
357(10) 0.01041 346.6 17.7
362(10) 0.00961 346.6 18.6
367(11) 0.00858 346.6 19.6
355(10) 0.00965 346.7 20.7
358(10) 0.01043 346.7 21.9
396(10) 0.00916 346.7 23.2
350(10) 0.01019 346.7 24.5
366(11) 0.00897 346.8 26.0
378(10) 0.00911 346.8 27.5
371(10) 0.01003 346.8 29.2
363(10) 0.00990 346.8 31.0
354(10) 0.00959 346.8 32.9
365(10) 0.00911 346.9 34.9
378(10) 0.00925 346.9 37.0
369(10) 0.00999 346.9 39.2
384(10) 0.00925 346.9 41.4
392(11) 0.00881 346.9 43.8
387(11) 0.00850 347.0 46.2
392(11) 0.00855 347.0 48.6
382(10) 0.00966 347.0 51.0
343(10) 0.01053 347.0 53.4
378(11) 0.00848 347.0 55.7
366(10) 0.00956 347.1 57.8
400(11) 0.00877 347.1 59.8
391(10) 0.00954 347.1 61.5
412(11) 0.00878 347.1 62.9
396(11) 0.00869 347.2 64.0
419(11) 0.00786 347.2 64.8
401(11) 0.00899 347.2 65.1
394(10) 0.00943 347.2 65.1
396(11) 0.00870 347.2 64.8
372(10) 0.00924 347.3 64.1
377(10) 0.00959 347.3 63.2
391(10) 0.00923 347.3 62.0
377(10) 0.00978 347.3 60.6
336(10) 0.01042 347.3 59.1
363(10) 0.00936 347.4 57.4
391(11) 0.00884 347.4 55.7
389(10) 0.00944 347.4 53.9
397(10) 0.00934 347.4 52.1
398(11) 0.00880 347.4 50.3
384(11) 0.00887 347.5 48.6
380(10) 0.00937 347.5 47.0
398(10) 0.00923 347.5 45.4
389(10) 0.00955 347.5 43.9
391(10) 0.00912 347.6 42.6
391(11) 0.00852 347.6 41.5
380(10) 0.00925 347.6 40.5
389(10) 0.00939 347.6 39.8
398(10) 0.00940 347.6 39.2
405(11) 0.00857 347.7 38.9
414(11) 0.00779 347.7 38.9
425(11) 0.00805 347.7 39.1
404(10) 0.00921 347.7 39.7
385(10) 0.00961 347.7 40.5
402(11) 0.00878 347.8 41.7
408(11) 0.00803 347.8 43.3
405(11) 0.00881 347.8 45.1
416(11) 0.00891 347.8 47.3
403(10) 0.00908 347.8 49.7
428(11) 0.00812 347.9 52.3
420(11) 0.00807 347.9 55.0
395(11) 0.00887 347.9 57.6
443(11) 0.00838 347.9 60.0
424(11) 0.00846 347.9 61.8
405(11) 0.00844 348.0 62.9
409(11) 0.00791 348.0 63.2
400(11) 0.00852 348.0 62.8
424(11) 0.00876 348.0 61.8
416(11) 0.00878 348.1 60.3
448(11) 0.00759 348.1 58.7
429(11) 0.00789 348.1 57.1
399(11) 0.00859 348.1 55.6
398(10) 0.00940 348.1 54.3
396(10) 0.00912 348.2 53.2
398(11) 0.00876 348.2 52.5
407(11) 0.00847 348.2 52.0
402(11) 0.00859 348.2 51.8
401(10) 0.00934 348.2 52.0
422(11) 0.00816 348.3 52.5
409(11) 0.00826 348.3 53.3
435(11) 0.00784 348.3 54.4
423(11) 0.00852 348.3 55.9
444(11) 0.00838 348.3 57.4
405(11) 0.00855 348.4 59.0
414(11) 0.00800 348.4 60.1
408(11) 0.00863 348.4 60.5
443(11) 0.00813 348.4 60.0
409(10) 0.00913 348.5 58.9
391(11) 0.00861 348.5 57.6
378(11) 0.00882 348.5 56.2
429(11) 0.00798 348.5 54.8
397(10) 0.00919 348.5 53.5
405(10) 0.00925 348.6 52.3
400(11) 0.00838 348.6 51.2
415(12) 0.00745 348.6 50.0
396(11) 0.00868 348.6 48.8
411(11) 0.00896 348.6 47.6
398(10) 0.00933 348.7 46.4
402(11) 0.00844 348.7 45.1
384(11) 0.00872 348.7 43.9
405(11) 0.00889 348.7 42.6
389(10) 0.00964 348.7 41.4
404(10) 0.00922 348.8 40.1
412(11) 0.00832 348.8 38.9
377(11) 0.00850 348.8 37.8
369(10) 0.00934 348.8 36.6
387(10) 0.00951 348.8 35.5
384(10) 0.00976 348.9 34.5
368(10) 0.00960 348.9 33.5
382(11) 0.00859 348.9 32.5
367(10) 0.00964 348.9 31.5
376(10) 0.00992 349.0 30.6
384(10) 0.00934 349.0 29.8
372(10) 0.00930 349.0 28.9
389(11) 0.00856 349.0 28.1
367(10) 0.00968 349.0 27.4
395(10) 0.00931 349.1 26.6
373(10) 0.00959 349.1 25.8
362(10) 0.00970 349.1 25.1
383(11) 0.00868 349.1 24.3
377(10) 0.00925 349.1 23.6
386(10) 0.00969 349.2 22.9
377(10) 0.00916 349.2 22.2
392(11) 0.00855 349.2 21.5
378(10) 0.00912 349.2 20.8
400(11) 0.00880 349.2 20.1
372(10) 0.01010 349.3 19.4
380(10) 0.00923 349.3 18.7
371(10) 0.00935 349.3 18.1
367(10) 0.00967 349.3 17.5
394(10) 0.00912 349.4 16.9
378(10) 0.00992 349.4 16.3
368(10) 0.00927 349.4 15.8
376(11) 0.00898 349.4 15.3
369(10) 0.00952 349.4 14.8
355(10) 0.01028 349.5 14.3
353(10) 0.01046 349.5 13.8
360(10) 0.00977 349.5 13.4
382(11) 0.00865 349.5 13.0
389(11) 0.00842 349.5 12.6
352(10) 0.01037 349.6 12.3
374(10) 0.01001 349.6 11.9
379(10) 0.00918 349.6 11.6
385(11) 0.00854 349.6 11.3
383(10) 0.00907 349.6 11.0
372(10) 0.00990 349.7 10.7
342(10) 0.01085 349.7 10.5
354(10) 0.00946 349.7 10.3
364(11) 0.00891 349.7 10.0
356(10) 0.00982 349.8 9.8
375(10) 0.00989 349.8 9.6
355(10) 0.01063 349.8 9.4
357(10) 0.00970 349.8 9.3
348(11) 0.00901 349.8 9.1
355(10) 0.00990 349.9 9.0
381(10) 0.00988 349.9 8.8
369(10) 0.00981 349.9 8.7
348(10) 0.01010 349.9 8.6
383(11) 0.00857 349.9 8.5
373(10) 0.00919 350.0 8.4
373(10) 0.00992 350.0 8.3
331(9) 0.01116 350.0 8.2
331(10) 0.01063 350.0 8.2
346(10) 0.00925 350.0 8.1
331(10) 0.01040 350.1 8.1
372(10) 0.00989 350.1 8.1
397(10) 0.00912 350.1 8.0
378(10) 0.00917 350.1 8.0
371(11) 0.00892 350.1 8.1
364(10) 0.00945 350.2 8.1
380(10) 0.00978 350.2 8.1
368(10) 0.00964 350.2 8.2
385(11) 0.00883 350.2 8.3
357(10) 0.00992 350.3 8.4
366(10) 0.00954 350.3 8.5
362(10) 0.01025 350.3 8.6
353(10) 0.01021 350.3 8.8
345(10) 0.00984 350.3 8.9
343(10) 0.00976 350.4 9.0
375(10) 0.00939 350.4 9.2
376(10) 0.00984 350.4 9.2
371(10) 0.00952 350.4 9.3
366(10) 0.00946 350.4 9.3
397(11) 0.00853 350.5 9.4
360(10) 0.01017 350.5 9.4
350(10) 0.01056 350.5 9.4
364(10) 0.00914 350.5 9.5
389(11) 0.00850 350.5 9.6
365(10) 0.00969 350.6 9.7
349(10) 0.01045 350.6 9.8
355(10) 0.01060 350.6 10.0
340(10) 0.01056 350.6 10.2
344(10) 0.00949 350.7 10.5
344(10) 0.00990 350.7 10.7
368(10) 0.00977 350.7 11.1
352(10) 0.01073 350.7 11.4
392(11) 0.00881 350.7 11.8
381(11) 0.00842 350.8 12.3
374(10) 0.00930 350.8 12.8
377(10) 0.00971 350.8 13.3
370(10) 0.01004 350.8 13.9
377(10) 0.00943 350.8 14.6
389(11) 0.00820 350.9 15.3
387(10) 0.00916 350.9 16.1
385(10) 0.00977 350.9 17.0
362(10) 0.01013 350.9 18.1
410(11) 0.00827 350.9 19.3
395(11) 0.00806 351.0 20.7
377(10) 0.00928 351.0 22.2
389(10) 0.00964 351.0 24.0
376(10) 0.00948 351.0 26.1
375(10) 0.00943 351.1 28.4
392(11) 0.00855 351.1 31.0
376(10) 0.00928 351.1 33.7
375(10) 0.00980 351.1 36.6
374(10) 0.00985 351.1 39.3
394(11) 0.00851 351.2 41.7
391(11) 0.00880 351.2 43.4
393(11) 0.00875 351.2 44.0
381(10) 0.00970 351.2 43.6
395(10) 0.00925 351.2 42.0
384(10) 0.00926 351.3 39.7
379(11) 0.00904 351.3 36.9
400(11) 0.00877 351.3 33.9
352(10) 0.01055 351.3 31.0
346(10) 0.01025 351.3 28.3
375(11) 0.00895 351.4 25.9
366(10) 0.00974 351.4 23.7
370(10) 0.00948 351.4 22.0
366(10) 0.01011 351.4 20.5
362(10) 0.00988 351.4 19.3
370(10) 0.00946 351.5 18.3
393(11) 0.00871 351.5 17.6
353(10) 0.01005 351.5 17.1
388(10) 0.00951 351.5 16.7
372(10) 0.00931 351.6 16.4
372(10) 0.00909 351.6 16.2
389(11) 0.00899 351.6 16.2
373(10) 0.00987 351.6 16.2
346(10) 0.01075 351.6 16.3
373(10) 0.00937 351.7 16.5
369(11) 0.00894 351.7 16.7
372(10) 0.00959 351.7 17.0
395(10) 0.00924 351.7 17.3
376(10) 0.00997 351.7 17.7
387(11) 0.00900 351.8 18.1
403(11) 0.00797 351.8 18.6
359(10) 0.00979 351.8 19.2
353(10) 0.01050 351.8 19.8
367(10) 0.01007 351.8 20.5
361(10) 0.00960 351.9 21.3
370(11) 0.00858 351.9 22.2
363(10) 0.00982 351.9 23.2
389(10) 0.00956 351.9 24.3
390(10) 0.00944 352.0 25.6
412(11) 0.00863 352.0 27.1
381(11) 0.00874 352.0 28.8
408(11) 0.00863 352.0 30.9
381(10) 0.00981 352.0 33.3
405(11) 0.00904 352.1 36.2
415(11) 0.00855 352.1 39.8
410(11) 0.00815 352.1 43.9
390(11) 0.00876 352.1 48.9
442(11) 0.00835 352.1 54.7
428(11) 0.00837 352.2 61.4
430(11) 0.00798 352.2 69.2
444(11) 0.00773 352.2 77.8
458(11) 0.00756 352.2 87.1
466(11) 0.00803 352.2 96.8
453(11) 0.00801 352.3 106.2
463(11) 0.00776 352.3 114.4
495(12) 0.00691 352.3 120.3
525(13) 0.00636 352.3 123.1
480(11) 0.00774 352.4 122.0
507(12) 0.00705 352.4 117.5
475(12) 0.00735 352.4 110.3
459(12) 0.00727 352.4 101.6
459(11) 0.00769 352.4 92.2
453(11) 0.00823 352.5 83.0
431(11) 0.00819 352.5 74.4
435(11) 0.00759 352.5 66.7
406(11) 0.00865 352.5 59.8
400(11) 0.00894 352.5 53.9
378(10) 0.00988 352.6 48.9
380(11) 0.00896 352.6 44.7
364(10) 0.00940 352.6 41.1
387(11) 0.00907 352.6 38.1
405(11) 0.00900 352.6 35.7
405(10) 0.00924 352.7 33.6
388(11) 0.00889 352.7 31.8
393(11) 0.00834 352.7 30.3
379(11) 0.00902 352.7 29.0
398(10) 0.00916 352.7 27.9
381(10) 0.00974 352.8 26.9
381(10) 0.00922 352.8 25.9
355(10) 0.00946 352.8 25.1
347(10) 0.01004 352.8 24.3
366(10) 0.01004 352.9 23.5
385(10) 0.00952 352.9 22.8
367(10) 0.00952 352.9 22.2
369(11) 0.00880 352.9 21.5
369(10) 0.00939 352.9 20.9
372(10) 0.01010 353.0 20.4
397(10) 0.00930 353.0 19.8
360(10) 0.00990 353.0 19.3
358(10) 0.00922 353.0 18.8
353(10) 0.00984 353.0 18.3
376(10) 0.00979 353.1 17.9
387(10) 0.00945 353.1 17.4
358(10) 0.00971 353.1 17.0
351(10) 0.00934 353.1 16.6
356(10) 0.00989 353.1 16.2
387(10) 0.00968 353.2 15.8
372(10) 0.00973 353.2 15.4
365(10) 0.00982 353.2 15.1
337(10) 0.00999 353.2 14.7
340(10) 0.01021 353.3 14.4
373(10) 0.00985 353.3 14.1
354(10) 0.01035 353.3 13.8
348(10) 0.01035 353.3 13.6
354(10) 0.00970 353.3 13.3
361(10) 0.00955 353.4 13.0
361(10) 0.01026 353.4 12.8
352(10) 0.01030 353.4 12.6
350(10) 0.00998 353.4 12.4
354(10) 0.00968 353.4 12.2
369(10) 0.00935 353.5 12.0
375(10) 0.01000 353.5 11.8
366(10) 0.00956 353.5 11.7
356(10) 0.00984 353.5 11.5
345(10) 0.00996 353.5 11.4
354(10) 0.01002 353.6 11.3
382(10) 0.00967 353.6 11.1
367(10) 0.00957 353.6 11.1
365(10) 0.00921 353.6 11.0
386(11) 0.00856 353.6 10.9
354(10) 0.01029 353.7 10.8
349(10) 0.01067 353.7 10.8
381(10) 0.00919 353.7 10.8
353(10) 0.00953 353.7 10.7
321(9) 0.01118 353.8 10.7
332(10) 0.01097 353.8 10.7
332(9) 0.01120 353.8 10.8
366(10) 0.00916 353.8 10.8
355(10) 0.00909 353.8 10.8
349(10) 0.00998 353.9 10.9
366(10) 0.00995 353.9 10.9
392(10) 0.00951 353.9 11.0
354(10) 0.01017 353.9 11.1
371(11) 0.00885 353.9 11.2
387(11) 0.00877 354.0 11.3
390(10) 0.00941 354.0 11.4
355(10) 0.01052 354.0 11.5
376(10) 0.00912 354.0 11.6
385(11) 0.00834 354.0 11.8
389(10) 0.00911 354.1 11.9
380(10) 0.00985 354.1 12.1
388(10) 0.00942 354.1 12.2
345(10) 0.01032 354.1 12.4
346(10) 0.00973 354.2 12.6
356(10) 0.00988 354.2 12.7
360(10) 0.01022 354.2 12.9
370(10) 0.01000 354.2 13.1
378(10) 0.00923 354.2 13.2
360(10) 0.00930 354.3 13.4
376(10) 0.00920 354.3 13.5
381(10) 0.00962 354.3 13.7
377(10) 0.00988 354.3 13.8
367(10) 0.00953 354.3 13.9
377(11) 0.00877 354.4 14.0
382(10) 0.00915 354.4 14.0
385(10) 0.00959 354.4 14.1
380(10) 0.00951 354.4 14.1
362(10) 0.00963 354.4 14.1
367(11) 0.00896 354.5 14.0
346(10) 0.01020 354.5 14.0
347(10) 0.01066 354.5 13.8
374(10) 0.00972 354.5 13.7
354(10) 0.00995 354.5 13.6
350(10) 0.00972 354.6 13.4
382(11) 0.00891 354.6 13.2
351(10) 0.01055 354.6 12.9
386(11) 0.00875 354.6 12.7
371(10) 0.00927 354.6 12.4
374(10) 0.00928 354.7 12.1
366(10) 0.00998 354.7 11.9
381(10) 0.00970 354.7 11.6
362(10) 0.00995 354.7 11.3
368(10) 0.00947 354.8 11.0
383(10) 0.00910 354.8 10.7
388(10) 0.00955 354.8 10.4
342(10) 0.01085 354.8 10.1
347(10) 0.00996 354.8 9.8
351(10) 0.00921 354.9 9.5
362(10) 0.00908 354.9 9.3
329(9) 0.01115 354.9 9.0
366(10) 0.01025 354.9 8.8
354(10) 0.00986 354.9 8.5
364(11) 0.00895 355.0 8.3
370(10) 0.00960 355.0 8.1
382(10) 0.00964 355.0 7.8
352(10) 0.01037 355.0 7.6
354(10) 0.00971 355.0 7.5
352(11) 0.00889 355.1 7.3
353(10) 0.01002 355.1 7.1
365(10) 0.01027 355.1 6.9
349(10) 0.01042 355.1 6.8
352(10) 0.00996 355.1 6.6
363(10) 0.00908 355.2 6.5
340(10) 0.01036 355.2 6.4
331(9) 0.01122 355.2 6.2
340(10) 0.01068 355.2 6.1
358(10) 0.00955 355.2 6.0
369(11) 0.00880 355.3 5.9
373(10) 0.00927 355.3 5.8
362(10) 0.01036 355.3 5.8
350(10) 0.01066 355.3 5.7
362(10) 0.00952 355.3 5.6
369(10) 0.00912 355.4 5.6
344(10) 0.00996 355.4 5.5
333(9) 0.01118 355.4 5.5
339(10) 0.01056 355.4 5.4
363(10) 0.00918 355.4 5.4
371(10) 0.00915 355.5 5.4
349(10) 0.01018 355.5 5.4
359(10) 0.01049 355.5 5.4
387(11) 0.00902 355.5 5.4
379(10) 0.00928 355.5 5.4
352(10) 0.00982 355.6 5.5
337(10) 0.01068 355.6 5.5
334(9) 0.01117 355.6 5.6
325(10) 0.01070 355.6 5.7
370(11) 0.00900 355.6 5.8
382(11) 0.00892 355.7 5.9
365(10) 0.00988 355.7 6.1
331(9) 0.01122 355.7 6.3
374(11) 0.00898 355.7 6.5
374(11) 0.00871 355.7 6.8
324(10) 0.01105 355.8 7.3
361(10) 0.01002 355.8 8.0
377(10) 0.00988 355.8 9.0
362(10) 0.00951 355.8 10.5
361(10) 0.00925 355.9 12.8
344(10) 0.01072 355.9 16.1
382(10) 0.00980 355.9 20.6
405(11) 0.00907 355.9 26.4
411(11) 0.00871 355.9 33.1
407(11) 0.00830 356.0 40.0
443(11) 0.00797 356.0 45.3
395(10) 0.00955 356.0 47.4
409(10) 0.00909 356.0 45.2
393(11) 0.00899 356.0 39.7
401(11) 0.00793 356.1 32.9
397(11) 0.00903 356.1 26.3
381(10) 0.00958 356.1 20.6
360(10) 0.01049 356.1 16.2
372(10) 0.00949 356.1 13.0
382(11) 0.00855 356.2 10.8
386(11) 0.00883 356.2 9.4
339(10) 0.01088 356.2 8.5
355(10) 0.01016 356.2 7.9
372(11) 0.00899 356.2 7.5
377(11) 0.00865 356.3 7.2
379(11) 0.00896 356.3 7.1
357(10) 0.01021 356.3 6.9
358(10) 0.01027 356.3 6.9
352(10) 0.01033 356.3 6.8
381(11) 0.00876 356.4 6.8
373(11) 0.00888 356.4 6.8
359(10) 0.01031 356.4 6.9
332(10) 0.01064 356.4 6.9
367(11) 0.00904 356.4 7.0
362(10) 0.00922 356.5 7.1
367(10) 0.00972 356.5 7.2
380(10) 0.00968 356.5 7.4
353(10) 0.01025 356.5 7.5
353(10) 0.00985 356.5 7.7
381(11) 0.00864 356.6 7.9
369(10) 0.00935 356.6 8.1
349(10) 0.01072 356.6 8.4
336(10) 0.01059 356.6 8.6
380(11) 0.00874 356.6 8.9
369(10) 0.00930 356.7 9.3
336(10) 0.01054 356.7 9.6
346(10) 0.01080 356.7 10.0
376(11) 0.00906 356.7 10.4
377(10) 0.00908 356.7 10.8
376(10) 0.00956 356.8 11.2
365(10) 0.01017 356.8 11.7
347(10) 0.01063 356.8 12.2
383(11) 0.00886 356.8 12.7
366(11) 0.00877 356.8 13.2
350(10) 0.01015 356.9 13.7
391(10) 0.00946 356.9 14.2
375(10) 0.01009 356.9 14.7
357(10) 0.00954 356.9 15.1
381(11) 0.00854 357.0 15.5
369(10) 0.00938 357.0 15.8
352(10) 0.01056 357.0 16.1
350(10) 0.01063 357.0 16.3
368(10) 0.00932 357.0 16.4
360(11) 0.00907 357.1 16.5
371(10) 0.00964 357.1 16.5
391(10) 0.00951 357.1 16.5
381(10) 0.00986 357.1 16.4
415(11) 0.00832 357.1 16.4
345(10) 0.00959 357.2 16.3
373(10) 0.00922 357.2 16.2
367(10) 0.01035 357.2 16.2
375(10) 0.00958 357.2 16.2
362(10) 0.00967 357.2 16.2
370(11) 0.00863 357.3 16.2
339(10) 0.01039 357.3 16.3
361(10) 0.01024 357.3 16.4
363(10) 0.01003 357.3 16.5
353(10) 0.00965 357.3 16.7
367(11) 0.00901 357.4 16.8
392(11) 0.00891 357.4 17.1
392(10) 0.00941 357.4 17.3
380(10) 0.00963 357.4 17.6
356(10) 0.00953 357.4 17.9
371(10) 0.00915 357.5 18.2
355(10) 0.00979 357.5 18.5
359(10) 0.01029 357.5 18.9
371(10) 0.00971 357.5 19.2
372(10) 0.00957 357.5 19.6
375(11) 0.00903 357.6 19.9
358(10) 0.00993 357.6 20.3
361(10) 0.01017 357.6 20.7
400(11) 0.00893 357.6 21.0
390(11) 0.00896 357.6 21.4
416(11) 0.00838 357.7 21.7
344(10) 0.01035 357.7 22.1
380(10) 0.00976 357.7 22.5
379(10) 0.00911 357.7 22.8
400(11) 0.00831 357.7 23.3
401(11) 0.00882 357.8 23.7
378(10) 0.00969 357.8 24.3
370(10) 0.01000 357.8 24.9
357(10) 0.00968 357.8 25.8
388(11) 0.00853 357.8 26.8
404(11) 0.00855 357.9 28.2
374(10) 0.00982 357.9 30.0
390(10) 0.00964 357.9 32.4
377(10) 0.00927 357.9 35.5
381(11) 0.00865 357.9 39.5
401(11) 0.00876 358.0 44.5
419(11) 0.00884 358.0 50.8
422(11) 0.00873 358.0 58.2
388(10) 0.00920 358.0 66.7
415(11) 0.00767 358.1 76.0
393(11) 0.00906 358.1 85.3
418(11) 0.00885 358.1 93.3
464(11) 0.00792 358.1 98.7
468(11) 0.00761 358.1 100.2
420(11) 0.00771 358.2 98.0
467(12) 0.00693 358.2 93.0
412(11) 0.00886 358.2 86.9
429(11) 0.00870 358.2 80.9
441(11) 0.00783 358.2 75.9
414(11) 0.00782 358.3 72.4
434(11) 0.00793 358.3 70.4
464(11) 0.00806 358.3 69.9
432(11) 0.00854 358.3 70.6
460(12) 0.00732 358.3 72.1
440(11) 0.00756 358.4 73.7
429(11) 0.00832 358.4 75.0
438(11) 0.00856 358.4 75.4
443(11) 0.00813 358.4 74.8
431(11) 0.00782 358.4 73.3
396(11) 0.00861 358.5 71.2
409(11) 0.00835 358.5 68.9
426(11) 0.00871 358.5 66.6
412(11) 0.00876 358.5 64.3
428(11) 0.00815 358.5 62.1
433(11) 0.00792 358.6 59.9
415(11) 0.00854 358.6 57.7
411(10) 0.00913 358.6 55.5
408(11) 0.00863 358.6 53.1
391(11) 0.00902 358.6 50.6
356(10) 0.01004 358.7 48.1
389(10) 0.00922 358.7 45.4
409(11) 0.00903 358.7 42.7
398(11) 0.00867 358.7 40.1
401(11) 0.00819 358.7 37.5
405(11) 0.00833 358.8 35.0
368(10) 0.00992 358.8 32.6
387(10) 0.00960 358.8 30.3
354(10) 0.00992 358.8 28.1
363(10) 0.00919 358.8 26.2
373(10) 0.00918 358.9 24.3
383(10) 0.00960 358.9 22.6
401(10) 0.00925 358.9 21.1
372(10) 0.00944 358.9 19.7
379(11) 0.00860 358.9 18.4
391(11) 0.00864 359.0 17.2
372(10) 0.01005 359.0 16.1
361(10) 0.01022 359.0 15.2
403(11) 0.00856 359.0 14.3
354(10) 0.00947 359.0 13.5
360(10) 0.00952 359.1 12.8
380(10) 0.00965 359.1 12.1
377(10) 0.00964 359.1 11.6
363(10) 0.00965 359.1 11.0
358(10) 0.00919 359.2 10.6
368(10) 0.00960 359.2 10.1
365(10) 0.01025 359.2 9.7
365(10) 0.01009 359.2 9.4
377(10) 0.00944 359.2 9.1
377(11) 0.00867 359.3 8.8
349(10) 0.00991 359.3 8.5
380(10) 0.00982 359.3 8.3
372(10) 0.00972 359.3 8.0
328(10) 0.01065 359.3 7.8
345(10) 0.00943 359.4 7.6
333(10) 0.01070 359.4 7.4
369(10) 0.01005 359.4 7.3
334(10) 0.01108 359.4 7.1
371(10) 0.00945 359.4 7.0
380(11) 0.00869 359.5 6.9
358(10) 0.00979 359.5 6.7
345(10) 0.01070 359.5 6.6
362(10) 0.00997 359.5 6.5
352(10) 0.00988 359.5 6.4
376(11) 0.00870 359.6 6.3
357(10) 0.00975 359.6 6.2
359(10) 0.01039 359.6 6.2
343(10) 0.01033 359.6 6.1
338(10) 0.01005 359.6 6.0
348(10) 0.00951 359.7 6.0
363(10) 0.00979 359.7 5.9
374(10) 0.01001 359.7 5.9
382(11) 0.00895 359.7 5.8
363(10) 0.00940 359.7 5.8
366(10) 0.00933 359.8 5.8
376(10) 0.00988 359.8 5.7
353(10) 0.01055 359.8 5.7
370(11) 0.00904 359.8 5.7
353(10) 0.00960 359.8 5.7
359(10) 0.00985 359.9 5.6
373(10) 0.00980 359.9 5.6
378(10) 0.00975 359.9 5.6
361(10) 0.00983 359.9 5.6
392(11) 0.00841 359.9 5.6
378(11) 0.00889 360.0 5.6
366(10) 0.00994 360.0 5.6
358(10) 0.01031 360.0 5.6
367(10) 0.00930 360.0 5.7
355(11) 0.00902 360.0 5.7
359(10) 0.00936 360.1 5.7
365(10) 0.01017 360.1 5.7
358(10) 0.01004 360.1 5.8
366(10) 0.00968 360.1 5.8
374(11) 0.00852 360.1 5.8
375(10) 0.00921 360.1 5.9
360(10) 0.01040 360.0 5.9
356(10) 0.01017 360.0 6.0
370(10) 0.00942 359.9 6.0
363(11) 0.00875 359.9 6.1
352(10) 0.00946 359.9 6.2
360(10) 0.01030 359.8 6.3
366(10) 0.01003 359.8 6.3
349(10) 0.01012 359.7 6.4
399(11) 0.00787 359.7 6.5
404(11) 0.00842 359.6 6.6
329(9) 0.01120 359.6 6.7
315(9) 0.01160 359.5 6.9
355(10) 0.00955 359.5 7.0
366(11) 0.00901 359.5 7.1
369(10) 0.00951 359.4 7.3
370(10) 0.01001 359.4 7.4
362(10) 0.00995 359.3 7.6
354(10) 0.00961 359.3 7.8
358(10) 0.00942 359.2 8.0
356(10) 0.00955 359.2 8.2
354(10) 0.01037 359.1 8.4
353(10) 0.01020 359.1 8.7
367(10) 0.00914 359.1 8.9
359(10) 0.00968 359.0 9.2
362(10) 0.01001 359.0 9.5
363(10) 0.01028 358.9 9.8
392(11) 0.00880 358.9 10.1
361(11) 0.00894 358.8 10.5
340(10) 0.00986 358.8 10.9
396(11) 0.00906 358.7 11.2
374(10) 0.01008 358.7 11.7
349(10) 0.00986 358.7 12.1
381(11) 0.00905 358.6 12.6
362(10) 0.00951 358.6 13.0
335(10) 0.01073 358.5 13.5
375(10) 0.01003 358.5 14.1
351(10) 0.01004 358.4 14.6
371(11) 0.00884 358.4 15.2
369(10) 0.00956 358.3 15.8
359(10) 0.01031 358.3 16.4
397(10) 0.00934 358.3 17.1
375(10) 0.00910 358.2 17.8
356(10) 0.00934 358.2 18.6
393(11) 0.00849 358.1 19.4
354(10) 0.01031 358.1 20.4
396(10) 0.00937 358.0 21.5
389(11) 0.00882 358.0 22.7
369(10) 0.00913 358.0 24.0
406(11) 0.00840 357.9 25.6
409(10) 0.00908 357.9 27.2
386(10) 0.00963 357.8 28.8
370(10) 0.00930 357.8 30.3
376(11) 0.00841 357.7 31.5
396(11) 0.00877 357.7 32.2
422(11) 0.00890 357.6 32.3
426(11) 0.00874 357.6 32.1
410(11) 0.00867 357.6 31.6
411(11) 0.00800 357.5 31.2
393(11) 0.00877 357.5 31.1
391(10) 0.00958 357.4 31.6
397(10) 0.00931 357.4 32.8
400(11) 0.00844 357.3 35.0
412(11) 0.00784 357.3 38.9
404(11) 0.00862 357.2 45.5
428(11) 0.00873 357.2 56.4
439(11) 0.00835 357.2 74.1
533(13) 0.00624 357.1 100.9
491(12) 0.00692 357.1 138.6
581(13) 0.00583 357.0 186.6
587(13) 0.00633 357.0 240.5
665(13) 0.00550 356.9 290.8
682(14) 0.00506 356.9 321.6
649(14) 0.00515 356.8 318.9
637(13) 0.00558 356.8 283.8
604(13) 0.00621 356.8 231.2
520(12) 0.00678 356.7 176.7
501(12) 0.00657 356.7 129.6
431(11) 0.00817 356.6 93.4
446(11) 0.00809 356.6 68.3
442(11) 0.00841 356.5 52.1
406(11) 0.00849 356.5 42.3
393(11) 0.00902 356.4 36.5
435(11) 0.00778 356.4 32.9
417(11) 0.00872 356.4 30.7
400(10) 0.00927 356.3 29.2
388(11) 0.00898 356.3 28.2
381(11) 0.00897 356.2 27.5
416(11) 0.00818 356.2 27.1
380(10) 0.00956 356.1 26.8
411(11) 0.00897 356.1 26.7
417(11) 0.00824 356.1 26.7
382(11) 0.00843 356.0 26.9
402(11) 0.00829 356.0 27.1
396(10) 0.00921 355.9 27.4
399(10) 0.00931 355.9 27.8
376(10) 0.00918 355.8 28.3
404(11) 0.00795 355.8 28.8
402(11) 0.00899 355.7 29.3
404(10) 0.00933 355.7 29.9
397(10) 0.00946 355.7 30.6
408(11) 0.00877 355.6 31.2
385(11) 0.00855 355.6 31.9
423(11) 0.00784 355.5 32.6
373(10) 0.01006 355.5 33.4
379(10) 0.00982 355.4 34.1
375(10) 0.00945 355.4 34.9
404(11) 0.00791 355.3 35.6
376(10) 0.00941 355.3 36.4
367(10) 0.00999 355.3 37.2
383(10) 0.00947 355.2 37.9
399(11) 0.00886 355.2 38.7
381(10) 0.00938 355.1 39.5
410(11) 0.00855 355.1 40.3
357(10) 0.01037 355.0 41.1
386(10) 0.00947 355.0 42.0
387(11) 0.00888 354.9 42.9
404(11) 0.00823 354.9 43.8
399(11) 0.00857 354.9 44.9
385(10) 0.00966 354.8 46.1
372(10) 0.00954 354.8 47.5
399(11) 0.00855 354.7 49.0
386(11) 0.00872 354.7 50.9
404(11) 0.00863 354.6 53.1
407(11) 0.00906 354.6 55.7
427(11) 0.00850 354.5 58.7
442(11) 0.00759 354.5 62.3
409(11) 0.00851 354.5 66.5
419(11) 0.00858 354.4 71.4
438(11) 0.00848 354.4 77.0
444(11) 0.00782 354.3 83.3
453(12) 0.00750 354.3 90.3
463(12) 0.00742 354.2 98.0
486(12) 0.00752 354.2 106.0
500(12) 0.00741 354.2 114.1
525(12) 0.00643 354.1 121.8
521(13) 0.00630 354.1 128.4
532(12) 0.00646 354.0 133.3
499(12) 0.00729 354.0 135.7
525(12) 0.00716 353.9 135.5
483(12) 0.00696 353.9 132.8
496(12) 0.00660 353.8 128.0
509(12) 0.00670 353.8 121.9
450(11) 0.00821 353.8 115.1
449(11) 0.00827 353.7 108.1
449(11) 0.00787 353.7 101.3
448(12) 0.00723 353.6 95.0
453(11) 0.00759 353.6 89.3
462(11) 0.00788 353.5 84.2
418(11) 0.00890 353.5 79.7
437(11) 0.00816 353.4 75.8
394(11) 0.00861 353.4 72.3
431(11) 0.00819 353.4 69.2
429(11) 0.00862 353.3 66.4
412(11) 0.00901 353.3 63.8
417(11) 0.00847 353.2 61.5
418(11) 0.00783 353.2 59.3
418(11) 0.00832 353.1 57.2
400(10) 0.00929 353.1 55.1
403(11) 0.00895 353.0 53.1
412(11) 0.00834 353.0 51.2
429(11) 0.00769 353.0 49.2
422(11) 0.00798 352.9 47.3
413(10) 0.00908 352.9 45.4
423(11) 0.00857 352.8 43.6
412(11) 0.00841 352.8 41.8
406(11) 0.00813 352.7 40.1
392(11) 0.00877 352.7 38.4
405(10) 0.00915 352.6 36.8
403(11) 0.00903 352.6 35.3
403(11) 0.00868 352.6 33.8
399(11) 0.00871 352.5 32.4
405(11) 0.00871 352.5 31.1
396(10) 0.00937 352.4 29.9
390(10) 0.00923 352.4 28.7
393(11) 0.00889 352.3 27.6
392(11) 0.00876 352.3 26.6
388(10) 0.00946 352.2 25.7
404(10) 0.00928 352.2 24.8
374(10) 0.00962 352.2 24.0
374(10) 0.00918 352.1 23.3
366(10) 0.00963 352.1 22.6
373(10) 0.00955 352.0 22.0
382(10) 0.00976 352.0 21.5
355(10) 0.00995 351.9 21.0
362(10) 0.00933 351.9 20.6
390(11) 0.00874 351.9 20.2
360(10) 0.01019 351.8 19.9
404(10) 0.00919 351.8 19.7
384(10) 0.00913 351.7 19.5
368(11) 0.00907 351.7 19.4
389(11) 0.00866 351.6 19.4
401(11) 0.00903 351.6 19.4
398(10) 0.00936 351.5 19.5
421(11) 0.00787 351.5 19.7
366(11) 0.00897 351.5 19.9
384(11) 0.00876 351.4 20.3
376(10) 0.00978 351.4 20.7
386(10) 0.00952 351.3 21.3
386(11) 0.00883 351.3 22.0
379(11) 0.00822 351.2 22.8
387(11) 0.00899 351.2 23.8
389(10) 0.00946 351.1 25.0
376(10) 0.01005 351.1 26.5
416(11) 0.00819 351.1 28.3
409(11) 0.00801 351.0 30.5
415(11) 0.00848 351.0 33.1
408(10) 0.00910 350.9 36.2
409(11) 0.00907 350.9 39.8
440(11) 0.00775 350.8 44.2
420(11) 0.00774 350.8 49.3
407(11) 0.00858 350.7 55.3
423(11) 0.00870 350.7 62.1
448(11) 0.00827 350.7 69.9
454(11) 0.00774 350.6 78.6
467(12) 0.00707 350.6 88.0
471(12) 0.00728 350.5 98.1
462(11) 0.00798 350.5 108.4
492(12) 0.00747 350.4 118.4
481(12) 0.00742 350.4 127.3
513(12) 0.00670 350.3 134.3
507(12) 0.00679 350.3 138.6
525(12) 0.00709 350.3 139.7
551(13) 0.00629 350.2 137.5
517(12) 0.00681 350.2 132.4
497(12) 0.00712 350.1 125.0
555(13) 0.00619 350.1 115.9
521(12) 0.00714 350.0 106.1
485(12) 0.00728 350.0 96.0
434(11) 0.00807 350.0 86.2
433(11) 0.00785 349.9 76.9
424(11) 0.00840 349.9 68.5
399(10) 0.00928 349.8 60.9
417(11) 0.00840 349.8 54.2
388(11) 0.00883 349.7 48.3
391(10) 0.00916 349.7 43.3
403(11) 0.00891 349.6 39.1
383(10) 0.00958 349.6 35.5
386(11) 0.00905 349.6 32.5
404(11) 0.00839 349.5 29.9
404(11) 0.00849 349.5 27.8
412(11) 0.00892 349.4 26.1
373(10) 0.01003 349.4 24.6
419(11) 0.00823 349.3 23.4
371(10) 0.00917 349.3 22.3
383(10) 0.00924 349.2 21.4
391(10) 0.00957 349.2 20.5
343(10) 0.01083 349.2 19.7
379(10) 0.00913 349.1 18.9
351(10) 0.00923 349.1 18.1
379(10) 0.00910 349.0 17.4
383(10) 0.00967 349.0 16.6
346(10) 0.01083 348.9 15.9
357(10) 0.00943 348.9 15.2
361(11) 0.00880 348.8 14.5
352(10) 0.01016 348.8 13.9
377(10) 0.00971 348.8 13.3
350(10) 0.01063 348.7 12.7
370(10) 0.00962 348.7 12.1
368(11) 0.00882 348.6 11.6
378(11) 0.00894 348.6 11.1
353(10) 0.01043 348.5 10.6
353(10) 0.01044 348.5 10.1
356(10) 0.00993 348.4 9.7
366(10) 0.00936 348.4 9.3
372(10) 0.00939 348.4 8.9
357(10) 0.01063 348.3 8.6
362(10) 0.01013 348.3 8.3
394(10) 0.00908 348.2 8.0
363(10) 0.00945 348.2 7.7
365(10) 0.00908 348.1 7.5
344(10) 0.01068 348.1 7.2
359(10) 0.01003 348.1 7.0
387(11) 0.00863 348.0 6.8
353(10) 0.00950 348.0 6.6
352(10) 0.00996 347.9 6.4
370(10) 0.01016 347.9 6.3
368(10) 0.00933 347.8 6.1
377(11) 0.00892 347.8 6.0
365(10) 0.00915 347.7 5.9
368(10) 0.00965 347.7 5.7
370(10) 0.01013 347.7 5.6
336(10) 0.01039 347.6 5.5
357(10) 0.00939 347.6 5.4
391(11) 0.00873 347.5 5.3
361(10) 0.00989 347.5 5.3
349(10) 0.01067 347.4 5.2
347(10) 0.00984 347.4 5.1
368(11) 0.00906 347.3 5.1
353(10) 0.00996 347.3 5.0
354(10) 0.01035 347.3 5.0
346(10) 0.01081 347.2 4.9
345(10) 0.01010 347.2 4.9
346(10) 0.00939 347.1 4.8
348(10) 0.00985 347.1 4.8
368(10) 0.01002 347.0 4.8
346(10) 0.01084 347.0 4.8
370(10) 0.00926 346.9 4.7
366(11) 0.00880 346.9 4.7
362(10) 0.00941 346.9 4.7
347(10) 0.01060 346.8 4.7
323(9) 0.01145 346.8 4.6
335(10) 0.00998 346.7 4.6
352(11) 0.00902 346.7 4.5
359(10) 0.00956 346.6 4.5
360(10) 0.01042 346.6 4.5
337(10) 0.01093 346.5 4.4
354(10) 0.00976 346.5 4.4
356(10) 0.00939 346.5 4.3
366(10) 0.00937 346.4 4.3
378(10) 0.00981 346.4 4.2
331(10) 0.01099 346.3 4.2
340(10) 0.01033 346.3 4.2
333(10) 0.01037 346.2 4.1
336(10) 0.01048 346.2 4.1
336(10) 0.01103 346.1 4.1
351(10) 0.01047 346.1 4.1
352(10) 0.00958 346.1 4.0
368(10) 0.00934 346.0 4.0
370(10) 0.00927 346.0 4.0
333(9) 0.01113 345.9 4.0
362(10) 0.00967 345.9 4.0
358(10) 0.00966 345.8 4.0
375(11) 0.00905 345.8 4.0
357(10) 0.00982 345.8 4.0
349(10) 0.01058 345.7 4.0
341(10) 0.01044 345.8 4.0
345(10) 0.00989 345.8 4.0
343(10) 0.01023 345.8 4.0
365(10) 0.00988 345.8 4.1
345(10) 0.01083 345.9 4.1
336(10) 0.01032 345.9 4.1
373(11) 0.00886 345.9 4.1
372(10) 0.00922 346.0 4.1
329(10) 0.01105 346.0 4.2
379(10) 0.00984 346.0 4.2
351(10) 0.01004 346.0 4.2
344(10) 0.01000 346.1 4.3
352(10) 0.00990 346.1 4.3
344(10) 0.01069 346.1 4.3
363(10) 0.01023 346.1 4.4
334(10) 0.01034 346.2 4.4
346(10) 0.00969 346.2 4.5
348(10) 0.00965 346.2 4.6
359(10) 0.01021 346.2 4.6
360(10) 0.01045 346.3 4.7
359(10) 0.00937 346.3 4.7
358(11) 0.00901 346.3 4.8
328(10) 0.01073 346.3 4.9
356(10) 0.01037 346.4 5.0
356(10) 0.01046 346.4 5.1
369(11) 0.00900 346.4 5.1
342(10) 0.00950 346.4 5.2
343(10) 0.01014 346.5 5.3
353(10) 0.01039 346.5 5.4
320(9) 0.01160 346.5 5.6
361(10) 0.00957 346.5 5.7
349(10) 0.00925 346.6 5.8
339(10) 0.01019 346.6 5.9
344(10) 0.01086 346.6 6.0
374(10) 0.00969 346.7 6.2
337(10) 0.01064 346.7 6.3
365(11) 0.00891 346.7 6.5
324(10) 0.01088 346.7 6.6
375(10) 0.00997 346.8 6.7
378(10) 0.00971 346.8 6.9
368(10) 0.00969 346.8 7.1
352(10) 0.00960 346.8 7.2
332(10) 0.01040 346.9 7.4
362(10) 0.01025 346.9 7.5
354(10) 0.01044 346.9 7.7
379(10) 0.00937 346.9 7.9
354(10) 0.00974 347.0 8.1
342(10) 0.01001 347.0 8.2
332(9) 0.01110 347.0 8.4
342(10) 0.01053 347.0 8.6
346(10) 0.01043 347.1 8.8
368(10) 0.00938 347.1 9.0
351(10) 0.01035 347.1 9.3
354(10) 0.01048 347.1 9.5
370(10) 0.00960 347.2 9.8
339(10) 0.01027 347.2 10.1
351(10) 0.00976 347.2 10.4
344(10) 0.01055 347.2 10.8
340(10) 0.01095 347.3 11.2
365(10) 0.00946 347.3 11.6
375(11) 0.00892 347.3 12.1
378(11) 0.00904 347.4 12.6
345(10) 0.01049 347.4 13.2
343(10) 0.01093 347.4 13.8
372(10) 0.00909 347.4 14.5
387(11) 0.00841 347.5 15.2
378(10) 0.00930 347.5 16.0
369(10) 0.01002 347.5 16.9
357(10) 0.01017 347.5 17.9
352(10) 0.01018 347.6 19.0
357(11) 0.00897 347.6 20.2
347(10) 0.01017 347.6 21.4
335(10) 0.01107 347.6 22.8
369(10) 0.01003 347.7 24.3
357(10) 0.00964 347.7 25.9
379(11) 0.00862 347.7 27.6
393(11) 0.00894 347.7 29.5
388(10) 0.00965 347.8 31.5
401(10) 0.00917 347.8 33.5
415(11) 0.00804 347.8 35.7
359(11) 0.00904 347.8 38.0
401(11) 0.00872 347.9 40.4
424(11) 0.00879 347.9 42.8
390(10) 0.00939 347.9 45.3
397(11) 0.00869 347.9 47.8
406(11) 0.00799 348.0 50.2
393(11) 0.00859 348.0 52.5
408(10) 0.00933 348.0 54.7
398(10) 0.00918 348.1 56.6
411(11) 0.00802 348.1 58.2
389(11) 0.00855 348.1 59.4
396(11) 0.00882 348.1 60.3
422(11) 0.00884 348.2 60.7
404(11) 0.00901 348.2 60.6
382(10) 0.00926 348.2 60.0
411(11) 0.00799 348.2 59.0
392(11) 0.00887 348.3 57.6
394(10) 0.00950 348.3 55.9
411(11) 0.00877 348.3 53.9
422(11) 0.00825 348.3 51.6
397(11) 0.00882 348.4 49.3
374(10) 0.00938 348.4 46.8
371(10) 0.00999 348.4 44.4
374(10) 0.00971 348.4 41.9
378(11) 0.00896 348.5 39.5
361(10) 0.00996 348.5 37.1
395(11) 0.00900 348.5 34.9
362(10) 0.01026 348.5 32.7
361(10) 0.00982 348.6 30.7
358(10) 0.00966 348.6 28.7
378(10) 0.00933 348.6 26.9
369(10) 0.00977 348.6 25.2
356(10) 0.01050 348.7 23.7
364(10) 0.00943 348.7 22.2
388(11) 0.00812 348.7 20.9
358(10) 0.00982 348.8 19.6
361(10) 0.01005 348.8 18.5
377(10) 0.00986 348.8 17.4
375(10) 0.00930 348.8 16.5
350(10) 0.00970 348.9 15.6
355(10) 0.00986 348.9 14.8
329(9) 0.01128 348.9 14.1
377(10) 0.00980 348.9 13.4
349(10) 0.00980 349.0 12.8
335(10) 0.00972 349.0 12.3
353(10) 0.00989 349.0 11.8
328(10) 0.01098 349.0 11.3
351(10) 0.01048 349.1 10.9
344(10) 0.00995 349.1 10.5
342(10) 0.00960 349.1 10.2
354(10) 0.01015 349.1 9.9
379(10) 0.00985 349.2 9.7
370(10) 0.01008 349.2 9.4
418(11) 0.00802 349.2 9.3
361(11) 0.00900 349.2 9.1
351(10) 0.00985 349.3 8.9
349(10) 0.01063 349.3 8.8
385(10) 0.00961 349.3 8.7
353(10) 0.00971 349.4 8.6
340(10) 0.00938 349.4 8.6
339(10) 0.01026 349.4 8.6
356(10) 0.01047 349.4 8.5
365(10) 0.00985 349.5 8.5
380(11) 0.00880 349.5 8.5
363(10) 0.00919 349.5 8.6
330(10) 0.01074 349.5 8.6
353(10) 0.01068 349.6 8.6
349(10) 0.01021 349.6 8.6
359(10) 0.00951 349.6 8.7
351(10) 0.00966 349.6 8.7
336(10) 0.01039 349.7 8.7
350(10) 0.01073 349.7 8.7
353(10) 0.01013 349.7 8.6
369(10) 0.00930 349.7 8.6
348(10) 0.01015 349.8 8.5
347(10) 0.01055 349.8 8.4
353(10) 0.01048 349.8 8.2
344(10) 0.01013 349.8 8.1
348(10) 0.00967 349.9 7.9
344(10) 0.00990 349.9 7.7
328(10) 0.01107 349.9 7.5
339(10) 0.01092 349.9 7.3
346(10) 0.00995 350.0 7.1
356(10) 0.00919 350.0 7.0
367(10) 0.00911 350.0 6.8
332(9) 0.01109 350.1 6.6
353(10) 0.01059 350.1 6.4
360(10) 0.00967 350.1 6.3
354(11) 0.00903 350.1 6.1
342(10) 0.01000 350.2 6.0
346(10) 0.01048 350.2 5.9
352(10) 0.01051 350.2 5.8
372(11) 0.00895 350.2 5.6
354(10) 0.00939 350.3 5.5
375(10) 0.00938 350.3 5.5
357(10) 0.01053 350.3 5.4
364(10) 0.01010 350.3 5.3
363(10) 0.00950 350.4 5.2
373(11) 0.00853 350.4 5.2
387(11) 0.00902 350.4 5.1
357(10) 0.01018 350.4 5.1
336(10) 0.01107 350.5 5.0
358(10) 0.00958 350.5 5.0
355(10) 0.00919 350.5 5.0
357(10) 0.00986 350.5 4.9
367(10) 0.01014 350.6 4.9
365(10) 0.00979 350.6 4.9
324(9) 0.01136 350.6 4.9
349(10) 0.00963 350.6 4.9
341(10) 0.00997 350.7 4.9
337(10) 0.01107 350.7 4.9
374(10) 0.00961 350.7 4.9
381(11) 0.00899 350.8 4.9
377(11) 0.00886 350.8 4.9
330(10) 0.01034 350.8 4.9
362(10) 0.01032 350.8 5.0
360(10) 0.01014 350.9 5.0
383(11) 0.00898 350.9 5.1
366(10) 0.00921 350.9 5.1
344(10) 0.01033 350.9 5.2
353(10) 0.01047 351.0 5.3
345(10) 0.01007 351.0 5.4
390(11) 0.00845 351.0 5.5
351(10) 0.00995 351.0 5.6
352(10) 0.00999 351.1 5.7
380(10) 0.00980 351.1 5.9
366(10) 0.00953 351.1 6.1
354(10) 0.00955 351.1 6.3
365(10) 0.00914 351.2 6.6
338(10) 0.01058 351.2 6.9
352(10) 0.01066 351.2 7.3
342(10) 0.01005 351.2 7.8
348(10) 0.00944 351.3 8.5
353(10) 0.00979 351.3 9.6
354(10) 0.01028 351.3 11.5
361(10) 0.01029 351.3 14.7
373(10) 0.00917 351.4 20.4
392(11) 0.00844 351.4 29.6
410(11) 0.00841 351.4 43.1
394(10) 0.00932 351.5 60.5
427(11) 0.00871 351.5 79.6
422(11) 0.00836 351.5 95.5
450(12) 0.00719 351.5 101.9
443(12) 0.00756 351.6 95.4
411(11) 0.00896 351.6 79.5
396(10) 0.00923 351.6 60.7
381(10) 0.00948 351.6 43.6
400(11) 0.00797 351.7 30.4
373(10) 0.00938 351.7 21.7
365(10) 0.01034 351.7 16.4
376(10) 0.00985 351.7 13.6
384(11) 0.00889 351.8 12.1
384(11) 0.00836 351.8 11.4
375(10) 0.00923 351.8 10.9
355(10) 0.01040 351.8 10.7
376(10) 0.00970 351.9 10.5
390(11) 0.00871 351.9 10.4
378(11) 0.00838 351.9 10.5
371(10) 0.00918 351.9 10.6
358(10) 0.01046 352.0 10.9
360(10) 0.00972 352.0 11.2
347(10) 0.00988 352.0 11.5
354(10) 0.00941 352.0 12.0
353(10) 0.00991 352.1 12.5
356(10) 0.01049 352.1 13.1
375(10) 0.00962 352.1 13.7
388(11) 0.00891 352.2 14.4
373(11) 0.00895 352.2 15.1
354(10) 0.00991 352.2 15.9
376(10) 0.00981 352.2 16.7
389(10) 0.00911 352.3 17.6
378(11) 0.00897 352.3 18.5
366(10) 0.00962 352.3 19.5
401(11) 0.00888 352.3 20.4
375(10) 0.01003 352.4 21.3
377(11) 0.00901 352.4 22.2
394(11) 0.00856 352.4 23.0
379(11) 0.00883 352.4 23.8
390(11) 0.00892 352.5 24.4
391(10) 0.00953 352.5 24.8
388(11) 0.00884 352.5 25.1
388(11) 0.00868 352.5 25.2
363(10) 0.00973 352.6 25.2
374(10) 0.00941 352.6 25.0
366(10) 0.01019 352.6 24.6
396(11) 0.00860 352.6 24.1
368(10) 0.00914 352.7 23.6
391(11) 0.00884 352.7 22.9
363(10) 0.01002 352.7 22.3
362(10) 0.01038 352.7 21.6
361(10) 0.00983 352.8 21.0
389(11) 0.00824 352.8 20.4
362(10) 0.00975 352.8 19.8
389(10) 0.00934 352.9 19.3
401(10) 0.00933 352.9 18.8
379(10) 0.00938 352.9 18.4
383(11) 0.00842 352.9 18.1
356(10) 0.00953 353.0 17.9
376(10) 0.00994 353.0 17.7
362(10) 0.01001 353.0 17.6
346(10) 0.01011 353.0 17.5
360(11) 0.00906 353.1 17.5
358(10) 0.00983 353.1 17.6
367(10) 0.01019 353.1 17.7
359(10) 0.01016 353.1 18.0
369(10) 0.00948 353.2 18.2
375(11) 0.00856 353.2 18.5
367(10) 0.00958 353.2 18.9
364(10) 0.01022 353.2 19.3
376(10) 0.00969 353.3 19.8
357(10) 0.00997 353.3 20.3
368(10) 0.00911 353.3 20.8
378(11) 0.00876 353.3 21.4
385(10) 0.00969 353.4 22.0
347(10) 0.01078 353.4 22.5
358(10) 0.00948 353.4 23.1
355(10) 0.00910 353.5 23.6
340(10) 0.01053 353.5 24.1
381(10) 0.00964 353.5 24.6
353(10) 0.01019 353.5 25.0
383(11) 0.00896 353.6 25.3
402(11) 0.00837 353.6 25.6
391(11) 0.00891 353.6 25.8
383(10) 0.00974 353.6 25.9
377(10) 0.00925 353.7 26.0
385(11) 0.00860 353.7 26.0
385(11) 0.00883 353.7 26.0
384(10) 0.00921 353.7 25.9
394(10) 0.00939 353.8 25.8
392(11) 0.00875 353.8 25.8
373(10) 0.00909 353.8 25.7
382(11) 0.00906 353.8 25.7
412(11) 0.00855 353.9 25.8
370(10) 0.01000 353.9 25.9
366(10) 0.00951 353.9 26.0
349(10) 0.00939 353.9 26.2
343(10) 0.00969 354.0 26.6
373(10) 0.00981 354.0 27.0
371(10) 0.00989 354.0 27.5
353(10) 0.00976 354.0 28.0
402(11) 0.00796 354.1 28.7
414(11) 0.00806 354.1 29.3
406(10) 0.00907 354.1 30.0
358(10) 0.01028 354.2 30.7
389(11) 0.00896 354.2 31.2
384(11) 0.00847 354.2 31.6
377(10) 0.00937 354.2 31.8
365(10) 0.00995 354.3 31.9
336(10) 0.01106 354.3 32.0
370(11) 0.00893 354.3 32.0
375(11) 0.00851 354.3 32.1
406(11) 0.00863 354.4 32.3
364(10) 0.01001 354.4 32.5
379(10) 0.00980 354.3 32.6
352(10) 0.01028 354.3 32.6
350(10) 0.00957 354.3 32.3
360(10) 0.00960 354.3 31.9
368(10) 0.01016 354.2 31.3
354(10) 0.01009 354.2 30.8
378(11) 0.00888 354.2 30.2
353(10) 0.00963 354.1 29.7
347(10) 0.01006 354.1 29.2
387(10) 0.00972 354.1 28.7
361(10) 0.00990 354.1 28.3
352(10) 0.00984 354.0 27.8
372(10) 0.00912 354.0 27.4
376(10) 0.00917 354.0 26.9
347(10) 0.01066 353.9 26.4
380(10) 0.00931 353.9 25.9
377(11) 0.00905 353.9 25.4
358(10) 0.00945 353.8 24.8
354(10) 0.00969 353.8 24.3
332(9) 0.01120 353.8 23.7
353(10) 0.01012 353.8 23.2
370(10) 0.00911 353.7 22.6
364(10) 0.00922 353.7 22.1
381(10) 0.00931 353.7 21.5
372(10) 0.00993 353.6 21.0
340(10) 0.01031 353.6 20.5
383(11) 0.00842 353.6 20.1
358(10) 0.00961 353.6 19.6
360(10) 0.01032 353.5 19.2
393(10) 0.00948 353.5 18.9
351(10) 0.00975 353.5 18.5
356(10) 0.00932 353.4 18.3
317(9) 0.01116 353.4 18.1
338(10) 0.01077 353.4 17.9
339(10) 0.01081 353.3 17.9
364(10) 0.00940 353.3 18.0
363(11) 0.00901 353.3 18.3
371(10) 0.00943 353.3 19.2
360(10) 0.01030 353.2 20.8
356(10) 0.01033 353.2 23.7
377(10) 0.00916 353.2 28.4
389(11) 0.00804 353.1 35.2
386(11) 0.00880 353.1 43.9
388(10) 0.00949 353.1 53.3
415(11) 0.00884 353.0 61.1
396(11) 0.00867 353.0 64.3
403(11) 0.00778 353.0 61.7
394(11) 0.00895 353.0 55.0
394(10) 0.00941 352.9 47.2
409(10) 0.00910 352.9 40.3
378(10) 0.00946 352.9 34.9
390(11) 0.00839 352.8 30.8
411(11) 0.00828 352.8 27.7
360(10) 0.01031 352.8 25.1
345(10) 0.01055 352.8 22.9
381(10) 0.00920 352.7 21.1
380(11) 0.00871 352.7 19.7
371(10) 0.00961 352.7 18.6
373(10) 0.01003 352.6 17.9
361(10) 0.01028 352.6 17.4
368(10) 0.00916 352.6 17.2
374(11) 0.00890 352.5 17.3
367(10) 0.00939 352.5 17.5
378(10) 0.00977 352.5 17.9
371(10) 0.00957 352.5 18.5
396(11) 0.00883 352.4 19.1
365(10) 0.00973 352.4 19.9
379(11) 0.00894 352.4 20.8
388(10) 0.00955 352.3 21.7
365(10) 0.00964 352.3 22.6
357(10) 0.00935 352.3 23.4
354(10) 0.00985 352.3 24.2
373(10) 0.00965 352.2 25.1
363(10) 0.01023 352.2 25.9
380(10) 0.00943 352.2 26.9
370(10) 0.00937 352.1 28.1
370(10) 0.00926 352.1 29.4
371(10) 0.00968 352.1 30.9
369(10) 0.01015 352.0 32.6
393(11) 0.00888 352.0 34.5
359(10) 0.00979 352.0 36.4
379(10) 0.00911 352.0 38.5
390(10) 0.00930 351.9 40.6
416(11) 0.00897 351.9 42.7
403(11) 0.00841 351.9 44.7
414(11) 0.00785 351.8 46.7
412(11) 0.00817 351.8 48.5
400(10) 0.00919 351.8 50.3
434(11) 0.00857 351.8 52.1
396(11) 0.00891 351.7 54.2
374(11) 0.00886 351.7 56.5
407(11) 0.00834 351.7 59.1
422(11) 0.00859 351.6 61.9
401(10) 0.00927 351.6 64.6
376(10) 0.00934 351.6 66.6
399(11) 0.00800 351.5 67.2
385(11) 0.00896 351.5 65.7
375(10) 0.00982 351.5 62.4
393(10) 0.00940 351.5 58.0
391(11) 0.00887 351.4 53.0
382(11) 0.00849 351.4 48.3
358(10) 0.00977 351.4 44.1
348(10) 0.01079 351.3 40.5
363(10) 0.01017 351.3 37.7
361(10) 0.00970 351.3 35.5
368(11) 0.00858 351.3 33.8
376(11) 0.00905 351.2 32.7
397(10) 0.00920 351.2 31.9
371(10) 0.00986 351.2 31.5
383(10) 0.00909 351.1 31.3
390(11) 0.00870 351.1 31.3
388(11) 0.00881 351.1 31.4
351(10) 0.01059 351.0 31.7
379(10) 0.00953 351.0 32.0
366(10) 0.00967 351.0 32.5
379(11) 0.00889 351.0 33.1
369(10) 0.00940 350.9 33.8
385(10) 0.00956 350.9 34.9
362(10) 0.01010 350.9 36.4
383(11) 0.00868 350.8 38.4
370(11) 0.00874 350.8 41.1
384(10) 0.00908 350.8 44.4
393(10) 0.00948 350.8 48.4
425(11) 0.00806 350.7 52.5
390(11) 0.00886 350.7 55.9
399(11) 0.00871 350.7 57.6
397(11) 0.00905 350.6 56.6
376(10) 0.00990 350.6 53.2
407(11) 0.00846 350.6 48.5
401(11) 0.00842 350.5 43.7
409(11) 0.00839 350.5 39.3
419(11) 0.00845 350.5 35.5
386(10) 0.00970 350.5 32.6
401(11) 0.00868 350.4 30.3
393(11) 0.00846 350.4 28.6
386(11) 0.00906 350.4 27.2
368(10) 0.01003 350.3 26.2
350(10) 0.01076 350.3 25.3
367(10) 0.00935 350.3 24.5
352(10) 0.00939 350.3 23.7
370(11) 0.00907 350.2 23.0
376(10) 0.00974 350.2 22.3
371(10) 0.01000 350.2 21.7
388(11) 0.00884 350.1 21.0
360(10) 0.00913 350.1 20.3
367(10) 0.00940 350.1 19.7
359(10) 0.01028 350.0 19.0
354(10) 0.01036 350.0 18.4
342(10) 0.01033 350.0 17.8
339(10) 0.00966 350.0 17.3
357(10) 0.00990 349.9 16.8
384(10) 0.00976 349.9 16.3
364(10) 0.00995 349.9 15.9
338(10) 0.01034 349.8 15.5
343(10) 0.00917 349.8 15.1
330(10) 0.01069 349.8 14.8
368(10) 0.01010 349.7 14.5
382(10) 0.00939 349.7 14.2
364(10) 0.00961 349.7 13.9
379(11) 0.00861 349.7 13.7
361(10) 0.00998 349.6 13.5
343(10) 0.01082 349.6 13.4
353(10) 0.01029 349.6 13.2
364(10) 0.00944 349.5 13.1
359(10) 0.00946 349.5 13.0
360(10) 0.00976 349.5 12.9
368(10) 0.01009 349.5 12.8
372(10) 0.00945 349.4 12.8
358(10) 0.00958 349.4 12.7
376(10) 0.00909 349.4 12.7
391(11) 0.00904 349.3 12.7
369(10) 0.01010 349.3 12.7
373(10) 0.00936 349.3 12.7
395(11) 0.00834 349.2 12.8
374(10) 0.00917 349.2 12.8
365(10) 0.00956 349.2 12.9
356(10) 0.01038 349.2 13.0
349(10) 0.01003 349.1 13.1
333(10) 0.01005 349.1 13.2
370(10) 0.00926 349.1 13.3
356(10) 0.01027 349.0 13.4
365(10) 0.01018 349.0 13.6
387(11) 0.00894 349.0 13.7
377(11) 0.00887 349.0 13.9
386(10) 0.00927 348.9 14.1
350(10) 0.01040 348.9 14.3
334(10) 0.01105 348.9 14.5
369(10) 0.00911 348.8 14.8
326(10) 0.01043 348.8 15.0
357(10) 0.00976 348.8 15.3
370(10) 0.00993 348.7 15.6
343(10) 0.01056 348.7 15.9
349(10) 0.01010 348.7 16.3
364(11) 0.00888 348.7 16.7
369(10) 0.00928 348.6 17.1
356(10) 0.01034 348.6 17.5
372(10) 0.00981 348.6 18.0
380(11) 0.00895 348.5 18.5
365(11) 0.00877 348.5 19.1
366(10) 0.00941 348.5 19.7
353(10) 0.01045 348.5 20.4
369(10) 0.00991 348.4 21.1
401(11) 0.00861 348.4 21.9
386(11) 0.00855 348.4 22.8
372(10) 0.00950 348.3 23.7
387(10) 0.00965 348.3 24.8
394(10) 0.00931 348.3 25.9
377(10) 0.00919 348.2 27.1
380(11) 0.00863 348.2 28.3
379(11) 0.00897 348.2 29.6
405(10) 0.00918 348.2 30.9
420(11) 0.00855 348.1 32.2
395(11) 0.00875 348.1 33.3
385(11) 0.00856 348.1 34.4
370(10) 0.00942 348.0 35.2
372(10) 0.01001 348.0 35.9
373(10) 0.00961 348.0 36.3
388(11) 0.00884 348.0 36.5
373(10) 0.00928 347.9 36.7
402(11) 0.00845 347.9 36.8
359(10) 0.01034 347.9 36.8
375(10) 0.00941 347.8 36.9
396(11) 0.00852 347.8 37.0
387(11) 0.00891 347.8 37.2
407(11) 0.00864 347.7 37.4
391(10) 0.00944 347.7 37.7
406(11) 0.00873 347.7 38.0
420(11) 0.00815 347.7 38.3
383(11) 0.00899 347.6 38.7
380(10) 0.00943 347.6 39.2
386(10) 0.00954 347.6 39.6
406(11) 0.00839 347.5 40.0
375(10) 0.00921 347.5 40.5
414(11) 0.00850 347.5 40.9
437(11) 0.00815 347.5 41.3
410(10) 0.00908 347.4 41.6
405(11) 0.00864 347.4 41.9
423(11) 0.00790 347.4 42.2
403(11) 0.00868 347.3 42.4
395(10) 0.00921 347.3 42.6
357(10) 0.01049 347.3 42.7
387(10) 0.00925 347.2 42.7
370(11) 0.00896 347.2 42.6
371(10) 0.00963 347.2 42.5
392(10) 0.00932 347.2 42.3
396(10) 0.00945 347.1 42.1
385(10) 0.00916 347.1 41.8
396(11) 0.00812 347.1 41.5
426(11) 0.00790 347.0 41.1
392(10) 0.00945 347.0 40.7
419(11) 0.00886 347.0 40.3
415(11) 0.00825 347.0 39.9
388(11) 0.00864 346.9 39.4
395(11) 0.00887 346.9 39.0
384(10) 0.00975 346.9 38.6
377(10) 0.00976 346.8 38.2
411(11) 0.00834 346.8 37.8
369(10) 0.00913 346.8 37.5
344(10) 0.00990 346.7 37.2
386(10) 0.00961 346.7 36.9
380(10) 0.00966 346.7 36.6
396(11) 0.00880 346.7 36.4
385(11) 0.00886 346.6 36.2
376(10) 0.00926 346.6 36.0
380(10) 0.00980 346.6 35.9
388(10) 0.00927 346.5 35.8
386(11) 0.00867 346.5 35.7
392(11) 0.00810 346.5 35.6
372(10) 0.00942 346.4 35.5
386(10) 0.00965 346.4 35.4
363(10) 0.01020 346.4 35.3
388(10) 0.00915 346.4 35.2
396(11) 0.00875 346.3 35.1
406(11) 0.00882 346.3 35.0
375(10) 0.01001 346.3 34.8
390(11) 0.00879 346.2 34.6
389(11) 0.00816 346.2 34.3
364(10) 0.00920 346.2 34.1
391(10) 0.00916 346.2 33.8
382(10) 0.00970 346.1 33.4
411(11) 0.00831 346.1 33.1
378(11) 0.00887 346.1 32.7
392(11) 0.00878 346.0 32.3
377(10) 0.00973 346.0 31.8
403(10) 0.00922 346.0 31.4
388(11) 0.00883 345.9 30.9
369(10) 0.00914 345.9 30.4
378(11) 0.00888 345.9 30.0
386(10) 0.00959 345.9 29.5
388(10) 0.00959 345.8 29.0
392(11) 0.00887 345.8 28.5
369(11) 0.00877 345.8 28.0
384(10) 0.00913 345.7 27.5
376(10) 0.00986 345.7 27.0
389(10) 0.00952 345.7 26.6
398(11) 0.00846 345.7 26.1
345(10) 0.00973 345.6 25.7
383(11) 0.00890 345.6 25.2
358(10) 0.01039 345.6 24.8
369(10) 0.01000 345.5 24.4
385(11) 0.00896 345.5 24.1
382(11) 0.00840 345.5 23.7
365(10) 0.00961 345.4 23.4
390(10) 0.00937 345.4 23.1
398(10) 0.00915 345.4 22.8
376(10) 0.00936 345.4 22.6
385(11) 0.00848 345.3 22.4
370(10) 0.00931 345.3 22.2
346(10) 0.01062 345.3 22.0
343(10) 0.01090 345.2 21.9
360(10) 0.00958 345.2 21.8
364(10) 0.00917 345.2 21.7
358(10) 0.00968 345.2 21.6
368(10) 0.01000 345.1 21.6
336(10) 0.01089 345.1 21.6
359(10) 0.00957 345.1 21.7
372(11) 0.00870 345.0 21.7
362(11) 0.00902 345.0 21.9
382(10) 0.00975 345.0 22.0
351(10) 0.01036 344.9 22.2
369(10) 0.00909 344.9 22.5
369(10) 0.00930 344.9 22.8
365(10) 0.00961 344.9 23.2
363(10) 0.01028 344.8 23.7
362(10) 0.00981 344.8 24.3
371(10) 0.00927 344.8 24.9
371(10) 0.00941 344.7 25.7
394(11) 0.00906 344.7 26.7
370(10) 0.01011 344.7 27.8
383(11) 0.00907 344.7 29.0
366(10) 0.00958 344.6 30.5
366(10) 0.00958 344.6 32.2
402(11) 0.00870 344.6 34.2
400(10) 0.00938 344.5 36.5
395(11) 0.00871 344.5 39.1
415(11) 0.00767 344.5 42.0
359(10) 0.00981 344.4 45.3
372(10) 0.00976 344.4 49.0
375(10) 0.01004 344.4 52.9
387(10) 0.00942 344.4 57.1
396(11) 0.00855 344.3 61.4
411(11) 0.00859 344.3 65.8
392(10) 0.00952 344.3 69.8
419(11) 0.00888 344.2 73.2
457(12) 0.00740 344.2 75.7
425(12) 0.00755 344.2 76.8
430(11) 0.00829 344.2 76.5
439(11) 0.00853 344.1 74.7
457(11) 0.00803 344.1 71.6
401(11) 0.00835 344.1 67.6
390(11) 0.00793 344.0 62.9
389(11) 0.00889 344.0 57.9
375(10) 0.00985 344.0 53.0
373(10) 0.00991 343.9 48.2
383(10) 0.00923 343.9 43.7
372(10) 0.00945 343.9 39.6
370(10) 0.00955 343.9 35.9
380(10) 0.00974 343.8 32.6
370(10) 0.00993 343.8 29.7
362(10) 0.00976 343.8 27.1
367(10) 0.00928 343.7 24.9
378(10) 0.00919 343.7 22.9
369(10) 0.01005 343.7 21.2
365(10) 0.01015 343.7 19.7
376(10) 0.00913 343.6 18.4
363(10) 0.00926 343.6 17.3
321(10) 0.01108 343.6 16.3
359(10) 0.01042 343.5 15.5
356(10) 0.00996 343.5 14.7
342(10) 0.01025 343.5 14.0
369(10) 0.00914 343.4 13.4
349(10) 0.00996 343.4 12.9
369(10) 0.01003 343.4 12.4
371(10) 0.00962 343.4 11.9
364(10) 0.00944 343.3 11.5
352(10) 0.00979 343.3 11.1
356(10) 0.01019 343.3 10.8
397(10) 0.00937 343.2 10.4
357(10) 0.00971 343.2 10.1
338(10) 0.01026 343.2 9.8
356(10) 0.00958 343.1 9.6
342(10) 0.01049 343.1 9.3
341(10) 0.01089 343.1 9.1
329(10) 0.01046 343.1 8.9
365(11) 0.00881 343.0 8.7
329(10) 0.01068 343.0 8.5
354(10) 0.01026 343.0 8.3
366(10) 0.01020 342.9 8.2
357(10) 0.00973 342.9 8.0
309(9) 0.01139 342.9 7.9
335(10) 0.01053 342.9 7.7
306(9) 0.01218 342.8 7.6
331(9) 0.01128 342.8 7.5
336(10) 0.01022 342.8 7.4
348(10) 0.00930 342.8 7.3
370(10) 0.00926 342.8 7.2
340(10) 0.01099 342.7 7.1
353(10) 0.01049 342.7 7.0
356(10) 0.01004 342.7 7.0
374(11) 0.00856 342.7 6.9
360(10) 0.00979 342.7 6.9
351(10) 0.01054 342.6 6.8
354(10) 0.01037 342.6 6.8
359(10) 0.00982 342.6 6.8
329(10) 0.00989 342.6 6.8
341(10) 0.00981 342.6 6.9
343(10) 0.01086 342.5 6.9
326(9) 0.01130 342.5 7.0
349(10) 0.00987 342.5 7.0
343(10) 0.00991 342.5 7.1
348(10) 0.00960 342.5 7.1
339(10) 0.01095 342.4 7.2
367(10) 0.01002 342.4 7.1
343(10) 0.01053 342.4 7.1
330(10) 0.01034 342.4 7.1
364(10) 0.00927 342.4 7.1
356(10) 0.01043 342.3 7.2
383(10) 0.00931 342.3 7.3
330(10) 0.01045 342.3 7.4
375(11) 0.00890 342.3 7.6
366(10) 0.00959 342.3 8.0
328(9) 0.01118 342.2 8.5
361(10) 0.00979 342.2 9.4
369(11) 0.00903 342.2 10.8
354(10) 0.00988 342.2 13.0
361(10) 0.00963 342.2 16.4
388(10) 0.00954 342.1 21.0
411(11) 0.00862 342.1 27.0
390(11) 0.00883 342.1 33.7
424(11) 0.00796 342.1 40.0
385(10) 0.00966 342.1 44.1
393(10) 0.00930 342.0 44.1
404(11) 0.00845 342.0 40.1
361(11) 0.00904 342.0 33.8
361(10) 0.00967 342.0 27.2
354(10) 0.01026 342.0 21.3
360(10) 0.01029 341.9 16.7
366(10) 0.00953 341.9 13.4
356(10) 0.00922 341.9 11.2
354(10) 0.00966 341.9 9.9
340(10) 0.01088 341.9 9.1
350(10) 0.01055 341.8 8.6
358(10) 0.00949 341.8 8.4
331(10) 0.01000 341.8 8.2
329(10) 0.01086 341.8 8.1
369(10) 0.01010 341.8 8.1
357(10) 0.01037 341.8 8.1
354(10) 0.01000 341.7 8.2
345(10) 0.00911 341.7 8.3
347(10) 0.00995 341.7 8.5
360(10) 0.01014 341.7 8.6
344(10) 0.01081 341.7 8.8
341(10) 0.01034 341.6 9.1
334(10) 0.00955 341.6 9.3
341(10) 0.01007 341.6 9.6
354(10) 0.01051 341.6 9.9
372(10) 0.00996 341.6 10.3
403(11) 0.00885 341.5 10.7
375(10) 0.00920 341.5 11.1
347(10) 0.01042 341.5 11.6
327(9) 0.01145 341.5 12.1
358(10) 0.01007 341.5 12.7
368(10) 0.00944 341.4 13.3
343(10) 0.00985 341.4 13.9
371(11) 0.00896 341.4 14.6
352(10) 0.01060 341.4 15.3
357(10) 0.01014 341.4 16.1
336(10) 0.01029 341.3 16.9
336(10) 0.01004 341.3 17.8
354(10) 0.00956 341.3 18.7
356(10) 0.01043 341.3 19.7
375(10) 0.00958 341.3 20.6
344(10) 0.01005 341.2 21.7
332(10) 0.01026 341.2 22.7
375(10) 0.00928 341.2 23.7
354(10) 0.01054 341.2 24.8
369(10) 0.00951 341.2 25.8
378(11) 0.00902 341.1 26.8
366(10) 0.00961 341.1 27.8
391(11) 0.00887 341.1 28.6
394(10) 0.00955 341.1 29.4
364(10) 0.00945 341.1 30.0
372(10) 0.00914 341.0 30.5
339(10) 0.01073 341.0 30.9
396(10) 0.00916 341.0 31.1
366(10) 0.01001 341.0 31.1
376(10) 0.00925 341.0 30.9
372(11) 0.00880 340.9 30.5
383(10) 0.00924 340.9 30.0
377(10) 0.00996 340.9 29.4
364(10) 0.01031 340.9 28.6
369(11) 0.00901 340.9 27.7
390(11) 0.00824 340.8 26.8
412(11) 0.00821 340.8 25.8
364(10) 0.01018 340.8 24.8
367(10) 0.01018 340.8 23.7
360(10) 0.00967 340.8 22.7
352(11) 0.00889 340.8 21.7
373(10) 0.00931 340.7 20.7
371(10) 0.00997 340.7 19.8
360(10) 0.01052 340.7 18.9
366(10) 0.00918 340.7 18.1
330(10) 0.00985 340.7 17.3
350(10) 0.00977 340.6 16.4
354(10) 0.01051 340.6 15.6
350(10) 0.01034 340.6 14.7
358(10) 0.00950 340.6 13.9
344(10) 0.00949 340.6 13.1
357(10) 0.00977 340.5 12.4
373(10) 0.01002 340.5 11.7
343(10) 0.01072 340.5 11.1
343(10) 0.00994 340.5 10.6
335(10) 0.01037 340.5 10.0
371(10) 0.00929 340.4 9.6
350(10) 0.01069 340.4 9.1
338(10) 0.01082 340.4 8.7
354(10) 0.00959 340.4 8.4
325(10) 0.01074 340.4 8.0
361(10) 0.00964 340.3 7.7
346(10) 0.01074 340.3 7.4
364(10) 0.00993 340.3 7.1
359(10) 0.00938 340.3 6.9
350(10) 0.00989 340.3 6.6
373(10) 0.00971 340.2 6.4
339(10) 0.01088 340.2 6.2
366(10) 0.00964 340.2 6.0
339(10) 0.01015 340.2 5.9
340(10) 0.00998 340.2 5.7
350(10) 0.01005 340.1 5.6
370(10) 0.01005 340.1 5.4
336(10) 0.01047 340.1 5.3
340(10) 0.01027 340.1 5.2
341(10) 0.01027 340.1 5.1
344(10) 0.01049 340.0 5.0
363(10) 0.01021 340.0 4.9
360(10) 0.00944 340.0 4.9
338(10) 0.00998 340.0 4.8
332(10) 0.01078 340.0 4.8
360(10) 0.01010 339.9 4.7
367(10) 0.01011 339.9 4.7
332(10) 0.01053 339.9 4.7
349(10) 0.00917 339.9 4.7
353(10) 0.00966 339.9 4.7
348(10) 0.01063 339.8 4.7
353(10) 0.01025 339.8 4.8
343(10) 0.00976 339.8 4.8
347(10) 0.00929 339.8 4.9
337(10) 0.01068 339.8 5.1
352(10) 0.01036 339.8 5.3
372(10) 0.00994 339.7 5.6
373(10) 0.00923 339.7 6.0
362(11) 0.00905 339.7 6.6
375(10) 0.00907 339.7 7.3
349(10) 0.01049 339.7 8.3
348(10) 0.01063 339.6 9.5
356(10) 0.00964 339.6 11.0
341(10) 0.00970 339.6 12.8
358(10) 0.00948 339.6 14.8
354(10) 0.01052 339.6 16.8
374(10) 0.00991 339.5 18.6
367(10) 0.00974 339.5 19.8
381(11) 0.00855 339.5 20.1
354(10) 0.00984 339.5 19.4
368(10) 0.01009 339.5 17.9
348(10) 0.01063 339.4 15.9
357(10) 0.00941 339.4 13.9
380(11) 0.00850 339.4 12.0
377(11) 0.00905 339.4 10.3
350(10) 0.01060 339.4 8.9
300(9) 0.01183 339.3 7.7
358(10) 0.00915 339.3 6.9
376(11) 0.00892 339.3 6.2
345(10) 0.01018 339.3 5.7
352(10) 0.01043 339.3 5.3
365(10) 0.00957 339.2 5.0
339(10) 0.01026 339.2 4.8
357(10) 0.00908 339.2 4.6
354(10) 0.00988 339.2 4.5
334(10) 0.01098 339.2 4.4
321(10) 0.01075 339.1 4.3
347(10) 0.00963 339.1 4.2
345(10) 0.01004 339.1 4.1
336(10) 0.01087 339.1 4.0
345(10) 0.01084 339.1 4.0
358(10) 0.00993 339.0 3.9
363(10) 0.00930 339.0 3.9
352(10) 0.00989 339.0 3.8
357(10) 0.00998 339.0 3.8
361(10) 0.01022 339.0 3.7
354(10) 0.00925 338.9 3.7
348(10) 0.00945 338.9 3.7
363(10) 0.00992 338.9 3.6
374(10) 0.00999 338.9 3.6
358(10) 0.01047 338.9 3.6
318(10) 0.01078 338.8 3.6
343(10) 0.00947 338.8 3.6
321(10) 0.01063 338.8 3.5
332(10) 0.01098 338.8 3.5
339(9) 0.01109 338.8 3.5
360(10) 0.00981 338.8 3.5
352(11) 0.00887 338.7 3.5
329(10) 0.01057 338.7 3.5
351(10) 0.01064 338.7 3.5
333(10) 0.01073 338.7 3.5
351(10) 0.00969 338.7 3.5
368(11) 0.00880 338.6 3.4
349(10) 0.01000 338.6 3.4
356(10) 0.01043 338.6 3.4
363(10) 0.00997 338.6 3.4
351(10) 0.00941 338.6 3.4
330(10) 0.00992 338.5 3.3
348(10) 0.00967 338.5 3.3
313(9) 0.01199 338.5 3.3
321(10) 0.01105 338.5 3.3
351(10) 0.00980 338.5 3.2
329(10) 0.01015 338.4 3.2
340(10) 0.00969 338.4 3.2
325(9) 0.01140 338.4 3.1
361(10) 0.01019 338.4 3.1
335(10) 0.01022 338.4 3.0
344(10) 0.00957 338.3 3.0
349(10) 0.00988 338.3 3.0
346(10) 0.01079 338.3 2.9
351(10) 0.01019 338.3 2.9
358(10) 0.00982 338.3 2.8
334(10) 0.01027 338.2 2.8
311(9) 0.01110 338.2 2.8
356(10) 0.01043 338.2 2.7
346(10) 0.01024 338.2 2.7
338(10) 0.00992 338.2 2.6
340(10) 0.01005 338.1 2.6
344(10) 0.01014 338.1 2.6
341(10) 0.01100 338.1 2.5
326(10) 0.01066 338.1 2.5
335(10) 0.01002 338.1 2.5
360(10) 0.00968 338.0 2.4
356(10) 0.01032 338.0 2.4
334(9) 0.01112 338.0 2.4
336(10) 0.01041 338.0 2.3
330(10) 0.01017 338.0 2.3
355(10) 0.00983 337.9 2.3
350(10) 0.01036 337.9 2.2
336(10) 0.01101 337.9 2.2
340(10) 0.00996 337.9 2.2
335(10) 0.00981 337.9 2.2
340(10) 0.01047 337.8 2.1
355(10) 0.01053 337.8 2.1
330(9) 0.01131 337.8 2.1
350(10) 0.00994 337.8 2.1
352(10) 0.00916 337.8 2.1
346(10) 0.01025 337.8 2.0
357(10) 0.01046 337.7 2.0
338(10) 0.01077 337.7 2.0
351(10) 0.00953 337.7 2.0
350(11) 0.00889 337.7 2.0
322(10) 0.01070 337.7 2.0
330(9) 0.01136 337.6 2.0
344(10) 0.01064 337.6 2.0
356(10) 0.00955 337.6 1.9
349(10) 0.00944 337.6 1.9
370(10) 0.00945 337.6 1.9
347(10) 0.01085 337.5 1.9
347(10) 0.01053 337.5 1.9
356(10) 0.00944 337.5 1.9
336(10) 0.00987 337.5 1.9
321(9) 0.01113 337.5 1.9
351(10) 0.01059 337.4 1.9
324(9) 0.01133 337.4 1.9
351(10) 0.00999 337.4 1.9
359(10) 0.00950 337.4 1.9
372(10) 0.00915 337.4 1.9
334(9) 0.01114 337.3 1.9
344(10) 0.01020 337.3 1.9
325(10) 0.01043 337.3 1.9
339(10) 0.01004 337.3 1.9
343(10) 0.00986 337.3 1.9
313(9) 0.01201 337.2 1.9
341(10) 0.01033 337.2 1.9
361(10) 0.00956 337.2 1.9
370(10) 0.00935 337.2 1.9
329(10) 0.01106 337.2 1.9
363(10) 0.01018 337.1 2.0
366(10) 0.00939 337.1 2.0
359(10) 0.00916 337.1 2.0
328(10) 0.01033 337.1 2.0
353(10) 0.01041 337.1 2.0
324(9) 0.01145 337.1 2.0
333(10) 0.01046 337.2 2.0
345(10) 0.00942 337.2 2.0
329(10) 0.01092 337.2 2.1
388(10) 0.00930 337.3 2.1
333(10) 0.01107 337.3 2.1
363(10) 0.00930 337.3 2.1
335(10) 0.01023 337.4 2.1
363(10) 0.00954 337.4 2.1
344(10) 0.01081 337.4 2.2
334(10) 0.01104 337.5 2.2
345(10) 0.01031 337.5 2.2
368(11) 0.00876 337.5 2.2
353(10) 0.00979 337.5 2.2
320(9) 0.01158 337.6 2.3
317(9) 0.01143 337.6 2.3
327(10) 0.01071 337.6 2.3
352(10) 0.00910 337.7 2.3
342(10) 0.01026 337.7 2.3
347(10) 0.01080 337.7 2.4
406(11) 0.00906 337.8 2.4
359(10) 0.00967 337.8 2.4
333(10) 0.00941 337.8 2.4
352(10) 0.00986 337.9 2.4
350(10) 0.01043 337.9 2.5
347(10) 0.01044 337.9 2.5
330(10) 0.01048 338.0 2.5
358(11) 0.00881 338.0 2.5
323(10) 0.01047 338.0 2.5
338(10) 0.01079 338.1 2.6
324(10) 0.01106 338.1 2.6
330(10) 0.01055 338.1 2.6
346(10) 0.00973 338.1 2.6
307(9) 0.01119 338.2 2.7
361(10) 0.01031 338.2 2.7
356(10) 0.01000 338.2 2.7
351(10) 0.00953 338.3 2.8
330(10) 0.01052 338.3 2.8
357(10) 0.00950 338.3 2.8
341(10) 0.01077 338.4 2.9
357(10) 0.00970 338.4 2.9
353(10) 0.00981 338.4 3.0
344(10) 0.01014 338.5 3.0
364(10) 0.00985 338.5 3.1
357(10) 0.01025 338.5 3.1
362(10) 0.00909 338.6 3.2
368(11) 0.00893 338.6 3.2
346(10) 0.00979 338.6 3.3
343(10) 0.01056 338.7 3.3
342(10) 0.01074 338.7 3.4
348(10) 0.00986 338.7 3.5
333(10) 0.01032 338.7 3.5
345(10) 0.01003 338.8 3.6
339(10) 0.01080 338.8 3.7
338(10) 0.01074 338.8 3.8
336(10) 0.01037 338.9 3.9
349(10) 0.00940 338.9 4.0
364(10) 0.00948 338.9 4.1
376(10) 0.00977 339.0 4.2
335(10) 0.01106 339.0 4.3
339(10) 0.01031 339.0 4.5
352(10) 0.00924 339.1 4.6
360(10) 0.00957 339.1 4.8
358(10) 0.01008 339.1 4.9
352(10) 0.01063 339.2 5.1
365(10) 0.00937 339.2 5.3
350(10) 0.00931 339.2 5.4
341(10) 0.01034 339.3 5.6
314(9) 0.01187 339.3 5.9
340(10) 0.01086 339.3 6.1
370(10) 0.00940 339.3 6.3
353(10) 0.00967 339.4 6.6
375(10) 0.00908 339.4 6.9
338(10) 0.01092 339.4 7.2
349(10) 0.01046 339.5 7.5
363(10) 0.00921 339.5 7.9
377(11) 0.00863 339.5 8.3
344(10) 0.00988 339.6 8.7
343(10) 0.01091 339.6 9.1
374(10) 0.00931 339.6 9.6
337(10) 0.01043 339.7 10.1
372(11) 0.00899 339.7 10.7
376(11) 0.00887 339.7 11.3
358(10) 0.01035 339.8 12.0
377(10) 0.00949 339.8 12.7
359(10) 0.00959 339.8 13.5
366(10) 0.00922 339.8 14.4
368(10) 0.00965 339.9 15.4
364(10) 0.01020 339.9 16.4
375(10) 0.00954 339.9 17.5
366(10) 0.00943 340.0 18.7
343(10) 0.01016 340.0 20.1
390(10) 0.00934 340.0 21.5
364(10) 0.01026 340.1 23.0
350(10) 0.01004 340.1 24.6
369(11) 0.00883 340.1 26.3
360(10) 0.00960 340.2 28.1
355(10) 0.00998 340.2 29.9
371(10) 0.01001 340.2 31.8
378(10) 0.00913 340.3 33.7
339(10) 0.01008 340.3 35.6
367(10) 0.00921 340.3 37.3
377(10) 0.00966 340.4 38.9
398(10) 0.00937 340.4 40.3
397(11) 0.00862 340.4 41.3
376(11) 0.00884 340.4 41.9
392(10) 0.00913 340.5 42.1
416(11) 0.00875 340.5 41.9
380(10) 0.00976 340.5 41.3
388(11) 0.00899 340.6 40.4
393(11) 0.00822 340.6 39.2
405(11) 0.00843 340.6 37.9
401(10) 0.00923 340.7 36.5
366(10) 0.01008 340.7 35.0
378(10) 0.00939 340.7 33.6
386(11) 0.00818 340.8 32.3
379(11) 0.00901 340.8 31.0
348(10) 0.01066 340.8 29.9
334(10) 0.01091 340.9 28.9
324(10) 0.01103 340.9 28.0
363(11) 0.00893 340.9 27.2
339(10) 0.00996 341.0 26.5
352(10) 0.01060 341.0 25.9
355(10) 0.01020 341.0 25.3
353(10) 0.00978 341.0 24.8
347(10) 0.00947 341.1 24.3
363(10) 0.00931 341.1 23.8
389(10) 0.00946 341.1 23.3
367(10) 0.00989 341.2 22.8
353(10) 0.00978 341.2 22.3
358(10) 0.00934 341.2 21.8
353(10) 0.00973 341.3 21.3
366(10) 0.01009 341.3 20.8
341(10) 0.01046 341.3 20.3
350(10) 0.00939 341.4 19.8
377(11) 0.00891 341.4 19.3
381(11) 0.00900 341.4 18.9
358(10) 0.01042 341.5 18.5
359(10) 0.01002 341.5 18.1
360(10) 0.00938 341.5 17.8
374(10) 0.00923 341.6 17.5
370(10) 0.00940 341.6 17.3
327(9) 0.01143 341.6 17.1
358(10) 0.00988 341.6 16.9
385(11) 0.00860 341.7 16.7
337(10) 0.01014 341.7 16.5
352(10) 0.01004 341.7 16.4
378(10) 0.00981 341.8 16.3
379(11) 0.00887 341.8 16.2
349(10) 0.00971 341.8 16.1
347(10) 0.01012 341.9 16.0
353(10) 0.01025 341.9 15.9
359(10) 0.01024 341.9 15.8
367(10) 0.00936 342.0 15.7
339(10) 0.00980 342.0 15.5
343(10) 0.00959 342.0 15.4
343(10) 0.01069 342.1 15.2
367(10) 0.01014 342.1 15.1
363(10) 0.00997 342.1 14.9
367(11) 0.00880 342.2 14.7
354(10) 0.00963 342.2 14.6
344(10) 0.01060 342.2 14.4
354(10) 0.01043 342.2 14.3
348(10) 0.01011 342.3 14.1
371(11) 0.00838 342.3 14.0
354(10) 0.00966 342.3 13.9
353(10) 0.01042 342.4 13.9
372(10) 0.00980 342.4 13.9
345(10) 0.01026 342.4 14.1
320(10) 0.01018 342.5 14.6
332(10) 0.01024 342.5 15.3
341(10) 0.01083 342.5 16.5
343(10) 0.01061 342.6 18.3
351(10) 0.00988 342.6 20.6
341(10) 0.00963 342.6 23.3
368(10) 0.00929 342.7 26.1
371(10) 0.01005 342.7 28.3
336(10) 0.01067 342.7 29.1
358(10) 0.00939 342.8 28.1
346(10) 0.00986 342.8 25.6
364(10) 0.00989 342.8 22.6
364(10) 0.01017 342.8 19.7
350(10) 0.01025 342.9 17.2
380(11) 0.00893 342.9 15.3
364(10) 0.00915 342.9 13.9
337(10) 0.01036 343.0 12.9
346(10) 0.01065 343.0 12.4
346(10) 0.01060 343.0 12.0
353(10) 0.00927 343.1 11.8
351(10) 0.00971 343.1 11.7
346(10) 0.01029 343.1 11.6
368(10) 0.01013 343.2 11.6
337(10) 0.01050 343.2 11.7
371(11) 0.00885 343.2 11.7
341(10) 0.01005 343.3 11.8
354(10) 0.00999 343.3 12.0
347(10) 0.01078 343.3 12.1
358(10) 0.00990 343.3 12.3
362(10) 0.00929 343.4 12.5
354(10) 0.00987 343.4 12.7
379(10) 0.00953 343.4 12.9
385(10) 0.00955 343.5 13.1
390(11) 0.00879 343.5 13.2
378(11) 0.00890 343.5 13.4
391(11) 0.00869 343.6 13.6
371(10) 0.00973 343.6 13.7
389(10) 0.00951 343.6 13.9
362(10) 0.00921 343.7 14.0
349(10) 0.00920 343.7 14.1
356(10) 0.00955 343.7 14.3
334(10) 0.01088 343.8 14.4
341(10) 0.01076 343.8 14.5
352(10) 0.00985 343.8 14.6
352(10) 0.00910 343.9 14.7
364(10) 0.00921 343.9 14.8
342(10) 0.01087 343.9 14.9
358(10) 0.01011 343.9 14.9
377(10) 0.00940 344.0 15.0
354(10) 0.00952 344.0 15.0
366(10) 0.00958 344.0 15.0
360(10) 0.01035 344.1 15.0
361(10) 0.01021 344.1 14.9
367(10) 0.00981 344.1 14.9
376(11) 0.00865 344.2 14.8
353(10) 0.00987 344.2 14.7
350(10) 0.01067 344.2 14.6
380(10) 0.00960 344.3 14.4
358(10) 0.00955 344.3 14.2
350(10) 0.00978 344.3 14.1
361(10) 0.00964 344.4 13.9
359(10) 0.01039 344.4 13.6
352(10) 0.01002 344.4 13.4
343(10) 0.00986 344.5 13.2
349(10) 0.00961 344.5 12.9
354(10) 0.00944 344.5 12.7
364(10) 0.01009 344.5 12.5
362(10) 0.01002 344.6 12.2
348(10) 0.01013 344.6 12.0
338(10) 0.00997 344.6 11.8
360(10) 0.00985 344.7 11.6
365(10) 0.01016 344.7 11.5
350(10) 0.01012 344.7 11.5
365(10) 0.00951 344.8 11.7
345(10) 0.01024 344.8 12.2
375(10) 0.00948 344.8 12.8
362(10) 0.01028 344.9 13.6
350(10) 0.01007 344.9 14.3
357(10) 0.00939 344.9 14.6
363(10) 0.00947 345.0 14.3
341(10) 0.01038 345.0 13.3
373(10) 0.00997 345.0 12.1
352(10) 0.00981 345.1 10.9
375(11) 0.00875 345.1 9.9
354(10) 0.00968 345.1 9.1
350(10) 0.01067 345.1 8.5
356(10) 0.01047 345.2 8.2
337(10) 0.01014 345.2 7.9
324(10) 0.00986 345.2 7.7
339(10) 0.01009 345.3 7.6
350(10) 0.01043 345.3 7.5
322(9) 0.01165 345.3 7.4
349(10) 0.01025 345.4 7.3
359(10) 0.00920 345.4 7.2
349(10) 0.00988 345.4 7.2
333(9) 0.01118 345.5 7.1
359(10) 0.01046 345.5 7.0
330(10) 0.01077 345.5 6.9
338(10) 0.00926 345.6 6.9
342(10) 0.01016 345.6 6.8
348(10) 0.01075 345.6 6.8
321(9) 0.01176 345.7 6.8
335(10) 0.01027 345.7 6.8
349(10) 0.00924 345.7 6.8
321(9) 0.01140 345.7 6.9
348(10) 0.01059 345.8 7.1
340(10) 0.01091 345.8 7.3
339(10) 0.01035 345.8 7.5
342(10) 0.00996 345.9 7.8
365(10) 0.00923 345.9 8.2
348(10) 0.01073 345.9 8.6
379(10) 0.00968 346.0 9.0
346(10) 0.01032 346.0 9.4
360(10) 0.00935 346.0 9.7
336(10) 0.01026 346.1 10.0
350(10) 0.01076 346.1 10.2
359(10) 0.00998 346.1 10.3
365(10) 0.00955 346.2 10.2
364(10) 0.00941 346.2 10.1
354(10) 0.00990 346.2 9.9
355(10) 0.01038 346.3 9.6
339(10) 0.00998 346.3 9.2
321(10) 0.01043 346.3 8.9
341(10) 0.00999 346.3 8.6
344(10) 0.01054 346.4 8.3
348(10) 0.01065 346.4 8.0
337(10) 0.01064 346.4 7.8
341(10) 0.01006 346.5 7.6
356(10) 0.00964 346.5 7.5
353(10) 0.01034 346.5 7.4
349(10) 0.01057 346.6 7.4
359(10) 0.00926 346.6 7.5
352(10) 0.00961 346.6 7.6
357(10) 0.00963 346.7 7.8
351(10) 0.01010 346.7 8.0
388(10) 0.00966 346.7 8.4
362(10) 0.00967 346.8 8.9
342(10) 0.00974 346.8 9.6
351(10) 0.00962 346.8 10.6
375(10) 0.00962 346.8 12.1
355(10) 0.01054 346.9 14.2
382(11) 0.00880 346.9 17.2
360(10) 0.00935 346.9 21.3
361(10) 0.00980 347.0 26.9
384(10) 0.00961 347.0 33.9
402(10) 0.00924 347.0 42.2
401(11) 0.00863 347.1 51.1
425(11) 0.00757 347.1 59.3
399(11) 0.00895 347.1 64.8
412(11) 0.00893 347.2 65.6
404(10) 0.00911 347.2 61.5
375(11) 0.00907 347.2 54.0
378(11) 0.00860 347.3 45.3
370(10) 0.00930 347.3 36.9
346(10) 0.01059 347.3 29.8
327(9) 0.01123 347.4 24.1
346(10) 0.01005 347.4 19.9
362(11) 0.00904 347.4 16.9
377(11) 0.00907 347.4 15.0
361(10) 0.01037 347.5 13.9
374(10) 0.00978 347.5 13.5
365(10) 0.00919 347.5 13.6
372(11) 0.00859 347.6 14.3
368(10) 0.00917 347.6 15.5
382(10) 0.00984 347.6 17.1
368(10) 0.01003 347.7 19.0
366(10) 0.00963 347.7 20.9
368(10) 0.00930 347.7 22.4
355(10) 0.00978 347.8 22.8
384(10) 0.00967 347.8 22.0
345(10) 0.01020 347.8 20.1
339(10) 0.01040 347.9 17.7
390(11) 0.00875 347.9 15.2
353(10) 0.01001 347.9 13.0
331(9) 0.01127 348.0 11.1
358(10) 0.00981 348.0 9.6
368(10) 0.00959 348.0 8.4
342(10) 0.01020 348.0 7.5
351(10) 0.01042 348.1 6.9
349(10) 0.01068 348.1 6.4
346(10) 0.00995 348.1 6.0
339(10) 0.01019 348.2 5.7
348(10) 0.01017 348.2 5.4
347(10) 0.01050 348.2 5.2
350(10) 0.01057 348.3 5.0
355(10) 0.00959 348.3 4.8
338(10) 0.01008 348.3 4.6
334(10) 0.01071 348.4 4.4
347(10) 0.01061 348.4 4.3
357(10) 0.01041 348.4 4.2
330(10) 0.01087 348.5 4.0
353(11) 0.00895 348.5 3.9
338(10) 0.01017 348.5 3.8
374(10) 0.00965 348.6 3.7
301(9) 0.01251 348.6 3.7
337(10) 0.01032 348.6 3.6
365(11) 0.00857 348.6 3.5
340(10) 0.01083 348.6 3.4
346(10) 0.01054 348.6 3.4
344(10) 0.01082 348.6 3.3
327(10) 0.01063 348.6 3.3
321(10) 0.00993 348.6 3.2
352(10) 0.00923 348.6 3.2
333(9) . . .
341(10) . . .
328(10) . . .
331(10) . . .
340(10) . . .
348(10) . . .
342(10) . . .
349(10) . . .
349(10) . . .
334(10) . . .
327(9) . . .
332(10) . . .
329(10) . . .
326(10) . . .
345(10) . . .
315(9) . . .
331(10) . . .
341(10) . . .
355(10) . . .
328(9) . . .
347(10) . . .
349(10) . . .
329(10) . . .
336(10) . . .
322(10) . . .
333(10) . . .
352(10) . . .
331(10) . . .
329(10) . . .
344(10) . . .
349(10) . . .
327(10) . . .
348(10) . . .
327(10) . . .
350(10) . . .
354(10) . . .
356(10) . . .
342(10) . . .
351(10) . . .
342(10) . . .
342(10) . . .
308(9) . . .
343(10) . . .
344(10) . . .
324(9) . . .
333(9) . . .
335(10) . . .
360(11) . . .
352(10) . . .
355(10) . . .
355(10) . . .
349(10) . . .
338(10) . . .
326(10) . . .
352(10) . . .
336(10) . . .
328(10) . . .
310(9) . . .
338(10) . . .
336(10) . . .
349(10) . . .
335(10) . . .
353(10) . . .
353(10) . . .
338(10) . . .
351(10) . . .
354(10) . . .
341(10) . . .
340(10) . . .
323(9) . . .
339(10) . . .
352(10) . . .
309(9) . . .
336(10) . . .
332(9) . . .
327(9) . . .
359(10) . . .
333(10) . . .
356(10) . . .
353(10) . . .
328(10) . . .
342(10) . . .
367(10) . . .
327(10) . . .
323(9) . . .
340(10) . . .
349(10) . . .
339(10) . . .
350(10) . . .
353(10) . . .
341(10) . . .
353(10) . . .
360(10) . . .
314(9) . . .
316(9) . . .
364(10) . . .
337(10) . . .
343(10) . . .
321(9) . . .
361(10) . . .
325(10) . . .
355(11) . . .
363(10) . . .
336(10) . . .
350(10) . . .
335(10) . . .
329(10) . . .
341(10) . . .
343(10) . . .
358(10) . . .
347(10) . . .
342(10) . . .
325(10) . . .
355(10) . . .
345(10) . . .
322(9) . . .
365(11) . . .
328(10) . . .
318(9) . . .
359(10) . . .
352(10) . . .
334(10) . . .
343(10) . . .
367(10) . . .
339(10) . . .
354(10) . . .
344(10) . . .
357(10) . . .
356(10) . . .
311(9) . . .
354(11) . . .
356(10) . . .
363(10) . . .
362(10) . . .
362(10) . . .
344(10) . . .
332(10) . . .
341(10) . . .
368(10) . . .
329(10) . . .
333(10) . . .
368(10) . . .
328(9) . . .
326(9) . . .
344(10) . . .
343(10) . . .
331(10) . . .
352(10) . . .
354(10) . . .
363(10) . . .
333(10) . . .
347(10) . . .
368(10) . . .
357(10) . . .
358(10) . . .
356(10) . . .
362(10) . . .
363(10) . . .
344(10) . . .
356(10) . . .
357(10) . . .
352(10) . . .
353(10) . . .
365(10) . . .
383(10) . . .
366(10) . . .
375(10) . . .
375(10) . . .
354(10) . . .
357(10) . . .
359(10) . . .
340(10) . . .
351(10) . . .
328(10) . . .
355(10) . . .
356(10) . . .
344(10) . . .
361(10) . . .
345(10) . . .
341(10) . . .
360(10) . . .
379(10) . . .
370(10) . . .
339(10) . . .
336(10) . . .
320(10) . . .
351(10) . . .
359(10) . . .
340(10) . . .
351(10) . . .
354(10) . . .
337(10) . . .
343(10) . . .
361(10) . . .
319(10) . . .
337(10) . . .
355(10) . . .
355(10) . . .
317(9) . . .
324(10) . . .
331(10) . . .
332(9) . . .
349(10) . . .
354(10) . . .
335(10) . . .
329(10) . . .
310(9) . . .
351(10) . . .
335(10) . . .
358(10) . . .
338(10) . . .
318(9) . . .
326(9) . . .
327(10) . . .
355(10) . . .
328(10) . . .
325(9) . . .
307(9) . . .
350(10) . . .
343(10) . . .
353(10) . . .
377(10) . . .
361(10) . . .
358(10) . . .
355(10) . . .
367(10) . . .
401(10) . . .
381(10) . . .
355(10) . . .
325(10) . . .
341(10) . . .
341(10) . . .
360(10) . . .
365(10) . . .
351(10) . . .
363(10) . . .
333(9) . . .
341(10) . . .
340(10) . . .
375(10) . . .
354(10) . . .
338(9) . . .
335(10) . . .
364(11) . . .
365(10) . . .
354(10) . . .
353(10) . . .
373(10) . . .
365(11) . . .
367(10) . . .
345(10) . . .
329(9) . . .
345(10) . . .
341(10) . . .
333(10) . . .
355(10) . . .
349(10) . . .
375(10) . . .
385(11) . . .
349(10) . . .
360(10) . . .
343(10) . . .
374(11) . . .
395(11) . . .
392(11) . . .
383(10) . . .
391(10) . . .
395(11) . . .
395(11) . . .
391(11) . . .
403(10) . . .
388(10) . . .
408(11) . . .
369(10) . . .
415(11) . . .
393(10) . . .
370(10) . . .
380(11) . . .
377(11) . . .
359(10) . . .
378(10) . . .
404(11) . . .
372(10) . . .
375(10) . . .
371(10) . . .
372(10) . . .
365(10) . . .
372(11) . . .
384(11) . . .
361(10) . . .
332(9) . . .
342(10) . . .
334(10) . . .
349(10) . . .
356(10) . . .
343(10) . . .
323(10) . . .
333(10) . . .
336(10) . . .
346(10) . . .
316(9) . . .
340(10) . . .
331(10) . . .
323(10) . . .
333(9) . . .
340(10) . . .
344(10) . . .
327(10) . . .
311(9) . . .
335(10) . . .
329(10) . . .
340(10) . . .
334(10) . . .
330(10) . . .
329(9) . . .
320(9) . . .
326(10) . . .
330(10) . . .
316(9) . . .
339(10) . . .
315(9) . . .
320(10) . . .
345(10) . . .
306(9) . . .
331(9) . . .
322(10) . . .
327(10) . . .
324(10) . . .
330(10) . . .
306(9) . . .
309(9) . . .
312(10) . . .
301(9) . . .
303(9) . . .
328(9) . . .
332(10) . . .
320(10) . . .
327(10) . . .
343(10) . . .
310(9) . . .
326(10) . . .
359(11) . . .
336(10) . . .
317(9) . . .
354(10) . . .
317(9) . . .
346(10) . . .
324(9) . . .
345(10) . . .
343(10) . . .
342(10) . . .
343(10) . . .
329(10) . . .
327(9) . . .
365(10) . . .
328(10) . . .
316(10) . . .
354(10) . . .
317(9) . . .
346(10) . . .
344(10) . . .
349(10) . . .
336(10) . . .
344(10) . . .
331(10) . . .
341(10) . . .
328(10) . . .
325(10) . . .
325(9) . . .
322(10) . . .
332(10) . . .
334(10) . . .
307(9) . . .
316(9) . . .
329(10) . . .
309(10) . . .
283(9) . . .
361(10) . . .
354(10) . . .
304(9) . . .
330(10) . . .
332(10) . . .
329(10) . . .
342(10) . . .
323(10) . . .
337(10) . . .
335(10) . . .
330(9) . . .
316(9) . . .
320(10) . . .
315(10) . . .
295(9) . . .
328(9) . . .
314(9) . . .
313(9) . . .
313(10) . . .
327(10) . . .
291(9) . . .
323(9) . . .
319(10) . . .
310(10) . . .
332(10) . . .
296(9) . . .
325(9) . . .
329(10) . . .
314(10) . . .
318(9) . . .
320(9) . . .
354(10) . . .
331(10) . . .
328(10) . . .
309(9) . . .
314(9) . . .
297(9) . . .
295(9) . . .
317(10) . . .
316(9) . . .
299(9) . . .
317(9) . . .
319(10) . . .
320(10) . . .
338(10) . . .
324(9) . . .
337(10) . . .
330(10) . . .
330(10) . . .
316(9) . . .
308(9) . . .
339(10) . . .
310(9) . . .
332(10) . . .
327(10) . . .
311(9) . . .
345(10) . . .
351(10) . . .
349(10) . . .
333(10) . . .
337(10) . . .
342(10) . . .
378(11) . . .
345(10) . . .
333(10) . . .
353(10) . . .
352(10) . . .
314(10) . . .
354(10) . . .
354(10) . . .
360(10) . . .
362(10) . . .
357(11) . . .
330(10) . . .
329(9) . . .
350(10) . . .
354(10) . . .
314(10) . . .
335(10) . . .
329(9) . . .
323(9) . . .
352(10) . . .
332(10) . . .
319(10) . . .
317(9) . . .
317(9) . . .
346(10) . . .
347(10) . . .
333(10) . . .
331(9) . . .
295(9) . . .
355(10) . . .
341(10) . . .
326(10) . . .
311(9) . . .
340(10) . . .
331(10) . . .
334(10) . . .
342(10) . . .
337(9) . . .
326(10) . . .
341(10) . . .
347(10) . . .
374(10) . . .
346(10) . . .
377(10) . . .
389(11) . . .
358(10) . . .
344(10) . . .
364(10) . . .
367(10) . . .
349(10) . . .
363(10) . . .
381(10) . . .
371(10) . . .
360(10) . . .
344(10) . . .
338(10) . . .
332(10) . . .
338(10) . . .
360(10) . . .
352(11) . . .
335(10) . . .
340(10) . . .
304(9) . . .
310(9) . . .
312(10) . . .
326(10) . . .
311(9) . . .
307(9) . . .
325(10) . . .
308(10) . . .
310(9) . . .
334(9) . . .
315(9) . . .
310(10) . . .
298(9) . . .
338(10) . . .
313(9) . . .
329(10) . . .
302(9) . . .
290(9) . . .
295(9) . . .
312(9) . . .
295(9) . . .
302(9) . . .
329(10) . . .
320(10) . . .
326(9) . . .
313(9) . . .
310(9) . . .
304(9) . . .
305(9) . . .
298(9) . . .
305(9) . . .
299(10) . . .
280(9) . . .
302(9) . . .
290(9) . . .
297(9) . . .
286(9) . . .
299(9) . . .
292(9) . . .
313(9) . . .
314(10) . . .
270(9) . . .
286(9) . . .
315(9) . . .
319(9) . . .
329(10) . . .
320(10) . . .
289(9) . . .
300(9) . . .
288(9) . . .
308(9) . . .
300(9) . . .
282(9) . . .
297(9) . . .
324(9) . . .
288(9) . . .
291(9) . . .
325(10) . . .
318(9) . . .
296(9) . . .
284(9) . . .
310(10) . . .
283(9) . . .
295(9) . . .
313(9) . . .
291(9) . . .
319(10) . . .
305(9) . . .
319(9) . . .
300(9) . . .
311(10) . . .
296(9) . . .
303(9) . . .
316(9) . . .
282(9) . . .
295(9) . . .
292(9) . . .
306(9) . . .
293(9) . . .
311(9) . . .
274(9) . . .
301(9) . . .
314(9) . . .
308(9) . . .
287(9) . . .
313(10) . . .
320(9) . . .
313(9) . . .
300(9) . . .
283(9) . . .
309(10) . . .
326(10) . . .
308(9) . . .
299(9) . . .
318(10) . . .
317(10) . . .
313(10) . . .
283(9) . . .
298(9) . . .
302(9) . . .
311(10) . . .
293(9) . . .
317(9) . . .
297(9) . . .
294(9) . . .
318(10) . . .
312(10) . . .
291(9) . . .
305(9) . . .
301(9) . . .
318(10) . . .
321(10) . . .
308(9) . . .
293(9) . . .
296(9) . . .
323(10) . . .
320(10) . . .
292(9) . . .
295(9) . . .
294(9) . . .
274(9) . . .
304(10) . . .
282(9) . . .
293(9) . . .
302(9) . . .
288(9) . . .
313(9) . . .
307(9) . . .
305(9) . . .
301(9) . . .
269(9) . . .
294(9) . . .
314(9) . . .
309(9) . . .
316(10) . . .
311(10) . . .
290(9) . . .
323(9) . . .
299(9) . . .
289(9) . . .
286(9) . . .
306(9) . . .
312(9) . . .
309(9) . . .
295(10) . . .
305(9) . . .
290(9) . . .
286(9) . . .
316(10) . . .
286(9) . . .
298(9) . . .
331(9) . . .
330(9) . . .
316(10) . . .
338(10) . . .
326(9) . . .
335(9) . . .
314(9) . . .
316(9) . . .
322(10) . . .
343(10) . . .
309(9) . . .
326(9) . . .
308(9) . . .
300(10) . . .
299(9) . . .
307(9) . . .
312(9) . . .
298(9) . . .
311(10) . . .
312(9) . . .
327(9) . . .
303(9) . . .
298(10) . . .
302(9) . . .
340(10) . . .
293(9) . . .
307(9) . . .
313(10) . . .
320(10) . . .
333(10) . . .
307(9) . . .
333(10) . . .
342(10) . . .
334(10) . . .
375(10) . . .
314(9) . . .
349(10) . . .
338(10) . . .
322(10) . . .
314(9) . . .
328(9) . . .
312(10) . . .
301(10) . . .
316(10) . . .
317(9) . . .
301(9) . . .
311(9) . . .
301(10) . . .
293(9) . . .
300(9) . . .
291(9) . . .
301(9) . . .
288(9) . . .
290(9) . . .
305(9) . . .
280(9) . . .
267(9) . . .
291(9) . . .
293(9) . . .
284(9) . . .
286(9) . . .
308(10) . . .
298(9) . . .
286(9) . . .
265(8) . . .
279(9) . . .
286(9) . . .
293(9) . . .
294(9) . . .
303(9) . . .
281(9) . . .
287(9) . . .
270(9) . . .
305(9) . . .
292(9) . . .
277(9) . . .
309(10) . . .
277(9) . . .
269(9) . . .
283(9) . . .
289(9) . . .
297(9) . . .
291(9) . . .
271(9) . . .
289(9) . . .
290(9) . . .
279(9) . . .
297(9) . . .
272(9) . . .
275(9) . . .
284(9) . . .
266(9) . . .
271(9) . . .
254(8) . . .
267(9) . . .
256(9) . . .
287(9) . . .
292(9) . . .
264(8) . . .
284(9) . . .
287(9) . . .
284(9) . . .
288(9) . . .
265(8) . . .
300(9) . . .
290(9) . . .
279(9) . . .
268(9) . . .
277(9) . . .
310(9) . . .
284(9) . . .
292(9) . . .
273(9) . . .
263(8) . . .
294(9) . . .
279(9) . . .
268(9) . . .
271(9) . . .
278(9) . . .
268(9) . . .
283(9) . . .
275(9) . . .
289(9) . . .
258(8) . . .
285(9) . . .
298(9) . . .
295(9) . . .
288(9) . . .
297(9) . . .
310(10) . . .
288(9) . . .
283(9) . . .
293(9) . . .
310(9) . . .
303(9) . . .
312(9) . . .
293(9) . . .
292(9) . . .
318(9) . . .
280(9) . . .
281(9) . . .
264(9) . . .
288(9) . . .
317(9) . . .
315(10) . . .
301(10) . . .
294(9) . . .
306(9) . . .
332(10) . . .
311(9) . . .
300(9) . . .
308(9) . . .
330(9) . . .
308(9) . . .
303(9) . . .
299(10) . . .
324(10) . . .
322(9) . . .
282(9) . . .
283(9) . . .
311(10) . . .
290(9) . . .
313(9) . . .
313(9) . . .
324(9) . . .
331(10) . . .
296(9) . . .
296(9) . . .
302(9) . . .
302(9) . . .
305(9) . . .
288(9) . . .
277(9) . . .
302(9) . . .
297(9) . . .
309(10) . . .
296(9) . . .
302(9) . . .
283(9) . . .
289(9) . . .
265(9) . . .
291(9) . . .
300(9) . . .
297(9) . . .
275(9) . . .
267(9) . . .
274(9) . . .
274(9) . . .
292(9) . . .
273(9) . . .
253(8) . . .
280(9) . . .
279(9) . . .
270(9) . . .
277(9) . . .
309(9) . . .
277(9) . . .
283(9) . . .
288(9) . . .
287(9) . . .
275(9) . . .
301(9) . . .
279(9) . . .
286(9) . . .
318(10) . . .
309(9) . . .
310(9) . . .
274(9) . . .
302(9) . . .
308(10) . . .
315(10) . . .
282(9) . . .
301(9) . . .
294(9) . . .
314(10) . . .
309(10) . . .
293(9) . . .
302(9) . . .
317(10) . . .
305(10) . . .
309(9) . . .
335(10) . . .
287(9) . . .
324(10) . . .
335(10) . . .
340(10) . . .
339(9) . . .
315(10) . . .
300(10) . . .
306(9) . . .
305(9) . . .
297(9) . . .
288(9) . . .
287(9) . . .
285(9) . . .
266(9) . . .
289(9) . . .
271(9) . . .
287(9) . . .
274(9) . . .
270(9) . . .
295(9) . . .
282(9) . . .
253(9) . . .
288(9) . . .
276(9) . . .
307(9) . . .
268(9) . . .
293(10) . . .
261(9) . . .
270(9) . . .
267(9) . . .
273(9) . . .
279(9) . . .
274(9) . . .
267(9) . . .
239(8) . . .
269(9) . . .
274(9) . . .
276(9) . . .
258(8) . . .
271(9) . . .
284(9) . . .
253(9) . . .
270(9) . . .
273(9) . . .
265(9) . . .
253(8) . . .
254(9) . . .
274(9) . . .
263(8) . . .
265(9) . . .
264(9) . . .
263(9) . . .
265(9) . . .
265(8) . . .
247(8) . . .
270(9) . . .
251(8) . . .
264(9) . . .
267(8) . . .
247(8) . . .
272(9) . . .
285(9) . . .
251(8) . . .
283(9) . . .
292(10) . . .
256(9) . . .
272(9) . . .
282(9) . . .
260(8) . . .
263(9) . . .
256(9) . . .
264(9) . . .
255(8) . . .
249(8) . . .
251(8) . . .
263(9) . . .
256(8) . . .
263(8) . . .
264(8) . . .
247(8) . . .
262(9) . . .
260(9) . . .
260(8) . . .
261(8) . . .
265(9) . . .
262(9) . . .
256(9) . . .
259(8) . . .
277(9) . . .
248(8) . . .
272(9) . . .
261(9) . . .
244(8) . . .
242(8) . . .
240(9) . . .
271(9) . . .
259(9) . . .
271(9) . . .
250(8) . . .
263(9) . . .
290(9) . . .
267(9) . . .
248(8) . . .
252(9) . . .
257(9) . . .
278(9) . . .
258(8) . . .
225(8) . . .
224(8) . . .
246(8) . . .
242(8) . . .
267(9) . . .
242(8) . . .
260(9) . . .
261(9) . . .
263(8) . . .
241(8) . . .
252(8) . . .
264(9) . . .
262(9) . . .
259(9) . . .
271(9) . . .
271(9) . . .
236(8) . . .
254(9) . . .
256(9) . . .
241(8) . . .
263(8) . . .
237(8) . . .
248(8) . . .
284(9) . . .
262(8) . . .
259(8) . . .
274(9) . . .
248(9) . . .
264(9) . . .
268(9) . . .
265(8) . . .
262(9) . . .
263(9) . . .
261(9) . . .
269(9) . . .
244(8) . . .
233(8) . . .
233(8) . . .
252(9) . . .
269(9) . . .
274(9) . . .
250(9) . . .
255(9) . . .
271(9) . . .
289(9) . . .
285(9) . . .
272(9) . . .
249(8) . . .
239(8) . . .
252(8) . . .
274(9) . . .
257(9) . . .
258(9) . . .
259(8) . . .
273(9) . . .
268(9) . . .
266(9) . . .
252(9) . . .
262(9) . . .
257(8) . . .
285(9) . . .
257(9) . . .
268(9) . . .
252(8) . . .
286(9) . . .
312(10) . . .
286(10) . . .
265(9) . . .
264(8) . . .
265(8) . . .
275(9) . . .
264(9) . . .
285(9) . . .
265(8) . . .
272(9) . . .
257(8) . . .
260(9) . . .
279(9) . . .
236(8) . . .
254(8) . . .
281(9) . . .
252(9) . . .
269(9) . . .
258(8) . . .
260(8) . . .
294(9) . . .
273(9) . . .
257(9) . . .
256(8) . . .
250(8) . . .
237(8) . . .
253(9) . . .
270(9) . . .
243(8) . . .
261(9) . . .
253(9) . . .
253(9) . . .
241(8) . . .
270(9) . . .
234(8) . . .
279(9) . . .
265(9) . . .
242(8) . . .
246(8) . . .
252(9) . . .
247(9) . . .
233(8) . . .
241(8) . . .
244(8) . . .
262(9) . . .
262(9) . . .
251(8) . . .
252(8) . . .
260(8) . . .
255(9) . . .
236(9) . . .
254(9) . . .
272(9) . . .
226(8) . . .
267(9) . . .
246(9) . . .
234(8) . . .
250(8) . . .
251(8) . . .
240(8) . . .
260(9) . . .
252(8) . . .
244(8) . . .
252(8) . . .
248(9) . . .
243(8) . . .
245(8) . . .
255(8) . . .
264(9) . . .
248(8) . . .
236(8) . . .
259(9) . . .
265(8) . . .
251(8) . . .
267(9) . . .
267(9) . . .
253(9) . . .
263(8) . . .
265(9) . . .
238(8) . . .
240(9) . . .
243(8) . . .
250(8) . . .
270(9) . . .
246(8) . . .
256(9) . . .
254(8) . . .
233(8) . . .
249(8) . . .
262(9) . . .
253(8) . . .
255(8) . . .
253(8) . . .
259(9) . . .
253(9) . . .
257(9) . . .
276(9) . . .
265(8) . . .
271(9) . . .
269(9) . . .
238(8) . . .
274(9) . . .
246(8) . . .
260(9) . . .
244(9) . . .
253(9) . . .
251(8) . . .
271(9) . . .
247(8) . . .
256(9) . . .
251(8) . . .
249(8) . . .
273(9) . . .
252(9) . . .
233(8) . . .
266(9) . . .
263(8) . . .
245(8) . . .
263(9) . . .
270(9) . . .
252(8) . . .
266(8) . . .
240(8) . . .
257(9) . . .
250(9) . . .
250(9) . . .
232(8) . . .
225(8) . . .
245(8) . . .
261(9) . . .
235(8) . . .
248(8) . . .
246(8) . . .
244(8) . . .
236(8) . . .
243(8) . . .
241(8) . . .
260(9) . . .
245(8) . . .
235(8) . . .
256(8) . . .
240(8) . . .
240(8) . . .
244(9) . . .
230(8) . . .
215(8) . . .
231(8) . . .
237(8) . . .
259(9) . . .
248(9) . . .
237(8) . . .
239(8) . . .
254(9) . . .
262(9) . . .
238(8) . . .
223(8) . . .
224(8) . . .
262(9) . . .
263(9) . . .
237(8) . . .
262(8) . . .
252(8) . . .
233(8) . . .
233(8) . . .
245(8) . . .
218(8) . . .
265(9) . . .
238(8) . . .
242(9) . . .
233(8) . . .
242(8) . . .
241(8) . . .
215(8) . . .
227(8) . . .
252(8) . . .
244(8) . . .
220(8) . . .
240(9) . . .
235(8) . . .
238(8) . . .
257(8) . . .
273(9) . . .
254(9) . . .
233(8) . . .
240(8) . . .
235(8) . . .
251(8) . . .
246(8) . . .
252(9) . . .
251(8) . . .
230(8) . . .
250(9) . . .
247(9) . . .
239(8) . . .
223(8) . . .
247(8) . . .
255(9) . . .
242(9) . . .
220(8) . . .
222(8) . . .
241(8) . . .
228(8) . . .
229(8) . . .
242(8) . . .
229(8) . . .
236(8) . . .
247(9) . . .
222(8) . . .
253(9) . . .
246(8) . . .
250(8) . . .
245(8) . . .
244(9) . . .
232(8) . . .
247(8) . . .
248(8) . . .
269(9) . . .
238(8) . . .
239(8) . . .
240(8) . . .
240(8) . . .
226(8) . . .
250(9) . . .
235(8) . . .
243(8) . . .
220(8) . . .
219(8) . . .
229(8) . . .
242(8) . . .
241(8) . . .
250(8) . . .
233(8) . . .
248(9) . . .
245(8) . . .
242(8) . . .
233(8) . . .
252(9) . . .
217(8) . . .
237(8) . . .
250(8) . . .
245(8) . . .
252(9) . . .
256(9) . . .
252(8) . . .
242(8) . . .
268(9) . . .
269(9) . . .
287(9) . . .
284(9) . . .
276(9) . . .
300(9) . . .
322(10) . . .
287(9) . . .
286(9) . . .
288(9) . . .
269(9) . . .
269(9) . . .
288(9) . . .
273(9) . . .
262(8) . . .
249(8) . . .
256(9) . . .
264(9) . . .
264(8) . . .
253(8) . . .
268(9) . . .
264(9) . . .
265(9) . . .
270(8) . . .
263(8) . . .
252(9) . . .
242(9) . . .
249(9) . . .
263(8) . . .
234(8) . . .
259(9) . . .
241(9) . . .
224(8) . . .
242(8) . . .
226(8) . . .
233(8) . . .
256(9) . . .
237(8) . . .
243(8) . . .
265(9) . . .
252(8) . . .
261(9) . . .
249(8) . . .
243(8) . . .
241(8) . . .
254(9) . . .
233(8) . . .
240(8) . . .
257(8) . . .
253(9) . . .
253(9) . . .
248(8) . . .
250(8) . . .
264(8) . . .
253(9) . . .
259(9) . . .
249(8) . . .
249(8) . . .
268(9) . . .
251(9) . . .
235(8) . . .
241(8) . . .
249(8) . . .
241(8) . . .
240(8) . . .
236(9) . . .
227(8) . . .
238(8) . . .
256(8) . . .
253(9) . . .
239(9) . . .
252(9) . . .
254(8) . . .
242(8) . . .
235(8) . . .
259(9) . . .
246(8) . . .
245(8) . . .
259(8) . . .
264(9) . . .
250(8) . . .
237(8) . . .
220(8) . . .
227(8) . . .
248(8) . . .
255(9) . . .
230(8) . . .
241(8) . . .
215(8) . . .
232(8) . . .
238(8) . . .
252(9) . . .
234(8) . . .
258(9) . . .
242(9) . . .
265(9) . . .
273(9) . . .
253(8) . . .
250(8) . . .
253(9) . . .
255(9) . . .
230(8) . . .
243(8) . . .
219(8) . . .
247(9) . . .
244(9) . . .
240(8) . . .
238(8) . . .
237(8) . . .
233(8) . . .
259(9) . . .
259(8) . . .
250(8) . . .
250(9) . . .
258(9) . . .
240(8) . . .
218(8) . . .
243(8) . . .
238(8) . . .
255(9) . . .
242(8) . . .
258(8) . . .
244(8) . . .
243(8) . . .
265(9) . . .
251(9) . . .
256(8) . . .
248(8) . . .
272(9) . . .
266(9) . . .
239(8) . . .
241(8) . . .
248(8) . . .
251(9) . . .
258(9) . . .
240(8) . . .
258(8) . . .
253(8) . . .
288(9) . . .
242(8) . . .
273(9) . . .
275(9) . . .
262(9) . . .
255(9) . . .
262(9) . . .
264(9) . . .
265(8) . . .
251(9) . . .
249(9) . . .
273(9) . . .
270(9) . . .
242(8) . . .
263(9) . . .
253(9) . . .
261(9) . . .
240(8) . . .
240(8) . . .
235(8) . . .
249(9) . . .
244(8) . . .
229(8) . . .
257(8) . . .
243(8) . . .
230(8) . . .
252(8) . . .
238(8) . . .
244(8) . . .
255(9) . . .
239(9) . . .
241(8) . . .
238(8) . . .
250(8) . . .
247(8) . . .
238(8) . . .
237(8) . . .
214(8) . . .
228(8) . . .
240(8) . . .
234(8) . . .
220(8) . . .
227(8) . . .
244(8) . . .
249(8) . . .
228(8) . . .
238(8) . . .
245(8) . . .
236(8) . . .
233(8) . . .
223(8) . . .
252(8) . . .
230(8) . . .
228(8) . . .
218(8) . . .
232(8) . . .
233(8) . . .
229(8) . . .
240(8) . . .
238(8) . . .
243(8) . . .
239(8) . . .
230(8) . . .
230(8) . . .
248(9) . . .
238(8) . . .
231(8) . . .
222(8) . . .
225(8) . . .
215(8) . . .
217(8) . . .
228(8) . . .
230(8) . . .
229(8) . . .
230(8) . . .
224(8) . . .
216(8) . . .
217(8) . . .
225(8) . . .
242(9) . . .
234(8) . . .
223(8) . . .
211(7) . . .
218(8) . . .
219(8) . . .
237(8) . . .
232(8) . . .
223(8) . . .
229(8) . . .
252(9) . . .
225(8) . . .
243(8) . . .
246(8) . . .
241(8) . . .
256(9) . . .
218(8) . . .
219(8) . . .
253(9) . . .
253(9) . . .
244(8) . . .
219(8) . . .
217(8) . . .
221(8) . . .
216(8) . . .
229(8) . . .
221(8) . . .
212(8) . . .
228(8) . . .
236(8) . . .
234(8) . . .
223(8) . . .
218(8) . . .
237(8) . . .
233(8) . . .
229(8) . . .
215(8) . . .
225(8) . . .
217(8) . . .
239(9) . . .
240(8) . . .
237(8) . . .
219(8) . . .
237(8) . . .
228(8) . . .
213(8) . . .
205(7) . . .
232(8) . . .
215(8) . . .
227(8) . . .
242(8) . . .
230(8) . . .
210(8) . . .
230(8) . . .
254(9) . . .
235(8) . . .
235(8) . . .
232(8) . . .
224(8) . . .
229(8) . . .
219(8) . . .
211(8) . . .
225(8) . . .
232(8) . . .
213(8) . . .
213(8) . . .
229(8) . . .
228(8) . . .
251(8) . . .
240(9) . . .
211(8) . . .
228(8) . . .
223(8) . . .
215(8) . . .
219(8) . . .
213(8) . . .
192(7) . . .
221(8) . . .
217(8) . . .
211(8) . . .
217(8) . . .
202(7) . . .
215(8) . . .
208(8) . . .
219(8) . . .
218(8) . . .
222(8) . . .
228(8) . . .
200(8) . . .
217(8) . . .
202(7) . . .
225(8) . . .
223(8) . . .
211(8) . . .
220(8) . . .
237(8) . . .
214(8) . . .
215(8) . . .
228(9) . . .
232(8) . . .
241(8) . . .
226(8) . . .
214(8) . . .
207(8) . . .
231(8) . . .
234(8) . . .
232(8) . . .
236(8) . . .
246(9) . . .
231(8) . . .
245(8) . . .
229(8) . . .
219(8) . . .
209(8) . . .
236(8) . . .
223(8) . . .
221(8) . . .
213(8) . . .
222(8) . . .
228(8) . . .
211(8) . . .
248(8) . . .
241(8) . . .
247(8) . . .
235(8) . . .
242(8) . . .
248(8) . . .
237(8) . . .
220(8) . . .
212(8) . . .
213(8) . . .
220(8) . . .
217(8) . . .
229(8) . . .
228(8) . . .
244(8) . . .
237(8) . . .
228(9) . . .
218(8) . . .
226(8) . . .
248(8) . . .
250(9) . . .
228(8) . . .
259(9) . . .
244(8) . . .
248(8) . . .
272(9) . . .
248(9) . . .
261(9) . . .
242(8) . . .
248(8) . . .
212(8) . . .
250(9) . . .
252(8) . . .
201(7) . . .
230(8) . . .
221(8) . . .
214(8) . . .
224(8) . . .
229(8) . . .
220(8) . . .
228(8) . . .
235(8) . . .
233(8) . . .
199(7) . . .
226(8) . . .
230(8) . . .
228(8) . . .
230(8) . . .
224(8) . . .
206(8) . . .
205(8) . . .
218(8) . . .
214(8) . . .
216(8) . . .
208(8) . . .
227(8) . . .
225(8) . . .
211(8) . . .
200(7) . . .
222(8) . . .
227(8) . . .
211(8) . . .
208(7) . . .
218(8) . . .
217(8) . . .
212(8) . . .
206(8) . . .
217(8) . . .
219(8) . . .
222(8) . . .
242(9) . . .
239(8) . . .
225(8) . . .
218(8) . . .
198(8) . . .
201(8) . . .
221(8) . . .
238(8) . . .
230(8) . . .
224(8) . . .
200(8) . . .
221(8) . . .
214(8) . . .
239(8) . . .
225(8) . . .
221(8) . . .
226(8) . . .
216(8) . . .
224(8) . . .
224(8) . . .
219(8) . . .
223(8) . . .
218(8) . . .
228(8) . . .
233(8) . . .
205(8) . . .
207(8) . . .
217(8) . . .
210(8) . . .
218(8) . . .
216(8) . . .
237(8) . . .
196(7) . . .
218(8) . . .
212(8) . . .
222(8) . . .
212(8) . . .
190(7) . . .
215(8) . . .
211(8) . . .
230(8) . . .
248(8) . . .
204(7) . . .
200(8) . . .
236(8) . . .
224(8) . . .
221(8) . . .
210(7) . . .
219(8) . . .
215(8) . . .
245(9) . . .
227(8) . . .
204(8) . . .
217(8) . . .
217(8) . . .
231(8) . . .
223(8) . . .
231(8) . . .
209(8) . . .
223(8) . . .
221(8) . . .
222(8) . . .
237(8) . . .
210(8) . . .
210(8) . . .
209(8) . . .
207(7) . . .
219(8) . . .
227(8) . . .
198(8) . . .
231(8) . . .
241(8) . . .
226(8) . . .
206(8) . . .
211(8) . . .
190(7) . . .
227(8) . . .
201(8) . . .
228(8) . . .
227(8) . . .
220(8) . . .
222(8) . . .
211(8) . . .
250(9) . . .
233(8) . . .
208(8) . . .
219(8) . . .
235(8) . . .
227(8) . . .
208(8) . . .
230(8) . . .
194(7) . . .
197(7) . . .
209(8) . . .
217(8) . . .
214(8) . . .
214(8) . . .
214(8) . . .
199(8) . . .
212(8) . . .
206(7) . . .
194(7) . . .
224(8) . . .
229(8) . . .
221(8) . . .
229(8) . . .
203(7) . . .
248(8) . . .
231(8) . . .
213(8) . . .
218(8) . . .
195(7) . . .
196(7) . . .
221(8) . . .
242(8) . . .
225(8) . . .
224(8) . . .
228(8) . . .
225(8) . . .
219(8) . . .
214(8) . . .
230(8) . . .
229(8) . . .
209(8) . . .
248(9) . . .
239(8) . . .
237(8) . . .
247(8) . . .
238(8) . . .
225(8) . . .
240(8) . . .
251(8) . . .
268(9) . . .
262(9) . . .
267(9) . . .
251(8) . . .
230(8) . . .
238(8) . . .
252(9) . . .
246(8) . . .
212(8) . . .
248(9) . . .
244(9) . . .
242(8) . . .
231(8) . . .
242(8) . . .
214(8) . . .
223(8) . . .
211(8) . . .
224(8) . . .
220(8) . . .
219(8) . . .
226(8) . . .
224(8) . . .
202(7) . . .
229(8) . . .
216(8) . . .
220(8) . . .
222(8) . . .
225(8) . . .
213(8) . . .
224(8) . . .
203(8) . . .
202(8) . . .
221(8) . . .
223(8) . . .
234(8) . . .
207(8) . . .
216(8) . . .
213(8) . . .
229(8) . . .
200(8) . . .
228(8) . . .
211(8) . . .
209(7) . . .
205(8) . . .
223(8) . . .
223(8) . . .
219(8) . . .
224(8) . . .
224(8) . . .
224(8) . . .
215(8) . . .
210(8) . . .
201(7) . . .
216(8) . . .
211(8) . . .
225(8) . . .
234(8) . . .
210(8) . . .
207(8) . . .
224(8) . . .
227(8) . . .
222(8) . . .
219(8) . . .
201(8) . . .
232(8) . . .
221(8) . . .
215(8) . . .
202(7) . . .
220(8) . . .
209(8) . . .
207(8) . . .
239(8) . . .
197(7) . . .
198(8) . . .
226(8) . . .
220(8) . . .
214(8) . . .
206(7) . . .
207(8) . . .
238(9) . . .
221(8) . . .
203(7) . . .
211(8) . . .
203(8) . . .
200(8) . . .
218(8) . . .
211(8) . . .
208(8) . . .
207(8) . . .
216(8) . . .
227(8) . . .
217(8) . . .
217(8) . . .
212(8) . . .
229(8) . . .
215(8) . . .
231(8) . . .
215(8) . . .
222(8) . . .
215(8) . . .
194(7) . . .
206(8) . . .
186(7) . . .
194(7) . . .
212(8) . . .
228(8) . . .
207(7) . . .
202(8) . . .
236(8) . . .
204(8) . . .
211(8) . . .
204(7) . . .
209(8) . . .
226(8) . . .
221(8) . . .
210(8) . . .
212(8) . . .
223(8) . . .
223(8) . . .
210(8) . . .
221(8) . . .
215(8) . . .
182(7) . . .
205(8) . . .
218(8) . . .
219(8) . . .
216(8) . . .
216(8) . . .
207(8) . . .
226(8) . . .
223(8) . . .
210(8) . . .
210(8) . . .
212(8) . . .
213(8) . . .
211(8) . . .
196(7) . . .
216(8) . . .
193(8) . . .
199(8) . . .
184(7) . . .
209(8) . . .
222(8) . . .
221(8) . . .
212(8) . . .
197(7) . . .
228(8) . . .
227(8) . . .
222(8) . . .
227(8) . . .
206(7) . . .
199(7) . . .
210(8) . . .
207(8) . . .
202(8) . . .
224(8) . . .
212(8) . . .
182(7) . . .
191(7) . . .
215(8) . . .
202(7) . . .
202(8) . . .
208(8) . . .
217(8) . . .
232(8) . . .
213(7) . . .
217(8) . . .
218(8) . . .
197(8) . . .
224(8) . . .
221(8) . . .
219(8) . . .
213(8) . . .
200(8) . . .
219(8) . . .
204(7) . . .
214(8) . . .
226(8) . . .
213(8) . . .
201(7) . . .
211(8) . . .
223(8) . . .
217(8) . . .
223(8) . . .
200(7) . . .
209(8) . . .
224(8) . . .
211(8) . . .
231(8) . . .
215(8) . . .
226(8) . . .
219(8) . . .
209(8) . . .
210(8) . . .
216(8) . . .
221(8) . . .
227(8) . . .
213(8) . . .
248(8) . . .
221(8) . . .
214(8) . . .
214(8) . . .
215(8) . . .
207(8) . . .
229(8) . . .
212(8) . . .
216(8) . . .
202(8) . . .
223(8) . . .
205(8) . . .
237(8) . . .
236(9) . . .
229(8) . . .
247(8) . . .
211(8) . . .
239(8) . . .
260(9) . . .
252(8) . . .
260(8) . . .
252(8) . . .
244(8) . . .
240(9) . . .
216(8) . . .
218(8) . . .
205(7) . . .
212(8) . . .
244(9) . . .
227(8) . . .
211(8) . . .
204(7) . . .
220(8) . . .
231(9) . . .
211(8) . . .
220(8) . . .
208(8) . . .
215(8) . . .
234(8) . . .
234(8) . . .
219(8) . . .
208(8) . . .
252(9) . . .
210(8) . . .
216(8) . . .
222(8) . . .
220(8) . . .
200(7) . . .
229(8) . . .
221(8) . . .
188(7) . . .
237(8) . . .
224(8) . . .
227(8) . . .
225(8) . . .
230(8) . . .
239(8) . . .
202(8) . . .
206(8) . . .
206(8) . . .
228(8) . . .
209(8) . . .
214(8) . . .
220(8) . . .
209(8) . . .
213(8) . . .
219(8) . . .
207(8) . . .
211(8) . . .
210(8) . . .
209(7) . . .
221(8) . . .
215(8) . . .
229(8) . . .
221(8) . . .
198(7) . . .
226(8) . . .
224(8) . . .
232(8) . . .
228(8) . . .
211(8) . . .
221(8) . . .
218(8) . . .
201(8) . . .
206(8) . . .
223(8) . . .
216(8) . . .
225(8) . . .
199(7) . . .
214(8) . . .
209(8) . . .
214(8) . . .
214(8) . . .
219(8) . . .
217(8) . . .
216(8) . . .
192(7) . . .
223(8) . . .
210(8) . . .
226(8) . . .
222(8) . . .
239(8) . . .
194(8) . . .
226(8) . . .
218(8) . . .
220(8) . . .
206(8) . . .
234(8) . . .
220(8) . . .
222(8) . . .
219(8) . . .
225(8) . . .
240(8) . . .
220(8) . . .
227(8) . . .
210(8) . . .
196(8) . . .
198(8) . . .
222(8) . . .
240(8) . . .
211(8) . . .
223(8) . . .
232(8) . . .
236(8) . . .
240(8) . . .
215(8) . . .
223(8) . . .
220(8) . . .
215(8) . . .
239(8) . . .
215(8) . . .
206(8) . . .
233(8) . . .
208(8) . . .
234(8) . . .
252(8) . . .
227(8) . . .
248(9) . . .
238(8) . . .
241(8) . . .
232(8) . . .
245(9) . . .
266(9) . . .
248(8) . . .
246(8) . . .
258(9) . . .
255(9) . . .
231(8) . . .
235(8) . . .
265(9) . . .
236(8) . . .
240(8) . . .
257(8) . . .
237(8) . . .
236(8) . . .
239(8) . . .
233(8) . . .
253(9) . . .
232(8) . . .
223(8) . . .
209(8) . . .
218(8) . . .
219(8) . . .
238(8) . . .
228(8) . . .
227(8) . . .
222(8) . . .
221(8) . . .
211(8) . . .
232(8) . . .
202(8) . . .
213(8) . . .
208(7) . . .
223(8) . . .
210(8) . . .
199(8) . . .
205(8) . . .
213(8) . . .
204(7) . . .
213(8) . . .
222(9) . . .
220(8) . . .
207(7) . . .
208(7) . . .
221(8) . . .
215(8) . . .
213(8) . . .
228(8) . . .
214(8) . . .
185(7) . . .
213(8) . . .
211(8) . . .
223(8) . . .
222(8) . . .
184(7) . . .
209(8) . . .
194(7) . . .
222(8) . . .
205(7) . . .
222(8) . . .
219(8) . . .
218(8) . . .
209(7) . . .
199(8) . . .
190(7) . . .
196(8) . . .
218(8) . . .
201(7) . . .
215(8) . . .
210(8) . . .
209(8) . . .
216(8) . . .
212(8) . . .
201(8) . . .
208(8) . . .
218(8) . . .
208(8) . . .
202(7) . . .
224(8) . . .
227(8) . . .
218(8) . . .
202(7) . . .
212(8) . . .
210(8) . . .
223(8) . . .
204(8) . . .
208(8) . . .
214(8) . . .
204(8) . . .
221(8) . . .
211(8) . . .
217(8) . . .
221(8) . . .
204(8) . . .
200(8) . . .
204(8) . . .
201(7) . . .
187(7) . . .
198(7) . . .
208(8) . . .
216(8) . . .
205(7) . . .
213(8) . . .
224(8) . . .
230(8) . . .
212(8) . . .
216(8) . . .
212(8) . . .
223(8) . . .
208(8) . . .
227(8) . . .
216(8) . . .
225(8) . . .
197(7) . . .
222(8) . . .
231(8) . . .
219(8) . . .
229(8) . . .
233(8) . . .
239(8) . . .
196(7) . . .
196(7) . . .
210(8) . . .
234(9) . . .
216(8) . . .
200(7) . . .
207(7) . . .
221(8) . . .
201(8) . . .
215(8) . . .
221(8) . . .
221(8) . . .
241(8) . . .
214(8) . . .
226(8) . . .
229(8) . . .
226(8) . . .
231(8) . . .
211(8) . . .
231(8) . . .
239(8) . . .
246(8) . . .
244(8) . . .
237(8) . . .
276(9) . . .
261(8) . . .
269(9) . . .
251(9) . . .
242(9) . . .
257(9) . . .
257(8) . . .
243(8) . . .
249(9) . . .
213(8) . . .
214(8) . . .
225(8) . . .
222(8) . . .
216(8) . . .
233(8) . . .
255(9) . . .
218(8) . . .
204(8) . . .
228(8) . . .
235(8) . . .
237(8) . . .
231(8) . . .
217(8) . . .
214(8) . . .
214(8) . . .
219(8) . . .
228(8) . . .
241(8) . . .
218(8) . . .
236(8) . . .
197(7) . . .
218(8) . . .
192(7) . . .
221(8) . . .
209(8) . . .
201(7) . . .
212(8) . . .
214(8) . . .
203(8) . . .
219(8) . . .
211(8) . . .
224(8) . . .
238(8) . . .
227(8) . . .
202(7) . . .
209(8) . . .
199(7) . . .
214(8) . . .
215(8) . . .
211(8) . . .
230(8) . . .
204(7) . . .
220(8) . . .
226(8) . . .
228(8) . . .
195(7) . . .
209(8) . . .
198(7) . . .
199(8) . . .
197(8) . . .
212(8) . . .
199(7) . . .
210(8) . . .
198(8) . . .
196(8) . . .
223(8) . . .
209(8) . . .
222(8) . . .
190(7) . . .
198(7) . . .
196(7) . . .
199(7) . . .
200(8) . . .
218(8) . . .
208(8) . . .
194(7) . . .
188(7) . . .
206(8) . . .
214(8) . . .
222(8) . . .
208(7) . . .
211(8) . . .
220(8) . . .
240(8) . . .
221(8) . . .
222(8) . . .
212(8) . . .
220(8) . . .
235(8) . . .
242(8) . . .
228(8) . . .
231(8) . . .
241(9) . . .
220(8) . . .
217(8) . . .
209(8) . . .
231(8) . . .
236(9) . . .
231(8) . . .
217(8) . . .
209(8) . . .
215(8) . . .
207(8) . . .
197(7) . . .
210(8) . . .
220(8) . . .
214(8) . . .
213(8) . . .
202(8) . . .
201(7) . . .
210(8) . . .
200(8) . . .
200(8) . . .
209(8) . . .
228(8) . . .
212(8) . . .
216(8) . . .
198(8) . . .
216(8) . . .
213(8) . . .
211(8) . . .
210(8) . . .
207(8) . . .
214(8) . . .
222(8) . . .
199(8) . . .
196(8) . . .
186(8) . . .
205(8) . . .
205(7) . . .
218(8) . . .
206(8) . . .
194(7) . . .
221(8) . . .
216(8) . . .
205(8) . . .
210(8) . . .
219(8) . . .
196(7) . . .
219(8) . . .
212(8) . . .
198(8) . . .
191(7) . . .
200(7) . . .
216(8) . . .
222(8) . . .
214(8) . . .
224(8) . . .
221(8) . . .
209(7) . . .
238(8) . . .
219(8) . . .
217(8) . . .
234(8) . . .
248(8) . . .
249(9) . . .
248(9) . . .
257(9) . . .
231(8) . . .
253(8) . . .
251(8) . . .
256(9) . . .
263(9) . . .
232(8) . . .
255(8) . . .
238(8) . . .
224(8) . . .
220(8) . . .
235(8) . . .
219(8) . . .
215(8) . . .
239(8) . . .
242(8) . . .
230(8) . . .
238(8) . . .
210(8) . . .
237(8) . . .
223(8) . . .
232(8) . . .
257(9) . . .
218(8) . . .
207(8) . . .
210(8) . . .
201(7) . . .
216(8) . . .
231(8) . . .
212(8) . . .
207(8) . . .
233(8) . . .
211(8) . . .
207(8) . . .
200(8) . . .
206(8) . . .
210(8) . . .
206(8) . . .
214(8) . . .
208(8) . . .
204(7) . . .
207(8) . . .
223(8) . . .
229(9) . . .
209(8) . . .
218(8) . . .
222(8) . . .
210(8) . . .
179(7) . . .
210(8) . . .
209(7) . . .
235(8) . . .
214(8) . . .
210(8) . . .
226(8) . . .
211(8) . . .
200(7) . . .
208(8) . . .
180(7) . . .
228(8) . . .
195(7) . . .
199(7) . . .
219(8) . . .
214(8) . . .
212(8) . . .
202(7) . . .
216(8) . . .
192(7) . . .
213(8) . . .
204(7) . . .
204(7) . . .
210(8) . . .
214(8) . . .
218(8) . . .
206(8) . . .
201(7) . . .
208(8) . . .
193(8) . . .
196(7) . . .
214(8) . . .
196(7) . . .
216(8) . . .
200(8) . . .
209(8) . . .
194(7) . . .
228(8) . . .
227(8) . . .
221(8) . . .
189(7) . . .
215(8) . . .
204(7) . . .
204(8) . . .
188(8) . . .
182(7) . . .
208(7) . . .
221(8) . . .
216(8) . . .
202(8) . . .
196(8) . . .
202(7) . . .
219(8) . . .
192(7) . . .
214(8) . . .
218(8) . . .
214(8) . . .
214(8) . . .
232(8) . . .
204(8) . . .
211(8) . . .
212(8) . . .
198(7) . . .
221(8) . . .
228(8) . . .
215(8) . . .
199(7) . . .
207(8) . . .
219(8) . . .
201(8) . . .
203(8) . . .
207(8) . . .
206(8) . . .
196(7) . . .
220(8) . . .
221(8) . . .
189(7) . . .
213(8) . . .
217(8) . . .
211(8) . . .
211(8) . . .
218(8) . . .
215(8) . . .
218(8) . . .
236(8) . . .
237(8) . . .
219(8) . . .
222(8) . . .
223(8) . . .
216(8) . . .
190(7) . . .
197(7) . . .
240(8) . . .
198(8) . . .
205(8) . . .
197(7) . . .
202(7) . . .
191(8) . . .
217(8) . . .
172(7) . . .
213(8) . . .
216(8) . . .
209(8) . . .
194(8) . . .
220(8) . . .
209(8) . . .
208(8) . . .
188(7) . . .
196(8) . . .
206(8) . . .
223(8) . . .
226(8) . . .
197(7) . . .
191(7) . . .
198(8) . . .
205(7) . . .
195(7) . . .
220(8) . . .
212(8) . . .
215(8) . . .
205(7) . . .
202(8) . . .
205(8) . . .
182(7) . . .
202(8) . . .
195(7) . . .
202(8) . . .
204(8) . . .
203(8) . . .
197(8) . . .
207(7) . . .
214(8) . . .
194(8) . . .
199(8) . . .
201(8) . . .
202(7) . . .
213(8) . . .
234(8) . . .
206(7) . . .
229(8) . . .
221(8) . . .
201(8) . . .
194(8) . . .
198(7) . . .
205(7) . . .
209(8) . . .
220(8) . . .
208(8) . . .
203(8) . . .
203(7) . . .
214(8) . . .
220(8) . . .
205(8) . . .
226(8) . . .
221(8) . . .
219(8) . . .
206(8) . . .
211(8) . . .
199(8) . . .
217(8) . . .
205(8) . . .
216(8) . . .
225(8) . . .
222(8) . . .
224(8) . . .
236(8) . . .
235(8) . . .
213(8) . . .
219(8) . . .
222(8) . . .
230(8) . . .
227(8) . . .
222(8) . . .
236(8) . . .
237(8) . . .
230(8) . . .
257(9) . . .
242(8) . . .
247(8) . . .
252(8) . . .
251(9) . . .
238(9) . . .
252(9) . . .
245(8) . . .
239(8) . . .
234(8) . . .
233(8) . . .
247(9) . . .
246(8) . . .
267(9) . . .
245(9) . . .
225(8) . . .
253(9) . . .
238(8) . . .
246(8) . . .
246(8) . . .
245(9) . . .
236(8) . . .
238(8) . . .
226(8) . . .
241(8) . . .
213(8) . . .
228(8) . . .
244(8) . . .
236(8) . . .
255(9) . . .
237(9) . . .
231(8) . . .
233(8) . . .
220(8) . . .
200(7) . . .
198(8) . . .
232(8) . . .
239(8) . . .
210(8) . . .
204(8) . . .
206(8) . . .
241(8) . . .
215(8) . . .
212(8) . . .
205(8) . . .
227(8) . . .
211(8) . . .
204(7) . . .
185(7) . . .
209(8) . . .
202(8) . . .
210(8) . . .
204(7) . . .
216(8) . . .
225(8) . . .
228(8) . . .
204(8) . . .
237(8) . . .
218(8) . . .
232(9) . . .
218(8) . . .
241(8) . . .
231(8) . . .
220(8) . . .
201(8) . . .
217(8) . . .
232(8) . . .
207(8) . . .
199(7) . . .
206(8) . . .
212(8) . . .
199(7) . . .
224(8) . . .
205(7) . . .
205(8) . . .
200(8) . . .
207(7) . . .
209(7) . . .
204(8) . . .
220(8) . . .
202(8) . . .
235(8) . . .
220(8) . . .
197(8) . . .
214(8) . . .
196(8) . . .
206(7) . . .
214(8) . . .
188(7) . . .
210(8) . . .
190(8) . . .
205(7) . . .
226(8) . . .
217(8) . . .
210(8) . . .
208(8) . . .
212(8) . . .
202(8) . . .
223(8) . . .
216(8) . . .
197(7) . . .
210(7) . . .
192(7) . . .
210(8) . . .
210(8) . . .
206(8) . . .
202(7) . . .
219(8) . . .
228(8) . . .
218(8) . . .
204(7) . . .
202(7) . . .
210(8) . . .
218(8) . . .
214(8) . . .
196(7) . . .
218(8) . . .
205(8) . . .
214(8) . . .
212(8) . . .
211(8) . . .
204(7) . . .
197(8) . . .
204(8) . . .
223(8) . . .
199(7) . . .
226(8) . . .
216(8) . . .
192(8) . . .
216(8) . . .
204(7) . . .
203(7) . . .
236(8) . . .
207(8) . . .
208(8) . . .
203(7) . . .
207(7) . . .
189(7) . . .
206(8) . . .
211(8) . . .
201(7) . . .
199(7) . . .
220(8) . . .
228(8) . . .
206(8) . . .
219(8) . . .
188(7) . . .
196(8) . . .
196(7) . . .
187(7) . . .
193(7) . . .
201(8) . . .
201(8) . . .
197(8) . . .
224(8) . . .
214(8) . . .
194(8) . . .
188(8) . . .
204(8) . . .
213(8) . . .
215(8) . . .
211(8) . . .
216(8) . . .
220(8) . . .
225(8) . . .
230(8) . . .
230(8) . . .
218(8) . . .
243(9) . . .
238(8) . . .
230(8) . . .
199(7) . . .
226(8) . . .
227(8) . . .
205(7) . . .
208(8) . . .
206(8) . . .
221(8) . . .
241(8) . . .
232(8) . . .
202(7) . . .
210(8) . . .
209(8) . . .
224(8) . . .
206(7) . . .
215(8) . . .
203(8) . . .
202(8) . . .
226(8) . . .
210(8) . . .
221(8) . . .
204(8) . . .
196(8) . . .
205(8) . . .
209(8) . . .
210(8) . . .
218(8) . . .
213(8) . . .
222(8) . . .
196(7) . . .
193(8) . . .
221(8) . . .
207(8) . . .
186(7) . . .
201(7) . . .
188(7) . . .
194(8) . . .
218(8) . . .
216(8) . . .
201(7) . . .
205(8) . . .
198(8) . . .
214(8) . . .
205(7) . . .
233(8) . . .
209(8) . . .
218(8) . . .
221(8) . . .
212(8) . . .
233(8) . . .
199(7) . . .
206(8) . . .
204(8) . . .
215(8) . . .
192(7) . . .
200(8) . . .
223(8) . . .
198(8) . . .
206(7) . . .
220(8) . . .
225(8) . . .
225(8) . . .
223(8) . . .
223(8) . . .
213(8) . . .
221(8) . . .
232(8) . . .
231(8) . . .
222(8) . . .
225(8) . . .
222(8) . . .
221(8) . . .
222(8) . . .
213(8) . . .
212(8) . . .
202(7) . . .
221(8) . . .
232(8) . . .
208(8) . . .
215(8) . . .
216(8) . . .
210(8) . . .
217(8) . . .
204(7) . . .
218(8) . . .
211(8) . . .
218(8) . . .
225(8) . . .
224(8) . . .
215(8) . . .
207(8) . . .
211(8) . . .
197(7) . . .
217(8) . . .
203(7) . . .
202(8) . . .
211(8) . . .
205(8) . . .
216(8) . . .
206(8) . . .
188(7) . . .
212(8) . . .
214(8) . . .
195(7) . . .
207(8) . . .
225(8) . . .
208(8) . . .
216(8) . . .
195(7) . . .
202(8) . . .
206(8) . . .
195(7) . . .
204(7) . . .
194(7) . . .
195(8) . . .
204(8) . . .
187(7) . . .
211(8) . . .
216(8) . . .
201(8) . . .
201(8) . . .
227(8) . . .
200(7) . . .
193(7) . . .
197(7) . . .
212(8) . . .
220(8) . . .
217(8) . . .
216(8) . . .
204(8) . . .
208(8) . . .
211(8) . . .
208(8) . . .
212(8) . . .
197(8) . . .
198(8) . . .
198(7) . . .
211(8) . . .
210(8) . . .
205(8) . . .
209(8) . . .
184(7) . . .
191(7) . . .
176(7) . . .
198(8) . . .
200(8) . . .
204(7) . . .
211(8) . . .
195(8) . . .
206(8) . . .
222(8) . . .
185(7) . . .
205(7) . . .
192(7) . . .
205(8) . . .
195(7) . . .
212(8) . . .
212(8) . . .
202(7) . . .
216(8) . . .
184(7) . . .
212(8) . . .
213(8) . . .
198(8) . . .
180(7) . . .
203(8) . . .
196(7) . . .
198(7) . . .
210(8) . . .
228(8) . . .
206(8) . . .
208(7) . . .
190(7) . . .
210(8) . . .
209(8) . . .
207(8) . . .
195(7) . . .
213(8) . . .
222(8) . . .
207(8) . . .
204(8) . . .
206(7) . . .
198(7) . . .
217(8) . . .
214(8) . . .
216(8) . . .
222(8) . . .
234(8) . . .
228(8) . . .
201(8) . . .
212(8) . . .
192(7) . . .
210(8) . . .
196(8) . . .
207(8) . . .
214(8) . . .
223(8) . . .
202(8) . . .
211(8) . . .
201(7) . . .
203(8) . . .
211(8) . . .
214(8) . . .
199(8) . . .
203(8) . . .
211(8) . . .
226(8) . . .
204(8) . . .
216(8) . . .
206(8) . . .
214(8) . . .
221(8) . . .
191(8) . . .
204(8) . . .
219(8) . . .
207(8) . . .
213(8) . . .
208(8) . . .
188(7) . . .
192(7) . . .
194(7) . . .
208(8) . . .
205(8) . . .
202(8) . . .
201(8) . . .
195(7) . . .
197(8) . . .
202(8) . . .
181(7) . . .
181(7) . . .
202(7) . . .
216(8) . . .
194(7) . . .
213(8) . . .
202(8) . . .
217(8) . . .
228(8) . . .
232(8) . . .
206(8) . . .
199(7) . . .
217(8) . . .
215(8) . . .
200(8) . . .
215(8) . . .
215(8) . . .
225(8) . . .
210(8) . . .
218(8) . . .
232(8) . . .
212(8) . . .
215(8) . . .
196(7) . . .
202(8) . . .
194(7) . . .
209(8) . . .
201(7) . . .
212(8) . . .
209(8) . . .
202(8) . . .
198(7) . . .
208(8) . . .
225(8) . . .
225(8) . . .
229(8) . . .
226(8) . . .
234(8) . . .
230(8) . . .
234(8) . . .
232(8) . . .
222(8) . . .
206(8) . . .
221(8) . . .
202(8) . . .
212(8) . . .
207(7) . . .
212(8) . . .
203(8) . . .
210(8) . . .
202(7) . . .
202(7) . . .
214(8) . . .
230(8) . . .
209(8) . . .
209(8) . . .
202(7) . . .
205(8) . . .
226(8) . . .
214(8) . . .
192(7) . . .
216(8) . . .
218(8) . . .
215(8) . . .
224(8) . . .
179(7) . . .
198(7) . . .
208(8) . . .
222(8) . . .
201(8) . . .
195(7) . . .
194(7) . . .
211(8) . . .
211(8) . . .
217(8) . . .
186(7) . . .
200(7) . . .
204(8) . . .
195(8) . . .
200(8) . . .
204(7) . . .
209(8) . . .
194(8) . . .
211(8) . . .
209(8) . . .
229(8) . . .
201(7) . . .
198(8) . . .
191(7) . . .
210(8) . . .
218(8) . . .
223(8) . . .
199(8) . . .
199(8) . . .
205(8) . . .
201(7) . . .
217(8) . . .
207(8) . . .
194(7) . . .
185(7) . . .
195(7) . . .
205(8) . . .
213(8) . . .
201(8) . . .
198(8) . . .
195(7) . . .
208(8) . . .
199(8) . . .
200(7) . . .
207(8) . . .
216(8) . . .
221(8) . . .
186(7) . . .
204(8) . . .
208(7) . . .
220(8) . . .
218(8) . . .
224(9) . . .
186(7) . . .
192(7) . . .
194(7) . . .
206(8) . . .
211(8) . . .
209(8) . . .
211(8) . . .
193(7) . . .
196(8) . . .
201(8) . . .
188(7) . . .
189(7) . . .
214(8) . . .
208(8) . . .
205(8) . . .
213(8) . . .
218(8) . . .
224(8) . . .
208(8) . . .
202(8) . . .
202(8) . . .
206(7) . . .
193(7) . . .
215(8) . . .
213(8) . . .
219(8) . . .
207(7) . . .
209(8) . . .
202(8) . . .
217(8) . . .
220(8) . . .
225(8) . . .
222(8) . . .
225(8) . . .
209(8) . . .
194(7) . . .
216(8) . . .
204(8) . . .
221(8) . . .
214(8) . . .
199(8) . . .
201(7) . . .
192(7) . . .
204(8) . . .
213(8) . . .
200(7) . . .
208(7) . . .
195(8) . . .
193(8) . . .
192(7) . . .
192(7) . . .
189(7) . . .
199(7) . . .
214(8) . . .
223(8) . . .
200(7) . . .
203(7) . . .
200(8) . . .
222(8) . . .
184(7) . . .
212(8) . . .
202(7) . . .
197(8) . . .
183(7) . . .
209(8) . . .
201(7) . . .
207(7) . . .
197(7) . . .
198(8) . . .
190(7) . . .
217(8) . . .
217(8) . . .
208(8) . . .
206(8) . . .
203(8) . . .
193(7) . . .
208(8) . . .
206(8) . . .
207(8) . . .
188(7) . . .
187(7) . . .
202(8) . . .
195(8) . . .
188(8) . . .
198(7) . . .
201(7) . . .
191(7) . . .
192(7) . . .
183(7) . . .
205(8) . . .
207(7) . . .
192(7) . . .
202(8) . . .
204(8) . . .
201(7) . . .
211(8) . . .
191(8) . . .
178(8) . . .
215(8) . . .
201(8) . . .
209(7) . . .
203(8) . . .
195(8) . . .
198(7) . . .
204(7) . . .
179(7) . . .
200(8) . . .
210(8) . . .
206(8) . . .
203(7) . . .
211(8) . . .
190(7) . . .
208(8) . . .
197(7) . . .
199(7) . . .
189(7) . . .
189(7) . . .
188(7) . . .
222(8) . . .
188(7) . . .
195(7) . . .
223(8) . . .
215(8) . . .
210(8) . . .
199(7) . . .
187(7) . . .
204(8) . . .
202(8) . . .
215(8) . . .
212(8) . . .
213(8) . . .
213(8) . . .
208(8) . . .
196(7) . . .
215(8) . . .
211(8) . . .
213(8) . . .
205(8) . . .
192(7) . . .
208(7) . . .
214(8) . . .
206(8) . . .
204(8) . . .
210(8) . . .
197(7) . . .
206(8) . . .
219(8) . . .
211(8) . . .
217(8) . . .
208(8) . . .
211(8) . . .
206(8) . . .
220(8) . . .
218(8) . . .
218(8) . . .
214(8) . . .
214(8) . . .
213(8) . . .
216(8) . . .
218(8) . . .
203(8) . . .
228(8) . . .
229(8) . . .
194(7) . . .
184(7) . . .
227(8) . . .
205(8) . . .
210(8) . . .
196(7) . . .
197(7) . . .
221(8) . . .
201(8) . . .
190(7) . . .
211(8) . . .
193(7) . . .
210(8) . . .
189(7) . . .
217(8) . . .
227(8) . . .
195(7) . . .
208(8) . . .
209(8) . . .
198(8) . . .
211(7) . . .
210(8) . . .
204(8) . . .
202(8) . . .
200(7) . . .
207(7) . . .
187(7) . . .
188(7) . . .
197(7) . . .
189(7) . . .
196(7) . . .
200(8) . . .
196(8) . . .
204(8) . . .
193(7) . . .
209(8) . . .
194(7) . . .
203(8) . . .
210(8) . . .
204(7) . . .
206(7) . . .
203(8) . . .
181(7) . . .
200(8) . . .
191(7) . . .
190(7) . . .
184(7) . . .
212(8) . . .
214(8) . . .
227(8) . . .
176(7) . . .
187(8) . . .
175(7) . . .
191(7) . . .
197(7) . . .
206(7) . . .
213(8) . . .
212(8) . . .
203(8) . . .
193(7) . . .
195(7) . . .
195(8) . . .
188(7) . . .
197(7) . . .
207(8) . . .
221(8) . . .
200(8) . . .
183(7) . . .
189(7) . . .
199(7) . . .
194(7) . . .
191(7) . . .
190(7) . . .
187(7) . . .
179(7) . . .
185(7) . . .
192(7) . . .
211(8) . . .
193(7) . . .
174(7) . . .
202(8) . . .
191(7) . . .
199(8) . . .
214(8) . . .
191(7) . . .
194(7) . . .
194(8) . . .
228(8) . . .
194(7) . . .
192(7) . . .
204(8) . . .
194(8) . . .
182(7) . . .
210(8) . . .
201(7) . . .
185(7) . . .
173(7) . . .
192(8) . . .
186(7) . . .
176(7) . . .
186(7) . . .
201(8) . . .
212(8) . . .
193(7) . . .
188(7) . . .
206(8) . . .
209(8) . . .
194(7) . . .
207(8) . . .
200(7) . . .
178(7) . . .
193(8) . . .
207(8) . . .
203(7) . . .
213(8) . . .
199(8) . . .
174(7) . . .
201(8) . . .
196(7) . . .
191(8) . . .
205(8) . . .
193(7) . . .
199(7) . . .
209(8) . . .
207(8) . . .
189(8) . . .
200(8) . . .
197(7) . . .
184(7) . . .
171(7) . . .
179(7) . . .
193(8) . . .
189(7) . . .
179(7) . . .
193(7) . . .
179(7) . . .
205(8) . . .
200(7) . . .
206(7) . . .
207(8) . . .
202(8) . . .
186(7) . . .
180(7) . . .
185(7) . . .
204(8) . . .
181(8) . . .
160(7) . . .
192(7) . . .
197(7) . . .
185(7) . . .
196(8) . . .
205(8) . . .
194(7) . . .
187(7) . . .
183(7) . . .
205(8) . . .
201(8) . . .
181(7) . . .
183(7) . . .
207(8) . . .
194(8) . . .
186(7) . . .
190(7) . . .
171(7) . . .
182(7) . . .
203(8) . . .
183(7) . . .
191(7) . . .
191(7) . . .
213(8) . . .
216(8) . . .
183(7) . . .
187(7) . . .
183(7) . . .
188(7) . . .
205(8) . . .
218(8) . . .
189(7) . . .
194(7) . . .
192(7) . . .
185(7) . . .
201(7) . . .
213(8) . . .
204(8) . . .
203(8) . . .
185(7) . . .
193(7) . . .
217(8) . . .
222(8) . . .
196(8) . . .
197(8) . . .
193(7) . . .
206(8) . . .
187(7) . . .
202(8) . . .
195(8) . . .
183(7) . . .
185(7) . . .
203(8) . . .
208(8) . . .
193(7) . . .
191(7) . . .
175(7) . . .
199(7) . . .
212(8) . . .
199(7) . . .
197(7) . . .
179(7) . . .
179(7) . . .
190(8) . . .
219(8) . . .
184(7) . . .
204(8) . . .
203(8) . . .
192(8) . . .
178(7) . . .
205(7) . . .
184(7) . . .
179(7) . . .
182(7) . . .
187(7) . . .
210(8) . . .
219(8) . . .
187(7) . . .
198(8) . . .
177(7) . . .
211(8) . . .
191(8) . . .
188(7) . . .
208(8) . . .
206(8) . . .
196(7) . . .
203(8) . . .
189(8) . . .
192(8) . . .
199(7) . . .
194(7) . . .
166(7) . . .
184(8) . . .
175(7) . . .
185(7) . . .
201(7) . . .
200(8) . . .
181(7) . . .
202(8) . . .
181(7) . . .
194(7) . . .
187(7) . . .
184(8) . . .
196(7) . . .
199(7) . . .
173(7) . . .
209(8) . . .
196(8) . . .
198(8) . . .
183(7) . . .
175(7) . . .
196(8) . . .
195(8) . . .
174(7) . . .
174(7) . . .
180(7) . . .
208(8) . . .
178(7) . . .
216(8) . . .
196(7) . . .
207(8) . . .
209(8) . . .
186(7) . . .
212(8) . . .
201(7) . . .
179(7) . . .
202(8) . . .
166(7) . . .
196(7) . . .
188(7) . . .
188(8) . . .
202(8) . . .
204(7) . . .
196(7) . . .
190(7) . . .
170(7) . . .
189(8) . . .
201(8) . . .
205(8) . . .
201(7) . . .
204(8) . . .
201(8) . . .
191(8) . . .
181(7) . . .
192(7) . . .
170(7) . . .
204(8) . . .
200(7) . . .
183(7) . . .
196(7) . . .
211(8) . . .
211(8) . . .
186(7) . . .
211(8) . . .
192(7) . . .
186(8) . . .
185(8) . . .
203(8) . . .
214(8) . . .
202(7) . . .
196(7) . . .
185(7) . . .
196(7) . . .
210(7) . . .
206(8) . . .
223(8) . . .
187(7) . . .
219(8) . . .
206(7) . . .
211(8) . . .
190(7) . . .
209(8) . . .
203(7) . . .
215(8) . . .
173(7) . . .
194(7) . . .
200(7) . . .
196(7) . . .
192(7) . . .
184(7) . . .
190(7) . . .
183(7) . . .
202(8) . . .
211(8) . . .
203(8) . . .
171(7) . . .
211(8) . . .
218(8) . . .
204(7) . . .
201(8) . . .
189(7) . . .
189(7) . . .
179(7) . . .
208(7) . . .
199(7) . . .
203(8) . . .
205(8) . . .
200(7) . . .
191(7) . . .
190(7) . . .
193(8) . . .
213(8) . . .
207(7) . . .
204(7) . . .
204(8) . . .
223(8) . . .
222(8) . . .
200(7) . . .
201(7) . . .
204(8) . . .
189(8) . . .
209(8) . . .
205(7) . . .
204(8) . . .
198(8) . . .
193(8) . . .
210(8) . . .
188(7) . . .
204(7) . . .
211(8) . . .
221(8) . . .
216(8) . . .
180(7) . . .
221(8) . . .
204(8) . . .
201(8) . . .
207(8) . . .
202(7) . . .
204(8) . . .
205(8) . . .
211(8) . . .
212(8) . . .
204(7) . . .
179(7) . . .
190(8) . . .
211(8) . . .
199(7) . . .
197(7) . . .
228(8) . . .
197(7) . . .
205(8) . . .
194(7) . . .
190(7) . . .
208(8) . . .
208(8) . . .
190(7) . . .
213(8) . . .
193(7) . . .
206(8) . . .
218(8) . . .
183(7) . . .
182(7) . . .
165(7) . . .
197(8) . . .
208(8) . . .
206(8) . . .
198(7) . . .
205(8) . . .
201(8) . . .
212(8) . . .
207(8) . . .
193(7) . . .
217(8) . . .
186(7) . . .
200(8) . . .
197(8) . . .
183(7) . . .
200(7) . . .
201(8) . . .
188(7) . . .
198(8) . . .
206(7) . . .
172(7) . . .
179(7) . . .
208(8) . . .
186(7) . . .
193(7) . . .
188(7) . . .
206(8) . . .
200(8) . . .
198(7) . . .
205(7) . . .
181(7) . . .
187(8) . . .
190(7) . . .
202(8) . . .
186(7) . . .
182(7) . . .
209(8) . . .
209(8) . . .
204(7) . . .
193(7) . . .
220(8) . . .
179(7) . . .
197(8) . . .
204(7) . . .
201(7) . . .
191(7) . . .
187(8) . . .
203(8) . . .
180(7) . . .
201(7) . . .
182(7) . . .
189(8) . . .
192(7) . . .
201(7) . . .
199(7) . . .
205(8) . . .
174(7) . . .
171(7) . . .
188(7) . . .
195(7) . . .
163(7) . . .
179(7) . . .
197(7) . . .
208(7) . . .
210(8) . . .
205(8) . . .
185(8) . . .
194(7) . . .
187(7) . . .
181(7) . . .
186(7) . . .
189(7) . . .
208(8) . . .
199(7) . . .
211(8) . . .
188(7) . . .
172(7) . . .
174(7) . . .
200(7) . . .
186(7) . . .
205(8) . . .
195(8) . . .
198(7) . . .
184(7) . . .
184(7) . . .
204(8) . . .
173(7) . . .
200(7) . . .
199(7) . . .
191(7) . . .
194(8) . . .
206(8) . . .
214(8) . . .
192(7) . . .
190(7) . . .
188(7) . . .
198(8) . . .
178(7) . . .
179(7) . . .
203(8) . . .
206(8) . . .
180(7) . . .
213(8) . . .
180(7) . . .
180(7) . . .
194(8) . . .
197(7) . . .
176(7) . . .
200(7) . . .
195(8) . . .
181(7) . . .
205(8) . . .
191(7) . . .
206(7) . . .
193(7) . . .
189(8) . . .
200(8) . . .
210(8) . . .
167(7) . . .
195(8) . . .
170(7) . . .
203(8) . . .
156(7) . . .
202(8) . . .
193(7) . . .
186(7) . . .
193(7) . . .
194(7) . . .
191(7) . . .
191(7) . . .
179(7) . . .
179(7) . . .
194(7) . . .
190(7) . . .
188(7) . . .
198(8) . . .
186(7) . . .
185(7) . . .
190(8) . . .
185(7) . . .
189(7) . . .
207(8) . . .
179(7) . . .
194(8) . . .
200(8) . . .
192(8) . . .
178(7) . . .
188(7) . . .
203(8) . . .
199(8) . . .
192(7) . . .
196(7) . . .
207(7) . . .
213(8) . . .
199(8) . . .
199(8) . . .
205(7) . . .
216(8) . . .
197(7) . . .
204(8) . . .
209(8) . . .
195(7) . . .
209(8) . . .
217(8) . . .
221(8) . . .
204(8) . . .
203(7) . . .
208(8) . . .
199(8) . . .
186(7) . . .
207(8) . . .
217(8) . . .
223(8) . . .
217(8) . . .
196(8) . . .
203(8) . . .
191(7) . . .
208(8) . . .
216(8) . . .
246(9) . . .
216(8) . . .
203(7) . . .
210(8) . . .
212(8) . . .
201(8) . . .
182(7) . . .
212(8) . . .
195(8) . . .
210(8) . . .
193(7) . . .
200(7) . . .
202(7) . . .
201(7) . . .
206(8) . . .
190(7) . . .
193(7) . . .
187(7) . . .
178(7) . . .
201(8) . . .
191(7) . . .
201(7) . . .
183(7) . . .
184(7) . . .
181(7) . . .
184(7) . . .
172(7) . . .
186(7) . . .
194(8) . . .
215(8) . . .
178(7) . . .
173(7) . . .
189(7) . . .
208(8) . . .
210(8) . . .
184(7) . . .
190(7) . . .
199(7) . . .
203(8) . . .
179(8) . . .
181(7) . . .
194(7) . . .
224(8) . . .
183(7) . . .
182(7) . . .
178(7) . . .
199(7) . . .
189(7) . . .
190(8) . . .
203(8) . . .
188(7) . . .
181(7) . . .
184(7) . . .
191(7) . . .
174(7) . . .
163(7) . . .
180(7) . . .
197(8) . . .
168(7) . . .
193(7) . . .
197(7) . . .
188(7) . . .
189(7) . . .
196(8) . . .
197(8) . . .
159(6) . . .
180(7) . . .
207(8) . . .
191(8) . . .
201(8) . . .
172(7) . . .
184(7) . . .
189(7) . . .
196(8) . . .
190(7) . . .
191(7) . . .
169(7) . . .
184(7) . . .
187(7) . . .
194(7) . . .
189(7) . . .
186(7) . . .
187(7) . . .
205(8) . . .
175(7) . . .
195(7) . . .
204(7) . . .
175(7) . . .
189(8) . . .
187(7) . . .
176(7) . . .
179(7) . . .
175(7) . . .
194(8) . . .
190(7) . . .
204(7) . . .
191(7) . . .
186(7) . . .
195(8) . . .
181(7) . . .
188(7) . . .
207(8) . . .
206(8) . . .
183(7) . . .
167(7) . . .
180(7) . . .
184(7) . . .
191(8) . . .
179(7) . . .
178(7) . . .
192(7) . . .
184(7) . . .
189(8) . . .
173(7) . . .
196(7) . . .
190(7) . . .
185(7) . . .
183(8) . . .
187(7) . . .
186(7) . . .
185(7) . . .
191(7) . . .
191(8) . . .
183(7) . . .
195(7) . . .
207(7) . . .
189(7) . . .
185(8) . . .
195(8) . . .
197(7) . . .
211(8) . . .
187(7) . . .
192(8) . . .
182(7) . . .
190(7) . . .
190(7) . . .
186(7) . . .
196(8) . . .
191(7) . . .
177(7) . . .
184(7) . . .
204(8) . . .
195(8) . . .
184(7) . . .
193(7) . . .
193(7) . . .
201(8) . . .
185(7) . . .
176(7) . . .
195(7) . . .
194(8) . . .
179(7) . . .
181(7) . . .
204(8) . . .
179(7) . . .
212(8) . . .
187(7) . . .
183(7) . . .
192(7) . . .
181(7) . . .
197(8) . . .
176(7) . . .
217(8) . . .
191(7) . . .
183(7) . . .
178(7) . . .
178(7) . . .
165(7) . . .
176(7) . . .
177(7) . . .
196(8) . . .
191(8) . . .
199(7) . . .
204(7) . . .
198(7) . . .
197(8) . . .
198(8) . . .
186(7) . . .
201(7) . . .
203(7) . . .
180(7) . . .
205(8) . . .
184(7) . . .
195(7) . . .
194(7) . . .
200(8) . . .
191(8) . . .
177(7) . . .
172(7) . . .
188(7) . . .
205(8) . . .
170(7) . . .
198(8) . . .
193(7) . . .
184(7) . . .
182(7) . . .
195(8) . . .
193(8) . . .
189(7) . . .
210(8) . . .
190(7) . . .
177(7) . . .
181(7) . . .
202(7) . . .
205(8) . . .
187(8) . . .
175(7) . . .
172(7) . . .
174(7) . . .
192(7) . . .
186(7) . . .
169(7) . . .
197(7) . . .
197(7) . . .
186(7) . . .
168(7) . . .
178(7) . . .
180(7) . . .
190(7) . . .
181(7) . . .
187(7) . . .
204(8) . . .
202(8) . . .
187(7) . . .
176(7) . . .
182(8) . . .
189(7) . . .
178(7) . . .
180(7) . . .
179(7) . . .
186(8) . . .
198(8) . . .
213(8) . . .
180(7) . . .
187(7) . . .
182(7) . . .
207(8) . . .
190(7) . . .
176(7) . . .
180(7) . . .
184(7) . . .
193(7) . . .
171(7) . . .
188(7) . . .
174(7) . . .
192(8) . . .
179(7) . . .
184(7) . . .
171(7) . . .
170(7) . . .
176(7) . . .
185(7) . . .
193(7) . . .
179(7) . . .
191(8) . . .
190(8) . . .
178(7) . . .
171(7) . . .
176(7) . . .
173(7) . . .
184(7) . . .
184(7) . . .
191(7) . . .
180(7) . . .
197(8) . . .
203(8) . . .
189(7) . . .
167(7) . . .
190(7) . . .
182(7) . . .
190(7) . . .
207(7) . . .
182(7) . . .
187(7) . . .
191(8) . . .
190(7) . . .
189(7) . . .
184(7) . . .
193(8) . . .
198(8) . . .
191(7) . . .
186(7) . . .
187(7) . . .
199(8) . . .
198(8) . . .
168(7) . . .
175(7) . . .
211(8) . . .
198(8) . . .
193(8) . . .
195(8) . . .
186(7) . . .
174(7) . . .
199(8) . . .
176(7) . . .
176(7) . . .
178(7) . . .
190(7) . . .
191(7) . . .
177(7) . . .
161(7) . . .
197(7) . . .
187(7) . . .
200(8) . . .
175(7) . . .
164(7) . . .
193(7) . . .
203(8) . . .
182(7) . . .
185(7) . . .
185(7) . . .
180(7) . . .
182(7) . . .
174(7) . . .
205(8) . . .
187(7) . . .
188(7) . . .
177(7) . . .
176(7) . . .
185(7) . . .
180(7) . . .
201(7) . . .
175(7) . . .
181(7) . . .
201(7) . . .
197(7) . . .
182(7) . . .
191(7) . . .
179(8) . . .
174(7) . . .
183(7) . . .
174(7) . . .
194(8) . . .
187(8) . . .
194(8) . . .
198(7) . . .
178(7) . . .
186(7) . . .
187(8) . . .
186(7) . . .
172(7) . . .
188(7) . . .
184(7) . . .
201(8) . . .
189(7) . . .
214(8) . . .
209(8) . . .
216(8) . . .
189(7) . . .
189(7) . . .
168(7) . . .
197(8) . . .
230(8) . . .
202(8) . . .
185(7) . . .
177(7) . . .
191(8) . . .
189(7) . . .
200(8) . . .
199(7) . . .
196(7) . . .
195(8) . . .
179(7) . . .
182(7) . . .
197(7) . . .
197(7) . . .
176(7) . . .
180(7) . . .
178(7) . . .
184(7) . . .
181(7) . . .
188(8) . . .
178(8) . . .
182(7) . . .
201(7) . . .
192(7) . . .
196(7) . . .
175(7) . . .
188(7) . . .
187(7) . . .
190(7) . . .
179(7) . . .
185(7) . . .
180(7) . . .
187(7) . . .
181(7) . . .
183(7) . . .
183(7) . . .
188(7) . . .
191(7) . . .
187(7) . . .
198(8) . . .
187(7) . . .
172(7) . . .
186(7) . . .
199(7) . . .
201(8) . . .
188(7) . . .
179(7) . . .
199(7) . . .
179(7) . . .
202(8) . . .
184(7) . . .
182(7) . . .
195(7) . . .
189(7) . . .
176(7) . . .
178(7) . . .
176(7) . . .
201(7) . . .
178(7) . . .
193(8) . . .
203(8) . . .
179(7) . . .
180(7) . . .
182(7) . . .
191(8) . . .
189(7) . . .
187(7) . . .
171(7) . . .
169(7) . . .
169(7) . . .
189(7) . . .
191(7) . . .
180(7) . . .
173(7) . . .
183(7) . . .
186(7) . . .
174(7) . . .
184(7) . . .
176(7) . . .
176(7) . . .
179(7) . . .
171(7) . . .
186(7) . . .
182(7) . . .
173(7) . . .
188(7) . . .
192(7) . . .
197(7) . . .
191(7) . . .
188(8) . . .
185(7) . . .
181(7) . . .
191(7) . . .
186(7) . . .
175(7) . . .
176(7) . . .
180(7) . . .
161(7) . . .
180(7) . . .
189(7) . . .
197(7) . . .
189(7) . . .
186(8) . . .
176(7) . . .
197(8) . . .
195(7) . . .
210(8) . . .
194(7) . . .
188(8) . . .
189(7) . . .
194(7) . . .
178(7) . . .
172(7) . . .
173(7) . . .
170(7) . . .
194(7) . . .
186(7) . . .
187(8) . . .
188(8) . . .
193(7) . . .
219(8) . . .
202(7) . . .
173(7) . . .
187(8) . . .
177(7) . . .
193(7) . . .
196(7) . . .
208(8) . . .
201(8) . . .
190(7) . . .
217(8) . . .
215(8) . . .
200(7) . . .
208(8) . . .
197(8) . . .
212(8) . . .
180(7) . . .
191(7) . . .
195(8) . . .
187(7) . . .
194(7) . . .
188(7) . . .
175(7) . . .
162(7) . . .
188(7) . . .
192(7) . . .
186(7) . . .
189(8) . . .
183(7) . . .
190(7) . . .
167(7) . . .
173(7) . . .
176(7) . . .
193(7) . . .
203(8) . . .
199(7) . . .
168(7) . . .
176(7) . . .
188(7) . . .
192(7) . . .
190(7) . . .
183(7) . . .
174(7) . . .
196(7) . . .
198(7) . . .
174(7) . . .
197(8) . . .
204(8) . . .
188(7) . . .
181(7) . . .
193(7) . . .
201(8) . . .
184(7) . . .
181(7) . . .
196(7) . . .
184(7) . . .
171(7) . . .
191(8) . . .
184(7) . . .
176(7) . . .
187(7) . . .
192(7) . . .
195(8) . . .
191(7) . . .
192(7) . . .
197(7) . . .
203(8) . . .
213(8) . . .
189(7) . . .
196(7) . . .
176(7) . . .
169(7) . . .
193(7) . . .
200(8) . . .
190(7) . . .
186(7) . . .
190(7) . . .
182(7) . . .
188(7) . . .
189(7) . . .
180(7) . . .
175(7) . . .
175(7) . . .
172(7) . . .
199(7) . . .
192(8) . . .
182(7) . . .
186(7) . . .
189(7) . . .
191(7) . . .
212(8) . . .
174(7) . . .
198(8) . . .
203(8) . . .
199(7) . . .
196(8) . . .
182(8) . . .
183(7) . . .
195(7) . . .
184(7) . . .
168(7) . . .
182(8) . . .
186(7) . . .
189(7) . . .
199(7) . . .
198(8) . . .
201(8) . . .
191(7) . . .
173(7) . . .
196(7) . . .
186(7) . . .
196(8) . . .
186(7) . . .
190(7) . . .
189(7) . . .
203(8) . . .
214(8) . . .
188(8) . . .
182(7) . . .
196(7) . . .
198(8) . . .
189(7) . . .
187(7) . . .
180(7) . . .
180(7) . . .
189(7) . . .
185(7) . . .
202(8) . . .
171(7) . . .
186(7) . . .
186(7) . . .
193(7) . . .
176(7) . . .
183(7) . . .
179(7) . . .
196(8) . . .
187(7) . . .
172(7) . . .
199(7) . . .
175(7) . . .
184(7) . . .
175(7) . . .
187(7) . . .
196(7) . . .
188(7) . . .
196(8) . . .
192(7) . . .
194(7) . . .
183(7) . . .
177(7) . . .
181(8) . . .
189(7) . . .
206(7) . . .
179(7) . . .
196(7) . . .
186(8) . . .
179(7) . . .
198(7) . . .
184(7) . . .
174(7) . . .
186(8) . . .
182(7) . . .
179(7) . . .
194(7) . . .
174(7) . . .
181(7) . . .
175(7) . . .
182(7) . . .
159(7) . . .
190(7) . . .
180(7) . . .
169(7) . . .
187(7) . . .
195(7) . . .
196(8) . . .
189(7) . . .
185(7) . . .
186(7) . . .
178(7) . . .
184(7) . . .
197(8) . . .
196(7) . . .
175(7) . . .
173(7) . . .
164(7) . . .
190(7) . . .
171(7) . . .
181(7) . . .
187(7) . . .
193(8) . . .
185(7) . . .
185(7) . . .
190(7) . . .
190(7) . . .
178(7) . . .
180(7) . . .
174(7) . . .
194(7) . . .
165(7) . . .
177(7) . . .
178(7) . . .
166(7) . . .
187(7) . . .
191(7) . . .
194(8) . . .
194(8) . . .
167(7) . . .
188(7) . . .
189(8) . . .
203(8) . . .
193(7) . . .
169(7) . . .
194(7) . . .
182(7) . . .
185(7) . . .
183(7) . . .
192(7) . . .
180(7) . . .
188(7) . . .
182(7) . . .
168(7) . . .
194(7) . . .
196(8) . . .
181(7) . . .
188(8) . . .
180(7) . . .
191(7) . . .
177(7) . . .
179(7) . . .
185(7) . . .
200(8) . . .
184(7) . . .
185(7) . . .
176(7) . . .
192(8) . . .
186(7) . . .
189(7) . . .
193(8) . . .
175(7) . . .
175(7) . . .
178(7) . . .
200(7) . . .
179(7) . . .
189(8) . . .
193(7) . . .
179(7) . . .
187(7) . . .
189(7) . . .
185(8) . . .
178(7) . . .
192(7) . . .
187(7) . . .
192(7) . . .
177(7) . . .
179(7) . . .
189(7) . . .
181(7) . . .
186(7) . . .
179(7) . . .
189(7) . . .
187(7) . . .
198(7) . . .
192(7) . . .
176(7) . . .
178(7) . . .
187(7) . . .
175(7) . . .
171(7) . . .
188(8) . . .
196(8) . . .
184(7) . . .
189(7) . . .
191(7) . . .
171(7) . . .
196(8) . . .
182(7) . . .
192(7) . . .
180(7) . . .
168(7) . . .
190(7) . . .
147(6) . . .
177(7) . . .
197(8) . . .
177(7) . . .
174(7) . . .
176(7) . . .
191(8) . . .
157(7) . . .
188(7) . . .
194(7) . . .
178(7) . . .
163(7) . . .
170(7) . . .
180(7) . . .
177(7) . . .
180(7) . . .
182(7) . . .
201(8) . . .
180(7) . . .
175(7) . . .
183(7) . . .
197(7) . . .
182(7) . . .
185(7) . . .
170(7) . . .
186(7) . . .
158(7) . . .
160(7) . . .
169(7) . . .
167(7) . . .
169(7) . . .
193(7) . . .
173(7) . . .
178(7) . . .
172(7) . . .
175(7) . . .
181(7) . . .
181(7) . . .
174(7) . . .
183(7) . . .
181(7) . . .
164(7) . . .
175(7) . . .
158(7) . . .
174(7) . . .
165(7) . . .
161(7) . . .
181(7) . . .
171(7) . . .
182(7) . . .
175(7) . . .
177(7) . . .
167(7) . . .
195(7) . . .
188(7) . . .
188(7) . . .
174(7) . . .
158(7) . . .
164(7) . . .
166(7) . . .
158(7) . . .
167(7) . . .
180(7) . . .
174(7) . . .
195(7) . . .
172(7) . . .
167(7) . . .
169(7) . . .
186(7) . . .
182(7) . . .
187(7) . . .
167(7) . . .
166(7) . . .
184(7) . . .
167(7) . . .
188(7) . . .
179(7) . . .
170(7) . . .
169(7) . . .
182(7) . . .
195(8) . . .
188(8) . . .
174(7) . . .
172(7) . . .
160(7) . . .
187(7) . . .
174(7) . . .
172(7) . . .
180(7) . . .
181(7) . . .
186(7) . . .
197(8) . . .
172(7) . . .
175(7) . . .
172(7) . . .
178(7) . . .
176(7) . . .
177(7) . . .
189(7) . . .
167(7) . . .
169(7) . . .
177(7) . . .
189(7) . . .
173(7) . . .
188(7) . . .
155(7) . . .
171(7) . . .
178(7) . . .
186(7) . . .
194(7) . . .
178(7) . . .
189(7) . . .
172(7) . . .
168(7) . . .
178(7) . . .
172(7) . . .
175(7) . . .
182(7) . . .
173(7) . . .
172(7) . . .
163(7) . . .
188(8) . . .
189(7) . . .
198(7) . . .
189(7) . . .
167(8) . . .
170(7) . . .
167(7) . . .
187(7) . . .
183(7) . . .
174(7) . . .
172(7) . . .
163(7) . . .
157(7) . . .
167(7) . . .
172(7) . . .
177(7) . . .
169(7) . . .
188(7) . . .
173(7) . . .
156(7) . . .
176(7) . . .
179(7) . . .
168(7) . . .
162(7) . . .
165(7) . . .
171(7) . . .
170(7) . . .
159(7) . . .
163(7) . . .
164(7) . . .
166(7) . . .
180(7) . . .
172(7) . . .
169(7) . . .
166(7) . . .
179(7) . . .
170(7) . . .
160(7) . . .
173(7) . . .
164(7) . . .
158(7) . . .
172(7) . . .
166(7) . . .
177(7) . . .
172(7) . . .
171(7) . . .
180(7) . . .
187(7) . . .
177(7) . . .
169(7) . . .
162(7) . . .
172(7) . . .
169(7) . . .
184(7) . . .
165(7) . . .
182(7) . . .
164(7) . . .
192(8) . . .
191(8) . . .
174(7) . . .
169(7) . . .
171(7) . . .
170(7) . . .
156(7) . . .
173(7) . . .
159(7) . . .
171(7) . . .
169(7) . . .
155(7) . . .
166(7) . . .
170(7) . . .
167(7) . . .
170(7) . . .
178(7) . . .
169(7) . . .
190(7) . . .
174(7) . . .
169(7) . . .
189(8) . . .
183(7) . . .
184(7) . . .
161(7) . . .
167(7) . . .
159(7) . . .
182(7) . . .
172(7) . . .
157(7) . . .
183(7) . . .
179(7) . . .
158(7) . . .
182(7) . . .
169(7) . . .
152(7) . . .
172(7) . . .
154(6) . . .
171(7) . . .
173(7) . . .
159(7) . . .
159(7) . . .
171(7) . . .
171(7) . . .
171(7) . . .
181(7) . . .
188(8) . . .
171(7) . . .
184(7) . . .
173(7) . . .
158(7) . . .
169(7) . . .
156(6) . . .
172(7) . . .
175(7) . . .
166(7) . . .
165(7) . . .
184(7) . . .
172(7) . . .
183(7) . . .
164(7) . . .
154(7) . . .
170(7) . . .
167(7) . . .
170(7) . . .
180(7) . . .
180(7) . . .
180(7) . . .
151(6) . . .
183(7) . . .
176(7) . . .
170(7) . . .
166(7) . . .
159(7) . . .
162(7) . . .
167(7) . . .
163(7) . . .
175(7) . . .
180(7) . . .
173(7) . . .
167(7) . . .
174(7) . . .
163(7) . . .
172(7) . . .
164(7) . . .
149(7) . . .
169(7) . . .
169(7) . . .
168(7) . . .
163(7) . . .
171(7) . . .
172(7) . . .
159(7) . . .
169(7) . . .
166(7) . . .
157(7) . . .
175(7) . . .
183(7) . . .
178(7) . . .
179(7) . . .
173(7) . . .
163(7) . . .
185(7) . . .
182(7) . . .
170(7) . . .
190(7) . . .
187(7) . . .
181(7) . . .
163(7) . . .
161(7) . . .
177(7) . . .
184(7) . . .
158(7) . . .
159(7) . . .
179(7) . . .
156(7) . . .
158(7) . . .
190(7) . . .
189(7) . . .
166(7) . . .
172(7) . . .
184(7) . . .
151(6) . . .
177(7) . . .
165(7) . . .
153(6) . . .
154(6) . . .
155(7) . . .
162(7) . . .
164(7) . . .
156(7) . . .
160(7) . . .
171(7) . . .
167(7) . . .
168(7) . . .
159(7) . . .
178(7) . . .
158(7) . . .
167(7) . . .
169(7) . . .
175(7) . . .
182(7) . . .
164(7) . . .
169(7) . . .
167(7) . . .
180(7) . . .
152(6) . . .
165(7) . . .
170(7) . . .
187(7) . . .
177(7) . . .
171(7) . . .
175(7) . . .
170(7) . . .
167(7) . . .
179(7) . . .
146(6) . . .
165(7) . . .
160(7) . . .
180(7) . . .
180(7) . . .
168(7) . . .
173(7) . . .
173(7) . . .
163(7) . . .
176(7) . . .
172(7) . . .
175(7) . . .
167(7) . . .
178(7) . . .
184(7) . . .
168(7) . . .
170(7) . . .
170(7) . . .
147(6) . . .
156(6) . . .
171(7) . . .
187(7) . . .
181(7) . . .
174(7) . . .
158(7) . . .
164(7) . . .
171(7) . . .
172(7) . . .
160(7) . . .
180(7) . . .
161(7) . . .
184(8) . . .
176(7) . . .
157(7) . . .
171(7) . . .
160(7) . . .
179(7) . . .
158(7) . . .
172(7) . . .
171(7) . . .
178(7) . . .
183(8) . . .
181(7) . . .
167(7) . . .
173(7) . . .
158(7) . . .
148(7) . . .
167(7) . . .
174(7) . . .
198(7) . . .
181(7) . . .
166(7) . . .
168(7) . . .
175(7) . . .
168(7) . . .
176(7) . . .
170(7) . . .
146(6) . . .
177(7) . . .
163(7) . . .
188(7) . . .
189(7) . . .
196(8) . . .
165(7) . . .
160(7) . . .
174(7) . . .
160(7) . . .
184(7) . . .
170(7) . . .
187(8) . . .
165(7) . . .
193(7) . . .
197(7) . . .
184(7) . . .
160(7) . . .
173(7) . . .
158(7) . . .
148(6) . . .
144(6) . . .
182(7) . . .
169(7) . . .
176(7) . . .
185(7) . . .
186(7) . . .
185(7) . . .
184(7) . . .
161(7) . . .
188(7) . . .
184(7) . . .
153(7) . . .
164(7) . . .
174(7) . . .
168(7) . . .
164(7) . . .
172(7) . . .
180(8) . . .
203(8) . . .
173(7) . . .
155(7) . . .
159(7) . . .
179(7) . . .
173(7) . . .
181(7) . . .
172(7) . . .
170(7) . . .
168(7) . . .
173(7) . . .
172(7) . . .
145(6) . . .
157(7) . . .
171(7) . . .
179(7) . . .
182(7) . . .
159(7) . . .
162(7) . . .
173(7) . . .
163(7) . . .
159(7) . . .
173(7) . . .
156(7) . . .
169(7) . . .
179(7) . . .
183(7) . . .
183(7) . . .
161(7) . . .
158(7) . . .
171(7) . . .
162(7) . . .
153(7) . . .
165(7) . . .
177(7) . . .
169(7) . . .
162(7) . . .
165(7) . . .
161(7) . . .
158(7) . . .
180(7) . . .
179(7) . . .
167(7) . . .
162(7) . . .
151(7) . . .
148(6) . . .
174(7) . . .
176(7) . . .
169(7) . . .
182(7) . . .
172(7) . . .
190(7) . . .
179(7) . . .
171(7) . . .
161(7) . . .
170(7) . . .
183(7) . . .
177(7) . . .
186(8) . . .
167(7) . . .
178(7) . . .
169(7) . . .
156(7) . . .
183(7) . . .
196(8) . . .
180(7) . . .
166(7) . . .
168(7) . . .
162(7) . . .
161(7) . . .
159(7) . . .
174(7) . . .
177(7) . . .
168(7) . . .
171(7) . . .
176(7) . . .
167(7) . . .
165(7) . . .
159(7) . . .
174(7) . . .
185(7) . . .
173(7) . . .
160(7) . . .
166(7) . . .
170(7) . . .
160(7) . . .
157(7) . . .
172(7) . . .
174(7) . . .
182(7) . . .
167(7) . . .
166(7) . . .
173(7) . . .
184(7) . . .
170(7) . . .
166(7) . . .
172(7) . . .
170(7) . . .
177(7) . . .
161(7) . . .
141(6) . . .
169(7) . . .
164(7) . . .
181(7) . . .
175(7) . . .
183(7) . . .
184(7) . . .
164(7) . . .
150(7) . . .
145(6) . . .
167(7) . . .
164(7) . . .
178(7) . . .
170(7) . . .
177(7) . . .
161(7) . . .
166(7) . . .
185(7) . . .
178(7) . . .
157(6) . . .
150(6) . . .
156(7) . . .
167(7) . . .
151(6) . . .
153(6) . . .
167(7) . . .
172(7) . . .
168(7) . . .
149(7) . . .
169(7) . . .
174(7) . . .
178(7) . . .
163(7) . . .
170(7) . . .
154(6) . . .
179(7) . . .
169(7) . . .
158(7) . . .
149(6) . . .
155(7) . . .
167(7) . . .
143(6) . . .
161(7) . . .
172(7) . . .
171(7) . . .
166(7) . . .
170(7) . . .
165(7) . . .
171(7) . . .
164(7) . . .
163(7) . . .
186(8) . . .
175(7) . . .
156(6) . . .
144(6) . . .
164(7) . . .
169(7) . . .
180(7) . . .
171(7) . . .
171(7) . . .
178(7) . . .
174(7) . . .
160(7) . . .
163(7) . . .
152(6) . . .
169(7) . . .
149(7) . . .
154(7) . . .
173(7) . . .
149(6) . . .
148(6) . . .
173(7) . . .
185(7) . . .
171(7) . . .
157(7) . . .
158(7) . . .
164(7) . . .
154(7) . . .
166(7) . . .
148(7) . . .
155(7) . . .
184(7) . . .
182(7) . . .
181(7) . . .
160(7) . . .
155(7) . . .
156(7) . . .
169(7) . . .
153(6) . . .
181(7) . . .
183(7) . . .
166(7) . . .
163(7) . . .
186(7) . . .
158(7) . . .
178(7) . . .
174(7) . . .
168(7) . . .
173(7) . . .
175(7) . . .
161(7) . . .
166(7) . . .
167(7) . . .
160(7) . . .
158(7) . . .
151(7) . . .
165(7) . . .
156(6) . . .
178(7) . . .
158(7) . . .
187(8) . . .
163(7) . . .
162(7) . . .
177(7) . . .
156(7) . . .
161(7) . . .
168(7) . . .
164(7) . . .
164(7) . . .
168(7) . . .
169(7) . . .
171(7) . . .
157(7) . . .
157(7) . . .
157(7) . . .
173(7) . . .
154(7) . . .
172(7) . . .
154(7) . . .
166(7) . . .
175(7) . . .
177(7) . . .
172(7) . . .
176(7) . . .
161(7) . . .
167(7) . . .
160(7) . . .
178(7) . . .
158(7) . . .
153(7) . . .
179(7) . . .
174(7) . . .
183(7) . . .
180(7) . . .
174(7) . . .
180(7) . . .
176(7) . . .
162(7) . . .
173(7) . . .
174(7) . . .
164(7) . . .
166(7) . . .
171(7) . . .
147(6) . . .
156(7) . . .
162(7) . . .
168(7) . . .
176(7) . . .
187(7) . . .
167(7) . . .
169(7) . . .
182(7) . . .
165(7) . . .
169(7) . . .
188(7) . . .
163(7) . . .
147(6) . . .
152(6) . . .
148(6) . . .
161(7) . . .
166(7) . . .
173(7) . . .
161(7) . . .
159(7) . . .
159(7) . . .
183(7) . . .
160(7) . . .
157(7) . . .
153(7) . . .
183(7) . . .
158(6) . . .
170(7) . . .
160(7) . . .
173(7) . . .
167(7) . . .
176(7) . . .
179(7) . . .
152(7) . . .
154(7) . . .
159(7) . . .
161(7) . . .
168(7) . . .
158(7) . . .
170(7) . . .
183(7) . . .
179(7) . . .
170(7) . . .
175(7) . . .
178(8) . . .
172(7) . . .
190(7) . . .
160(7) . . .
163(7) . . .
155(7) . . .
165(7) . . .
172(7) . . .
182(7) . . .
170(7) . . .
156(7) . . .
157(7) . . .
172(7) . . .
154(6) . . .
149(6) . . .
157(7) . . .
152(7) . . .
174(7) . . .
175(7) . . .
166(7) . . .
171(7) . . .
175(7) . . .
155(6) . . .
119(6) . . .
159(7) . . .
166(7) . . .
177(7) . . .
173(7) . . .
178(7) . . .
170(7) . . .
159(7) . . .
146(6) . . .
159(7) . . .
169(7) . . .
177(7) . . .
150(7) . . .
163(7) . . .
190(7) . . .
152(7) . . .
164(7) . . .
176(7) . . .
154(6) . . .
177(7) . . .
170(7) . . .
157(7) . . .
150(7) . . .
152(6) . . .
161(7) . . .
151(7) . . .
147(7) . . .
177(7) . . .
162(7) . . .
155(6) . . .
157(7) . . .
165(7) . . .
169(7) . . .
153(6) . . .
149(6) . . .
169(7) . . .
161(7) . . .
168(7) . . .
164(7) . . .
156(7) . . .
154(7) . . .
178(7) . . .
157(7) . . .
158(7) . . .
154(7) . . .
151(7) . . .
141(6) . . .
171(7) . . .
152(6) . . .
165(7) . . .
155(7) . . .
149(7) . . .
161(7) . . .
150(6) . . .
167(7) . . .
172(7) . . .
154(7) . . .
147(6) . . .
155(6) . . .
142(6) . . .
162(7) . . .
168(7) . . .
171(7) . . .
168(7) . . .
152(7) . . .
149(7) . . .
163(7) . . .
157(7) . . .
164(7) . . .
159(7) . . .
165(7) . . .
166(7) . . .
187(7) . . .
149(6) . . .
167(7) . . .
165(7) . . .
175(7) . . .
163(7) . . .
160(7) . . .
164(7) . . .
180(8) . . .
160(7) . . .
170(7) . . .
166(7) . . .
174(7) . . .
166(7) . . .
155(7) . . .
166(7) . . .
148(6) . . .
137(6) . . .
153(7) . . .
151(7) . . .
162(7) . . .
158(7) . . .
147(7) . . .
153(7) . . .
165(7) . . .
171(7) . . .
165(7) . . .
151(7) . . .
158(7) . . .
157(7) . . .
177(7) . . .
159(7) . . .
184(7) . . .
181(7) . . .
155(7) . . .
139(6) . . .
167(7) . . .
166(7) . . .
172(7) . . .
172(7) . . .
178(7) . . .
166(7) . . .
153(7) . . .
155(7) . . .
153(6) . . .
179(7) . . .
172(7) . . .
157(7) . . .
159(7) . . .
162(7) . . .
165(7) . . .
150(7) . . .
156(7) . . .
172(7) . . .
153(6) . . .
163(7) . . .
150(6) . . .
148(7) . . .
163(7) . . .
176(7) . . .
175(7) . . .
165(7) . . .
151(7) . . .
167(7) . . .
163(7) . . .
149(6) . . .
147(6) . . .
167(7) . . .
177(7) . . .
148(6) . . .
161(7) . . .
159(7) . . .
169(7) . . .
142(6) . . .
155(6) . . .
156(7) . . .
154(7) . . .
156(7) . . .
166(7) . . .
175(7) . . .
159(7) . . .
159(7) . . .
162(7) . . .
135(6) . . .
172(7) . . .
148(7) . . .
159(7) . . .
158(7) . . .
170(7) . . .
160(7) . . .
162(7) . . .
139(6) . . .
146(6) . . .
178(7) . . .
158(7) . . .
169(7) . . .
175(7) . . .
157(7) . . .
157(7) . . .
168(7) . . .
159(7) . . .
164(7) . . .
181(7) . . .
145(6) . . .
161(7) . . .
155(7) . . .
154(7) . . .
164(7) . . .
159(7) . . .
159(7) . . .
150(7) . . .
167(7) . . .
152(6) . . .
147(6) . . .
174(7) . . .
165(7) . . .
158(7) . . .
152(7) . . .
143(6) . . .
146(6) . . .
157(7) . . .
153(7) . . .
145(6) . . .
153(6) . . .
154(7) . . .
155(7) . . .
153(7) . . .
162(7) . . .
160(7) . . .
166(7) . . .
164(7) . . .
164(7) . . .
194(7) . . .
163(7) . . .
166(7) . . .
187(8) . . .
159(7) . . .
180(7) . . .
166(7) . . .
153(6) . . .
159(7) . . .
158(7) . . .
159(7) . . .
167(7) . . .
166(7) . . .
151(7) . . .
171(7) . . .
174(7) . . .
161(7) . . .
169(7) . . .
171(7) . . .
146(6) . . .
155(6) . . .
167(7) . . .
166(7) . . .
162(7) . . .
138(6) . . .
148(6) . . .
168(7) . . .
168(7) . . .
176(7) . . .
170(7) . . .
167(7) . . .
171(7) . . .
162(7) . . .
164(7) . . .
165(7) . . .
164(7) . . .
151(6) . . .
154(7) . . .
159(7) . . .
155(7) . . .
144(6) . . .
172(7) . . .
151(7) . . .
153(7) . . .
160(7) . . .
165(7) . . .
158(7) . . .
153(7) . . .
170(7) . . .
159(7) . . .
180(7) . . .
172(7) . . .
162(7) . . .
163(7) . . .
161(7) . . .
161(7) . . .
170(7) . . .
152(7) . . .
162(7) . . .
155(7) . . .
168(7) . . .
142(7) . . .
159(7) . . .
156(7) . . .
165(7) . . .
159(7) . . .
182(7) . . .
162(7) . . .
154(7) . . .
158(6) . . .
167(7) . . .
157(7) . . .
159(7) . . .
159(7) . . .
174(7) . . .
158(7) . . .
171(7) . . .
180(7) . . .
173(7) . . .
170(7) . . .
154(6) . . .
148(7) . . .
163(7) . . .
166(7) . . .
153(6) . . .
172(7) . . .
163(7) . . .
146(7) . . .
168(7) . . .
145(6) . . .
153(6) . . .
174(7) . . .
150(7) . . .
160(7) . . .
172(7) . . .
149(6) . . .
182(7) . . .
168(7) . . .
166(7) . . .
165(7) . . .
168(7) . . .
165(7) . . .
161(7) . . .
162(7) . . .
153(6) . . .
175(7) . . .
156(7) . . .
176(7) . . .
165(7) . . .
173(7) . . .
162(7) . . .
153(7) . . .
148(6) . . .
170(7) . . .
167(7) . . .
162(7) . . .
156(7) . . .
151(7) . . .
160(7) . . .
159(7) . . .
166(7) . . .
146(6) . . .
168(7) . . .
162(7) . . .
145(6) . . .
158(7) . . .
146(7) . . .
164(7) . . .
153(6) . . .
157(6) . . .
157(7) . . .
151(7) . . .
140(6) . . .
148(6) . . .
151(6) . . .
169(7) . . .
164(7) . . .
164(7) . . .
145(6) . . .
151(6) . . .
161(7) . . .
154(7) . . .
152(7) . . .
183(7) . . .
165(7) . . .
145(6) . . .
163(7) . . .
171(7) . . .
155(6) . . .
163(7) . . .
161(7) . . .
140(6) . . .
167(7) . . .
164(7) . . .
165(7) . . .
164(7) . . .
167(7) . . .
168(7) . . .
148(6) . . .
159(7) . . .
157(7) . . .
158(7) . . .
149(6) . . .
161(7) . . .
165(7) . . .
166(7) . . .
159(7) . . .
165(7) . . .
149(6) . . .
156(7) . . .
137(6) . . .
154(7) . . .
167(7) . . .
174(7) . . .
158(7) . . .
158(7) . . .
151(7) . . .
146(6) . . .
150(6) . . .
141(6) . . .
163(7) . . .
157(7) . . .
152(6) . . .
147(6) . . .
152(7) . . .
155(7) . . .
134(6) . . .
137(6) . . .
167(7) . . .
163(7) . . .
158(7) . . .
153(7) . . .
156(7) . . .
148(6) . . .
147(7) . . .
162(7) . . .
169(7) . . .
155(6) . . .
174(7) . . .
148(6) . . .
142(6) . . .
156(7) . . .
164(7) . . .
155(7) . . .
166(7) . . .
141(6) . . .
146(6) . . .
179(7) . . .
153(7) . . .
134(6) . . .
144(7) . . .
148(6) . . .
154(6) . . .
153(7) . . .
152(7) . . .
163(7) . . .
153(6) . . .
158(7) . . .
158(7) . . .
149(7) . . .
152(7) . . .
151(6) . . .
158(7) . . .
152(6) . . .
152(7) . . .
154(7) . . .
150(6) . . .
142(6) . . .
151(7) . . .
166(7) . . .
144(6) . . .
157(6) . . .
165(7) . . .
164(7) . . .
152(7) . . .
153(7) . . .
166(7) . . .
169(7) . . .
172(7) . . .
167(7) . . .
150(7) . . .
134(6) . . .
152(6) . . .
160(7) . . .
143(7) . . .
144(6) . . .
174(7) . . .
165(7) . . .
155(7) . . .
155(7) . . .
152(7) . . .
153(6) . . .
177(7) . . .
173(7) . . .
170(7) . . .
162(7) . . .
166(7) . . .
164(7) . . .
148(7) . . .
154(7) . . .
138(6) . . .
156(7) . . .
163(7) . . .
154(7) . . .
155(7) . . .
145(6) . . .
158(6) . . .
154(7) . . .
155(7) . . .
158(7) . . .
160(7) . . .
164(7) . . .
138(6) . . .
162(7) . . .
155(7) . . .
159(7) . . .
147(6) . . .
166(7) . . .
150(7) . . .
155(7) . . .
149(6) . . .
143(6) . . .
147(7) . . .
140(6) . . .
159(7) . . .
169(7) . . .
151(6) . . .
152(7) . . .
151(7) . . .
154(7) . . .
147(6) . . .
150(6) . . .
158(7) . . .
173(7) . . .
169(7) . . .
142(6) . . .
139(6) . . .
153(7) . . .
145(7) . . .
163(7) . . .
161(7) . . .
145(6) . . .
171(7) . . .
165(7) . . .
155(7) . . .
159(7) . . .
159(7) . . .
158(7) . . .
153(7) . . .
174(7) . . .
140(6) . . .
136(6) . . .
161(7) . . .
155(7) . . .
168(7) . . .
171(7) . . .
159(7) . . .
166(7) . . .
160(7) . . .
156(7) . . .
143(6) . . .
152(7) . . .
164(7) . . .
138(6) . . .
141(6) . . .
146(6) . . .
159(7) . . .
154(7) . . .
155(7) . . .
159(7) . . .
159(7) . . .
166(7) . . .
160(7) . . .
179(7) . . .
165(7) . . .
164(7) . . .
164(7) . . .
163(7) . . .
173(7) . . .
174(7) . . .
168(7) . . .
166(7) . . .
152(7) . . .
166(7) . . .
178(7) . . .
152(7) . . .
157(7) . . .
142(7) . . .
160(7) . . .
141(6) . . .
162(7) . . .
142(6) . . .
139(6) . . .
151(7) . . .
156(7) . . .
149(7) . . .
159(7) . . .
162(7) . . .
144(6) . . .
165(7) . . .
156(7) . . .
184(8) . . .
155(7) . . .
164(7) . . .
149(6) . . .
147(7) . . .
170(7) . . .
165(7) . . .
168(7) . . .
160(7) . . .
166(7) . . .
151(7) . . .
180(7) . . .
159(7) . . .
158(7) . . .
159(7) . . .
174(7) . . .
154(7) . . .
150(6) . . .
165(7) . . .
163(7) . . .
159(7) . . .
161(7) . . .
161(7) . . .
164(7) . . .
140(6) . . .
152(7) . . .
159(7) . . .
166(7) . . .
162(7) . . .
161(7) . . .
146(6) . . .
179(7) . . .
168(7) . . .
158(7) . . .
169(7) . . .
154(7) . . .
162(7) . . .
153(6) . . .
160(7) . . .
177(7) . . .
177(7) . . .
160(7) . . .
180(7) . . .
189(7) . . .
157(7) . . .
174(7) . . .
178(7) . . .
171(7) . . .
163(7) . . .
159(7) . . .
162(7) . . .
186(7) . . .
171(7) . . .
177(7) . . .
159(7) . . .
155(7) . . .
157(7) . . .
176(7) . . .
161(7) . . .
166(7) . . .
171(7) . . .
163(7) . . .
158(7) . . .
168(7) . . .
165(7) . . .
174(7) . . .
145(6) . . .
159(7) . . .
154(7) . . .
152(7) . . .
155(7) . . .
157(7) . . .
146(6) . . .
152(7) . . .
147(7) . . .
154(7) . . .
146(6) . . .
160(7) . . .
166(7) . . .
152(7) . . .
151(6) . . .
156(6) . . .
163(7) . . .
172(7) . . .
180(7) . . .
161(7) . . .
157(6) . . .
174(7) . . .
172(7) . . .
152(6) . . .
160(7) . . .
174(7) . . .
172(7) . . .
169(7) . . .
156(7) . . .
165(7) . . .
181(7) . . .
173(7) . . .
178(7) . . .
176(7) . . .
160(7) . . .
168(7) . . .
191(8) . . .
181(7) . . .
166(7) . . .
180(7) . . .
180(7) . . .
178(7) . . .
203(8) . . .
198(8) . . .
196(7) . . .
187(7) . . .
170(7) . . .
188(8) . . .
182(7) . . .
183(7) . . .
181(7) . . .
164(7) . . .
170(7) . . .
167(7) . . .
173(7) . . .
168(7) . . .
185(7) . . .
177(7) . . .
179(7) . . .
168(7) . . .
162(7) . . .
184(7) . . .
166(7) . . .
160(7) . . .
181(7) . . .
201(7) . . .
202(8) . . .
192(8) . . .
160(7) . . .
171(7) . . .
169(7) . . .
178(7) . . .
178(7) . . .
162(7) . . .
155(6) . . .
178(7) . . .
167(7) . . .
162(7) . . .
182(7) . . .
175(7) . . .
186(7) . . .
194(8) . . .
155(6) . . .
175(7) . . .
177(7) . . .
174(7) . . .
173(7) . . .
172(7) . . .
161(7) . . .
155(6) . . .
162(7) . . .
178(7) . . .
170(7) . . .
170(7) . . .
182(7) . . .
157(7) . . .
180(7) . . .
169(7) . . .
166(7) . . .
174(7) . . .
163(7) . . .
171(7) . . .
183(7) . . .
175(7) . . .
192(7) . . .
186(7) . . .
179(7) . . .
180(7) . . .
178(7) . . .
203(7) . . .
180(7) . . .
169(7) . . .
177(7) . . .
179(7) . . .
174(7) . . .
192(7) . . .
162(7) . . .
177(7) . . .
148(6) . . .
175(7) . . .
177(7) . . .
176(7) . . .
174(7) . . .
159(7) . . .
160(7) . . .
156(7) . . .
148(7) . . .
155(7) . . .
167(7) . . .
184(7) . . .
145(6) . . .
178(7) . . .
161(7) . . .
163(7) . . .
138(6) . . .
160(7) . . .
162(7) . . .
149(7) . . .
170(7) . . .
166(7) . . .
133(6) . . .
148(7) . . .
137(6) . . .
163(7) . . .
150(7) . . .
165(7) . . .
150(7) . . .
161(7) . . .
143(6) . . .
161(7) . . .
154(7) . . .
134(6) . . .
142(6) . . .
162(7) . . .
164(7) . . .
161(7) . . .
157(7) . . .
159(7) . . .
183(7) . . .
163(7) . . .
154(7) . . .
164(7) . . .
147(6) . . .
181(7) . . .
175(7) . . .
145(6) . . .
164(7) . . .
162(7) . . .
141(6) . . .
156(7) . . .
156(7) . . .
148(7) . . .
170(7) . . .
164(7) . . .
154(7) . . .
173(7) . . .
178(7) . . .
152(6) . . .
158(7) . . .
147(7) . . .
161(7) . . .
150(7) . . .
157(6) . . .
160(7) . . .
125(6) . . .
166(7) . . .
158(7) . . .
176(7) . . .
172(7) . . .
147(7) . . .
147(7) . . .
167(7) . . .
168(7) . . .
145(7) . . .
157(7) . . .
151(7) . . .
161(7) . . .
157(7) . . .
144(7) . . .
151(7) . . .
163(7) . . .
154(6) . . .
154(6) . . .
168(7) . . .
153(7) . . .
156(7) . . .
153(6) . . .
143(6) . . .
154(7) . . .
169(7) . . .
168(7) . . .
175(7) . . .
170(7) . . .
162(7) . . .
158(7) . . .
160(7) . . .
140(6) . . .
170(7) . . .
158(7) . . .
154(7) . . .
159(7) . . .
157(6) . . .
160(7) . . .
161(7) . . .
157(7) . . .
159(7) . . .
171(7) . . .
168(7) . . .
161(7) . . .
166(7) . . .
162(7) . . .
154(6) . . .
160(7) . . .
156(7) . . .
148(7) . . .
160(7) . . .
160(7) . . .
171(7) . . .
181(7) . . .
176(7) . . .
154(6) . . .
149(6) . . .
143(6) . . .
179(7) . . .
162(7) . . .
154(6) . . .
157(7) . . .
169(7) . . .
151(7) . . .
153(7) . . .
156(6) . . .
165(7) . . .
158(7) . . .
177(7) . . .
167(7) . . .
158(6) . . .
152(6) . . .
142(6) . . .
168(7) . . .
167(7) . . .
153(6) . . .
164(7) . . .
167(7) . . .
153(7) . . .
145(7) . . .
148(6) . . .
163(7) . . .
162(7) . . .
156(7) . . .
150(7) . . .
164(7) . . .
173(7) . . .
144(7) . . .
137(6) . . .
156(7) . . .
138(6) . . .
145(7) . . .
149(7) . . .
175(7) . . .
180(7) . . .
150(6) . . .
165(7) . . .
155(7) . . .
175(7) . . .
152(7) . . .
161(7) . . .
168(7) . . .
139(6) . . .
164(7) . . .
152(6) . . .
167(7) . . .
174(7) . . .
161(7) . . .
137(6) . . .
163(7) . . .
153(6) . . .
158(7) . . .
151(7) . . .
170(7) . . .
165(7) . . .
152(6) . . .
164(7) . . .
161(7) . . .
163(7) . . .
151(6) . . .
167(7) . . .
161(7) . . .
154(7) . . .
160(7) . . .
164(7) . . .
190(7) . . .
179(7) . . .
179(8) . . .
170(7) . . .
150(6) . . .
159(7) . . .
155(7) . . .
180(7) . . .
166(7) . . .
164(7) . . .
170(7) . . .
163(7) . . .
144(6) . . .
149(7) . . .
155(7) . . .
166(7) . . .
175(7) . . .
157(7) . . .
151(7) . . .
160(7) . . .
161(7) . . .
162(7) . . .
153(7) . . .
162(7) . . .
165(7) . . .
168(7) . . .
145(6) . . .
161(7) . . .
174(7) . . .
158(7) . . .
161(7) . . .
154(7) . . .
153(7) . . .
152(6) . . .
156(7) . . .
155(7) . . .
165(7) . . .
167(7) . . .
169(7) . . .
168(7) . . .
163(7) . . .
165(7) . . .
152(7) . . .
143(6) . . .
159(7) . . .
156(7) . . .
166(7) . . .
156(7) . . .
150(6) . . .
164(7) . . .
132(6) . . .
154(7) . . .
154(7) . . .
166(7) . . .
159(7) . . .
164(7) . . .
147(6) . . .
171(7) . . .
158(6) . . .
168(7) . . .
148(6) . . .
146(7) . . .
146(7) . . .
145(6) . . .
164(7) . . .
137(6) . . .
163(7) . . .
152(7) . . .
144(6) . . .
157(7) . . .
148(7) . . .
154(7) . . .
146(6) . . .
159(7) . . .
163(7) . . .
167(7) . . .
163(7) . . .
143(6) . . .
152(6) . . .
155(7) . . .
163(7) . . .
160(7) . . .
153(6) . . .
149(6) . . .
153(7) . . .
142(7) . . .
148(6) . . .
164(7) . . .
169(7) . . .
170(7) . . .
146(7) . . .
154(7) . . .
159(7) . . .
165(7) . . .
139(6) . . .
153(7) . . .
145(6) . . .
158(7) . . .
169(7) . . .
163(7) . . .
164(7) . . .
151(7) . . .
145(6) . . .
147(6) . . .
154(7) . . .
158(7) . . .
149(6) . . .
181(7) . . .
174(7) . . .
158(7) . . .
155(7) . . .
169(7) . . .
152(6) . . .
147(6) . . .
152(7) . . .
162(7) . . .
147(6) . . .
152(6) . . .
158(7) . . .
153(7) . . .
151(7) . . .
165(7) . . .
160(7) . . .
159(7) . . .
158(7) . . .
155(7) . . .
158(7) . . .
143(6) . . .
139(6) . . .
130(6) . . .
145(6) . . .
160(7) . . .
157(7) . . .
152(7) . . .
135(6) . . .
157(7) . . .
143(6) . . .
159(7) . . .
163(7) . . .
156(7) . . .
152(7) . . .
144(6) . . .
157(7) . . .
161(7) . . .
145(7) . . .
154(7) . . .
155(6) . . .
138(6) . . .
156(7) . . .
152(7) . . .
160(7) . . .
134(6) . . .
158(7) . . .
146(6) . . .
146(7) . . .
142(7) . . .
167(7) . . .
138(6) . . .
149(6) . . .
157(7) . . .
155(7) . . .
151(6) . . .
167(7) . . .
158(7) . . .
154(7) . . .
162(7) . . .
169(7) . . .
154(7) . . .
145(6) . . .
156(7) . . .
160(7) . . .
147(6) . . .
166(7) . . .
168(7) . . .
162(7) . . .
156(7) . . .
148(6) . . .
167(7) . . .
163(7) . . .
169(7) . . .
170(7) . . .
145(6) . . .
161(7) . . .
164(7) . . .
141(6) . . .
137(6) . . .
132(6) . . .
158(7) . . .
145(7) . . .
155(7) . . .
156(7) . . .
148(6) . . .
149(7) . . .
132(6) . . .
134(6) . . .
149(6) . . .
146(6) . . .
149(7) . . .
160(7) . . .
143(7) . . .
145(6) . . .
145(6) . . .
150(7) . . .
149(7) . . .
149(6) . . .
150(6) . . .
146(6) . . .
151(7) . . .
142(6) . . .
157(7) . . .
154(6) . . .
146(6) . . .
161(7) . . .
141(7) . . .
141(6) . . .
148(6) . . .
159(7) . . .
141(7) . . .
153(7) . . .
159(7) . . .
169(7) . . .
155(7) . . .
159(7) . . .
160(7) . . .
143(6) . . .
173(7) . . .
170(7) . . .
144(6) . . .
125(6) . . .
144(6) . . .
139(6) . . .
153(7) . . .
166(7) . . .
156(7) . . .
170(7) . . .
161(7) . . .
153(7) . . .
124(6) . . .
140(6) . . .
157(7) . . .
166(7) . . .
158(7) . . .
158(7) . . .
160(7) . . .
160(7) . . .
173(7) . . .
160(7) . . .
169(7) . . .
144(6) . . .
147(6) . . .
138(6) . . .
151(7) . . .
164(7) . . .
154(7) . . .
144(6) . . .
149(7) . . .
154(7) . . .
160(7) . . .
148(7) . . .
147(6) . . .
140(6) . . .
147(6) . . .
167(7) . . .
165(7) . . .
161(7) . . .
160(7) . . .
155(7) . . .
175(7) . . .
162(7) . . .
159(7) . . .
165(7) . . .
167(7) . . .
167(7) . . .
150(7) . . .
145(6) . . .
147(6) . . .
150(6) . . .
138(6) . . .
170(7) . . .
167(7) . . .
149(6) . . .
161(7) . . .
141(6) . . .
143(6) . . .
157(7) . . .
134(6) . . .
160(7) . . .
145(7) . . .
129(6) . . .
148(7) . . .
154(6) . . .
162(7) . . .
145(7) . . .
135(6) . . .
155(7) . . .
148(6) . . .
150(6) . . .
148(6) . . .
148(6) . . .
168(7) . . .
156(7) . . .
165(7) . . .
144(6) . . .
158(7) . . .
144(6) . . .
170(7) . . .
140(6) . . .
155(7) . . .
153(7) . . .
154(7) . . .
146(6) . . .
138(6) . . .
152(7) . . .
148(7) . . .
144(6) . . .
149(6) . . .
154(7) . . .
151(7) . . .
138(6) . . .
127(6) . . .
141(6) . . .
147(6) . . .
149(7) . . .
152(7) . . .
148(6) . . .
153(6) . . .
159(7) . . .
146(7) . . .
145(6) . . .
142(6) . . .
153(6) . . .
145(6) . . .
154(7) . . .
161(7) . . .
144(6) . . .
164(7) . . .
144(6) . . .
146(7) . . .
142(7) . . .
151(6) . . .
159(7) . . .
160(7) . . .
137(6) . . .
144(6) . . .
147(6) . . .
152(6) . . .
139(6) . . .
151(7) . . .
146(7) . . .
151(6) . . .
158(7) . . .
146(6) . . .
157(7) . . .
147(6) . . .
128(6) . . .
155(7) . . .
163(7) . . .
146(6) . . .
157(7) . . .
145(6) . . .
148(6) . . .
162(7) . . .
158(7) . . .
141(6) . . .
143(6) . . .
146(6) . . .
157(7) . . .
158(7) . . .
164(7) . . .
153(6) . . .
147(6) . . .
160(7) . . .
159(7) . . .
138(6) . . .
152(6) . . .
161(7) . . .
149(7) . . .
170(7) . . .
133(6) . . .
138(6) . . .
145(6) . . .
151(7) . . .
164(7) . . .
157(7) . . .
158(7) . . .
159(7) . . .
137(6) . . .
158(7) . . .
179(7) . . .
166(7) . . .
157(7) . . .
160(7) . . .
150(6) . . .
142(6) . . .
163(7) . . .
152(7) . . .
146(6) . . .
160(7) . . .
151(6) . . .
154(6) . . .
148(7) . . .
157(7) . . .
139(6) . . .
155(6) . . .
163(7) . . .
144(6) . . .
131(6) . . .
151(7) . . .
156(7) . . .
146(6) . . .
155(7) . . .
158(7) . . .
135(6) . . .
144(6) . . .
145(6) . . .
169(7) . . .
157(7) . . .
150(7) . . .
147(6) . . .
148(6) . . .
142(6) . . .
140(6) . . .
151(7) . . .
141(6) . . .
150(7) . . .
147(7) . . .
158(7) . . .
154(7) . . .
161(7) . . .
158(7) . . .
143(7) . . .
140(6) . . .
150(7) . . .
152(6) . . .
152(7) . . .
157(7) . . .
154(7) . . .
148(6) . . .
150(6) . . .
145(7) . . .
128(6) . . .
136(6) . . .
147(6) . . .
166(7) . . .
152(7) . . .
155(7) . . .
159(7) . . .
151(6) . . .
132(6) . . .
139(6) . . .
141(7) . . .
139(6) . . .
146(6) . . .
153(6) . . .
146(7) . . .
134(6) . . .
149(7) . . .
142(6) . . .
143(6) . . .
142(6) . . .
139(6) . . .
144(7) . . .
124(6) . . .
131(6) . . .
139(7) . . .
136(7) . . .
135(6) . . .
138(6) . . .
140(6) . . .
154(7) . . .
138(6) . . .
151(7) . . .
151(6) . . .
152(7) . . .
149(6) . . .
146(6) . . .
154(7) . . .
135(6) . . .
141(6) . . .
134(6) . . .
143(6) . . .
162(7) . . .
158(7) . . .
159(7) . . .
139(6) . . .
156(7) . . .
133(6) . . .
142(6) . . .
145(6) . . .
158(7) . . .
147(7) . . .
152(6) . . .
145(6) . . .
145(7) . . .
150(7) . . .
158(7) . . .
127(6) . . .
157(6) . . .
144(6) . . .
139(7) . . .
149(7) . . .
160(7) . . .
156(7) . . .
139(6) . . .
139(7) . . .
147(6) . . .
134(6) . . .
153(6) . . .
149(7) . . .
142(7) . . .
136(6) . . .
139(6) . . .
139(6) . . .
150(7) . . .
146(7) . . .
148(6) . . .
141(6) . . .
157(7) . . .
144(6) . . .
136(6) . . .
133(6) . . .
136(6) . . .
138(6) . . .
142(7) . . .
154(7) . . .
143(6) . . .
139(6) . . .
134(6) . . .
133(6) . . .
121(6) . . .
139(6) . . .
145(6) . . .
124(6) . . .
138(6) . . .
151(7) . . .
153(6) . . .
151(6) . . .
157(7) . . .
139(6) . . .
150(7) . . .
137(6) . . .
149(6) . . .
159(7) . . .
156(7) . . .
144(7) . . .
143(6) . . .
150(6) . . .
148(7) . . .
135(6) . . .
127(6) . . .
145(6) . . .
140(6) . . .
152(7) . . .
147(7) . . .
141(7) . . .
138(6) . . .
145(6) . . .
148(6) . . .
146(7) . . .
155(7) . . .
131(6) . . .
137(6) . . .
145(7) . . .
141(7) . . .
135(6) . . .
134(6) . . .
143(6) . . .
143(6) . . .
128(6) . . .
140(6) . . .
139(6) . . .
136(6) . . .
144(6) . . .
150(7) . . .
122(6) . . .
151(6) . . .
143(7) . . .
138(7) . . .
132(6) . . .
136(6) . . .
135(6) . . .
137(6) . . .
133(6) . . .
148(7) . . .
129(6) . . .
138(6) . . .
156(7) . . .
155(7) . . .
137(6) . . .
147(6) . . .
139(6) . . .
130(6) . . .
135(6) . . .
146(7) . . .
123(6) . . .
147(6) . . .
144(6) . . .
143(7) . . .
143(6) . . .
157(7) . . .
143(6) . . .
152(7) . . .
149(7) . . .
145(7) . . .
131(6) . . .
136(6) . . .
148(7) . . .
137(7) . . .
137(6) . . .
143(6) . . .
141(6) . . .
149(7) . . .
145(7) . . .
141(6) . . .
140(6) . . .
149(6) . . .
163(7) . . .
132(6) . . .
129(6) . . .
140(6) . . .
141(6) . . .
136(6) . . .
149(7) . . .
158(7) . . .
151(6) . . .
130(6) . . .
146(7) . . .
137(6) . . .
137(6) . . .
145(6) . . .
151(7) . . .
151(7) . . .
144(7) . . .
149(6) . . .
152(6) . . .
138(6) . . .
148(7) . . .
151(7) . . .
157(7) . . .
145(6) . . .
139(6) . . .
149(7) . . .
156(7) . . .
136(6) . . .
158(7) . . .
147(7) . . .
143(7) . . .
138(7) . . .
135(6) . . .
157(7) . . .
150(7) . . .
150(7) . . .
154(7) . . .
141(6) . . .
143(6) . . .
134(6) . . .
143(7) . . .
153(7) . . .
159(7) . . .
148(6) . . .
152(7) . . .
156(7) . . .
142(6) . . .
150(6) . . .
143(6) . . .
135(6) . . .
151(7) . . .
141(6) . . .
135(6) . . .
141(6) . . .
125(6) . . .
157(7) . . .
151(7) . . .
139(6) . . .
156(7) . . .
142(7) . . .
122(6) . . .
144(6) . . .
162(7) . . .
144(6) . . .
152(7) . . .
148(7) . . .
140(6) . . .
146(6) . . .
148(7) . . .
142(7) . . .
153(7) . . .
129(6) . . .
152(6) . . .
153(7) . . .
147(7) . . .
153(7) . . .
156(6) . . .
152(6) . . .
143(6) . . .
154(7) . . .
151(7) . . .
137(6) . . .
143(6) . . .
156(7) . . .
134(6) . . .
144(6) . . .
153(6) . . .
140(6) . . .
157(7) . . .
154(7) . . .
130(6) . . .
137(6) . . .
145(6) . . .
163(7) . . .
155(7) . . .
156(7) . . .
163(7) . . .
164(7) . . .
150(7) . . .
135(6) . . .
136(6) . . .
150(6) . . .
130(6) . . .
138(7) . . .
147(7) . . .
147(7) . . .
145(6) . . .
148(6) . . .
154(7) . . .
145(6) . . .
152(7) . . .
140(6) . . .
142(7) . . .
151(7) . . .
160(7) . . .
129(6) . . .
157(6) . . .
151(7) . . .
136(6) . . .
153(7) . . .
144(6) . . .
162(7) . . .
151(7) . . .
148(7) . . .
148(6) . . .
144(6) . . .
157(7) . . .
148(7) . . .
145(7) . . .
155(7) . . .
141(6) . . .
155(7) . . .
159(7) . . .
137(6) . . .
147(6) . . .
154(7) . . .
149(6) . . .
156(7) . . .
147(7) . . .
153(7) . . .
153(6) . . .
165(7) . . .
150(7) . . .
146(7) . . .
142(6) . . .
147(6) . . .
154(7) . . .
138(6) . . .
152(7) . . .
143(6) . . .
151(6) . . .
134(6) . . .
162(7) . . .
161(7) . . .
148(6) . . .
141(6) . . .
157(7) . . .
149(7) . . .
160(7) . . .
149(6) . . .
154(6) . . .
147(6) . . .
180(7) . . .
158(7) . . .
133(6) . . .
138(6) . . .
138(6) . . .
161(7) . . .
151(7) . . .
151(6) . . .
153(6) . . .
146(6) . . .
148(7) . . .
146(6) . . .
150(7) . . .
153(6) . . .
159(7) . . .
149(7) . . .
149(6) . . .
154(6) . . .
160(7) . . .
152(7) . . .
171(7) . . .
160(7) . . .
166(7) . . .
149(6) . . .
155(7) . . .
190(8) . . .
172(7) . . .
154(7) . . .
158(7) . . .
182(7) . . .
151(7) . . .
152(7) . . .
163(7) . . .
156(7) . . .
152(7) . . .
146(7) . . .
159(7) . . .
175(7) . . .
158(7) . . .
160(7) . . .
150(7) . . .
162(7) . . .
157(7) . . .
145(6) . . .
154(7) . . .
166(7) . . .
141(6) . . .
152(6) . . .
155(7) . . .
156(7) . . .
148(6) . . .
140(6) . . .
169(7) . . .
167(7) . . .
161(7) . . .
152(7) . . .
149(6) . . .
144(6) . . .
142(6) . . .
154(7) . . .
162(7) . . .
147(6) . . .
156(6) . . .
162(7) . . .
152(7) . . .
147(6) . . .
155(7) . . .
176(7) . . .
177(7) . . .
175(8) . . .
165(7) . . .
168(7) . . .
137(6) . . .
155(7) . . .
169(7) . . .
168(7) . . .
153(6) . . .
170(7) . . .
147(6) . . .
162(7) . . .
165(7) . . .
153(6) . . .
153(6) . . .
148(7) . . .
166(7) . . .
170(7) . . .
145(6) . . .
153(7) . . .
150(7) . . .
152(7) . . .
157(7) . . .
142(6) . . .
155(7) . . .
153(7) . . .
172(7) . . .
147(6) . . .
132(6) . . .
146(7) . . .
142(7) . . .
139(6) . . .
150(7) . . .
155(6) . . .
174(7) . . .
149(7) . . .
146(7) . . .
151(7) . . .
150(6) . . .
167(7) . . .
158(7) . . .
147(7) . . .
149(6) . . .
156(6) . . .
162(7) . . .
163(7) . . .
170(7) . . .
162(7) . . .
151(6) . . .
149(7) . . .
152(7) . . .
153(7) . . .
163(7) . . .
164(7) . . .
165(7) . . .
165(7) . . .
159(7) . . .
166(7) . . .
177(7) . . .
161(7) . . .
163(7) . . .
157(7) . . .
167(7) . . .
156(7) . . .
150(6) . . .
165(7) . . .
186(7) . . .
174(7) . . .
181(7) . . .
167(7) . . .
169(7) . . .
174(7) . . .
160(7) . . .
156(7) . . .
157(7) . . .
143(6) . . .
157(7) . . .
153(6) . . .
164(7) . . .
162(7) . . .
154(7) . . .
151(7) . . .
152(6) . . .
145(6) . . .
139(6) . . .
139(7) . . .
152(7) . . .
163(7) . . .
145(7) . . .
151(7) . . .
159(7) . . .
152(6) . . .
144(6) . . .
143(6) . . .
138(6) . . .
141(6) . . .
159(7) . . .
151(6) . . .
146(7) . . .
150(7) . . .
132(6) . . .
156(6) . . .
153(6) . . .
142(6) . . .
163(7) . . .
153(6) . . .
152(6) . . .
140(6) . . .
146(6) . . .
169(7) . . .
146(6) . . .
146(6) . . .
143(6) . . .
158(7) . . .
142(7) . . .
137(6) . . .
136(6) . . .
136(6) . . .
134(6) . . .
146(7) . . .
142(7) . . .
148(6) . . .
129(6) . . .
147(6) . . .
146(6) . . .
133(6) . . .
152(6) . . .
159(7) . . .
156(7) . . .
152(7) . . .
160(7) . . .
156(7) . . .
139(6) . . .
139(7) . . .
146(7) . . .
141(6) . . .
170(7) . . .
146(6) . . .
145(7) . . .
151(6) . . .
165(7) . . .
140(6) . . .
147(6) . . .
140(6) . . .
164(7) . . .
162(7) . . .
177(7) . . .
167(7) . . .
160(7) . . .
157(7) . . .
146(6) . . .
150(6) . . .
158(7) . . .
145(7) . . .
151(7) . . .
135(6) . . .
151(6) . . .
159(7) . . .
166(7) . . .
155(7) . . .
150(6) . . .
158(7) . . .
149(7) . . .
148(7) . . .
148(7) . . .
144(6) . . .
154(7) . . .
151(6) . . .
149(7) . . .
154(7) . . .
160(7) . . .
150(7) . . .
145(7) . . .
152(7) . . .
157(7) . . .
138(6) . . .
155(7) . . .
167(7) . . .
173(7) . . .
179(7) . . .
158(7) . . .
146(7) . . .
149(7) . . .
145(6) . . .
158(7) . . .
163(7) . . .
148(6) . . .
151(7) . . .
149(7) . . .
153(6) . . .
148(6) . . .
165(7) . . .
157(7) . . .
150(7) . . .
163(7) . . .
155(7) . . .
134(6) . . .
137(6) . . .
143(6) . . .
144(6) . . .
146(6) . . .
142(6) . . .
150(7) . . .
140(6) . . .
138(6) . . .
149(6) . . .
166(7) . . .
154(7) . . .
145(7) . . .
131(6) . . .
129(6) . . .
143(7) . . .
143(7) . . .
147(7) . . .
145(6) . . .
150(6) . . .
148(6) . . .
153(7) . . .
156(7) . . .
140(6) . . .
155(7) . . .
154(7) . . .
151(7) . . .
144(7) . . .
147(6) . . .
149(6) . . .
153(7) . . .
150(7) . . .
176(7) . . .
150(6) . . .
157(7) . . .
162(7) . . .
164(7) . . .
164(7) . . .
149(6) . . .
142(6) . . .
139(7) . . .
146(7) . . .
144(6) . . .
151(6) . . .
153(7) . . .
142(6) . . .
155(7) . . .
151(6) . . .
148(6) . . .
166(7) . . .
145(7) . . .
158(7) . . .
141(6) . . .
149(6) . . .
153(7) . . .
136(6) . . .
140(6) . . .
152(6) . . .
136(6) . . .
128(6) . . .
122(6) . . .
153(7) . . .
143(6) . . .
137(6) . . .
155(7) . . .
156(7) . . .
146(6) . . .
152(6) . . .
148(6) . . .
142(6) . . .
149(7) . . .
141(6) . . .
148(6) . . .
134(6) . . .
150(7) . . .
161(7) . . .
156(7) . . .
153(6) . . .
151(6) . . .
143(6) . . .
150(7) . . .
149(6) . . .
143(6) . . .
147(6) . . .
147(7) . . .
152(7) . . .
160(7) . . .
147(6) . . .
149(6) . . .
147(7) . . .
142(6) . . .
161(7) . . .
155(6) . . .
155(7) . . .
151(7) . . .
165(7) . . .
173(7) . . .
139(6) . . .
146(6) . . .
149(7) . . .
148(7) . . .
139(6) . . .
152(6) . . .
135(6) . . .
153(7) . . .
143(6) . . .
151(6) . . .
163(7) . . .
160(7) . . .
177(8) . . .
144(6) . . .
146(6) . . .
159(7) . . .
164(7) . . .
160(7) . . .
143(6) . . .
159(7) . . .
154(6) . . .
143(7) . . .
151(7) . . .
157(7) . . .
169(7) . . .
147(6) . . .
159(7) . . .
145(7) . . .
157(7) . . .
160(7) . . .
155(7) . . .
152(7) . . .
146(6) . . .
133(6) . . .
160(7) . . .
160(7) . . .
132(6) . . .
141(6) . . .
134(6) . . .
149(6) . . .
152(7) . . .
160(7) . . .
144(7) . . .
148(6) . . .
149(6) . . .
147(6) . . .
141(6) . . .
155(7) . . .
152(7) . . .
125(6) . . .
147(7) . . .
138(6) . . .
153(7) . . .
156(7) . . .
152(6) . . .
138(6) . . .
139(7) . . .
160(7) . . .
142(6) . . .
128(6) . . .
139(6) . . .
142(7) . . .
147(7) . . .
145(6) . . .
153(6) . . .
123(6) . . .
133(6) . . .
159(7) . . .
141(6) . . .
149(6) . . .
150(7) . . .
132(6) . . .
148(7) . . .
151(6) . . .
157(6) . . .
163(7) . . .
154(7) . . .
136(6) . . .
164(7) . . .
150(6) . . .
160(7) . . .
147(6) . . .
151(6) . . .
170(7) . . .
162(7) . . .
141(6) . . .
144(7) . . .
132(6) . . .
129(6) . . .
130(6) . . .
151(7) . . .
160(7) . . .
147(6) . . .
142(6) . . .
149(6) . . .
161(7) . . .
133(6) . . .
141(6) . . .
135(6) . . .
145(6) . . .
137(6) . . .
148(7) . . .
158(7) . . .
164(7) . . .
160(7) . . .
142(6) . . .
148(7) . . .
131(6) . . .
125(6) . . .
140(6) . . .
146(7) . . .
158(7) . . .
156(7) . . .
153(6) . . .
149(6) . . .
153(7) . . .
151(7) . . .
143(6) . . .
143(6) . . .
150(7) . . .
148(7) . . .
152(7) . . .
171(7) . . .
138(6) . . .
144(6) . . .
151(7) . . .
160(7) . . .
140(6) . . .
147(6) . . .
151(7) . . .
159(7) . . .
154(7) . . .
144(6) . . .
150(6) . . .
156(7) . . .
166(7) . . .
143(6) . . .
143(6) . . .
160(7) . . .
153(7) . . .
154(7) . . .
146(6) . . .
161(7) . . .
144(6) . . .
140(7) . . .
131(6) . . .
132(6) . . .
135(6) . . .
131(6) . . .
149(7) . . .
172(7) . . .
141(6) . . .
145(6) . . .
152(7) . . .
150(7) . . .
154(7) . . .
150(6) . . .
151(6) . . .
149(6) . . .
146(7) . . .
152(7) . . .
151(6) . . .
142(6) . . .
141(6) . . .
140(7) . . .
129(6) . . .
147(6) . . .
154(7) . . .
147(7) . . .
150(7) . . .
158(7) . . .
147(6) . . .
153(6) . . .
145(6) . . .
138(6) . . .
144(7) . . .
132(6) . . .
136(6) . . .
146(6) . . .
139(6) . . .
144(6) . . .
139(6) . . .
144(6) . . .
139(6) . . .
145(6) . . .
147(6) . . .
159(7) . . .
153(7) . . .
163(7) . . .
156(7) . . .
140(6) . . .
159(7) . . .
154(7) . . .
157(7) . . .
156(7) . . .
152(7) . . .
152(6) . . .
160(7) . . .
149(7) . . .
156(7) . . .
148(6) . . .
172(7) . . .
166(7) . . .
164(7) . . .
143(6) . . .
155(7) . . .
165(7) . . .
164(7) . . .
157(7) . . .
148(6) . . .
160(7) . . .
147(6) . . .
175(7) . . .
143(7) . . .
156(7) . . .
154(6) . . .
151(6) . . .
145(6) . . .
165(7) . . .
159(7) . . .
150(6) . . .
161(7) . . .
161(7) . . .
141(7) . . .
150(7) . . .
149(6) . . .
132(6) . . .
163(7) . . .
148(7) . . .
147(7) . . .
153(6) . . .
137(6) . . .
135(6) . . .
147(6) . . .
149(6) . . .
159(7) . . .
135(6) . . .
120(6) . . .
136(6) . . .
146(6) . . .
136(6) . . .
140(6) . . .
152(7) . . .
160(7) . . .
149(6) . . .
166(7) . . .
151(6) . . .
153(7) . . .
130(6) . . .
148(7) . . .
165(7) . . .
144(6) . . .
141(7) . . .
176(7) . . .
157(7) . . .
143(6) . . .
159(7) . . .
164(7) . . .
142(6) . . .
172(7) . . .
162(7) . . .
149(6) . . .
143(7) . . .
133(6) . . .
134(6) . . .
165(7) . . .
149(7) . . .
142(7) . . .
150(7) . . .
154(6) . . .
146(6) . . .
127(6) . . .
139(7) . . .
150(6) . . .
147(6) . . .
145(6) . . .
133(6) . . .
156(7) . . .
151(7) . . .
147(6) . . .
150(6) . . .
147(7) . . .
145(7) . . .
142(6) . . .
145(6) . . .
140(6) . . .
161(7) . . .
153(7) . . .
161(7) . . .
157(6) . . .
140(6) . . .
131(6) . . .
150(6) . . .
171(7) . . .
135(6) . . .
143(6) . . .
140(6) . . .
171(7) . . .
144(6) . . .
142(6) . . .
158(7) . . .
154(7) . . .
134(6) . . .
145(6) . . .
152(6) . . .
143(7) . . .
143(7) . . .
156(7) . . .
150(6) . . .
139(6) . . .
175(7) . . .
153(7) . . .
172(7) . . .
131(6) . . .
149(6) . . .
167(7) . . .
163(7) . . .
154(7) . . .
149(6) . . .
155(6) . . .
132(6) . . .
158(7) . . .
152(7) . . .
170(7) . . .
165(7) . . .
145(7) . . .
144(7) . . .
152(7) . . .
147(6) . . .
123(6) . . .
146(7) . . .
141(6) . . .
140(7) . . .
153(6) . . .
164(7) . . .
151(7) . . .
145(7) . . .
142(6) . . .
148(6) . . .
158(7) . . .
147(7) . . .
140(7) . . .
138(6) . . .
150(6) . . .
152(7) . . .
153(7) . . .
149(6) . . .
154(7) . . .
161(7) . . .
159(7) . . .
161(7) . . .
172(7) . . .
143(6) . . .
144(6) . . .
144(7) . . .
125(6) . . .
157(7) . . .
150(6) . . .
165(7) . . .
163(7) . . .
152(7) . . .
151(7) . . .
168(7) . . .
158(6) . . .
165(7) . . .
155(7) . . .
139(6) . . .
145(6) . . .
154(6) . . .
151(7) . . .
155(7) . . .
154(7) . . .
155(7) . . .
153(6) . . .
155(7) . . .
150(7) . . .
163(7) . . .
156(7) . . .
132(6) . . .
156(7) . . .
149(7) . . .
144(7) . . .
159(7) . . .
170(7) . . .
160(7) . . .
151(7) . . .
155(7) . . .
153(6) . . .
138(6) . . .
154(7) . . .
151(7) . . .
175(7) . . .
163(7) . . .
163(7) . . .
163(7) . . .
169(7) . . .
159(7) . . .
186(7) . . .
174(7) . . .
171(7) . . .
157(7) . . .
155(7) . . .
160(7) . . .
156(7) . . .
155(7) . . .
162(7) . . .
139(6) . . .
162(7) . . .
147(7) . . .
167(7) . . .
150(7) . . .
145(6) . . .
149(6) . . .
142(6) . . .
180(8) . . .
164(7) . . .
163(7) . . .
144(6) . . .
158(7) . . .
145(7) . . .
162(7) . . .
168(7) . . .
152(6) . . .
154(7) . . .
152(7) . . .
150(7) . . .
141(6) . . .
160(7) . . .
147(6) . . .
168(7) . . .
148(6) . . .
156(7) . . .
151(7) . . .
162(7) . . .
143(6) . . .
160(7) . . .
154(6) . . .
142(6) . . .
153(7) . . .
144(7) . . .
146(6) . . .
139(6) . . .
147(6) . . .
143(6) . . .
157(7) . . .
158(7) . . .
144(6) . . .
158(7) . . .
154(7) . . .
118(6) . . .
122(6) . . .
146(6) . . .
144(6) . . .
142(7) . . .
178(8) . . .
145(6) . . .
159(7) . . .
160(7) . . .
143(7) . . .
137(6) . . .
149(6) . . .
137(6) . . .
143(6) . . .
152(7) . . .
135(6) . . .
137(6) . . .
147(6) . . .
139(6) . . .
158(7) . . .
133(6) . . .
148(6) . . .
154(6) . . .
152(7) . . .
162(7) . . .
153(7) . . .
148(6) . . .
150(6) . . .
148(7) . . .
156(7) . . .
132(6) . . .
150(6) . . .
135(6) . . .
140(6) . . .
147(7) . . .
171(7) . . .
150(6) . . .
131(6) . . .
144(6) . . .
156(7) . . .
149(6) . . .
158(7) . . .
128(6) . . .
126(6) . . .
122(6) . . .
146(7) . . .
139(6) . . .
151(7) . . .
141(6) . . .
158(7) . . .
153(6) . . .
152(6) . . .
154(7) . . .
147(7) . . .
142(6) . . .
166(7) . . .
167(7) . . .
151(7) . . .
161(7) . . .
149(7) . . .
135(6) . . .
135(6) . . .
149(7) . . .
137(6) . . .
140(6) . . .
136(6) . . .
142(6) . . .
143(6) . . .
144(7) . . .
155(7) . . .
151(6) . . .
140(6) . . .
153(7) . . .
138(6) . . .
134(6) . . .
132(6) . . .
135(6) . . .
153(7) . . .
127(6) . . .
140(6) . . .
144(6) . . .
157(7) . . .
136(6) . . .
140(7) . . .
142(6) . . .
141(6) . . .
137(6) . . .
142(6) . . .
151(7) . . .
147(7) . . .
146(6) . . .
150(6) . . .
162(7) . . .
157(7) . . .
142(6) . . .
142(6) . . .
141(6) . . .
157(7) . . .
143(7) . . .
146(6) . . .
149(6) . . .
156(7) . . .
141(6) . . .
131(6) . . .
149(6) . . .
159(7) . . .
163(7) . . .
152(7) . . .
162(7) . . .
166(7) . . .
156(7) . . .
169(7) . . .
145(7) . . .
138(6) . . .
143(6) . . .
141(6) . . .
159(7) . . .
158(7) . . .
141(6) . . .
148(6) . . .
160(7) . . .
161(7) . . .
147(7) . . .
154(7) . . .
161(7) . . .
140(6) . . .
137(6) . . .
157(7) . . .
136(6) . . .
148(6) . . .
142(6) . . .
153(7) . . .
156(7) . . .
150(7) . . .
150(6) . . .
155(7) . . .
154(7) . . .
134(6) . . .
128(6) . . .
139(6) . . .
152(6) . . .
146(6) . . .
136(6) . . .
145(6) . . .
167(7) . . .
129(6) . . .
138(6) . . .
148(6) . . .
161(7) . . .
165(7) . . .
160(7) . . .
159(7) . . .
153(7) . . .
138(6) . . .
138(6) . . .
159(7) . . .
146(7) . . .
132(6) . . .
138(6) . . .
134(6) . . .
128(6) . . .
140(6) . . .
160(7) . . .
160(7) . . .
147(6) . . .
146(6) . . .
159(7) . . .
164(7) . . .
132(6) . . .
159(7) . . .
140(6) . . .
138(7) . . .
151(7) . . .
143(6) . . .
143(6) . . .
150(7) . . .
161(7) . . .
133(6) . . .
142(6) . . .
141(6) . . .
152(7) . . .
143(6) . . .
142(6) . . .
147(6) . . .
145(6) . . .
142(6) . . .
150(7) . . .
146(7) . . .
135(6) . . .
132(6) . . .
148(7) . . .
149(7) . . .
133(6) . . .
145(6) . . .
156(7) . . .
168(7) . . .
152(7) . . .
148(6) . . .
152(6) . . .
165(7) . . .
156(7) . . .
147(7) . . .
165(7) . . .
145(6) . . .
167(7) . . .
135(6) . . .
154(7) . . .
145(6) . . .
159(7) . . .
153(7) . . .
148(7) . . .
143(6) . . .
155(6) . . .
152(6) . . .
139(6) . . .
152(7) . . .
150(7) . . .
148(6) . . .
139(6) . . .
141(7) . . .
148(7) . . .
142(6) . . .
144(6) . . .
163(7) . . .
165(7) . . .
143(7) . . .
131(6) . . .
147(6) . . .
164(7) . . .
154(7) . . .
140(6) . . .
142(6) . . .
144(6) . . .
151(6) . . .
152(7) . . .
156(7) . . .
140(6) . . .
146(6) . . .
150(6) . . .
144(7) . . .
136(6) . . .
163(7) . . .
161(7) . . .
146(7) . . .
162(7) . . .
152(7) . . .
151(7) . . .
147(6) . . .
152(7) . . .
146(7) . . .
151(7) . . .
149(6) . . .
148(6) . . .
138(6) . . .
143(7) . . .
143(7) . . .
152(6) . . .
151(6) . . .
146(7) . . .
132(6) . . .
144(7) . . .
148(6) . . .
132(6) . . .
148(7) . . .
147(7) . . .
142(6) . . .
146(7) . . .
158(7) . . .
146(7) . . .
139(7) . . .
142(7) . . .
149(6) . . .
155(7) . . .
159(7) . . .
150(7) . . .
150(6) . . .
146(6) . . .
165(7) . . .
141(6) . . .
137(6) . . .
147(6) . . .
131(6) . . .
147(6) . . .
161(7) . . .
132(6) . . .
151(7) . . .
136(6) . . .
155(7) . . .
162(7) . . .
168(7) . . .
151(7) . . .
161(7) . . .
156(7) . . .
153(7) . . .
151(7) . . .
144(6) . . .
145(6) . . .
158(7) . . .
163(7) . . .
160(7) . . .
146(6) . . .
142(6) . . .
146(6) . . .
163(7) . . .
160(7) . . .
148(6) . . .
153(6) . . .
152(7) . . .
129(6) . . .
148(7) . . .
145(6) . . .
159(7) . . .
165(7) . . .
139(7) . . .
167(7) . . .
148(6) . . .
170(7) . . .
135(6) . . .
125(6) . . .
149(7) . . .
138(6) . . .
150(6) . . .
135(6) . . .
143(7) . . .
157(7) . . .
162(7) . . .
141(6) . . .
157(7) . . .
140(7) . . .
135(6) . . .
137(6) . . .
154(7) . . .
144(7) . . .
129(6) . . .
156(7) . . .
145(6) . . .
147(6) . . .
142(6) . . .
157(7) . . .
141(6) . . .
152(6) . . .
143(6) . . .
151(7) . . .
143(6) . . .
142(7) . . .
136(6) . . .
146(7) . . .
136(6) . . .
144(6) . . .
151(7) . . .
133(6) . . .
136(6) . . .
150(7) . . .
152(7) . . .
159(7) . . .
138(6) . . .
142(7) . . .
137(6) . . .
163(7) . . .
149(6) . . .
143(6) . . .
149(7) . . .
152(7) . . .
137(6) . . .
146(6) . . .
145(6) . . .
156(7) . . .
142(6) . . .
148(6) . . .
136(6) . . .
118(6) . . .
143(6) . . .
151(7) . . .
154(7) . . .
134(6) . . .
141(6) . . .
152(7) . . .
165(7) . . .
145(6) . . .
143(6) . . .
156(7) . . .
136(6) . . .
144(7) . . .
151(7) . . .
142(6) . . .
133(6) . . .
144(6) . . .
146(7) . . .
135(6) . . .
147(6) . . .
142(6) . . .
139(6) . . .
143(6) . . .
134(6) . . .
145(6) . . .
158(7) . . .
143(6) . . .
144(6) . . .
129(6) . . .
134(6) . . .
148(7) . . .
138(6) . . .
137(6) . . .
156(7) . . .
125(6) . . .
147(7) . . .
123(6) . . .
131(6) . . .
144(6) . . .
141(6) . . .
145(6) . . .
150(7) . . .
146(6) . . .
136(6) . . .
141(6) . . .
133(6) . . .
143(7) . . .
150(6) . . .
153(7) . . .
141(6) . . .
138(6) . . .
139(7) . . .
142(6) . . .
162(7) . . .
150(6) . . .
139(6) . . .
155(7) . . .
150(7) . . .
130(6) . . .
141(6) . . .
144(6) . . .
146(7) . . .
140(6) . . .
132(6) . . .
145(6) . . .
152(7) . . .
157(7) . . .
155(7) . . .
151(6) . . .
144(7) . . .
139(6) . . .
134(6) . . .
151(7) . . .
135(6) . . .
144(6) . . .
149(7) . . .
135(6) . . .
140(6) . . .
150(6) . . .
127(6) . . .
157(7) . . .
153(7) . . .
135(6) . . .
141(6) . . .
143(6) . . .
137(7) . . .
153(7) . . .
135(6) . . .
156(7) . . .
155(7) . . .
136(6) . . .
141(6) . . .
137(6) . . .
137(6) . . .
125(6) . . .
142(7) . . .
132(6) . . .
140(6) . . .
155(6) . . .
157(7) . . .
150(7) . . .
160(7) . . .
156(7) . . .
144(6) . . .
130(6) . . .
132(6) . . .
148(6) . . .
137(6) . . .
137(6) . . .
145(6) . . .
142(6) . . .
146(7) . . .
170(7) . . .
149(6) . . .
147(7) . . .
137(6) . . .
160(7) . . .
158(7) . . .
148(6) . . .
155(7) . . .
161(7) . . .
141(6) . . .
156(6) . . .
168(7) . . .
160(7) . . .
137(6) . . .
146(6) . . .
135(6) . . .
174(7) . . .
148(6) . . .
163(7) . . .
155(6) . . .
157(6) . . .
148(7) . . .
144(7) . . .
158(7) . . .
156(7) . . .
138(6) . . .
155(7) . . .
144(7) . . .
130(6) . . .
138(6) . . .
147(6) . . .
152(7) . . .
150(7) . . .
155(7) . . .
159(7) . . .
145(6) . . .
160(7) . . .
156(7) . . .
140(6) . . .
154(6) . . .
149(6) . . .
145(6) . . .
150(7) . . .
146(6) . . .
142(6) . . .
152(6) . . .
166(7) . . .
155(7) . . .
149(7) . . .
146(6) . . .
150(7) . . .
132(6) . . .
142(7) . . .
149(6) . . .
144(6) . . .
155(7) . . .
144(6) . . .
163(7) . . .
150(7) . . .
152(6) . . .
149(6) . . .
162(7) . . .
157(7) . . .
172(7) . . .
162(7) . . .
155(7) . . .
151(7) . . .
164(7) . . .
144(6) . . .
147(6) . . .
149(7) . . .
146(7) . . .
163(7) . . .
170(7) . . .
157(7) . . .
147(7) . . .
143(6) . . .
164(7) . . .
153(6) . . .
153(6) . . .
158(7) . . .
165(7) . . .
153(6) . . .
154(7) . . .
146(6) . . .
136(6) . . .
150(7) . . .
157(7) . . .
152(6) . . .
152(6) . . .
134(6) . . .
150(7) . . .
141(6) . . .
148(6) . . .
144(6) . . .
152(7) . . .
133(6) . . .
151(7) . . .
136(6) . . .
145(6) . . .
149(6) . . .
153(7) . . .
157(7) . . .
143(6) . . .
141(6) . . .
139(6) . . .
153(7) . . .
164(7) . . .
151(6) . . .
149(7) . . .
137(6) . . .
139(6) . . .
162(7) . . .
140(6) . . .
134(6) . . .
151(7) . . .
160(7) . . .
139(6) . . .
127(6) . . .
140(6) . . .
146(7) . . .
144(7) . . .
130(6) . . .
133(6) . . .
159(7) . . .
147(7) . . .
139(6) . . .
153(7) . . .
133(6) . . .
148(6) . . .
143(7) . . .
149(6) . . .
158(7) . . .
154(7) . . .
146(7) . . .
153(7) . . .
160(7) . . .
140(6) . . .
144(6) . . .
135(6) . . .
138(7) . . .
134(6) . . .
139(6) . . .
139(6) . . .
142(6) . . .
142(6) . . .
150(7) . . .
137(6) . . .
150(6) . . .
140(6) . . .
149(7) . . .
156(7) . . .
152(6) . . .
157(7) . . .
148(7) . . .
149(7) . . .
137(6) . . .
138(6) . . .
118(6) . . .
143(7) . . .
134(6) . . .
142(7) . . .
142(6) . . .
131(6) . . .
134(6) . . .
162(7) . . .
141(6) . . .
135(6) . . .
152(7) . . .
151(7) . . .
161(7) . . .
147(6) . . .
145(6) . . .
145(7) . . .
130(6) . . .
149(6) . . .
152(6) . . .
134(6) . . .
149(7) . . .
128(6) . . .
140(6) . . .
158(7) . . .
144(6) . . .
150(7) . . .
130(6) . . .
153(7) . . .
161(7) . . .
142(6) . . .
141(6) . . .
152(7) . . .
145(6) . . .
177(7) . . .
153(6) . . .
150(7) . . .
142(7) . . .
152(7) . . .
139(6) . . .
151(6) . . .
133(6) . . .
140(7) . . .
157(7) . . .
160(7) . . .
149(6) . . .
146(7) . . .
149(7) . . .
130(6) . . .
135(6) . . .
144(6) . . .
155(7) . . .
159(7) . . .
146(6) . . .
145(6) . . .
141(6) . . .
150(7) . . .
147(7) . . .
140(6) . . .
144(6) . . .
135(6) . . .
136(6) . . .
141(6) . . .
144(6) . . .
170(7) . . .
151(7) . . .
137(6) . . .
148(7) . . .
142(6) . . .
150(6) . . .
162(7) . . .
146(7) . . .
135(6) . . .
143(6) . . .
152(6) . . .
139(6) . . .
146(7) . . .
146(6) . . .
160(7) . . .
142(6) . . .
145(7) . . .
131(6) . . .
168(7) . . .
144(6) . . .
139(6) . . .
156(7) . . .
148(7) . . .
140(6) . . .
134(6) . . .
135(6) . . .
151(7) . . .
156(7) . . .
164(7) . . .
130(6) . . .
141(6) . . .
141(6) . . .
141(6) . . .
145(7) . . .
145(6) . . .
144(6) . . .
135(6) . . .
151(7) . . .
152(7) . . .
143(6) . . .
156(7) . . .
142(6) . . .
153(7) . . .
158(7) . . .
139(6) . . .
144(6) . . .
148(7) . . .
126(6) . . .
145(6) . . .
143(6) . . .
137(6) . . .
139(6) . . .
136(6) . . .
154(6) . . .
147(6) . . .
138(7) . . .
134(6) . . .
148(7) . . .
152(7) . . .
157(7) . . .
137(6) . . .
136(6) . . .
135(6) . . .
144(6) . . .
154(6) . . .
146(6) . . .
133(6) . . .
130(6) . . .
160(7) . . .
136(6) . . .
139(6) . . .
146(7) . . .
158(7) . . .
151(6) . . .
155(7) . . .
142(7) . . .
131(6) . . .
143(7) . . .
138(6) . . .
149(6) . . .
150(7) . . .
140(7) . . .
153(7) . . .
151(6) . . .
118(6) . . .
123(6) . . .
134(6) . . .
148(6) . . .
146(6) . . .
137(6) . . .
152(7) . . .
127(6) . . .
133(6) . . .
143(6) . . .
149(6) . . .
148(7) . . .
143(6) . . .
138(6) . . .
138(6) . . .
138(6) . . .
125(6) . . .
156(7) . . .
144(6) . . .
131(6) . . .
136(6) . . .
154(7) . . .
148(7) . . .
124(6) . . .
129(6) . . .
134(6) . . .
124(6) . . .
149(7) . . .
129(6) . . .
143(6) . . .
147(6) . . .
148(7) . . .
138(6) . . .
146(6) . . .
139(6) . . .
135(6) . . .
152(7) . . .
160(7) . . .
139(6) . . .
147(6) . . .
142(7) . . .
144(7) . . .
141(6) . . .
129(6) . . .
134(6) . . .
128(6) . . .
134(6) . . .
153(7) . . .
136(6) . . .
127(6) . . .
140(7) . . .
139(7) . . .
130(6) . . .
151(6) . . .
143(6) . . .
148(7) . . .
154(7) . . .
154(7) . . .
149(6) . . .
123(6) . . .
151(7) . . .
138(6) . . .
143(6) . . .
130(6) . . .
121(6) . . .
139(6) . . .
140(6) . . .
142(6) . . .
133(6) . . .
146(6) . . .
144(7) . . .
149(7) . . .
144(6) . . .
136(6) . . .
155(7) . . .
132(6) . . .
135(6) . . .
135(6) . . .
148(6) . . .
149(7) . . .
145(7) . . .
147(7) . . .
149(6) . . .
141(6) . . .
146(6) . . .
145(7) . . .
138(6) . . .
131(6) . . .
151(6) . . .
150(7) . . .
131(6) . . .
135(6) . . .
147(6) . . .
138(6) . . .
123(6) . . .
157(7) . . .
149(6) . . .
141(6) . . .
146(6) . . .
149(6) . . .
136(7) . . .
136(6) . . .
139(6) . . .
149(6) . . .
133(6) . . .
133(6) . . .
142(6) . . .
140(6) . . .
129(6) . . .
140(6) . . .
137(6) . . .
143(6) . . .
132(6) . . .
144(6) . . .
126(6) . . .
142(6) . . .
145(6) . . .
143(6) . . .
141(6) . . .
125(6) . . .
126(6) . . .
150(6) . . .
150(6) . . .
159(7) . . .
135(6) . . .
121(6) . . .
126(6) . . .
136(6) . . .
133(6) . . .
131(6) . . .
151(7) . . .
149(6) . . .
128(6) . . .
123(6) . . .
145(7) . . .
133(6) . . .
131(6) . . .
142(6) . . .
138(6) . . .
137(7) . . .
133(6) . . .
130(6) . . .
154(7) . . .
134(6) . . .
137(7) . . .
146(7) . . .
137(6) . . .
143(6) . . .
143(6) . . .
136(7) . . .
111(6) . . .
131(6) . . .
140(6) . . .
151(7) . . .
148(7) . . .
163(7) . . .
138(6) . . .
143(6) . . .
139(7) . . .
146(7) . . .
139(6) . . .
141(6) . . .
142(6) . . .
126(6) . . .
145(7) . . .
127(6) . . .
123(6) . . .
131(6) . . .
135(6) . . .
159(7) . . .
147(6) . . .
143(6) . . .
124(6) . . .
143(7) . . .
146(6) . . .
140(6) . . .
151(6) . . .
131(6) . . .
148(7) . . .
133(6) . . .
137(6) . . .
133(6) . . .
150(7) . . .
136(6) . . .
143(6) . . .
135(6) . . .
140(6) . . .
125(6) . . .
132(6) . . .
143(7) . . .
140(6) . . .
139(6) . . .
132(6) . . .
141(7) . . .
123(6) . . .
143(6) . . .
142(6) . . .
137(6) . . .
139(6) . . .
164(7) . . .
137(6) . . .
139(6) . . .
128(6) . . .
150(7) . . .
145(6) . . .
153(6) . . .
136(6) . . .
136(6) . . .
141(6) . . .
142(6) . . .
146(6) . . .
142(6) . . .
147(7) . . .
137(6) . . .
128(6) . . .
153(6) . . .
129(6) . . .
140(6) . . .
154(7) . . .
164(7) . . .
139(6) . . .
141(7) . . .
130(6) . . .
126(6) . . .
130(6) . . .
133(6) . . .
136(6) . . .
125(6) . . .
156(7) . . .
151(6) . . .
142(6) . . .
136(6) . . .
137(6) . . .
141(6) . . .
140(6) . . .
146(6) . . .
150(7) . . .
143(7) . . .
162(7) . . .
138(6) . . .
145(6) . . .
143(6) . . .
136(7) . . .
139(6) . . .
134(6) . . .
134(6) . . .
137(6) . . .
142(7) . . .
132(6) . . .
145(6) . . .
132(6) . . .
128(6) . . .
126(6) . . .
137(6) . . .
140(6) . . .
143(6) . . .
153(7) . . .
138(6) . . .
137(6) . . .
135(6) . . .
145(6) . . .
131(6) . . .
144(7) . . .
152(7) . . .
147(6) . . .
146(6) . . .
150(7) . . .
136(6) . . .
131(6) . . .
135(6) . . .
151(7) . . .
122(6) . . .
123(6) . . .
130(6) . . .
122(6) . . .
150(7) . . .
141(6) . . .
129(6) . . .
136(6) . . .
131(6) . . .
156(7) . . .
131(7) . . .
114(6) . . .
122(6) . . .
129(6) . . .
128(6) . . .
121(6) . . .
131(6) . . .
131(6) . . .
141(6) . . .
150(7) . . .
149(7) . . .
139(6) . . .
149(6) . . .
139(6) . . .
132(6) . . .
145(7) . . .
142(6) . . .
140(6) . . .
129(6) . . .
143(6) . . .
141(7) . . .
128(6) . . .
138(6) . . .
121(6) . . .
138(6) . . .
137(6) . . .
140(6) . . .
140(6) . . .
146(6) . . .
141(6) . . .
140(6) . . .
153(7) . . .
136(6) . . .
133(6) . . .
127(6) . . .
131(6) . . .
132(6) . . .
128(6) . . .
132(6) . . .
126(6) . . .
142(6) . . .
152(6) . . .
136(6) . . .
152(7) . . .
133(6) . . .
145(6) . . .
142(6) . . .
137(6) . . .
147(7) . . .
147(7) . . .
154(7) . . .
145(6) . . .
141(6) . . .
155(7) . . .
134(7) . . .
138(6) . . .
133(6) . . .
145(6) . . .
150(7) . . .
146(7) . . .
154(7) . . .
135(6) . . .
143(6) . . .
128(6) . . .
161(7) . . .
153(7) . . .
145(6) . . .
156(6) . . .
135(6) . . .
134(6) . . .
136(6) . . .
139(6) . . .
140(6) . . .
141(6) . . .
147(6) . . .
134(6) . . .
136(6) . . .
128(6) . . .
124(6) . . .
136(6) . . .
145(6) . . .
146(6) . . .
128(6) . . .
147(7) . . .
134(6) . . .
138(6) . . .
134(6) . . .
137(6) . . .
136(6) . . .
137(6) . . .
134(6) . . .
144(6) . . .
131(6) . . .
128(6) . . .
129(6) . . .
114(6) . . .
140(6) . . .
128(6) . . .
147(7) . . .
144(7) . . .
132(6) . . .
144(6) . . .
142(6) . . .
129(6) . . .
134(6) . . .
135(6) . . .
143(6) . . .
133(6) . . .
131(6) . . .
125(6) . . .
140(6) . . .
123(6) . . .
132(6) . . .
151(7) . . .
128(6) . . .
128(6) . . .
133(6) . . .
130(6) . . .
136(7) . . .
126(6) . . .
125(6) . . .
128(6) . . .
142(7) . . .
134(6) . . .
140(6) . . .
136(6) . . .
147(7) . . .
131(6) . . .
132(6) . . .
116(6) . . .
135(6) . . .
132(6) . . .
125(6) . . .
135(6) . . .
133(6) . . .
126(6) . . .
141(6) . . .
131(6) . . .
152(7) . . .
132(6) . . .
114(5) . . .
114(6) . . .
141(6) . . .
126(6) . . .
127(6) . . .
150(6) . . .
136(6) . . .
129(6) . . .
129(6) . . .
128(6) . . .
140(6) . . .
154(7) . . .
130(6) . . .
133(6) . . .
140(6) . . .
129(6) . . .
140(6) . . .
128(6) . . .
139(6) . . .
134(6) . . .
136(6) . . .
138(7) . . .
143(7) . . .
133(6) . . .
124(6) . . .
141(6) . . .
133(6) . . .
130(6) . . .
141(6) . . .
138(6) . . .
140(6) . . .
135(6) . . .
143(7) . . .
137(6) . . .
146(6) . . .
149(6) . . .
150(7) . . .
135(6) . . .
133(6) . . .
126(6) . . .
137(6) . . .
156(7) . . .
126(6) . . .
120(6) . . .
145(6) . . .
145(6) . . .
128(6) . . .
146(6) . . .
139(6) . . .
120(6) . . .
118(6) . . .
144(7) . . .
134(6) . . .
140(6) . . .
132(6) . . .
143(7) . . .
140(6) . . .
132(6) . . .
131(6) . . .
129(6) . . .
155(7) . . .
130(6) . . .
139(6) . . .
132(6) . . .
131(6) . . .
148(6) . . .
154(7) . . .
148(7) . . .
136(6) . . .
143(6) . . .
150(7) . . .
132(6) . . .
138(6) . . .
141(6) . . .
134(6) . . .
134(6) . . .
132(6) . . .
138(6) . . .
122(6) . . .
151(6) . . .
149(7) . . .
130(6) . . .
136(6) . . .
135(6) . . .
138(6) . . .
129(6) . . .
135(6) . . .
134(6) . . .
136(6) . . .
134(6) . . .
139(6) . . .
138(6) . . .
141(7) . . .
125(6) . . .
134(6) . . .
126(6) . . .
132(6) . . .
130(6) . . .
142(6) . . .
134(6) . . .
153(7) . . .
146(7) . . .
128(6) . . .
133(6) . . .
120(6) . . .
136(6) . . .
145(6) . . .
142(6) . . .
120(6) . . .
135(6) . . .
144(7) . . .
138(6) . . .
146(6) . . .
147(6) . . .
139(7) . . .
126(6) . . .
133(6) . . .
140(6) . . .
133(6) . . .
135(6) . . .
132(6) . . .
126(6) . . .
127(6) . . .
141(6) . . .
136(6) . . .
134(7) . . .
139(6) . . .
139(6) . . .
137(6) . . .
128(6) . . .
129(6) . . .
130(6) . . .
137(6) . . .
121(6) . . .
119(6) . . .
127(6) . . .
141(6) . . .
136(6) . . .
132(6) . . .
150(7) . . .
141(6) . . .
142(6) . . .
135(6) . . .
134(6) . . .
131(6) . . .
142(7) . . .
144(6) . . .
144(6) . . .
131(6) . . .
143(7) . . .
136(6) . . .
138(6) . . .
137(6) . . .
138(6) . . .
129(6) . . .
110(6) . . .
131(6) . . .
138(6) . . .
136(6) . . .
136(7) . . .
147(7) . . .
153(7) . . .
147(6) . . .
131(6) . . .
146(7) . . .
141(6) . . .
141(6) . . .
124(6) . . .
128(6) . . .
138(7) . . .
130(6) . . .
129(6) . . .
117(6) . . .
136(6) . . .
145(6) . . .
130(6) . . .
153(7) . . .
118(6) . . .
122(6) . . .
134(6) . . .
141(6) . . .
138(6) . . .
123(6) . . .
133(6) . . .
146(7) . . .
143(7) . . .
132(6) . . .
128(6) . . .
119(6) . . .
131(6) . . .
143(6) . . .
138(6) . . .
154(7) . . .
123(6) . . .
134(6) . . .
136(6) . . .
149(6) . . .
135(6) . . .
142(7) . . .
129(6) . . .
135(6) . . .
125(6) . . .
127(6) . . .
127(6) . . .
126(6) . . .
128(6) . . .
118(6) . . .
123(6) . . .
137(7) . . .
138(6) . . .
141(6) . . .
128(6) . . .
126(6) . . .
116(6) . . .
141(6) . . .
136(6) . . .
132(6) . . .
128(6) . . .
139(6) . . .
148(7) . . .
125(6) . . .
118(6) . . .
122(6) . . .
135(7) . . .
116(6) . . .
109(5) . . .
128(6) . . .
142(6) . . .
159(7) . . .
142(6) . . .
130(6) . . .
129(6) . . .
150(7) . . .
128(6) . . .
139(6) . . .
112(5) . . .
129(6) . . .
143(6) . . .
133(6) . . .
151(7) . . .
135(6) . . .
119(6) . . .
119(6) . . .
133(6) . . .
135(6) . . .
138(6) . . .
137(6) . . .
135(6) . . .
133(6) . . .
141(6) . . .
135(6) . . .
146(7) . . .
145(7) . . .
126(6) . . .
123(6) . . .
127(6) . . .
145(7) . . .
135(6) . . .
130(6) . . .
131(6) . . .
127(6) . . .
150(7) . . .
149(7) . . .
136(6) . . .
134(6) . . .
134(6) . . .
125(6) . . .
132(7) . . .
131(6) . . .
139(6) . . .
137(6) . . .
135(6) . . .
148(7) . . .
149(7) . . .
127(6) . . .
131(6) . . .
140(7) . . .
117(6) . . .
136(6) . . .
152(6) . . .
145(6) . . .
135(6) . . .
125(6) . . .
131(6) . . .
114(6) . . .
125(6) . . .
140(6) . . .
138(6) . . .
125(6) . . .
128(6) . . .
121(6) . . .
133(6) . . .
119(6) . . .
138(6) . . .
154(6) . . .
139(6) . . .
123(6) . . .
139(6) . . .
129(6) . . .
134(6) . . .
143(6) . . .
145(7) . . .
143(7) . . .
139(6) . . .
136(6) . . .
139(6) . . .
121(6) . . .
139(6) . . .
147(6) . . .
145(6) . . .
135(6) . . .
140(6) . . .
133(6) . . .
130(6) . . .
125(6) . . .
140(6) . . .
140(6) . . .
136(6) . . .
121(6) . . .
123(6) . . .
127(6) . . .
133(7) . . .
145(6) . . .
122(6) . . .
134(6) . . .
125(6) . . .
140(7) . . .
153(7) . . .
126(6) . . .
139(6) . . .
129(6) . . .
134(7) . . .
141(6) . . .
130(6) . . .
143(6) . . .
138(6) . . .
150(7) . . .
129(6) . . .
131(6) . . .
128(6) . . .
121(6) . . .
134(6) . . .
117(6) . . .
125(6) . . .
130(6) . . .
125(6) . . .
127(6) . . .
102(5) . . .
132(6) . . .
121(6) . . .
133(7) . . .
134(7) . . .
120(6) . . .
122(6) . . .
135(7) . . .
127(6) . . .
133(6) . . .
125(6) . . .
125(6) . . .
117(6) . . .
125(6) . . .
124(6) . . .
138(6) . . .
120(6) . . .
131(6) . . .
110(6) . . .
135(6) . . .
123(6) . . .
127(6) . . .
125(6) . . .
111(6) . . .
124(6) . . .
122(6) . . .
124(6) . . .
133(6) . . .
129(6) . . .
135(6) . . .
127(6) . . .
138(6) . . .
139(6) . . .
124(6) . . .
135(6) . . .
141(6) . . .
131(6) . . .
124(6) . . .
139(7) . . .
135(6) . . .
138(6) . . .
126(6) . . .
124(6) . . .
131(6) . . .
130(6) . . .
155(6) . . .
125(6) . . .
139(7) . . .
134(6) . . .
146(6) . . .
133(6) . . .
134(6) . . .
128(6) . . .
139(6) . . .
136(6) . . .
128(6) . . .
139(6) . . .
135(6) . . .
142(6) . . .
116(6) . . .
129(6) . . .
140(7) . . .
116(6) . . .
136(6) . . .
142(6) . . .
134(6) . . .
151(7) . . .
149(7) . . .
135(6) . . .
119(6) . . .
128(6) . . .
132(6) . . .
117(6) . . .
131(6) . . .
127(6) . . .
120(6) . . .
138(6) . . .
140(7) . . .
118(6) . . .
129(6) . . .
133(6) . . .
119(6) . . .
140(7) . . .
136(6) . . .
119(6) . . .
114(6) . . .
127(6) . . .
122(6) . . .
127(6) . . .
138(6) . . .
126(6) . . .
114(6) . . .
118(6) . . .
131(6) . . .
133(6) . . .
126(6) . . .
119(6) . . .
118(6) . . .
128(6) . . .
134(6) . . .
133(6) . . .
139(7) . . .
131(6) . . .
133(6) . . .
123(6) . . .
141(7) . . .
127(6) . . .
125(6) . . .
134(6) . . .
142(6) . . .
126(6) . . .
131(6) . . .
140(6) . . .
135(6) . . .
142(6) . . .
119(6) . . .
127(6) . . .
136(6) . . .
139(6) . . .
135(6) . . .
141(6) . . .
135(7) . . .
127(6) . . .
128(6) . . .
141(6) . . .
129(6) . . .
110(6) . . .
127(6) . . .
139(6) . . .
134(6) . . .
115(6) . . .
137(6) . . .
145(6) . . .
138(6) . . .
130(6) . . .
137(6) . . .
134(6) . . .
136(6) . . .
130(6) . . .
121(6) . . .
124(6) . . .
140(6) . . .
133(6) . . .
124(6) . . .
134(6) . . .
135(6) . . .
124(6) . . .
128(6) . . .
129(6) . . .
136(6) . . .
145(7) . . .
146(6) . . .
130(6) . . .
121(6) . . .
139(6) . . .
120(6) . . .
119(6) . . .
138(6) . . .
133(6) . . .
127(6) . . .
138(7) . . .
130(6) . . .
123(6) . . .
132(6) . . .
119(6) . . .
125(6) . . .
129(6) . . .
131(6) . . .
127(6) . . .
145(6) . . .
134(7) . . .
120(6) . . .
118(6) . . .
121(6) . . .
133(6) . . .
111(6) . . .
124(6) . . .
125(6) . . .
123(6) . . .
125(6) . . .
131(6) . . .
122(6) . . .
137(6) . . .
133(6) . . .
132(6) . . .
138(6) . . .
143(6) . . .
145(6) . . .
124(6) . . .
126(6) . . .
123(6) . . .
125(6) . . .
131(6) . . .
133(6) . . .
129(6) . . .
139(6) . . .
123(6) . . .
124(6) . . .
132(6) . . .
117(6) . . .
129(6) . . .
138(6) . . .
130(6) . . .
122(6) . . .
135(6) . . .
137(6) . . .
121(6) . . .
136(6) . . .
135(6) . . .
151(7) . . .
125(6) . . .
129(6) . . .
123(6) . . .
136(6) . . .
142(7) . . .
133(6) . . .
115(6) . . .
117(6) . . .
127(6) . . .
126(6) . . .
122(6) . . .
118(6) . . .
128(6) . . .
121(6) . . .
135(7) . . .
137(6) . . .
139(6) . . .
142(6) . . .
128(6) . . .
129(6) . . .
128(6) . . .
144(6) . . .
141(6) . . .
133(6) . . .
149(7) . . .
141(6) . . .
136(6) . . .
129(6) . . .
134(6) . . .
133(6) . . .
120(6) . . .
138(6) . . .
142(6) . . .
129(6) . . .
126(6) . . .
127(6) . . .
121(6) . . .
138(6) . . .
127(6) . . .
128(6) . . .
137(6) . . .
129(6) . . .
120(6) . . .
127(6) . . .
137(6) . . .
127(6) . . .
128(6) . . .
135(6) . . .
140(6) . . .
141(6) . . .
133(6) . . .
133(6) . . .
140(6) . . .
140(6) . . .
132(6) . . .
131(6) . . .
131(6) . . .
129(6) . . .
122(6) . . .
134(6) . . .
137(6) . . .
142(6) . . .
110(6) . . .
121(6) . . .
132(6) . . .
130(6) . . .
139(6) . . .
138(6) . . .
152(7) . . .
140(6) . . .
137(6) . . .
144(6) . . .
132(6) . . .
123(6) . . .
121(6) . . .
139(6) . . .
129(6) . . .
137(6) . . .
120(6) . . .
123(6) . . .
127(6) . . .
143(6) . . .
124(6) . . .
132(6) . . .
133(6) . . .
131(6) . . .
123(6) . . .
140(7) . . .
128(6) . . .
143(6) . . .
134(6) . . .
129(6) . . .
132(6) . . .
142(7) . . .
127(6) . . .
133(6) . . .
132(6) . . .
141(7) . . .
119(6) . . .
125(6) . . .
131(6) . . .
117(6) . . .
138(7) . . .
131(6) . . .
111(5) . . .
122(6) . . .
125(6) . . .
123(6) . . .
118(6) . . .
140(6) . . .
146(6) . . .
143(7) . . .
133(6) . . .
141(7) . . .
137(6) . . .
144(6) . . .
131(6) . . .
136(6) . . .
134(6) . . .
124(6) . . .
121(6) . . .
133(6) . . .
120(6) . . .
133(6) . . .
135(6) . . .
134(6) . . .
135(6) . . .
131(6) . . .
137(6) . . .
136(6) . . .
130(6) . . .
135(6) . . .
132(6) . . .
149(7) . . .
132(6) . . .
132(6) . . .
128(6) . . .
119(6) . . .
154(7) . . .
133(6) . . .
144(6) . . .
140(6) . . .
136(6) . . .
134(6) . . .
122(6) . . .
126(6) . . .
125(6) . . .
128(6) . . .
137(6) . . .
135(6) . . .
139(6) . . .
131(6) . . .
125(6) . . .
129(6) . . .
127(6) . . .
139(6) . . .
125(6) . . .
136(6) . . .
124(6) . . .
145(6) . . .
128(6) . . .
127(6) . . .
129(6) . . .
131(6) . . .
123(6) . . .
132(6) . . .
117(6) . . .
134(6) . . .
116(6) . . .
135(6) . . .
137(6) . . .
125(6) . . .
112(6) . . .
132(6) . . .
125(6) . . .
140(6) . . .
121(6) . . .
132(6) . . .
123(6) . . .
134(6) . . .
138(6) . . .
128(6) . . .
134(6) . . .
138(6) . . .
134(6) . . .
135(6) . . .
120(6) . . .
136(6) . . .
130(6) . . .
136(6) . . .
126(6) . . .
126(6) . . .
126(6) . . .
135(6) . . .
135(6) . . .
137(6) . . .
129(6) . . .
130(6) . . .
136(6) . . .
138(6) . . .
135(6) . . .
140(6) . . .
127(6) . . .
126(6) . . .
116(6) . . .
125(6) . . .
125(6) . . .
128(6) . . .
141(6) . . .
126(6) . . .
121(6) . . .
116(6) . . .
125(6) . . .
129(6) . . .
126(6) . . .
134(7) . . .
130(6) . . .
128(6) . . .
134(6) . . .
129(6) . . .
117(6) . . .
126(6) . . .
119(6) . . .
130(6) . . .
131(6) . . .
122(6) . . .
131(6) . . .
116(6) . . .
115(6) . . .
119(6) . . .
111(6) . . .
121(6) . . .
135(6) . . .
118(6) . . .
137(6) . . .
130(6) . . .
123(6) . . .
123(6) . . .
131(6) . . .
138(6) . . .
124(6) . . .
136(6) . . .
135(6) . . .
136(6) . . .
130(6) . . .
117(6) . . .
129(6) . . .
138(6) . . .
118(6) . . .
129(6) . . .
127(6) . . .
125(6) . . .
124(6) . . .
112(6) . . .
136(6) . . .
136(6) . . .
143(6) . . .
137(6) . . .
137(6) . . .
127(6) . . .
135(6) . . .
118(6) . . .
130(6) . . .
129(6) . . .
139(7) . . .
123(6) . . .
103(5) . . .
118(6) . . .
123(6) . . .
126(6) . . .
134(6) . . .
113(6) . . .
124(6) . . .
102(5) . . .
141(7) . . .
139(6) . . .
122(6) . . .
113(6) . . .
126(6) . . .
119(6) . . .
113(6) . . .
121(6) . . .
122(6) . . .
128(6) . . .
122(6) . . .
128(6) . . .
115(6) . . .
123(6) . . .
133(6) . . .
121(6) . . .
129(6) . . .
126(6) . . .
117(6) . . .
132(6) . . .
147(7) . . .
122(6) . . .
132(6) . . .
135(6) . . .
128(6) . . .
126(6) . . .
127(6) . . .
125(6) . . .
127(6) . . .
128(6) . . .
139(7) . . .
129(6) . . .
122(6) . . .
141(6) . . .
125(6) . . .
120(6) . . .
139(6) . . .
128(6) . . .
131(6) . . .
127(6) . . .
122(6) . . .
123(6) . . .
123(6) . . .
130(6) . . .
128(6) . . .
117(6) . . .
115(6) . . .
116(6) . . .
123(6) . . .
128(6) . . .
114(6) . . .
140(6) . . .
120(6) . . .
114(6) . . .
112(6) . . .
117(6) . . .
126(6) . . .
121(6) . . .
134(6) . . .
120(6) . . .
122(6) . . .
121(6) . . .
118(6) . . .
126(6) . . .
115(6) . . .
121(6) . . .
110(5) . . .
113(6) . . .
135(6) . . .
114(6) . . .
131(6) . . .
133(6) . . .
136(6) . . .
131(6) . . .
124(6) . . .
125(6) . . .
127(6) . . .
137(6) . . .
139(7) . . .
132(6) . . .
122(6) . . .
114(6) . . .
121(6) . . .
127(6) . . .
134(6) . . .
125(6) . . .
131(6) . . .
132(6) . . .
136(6) . . .
135(6) . . .
125(6) . . .
128(6) . . .
114(6) . . .
126(6) . . .
121(6) . . .
127(6) . . .
112(5) . . .
116(6) . . .
120(6) . . .
121(6) . . .
124(6) . . .
122(6) . . .
132(6) . . .
121(6) . . .
135(7) . . .
118(6) . . .
121(6) . . .
120(6) . . .
122(6) . . .
125(6) . . .
139(6) . . .
131(6) . . .
132(6) . . .
134(6) . . .
125(6) . . .
127(6) . . .
138(6) . . .
135(6) . . .
126(6) . . .
125(6) . . .
125(6) . . .
132(6) . . .
140(6) . . .
122(6) . . .
119(6) . . .
138(6) . . .
123(6) . . .
116(6) . . .
109(5) . . .
127(6) . . .
147(6) . . .
120(6) . . .
139(7) . . .
132(6) . . .
135(6) . . .
142(6) . . .
121(6) . . .
120(6) . . .
126(6) . . .
125(6) . . .
124(6) . . .
125(6) . . .
110(6) . . .
112(6) . . .
141(6) . . .
117(6) . . .
136(6) . . .
125(6) . . .
124(6) . . .
130(6) . . .
118(6) . . .
118(6) . . .
134(6) . . .
132(6) . . .
129(6) . . .
109(5) . . .
124(6) . . .
119(6) . . .
128(6) . . .
138(6) . . .
134(6) . . .
134(6) . . .
135(6) . . .
125(6) . . .
115(6) . . .
126(6) . . .
114(6) . . .
129(6) . . .
105(5) . . .
130(6) . . .
132(6) . . .
123(6) . . .
124(6) . . .
113(6) . . .
139(6) . . .
120(6) . . .
114(6) . . .
115(6) . . .
126(6) . . .
115(6) . . .
123(6) . . .
134(6) . . .
116(6) . . .
129(6) . . .
113(6) . . .
123(6) . . .
114(6) . . .
120(6) . . .
127(6) . . .
129(6) . . .
130(6) . . .
127(6) . . .
114(6) . . .
124(6) . . .
122(6) . . .
120(6) . . .
115(6) . . .
127(6) . . .
123(6) . . .
113(6) . . .
124(6) . . .
118(6) . . .
140(6) . . .
129(6) . . .
124(6) . . .
128(6) . . .
129(6) . . .
123(6) . . .
115(6) . . .
112(6) . . .
120(6) . . .
121(6) . . .
117(6) . . .
116(6) . . .
121(6) . . .
136(6) . . .
136(7) . . .
106(5) . . .
121(6) . . .
122(6) . . .
125(6) . . .
121(6) . . .
120(6) . . .
119(6) . . .
120(6) . . .
114(6) . . .
117(6) . . .
123(6) . . .
112(6) . . .
131(6) . . .
115(6) . . .
131(6) . . .
108(5) . . .
121(6) . . .
133(6) . . .
119(6) . . .
116(6) . . .
131(6) . . .
122(6) . . .
114(6) . . .
129(6) . . .
115(6) . . .
139(6) . . .
113(6) . . .
123(6) . . .
129(6) . . .
116(6) . . .
121(6) . . .
113(6) . . .
129(6) . . .
130(6) . . .
129(6) . . .
133(6) . . .
123(6) . . .
125(6) . . .
110(6) . . .
120(6) . . .
130(6) . . .
121(6) . . .
112(6) . . .
113(6) . . .
129(6) . . .
143(6) . . .
122(6) . . .
132(6) . . .
120(6) . . .
125(6) . . .
117(6) . . .
131(6) . . .
119(6) . . .
126(7) . . .
126(6) . . .
101(5) . . .
122(6) . . .
128(6) . . .
124(6) . . .
121(6) . . .
130(6) . . .
134(6) . . .
126(6) . . .
139(6) . . .
131(6) . . .
118(6) . . .
124(6) . . .
140(7) . . .
131(6) . . .
131(6) . . .
126(6) . . .
121(6) . . .
128(6) . . .
127(6) . . .
114(6) . . .
141(6) . . .
119(6) . . .
125(6) . . .
121(6) . . .
118(6) . . .
119(6) . . .
126(6) . . .
120(6) . . .
126(6) . . .
109(5) . . .
124(6) . . .
121(6) . . .
131(6) . . .
119(6) . . .
128(6) . . .
124(6) . . .
123(6) . . .
113(6) . . .
127(6) . . .
114(6) . . .
111(6) . . .
125(6) . . .
109(6) . . .
124(6) . . .
115(6) . . .
125(6) . . .
122(6) . . .
101(5) . . .
110(5) . . .
125(6) . . .
129(6) . . .
135(6) . . .
123(6) . . .
142(6) . . .
130(6) . . .
128(6) . . .
118(6) . . .
134(6) . . .
138(6) . . .
123(6) . . .
123(6) . . .
131(6) . . .
120(6) . . .
119(6) . . .
113(5) . . .
120(6) . . .
121(6) . . .
115(6) . . .
135(6) . . .
125(6) . . .
120(6) . . .
116(6) . . .
124(6) . . .
114(6) . . .
122(6) . . .
129(6) . . .
123(6) . . .
123(6) . . .
122(6) . . .
121(6) . . .
103(5) . . .
119(6) . . .
135(6) . . .
116(6) . . .
138(6) . . .
137(6) . . .
120(6) . . .
133(6) . . .
120(6) . . .
125(6) . . .
116(6) . . .
120(6) . . .
137(6) . . .
119(6) . . .
125(6) . . .
118(6) . . .
122(6) . . .
128(6) . . .
114(6) . . .
123(6) . . .
122(6) . . .
129(6) . . .
124(6) . . .
119(6) . . .
126(6) . . .
122(6) . . .
118(6) . . .
106(5) . . .
98(5) . . .
127(6) . . .
132(6) . . .
107(5) . . .
101(5) . . .
127(6) . . .
131(6) . . .
124(6) . . .
115(6) . . .
122(6) . . .
104(5) . . .
119(6) . . .
117(6) . . .
124(6) . . .
118(6) . . .
121(6) . . .
125(6) . . .
120(6) . . .
117(6) . . .
120(6) . . .
151(7) . . .
140(6) . . .
129(6) . . .
119(6) . . .
120(6) . . .
106(5) . . .
114(6) . . .
105(6) . . .
125(6) . . .
113(6) . . .
117(6) . . .
116(6) . . .
126(6) . . .
125(6) . . .
128(6) . . .
114(6) . . .
104(5) . . .
127(6) . . .
134(6) . . .
115(6) . . .
111(6) . . .
139(7) . . .
124(6) . . .
130(6) . . .
118(6) . . .
114(6) . . .
129(6) . . .
128(6) . . .
132(6) . . .
124(6) . . .
119(6) . . .
114(6) . . .
126(6) . . .
127(6) . . .
114(6) . . .
121(6) . . .
130(6) . . .
111(6) . . .
128(6) . . .
128(6) . . .
129(6) . . .
126(7) . . .
129(6) . . .
131(6) . . .
128(6) . . .
131(6) . . .
133(6) . . .
121(6) . . .
117(6) . . .
117(6) . . .
119(6) . . .
116(6) . . .
123(6) . . .
112(6) . . .
105(5) . . .
112(6) . . .
119(6) . . .
126(6) . . .
112(5) . . .
110(6) . . .
107(6) . . .
127(6) . . .
120(6) . . .
118(6) . . .
131(6) . . .
116(6) . . .
103(6) . . .
113(6) . . .
123(6) . . .
117(6) . . .
117(6) . . .
111(5) . . .
109(5) . . .
113(5) . . .
130(6) . . .
108(6) . . .
129(6) . . .
110(5) . . .
111(5) . . .
124(6) . . .
131(6) . . .
112(6) . . .
110(5) . . .
115(6) . . .
113(6) . . .
115(6) . . .
111(6) . . .
129(6) . . .
130(6) . . .
119(6) . . .
109(6) . . .
105(5) . . .
120(6) . . .
112(5) . . .
128(6) . . .
120(6) . . .
125(6) . . .
108(5) . . .
111(6) . . .
117(6) . . .
114(6) . . .
122(6) . . .
115(6) . . .
115(6) . . .
107(5) . . .
113(6) . . .
122(6) . . .
131(6) . . .
124(6) . . .
132(6) . . .
115(6) . . .
126(6) . . .
121(6) . . .
124(6) . . .
125(6) . . .
106(6) . . .
112(6) . . .
120(6) . . .
115(6) . . .
126(6) . . .
114(6) . . .
115(6) . . .
110(5) . . .
108(6) . . .
115(6) . . .
123(6) . . .
121(6) . . .
115(6) . . .
111(6) . . .
125(6) . . .
117(6) . . .
122(6) . . .
116(6) . . .
113(6) . . .
114(6) . . .
125(6) . . .
104(5) . . .
114(5) . . .
109(5) . . .
134(6) . . .
111(6) . . .
111(6) . . .
107(5) . . .
115(6) . . .
126(6) . . .
110(6) . . .
114(6) . . .
116(6) . . .
114(6) . . .
116(6) . . .
126(6) . . .
121(6) . . .
130(6) . . .
123(6) . . .
130(6) . . .
123(6) . . .
131(6) . . .
114(6) . . .
120(6) . . .
115(6) . . .
114(6) . . .
117(6) . . .
112(6) . . .
116(6) . . .
113(6) . . .
132(6) . . .
139(6) . . .
116(6) . . .
114(6) . . .
121(6) . . .
116(6) . . .
118(6) . . .
122(6) . . .
116(6) . . .
125(6) . . .
120(6) . . .
118(6) . . .
110(6) . . .
115(6) . . .
115(6) . . .
123(6) . . .
121(6) . . .
110(6) . . .
135(7) . . .
123(6) . . .
113(6) . . .
114(6) . . .
119(6) . . .
110(6) . . .
126(6) . . .
129(6) . . .
112(5) . . .
129(6) . . .
120(6) . . .
115(6) . . .
109(5) . . .
116(6) . . .
117(6) . . .
123(6) . . .
118(6) . . .
112(6) . . .
128(6) . . .
119(6) . . .
114(6) . . .
113(6) . . .
107(5) . . .
129(6) . . .
125(6) . . .
125(6) . . .
124(6) . . .
118(6) . . .
118(6) . . .
119(6) . . .
114(6) . . .
108(6) . . .
118(6) . . .
111(6) . . .
127(6) . . .
136(6) . . .
122(6) . . .
123(6) . . .
109(6) . . .
115(6) . . .
101(5) . . .
119(6) . . .
107(5) . . .
117(6) . . .
112(6) . . .
128(6) . . .
129(6) . . .
109(6) . . .
123(6) . . .
124(6) . . .
121(6) . . .
137(6) . . .
129(6) . . .
107(5) . . .
121(6) . . .
114(6) . . .
128(6) . . .
119(6) . . .
115(6) . . .
133(6) . . .
133(6) . . .
129(6) . . .
118(6) . . .
117(6) . . .
123(6) . . .
114(6) . . .
110(5) . . .
115(6) . . .
127(6) . . .
113(6) . . .
126(6) . . .
118(6) . . .
105(5) . . .
123(6) . . .
139(6) . . .
129(6) . . .
116(6) . . .
116(6) . . .
113(6) . . .
118(6) . . .
112(6) . . .
112(5) . . .
120(6) . . .
126(6) . . .
121(6) . . .
112(6) . . .
113(6) . . .
131(6) . . .
116(6) . . .
109(5) . . .
119(6) . . .
111(6) . . .
99(5) . . .
126(6) . . .
112(6) . . .
118(6) . . .
113(6) . . .
117(6) . . .
118(6) . . .
121(6) . . .
131(6) . . .
130(6) . . .
128(6) . . .
110(6) . . .
115(6) . . .
115(6) . . .
114(6) . . .
122(6) . . .
133(6) . . .
131(6) . . .
124(6) . . .
127(6) . . .
117(6) . . .
113(6) . . .
119(6) . . .
115(6) . . .
122(6) . . .
111(6) . . .
111(6) . . .
125(6) . . .
106(5) . . .
117(6) . . .
118(6) . . .
122(6) . . .
116(6) . . .
118(6) . . .
109(6) . . .
120(6) . . .
115(6) . . .
125(6) . . .
128(6) . . .
137(6) . . .
117(6) . . .
120(6) . . .
117(6) . . .
111(6) . . .
128(6) . . .
123(6) . . .
136(6) . . .
111(6) . . .
122(6) . . .
125(6) . . .
110(6) . . .
109(6) . . .
105(6) . . .
111(5) . . .
126(6) . . .
110(6) . . .
108(6) . . .
108(5) . . .
131(6) . . .
151(7) . . .
108(6) . . .
117(6) . . .
120(6) . . .
108(5) . . .
109(6) . . .
133(6) . . .
116(6) . . .
109(5) . . .
134(6) . . .
119(6) . . .
122(6) . . .
127(6) . . .
127(6) . . .
112(5) . . .
123(6) . . .
126(6) . . .
132(6) . . .
130(6) . . .
120(6) . . .
114(6) . . .
137(7) . . .
118(6) . . .
119(6) . . .
120(6) . . .
113(6) . . .
118(6) . . .
116(6) . . .
117(6) . . .
119(6) . . .
132(6) . . .
144(7) . . .
117(6) . . .
125(6) . . .
134(6) . . .
105(5) . . .
108(6) . . .
119(6) . . .
115(6) . . .
121(6) . . .
124(6) . . .
130(6) . . .
112(6) . . .
116(6) . . .
129(6) . . .
122(6) . . .
121(6) . . .
121(6) . . .
119(6) . . .
109(6) . . .
136(7) . . .
116(6) . . .
123(6) . . .
113(5) . . .
116(6) . . .
119(6) . . .
117(6) . . .
113(6) . . .
115(6) . . .
115(6) . . .
126(6) . . .
121(6) . . .
118(6) . . .
121(6) . . .
115(6) . . .
110(6) . . .
136(6) . . .
124(6) . . .
116(6) . . .
117(6) . . .
119(6) . . .
115(6) . . .
136(6) . . .
123(6) . . .
126(6) . . .
104(6) . . .
110(6) . . .
106(5) . . .
115(6) . . .
110(6) . . .
132(6) . . .
117(6) . . .
124(6) . . .
116(6) . . .
117(6) . . .
103(5) . . .
119(6) . . .
110(5) . . .
119(6) . . .
110(6) . . .
122(6) . . .
119(6) . . .
109(5) . . .
122(6) . . .
114(6) . . .
116(6) . . .
103(5) . . .
102(5) . . .
116(6) . . .
120(6) . . .
119(6) . . .
120(6) . . .
104(5) . . .
133(6) . . .
118(6) . . .
118(6) . . .
113(6) . . .
116(6) . . .
106(5) . . .
112(6) . . .
114(6) . . .
101(5) . . .
129(6) . . .
125(6) . . .
121(7) . . .
111(6) . . .
115(6) . . .
117(6) . . .
111(6) . . .
115(6) . . .
117(6) . . .
117(6) . . .
112(5) . . .
105(5) . . .
111(6) . . .
126(6) . . .
119(6) . . .
128(6) . . .
107(5) . . .
129(6) . . .
122(6) . . .
100(5) . . .
122(6) . . .
119(6) . . .
130(6) . . .
108(6) . . .
116(6) . . .
108(5) . . .
119(6) . . .
117(6) . . .
117(6) . . .
120(6) . . .
119(6) . . .
118(6) . . .
122(6) . . .
121(6) . . .
106(5) . . .
116(6) . . .
110(6) . . .
114(6) . . .
126(6) . . .
125(6) . . .
124(6) . . .
104(6) . . .
97(5) . . .
113(6) . . .
110(5) . . .
111(6) . . .
101(5) . . .
103(5) . . .
116(6) . . .
118(6) . . .
113(6) . . .
107(6) . . .
113(6) . . .
132(6) . . .
106(5) . . .
116(6) . . .
102(6) . . .
102(6) . . .
124(6) . . .
107(6) . . .
122(6) . . .
125(6) . . .
109(6) . . .
127(6) . . .
118(6) . . .
109(6) . . .
107(6) . . .
138(7) . . .
115(6) . . .
128(6) . . .
120(6) . . .
113(6) . . .
126(6) . . .
133(6) . . .
113(6) . . .
107(6) . . .
113(6) . . .
119(6) . . .
119(6) . . .
118(6) . . .
112(6) . . .
108(6) . . .
96(5) . . .
121(6) . . .
119(6) . . .
133(6) . . .
133(6) . . .
126(6) . . .
133(6) . . .
111(6) . . .
118(6) . . .
121(6) . . .
130(6) . . .
134(6) . . .
124(6) . . .
110(6) . . .
106(5) . . .
118(6) . . .
118(6) . . .
118(6) . . .
121(6) . . .
122(6) . . .
117(6) . . .
113(5) . . .
119(6) . . .
115(6) . . .
122(6) . . .
120(6) . . .
119(6) . . .
131(6) . . .
122(6) . . .
103(5) . . .
114(6) . . .
122(6) . . .
122(6) . . .
125(6) . . .
118(6) . . .
119(6) . . .
114(6) . . .
121(6) . . .
123(6) . . .
105(6) . . .
112(6) . . .
117(6) . . .
110(6) . . .
116(6) . . .
123(6) . . .
111(5) . . .
116(6) . . .
120(6) . . .
110(6) . . .
110(5) . . .
109(5) . . .
114(6) . . .
128(6) . . .
116(6) . . .
117(6) . . .
123(6) . . .
109(6) . . .
117(6) . . .
111(6) . . .
113(6) . . .
109(5) . . .
98(5) . . .
112(6) . . .
106(6) . . .
100(5) . . .
115(6) . . .
120(6) . . .
128(6) . . .
109(6) . . .
104(5) . . .
107(5) . . .
114(6) . . .
109(6) . . .
128(6) . . .
116(6) . . .
102(5) . . .
98(5) . . .
119(6) . . .
131(6) . . .
121(6) . . .
117(6) . . .
119(6) . . .
114(6) . . .
111(6) . . .
105(5) . . .
119(6) . . .
125(6) . . .
119(6) . . .
115(6) . . .
113(6) . . .
125(6) . . .
118(6) . . .
114(6) . . .
110(6) . . .
110(5) . . .
113(6) . . .
110(6) . . .
106(6) . . .
108(6) . . .
128(6) . . .
103(5) . . .
104(5) . . .
125(6) . . .
126(6) . . .
125(6) . . .
120(6) . . .
112(6) . . .
118(6) . . .
120(6) . . .
116(6) . . .
105(6) . . .
118(6) . . .
120(6) . . .
109(5) . . .
119(6) . . .
109(6) . . .
107(6) . . .
116(6) . . .
119(6) . . .
121(6) . . .
116(6) . . .
109(6) . . .
121(6) . . .
92(5) . . .
124(6) . . .
112(6) . . .
113(6) . . .
118(6) . . .
105(5) . . .
114(6) . . .
103(6) . . .
117(6) . . .
104(5) . . .
129(6) . . .
107(5) . . .
100(5) . . .
122(6) . . .
118(6) . . .
118(6) . . .
107(5) . . .
104(6) . . .
119(6) . . .
114(6) . . .
108(5) . . .
119(6) . . .
101(5) . . .
104(6) . . .
110(6) . . .
106(5) . . .
109(6) . . .
113(6) . . .
112(6) . . .
94(5) . . .
116(6) . . .
120(6) . . .
109(6) . . .
106(5) . . .
109(6) . . .
100(5) . . .
103(5) . . .
98(5) . . .
113(6) . . .
113(6) . . .
110(5) . . .
113(6) . . .
138(7) . . .
110(6) . . .
121(6) . . .
117(6) . . .
121(6) . . .
100(5) . . .
97(5) . . .
95(5) . . .
108(5) . . .
117(6) . . .
101(6) . . .
117(6) . . .
102(5) . . .
109(5) . . .
118(6) . . .
118(6) . . .
126(6) . . .
104(5) . . .
108(6) . . .
106(6) . . .
103(5) . . .
121(6) . . .
117(6) . . .
123(6) . . .
131(6) . . .
116(6) . . .
108(6) . . .
103(5) . . .
118(6) . . .
124(6) . . .
117(6) . . .
112(6) . . .
122(6) . . .
110(6) . . .
102(6) . . .
102(5) . . .
126(6) . . .
117(6) . . .
102(5) . . .
118(6) . . .
134(6) . . .
123(6) . . .
110(5) . . .
127(6) . . .
112(6) . . .
101(5) . . .
88(5) . . .
109(5) . . .
105(5) . . .
107(6) . . .
109(6) . . .
113(6) . . .
117(6) . . .
112(6) . . .
108(6) . . .
128(6) . . .
118(6) . . .
109(5) . . .
116(6) . . .
109(6) . . .
100(5) . . .
110(5) . . .
103(5) . . .
108(5) . . .
110(6) . . .
107(6) . . .
117(6) . . .
119(6) . . .
137(6) . . .
118(6) . . .
108(6) . . .
103(5) . . .
112(6) . . .
112(6) . . .
111(6) . . .
120(6) . . .
118(6) . . .
106(5) . . .
113(6) . . .
114(6) . . .
118(6) . . .
113(5) . . .
109(6) . . .
124(6) . . .
116(6) . . .
130(6) . . .
123(6) . . .
103(5) . . .
124(6) . . .
118(6) . . .
114(6) . . .
116(6) . . .
110(6) . . .
125(6) . . .
113(6) . . .
113(6) . . .
103(5) . . .
101(5) . . .
109(6) . . .
97(5) . . .
110(5) . . .
112(5) . . .
112(6) . . .
106(6) . . .
107(6) . . .
120(6) . . .
107(5) . . .
112(6) . . .
104(6) . . .
114(6) . . .
115(6) . . .
127(6) . . .
130(6) . . .
119(6) . . .
118(6) . . .
108(5) . . .
117(6) . . .
111(6) . . .
122(6) . . .
116(6) . . .
116(6) . . .
116(6) . . .
117(6) . . .
120(6) . . .
124(6) . . .
111(6) . . .
119(6) . . .
123(6) . . .
104(5) . . .
115(6) . . .
103(5) . . .
125(6) . . .
117(6) . . .
116(6) . . .
107(6) . . .
102(5) . . .
120(6) . . .
104(5) . . .
99(5) . . .
119(6) . . .
99(5) . . .
109(6) . . .
108(6) . . .
120(6) . . .
126(6) . . .
111(6) . . .
112(6) . . .
118(6) . . .
121(6) . . .
113(6) . . .
93(5) . . .
114(6) . . .
109(6) . . .
107(5) . . .
116(6) . . .
110(5) . . .
110(6) . . .
102(5) . . .
130(6) . . .
121(6) . . .
124(6) . . .
129(6) . . .
127(6) . . .
127(6) . . .
117(6) . . .
135(6) . . .
106(6) . . .
114(6) . . .
102(5) . . .
109(5) . . .
125(6) . . .
116(6) . . .
109(6) . . .
105(6) . . .
105(5) . . .
106(5) . . .
107(5) . . .
107(6) . . .
102(5) . . .
108(5) . . .
112(6) . . .
114(6) . . .
112(6) . . .
112(6) . . .
112(6) . . .
101(5) . . .
117(6) . . .
117(6) . . .
113(6) . . .
110(5) . . .
110(6) . . .
117(6) . . .
111(6) . . .
114(6) . . .
94(5) . . .
115(6) . . .
113(6) . . .
117(6) . . .
119(6) . . .
107(5) . . .
109(6) . . .
115(6) . . .
117(6) . . .
109(6) . . .
106(5) . . .
97(5) . . .
112(6) . . .
118(6) . . .
127(6) . . .
109(5) . . .
121(6) . . .
114(6) . . .
111(6) . . .
92(5) . . .
103(5) . . .
111(6) . . .
108(6) . . .
108(6) . . .
107(5) . . .
108(6) . . .
115(6) . . .
98(5) . . .
116(6) . . .
99(5) . . .
103(5) . . .
108(6) . . .
100(5) . . .
109(6) . . .
107(5) . . .
118(6) . . .
96(5) . . .
104(6) . . .
103(5) . . .
108(5) . . .
118(6) . . .
102(5) . . .
106(5) . . .
108(5) . . .
111(6) . . .
120(6) . . .
122(6) . . .
109(5) . . .
104(6) . . .
114(6) . . .
107(5) . . .
118(6) . . .
109(5) . . .
118(6) . . .
127(6) . . .
109(6) . . .
124(6) . . .
105(5) . . .
115(6) . . .
108(5) . . .
110(6) . . .
125(7) . . .
102(5) . . .
104(5) . . .
101(5) . . .
109(6) . . .
101(6) . . .
112(6) . . .
105(5) . . .
110(5) . . .
117(6) . . .
106(6) . . .
121(6) . . .
100(5) . . .
114(6) . . .
104(6) . . .
122(6) . . .
121(6) . . .
99(5) . . .
109(6) . . .
115(6) . . .
113(6) . . .
108(5) . . .
103(5) . . .
108(6) . . .
114(6) . . .
104(6) . . .
120(6) . . .
116(6) . . .
131(6) . . .
102(6) . . .
115(6) . . .
99(5) . . .
91(5) . . .
112(6) . . .
98(5) . . .
105(5) . . .
114(6) . . .
124(6) . . .
124(6) . . .
127(6) . . .
112(6) . . .
114(6) . . .
119(6) . . .
95(5) . . .
108(6) . . .
109(5) . . .
123(6) . . .
112(5) . . .
98(5) . . .
117(6) . . .
110(6) . . .
101(5) . . .
90(5) . . .
109(6) . . .
115(6) . . .
107(5) . . .
98(5) . . .
113(6) . . .
109(6) . . .
108(6) . . .
111(6) . . .
122(6) . . .
101(5) . . .
102(5) . . .
111(6) . . .
106(6) . . .
122(6) . . .
115(6) . . .
104(5) . . .
104(6) . . .
102(5) . . .
123(6) . . .
98(5) . . .
96(5) . . .
101(6) . . .
101(5) . . .
102(5) . . .
121(6) . . .
114(6) . . .
129(6) . . .
131(6) . . .
107(5) . . .
114(6) . . .
121(6) . . .
101(5) . . .
105(5) . . .
113(5) . . .
112(6) . . .
114(6) . . .
99(5) . . .
96(5) . . .
110(5) . . .
117(6) . . .
113(6) . . .
125(6) . . .
105(5) . . .
105(5) . . .
95(5) . . .
101(6) . . .
118(6) . . .
110(6) . . .
103(5) . . .
109(6) . . .
106(6) . . .
107(5) . . .
100(5) . . .
101(5) . . .
100(5) . . .
104(6) . . .
104(5) . . .
108(5) . . .
96(5) . . .
109(6) . . .
119(6) . . .
119(6) . . .
112(6) . . .
101(5) . . .
107(6) . . .
108(6) . . .
108(6) . . .
101(5) . . .
111(6) . . .
107(5) . . .
116(6) . . .
118(6) . . .
106(5) . . .
116(6) . . .
111(6) . . .
101(5) . . .
114(6) . . .
98(5) . . .
104(6) . . .
103(6) . . .
109(6) . . .
118(6) . . .
110(5) . . .
103(5) . . .
109(6) . . .
105(5) . . .
109(5) . . .
107(5) . . .
112(6) . . .
96(5) . . .
111(6) . . .
104(5) . . .
115(6) . . .
121(6) . . .
105(6) . . .
110(6) . . .
110(6) . . .
122(6) . . .
89(5) . . .
85(5) . . .
116(6) . . .
112(6) . . .
106(5) . . .
102(5) . . .
114(6) . . .
108(6) . . .
116(6) . . .
107(6) . . .
102(5) . . .
109(6) . . .
103(5) . . .
107(5) . . .
117(6) . . .
110(6) . . .
108(6) . . .
107(6) . . .
97(5) . . .
99(5) . . .
105(6) . . .
110(6) . . .
97(5) . . .
94(5) . . .
88(5) . . .
87(5) . . .
92(5) . . .
109(6) . . .
102(5) . . .
111(6) . . .
105(6) . . .
89(5) . . .
103(5) . . .
108(5) . . .
98(5) . . .
111(6) . . .
103(5) . . .
106(6) . . .
104(5) . . .
108(6) . . .
105(5) . . .
109(6) . . .
102(5) . . .
111(6) . . .
102(5) . . .
105(6) . . .
113(6) . . .
113(6) . . .
101(5) . . .
107(6) . . .
108(6) . . .
114(6) . . .
113(5) . . .
107(5) . . .
99(5) . . .
110(6) . . .
103(5) . . .
109(5) . . .
104(5) . . .
106(6) . . .
110(6) . . .
111(6) . . .
115(6) . . .
108(5) . . .
101(5) . . .
108(6) . . .
93(5) . . .
112(5) . . .
93(5) . . .
112(6) . . .
118(6) . . .
102(6) . . .
94(5) . . .
105(5) . . .
97(5) . . .
100(5) . . .
102(5) . . .
96(5) . . .
107(5) . . .
102(5) . . .
94(5) . . .
97(5) . . .
106(5) . . .
102(5) . . .
99(5) . . .
111(6) . . .
104(5) . . .
105(5) . . .
105(5) . . .
106(6) . . .
112(6) . . .
107(5) . . .
82(5) . . .
107(6) . . .
114(6) . . .
103(5) . . .
108(5) . . .
96(5) . . .
97(5) . . .
109(6) . . .
107(6) . . .
113(6) . . .
104(5) . . .
93(5) . . .
107(6) . . .
100(5) . . .
108(5) . . .
104(5) . . .
104(6) . . .
107(6) . . .
96(5) . . .
104(5) . . .
105(5) . . .
118(6) . . .
96(5) . . .
105(6) . . .
106(5) . . .
109(5) . . .
122(6) . . .
108(5) . . .
116(6) . . .
92(5) . . .
95(5) . . .
108(6) . . .
116(6) . . .
108(5) . . .
101(5) . . .
112(6) . . .
92(5) . . .
104(6) . . .
113(6) . . .
102(5) . . .
97(5) . . .
103(6) . . .
101(5) . . .
90(5) . . .
103(5) . . .
109(6) . . .
98(5) . . .
107(6) . . .
101(5) . . .
109(5) . . .
117(6) . . .
112(6) . . .
101(5) . . .
107(5) . . .
105(5) . . .
96(5) . . .
106(6) . . .
98(5) . . .
108(5) . . .
112(6) . . .
103(5) . . .
112(6) . . .
107(5) . . .
100(5) . . .
111(5) . . .
95(5) . . .
110(6) . . .
90(5) . . .
99(5) . . .
107(5) . . .
99(5) . . .
109(6) . . .
108(5) . . .
98(5) . . .
101(5) . . .
102(6) . . .
109(6) . . .
105(6) . . .
90(5) . . .
96(5) . . .
98(5) . . .
96(5) . . .
113(6) . . .
109(5) . . .
113(6) . . .
94(5) . . .
106(5) . . .
106(5) . . .
111(6) . . .
106(6) . . .
103(5) . . .
116(6) . . .
110(6) . . .
115(6) . . .
117(6) . . .
94(5) . . .
107(6) . . .
121(6) . . .
102(5) . . .
111(6) . . .
114(6) . . .
121(6) . . .
106(5) . . .
106(5) . . .
94(5) . . .
98(5) . . .
96(5) . . .
98(5) . . .
100(5) . . .
108(6) . . .
102(6) . . .
107(6) . . .
94(5) . . .
115(6) . . .
114(6) . . .
100(5) . . .
116(6) . . .
110(5) . . .
121(6) . . .
112(6) . . .
101(6) . . .
101(5) . . .
112(5) . . .
120(6) . . .
108(6) . . .
120(6) . . .
114(6) . . .
97(5) . . .
106(5) . . .
101(5) . . .
102(5) . . .
114(6) . . .
104(5) . . .
110(6) . . .
101(5) . . .
105(6) . . .
107(6) . . .
104(5) . . .
111(6) . . .
110(6) . . .
107(6) . . .
113(6) . . .
104(5) . . .
101(6) . . .
96(5) . . .
107(6) . . .
112(5) . . .
105(5) . . .
94(5) . . .
114(6) . . .
110(6) . . .
120(6) . . .
103(5) . . .
96(5) . . .
100(6) . . .
114(6) . . .
112(6) . . .
117(6) . . .
115(6) . . .
111(6) . . .
101(6) . . .
112(6) . . .
125(6) . . .
107(5) . . .
97(5) . . .
113(6) . . .
125(6) . . .
115(6) . . .
106(5) . . .
96(5) . . .
96(5) . . .
101(5) . . .
98(5) . . .
92(5) . . .
96(5) . . .
99(5) . . .
112(5) . . .
92(5) . . .
98(5) . . .
101(5) . . .
100(5) . . .
93(5) . . .
98(5) . . .
91(5) . . .
124(6) . . .
120(6) . . .
109(5) . . .
103(5) . . .
96(5) . . .
104(5) . . .
110(6) . . .
102(5) . . .
110(6) . . .
104(6) . . .
105(6) . . .
103(5) . . .
105(5) . . .
107(6) . . .
108(6) . . .
107(6) . . .
111(5) . . .
99(5) . . .
96(5) . . .
111(6) . . .
97(5) . . .
97(5) . . .
95(5) . . .
96(5) . . .
101(6) . . .
106(6) . . .
96(5) . . .
110(5) . . .
107(6) . . .
102(6) . . .
99(5) . . .
108(5) . . .
103(5) . . .
100(5) . . .
95(5) . . .
102(5) . . .
96(5) . . .
114(6) . . .
116(6) . . .
103(6) . . .
102(5) . . .
97(5) . . .
100(5) . . .
108(6) . . .
103(6) . . .
102(5) . . .
107(5) . . .
111(6) . . .
101(5) . . .
108(6) . . .
96(5) . . .
94(5) . . .
94(5) . . .
108(6) . . .
102(5) . . .
93(5) . . .
103(5) . . .
108(6) . . .
89(5) . . .
112(6) . . .
92(5) . . .
103(5) . . .
107(6) . . .
97(5) . . .
114(6) . . .
108(5) . . .
100(5) . . .
100(5) . . .
102(6) . . .
95(5) . . .
100(5) . . .
102(5) . . .
102(5) . . .
108(6) . . .
106(6) . . .
106(5) . . .
101(5) . . .
88(5) . . .
107(6) . . .
111(6) . . .
101(5) . . .
101(5) . . .
109(6) . . .
111(6) . . .
94(5) . . .
89(5) . . .
106(5) . . .
99(5) . . .
93(5) . . .
100(5) . . .
85(5) . . .
106(5) . . .
107(6) . . .
93(5) . . .
105(6) . . .
99(5) . . .
107(5) . . .
113(6) . . .
101(5) . . .
109(6) . . .
93(5) . . .
104(5) . . .
101(5) . . .
106(5) . . .
107(5) . . .
117(6) . . .
109(5) . . .
93(5) . . .
107(6) . . .
106(5) . . .
109(5) . . .
106(5) . . .
103(5) . . .
93(5) . . .
97(5) . . .
103(5) . . .
105(6) . . .
95(5) . . .
106(6) . . .
97(5) . . .
107(5) . . .
103(5) . . .
110(6) . . .
103(5) . . .
97(5) . . .
103(5) . . .
96(5) . . .
100(6) . . .
101(5) . . .
105(5) . . .
89(5) . . .
116(6) . . .
98(5) . . .
88(5) . . .
102(5) . . .
108(5) . . .
98(5) . . .
101(5) . . .
96(5) . . .
93(5) . . .
92(5) . . .
103(6) . . .
104(6) . . .
110(6) . . .
80(5) . . .
100(5) . . .
90(5) . . .
99(6) . . .
105(6) . . .
103(5) . . .
113(6) . . .
92(5) . . .
100(5) . . .
107(6) . . .
87(5) . . .
98(5) . . .
102(5) . . .
107(6) . . .
89(5) . . .
100(5) . . .
98(5) . . .
108(6) . . .
111(6) . . .
100(5) . . .
101(5) . . .
104(6) . . .
109(6) . . .
114(6) . . .
109(6) . . .
105(5) . . .
101(5) . . .
87(5) . . .
91(5) . . .
118(6) . . .
103(5) . . .
96(5) . . .
99(6) . . .
91(5) . . .
94(5) . . .
88(5) . . .
89(5) . . .
93(5) . . .
95(5) . . .
98(5) . . .
106(5) . . .
97(5) . . .
107(6) . . .
112(6) . . .
101(5) . . .
106(5) . . .
100(5) . . .
92(5) . . .
106(6) . . .
90(5) . . .
115(6) . . .
107(6) . . .
129(6) . . .
103(5) . . .
117(6) . . .
100(5) . . .
113(6) . . .
109(6) . . .
107(6) . . .
109(5) . . .
100(5) . . .
100(5) . . .
103(6) . . .
82(5) . . .
90(5) . . .
104(5) . . .
94(5) . . .
104(5) . . .
96(5) . . .
100(5) . . .
97(5) . . .
102(5) . . .
94(5) . . .
109(6) . . .
109(5) . . .
116(6) . . .
99(6) . . .
99(5) . . .
103(5) . . .
92(5) . . .
101(5) . . .
102(5) . . .
102(6) . . .
97(5) . . .
123(6) . . .
115(6) . . .
103(6) . . .
101(5) . . .
98(5) . . .
95(5) . . .
106(6) . . .
95(5) . . .
95(5) . . .
98(5) . . .
115(6) . . .
109(5) . . .
105(5) . . .
105(5) . . .
97(5) . . .
100(5) . . .
96(5) . . .
100(5) . . .
113(6) . . .
100(5) . . .
105(5) . . .
93(5) . . .
97(5) . . .
94(5) . . .
108(5) . . .
88(5) . . .
103(6) . . .
103(6) . . .
104(5) . . .
103(5) . . .
106(6) . . .
95(5) . . .
103(6) . . .
96(5) . . .
94(5) . . .
106(6) . . .
91(5) . . .
108(6) . . .
100(5) . . .
115(6) . . .
102(5) . . .
110(6) . . .
101(5) . . .
105(5) . . .
96(5) . . .
94(5) . . .
97(6) . . .
107(6) . . .
98(5) . . .
92(5) . . .
104(6) . . .
92(5) . . .
103(6) . . .
101(5) . . .
97(5) . . .
107(6) . . .
94(5) . . .
107(6) . . .
104(5) . . .
103(5) . . .
99(5) . . .
92(5) . . .
102(5) . . .
106(5) . . .
98(5) . . .
117(6) . . .
109(6) . . .
97(5) . . .
97(5) . . .
92(5) . . .
98(5) . . .
98(5) . . .
103(5) . . .
108(5) . . .
101(5) . . .
95(5) . . .
93(5) . . .
113(6) . . .
90(5) . . .
105(6) . . .
96(5) . . .
110(6) . . .
95(5) . . .
79(5) . . .
115(6) . . .
104(6) . . .
88(5) . . .
101(5) . . .
100(5) . . .
103(5) . . .
99(6) . . .
100(6) . . .
94(5) . . .
96(5) . . .
99(5) . . .
102(5) . . .
119(6) . . .
106(5) . . .
111(6) . . .
114(6) . . .
86(5) . . .
98(5) . . .
85(5) . . .
88(5) . . .
98(5) . . .
98(5) . . .
96(5) . . .
100(5) . . .
100(5) . . .
101(5) . . .
102(5) . . .
101(5) . . .
93(5) . . .
99(5) . . .
105(6) . . .
103(6) . . .
112(6) . . .
101(5) . . .
101(5) . . .
106(6) . . .
103(5) . . .
107(5) . . .
100(5) . . .
98(5) . . .
100(5) . . .
98(5) . . .
97(5) . . .
114(6) . . .
86(5) . . .
116(6) . . .
96(5) . . .
96(5) . . .
110(5) . . .
95(5) . . .
109(6) . . .
95(5) . . .
106(6) . . .
108(5) . . .
102(6) . . .
96(5) . . .
101(5) . . .
99(5) . . .
111(5) . . .
113(6) . . .
98(5) . . .
98(5) . . .
104(5) . . .
105(5) . . .
108(6) . . .
84(5) . . .
83(5) . . .
91(5) . . .
100(5) . . .
108(5) . . .
103(5) . . .
107(5) . . .
101(5) . . .
102(5) . . .
94(5) . . .
86(5) . . .
104(5) . . .
107(5) . . .
97(5) . . .
112(6) . . .
105(6) . . .
89(5) . . .
81(5) . . .
96(5) . . .
104(5) . . .
90(5) . . .
99(5) . . .
92(5) . . .
89(5) . . .
105(5) . . .
99(5) . . .
100(6) . . .
93(5) . . .
111(6) . . .
99(5) . . .
84(5) . . .
100(5) . . .
93(5) . . .
91(5) . . .
97(5) . . .
101(6) . . .
91(5) . . .
86(5) . . .
90(5) . . .
106(5) . . .
98(5) . . .
106(5) . . .
102(5) . . .
102(5) . . .
91(5) . . .
91(5) . . .
104(5) . . .
82(5) . . .
99(5) . . .
102(6) . . .
107(6) . . .
90(5) . . .
96(5) . . .
87(5) . . .
95(5) . . .
96(5) . . .
116(6) . . .
106(5) . . .
112(6) . . .
102(6) . . .
99(6) . . .
107(5) . . .
96(5) . . .
102(5) . . .
103(6) . . .
103(6) . . .
95(5) . . .
108(5) . . .
105(6) . . .
85(5) . . .
86(5) . . .
92(5) . . .
101(5) . . .
95(5) . . .
116(6) . . .
90(5) . . .
98(5) . . .
92(5) . . .
104(5) . . .
97(5) . . .
100(5) . . .
98(5) . . .
91(5) . . .
96(5) . . .
103(6) . . .
101(5) . . .
102(5) . . .
100(5) . . .
90(5) . . .
101(5) . . .
84(5) . . .
97(5) . . .
98(5) . . .
97(5) . . .
90(5) . . .
111(6) . . .
103(5) . . .
111(6) . . .
105(6) . . .
95(5) . . .
101(5) . . .
96(5) . . .
94(5) . . .
103(6) . . .
103(5) . . .
96(5) . . .
99(5) . . .
118(6) . . .
106(6) . . .
99(6) . . .
93(5) . . .
96(5) . . .
107(5) . . .
106(6) . . .
108(6) . . .
108(5) . . .
92(5) . . .
99(5) . . .
92(5) . . .
112(6) . . .
110(5) . . .
103(5) . . .
96(5) . . .
107(6) . . .
105(5) . . .
92(5) . . .
99(5) . . .
86(5) . . .
95(5) . . .
98(5) . . .
97(5) . . .
98(5) . . .
90(5) . . .
103(6) . . .
98(5) . . .
105(5) . . .
103(5) . . .
100(6) . . .
95(5) . . .
107(5) . . .
102(5) . . .
95(5) . . .
94(5) . . .
94(5) . . .
98(5) . . .
88(5) . . .
95(5) . . .
89(5) . . .
93(5) . . .
100(5) . . .
110(5) . . .
95(5) . . .
92(5) . . .
103(5) . . .
99(5) . . .
98(5) . . .
107(5) . . .
108(6) . . .
91(5) . . .
113(6) . . .
105(5) . . .
100(5) . . .
92(5) . . .
87(5) . . .
109(5) . . .
95(5) . . .
103(6) . . .
101(6) . . .
88(5) . . .
84(5) . . .
93(5) . . .
113(6) . . .
98(5) . . .
97(5) . . .
104(5) . . .
104(5) . . .
118(6) . . .
92(5) . . .
100(5) . . .
102(5) . . .
102(5) . . .
89(5) . . .
91(5) . . .
104(5) . . .
97(5) . . .
108(6) . . .
93(5) . . .
85(5) . . .
99(5) . . .
106(5) . . .
105(5) . . .
97(5) . . .
101(6) . . .
97(5) . . .
96(5) . . .
89(5) . . .
93(5) . . .
81(5) . . .
95(5) . . .
102(5) . . .
100(5) . . .
89(5) . . .
89(5) . . .
102(5) . . .
106(5) . . .
98(5) . . .
95(5) . . .
106(5) . . .
103(5) . . .
94(5) . . .
106(6) . . .
84(5) . . .
98(6) . . .
92(5) . . .
88(5) . . .
93(5) . . .
91(5) . . .
98(5) . . .
99(5) . . .
91(5) . . .
87(5) . . .
101(5) . . .
101(5) . . .
98(5) . . .
111(6) . . .
94(5) . . .
102(6) . . .
95(5) . . .
108(5) . . .
102(5) . . .
97(5) . . .
110(6) . . .
97(5) . . .
96(5) . . .
94(5) . . .
84(5) . . .
86(5) . . .
93(5) . . .
90(5) . . .
96(5) . . .
95(5) . . .
93(5) . . .
97(5) . . .
104(5) . . .
85(5) . . .
88(5) . . .
81(5) . . .
93(5) . . .
106(5) . . .
114(6) . . .
93(6) . . .
80(5) . . .
95(5) . . .
88(5) . . .
113(6) . . .
96(6) . . .
95(5) . . .
102(5) . . .
111(6) . . .
105(6) . . .
81(5) . . .
102(5) . . .
96(5) . . .
107(5) . . .
100(5) . . .
107(6) . . .
96(5) . . .
92(5) . . .
96(5) . . .
104(6) . . .
92(5) . . .
103(6) . . .
104(5) . . .
99(5) . . .
102(5) . . .
94(5) . . .
98(5) . . .
113(6) . . .
91(5) . . .
100(6) . . .
99(5) . . .
100(5) . . .
98(5) . . .
100(5) . . .
101(5) . . .
102(5) . . .
104(5) . . .
90(5) . . .
95(5) . . .
106(6) . . .
88(5) . . .
103(5) . . .
107(5) . . .
104(5) . . .
92(5) . . .
89(5) . . .
92(5) . . .
82(5) . . .
98(5) . . .
107(6) . . .
88(5) . . .
90(5) . . .
89(5) . . .
107(6) . . .
118(6) . . .
91(5) . . .
94(5) . . .
105(5) . . .
104(6) . . .
92(5) . . .
106(5) . . .
100(5) . . .
94(5) . . .
91(5) . . .
106(6) . . .
78(5) . . .
98(5) . . .
92(5) . . .
96(5) . . .
97(5) . . .
86(5) . . .
82(5) . . .
95(5) . . .
95(5) . . .
102(5) . . .
97(5) . . .
81(5) . . .
99(5) . . .
96(5) . . .
96(5) . . .
95(5) . . .
100(5) . . .
90(5) . . .
95(5) . . .
104(6) . . .
95(5) . . .
88(5) . . .
87(5) . . .
100(6) . . .
99(5) . . .
97(5) . . .
108(5) . . .
89(5) . . .
106(6) . . .
104(5) . . .
99(5) . . .
96(5) . . .
86(5) . . .
86(5) . . .
83(5) . . .
99(5) . . .
92(5) . . .
93(5) . . .
105(6) . . .
94(5) . . .
90(5) . . .
119(6) . . .
93(5) . . .
92(5) . . .
93(5) . . .
90(5) . . .
84(5) . . .
107(6) . . .
93(5) . . .
80(5) . . .
89(5) . . .
121(6) . . .
102(5) . . .
99(6) . . .
100(6) . . .
92(5) . . .
95(5) . . .
94(5) . . .
88(5) . . .
111(6) . . .
108(5) . . .
98(5) . . .
110(6) . . .
105(6) . . .
103(5) . . .
89(5) . . .
114(6) . . .
95(5) . . .
97(5) . . .
87(5) . . .
101(5) . . .
91(5) . . .
96(5) . . .
102(6) . . .
76(5) . . .
92(5) . . .
92(5) . . .
95(5) . . .
100(5) . . .
89(5) . . .
85(5) . . .
108(6) . . .
99(6) . . .
88(5) . . .
87(5) . . .
90(5) . . .
90(5) . . .
100(6) . . .
99(5) . . .
101(5) . . .
91(5) . . .
80(5) . . .
97(6) . . .
107(6) . . .
105(5) . . .
96(5) . . .
91(5) . . .
95(5) . . .
103(5) . . .
99(5) . . .
92(5) . . .
93(5) . . .
100(5) . . .
103(5) . . .
106(5) . . .
93(5) . . .
90(5) . . .
92(5) . . .
99(5) . . .
103(5) . . .
93(5) . . .
100(5) . . .
94(5) . . .
94(5) . . .
93(5) . . .
118(6) . . .
102(5) . . .
106(6) . . .
100(5) . . .
90(5) . . .
97(5) . . .
100(5) . . .
92(5) . . .
101(5) . . .
102(5) . . .
89(5) . . .
93(5) . . .
87(5) . . .
83(5) . . .
114(6) . . .
105(6) . . .
104(6) . . .
107(6) . . .
87(5) . . .
104(5) . . .
89(5) . . .
92(6) . . .
104(6) . . .
82(5) . . .
102(5) . . .
85(5) . . .
103(6) . . .
106(6) . . .
108(5) . . .
98(5) . . .
95(5) . . .
90(5) . . .
98(5) . . .
103(5) . . .
88(5) . . .
86(5) . . .
96(5) . . .
99(6) . . .
92(5) . . .
84(5) . . .
81(5) . . .
106(6) . . .
91(5) . . .
85(5) . . .
82(5) . . .
88(5) . . .
87(5) . . .
92(5) . . .
100(5) . . .
90(5) . . .
97(5) . . .
99(5) . . .
92(5) . . .
95(5) . . .
104(6) . . .
88(5) . . .
90(5) . . .
85(5) . . .
93(5) . . .
91(5) . . .
105(6) . . .
100(5) . . .
99(5) . . .
101(5) . . .
92(5) . . .
94(5) . . .
90(5) . . .
89(5) . . .
101(5) . . .
102(5) . . .
94(5) . . .
107(6) . . .
95(5) . . .
101(5) . . .
104(6) . . .
103(5) . . .
101(5) . . .
94(5) . . .
100(5) . . .
97(5) . . .
94(5) . . .
99(5) . . .
101(5) . . .
102(5) . . .
105(5) . . .
97(5) . . .
95(5) . . .
83(5) . . .
85(5) . . .
89(5) . . .
102(6) . . .
100(5) . . .
108(5) . . .
101(5) . . .
95(5) . . .
90(5) . . .
90(5) . . .
103(5) . . .
103(5) . . .
99(5) . . .
96(5) . . .
87(5) . . .
102(5) . . .
90(5) . . .
86(5) . . .
99(5) . . .
83(5) . . .
88(5) . . .
103(5) . . .
85(5) . . .
89(5) . . .
92(5) . . .
92(5) . . .
85(5) . . .
95(5) . . .
92(5) . . .
90(5) . . .
87(5) . . .
88(5) . . .
92(5) . . .
101(5) . . .
100(5) . . .
91(5) . . .
90(5) . . .
94(5) . . .
94(5) . . .
97(5) . . .
96(5) . . .
90(5) . . .
95(5) . . .
88(5) . . .
95(5) . . .
99(5) . . .
91(5) . . .
99(6) . . .
103(5) . . .
92(5) . . .
94(5) . . .
101(5) . . .
97(5) . . .
81(5) . . .
103(5) . . .
91(5) . . .
97(5) . . .
105(6) . . .
87(5) . . .
102(5) . . .
95(5) . . .
88(5) . . .
85(5) . . .
84(5) . . .
94(5) . . .
91(5) . . .
109(6) . . .
95(5) . . .
85(5) . . .
90(5) . . .
95(5) . . .
97(5) . . .
96(5) . . .
89(5) . . .
95(5) . . .
97(5) . . .
90(5) . . .
93(5) . . .
97(5) . . .
84(5) . . .
100(5) . . .
93(5) . . .
82(5) . . .
99(5) . . .
99(5) . . .
96(5) . . .
91(5) . . .
94(5) . . .
90(5) . . .
97(5) . . .
89(5) . . .
96(6) . . .
86(5) . . .
102(5) . . .
103(5) . . .
87(5) . . .
81(5) . . .
102(6) . . .
113(6) . . .
81(5) . . .
79(5) . . .
89(5) . . .
88(5) . . .
100(5) . . .
115(6) . . .
101(5) . . .
94(5) . . .
97(5) . . .
82(5) . . .
95(5) . . .
95(5) . . .
89(5) . . .
92(5) . . .
90(5) . . .
81(5) . . .
97(5) . . .
93(5) . . .
76(5) . . .
88(5) . . .
96(5) . . .
99(5) . . .
90(5) . . .
99(5) . . .
93(5) . . .
95(5) . . .
84(5) . . .
88(5) . . .
98(5) . . .
100(5) . . .
94(5) . . .
93(5) . . .
109(6) . . .
97(5) . . .
98(5) . . .
102(5) . . .
106(6) . . .
97(5) . . .
87(5) . . .
97(5) . . .
106(6) . . .
82(5) . . .
80(5) . . .
104(5) . . .
97(5) . . .
88(5) . . .
85(5) . . .
95(5) . . .
90(5) . . .
102(5) . . .
111(6) . . .
100(5) . . .
88(5) . . .
88(5) . . .
106(5) . . .
98(5) . . .
83(5) . . .
98(5) . . .
102(5) . . .
92(5) . . .
80(5) . . .
107(6) . . .
106(5) . . .
89(5) . . .
94(5) . . .
108(6) . . .
99(6) . . .
88(5) . . .
88(5) . . .
104(5) . . .
111(6) . . .
106(6) . . .
99(5) . . .
98(5) . . .
94(5) . . .
100(6) . . .
96(5) . . .
80(5) . . .
91(5) . . .
91(5) . . .
102(6) . . .
93(5) . . .
86(5) . . .
87(5) . . .
99(5) . . .
97(5) . . .
99(5) . . .
96(5) . . .
97(5) . . .
87(5) . . .
100(6) . . .
103(5) . . .
101(5) . . .
90(5) . . .
80(5) . . .
91(5) . . .
94(5) . . .
104(5) . . .
84(5) . . .
92(5) . . .
93(5) . . .
101(5) . . .
99(5) . . .
90(5) . . .
91(5) . . .
82(5) . . .
93(5) . . .
103(5) . . .
93(5) . . .
96(5) . . .
98(6) . . .
90(5) . . .
94(5) . . .
80(5) . . .
90(5) . . .
95(5) . . .
91(5) . . .
87(5) . . .
94(5) . . .
106(6) . . .
85(5) . . .
92(5) . . .
91(5) . . .
90(5) . . .
95(5) . . .
97(5) . . .
100(5) . . .
92(5) . . .
96(5) . . .
92(5) . . .
92(5) . . .
81(5) . . .
88(5) . . .
90(5) . . .
85(5) . . .
88(5) . . .
97(5) . . .
89(5) . . .
89(5) . . .
100(6) . . .
88(5) . . .
84(5) . . .
93(5) . . .
85(5) . . .
82(5) . . .
90(5) . . .
95(5) . . .
89(5) . . .
92(5) . . .
105(6) . . .
69(4) . . .
93(5) . . .
98(5) . . .
95(5) . . .
89(5) . . .
89(5) . . .
94(5) . . .
97(5) . . .
86(5) . . .
99(6) . . .
89(5) . . .
91(5) . . .
98(5) . . .
91(5) . . .
90(5) . . .
89(5) . . .
100(5) . . .
83(5) . . .
83(5) . . .
100(5) . . .
101(5) . . .
83(5) . . .
102(6) . . .
90(5) . . .
100(5) . . .
98(5) . . .
110(5) . . .
96(5) . . .
102(6) . . .
104(6) . . .
79(5) . . .
92(5) . . .
92(5) . . .
102(6) . . .
92(5) . . .
92(5) . . .
109(5) . . .
90(5) . . .
85(5) . . .
96(5) . . .
104(5) . . .
84(5) . . .
89(5) . . .
90(5) . . .
87(5) . . .
103(5) . . .
99(5) . . .
94(5) . . .
96(6) . . .
96(5) . . .
100(5) . . .
94(5) . . .
97(6) . . .
103(6) . . .
94(5) . . .
85(5) . . .
93(5) . . .
92(5) . . .
94(5) . . .
111(6) . . .
100(5) . . .
108(6) . . .
95(5) . . .
92(5) . . .
101(5) . . .
94(5) . . .
105(5) . . .
97(5) . . .
90(5) . . .
100(5) . . .
92(5) . . .
92(5) . . .
91(5) . . .
97(5) . . .
101(5) . . .
89(5) . . .
94(5) . . .
87(5) . . .
84(5) . . .
96(5) . . .
105(5) . . .
106(6) . . .
100(6) . . .
95(5) . . .
94(5) . . .
98(5) . . .
91(5) . . .
91(5) . . .
93(5) . . .
103(5) . . .
98(5) . . .
94(5) . . .
89(5) . . .
93(5) . . .
103(5) . . .
92(5) . . .
107(6) . . .
91(5) . . .
100(5) . . .
99(5) . . .
94(5) . . .
85(5) . . .
96(6) . . .
86(5) . . .
94(5) . . .
92(5) . . .
81(5) . . .
90(5) . . .
79(5) . . .
81(5) . . .
84(5) . . .
85(5) . . .
93(6) . . .
89(5) . . .
99(5) . . .
90(5) . . .
95(5) . . .
101(6) . . .
88(5) . . .
83(5) . . .
80(5) . . .
86(5) . . .
95(5) . . .
94(5) . . .
70(4) . . .
88(5) . . .
87(5) . . .
100(6) . . .
101(5) . . .
105(5) . . .
94(5) . . .
90(5) . . .
98(5) . . .
102(5) . . .
79(5) . . .
81(5) . . .
90(5) . . .
94(5) . . .
88(5) . . .
103(5) . . .
105(6) . . .
95(6) . . .
86(5) . . .
77(5) . . .
95(5) . . .
81(5) . . .
89(5) . . .
87(5) . . .
101(5) . . .
92(5) . . .
90(5) . . .
91(5) . . .
94(5) . . .
96(5) . . .
96(5) . . .
98(5) . . .
97(5) . . .
92(5) . . .
96(5) . . .
107(5) . . .
90(5) . . .
91(5) . . .
93(5) . . .
104(5) . . .
111(6) . . .
96(5) . . .
88(5) . . .
87(5) . . .
91(5) . . .
107(6) . . .
93(5) . . .
99(5) . . .
81(5) . . .
98(5) . . .
82(5) . . .
100(5) . . .
90(5) . . .
90(5) . . .
97(5) . . .
87(5) . . .
84(5) . . .
97(5) . . .
94(5) . . .
94(5) . . .
92(5) . . .
94(5) . . .
101(5) . . .
102(5) . . .
96(5) . . .
81(5) . . .
88(5) . . .
96(5) . . .
90(5) . . .
82(5) . . .
72(4) . . .
94(6) . . .
82(5) . . .
102(5) . . .
82(5) . . .
80(5) . . .
83(5) . . .
78(5) . . .
99(5) . . .
96(5) . . .
88(5) . . .
84(5) . . .
83(5) . . .
98(5) . . .
89(5) . . .
92(5) . . .
104(6) . . .
92(5) . . .
98(5) . . .
94(5) . . .
90(5) . . .
103(6) . . .
101(5) . . .
84(5) . . .
88(5) . . .
85(5) . . .
85(5) . . .
89(5) . . .
94(5) . . .
91(5) . . .
93(5) . . .
81(5) . . .
88(5) . . .
85(5) . . .
90(5) . . .
91(5) . . .
93(5) . . .
94(5) . . .
92(5) . . .
84(5) . . .
91(5) . . .
91(5) . . .
96(5) . . .
96(5) . . .
99(6) . . .
87(5) . . .
79(5) . . .
89(5) . . .
97(5) . . .
89(5) . . .
97(6) . . .
90(5) . . .
91(5) . . .
85(5) . . .
89(5) . . .
84(5) . . .
96(5) . . .
96(5) . . .
104(5) . . .
98(5) . . .
111(6) . . .
100(6) . . .
91(5) . . .
95(5) . . .
100(6) . . .
85(5) . . .
80(5) . . .
90(5) . . .
87(5) . . .
99(5) . . .
85(5) . . .
90(5) . . .
82(5) . . .
88(5) . . .
88(5) . . .
95(6) . . .
109(6) . . .
101(5) . . .
92(5) . . .
83(5) . . .
95(5) . . .
90(5) . . .
97(5) . . .
92(5) . . .
85(5) . . .
86(5) . . .
80(5) . . .
88(5) . . .
92(5) . . .
81(5) . . .
80(5) . . .
91(5) . . .
96(5) . . .
82(5) . . .
88(5) . . .
90(5) . . .
91(5) . . .
84(5) . . .
88(5) . . .
95(5) . . .
96(5) . . .
93(5) . . .
90(5) . . .
88(5) . . .
90(5) . . .
90(5) . . .
102(5) . . .
96(5) . . .
87(5) . . .
95(5) . . .
118(6) . . .
98(5) . . .
95(5) . . .
93(5) . . .
78(5) . . .
86(5) . . .
101(5) . . .
97(5) . . .
96(5) . . .
92(5) . . .
89(5) . . .
84(5) . . .
82(5) . . .
80(5) . . .
83(5) . . .
98(5) . . .
90(5) . . .
91(5) . . .
91(5) . . .
105(5) . . .
84(5) . . .
69(4) . . .
83(5) . . .
91(5) . . .
90(5) . . .
89(5) . . .
91(5) . . .
70(4) . . .
85(5) . . .
80(5) . . .
90(5) . . .
90(5) . . .
91(5) . . .
94(5) . . .
86(5) . . .
93(5) . . .
95(5) . . .
93(5) . . .
100(6) . . .
92(5) . . .
98(5) . . .
100(5) . . .
99(5) . . .
91(5) . . .
99(5) . . .
100(5) . . .
86(5) . . .
95(6) . . .
90(5) . . .
87(5) . . .
85(5) . . .
85(5) . . .
95(5) . . .
83(5) . . .
103(6) . . .
80(5) . . .
76(5) . . .
77(5) . . .
89(5) . . .
100(6) . . .
101(5) . . .
101(5) . . .
92(5) . . .
95(5) . . .
101(5) . . .
91(5) . . .
99(5) . . .
81(5) . . .
86(5) . . .
81(5) . . .
95(5) . . .
97(5) . . .
88(5) . . .
98(5) . . .
100(5) . . .
86(5) . . .
86(5) . . .
89(5) . . .
90(5) . . .
88(5) . . .
86(5) . . .
107(6) . . .
82(5) . . .
83(5) . . .
84(5) . . .
82(5) . . .
90(5) . . .
97(5) . . .
89(5) . . .
84(5) . . .
90(5) . . .
80(5) . . .
96(6) . . .
81(5) . . .
74(4) . . .
76(5) . . .
89(5) . . .
82(5) . . .
83(5) . . .
82(5) . . .
105(5) . . .
86(5) . . .
83(5) . . .
92(5) . . .
80(5) . . .
83(5) . . .
89(5) . . .
94(6) . . .
85(5) . . .
83(5) . . .
91(5) . . .
89(5) . . .
86(5) . . .
86(5) . . .
74(4) . . .
92(5) . . .
111(6) . . .
93(5) . . .
79(5) . . .
86(5) . . .
80(5) . . .
102(6) . . .
88(5) . . .
78(5) . . .
92(5) . . .
94(5) . . .
89(5) . . .
93(5) . . .
98(5) . . .
91(5) . . .
94(5) . . .
104(6) . . .
97(5) . . .
102(5) . . .
96(5) . . .
88(5) . . .
90(5) . . .
86(5) . . .
92(5) . . .
93(5) . . .
95(5) . . .
93(5) . . .
94(5) . . .
100(5) . . .
88(5) . . .
90(5) . . .
78(5) . . .
90(5) . . .
91(5) . . .
97(5) . . .
87(5) . . .
84(5) . . .
83(5) . . .
91(5) . . .
91(5) . . .
96(6) . . .
81(5) . . .
74(5) . . .
71(4) . . .
83(5) . . .
76(5) . . .
92(5) . . .
92(5) . . .
110(5) . . .
87(5) . . .
78(5) . . .
72(4) . . .
84(5) . . .
84(5) . . .
83(5) . . .
76(5) . . .
88(5) . . .
81(5) . . .
86(5) . . .
80(5) . . .
79(5) . . .
84(5) . . .
91(5) . . .
69(4) . . .
86(5) . . .
96(5) . . .
88(5) . . .
85(5) . . .
76(5) . . .
76(5) . . .
88(5) . . .
97(5) . . .
92(5) . . .
79(5) . . .
95(5) . . .
77(5) . . .
91(5) . . .
82(5) . . .
83(5) . . .
85(5) . . .
87(5) . . .
75(5) . . .
94(5) . . .
87(5) . . .
98(6) . . .
83(5) . . .
78(5) . . .
84(5) . . .
88(5) . . .
99(5) . . .
87(5) . . .
77(5) . . .
86(5) . . .
90(5) . . .
80(5) . . .
87(5) . . .
93(5) . . .
95(5) . . .
75(5) . . .
87(5) . . .
83(5) . . .
75(5) . . .
84(5) . . .
76(5) . . .
68(4) . . .
96(5) . . .
81(5) . . .
87(5) . . .
87(5) . . .
90(5) . . .
83(5) . . .
93(5) . . .
84(5) . . .
80(5) . . .
100(5) . . .
94(5) . . .
85(5) . . .
92(5) . . .
90(5) . . .
85(5) . . .
80(5) . . .
77(5) . . .
88(5) . . .
89(5) . . .
84(5) . . .
105(6) . . .
92(5) . . .
86(5) . . .
85(5) . . .
88(5) . . .
74(4) . . .
93(5) . . .
91(5) . . .
74(5) . . .
81(5) . . .
95(5) . . .
90(5) . . .
79(5) . . .
97(5) . . .
101(6) . . .
83(5) . . .
100(5) . . .
87(5) . . .
84(5) . . .
71(5) . . .
89(5) . . .
86(5) . . .
88(5) . . .
94(5) . . .
96(5) . . .
84(5) . . .
86(5) . . .
95(5) . . .
87(5) . . .
95(5) . . .
91(5) . . .
73(4) . . .
97(6) . . .
91(5) . . .
82(5) . . .
90(5) . . .
92(5) . . .
84(5) . . .
83(5) . . .
79(5) . . .
88(5) . . .
88(5) . . .
91(5) . . .
88(5) . . .
80(5) . . .
88(5) . . .
81(5) . . .
93(5) . . .
81(5) . . .
82(5) . . .
77(5) . . .
100(5) . . .
86(5) . . .
86(5) . . .
87(5) . . .
79(5) . . .
77(5) . . .
86(5) . . .
89(5) . . .
101(5) . . .
103(5) . . .
79(5) . . .
77(5) . . .
84(5) . . .
75(4) . . .
98(5) . . .
94(5) . . .
79(5) . . .
81(5) . . .
85(5) . . .
83(5) . . .
83(5) . . .
90(5) . . .
95(5) . . .
98(5) . . .
88(5) . . .
89(5) . . .
82(5) . . .
72(5) . . .
84(5) . . .
87(5) . . .
94(5) . . .
79(5) . . .
85(5) . . .
82(5) . . .
91(5) . . .
87(5) . . .
85(5) . . .
93(5) . . .
91(5) . . .
87(5) . . .
95(5) . . .
77(5) . . .
89(5) . . .
91(5) . . .
94(5) . . .
89(5) . . .
92(5) . . .
93(5) . . .
91(5) . . .
83(5) . . .
81(5) . . .
93(5) . . .
82(5) . . .
82(5) . . .
89(5) . . .
91(5) . . .
91(5) . . .
83(5) . . .
90(5) . . .
92(5) . . .
104(6) . . .
86(5) . . .
83(5) . . .
82(5) . . .
87(5) . . .
86(5) . . .
83(5) . . .
96(5) . . .
91(5) . . .
91(5) . . .
92(5) . . .
79(5) . . .
83(5) . . .
78(5) . . .
80(5) . . .
82(5) . . .
103(6) . . .
85(5) . . .
95(5) . . .
93(5) . . .
103(6) . . .
97(5) . . .
94(5) . . .
80(5) . . .
84(5) . . .
93(5) . . .
82(5) . . .
89(5) . . .
89(5) . . .
81(5) . . .
86(5) . . .
96(5) . . .
87(5) . . .
83(5) . . .
86(5) . . .
104(6) . . .
101(5) . . .
97(5) . . .
89(5) . . .
86(5) . . .
94(5) . . .
94(5) . . .
84(5) . . .
86(5) . . .
94(5) . . .
84(5) . . .
85(5) . . .
101(5) . . .
91(5) . . .
96(5) . . .
100(5) . . .
102(6) . . .
89(5) . . .
79(5) . . .
87(5) . . .
81(5) . . .
88(5) . . .
99(5) . . .
91(5) . . .
88(5) . . .
89(5) . . .
77(5) . . .
84(5) . . .
81(5) . . .
79(5) . . .
77(5) . . .
85(5) . . .
88(5) . . .
89(5) . . .
86(5) . . .
86(5) . . .
98(5) . . .
85(5) . . .
106(6) . . .
87(5) . . .
78(5) . . .
89(5) . . .
89(5) . . .
83(5) . . .
88(5) . . .
85(5) . . .
84(5) . . .
94(5) . . .
97(5) . . .
83(5) . . .
100(5) . . .
86(5) . . .
97(5) . . .
88(5) . . .
85(5) . . .
74(5) . . .
88(5) . . .
95(5) . . .
88(5) . . .
86(5) . . .
67(4) . . .
78(5) . . .
93(5) . . .
95(5) . . .
82(5) . . .
86(5) . . .
84(5) . . .
84(5) . . .
86(5) . . .
89(5) . . .
88(5) . . .
95(5) . . .
77(5) . . .
78(5) . . .
85(5) . . .
92(5) . . .
83(5) . . .
89(5) . . .
72(5) . . .
80(5) . . .
80(5) . . .
80(5) . . .
87(5) . . .
89(5) . . .
89(5) . . .
85(5) . . .
91(5) . . .
84(5) . . .
88(5) . . .
82(5) . . .
88(5) . . .
82(5) . . .
83(5) . . .
91(5) . . .
89(5) . . .
80(5) . . .
96(5) . . .
92(5) . . .
94(5) . . .
84(5) . . .
79(5) . . .
91(5) . . .
82(5) . . .
91(5) . . .
81(5) . . .
81(5) . . .
92(5) . . .
76(5) . . .
80(5) . . .
79(5) . . .
78(5) . . .
85(5) . . .
98(5) . . .
95(6) . . .
84(5) . . .
76(5) . . .
85(5) . . .
86(5) . . .
82(5) . . .
88(5) . . .
69(4) . . .
86(5) . . .
95(5) . . .
77(5) . . .
80(5) . . .
82(5) . . .
94(5) . . .
89(5) . . .
81(5) . . .
90(5) . . .
76(5) . . .
76(5) . . .
86(5) . . .
74(5) . . .
75(5) . . .
83(5) . . .
80(5) . . .
85(5) . . .
91(5) . . .
83(5) . . .
85(5) . . .
91(5) . . .
90(5) . . .
80(5) . . .
75(5) . . .
75(4) . . .
84(5) . . .
89(6) . . .
80(5) . . .
101(5) . . .
83(5) . . .
78(5) . . .
81(5) . . .
88(5) . . .
75(4) . . .
85(5) . . .
83(5) . . .
73(5) . . .
92(5) . . .
100(5) . . .
87(5) . . .
73(5) . . .
81(5) . . .
83(5) . . .
84(5) . . .
85(5) . . .
88(5) . . .
82(5) . . .
90(5) . . .
83(5) . . .
79(5) . . .
86(5) . . .
88(5) . . .
102(6) . . .
86(5) . . .
85(5) . . .
87(5) . . .
82(5) . . .
75(5) . . .
86(5) . . .
84(5) . . .
81(5) . . .
78(5) . . .
87(5) . . .
97(5) . . .
80(5) . . .
80(5) . . .
78(5) . . .
86(5) . . .
80(5) . . .
93(5) . . .
82(5) . . .
75(5) . . .
87(5) . . .
79(5) . . .
72(5) . . .
74(5) . . .
85(5) . . .
79(5) . . .
84(5) . . .
90(5) . . .
85(5) . . .
72(5) . . .
82(5) . . .
94(5) . . .
78(5) . . .
96(6) . . .
71(5) . . .
76(5) . . .
91(5) . . .
91(5) . . .
80(5) . . .
74(5) . . .
86(5) . . .
76(5) . . .
86(5) . . .
81(5) . . .
81(5) . . .
80(5) . . .
84(5) . . .
86(5) . . .
91(5) . . .
77(5) . . .
80(5) . . .
79(5) . . .
82(5) . . .
79(5) . . .
82(5) . . .
94(5) . . .
86(5) . . .
80(5) . . .
90(5) . . .
84(5) . . .
87(5) . . .
78(5) . . .
75(5) . . .
86(5) . . .
76(5) . . .
94(5) . . .
87(5) . . .
91(5) . . .
84(5) . . .
81(5) . . .
93(5) . . .
82(5) . . .
75(5) . . .
87(5) . . .
85(5) . . .
71(4) . . .
89(5) . . .
92(5) . . .
93(5) . . .
88(5) . . .
89(5) . . .
86(5) . . .
87(5) . . .
79(5) . . .
83(5) . . .
82(5) . . .
92(5) . . .
85(5) . . .
91(5) . . .
92(5) . . .
85(5) . . .
75(5) . . .
92(6) . . .
99(6) . . .
83(5) . . .
84(5) . . .
92(6) . . .
80(5) . . .
92(5) . . .
78(5) . . .
78(5) . . .
78(5) . . .
81(5) . . .
89(5) . . .
88(5) . . .
80(5) . . .
85(5) . . .
79(5) . . .
67(4) . . .
81(5) . . .
83(5) . . .
88(5) . . .
81(5) . . .
81(5) . . .
85(5) . . .
77(5) . . .
85(5) . . .
78(5) . . .
59(4) . . .
93(5) . . .
80(5) . . .
82(5) . . .
91(5) . . .
80(5) . . .
83(5) . . .
82(5) . . .
83(5) . . .
84(5) . . .
85(5) . . .
85(5) . . .
66(4) . . .
80(5) . . .
84(5) . . .
77(5) . . .
77(5) . . .
91(5) . . .
90(5) . . .
90(5) . . .
81(5) . . .
92(5) . . .
83(5) . . .
94(5) . . .
82(5) . . .
81(5) . . .
87(5) . . .
93(5) . . .
87(5) . . .
81(5) . . .
82(5) . . .
76(4) . . .
82(5) . . .
79(5) . . .
91(5) . . .
73(4) . . .
84(5) . . .
84(5) . . .
75(5) . . .
79(5) . . .
92(5) . . .
84(5) . . .
72(5) . . .
71(5) . . .
82(5) . . .
88(5) . . .
82(5) . . .
93(5) . . .
87(5) . . .
85(5) . . .
87(5) . . .
84(5) . . .
81(5) . . .
83(5) . . .
83(5) . . .
89(5) . . .
77(5) . . .
81(5) . . .
78(5) . . .
73(4) . . .
85(5) . . .
86(5) . . .
87(5) . . .
98(5) . . .
87(5) . . .
97(5) . . .
77(5) . . .
95(6) . . .
96(5) . . .
81(5) . . .
73(4) . . .
84(5) . . .
82(5) . . .
78(5) . . .
78(5) . . .
70(4) . . .
80(5) . . .
97(6) . . .
93(5) . . .
74(4) . . .
65(4) . . .
89(5) . . .
84(5) . . .
94(5) . . .
83(5) . . .
83(5) . . .
79(5) . . .
80(5) . . .
83(5) . . .
76(5) . . .
79(5) . . .
85(5) . . .
81(5) . . .
87(5) . . .
88(5) . . .
75(5) . . .
70(4) . . .
72(5) . . .
83(5) . . .
82(5) . . .
79(5) . . .
87(5) . . .
85(5) . . .
99(5) . . .
80(5) . . .
78(5) . . .
81(5) . . .
87(5) . . .
86(5) . . .
81(5) . . .
79(5) . . .
86(5) . . .
86(5) . . .
82(5) . . .
84(5) . . .
91(5) . . .
91(5) . . .
84(5) . . .
69(4) . . .
81(5) . . .
86(5) . . .
76(5) . . .
88(5) . . .
88(5) . . .
88(5) . . .
90(5) . . .
88(5) . . .
88(5) . . .
78(5) . . .
89(5) . . .
88(5) . . .
89(5) . . .
71(4) . . .
79(5) . . .
69(4) . . .
80(5) . . .
77(5) . . .
76(5) . . .
81(5) . . .
82(5) . . .
81(5) . . .
84(5) . . .
88(5) . . .
88(5) . . .
94(5) . . .
89(5) . . .
83(5) . . .
82(5) . . .
95(5) . . .
82(5) . . .
80(5) . . .
69(4) . . .
74(5) . . .
94(5) . . .
83(5) . . .
90(5) . . .
86(5) . . .
79(5) . . .
81(5) . . .
70(4) . . .
70(5) . . .
80(5) . . .
90(5) . . .
81(5) . . .
79(5) . . .
90(5) . . .
71(4) . . .
88(5) . . .
80(5) . . .
83(5) . . .
79(5) . . .
76(5) . . .
79(5) . . .
89(5) . . .
80(5) . . .
81(5) . . .
88(5) . . .
93(5) . . .
75(5) . . .
79(5) . . .
84(5) . . .
85(5) . . .
66(4) . . .
67(4) . . .
70(5) . . .
84(5) . . .
89(5) . . .
83(5) . . .
85(5) . . .
76(5) . . .
84(5) . . .
82(5) . . .
76(5) . . .
83(5) . . .
82(5) . . .
80(5) . . .
84(5) . . .
84(5) . . .
82(5) . . .
83(5) . . .
83(5) . . .
88(5) . . .
85(5) . . .
79(5) . . .
81(5) . . .
80(5) . . .
74(5) . . .
74(4) . . .
75(5) . . .
87(5) . . .
86(5) . . .
71(4) . . .
78(5) . . .
76(5) . . .
84(5) . . .
84(5) . . .
72(4) . . .
86(5) . . .
86(5) . . .
100(6) . . .
67(5) . . .
70(4) . . .
84(5) . . .
81(5) . . .
88(5) . . .
78(5) . . .
73(4) . . .
92(5) . . .
76(4) . . .
81(5) . . .
76(5) . . .
96(5) . . .
86(5) . . .
83(5) . . .
89(5) . . .
75(5) . . .
83(5) . . .
79(5) . . .
80(5) . . .
79(5) . . .
79(5) . . .
88(5) . . .
83(5) . . .
90(5) . . .
83(5) . . .
85(5) . . .
81(5) . . .
82(5) . . .
81(5) . . .
95(5) . . .
86(5) . . .
73(4) . . .
88(5) . . .
97(5) . . .
70(4) . . .
68(4) . . .
93(5) . . .
85(5) . . .
86(5) . . .
63(4) . . .
80(5) . . .
84(5) . . .
79(5) . . .
95(6) . . .
75(5) . . .
88(5) . . .
86(5) . . .
76(5) . . .
77(5) . . .
74(5) . . .
82(5) . . .
83(5) . . .
87(5) . . .
91(5) . . .
73(5) . . .
79(5) . . .
69(4) . . .
82(5) . . .
96(5) . . .
75(5) . . .
62(4) . . .
72(4) . . .
71(5) . . .
76(5) . . .
85(5) . . .
86(5) . . .
78(5) . . .
77(5) . . .
69(4) . . .
73(5) . . .
86(5) . . .
77(5) . . .
88(5) . . .
77(5) . . .
89(5) . . .
75(5) . . .
79(5) . . .
96(5) . . .
88(5) . . .
78(5) . . .
73(4) . . .
75(5) . . .
91(5) . . .
70(4) . . .
66(4) . . .
91(5) . . .
78(5) . . .
77(5) . . .
85(5) . . .
72(4) . . .
79(5) . . .
77(5) . . .
69(4) . . .
72(4) . . .
80(5) . . .
76(5) . . .
83(5) . . .
89(5) . . .
87(5) . . .
85(5) . . .
77(5) . . .
82(5) . . .
76(5) . . .
74(5) . . .
75(5) . . .
73(4) . . .
69(4) . . .
83(5) . . .
88(5) . . .
83(5) . . .
81(5) . . .
87(5) . . .
84(5) . . .
87(5) . . .
67(4) . . .
85(5) . . .
75(5) . . .
82(5) . . .
74(5) . . .
74(4) . . .
74(5) . . .
80(5) . . .
77(5) . . .
87(5) . . .
80(5) . . .
77(5) . . .
80(5) . . .
81(5) . . .
81(5) . . .
96(5) . . .
86(5) . . .
70(4) . . .
72(5) . . .
75(5) . . .
85(5) . . .
76(5) . . .
83(5) . . .
78(5) . . .
76(5) . . .
86(5) . . .
90(5) . . .
82(5) . . .
86(5) . . .
77(5) . . .
65(4) . . .
66(4) . . .
66(4) . . .
79(5) . . .
76(5) . . .
74(4) . . .
79(5) . . .
83(5) . . .
82(5) . . .
89(5) . . .
83(5) . . .
92(5) . . .
88(5) . . .
74(5) . . .
85(5) . . .
76(5) . . .
82(5) . . .
74(4) . . .
86(5) . . .
84(5) . . .
72(5) . . .
86(5) . . .
86(5) . . .
77(5) . . .
79(5) . . .
78(5) . . .
74(4) . . .
82(5) . . .
79(5) . . .
89(5) . . .
95(5) . . .
81(5) . . .
75(5) . . .
87(5) . . .
73(4) . . .
71(4) . . .
79(5) . . .
76(5) . . .
81(5) . . .
86(5) . . .
78(5) . . .
86(5) . . .
90(5) . . .
71(5) . . .
91(5) . . .
97(5) . . .
76(5) . . .
94(5) . . .
78(5) . . .
67(4) . . .
83(5) . . .
78(5) . . .
93(5) . . .
81(5) . . .
79(5) . . .
84(5) . . .
87(5) . . .
82(5) . . .
79(5) . . .
75(5) . . .
84(5) . . .
64(4) . . .
84(5) . . .
75(5) . . .
70(4) . . .
79(5) . . .
79(5) . . .
87(5) . . .
79(5) . . .
73(4) . . .
78(5) . . .
81(5) . . .
75(5) . . .
85(5) . . .
85(5) . . .
73(5) . . .
80(5) . . .
81(5) . . .
79(5) . . .
76(5) . . .
78(5) . . .
77(5) . . .
80(5) . . .
79(5) . . .
90(5) . . .
92(5) . . .
80(5) . . .
67(4) . . .
89(5) . . .
81(5) . . .
66(4) . . .
75(5) . . .
70(4) . . .
80(5) . . .
72(4) . . .
74(5) . . .
73(4) . . .
82(5) . . .
81(5) . . .
87(5) . . .
83(5) . . .
76(5) . . .
72(4) . . .
89(5) . . .
83(5) . . .
69(4) . . .
73(5) . . .
76(5) . . .
77(5) . . .
83(5) . . .
88(5) . . .
80(5) . . .
78(5) . . .
74(4) . . .
74(5) . . .
94(5) . . .
81(5) . . .
89(5) . . .
82(5) . . .
88(5) . . .
78(5) . . .
71(4) . . .
72(4) . . .
71(5) . . .
71(5) . . .
82(5) . . .
72(5) . . .
79(5) . . .
81(5) . . .
81(5) . . .
82(5) . . .
76(5) . . .
80(5) . . .
85(5) . . .
82(5) . . .
75(5) . . .
78(5) . . .
74(5) . . .
88(5) . . .
77(5) . . .
76(5) . . .
78(5) . . .
73(4) . . .
83(5) . . .
86(5) . . .
72(5) . . .
74(4) . . .
83(5) . . .
74(5) . . .
75(5) . . .
82(5) . . .
75(5) . . .
67(4) . . .
70(4) . . .
82(5) . . .
72(4) . . .
77(5) . . .
82(5) . . .
82(5) . . .
72(5) . . .
73(4) . . .
87(5) . . .
73(4) . . .
78(5) . . .
79(5) . . .
76(5) . . .
86(5) . . .
79(5) . . .
83(5) . . .
91(5) . . .
78(5) . . .
86(5) . . .
97(5) . . .
77(5) . . .
81(5) . . .
85(5) . . .
68(4) . . .
68(4) . . .
71(5) . . .
71(5) . . .
78(5) . . .
82(5) . . .
83(5) . . .
85(5) . . .
72(5) . . .
85(5) . . .
72(4) . . .
69(4) . . .
86(5) . . .
73(5) . . .
74(5) . . .
84(5) . . .
85(5) . . .
74(5) . . .
71(4) . . .
80(5) . . .
99(5) . . .
81(5) . . .
83(5) . . .
77(5) . . .
76(4) . . .
85(5) . . .
74(5) . . .
79(5) . . .
92(5) . . .
78(5) . . .
74(4) . . .
93(5) . . .
87(5) . . .
84(5) . . .
75(4) . . .
67(4) . . .
83(5) . . .
73(5) . . .
83(5) . . .
80(5) . . .
90(5) . . .
80(5) . . .
87(5) . . .
79(5) . . .
81(5) . . .
75(5) . . .
82(5) . . .
77(5) . . .
80(5) . . .
79(5) . . .
80(5) . . .
83(5) . . .
85(5) . . .
66(4) . . .
86(5) . . .
74(5) . . .
81(5) . . .
84(5) . . .
82(5) . . .
90(5) . . .
82(5) . . .
78(5) . . .
100(5) . . .
83(5) . . .
77(5) . . .
83(5) . . .
92(5) . . .
90(5) . . .
70(4) . . .
84(5) . . .
78(5) . . .
83(5) . . .
77(5) . . .
74(5) . . .
82(5) . . .
77(5) . . .
77(5) . . .
76(5) . . .
74(4) . . .
91(5) . . .
81(5) . . .
75(5) . . .
74(5) . . .
79(5) . . .
78(5) . . .
89(5) . . .
83(5) . . .
74(5) . . .
77(5) . . .
58(4) . . .
67(4) . . .
86(5) . . .
83(5) . . .
79(5) . . .
84(5) . . .
81(5) . . .
81(5) . . .
80(5) . . .
80(5) . . .
75(5) . . .
72(5) . . .
85(5) . . .
65(4) . . .
90(5) . . .
97(5) . . .
71(5) . . .
76(5) . . .
82(5) . . .
75(4) . . .
75(5) . . .
83(5) . . .
71(5) . . .
77(5) . . .
75(4) . . .
73(5) . . .
75(5) . . .
76(5) . . .
80(5) . . .
80(5) . . .
75(5) . . .
77(5) . . .
85(5) . . .
73(5) . . .
81(5) . . .
83(5) . . .
84(5) . . .
81(5) . . .
68(4) . . .
84(5) . . .
80(5) . . .
78(5) . . .
78(5) . . .
78(5) . . .
90(5) . . .
81(5) . . .
83(5) . . .
73(4) . . .
74(4) . . .
82(5) . . .
79(5) . . .
77(5) . . .
68(4) . . .
77(5) . . .
81(5) . . .
81(5) . . .
82(5) . . .
77(5) . . .
81(5) . . .
70(4) . . .
82(5) . . .
77(5) . . .
83(5) . . .
78(5) . . .
81(5) . . .
76(5) . . .
77(5) . . .
89(5) . . .
75(5) . . .
85(5) . . .
83(5) . . .
80(5) . . .
78(5) . . .
81(5) . . .
74(5) . . .
82(5) . . .
92(5) . . .
79(5) . . .
88(5) . . .
75(5) . . .
79(5) . . .
81(5) . . .
93(5) . . .
88(5) . . .
80(5) . . .
78(5) . . .
91(5) . . .
77(5) . . .
99(5) . . .
75(5) . . .
75(5) . . .
86(5) . . .
68(4) . . .
77(5) . . .
78(5) . . .
83(5) . . .
73(4) . . .
86(5) . . .
74(4) . . .
84(5) . . .
70(5) . . .
76(5) . . .
91(5) . . .
93(5) . . .
86(5) . . .
89(5) . . .
87(5) . . .
66(4) . . .
72(5) . . .
75(5) . . .
80(5) . . .
80(5) . . .
75(5) . . .
73(5) . . .
69(4) . . .
75(5) . . .
71(5) . . .
72(4) . . .
83(5) . . .
75(5) . . .
85(5) . . .
68(4) . . .
76(5) . . .
74(5) . . .
66(4) . . .
76(5) . . .
77(5) . . .
68(4) . . .
87(5) . . .
83(5) . . .
79(5) . . .
70(4) . . .
90(5) . . .
89(5) . . .
88(5) . . .
81(5) . . .
83(5) . . .
69(4) . . .
78(5) . . .
84(5) . . .
80(5) . . .
87(5) . . .
75(4) . . .
80(5) . . .
59(4) . . .
75(5) . . .
72(4) . . .
77(5) . . .
66(4) . . .
71(5) . . .
82(5) . . .
74(5) . . .
66(4) . . .
75(5) . . .
82(5) . . .
67(4) . . .
85(5) . . .
87(5) . . .
63(4) . . .
85(5) . . .
82(5) . . .
84(5) . . .
84(5) . . .
74(5) . . .
72(5) . . .
67(5) . . .
68(4) . . .
77(5) . . .
76(5) . . .
75(5) . . .
70(4) . . .
74(4) . . .
97(6) . . .
83(5) . . .
84(5) . . .
72(5) . . .
73(4) . . .
67(4) . . .
77(5) . . .
76(5) . . .
71(5) . . .
77(5) . . .
73(5) . . .
75(5) . . .
77(5) . . .
82(5) . . .
76(4) . . .
78(5) . . .
67(5) . . .
82(5) . . .
78(5) . . .
79(5) . . .
85(5) . . .
81(5) . . .
72(5) . . .
81(5) . . .
72(4) . . .
74(5) . . .
76(5) . . .
64(4) . . .
66(4) . . .
71(4) . . .
73(5) . . .
69(4) . . .
78(5) . . .
71(4) . . .
78(5) . . .
76(5) . . .
85(5) . . .
81(5) . . .
73(4) . . .
74(4) . . .
81(5) . . .
68(4) . . .
75(5) . . .
85(5) . . .
74(5) . . .
79(5) . . .
88(5) . . .
84(5) . . .
75(5) . . .
85(5) . . .
86(5) . . .
78(5) . . .
81(5) . . .
68(4) . . .
87(5) . . .
76(5) . . .
87(5) . . .
68(4) . . .
83(5) . . .
81(5) . . .
79(5) . . .
67(5) . . .
61(4) . . .
75(5) . . .
67(4) . . .
80(5) . . .
76(5) . . .
86(5) . . .
81(5) . . .
86(5) . . .
75(5) . . .
77(5) . . .
89(5) . . .
65(4) . . .
91(5) . . .
77(5) . . .
81(5) . . .
90(5) . . .
96(5) . . .
85(5) . . .
72(5) . . .
69(4) . . .
85(5) . . .
84(5) . . .
85(5) . . .
82(5) . . .
81(5) . . .
78(5) . . .
75(5) . . .
74(5) . . .
76(5) . . .
74(5) . . .
83(5) . . .
74(4) . . .
66(4) . . .
70(5) . . .
77(5) . . .
75(5) . . .
67(4) . . .
76(5) . . .
79(5) . . .
72(5) . . .
70(4) . . .
78(5) . . .
77(5) . . .
73(4) . . .
78(5) . . .
80(5) . . .
70(4) . . .
76(5) . . .
74(5) . . .
74(4) . . .
75(4) . . .
64(4) . . .
76(5) . . .
76(5) . . .
77(5) . . .
83(5) . . .
77(5) . . .
72(5) . . .
71(5) . . .
71(4) . . .
70(4) . . .
85(5) . . .
70(5) . . .
75(5) . . .
78(5) . . .
85(5) . . .
63(4) . . .
84(5) . . .
80(5) . . .
72(4) . . .
85(5) . . .
72(4) . . .
77(5) . . .
81(5) . . .
80(5) . . .
75(5) . . .
82(5) . . .
81(5) . . .
68(4) . . .
88(5) . . .
70(4) . . .
78(5) . . .
76(5) . . .
79(5) . . .
74(4) . . .
78(5) . . .
69(4) . . .
67(4) . . .
78(5) . . .
78(5) . . .
77(5) . . .
83(5) . . .
88(5) . . .
77(5) . . .
88(5) . . .
72(5) . . .
85(5) . . .
80(5) . . .
101(5) . . .
77(5) . . .
82(5) . . .
78(5) . . .
84(5) . . .
81(5) . . .
87(5) . . .
84(5) . . .
82(5) . . .
78(5) . . .
74(4) . . .
80(5) . . .
80(5) . . .
84(5) . . .
73(4) . . .
91(5) . . .
72(5) . . .
90(5) . . .
71(5) . . .
81(5) . . .
88(5) . . .
74(5) . . .
72(4) . . .
82(5) . . .
70(4) . . .
81(5) . . .
83(5) . . .
72(4) . . .
71(5) . . .
80(5) . . .
78(5) . . .
84(5) . . .
76(5) . . .
74(5) . . .
72(4) . . .
68(4) . . .
74(4) . . .
84(5) . . .
83(5) . . .
85(5) . . .
73(4) . . .
67(4) . . .
91(5) . . .
83(5) . . .
77(5) . . .
76(4) . . .
72(4) . . .
81(5) . . .
70(5) . . .
63(4) . . .
78(5) . . .
80(5) . . .
79(5) . . .
68(4) . . .
61(4) . . .
82(5) . . .
87(5) . . .
73(5) . . .
70(4) . . .
71(4) . . .
80(5) . . .
73(4) . . .
76(5) . . .
74(5) . . .
86(5) . . .
78(5) . . .
75(5) . . .
75(5) . . .
80(5) . . .
58(4) . . .
86(5) . . .
89(5) . . .
74(5) . . .
75(5) . . .
70(4) . . .
79(5) . . .
85(5) . . .
61(4) . . .
74(5) . . .
66(4) . . .
82(5) . . .
72(5) . . .
81(5) . . .
83(5) . . .
72(4) . . .
67(4) . . .
80(5) . . .
83(5) . . .
88(5) . . .
75(4) . . .
73(5) . . .
73(5) . . .
71(5) . . .
71(4) . . .
73(4) . . .
76(5) . . .
68(4) . . .
75(5) . . .
81(5) . . .
73(4) . . .
67(5) . . .
77(5) . . .
79(5) . . .
85(5) . . .
91(5) . . .
83(5) . . .
71(5) . . .
77(5) . . .
86(5) . . .
79(5) . . .
70(4) . . .
66(5) . . .
74(5) . . .
85(5) . . .
64(4) . . .
70(5) . . .
78(5) . . .
82(5) . . .
83(5) . . .
79(5) . . .
69(4) . . .
80(5) . . .
71(4) . . .
64(4) . . .
79(5) . . .
67(4) . . .
87(5) . . .
73(5) . . .
77(5) . . .
69(4) . . .
76(5) . . .
73(5) . . .
76(5) . . .
76(5) . . .
72(4) . . .
66(4) . . .
82(5) . . .
70(4) . . .
71(4) . . .
82(5) . . .
76(5) . . .
75(5) . . .
76(5) . . .
74(4) . . .
69(4) . . .
72(5) . . .
70(4) . . .
71(4) . . .
69(4) . . .
81(5) . . .
78(5) . . .
66(4) . . .
66(4) . . .
65(4) . . .
73(5) . . .
73(5) . . .
74(5) . . .
83(5) . . .
74(5) . . .
76(5) . . .
69(5) . . .
76(5) . . .
77(4) . . .
69(4) . . .
82(5) . . .
83(5) . . .
85(5) . . .
62(4) . . .
76(5) . . .
75(5) . . .
75(5) . . .
75(5) . . .
70(4) . . .
74(4) . . .
81(5) . . .
68(5) . . .
74(5) . . .
91(5) . . .
77(5) . . .
68(4) . . .
81(5) . . .
68(4) . . .
74(4) . . .
78(5) . . .
72(5) . . .
68(5) . . .
65(4) . . .
77(5) . . .
85(5) . . .
80(5) . . .
69(5) . . .
68(4) . . .
68(4) . . .
75(5) . . .
80(5) . . .
73(5) . . .
77(5) . . .
81(5) . . .
72(4) . . .
69(4) . . .
73(4) . . .
67(4) . . .
81(5) . . .
81(5) . . .
68(4) . . .
69(4) . . .
80(5) . . .
88(5) . . .
75(5) . . .
87(5) . . .
71(5) . . .
71(4) . . .
71(4) . . .
74(5) . . .
82(5) . . .
75(5) . . .
70(4) . . .
77(5) . . .
75(5) . . .
75(5) . . .
80(5) . . .
86(5) . . .
84(5) . . .
79(5) . . .
70(5) . . .
69(4) . . .
71(4) . . .
69(4) . . .
70(4) . . .
88(5) . . .
81(5) . . .
76(5) . . .
80(5) . . .
77(5) . . .
82(5) . . .
89(5) . . .
63(4) . . .
85(5) . . .
77(5) . . .
75(5) . . .
80(5) . . .
76(5) . . .
77(5) . . .
80(5) . . .
70(5) . . .
73(5) . . .
77(5) . . .
74(4) . . .
75(5) . . .
84(5) . . .
76(5) . . .
60(4) . . .
67(4) . . .
83(5) . . .
83(5) . . .
71(4) . . .
72(4) . . .
72(5) . . .
67(4) . . .
77(5) . . .
69(4) . . .
74(4) . . .
82(5) . . .
87(5) . . .
81(5) . . .
78(5) . . .
83(5) . . .
78(5) . . .
77(5) . . .
73(5) . . .
73(4) . . .
61(4) . . .
69(5) . . .
71(5) . . .
71(5) . . .
72(4) . . .
76(5) . . .
68(4) . . .
71(5) . . .
80(5) . . .
83(5) . . .
69(4) . . .
73(4) . . .
78(5) . . .
80(5) . . .
81(5) . . .
70(4) . . .
84(5) . . .
77(5) . . .
71(5) . . .
64(4) . . .
69(4) . . .
83(5) . . .
73(5) . . .
71(5) . . .
66(4) . . .
81(5) . . .
71(4) . . .
68(4) . . .
69(4) . . .
68(4) . . .
88(5) . . .
82(5) . . .
76(5) . . .
83(5) . . .
83(5) . . .
76(5) . . .
76(5) . . .
84(5) . . .
74(4) . . .
76(5) . . .
80(5) . . .
69(5) . . .
85(5) . . .
78(5) . . .
70(4) . . .
71(5) . . .
74(5) . . .
64(4) . . .
64(4) . . .
71(4) . . .
65(4) . . .
79(5) . . .
77(5) . . .
78(5) . . .
100(5) . . .
78(5) . . .
73(5) . . .
79(5) . . .
71(4) . . .
65(4) . . .
77(5) . . .
62(4) . . .
66(4) . . .
80(5) . . .
82(5) . . .
70(4) . . .
77(5) . . .
81(5) . . .
73(4) . . .
81(5) . . .
81(5) . . .
78(5) . . .
83(5) . . .
85(5) . . .
81(5) . . .
75(5) . . .
73(4) . . .
69(4) . . .
70(4) . . .
75(5) . . .
78(5) . . .
73(5) . . .
77(5) . . .
78(5) . . .
80(5) . . .
62(4) . . .
70(5) . . .
82(5) . . .
86(5) . . .
80(5) . . .
74(5) . . .
76(5) . . .
77(5) . . .
74(4) . . .
83(5) . . .
72(5) . . .
71(5) . . .
82(5) . . .
92(5) . . .
82(5) . . .
72(5) . . .
67(4) . . .
82(5) . . .
70(4) . . .
76(5) . . .
82(5) . . .
65(4) . . .
75(5) . . .
74(4) . . .
87(5) . . .
79(5) . . .
77(5) . . .
67(4) . . .
83(5) . . .
86(5) . . .
79(5) . . .
80(5) . . .
77(5) . . .
68(4) . . .
68(4) . . .
70(4) . . .
66(4) . . .
83(5) . . .
71(5) . . .
84(5) . . .
68(4) . . .
77(5) . . .
82(5) . . .
71(5) . . .
69(5) . . .
73(4) . . .
78(5) . . .
77(5) . . .
77(5) . . .
76(5) . . .
86(5) . . .
68(4) . . .
86(5) . . .
67(4) . . .
79(5) . . .
84(5) . . .
69(4) . . .
68(4) . . .
76(5) . . .
64(4) . . .
73(4) . . .
93(5) . . .
82(5) . . .
76(5) . . .
99(6) . . .
76(5) . . .
78(5) . . .
81(5) . . .
81(5) . . .
66(4) . . .
80(5) . . .
85(5) . . .
76(4) . . .
71(4) . . .
68(4) . . .
72(5) . . .
72(4) . . .
73(5) . . .
81(5) . . .
90(5) . . .
80(5) . . .
80(5) . . .
72(4) . . .
78(5) . . .
72(4) . . .
79(5) . . .
90(5) . . .
76(5) . . .
76(5) . . .
72(5) . . .
71(4) . . .
77(5) . . .
81(5) . . .
88(5) . . .
72(5) . . .
59(4) . . .
75(4) . . .
77(5) . . .
83(5) . . .
69(4) . . .
65(4) . . .
82(5) . . .
88(5) . . .
72(5) . . .
68(4) . . .
70(4) . . .
62(4) . . .
65(4) . . .
73(5) . . .
74(5) . . .
81(5) . . .
77(5) . . .
76(5) . . .
82(5) . . .
78(5) . . .
73(4) . . .
78(5) . . .
75(5) . . .
75(5) . . .
66(4) . . .
73(4) . . .
75(5) . . .
71(5) . . .
73(5) . . .
78(5) . . .
86(5) . . .
86(5) . . .
72(5) . . .
73(5) . . .
76(5) . . .
62(4) . . .
82(5) . . .
67(4) . . .
71(4) . . .
85(5) . . .
68(4) . . .
80(5) . . .
81(5) . . .
69(4) . . .
73(4) . . .
86(5) . . .
63(4) . . .
80(5) . . .
75(5) . . .
62(4) . . .
65(4) . . .
88(5) . . .
87(5) . . .
81(5) . . .
85(5) . . .
77(5) . . .
77(5) . . .
78(5) . . .
76(5) . . .
72(4) . . .
73(5) . . .
70(4) . . .
74(5) . . .
81(5) . . .
82(5) . . .
75(4) . . .
66(4) . . .
72(5) . . .
71(5) . . .
69(4) . . .
78(5) . . .
80(5) . . .
72(5) . . .
74(5) . . .
72(4) . . .
78(5) . . .
70(4) . . .
76(5) . . .
78(5) . . .
85(5) . . .
81(5) . . .
71(4) . . .
78(5) . . .
68(4) . . .
71(4) . . .
73(5) . . .
71(4) . . .
72(4) . . .
70(4) . . .
84(5) . . .
74(5) . . .
71(5) . . .
75(5) . . .
78(5) . . .
75(4) . . .
79(5) . . .
73(5) . . .
71(4) . . .
72(4) . . .
74(5) . . .
57(4) . . .
63(4) . . .
77(5) . . .
68(4) . . .
69(4) . . .
65(4) . . .
74(5) . . .
73(5) . . .
69(4) . . .
79(5) . . .
89(5) . . .
77(5) . . .
69(4) . . .
81(5) . . .
72(4) . . .
80(5) . . .
86(5) . . .
73(5) . . .
75(5) . . .
79(5) . . .
70(5) . . .
79(5) . . .
64(4) . . .
59(4) . . .
74(5) . . .
70(4) . . .
76(5) . . .
76(5) . . .
71(4) . . .
76(5) . . .
77(5) . . .
77(5) . . .
78(5) . . .
67(4) . . .
87(5) . . .
83(5) . . .
80(5) . . .
72(5) . . .
73(4) . . .
65(4) . . .
80(5) . . .
66(4) . . .
79(5) . . .
77(5) . . .
84(5) . . .
60(4) . . .
67(5) . . .
70(4) . . .
61(4) . . .
67(4) . . .
80(5) . . .
69(5) . . .
64(4) . . .
67(4) . . .
75(5) . . .
85(5) . . .
75(5) . . .
77(5) . . .
83(5) . . .
78(5) . . .
71(5) . . .
83(5) . . .
78(5) . . .
74(4) . . .
67(4) . . .
74(5) . . .
77(5) . . .
71(4) . . .
76(5) . . .
73(5) . . .
59(4) . . .
68(5) . . .
62(4) . . .
75(5) . . .
77(5) . . .
67(4) . . .
69(4) . . .
69(4) . . .
76(5) . . .
65(4) . . .
69(5) . . .
67(4) . . .
66(4) . . .
74(4) . . .
73(5) . . .
68(5) . . .
65(4) . . .
83(5) . . .
69(4) . . .
77(5) . . .
77(5) . . .
69(5) . . .
73(4) . . .
77(5) . . .
86(5) . . .
82(5) . . .
70(5) . . .
80(5) . . .
87(5) . . .
73(5) . . .
67(4) . . .
78(5) . . .
78(5) . . .
83(5) . . .
81(5) . . .
70(4) . . .
59(4) . . .
62(4) . . .
74(5) . . .
77(5) . . .
77(5) . . .
73(5) . . .
72(4) . . .
80(5) . . .
81(5) . . .
83(5) . . .
76(4) . . .
70(4) . . .
65(4) . . .
72(5) . . .
65(4) . . .
68(4) . . .
80(5) . . .
74(5) . . .
73(5) . . .
85(5) . . .
73(4) . . .
72(4) . . .
76(5) . . .
76(5) . . .
84(5) . . .
75(4) . . .
76(5) . . .
79(5) . . .
79(5) . . .
80(5) . . .
81(5) . . .
75(5) . . .
73(5) . . .
71(4) . . .
73(5) . . .
71(4) . . .
68(4) . . .
66(4) . . .
76(5) . . .
78(5) . . .
70(4) . . .
76(5) . . .
77(5) . . .
64(4) . . .
81(5) . . .
70(4) . . .
59(4) . . .
80(5) . . .
81(5) . . .
76(5) . . .
63(4) . . .
90(5) . . .
93(5) . . .
76(5) . . .
74(4) . . .
75(5) . . .
73(5) . . .
87(5) . . .
78(5) . . .
72(4) . . .
70(4) . . .
65(4) . . .
67(4) . . .
83(5) . . .
74(5) . . .
67(4) . . .
82(5) . . .
68(5) . . .
71(5) . . .
68(4) . . .
73(4) . . .
74(5) . . .
70(5) . . .
63(4) . . .
76(5) . . .
69(4) . . .
67(4) . . .
70(5) . . .
79(5) . . .
85(5) . . .
86(5) . . .
69(4) . . .
63(4) . . .
62(4) . . .
68(4) . . .
63(4) . . .
73(5) . . .
80(5) . . .
76(5) . . .
69(4) . . .
69(4) . . .
74(5) . . .
66(4) . . .
67(4) . . .
75(5) . . .
66(4) . . .
65(4) . . .
85(5) . . .
83(5) . . .
73(5) . . .
71(4) . . .
68(4) . . .
71(5) . . .
72(4) . . .
77(5) . . .
68(4) . . .
71(5) . . .
71(5) . . .
70(4) . . .
74(4) . . .
77(5) . . .
70(5) . . .
69(4) . . .
74(4) . . .
80(5) . . .
76(5) . . .
74(5) . . .
74(5) . . .
78(5) . . .
75(4) . . .
76(5) . . .
77(5) . . .
75(5) . . .
75(5) . . .
81(5) . . .
71(5) . . .
73(5) . . .
74(5) . . .
71(4) . . .
72(4) . . .
73(5) . . .
64(4) . . .
79(5) . . .
71(4) . . .
76(5) . . .
70(4) . . .
75(5) . . .
74(5) . . .
59(4) . . .
75(5) . . .
71(4) . . .
69(4) . . .
79(5) . . .
81(5) . . .
75(5) . . .
81(5) . . .
76(5) . . .
76(5) . . .
72(4) . . .
75(5) . . .
77(5) . . .
70(5) . . .
78(5) . . .
80(5) . . .
70(4) . . .
82(5) . . .
79(5) . . .
71(4) . . .
80(5) . . .
66(4) . . .
68(5) . . .
73(5) . . .
73(4) . . .
80(5) . . .
66(4) . . .
66(5) . . .
73(5) . . .
68(4) . . .
68(4) . . .
59(4) . . .
79(5) . . .
77(5) . . .
69(4) . . .
85(5) . . .
71(5) . . .
70(5) . . .
78(5) . . .
75(5) . . .
84(5) . . .
80(5) . . .
75(5) . . .
74(5) . . .
74(4) . . .
66(4) . . .
60(4) . . .
72(5) . . .
73(5) . . .
64(4) . . .
67(4) . . .
71(4) . . .
78(5) . . .
69(4) . . .
60(4) . . .
75(5) . . .
74(5) . . .
76(5) . . .
88(5) . . .
82(5) . . .
78(5) . . .
69(5) . . .
72(5) . . .
81(5) . . .
68(4) . . .
66(4) . . .
71(5) . . .
75(5) . . .
79(5) . . .
80(5) . . .
78(5) . . .
61(4) . . .
82(5) . . .
71(4) . . .
83(5) . . .
75(5) . . .
80(5) . . .
63(4) . . .
65(4) . . .
67(4) . . .
73(5) . . .
88(5) . . .
74(5) . . .
76(5) . . .
79(5) . . .
85(5) . . .
72(5) . . .
77(5) . . .
75(5) . . .
74(5) . . .
77(5) . . .
69(5) . . .
66(5) . . .
73(4) . . .
84(5) . . .
73(5) . . .
78(5) . . .
79(5) . . .
70(4) . . .
78(5) . . .
93(5) . . .
75(5) . . .
74(5) . . .
82(5) . . .
75(5) . . .
83(5) . . .
76(5) . . .
61(4) . . .
75(4) . . .
65(4) . . .
77(5) . . .
66(4) . . .
67(4) . . .
78(5) . . .
70(5) . . .
70(5) . . .
71(5) . . .
77(5) . . .
69(4) . . .
73(5) . . .
67(5) . . .
77(5) . . .
73(4) . . .
73(4) . . .
70(4) . . .
72(5) . . .
71(5) . . .
80(5) . . .
69(4) . . .
74(5) . . .
66(4) . . .
76(5) . . .
65(4) . . .
75(5) . . .
73(5) . . .
86(5) . . .
71(5) . . .
71(4) . . .
71(4) . . .
70(4) . . .
69(4) . . .
64(4) . . .
81(5) . . .
64(4) . . .
70(5) . . .
72(5) . . .
77(5) . . .
62(4) . . .
73(5) . . .
71(5) . . .
77(5) . . .
69(4) . . .
68(4) . . .
65(4) . . .
75(5) . . .
70(4) . . .
64(4) . . .
61(4) . . .
74(5) . . .
60(4) . . .
66(4) . . .
72(4) . . .
86(5) . . .
61(4) . . .
65(4) . . .
65(4) . . .
67(4) . . .
77(5) . . .
85(5) . . .
81(5) . . .
71(4) . . .
79(5) . . .
73(4) . . .
74(5) . . .
70(5) . . .
71(5) . . .
74(5) . . .
68(4) . . .
80(5) . . .
63(4) . . .
91(5) . . .
75(5) . . .
63(4) . . .
80(5) . . .
67(5) . . .
73(5) . . .
76(5) . . .
72(4) . . .
65(4) . . .
59(4) . . .
61(4) . . .
72(4) . . .
77(5) . . .
71(5) . . .
83(5) . . .
82(5) . . .
65(4) . . .
69(4) . . .
81(5) . . .
82(5) . . .
82(5) . . .
62(4) . . .
69(4) . . .
69(5) . . .
66(4) . . .
77(5) . . .
64(4) . . .
71(5) . . .
78(5) . . .
70(5) . . .
66(4) . . .
65(4) . . .
71(5) . . .
58(4) . . .
69(4) . . .
72(4) . . .
70(4) . . .
78(5) . . .
67(5) . . .
69(5) . . .
68(4) . . .
71(4) . . .
73(5) . . .
69(5) . . .
65(4) . . .
73(4) . . .
65(4) . . .
73(4) . . .
78(5) . . .
84(5) . . .
70(4) . . .
61(4) . . .
70(5) . . .
78(5) . . .
69(5) . . .
77(5) . . .
70(4) . . .
78(5) . . .
77(5) . . .
77(5) . . .
75(4) . . .
59(4) . . .
80(5) . . .
75(5) . . .
72(5) . . .
62(4) . . .
68(4) . . .
69(5) . . .
75(5) . . .
70(4) . . .
70(4) . . .
68(4) . . .
65(4) . . .
74(5) . . .
66(4) . . .
66(4) . . .
68(5) . . .
70(5) . . .
61(4) . . .
74(5) . . .
72(4) . . .
69(4) . . .
70(5) . . .
68(4) . . .
85(5) . . .
81(5) . . .
73(4) . . .
74(5) . . .
77(5) . . .
75(5) . . .
80(5) . . .
71(4) . . .
66(4) . . .
70(4) . . .
59(4) . . .
70(4) . . .
64(4) . . .
69(5) . . .
87(5) . . .
79(5) . . .
73(4) . . .
69(4) . . .
78(5) . . .
79(5) . . .
84(5) . . .
70(4) . . .
80(5) . . .
71(4) . . .
86(5) . . .
80(5) . . .
72(4) . . .
82(5) . . .
82(5) . . .
64(4) . . .
54(4) . . .
67(4) . . .
78(5) . . .
60(4) . . .
76(5) . . .
69(4) . . .
72(5) . . .
54(4) . . .
71(5) . . .
71(4) . . .
78(5) . . .
73(5) . . .
63(4) . . .
67(4) . . .
75(5) . . .
82(5) . . .
69(4) . . .
75(5) . . .
67(4) . . .
65(4) . . .
72(4) . . .
71(4) . . .
72(5) . . .
70(5) . . .
75(4) . . .
74(5) . . .
74(5) . . .
71(5) . . .
76(5) . . .
73(5) . . .
76(5) . . .
76(5) . . .
76(5) . . .
64(4) . . .
72(4) . . .
78(5) . . .
77(5) . . .
62(4) . . .
62(4) . . .
69(4) . . .
84(5) . . .
81(5) . . .
69(5) . . .
65(4) . . .
73(4) . . .
67(4) . . .
76(5) . . .
70(4) . . .
78(5) . . .
72(4) . . .
71(4) . . .
64(4) . . .
70(4) . . .
76(5) . . .
72(4) . . .
67(4) . . .
74(5) . . .
66(4) . . .
79(5) . . .
81(5) . . .
66(4) . . .
71(5) . . .
71(4) . . .
76(5) . . .
64(4) . . .
68(5) . . .
73(5) . . .
74(5) . . .
83(5) . . .
67(4) . . .
72(5) . . .
79(5) . . .
69(4) . . .
69(4) . . .
76(5) . . .
63(4) . . .
80(5) . . .
84(5) . . .
66(4) . . .
77(5) . . .
67(5) . . .
61(5) . . .
60(4) . . .
72(4) . . .
67(4) . . .
76(5) . . .
80(5) . . .
68(4) . . .
81(5) . . .
68(4) . . .
79(5) . . .
70(4) . . .
72(5) . . .
73(4) . . .
76(5) . . .
78(5) . . .
71(5) . . .
66(4) . . .
82(5) . . .
84(5) . . .
75(5) . . .
61(4) . . .
79(5) . . .
73(4) . . .
73(5) . . .
84(5) . . .
65(4) . . .
67(4) . . .
85(5) . . .
68(4) . . .
62(4) . . .
78(5) . . .
70(4) . . .
75(4) . . .
65(4) . . .
83(5) . . .
87(5) . . .
72(4) . . .
71(4) . . .
65(4) . . .
80(5) . . .
79(5) . . .
77(5) . . .
74(4) . . .
66(4) . . .
70(5) . . .
60(4) . . .
65(4) . . .
76(4) . . .
72(4) . . .
67(5) . . .
72(5) . . .
84(5) . . .
67(4) . . .
69(4) . . .
78(5) . . .
66(5) . . .
66(4) . . .
75(5) . . .
79(5) . . .
75(5) . . .
74(5) . . .
73(4) . . .
74(4) . . .
85(5) . . .
81(5) . . .
72(5) . . .
70(4) . . .
79(5) . . .
71(4) . . .
76(5) . . .
71(4) . . .
80(5) . . .
75(5) . . .
71(5) . . .
72(4) . . .
74(5) . . .
85(5) . . .
75(4) . . .
73(5) . . .
64(4) . . .
83(5) . . .
84(5) . . .
79(5) . . .
80(5) . . .
81(5) . . .
74(5) . . .
69(4) . . .
62(4) . . .
61(4) . . .
73(5) . . .
78(5) . . .
69(4) . . .
69(4) . . .
70(5) . . .
78(5) . . .
71(4) . . .
66(4) . . .
67(4) . . .
70(5) . . .
65(4) . . .
67(4) . . .
70(4) . . .
68(4) . . .
69(4) . . .
81(5) . . .
83(5) . . .
70(4) . . .
75(5) . . .
80(5) . . .
84(5) . . .
75(5) . . .
68(4) . . .
75(5) . . .
81(5) . . .
86(5) . . .
75(4) . . .
70(4) . . .
75(5) . . .
59(4) . . .
66(4) . . .
67(4) . . .
75(4) . . .
66(4) . . .
71(5) . . .
72(4) . . .
78(5) . . .
63(4) . . .
70(4) . . .
77(5) . . .
71(4) . . .
72(4) . . .
77(5) . . .
84(5) . . .
75(5) . . .
72(4) . . .
83(5) . . .
72(5) . . .
79(5) . . .
69(4) . . .
62(4) . . .
71(4) . . .
79(5) . . .
65(4) . . .
74(5) . . .
76(4) . . .
69(4) . . .
87(5) . . .
76(5) . . .
68(5) . . .
63(4) . . .
57(4) . . .
64(4) . . .
78(5) . . .
66(4) . . .
74(5) . . .
70(4) . . .
74(4) . . .
76(5) . . .
61(4) . . .
70(4) . . .
74(5) . . .
70(4) . . .
70(4) . . .
72(5) . . .
61(4) . . .
76(5) . . .
63(4) . . .
67(4) . . .
68(5) . . .
68(4) . . .
72(4) . . .
76(5) . . .
71(4) . . .
76(5) . . .
81(5) . . .
68(4) . . .
57(4) . . .
68(4) . . .
72(5) . . .
79(5) . . .
72(4) . . .
70(4) . . .
74(5) . . .
70(4) . . .
76(5) . . .
86(5) . . .
66(5) . . .
73(5) . . .
78(5) . . .
73(4) . . .
73(5) . . .
54(4) . . .
72(5) . . .
78(5) . . .
70(4) . . .
66(4) . . .
64(4) . . .
70(5) . . .
69(4) . . .
71(4) . . .
72(4) . . .
71(5) . . .
62(4) . . .
69(4) . . .
67(4) . . .
63(4) . . .
73(5) . . .
79(5) . . .
69(4) . . .
80(5) . . .
75(5) . . .
72(5) . . .
83(5) . . .
76(5) . . .
59(4) . . .
59(4) . . .
72(5) . . .
73(5) . . .
72(4) . . .
56(4) . . .
62(4) . . .
66(4) . . .
68(4) . . .
71(4) . . .
78(5) . . .
73(5) . . .
71(5) . . .
73(5) . . .
80(5) . . .
65(4) . . .
73(5) . . .
75(5) . . .
64(4) . . .
70(4) . . .
60(4) . . .
59(4) . . .
77(5) . . .
59(4) . . .
79(5) . . .
68(4) . . .
79(5) . . .
63(4) . . .
72(5) . . .
83(5) . . .
81(5) . . .
64(4) . . .
65(4) . . .
79(5) . . .
61(4) . . .
59(4) . . .
66(5) . . .
59(4) . . .
71(4) . . .
66(4) . . .
65(4) . . .
79(5) . . .
77(5) . . .
75(5) . . .
74(5) . . .
59(4) . . .
64(4) . . .
69(4) . . .
82(5) . . .
74(5) . . .
63(4) . . .
64(4) . . .
70(5) . . .
82(5) . . .
72(4) . . .
76(5) . . .
67(4) . . .
62(4) . . .
65(4) . . .
69(4) . . .
57(4) . . .
66(4) . . .
67(4) . . .
74(4) . . .
67(5) . . .
70(4) . . .
72(5) . . .
71(4) . . .
70(4) . . .
79(5) . . .
63(4) . . .
52(4) . . .
68(4) . . .
73(4) . . .
67(4) . . .
75(5) . . .
76(5) . . .
60(4) . . .
62(4) . . .
84(5) . . .
76(5) . . .
77(5) . . .
72(4) . . .
71(4) . . .
91(5) . . .
72(5) . . .
69(4) . . .
74(5) . . .
73(4) . . .
74(5) . . .
71(5) . . .
53(4) . . .
63(4) . . .
64(4) . . .
64(4) . . .
61(4) . . .
72(5) . . .
74(4) . . .
78(5) . . .
75(5) . . .
71(5) . . .
66(4) . . .
68(4) . . .
69(4) . . .
70(4) . . .
79(5) . . .
72(5) . . .
75(5) . . .
74(5) . . .
87(5) . . .
79(5) . . .
69(5) . . .
75(5) . . .
66(4) . . .
75(5) . . .
80(5) . . .
64(4) . . .
65(4) . . .
68(4) . . .
74(5) . . .
63(4) . . .
71(5) . . .
62(4) . . .
70(5) . . .
70(4) . . .
86(5) . . .
71(4) . . .
65(4) . . .
77(5) . . .
73(5) . . .
71(5) . . .
74(5) . . .
61(4) . . .
57(4) . . .
82(5) . . .
68(4) . . .
67(4) . . .
62(4) . . .
69(4) . . .
78(5) . . .
70(5) . . .
64(4) . . .
69(4) . . .
63(4) . . .
65(5) . . .
65(5) . . .
72(4) . . .
81(5) . . .
63(4) . . .
66(5) . . .
70(4) . . .
67(4) . . .
65(4) . . .
71(4) . . .
64(4) . . .
76(5) . . .
85(5) . . .
63(4) . . .
66(4) . . .
71(5) . . .
74(5) . . .
72(5) . . .
56(4) . . .
80(5) . . .
73(5) . . .
67(5) . . .
56(4) . . .
73(5) . . .
73(5) . . .
66(4) . . .
74(5) . . .
76(5) . . .
73(5) . . .
63(4) . . .
73(5) . . .
78(5) . . .
74(5) . . .
77(5) . . .
71(5) . . .
69(4) . . .
76(5) . . .
80(5) . . .
80(5) . . .
74(5) . . .
56(4) . . .
62(4) . . .
71(4) . . .
77(5) . . .
69(5) . . .
62(4) . . .
65(4) . . .
72(4) . . .
64(4) . . .
77(5) . . .
58(4) . . .
76(5) . . .
74(5) . . .
81(5) . . .
69(5) . . .
70(4) . . .
83(5) . . .
71(4) . . .
74(5) . . .
64(4) . . .
75(5) . . .
64(4) . . .
66(4) . . .
70(4) . . .
65(4) . . .
74(5) . . .
59(4) . . .
68(4) . . .
72(5) . . .
76(5) . . .
73(5) . . .
67(4) . . .
59(4) . . .
77(5) . . .
64(4) . . .
67(4) . . .
64(4) . . .
74(5) . . .
72(5) . . .
68(4) . . .
75(5) . . .
72(4) . . .
71(4) . . .
70(5) . . .
65(4) . . .
74(5) . . .
65(4) . . .
85(5) . . .
77(5) . . .
69(4) . . .
67(4) . . .
78(5) . . .
80(5) . . .
73(5) . . .
72(5) . . .
75(5) . . .
75(4) . . .
70(4) . . .
72(5) . . .
63(4) . . .
71(4) . . .
71(4) . . .
64(4) . . .
75(5) . . .
64(4) . . .
63(4) . . .
75(4) . . .
64(4) . . .
73(5) . . .
62(4) . . .
70(4) . . .
74(4) . . .
76(5) . . .
70(5) . . .
66(4) . . .
70(4) . . .
65(4) . . .
72(5) . . .
63(4) . . .
65(4) . . .
72(4) . . .
68(4) . . .
64(4) . . .
61(4) . . .
67(4) . . .
72(4) . . .
78(5) . . .
63(4) . . .
81(5) . . .
72(4) . . .
61(4) . . .
64(4) . . .
78(5) . . .
76(5) . . .
68(4) . . .
72(4) . . .
73(5) . . .
68(5) . . .
71(5) . . .
73(4) . . .
71(4) . . .
62(4) . . .
71(5) . . .
64(4) . . .
64(4) . . .
72(4) . . .
78(5) . . .
69(5) . . .
70(5) . . .
71(4) . . .
61(4) . . .
69(4) . . .
71(5) . . .
72(5) . . .
79(5) . . .
77(5) . . .
75(5) . . .
73(5) . . .
63(4) . . .
74(4) . . .
66(4) . . .
67(4) . . .
67(4) . . .
74(5) . . .
74(4) . . .
70(4) . . .
65(4) . . .
72(5) . . .
74(5) . . .
76(4) . . .
68(4) . . .
65(4) . . .
76(5) . . .
65(4) . . .
73(4) . . .
69(4) . . .
72(5) . . .
64(4) . . .
59(4) . . .
72(4) . . .
78(5) . . .
81(5) . . .
71(5) . . .
73(4) . . .
71(4) . . .
73(5) . . .
67(4) . . .
84(5) . . .
78(5) . . .
83(5) . . .
63(4) . . .
75(5) . . .
76(5) . . .
75(4) . . .
66(4) . . .
58(4) . . .
68(5) . . .
68(4) . . .
70(4) . . .
66(4) . . .
72(5) . . .
72(5) . . .
68(4) . . .
63(4) . . .
72(4) . . .
65(4) . . .
69(5) . . .
75(5) . . .
64(4) . . .
75(5) . . .
70(4) . . .
72(5) . . .
73(5) . . .
65(4) . . .
58(4) . . .
70(4) . . .
62(4) . . .
60(4) . . .
67(4) . . .
69(4) . . .
65(4) . . .
61(4) . . .
62(4) . . .
67(4) . . .
69(4) . . .
74(5) . . .
76(5) . . .
60(4) . . .
72(4) . . .
64(4) . . .
70(4) . . .
59(4) . . .
64(4) . . .
73(4) . . .
69(4) . . .
67(5) . . .
77(5) . . .
62(4) . . .
73(4) . . .
71(5) . . .
66(5) . . .
62(4) . . .
60(4) . . .
61(4) . . .
64(4) . . .
58(4) . . .
64(4) . . .
72(4) . . .
69(4) . . .
71(4) . . .
72(5) . . .
76(5) . . .
78(5) . . .
68(4) . . .
76(5) . . .
57(4) . . .
72(5) . . .
65(4) . . .
54(4) . . .
72(5) . . .
73(4) . . .
71(4) . . .
61(4) . . .
71(5) . . .
54(4) . . .
71(4) . . .
64(4) . . .
69(4) . . .
75(5) . . .
75(5) . . .
81(5) . . .
67(4) . . .
73(5) . . .
60(4) . . .
68(5) . . .
74(4) . . .
71(5) . . .
65(4) . . .
69(4) . . .
88(5) . . .
67(4) . . .
72(4) . . .
74(5) . . .
66(4) . . .
59(4) . . .
67(4) . . .
59(4) . . .
71(5) . . .
75(5) . . .
72(4) . . .
69(4) . . .
64(4) . . .
71(5) . . .
74(5) . . .
75(5) . . .
75(5) . . .
68(5) . . .
87(5) . . .
71(5) . . .
62(4) . . .
66(4) . . .
73(5) . . .
76(5) . . .
73(5) . . .
75(4) . . .
66(4) . . .
83(5) . . .
75(5) . . .
85(5) . . .
73(4) . . .
77(5) . . .
62(4) . . .
77(5) . . .
57(4) . . .
63(4) . . .
71(5) . . .
68(4) . . .
69(4) . . .
72(4) . . .
61(4) . . .
62(4) . . .
87(5) . . .
67(4) . . .
63(4) . . .
62(4) . . .
63(4) . . .
74(5) . . .
70(4) . . .
71(4) . . .
70(4) . . .
71(5) . . .
63(4) . . .
73(5) . . .
73(4) . . .
78(5) . . .
66(4) . . .
61(4) . . .
65(4) . . .
68(4) . . .
66(4) . . .
63(4) . . .
70(5) . . .
63(4) . . .
69(4) . . .
78(5) . . .
72(4) . . .
73(5) . . .
76(5) . . .
74(5) . . .
65(4) . . .
64(4) . . .
59(4) . . .
64(4) . . .
74(4) . . .
57(4) . . .
69(4) . . .
64(4) . . .
67(4) . . .
68(4) . . .
62(4) . . .
74(5) . . .
54(4) . . .
78(5) . . .
81(5) . . .
65(4) . . .
55(4) . . .
68(5) . . .
70(5) . . .
69(4) . . .
57(4) . . .
72(5) . . .
61(4) . . .
69(4) . . .
74(4) . . .
71(5) . . .
65(4) . . .
66(4) . . .
61(4) . . .
52(4) . . .
62(4) . . .
63(4) . . .
76(5) . . .
62(4) . . .
68(4) . . .
71(5) . . .
75(5) . . .
74(5) . . .
76(5) . . .
63(4) . . .
61(4) . . .
57(4) . . .
69(5) . . .
71(4) . . .
70(4) . . .
60(4) . . .
72(5) . . .
61(4) . . .
66(4) . . .
63(4) . . .
80(5) . . .
63(4) . . .
72(5) . . .
67(4) . . .
72(4) . . .
64(4) . . .
69(5) . . .
59(4) . . .
58(4) . . .
65(4) . . .
80(5) . . .
71(5) . . .
73(5) . . .
70(4) . . .
64(4) . . .
76(5) . . .
76(5) . . .
65(4) . . .
82(5) . . .
57(4) . . .
73(5) . . .
71(5) . . .
62(4) . . .
76(5) . . .
63(4) . . .
78(5) . . .
77(5) . . .
65(4) . . .
67(4) . . .
57(4) . . .
69(5) . . .
72(4) . . .
68(4) . . .
68(4) . . .
68(4) . . .
73(5) . . .
77(5) . . .
69(4) . . .
69(4) . . .
70(5) . . .
69(4) . . .
69(4) . . .
68(4) . . .
68(4) . . .
77(5) . . .
68(4) . . .
67(4) . . .
58(4) . . .
66(4) . . .
78(5) . . .
71(5) . . .
68(4) . . .
71(5) . . .
69(4) . . .
77(5) . . .
71(5) . . .
68(4) . . .
70(4) . . .
78(5) . . .
76(5) . . .
71(4) . . .
71(5) . . .
67(4) . . .
70(4) . . .
67(4) . . .
60(4) . . .
64(4) . . .
67(4) . . .
71(4) . . .
61(4) . . .
70(5) . . .
57(4) . . .
58(4) . . .
72(5) . . .
75(5) . . .
58(4) . . .
70(5) . . .
63(4) . . .
66(4) . . .
60(4) . . .
60(4) . . .
74(5) . . .
69(4) . . .
64(4) . . .
66(5) . . .
57(4) . . .
61(4) . . .
88(5) . . .
76(5) . . .
68(5) . . .
69(5) . . .
66(4) . . .
71(4) . . .
72(5) . . .
64(5) . . .
66(4) . . .
69(4) . . .
73(4) . . .
68(4) . . .
74(5) . . .
84(5) . . .
77(5) . . .
75(4) . . .
77(5) . . .
60(4) . . .
73(5) . . .
76(5) . . .
79(5) . . .
81(5) . . .
75(5) . . .
68(4) . . .
66(4) . . .
74(5) . . .
65(4) . . .
62(4) . . .
70(5) . . .
69(4) . . .
79(5) . . .
74(5) . . .
66(4) . . .
75(5) . . .
65(4) . . .
69(4) . . .
80(5) . . .
84(5) . . .
71(4) . . .
59(4) . . .
67(4) . . .
69(4) . . .
67(5) . . .
54(4) . . .
75(4) . . .
66(4) . . .
63(4) . . .
65(4) . . .
75(5) . . .
62(4) . . .
72(4) . . .
82(5) . . .
70(5) . . .
64(4) . . .
73(4) . . .
75(5) . . .
64(4) . . .
72(5) . . .
70(4) . . .
60(4) . . .
68(4) . . .
57(4) . . .
71(5) . . .
68(4) . . .
64(4) . . .
56(4) . . .
67(5) . . .
71(4) . . .
75(5) . . .
71(4) . . .
66(4) . . .
73(5) . . .
66(4) . . .
67(4) . . .
64(4) . . .
63(4) . . .
65(4) . . .
68(4) . . .
72(4) . . .
56(4) . . .
69(5) . . .
73(5) . . .
65(4) . . .
64(4) . . .
53(4) . . .
70(5) . . .
71(4) . . .
65(4) . . .
59(4) . . .
78(5) . . .
69(4) . . .
61(4) . . .
68(4) . . .
64(4) . . .
77(5) . . .
85(5) . . .
73(4) . . .
56(4) . . .
58(4) . . .
71(5) . . .
60(4) . . .
67(5) . . .
65(4) . . .
66(4) . . .
76(5) . . .
75(5) . . .
64(4) . . .
76(5) . . .
70(4) . . .
59(4) . . .
69(5) . . .
77(5) . . .
68(4) . . .
63(4) . . .
75(5) . . .
74(5) . . .
75(4) . . .
70(4) . . .
72(4) . . .
67(4) . . .
67(5) . . .
58(4) . . .
74(4) . . .
73(4) . . .
67(4) . . .
75(5) . . .
75(5) . . .
64(4) . . .
62(4) . . .
77(5) . . .
66(4) . . .
63(4) . . .
69(4) . . .
62(4) . . .
73(5) . . .
67(4) . . .
71(5) . . .
78(5) . . .
68(4) . . .
65(4) . . .
66(4) . . .
59(4) . . .
58(4) . . .
72(4) . . .
65(4) . . .
56(4) . . .
67(4) . . .
62(4) . . .
62(4) . . .
58(4) . . .
65(4) . . .
69(4) . . .
73(4) . . .
71(4) . . .
63(4) . . .
63(4) . . .
65(4) . . .
64(4) . . .
61(4) . . .
61(4) . . .
68(4) . . .
59(4) . . .
67(4) . . .
76(5) . . .
74(5) . . .
75(5) . . .
65(4) . . .
69(4) . . .
70(5) . . .
66(4) . . .
74(5) . . .
66(4) . . .
70(4) . . .
70(4) . . .
69(5) . . .
71(5) . . .
59(4) . . .
67(4) . . .
72(5) . . .
65(4) . . .
71(5) . . .
66(4) . . .
84(5) . . .
67(4) . . .
75(5) . . .
70(4) . . .
70(4) . . .
66(4) . . .
66(4) . . .
74(5) . . .
71(5) . . .
53(4) . . .
70(4) . . .
64(4) . . .
69(5) . . .
58(4) . . .
57(4) . . .
60(4) . . .
71(5) . . .
65(4) . . .
67(4) . . .
74(4) . . .
83(5) . . .
68(4) . . .
82(5) . . .
70(4) . . .
60(4) . . .
64(4) . . .
63(4) . . .
70(5) . . .
71(4) . . .
74(5) . . .
78(5) . . .
64(4) . . .
66(4) . . .
76(5) . . .
65(4) . . .
66(4) . . .
61(4) . . .
63(4) . . .
73(4) . . .
60(4) . . .
73(5) . . .
80(5) . . .
62(4) . . .
63(4) . . .
69(4) . . .
75(5) . . .
63(4) . . .
66(5) . . .
55(4) . . .
72(4) . . .
67(4) . . .
72(5) . . .
58(4) . . .
68(4) . . .
68(4) . . .
61(4) . . .
65(4) . . .
65(4) . . .
72(4) . . .
58(4) . . .
69(5) . . .
68(4) . . .
67(4) . . .
69(4) . . .
69(4) . . .
55(4) . . .
67(4) . . .
72(4) . . .
77(5) . . .
72(5) . . .
76(5) . . .
65(4) . . .
77(5) . . .
78(5) . . .
64(4) . . .
75(5) . . .
81(5) . . .
84(5) . . .
76(5) . . .
82(5) . . .
70(5) . . .
58(4) . . .
71(4) . . .
71(4) . . .
70(4) . . .
66(5) . . .
71(4) . . .
78(5) . . .
69(4) . . .
66(4) . . .
57(4) . . .
64(4) . . .
75(5) . . .
75(5) . . .
73(5) . . .
78(5) . . .
75(5) . . .
64(4) . . .
65(4) . . .
67(4) . . .
72(5) . . .
64(4) . . .
74(5) . . .
76(5) . . .
59(4) . . .
64(5) . . .
64(4) . . .
74(5) . . .
66(4) . . .
71(5) . . .
63(4) . . .
72(5) . . .
59(4) . . .
66(4) . . .
69(4) . . .
57(4) . . .
64(4) . . .
62(4) . . .
70(5) . . .
74(5) . . .
73(5) . . .
73(5) . . .
66(4) . . .
61(4) . . .
60(4) . . .
71(4) . . .
77(5) . . .
70(4) . . .
70(5) . . .
68(5) . . .
64(4) . . .
64(4) . . .
64(4) . . .
66(4) . . .
65(4) . . .
72(5) . . .
58(4) . . .
66(4) . . .
75(5) . . .
77(5) . . .
66(4) . . .
71(4) . . .
84(5) . . .
96(5) . . .
75(5) . . .
68(4) . . .
69(4) . . .
62(4) . . .
68(4) . . .
68(4) . . .
70(5) . . .
64(4) . . .
73(4) . . .
80(5) . . .
77(5) . . .
62(4) . . .
64(4) . . .
68(4) . . .
62(4) . . .
60(4) . . .
70(5) . . .
66(4) . . .
67(4) . . .
66(5) . . .
59(4) . . .
66(4) . . .
65(4) . . .
63(4) . . .
69(5) . . .
65(4) . . .
66(4) . . .
65(4) . . .
78(5) . . .
67(4) . . .
69(4) . . .
82(5) . . .
75(4) . . .
71(4) . . .
70(5) . . .
62(4) . . .
60(4) . . .
63(4) . . .
63(4) . . .
61(4) . . .
67(4) . . .
75(4) . . .
75(5) . . .
65(4) . . .
57(4) . . .
59(4) . . .
74(5) . . .
68(4) . . .
82(5) . . .
78(5) . . .
65(4) . . .
62(4) . . .
61(4) . . .
69(5) . . .
72(5) . . .
71(5) . . .
57(4) . . .
65(4) . . .
64(4) . . .
68(5) . . .
80(5) . . .
71(4) . . .
70(4) . . .
64(4) . . .
61(4) . . .
59(4) . . .
61(4) . . .
74(5) . . .
71(5) . . .
67(4) . . .
66(4) . . .
65(4) . . .
61(4) . . .
67(4) . . .
75(5) . . .
71(5) . . .
72(4) . . .
63(4) . . .
65(4) . . .
75(5) . . .
57(4) . . .
71(4) . . .
64(4) . . .
71(5) . . .
55(4) . . .
67(4) . . .
71(4) . . .
76(5) . . .
69(5) . . .
60(4) . . .
74(4) . . .
73(4) . . .
65(4) . . .
73(5) . . .
73(5) . . .
60(4) . . .
53(4) . . .
62(4) . . .
70(5) . . .
56(4) . . .
68(4) . . .
61(4) . . .
65(4) . . .
68(4) . . .
76(5) . . .
78(5) . . .
74(5) . . .
63(4) . . .
59(4) . . .
59(4) . . .
62(4) . . .
71(5) . . .
61(4) . . .
66(4) . . .
78(5) . . .
74(4) . . .
73(5) . . .
73(4) . . .
80(5) . . .
68(4) . . .
82(5) . . .
69(4) . . .
69(5) . . .
67(4) . . .
67(4) . . .
68(4) . . .
65(4) . . .
70(5) . . .
80(5) . . .
64(4) . . .
53(4) . . .
69(4) . . .
63(4) . . .
70(5) . . .
71(4) . . .
74(4) . . .
75(5) . . .
59(4) . . .
63(4) . . .
66(4) . . .
68(4) . . .
70(5) . . .
56(4) . . .
65(4) . . .
65(4) . . .
62(4) . . .
57(4) . . .
74(5) . . .
63(4) . . .
66(4) . . .
63(4) . . .
59(4) . . .
66(5) . . .
64(4) . . .
64(4) . . .
63(4) . . .
65(4) . . .
59(4) . . .
65(4) . . .
56(4) . . .
58(4) . . .
64(4) . . .
60(4) . . .
76(5) . . .
65(4) . . .
74(5) . . .
65(4) . . .
71(5) . . .
68(4) . . .
70(4) . . .
60(4) . . .
65(4) . . .
66(5) . . .
53(4) . . .
66(4) . . .
71(5) . . .
59(4) . . .
59(4) . . .
58(4) . . .
64(4) . . .
67(5) . . .
64(5) . . .
64(4) . . .
82(5) . . .
66(4) . . .
67(5) . . .
55(4) . . .
69(4) . . .
63(4) . . .
70(4) . . .
73(5) . . .
78(5) . . .
74(5) . . .
71(4) . . .
63(4) . . .
77(5) . . .
70(5) . . .
68(5) . . .
61(4) . . .
63(4) . . .
76(5) . . .
66(4) . . .
66(4) . . .
74(4) . . .
66(4) . . .
83(5) . . .
66(5) . . .
67(4) . . .
68(4) . . .
69(4) . . .
70(5) . . .
66(4) . . .
72(5) . . .
63(4) . . .
55(4) . . .
68(4) . . .
73(5) . . .
72(5) . . .
80(5) . . .
67(4) . . .
66(4) . . .
65(4) . . .
64(4) . . .
74(5) . . .
61(4) . . .
68(5) . . .
61(4) . . .
65(4) . . .
64(4) . . .
82(5) . . .
69(5) . . .
66(4) . . .
69(4) . . .
56(4) . . .
74(5) . . .
76(5) . . .
69(4) . . .
60(4) . . .
62(4) . . .
73(5) . . .
67(5) . . .
65(4) . . .
63(4) . . .
67(4) . . .
63(4) . . .
58(4) . . .
56(4) . . .
55(4) . . .
63(4) . . .
61(4) . . .
72(5) . . .
74(5) . . .
67(4) . . .
60(4) . . .
66(4) . . .
66(4) . . .
72(4) . . .
73(4) . . .
66(4) . . .
61(4) . . .
70(5) . . .
59(4) . . .
69(4) . . .
74(5) . . .
66(4) . . .
57(4) . . .
69(4) . . .
64(4) . . .
76(5) . . .
69(4) . . .
69(4) . . .
64(4) . . .
61(4) . . .
60(4) . . .
65(4) . . .
75(5) . . .
68(4) . . .
67(4) . . .
66(4) . . .
73(5) . . .
70(4) . . .
64(4) . . .
69(4) . . .
75(5) . . .
71(5) . . .
64(4) . . .
61(4) . . .
58(4) . . .
61(5) . . .
56(4) . . .
59(4) . . .
64(4) . . .
72(4) . . .
74(5) . . .
59(4) . . .
63(4) . . .
63(4) . . .
65(4) . . .
64(4) . . .
69(4) . . .
74(5) . . .
70(4) . . .
65(4) . . .
65(4) . . .
64(4) . . .
61(4) . . .
63(4) . . .
62(4) . . .
62(5) . . .
70(4) . . .
64(4) . . .
60(4) . . .
66(4) . . .
63(4) . . .
64(4) . . .
61(4) . . .
61(4) . . .
64(4) . . .
64(4) . . .
60(4) . . .
72(5) . . .
68(4) . . .
71(5) . . .
59(4) . . .
75(5) . . .
72(4) . . .
73(4) . . .
66(4) . . .
71(5) . . .
66(4) . . .
64(4) . . .
70(4) . . .
63(4) . . .
66(4) . . .
78(5) . . .
67(4) . . .
75(4) . . .
66(4) . . .
62(5) . . .
56(4) . . .
61(4) . . .
61(4) . . .
65(4) . . .
69(5) . . .
61(4) . . .
72(4) . . .
71(4) . . .
67(4) . . .
61(4) . . .
77(5) . . .
65(4) . . .
62(4) . . .
60(4) . . .
67(5) . . .
69(5) . . .
63(4) . . .
57(4) . . .
71(4) . . .
75(5) . . .
66(4) . . .
58(4) . . .
81(5) . . .
64(4) . . .
64(5) . . .
66(4) . . .
68(4) . . .
65(4) . . .
71(5) . . .
72(5) . . .
67(4) . . .
60(4) . . .
57(4) . . .
64(5) . . .
69(5) . . .
68(4) . . .
66(4) . . .
56(4) . . .
58(4) . . .
70(4) . . .
60(4) . . .
63(4) . . .
63(4) . . .
63(4) . . .
69(4) . . .
78(5) . . .
67(4) . . .
80(5) . . .
71(5) . . .
73(5) . . .
64(4) . . .
78(5) . . .
73(5) . . .
76(5) . . .
70(4) . . .
65(4) . . .
55(4) . . .
64(4) . . .
61(4) . . .
59(4) . . .
60(4) . . .
58(4) . . .
77(5) . . .
56(4) . . .
54(4) . . .
64(4) . . .
64(4) . . .
60(4) . . .
62(4) . . .
68(4) . . .
75(4) . . .
61(4) . . .
58(4) . . .
65(5) . . .
58(4) . . .
65(4) . . .
64(4) . . .
66(4) . . .
67(5) . . .
66(4) . . .
64(4) . . .
69(5) . . .
70(5) . . .
67(4) . . .
66(4) . . .
57(4) . . .
64(4) . . .
70(5) . . .
71(5) . . .
66(4) . . .
61(4) . . .
63(4) . . .
66(5) . . .
63(4) . . .
68(4) . . .
67(4) . . .
70(5) . . .
72(5) . . .
65(4) . . .
75(5) . . .
70(4) . . .
57(4) . . .
71(5) . . .
72(4) . . .
64(4) . . .
68(4) . . .
59(4) . . .
54(4) . . .
60(4) . . .
62(4) . . .
71(4) . . .
65(4) . . .
72(5) . . .
75(5) . . .
57(4) . . .
65(4) . . .
59(4) . . .
65(4) . . .
75(5) . . .
69(4) . . .
75(5) . . .
64(5) . . .
67(5) . . .
60(4) . . .
78(5) . . .
64(4) . . .
65(4) . . .
56(4) . . .
59(4) . . .
66(4) . . .
59(4) . . .
61(4) . . .
59(4) . . .
56(4) . . .
64(4) . . .
61(4) . . .
57(4) . . .
64(4) . . .
63(4) . . .
69(4) . . .
61(4) . . .
63(4) . . .
55(4) . . .
67(4) . . .
56(4) . . .
67(5) . . .
64(5) . . .
63(4) . . .
72(4) . . .
64(4) . . .
60(4) . . .
68(5) . . .
65(4) . . .
58(4) . . .
78(5) . . .
71(5) . . .
60(4) . . .
60(4) . . .
69(4) . . .
66(4) . . .
62(4) . . .
67(4) . . .
64(4) . . .
65(4) . . .
61(4) . . .
68(4) . . .
66(4) . . .
53(4) . . .
67(4) . . .
71(4) . . .
65(4) . . .
65(4) . . .
63(4) . . .
58(4) . . .
64(4) . . .
58(4) . . .
57(4) . . .
70(5) . . .
77(5) . . .
66(4) . . .
64(4) . . .
69(4) . . .
74(4) . . .
61(4) . . .
66(5) . . .
67(5) . . .
72(5) . . .
62(4) . . .
66(4) . . .
72(5) . . .
55(4) . . .
76(5) . . .
67(4) . . .
61(4) . . .
57(4) . . .
55(4) . . .
57(4) . . .
64(4) . . .
64(4) . . .
66(4) . . .
73(5) . . .
63(4) . . .
65(4) . . .
67(4) . . .
60(4) . . .
62(5) . . .
61(4) . . .
66(4) . . .
67(4) . . .
57(4) . . .
51(4) . . .
64(4) . . .
60(4) . . .
65(4) . . .
57(4) . . .
54(4) . . .
65(5) . . .
64(4) . . .
67(4) . . .
51(4) . . .
57(4) . . .
69(5) . . .
65(4) . . .
55(4) . . .
68(4) . . .
68(5) . . .
60(4) . . .
68(4) . . .
59(4) . . .
69(4) . . .
79(5) . . .
70(5) . . .
73(4) . . .
56(4) . . .
61(4) . . .
67(5) . . .
61(4) . . .
52(4) . . .
57(4) . . .
58(4) . . .
62(4) . . .
74(5) . . .
63(4) . . .
67(5) . . .
58(4) . . .
64(4) . . .
65(4) . . .
72(4) . . .
51(4) . . .
62(4) . . .
59(4) . . .
72(5) . . .
64(4) . . .
61(4) . . .
64(5) . . .
61(4) . . .
65(4) . . .
68(4) . . .
60(4) . . .
62(4) . . .
64(4) . . .
61(4) . . .
60(4) . . .
53(4) . . .
64(4) . . .
57(4) . . .
63(4) . . .
54(4) . . .
71(5) . . .
69(4) . . .
51(4) . . .
58(4) . . .
61(4) . . .
55(4) . . .
57(4) . . .
59(4) . . .
65(4) . . .
58(4) . . .
59(4) . . .
70(5) . . .
63(4) . . .
60(4) . . .
63(4) . . .
62(4) . . .
70(5) . . .
66(4) . . .
63(4) . . .
60(4) . . .
62(4) . . .
56(4) . . .
62(4) . . .
62(4) . . .
57(4) . . .
62(4) . . .
65(4) . . .
59(4) . . .
64(4) . . .
59(4) . . .
63(4) . . .
53(4) . . .
66(4) . . .
67(4) . . .
72(4) . . .
69(5) . . .
62(4) . . .
63(4) . . .
63(4) . . .
63(4) . . .
66(4) . . .
62(4) . . .
51(4) . . .
70(4) . . .
72(5) . . .
61(4) . . .
64(4) . . .
60(4) . . .
69(4) . . .
68(5) . . .
52(4) . . .
69(5) . . .
60(4) . . .
65(4) . . .
50(4) . . .
68(5) . . .
66(4) . . .
67(4) . . .
53(4) . . .
66(4) . . .
70(5) . . .
69(4) . . .
63(4) . . .
72(4) . . .
70(5) . . .
64(4) . . .
55(4) . . .
64(4) . . .
81(5) . . .
59(4) . . .
65(4) . . .
62(4) . . .
69(4) . . .
66(4) . . .
57(4) . . .
63(4) . . .
60(4) . . .
69(4) . . .
61(4) . . .
63(4) . . .
51(4) . . .
65(4) . . .
65(4) . . .
55(4) . . .
73(5) . . .
59(4) . . .
49(4) . . .
73(4) . . .
59(4) . . .
63(4) . . .
69(4) . . .
62(4) . . .
61(4) . . .
69(5) . . .
52(4) . . .
54(4) . . .
62(4) . . .
58(4) . . .
67(4) . . .
70(5) . . .
66(4) . . .
52(4) . . .
70(5) . . .
68(4) . . .
62(4) . . .
69(5) . . .
69(4) . . .
68(4) . . .
63(4) . . .
60(4) . . .
59(4) . . .
58(4) . . .
69(4) . . .
62(4) . . .
64(4) . . .
61(4) . . .
49(4) . . .
64(4) . . .
56(4) . . .
66(4) . . .
66(4) . . .
56(4) . . .
62(4) . . .
57(4) . . .
63(4) . . .
66(4) . . .
56(4) . . .
56(4) . . .
47(4) . . .
52(4) . . .
59(4) . . .
62(4) . . .
61(4) . . .
74(5) . . .
61(4) . . .
64(4) . . .
58(4) . . .
59(4) . . .
60(4) . . .
54(4) . . .
62(4) . . .
53(4) . . .
72(5) . . .
60(4) . . .
59(4) . . .
70(4) . . .
66(4) . . .
65(4) . . .
63(4) . . .
62(4) . . .
57(4) . . .
73(4) . . .
60(4) . . .
54(4) . . .
62(4) . . .
68(4) . . .
60(4) . . .
64(4) . . .
65(4) . . .
56(4) . . .
58(4) . . .
65(4) . . .
62(4) . . .
68(5) . . .
64(4) . . .
70(4) . . .
64(4) . . .
61(4) . . .
63(4) . . .
56(4) . . .
65(4) . . .
68(4) . . .
56(4) . . .
62(4) . . .
58(4) . . .
61(4) . . .
60(4) . . .
55(4) . . .
59(4) . . .
59(4) . . .
63(4) . . .
62(4) . . .
62(4) . . .
54(4) . . .
58(4) . . .
70(4) . . .
60(4) . . .
63(4) . . .
74(5) . . .
64(4) . . .
59(4) . . .
67(4) . . .
60(4) . . .
66(5) . . .
66(4) . . .
66(4) . . .
58(4) . . .
58(4) . . .
63(4) . . .
50(4) . . .
50(4) . . .
63(5) . . .
69(5) . . .
68(5) . . .
61(4) . . .
65(4) . . .
68(5) . . .
66(4) . . .
62(4) . . .
73(4) . . .
58(4) . . .
61(4) . . .
62(4) . . .
56(4) . . .
66(4) . . .
65(4) . . .
65(4) . . .
59(4) . . .
53(4) . . .
56(4) . . .
60(4) . . .
74(5) . . .
61(4) . . .
66(4) . . .
65(4) . . .
50(4) . . .
54(4) . . .
63(4) . . .
62(4) . . .
57(4) . . .
67(4) . . .
61(4) . . .
60(4) . . .
62(4) . . .
60(4) . . .
66(4) . . .
66(5) . . .
58(4) . . .
61(4) . . .
64(4) . . .
63(4) . . .
59(4) . . .
61(4) . . .
61(4) . . .
68(4) . . .
69(5) . . .
57(4) . . .
57(4) . . .
69(4) . . .
57(4) . . .
59(4) . . .
67(5) . . .
62(4) . . .
64(4) . . .
63(4) . . .
58(4) . . .
62(4) . . .
61(4) . . .
69(4) . . .
64(4) . . .
69(4) . . .
68(5) . . .
60(4) . . .
74(4) . . .
69(4) . . .
61(4) . . .
59(4) . . .
65(5) . . .
58(4) . . .
61(4) . . .
60(4) . . .
63(4) . . .
60(4) . . .
58(4) . . .
55(4) . . .
58(4) . . .
51(4) . . .
67(4) . . .
67(4) . . .
50(4) . . .
61(4) . . .
60(4) . . .
67(4) . . .
64(4) . . .
59(4) . . .
54(4) . . .
63(4) . . .
57(4) . . .
63(4) . . .
62(4) . . .
60(4) . . .
62(4) . . .
60(4) . . .
65(4) . . .
72(5) . . .
65(4) . . .
67(4) . . .
71(4) . . .
59(4) . . .
69(4) . . .
68(5) . . .
59(4) . . .
58(4) . . .
63(4) . . .
67(5) . . .
61(4) . . .
61(4) . . .
51(4) . . .
64(4) . . .
55(4) . . .
57(4) . . .
71(5) . . .
70(4) . . .
60(4) . . .
59(4) . . .
68(4) . . .
61(4) . . .
60(4) . . .
62(4) . . .
68(5) . . .
58(4) . . .
58(4) . . .
53(4) . . .
65(5) . . .
70(5) . . .
64(4) . . .
67(4) . . .
66(4) . . .
55(4) . . .
65(5) . . .
67(4) . . .
68(4) . . .
51(4) . . .
64(4) . . .
56(4) . . .
65(4) . . .
56(4) . . .
70(4) . . .
65(4) . . .
55(4) . . .
58(4) . . .
56(4) . . .
62(4) . . .
62(4) . . .
66(5) . . .
60(4) . . .
54(4) . . .
61(4) . . .
55(4) . . .
62(4) . . .
56(4) . . .
55(4) . . .
51(4) . . .
62(4) . . .
60(4) . . .
62(4) . . .
68(4) . . .
69(4) . . .
72(5) . . .
56(4) . . .
56(4) . . .
60(4) . . .
58(4) . . .
68(5) . . .
55(4) . . .
66(4) . . .
72(4) . . .
65(4) . . .
64(4) . . .
62(4) . . .
59(4) . . .
49(4) . . .
62(4) . . .
53(4) . . .
62(4) . . .
54(4) . . .
58(4) . . .
63(4) . . .
61(4) . . .
66(4) . . .
66(4) . . .
59(4) . . .
66(5) . . .
66(4) . . .
70(5) . . .
68(4) . . .
63(4) . . .
63(4) . . .
63(4) . . .
63(4) . . .
60(4) . . .
67(4) . . .
68(4) . . .
68(5) . . .
52(4) . . .
65(4) . . .
61(4) . . .
63(4) . . .
63(5) . . .
52(4) . . .
60(4) . . .
66(4) . . .
63(4) . . .
68(5) . . .
58(4) . . .
75(4) . . .
64(4) . . .
58(4) . . .
63(4) . . .
58(4) . . .
76(5) . . .
68(4) . . .
60(4) . . .
62(4) . . .
71(4) . . .
70(4) . . .
69(4) . . .
61(4) . . .
63(4) . . .
74(5) . . .
71(4) . . .
56(4) . . .
64(4) . . .
63(4) . . .
70(4) . . .
66(4) . . .
62(4) . . .
63(4) . . .
58(4) . . .
69(4) . . .
61(4) . . .
59(4) . . .
63(4) . . .
64(4) . . .
70(4) . . .
74(4) . . .
53(4) . . .
63(5) . . .
61(4) . . .
67(4) . . .
74(4) . . .
62(4) . . .
66(5) . . .
61(4) . . .
74(5) . . .
68(4) . . .
65(4) . . .
49(4) . . .
50(4) . . .
63(4) . . .
63(4) . . .
66(4) . . .
54(4) . . .
65(4) . . .
65(4) . . .
66(4) . . .
69(5) . . .
68(5) . . .
70(5) . . .
57(4) . . .
56(4) . . .
46(4) . . .
59(4) . . .
63(4) . . .
66(4) . . .
59(4) . . .
67(5) . . .
58(4) . . .
65(4) . . .
69(4) . . .
60(4) . . .
60(4) . . .
57(4) . . .
53(4) . . .
61(4) . . .
69(4) . . .
63(4) . . .
57(4) . . .
66(4) . . .
76(5) . . .
69(4) . . .
64(4) . . .
61(4) . . .
63(4) . . .
61(4) . . .
65(4) . . .
76(5) . . .
59(4) . . .
68(4) . . .
58(4) . . .
62(4) . . .
63(4) . . .
65(4) . . .
63(4) . . .
56(4) . . .
70(5) . . .
64(4) . . .
77(5) . . .
52(4) . . .
57(4) . . .
58(4) . . .
63(5) . . .
58(4) . . .
56(4) . . .
57(4) . . .
61(4) . . .
66(4) . . .
65(4) . . .
60(4) . . .
60(4) . . .
52(4) . . .
63(4) . . .
68(4) . . .
72(4) . . .
74(5) . . .
60(4) . . .
66(4) . . .
67(4) . . .
52(4) . . .
62(4) . . .
71(5) . . .
68(4) . . .
70(4) . . .
64(4) . . .
71(5) . . .
53(4) . . .
55(4) . . .
59(4) . . .
65(4) . . .
58(4) . . .
52(4) . . .
65(4) . . .
63(4) . . .
69(4) . . .
62(4) . . .
41.7(33) . . .
52(4) . . .
56(4) . . .
77(5) . . .
56(4) . . .
56(4) . . .
63(4) . . .
67(4) . . .
63(4) . . .
68(4) . . .
63(4) . . .
71(4) . . .
65(4) . . .
64(4) . . .
59(4) . . .
57(4) . . .
60(4) . . .
54(4) . . .
63(4) . . .
62(4) . . .
64(5) . . .
62(4) . . .
56(4) . . .
59(4) . . .
68(5) . . .
65(4) . . .
62(4) . . .
60(4) . . .
56(4) . . .
74(5) . . .
64(4) . . .
64(4) . . .
69(4) . . .
65(4) . . .
69(5) . . .
72(5) . . .
65(4) . . .
66(4) . . .
58(4) . . .
65(4) . . .
69(4) . . .
73(4) . . .
64(4) . . .
63(4) . . .
60(4) . . .
66(4) . . .
64(4) . . .
66(4) . . .
61(4) . . .
52(4) . . .
68(4) . . .
57(4) . . .
57(4) . . .
59(4) . . .
63(4) . . .
62(4) . . .
62(4) . . .
60(4) . . .
57(4) . . .
44(4) . . .
65(4) . . .
60(4) . . .
58(4) . . .
55(4) . . .
49(4) . . .
56(4) . . .
66(4) . . .
63(4) . . .
68(4) . . .
66(4) . . .
65(5) . . .
56(4) . . .
58(4) . . .
62(4) . . .
68(5) . . .
58(4) . . .
66(4) . . .
59(4) . . .
66(4) . . .
59(4) . . .
72(5) . . .
64(4) . . .
58(4) . . .
63(4) . . .
68(5) . . .
61(4) . . .
56(4) . . .
59(4) . . .
58(4) . . .
58(4) . . .
61(4) . . .
56(4) . . .
62(4) . . .
46(4) . . .
53(4) . . .
61(4) . . .
60(4) . . .
52(4) . . .
59(4) . . .
53(4) . . .
54(4) . . .
61(4) . . .
65(4) . . .
75(5) . . .
65(4) . . .
66(4) . . .
67(4) . . .
55(4) . . .
55(4) . . .
50(4) . . .
56(4) . . .
60(4) . . .
71(5) . . .
60(4) . . .
58(4) . . .
52(4) . . .
66(4) . . .
63(4) . . .
60(4) . . .
63(4) . . .
65(4) . . .
57(4) . . .
60(4) . . .
53(4) . . .
51(4) . . .
69(4) . . .
67(4) . . .
62(4) . . .
54(4) . . .
57(4) . . .
64(4) . . .
61(4) . . .
59(4) . . .
60(4) . . .
71(5) . . .
48(4) . . .
62(4) . . .
76(5) . . .
54(4) . . .
64(4) . . .
58(4) . . .
58(4) . . .
70(5) . . .
60(4) . . .
68(4) . . .
63(4) . . .
57(4) . . .
57(4) . . .
65(4) . . .
63(4) . . .
63(4) . . .
68(4) . . .
58(4) . . .
56(4) . . .
59(4) . . .
63(4) . . .
59(4) . . .
63(5) . . .
69(5) . . .
63(4) . . .
55(4) . . .
68(5) . . .
58(4) . . .
56(4) . . .
53(4) . . .
60(4) . . .
59(4) . . .
63(4) . . .
59(4) . . .
57(4) . . .
69(4) . . .
66(4) . . .
48(4) . . .
53(4) . . .
66(4) . . .
64(4) . . .
61(4) . . .
60(4) . . .
52(4) . . .
60(4) . . .
60(4) . . .
70(5) . . .
66(4) . . .
60(4) . . .
60(4) . . .
65(4) . . .
66(4) . . .
67(4) . . .
64(4) . . .
55(4) . . .
56(4) . . .
55(4) . . .
60(4) . . .
59(4) . . .
64(4) . . .
63(4) . . .
56(4) . . .
58(4) . . .
64(4) . . .
61(4) . . .
65(4) . . .
62(4) . . .
61(4) . . .
57(4) . . .
59(4) . . .
56(4) . . .
62(4) . . .
59(4) . . .
53(4) . . .
55(4) . . .
73(5) . . .
65(4) . . .
57(4) . . .
61(4) . . .
64(4) . . .
66(4) . . .
59(4) . . .
49(4) . . .
61(4) . . .
65(4) . . .
59(4) . . .
56(4) . . .
50(4) . . .
56(4) . . .
60(4) . . .
44(4) . . .
47(4) . . .
62(4) . . .
63(4) . . .
57(4) . . .
52(4) . . .
63(4) . . .
53(4) . . .
54(4) . . .
57(4) . . .
59(4) . . .
58(4) . . .
59(4) . . .
56(4) . . .
52(4) . . .
65(4) . . .
63(4) . . .
56(4) . . .
62(4) . . .
57(4) . . .
56(4) . . .
69(4) . . .
71(4) . . .
62(4) . . .
57(4) . . .
62(4) . . .
68(4) . . .
60(4) . . .
66(4) . . .
65(4) . . .
67(5) . . .
63(4) . . .
66(4) . . .
56(4) . . .
54(4) . . .
59(4) . . .
62(4) . . .
58(4) . . .
59(4) . . .
66(4) . . .
63(4) . . .
59(4) . . .
54(4) . . .
58(4) . . .
54(4) . . .
64(5) . . .
58(4) . . .
57(4) . . .
69(4) . . .
57(4) . . .
55(4) . . .
55(4) . . .
68(4) . . .
59(4) . . .
62(4) . . .
57(4) . . .
55(4) . . .
71(4) . . .
55(4) . . .
56(4) . . .
53(4) . . .
60(4) . . .
52(4) . . .
61(4) . . .
62(4) . . .
59(4) . . .
66(4) . . .
75(5) . . .
61(4) . . .
58(4) . . .
51(4) . . .
52(4) . . .
57(4) . . .
68(4) . . .
69(5) . . .
53(4) . . .
56(4) . . .
57(4) . . .
52(4) . . .
54(4) . . .
66(4) . . .
66(4) . . .
67(4) . . .
66(4) . . .
57(4) . . .
61(4) . . .
63(4) . . .
71(4) . . .
60(4) . . .
62(5) . . .
56(4) . . .
64(4) . . .
50(4) . . .
61(4) . . .
66(4) . . .
61(4) . . .
55(4) . . .
60(4) . . .
60(4) . . .
55(4) . . .
59(4) . . .
53(4) . . .
54(4) . . .
59(4) . . .
59(4) . . .
65(4) . . .
54(4) . . .
63(4) . . .
62(4) . . .
62(4) . . .
71(4) . . .
62(4) . . .
67(5) . . .
56(4) . . .
53(4) . . .
55(4) . . .
59(4) . . .
69(4) . . .
59(4) . . .
54(4) . . .
69(4) . . .
58(4) . . .
59(4) . . .
51(4) . . .
63(4) . . .
63(4) . . .
48(4) . . .
49(4) . . .
57(4) . . .
60(4) . . .
53(4) . . .
66(4) . . .
60(4) . . .
50(4) . . .
60(4) . . .
55(4) . . .
61(4) . . .
62(4) . . .
63(4) . . .
64(4) . . .
62(4) . . .
56(4) . . .
59(4) . . .
55(4) . . .
64(4) . . .
58(4) . . .
59(4) . . .
60(4) . . .
59(4) . . .
59(4) . . .
56(4) . . .
61(4) . . .
55(4) . . .
59(4) . . .
65(4) . . .
63(4) . . .
70(4) . . .
61(4) . . .
58(4) . . .
61(4) . . .
47(4) . . .
56(4) . . .
61(4) . . .
51(4) . . .
49(4) . . .
61(4) . . .
62(4) . . .
57(4) . . .
62(4) . . .
58(4) . . .
58(4) . . .
56(4) . . .
56(4) . . .
62(4) . . .
54(4) . . .
58(4) . . .
59(4) . . .
57(4) . . .
71(4) . . .
68(4) . . .
55(4) . . .
62(4) . . .
75(5) . . .
61(4) . . .
55(4) . . .
64(4) . . .
66(4) . . .
67(5) . . .
58(4) . . .
54(4) . . .
57(4) . . .
62(4) . . .
59(4) . . .
62(4) . . .
56(4) . . .
59(4) . . .
59(4) . . .
56(4) . . .
60(4) . . .
57(4) . . .
53(4) . . .
52(4) . . .
58(4) . . .
58(4) . . .
72(4) . . .
59(4) . . .
54(4) . . .
50(4) . . .
44.9(35) . . .
54(4) . . .
55(4) . . .
62(4) . . .
54(4) . . .
63(4) . . .
56(4) . . .
65(5) . . .
57(4) . . .
62(4) . . .
52(4) . . .
59(4) . . .
62(4) . . .
60(4) . . .
54(4) . . .
59(4) . . .
61(4) . . .
59(4) . . .
58(4) . . .
55(4) . . .
64(4) . . .
63(4) . . .
59(4) . . .
62(4) . . .
64(4) . . .
61(4) . . .
61(4) . . .
61(4) . . .
61(4) . . .
56(4) . . .
52(4) . . .
60(4) . . .
59(4) . . .
61(4) . . .
61(4) . . .
63(4) . . .
73(5) . . .
52(4) . . .
62(4) . . .
64(4) . . .
72(4) . . .
67(4) . . .
59(4) . . .
60(4) . . .
59(4) . . .
62(4) . . .
70(4) . . .
64(4) . . .
60(4) . . .
51(4) . . .
57(4) . . .
59(4) . . .
58(4) . . .
66(4) . . .
56(4) . . .
64(4) . . .
66(4) . . .
60(4) . . .
57(4) . . .
53(4) . . .
61(4) . . .
63(4) . . .
56(4) . . .
57(4) . . .
58(4) . . .
69(4) . . .
67(4) . . .
65(5) . . .
61(4) . . .
58(4) . . .
66(4) . . .
58(4) . . .
63(5) . . .
60(4) . . .
54(4) . . .
54(4) . . .
56(4) . . .
62(4) . . .
52(4) . . .
61(4) . . .
52(4) . . .
51(4) . . .
61(4) . . .
54(4) . . .
53(4) . . .
60(4) . . .
54(4) . . .
66(5) . . .
62(4) . . .
68(4) . . .
61(4) . . .
60(4) . . .
64(5) . . .
58(4) . . .
61(4) . . .
65(5) . . .
62(4) . . .
58(4) . . .
58(4) . . .
53(4) . . .
65(4) . . .
63(4) . . .
56(4) . . .
55(4) . . .
58(4) . . .
56(4) . . .
58(4) . . .
64(4) . . .
49(4) . . .
59(4) . . .
66(4) . . .
57(4) . . .
69(4) . . .
62(4) . . .
52(4) . . .
61(4) . . .
58(4) . . .
56(4) . . .
45(4) . . .
56(4) . . .
56(4) . . .
66(5) . . .
58(4) . . .
69(4) . . .
56(4) . . .
69(5) . . .
58(4) . . .
61(4) . . .
54(4) . . .
57(4) . . .
66(4) . . .
65(4) . . .
61(4) . . .
58(4) . . .
55(4) . . .
56(4) . . .
63(5) . . .
57(4) . . .
65(4) . . .
52(4) . . .
62(4) . . .
59(4) . . .
71(5) . . .
52(4) . . .
59(4) . . .
68(4) . . .
63(4) . . .
63(4) . . .
44.2(35) . . .
63(4) . . .
67(5) . . .
66(4) . . .
64(4) . . .
63(4) . . .
64(4) . . .
65(5) . . .
52(4) . . .
55(4) . . .
54(4) . . .
58(4) . . .
52(4) . . .
47(4) . . .
55(4) . . .
54(4) . . .
70(5) . . .
67(4) . . .
59(4) . . .
62(4) . . .
63(4) . . .
59(4) . . .
70(5) . . .
66(4) . . .
58(4) . . .
61(4) . . .
65(4) . . .
68(5) . . .
56(4) . . .
57(4) . . .
56(4) . . .
61(4) . . .
41.6(34) . . .
64(4) . . .
62(4) . . .
58(4) . . .
60(4) . . .
59(4) . . .
67(4) . . .
55(4) . . .
71(5) . . .
73(5) . . .
70(5) . . .
67(4) . . .
57(4) . . .
58(4) . . .
53(4) . . .
60(4) . . .
57(4) . . .
56(4) . . .
62(4) . . .
65(5) . . .
63(4) . . .
55(4) . . .
51(4) . . .
52(4) . . .
47(4) . . .
63(4) . . .
66(4) . . .
64(4) . . .
62(4) . . .
67(4) . . .
66(4) . . .
64(4) . . .
65(4) . . .
52(4) . . .
52(4) . . .
54(4) . . .
64(4) . . .
60(4) . . .
60(4) . . .
63(5) . . .
58(4) . . .
64(4) . . .
59(4) . . .
58(4) . . .
53(4) . . .
64(4) . . .
61(4) . . .
60(4) . . .
58(4) . . .
58(4) . . .
59(4) . . .
52(4) . . .
56(4) . . .
63(4) . . .
61(4) . . .
61(4) . . .
54(4) . . .
60(4) . . .
64(4) . . .
54(4) . . .
62(4) . . .
59(4) . . .
59(4) . . .
56(4) . . .
57(4) . . .
67(4) . . .
70(4) . . .
70(5) . . .
57(4) . . .
58(4) . . .
59(4) . . .
63(4) . . .
59(4) . . .
60(4) . . .
51(4) . . .
56(4) . . .
50(4) . . .
57(4) . . .
65(4) . . .
64(4) . . .
52(4) . . .
58(4) . . .
64(4) . . .
53(4) . . .
54(4) . . .
64(4) . . .
66(4) . . .
67(4) . . .
59(4) . . .
56(4) . . .
70(4) . . .
59(4) . . .
66(4) . . .
61(4) . . .
64(4) . . .
64(4) . . .
56(4) . . .
60(4) . . .
58(4) . . .
62(4) . . .
61(4) . . .
65(4) . . .
64(4) . . .
61(4) . . .
62(4) . . .
66(4) . . .
68(4) . . .
62(4) . . .
65(5) . . .
74(5) . . .
64(4) . . .
49(4) . . .
58(4) . . .
67(5) . . .
50(4) . . .
55(4) . . .
45.5(35) . . .
62(4) . . .
47(4) . . .
48(4) . . .
53(4) . . .
53(4) . . .
65(4) . . .
63(4) . . .
64(4) . . .
57(4) . . .
54(4) . . .
55(4) . . .
66(5) . . .
69(4) . . .
55(4) . . .
56(4) . . .
53(4) . . .
57(4) . . .
57(4) . . .
65(4) . . .
62(4) . . .
48(4) . . .
58(4) . . .
57(4) . . .
68(4) . . .
77(5) . . .
56(4) . . .
66(4) . . .
67(4) . . .
56(4) . . .
50(4) . . .
61(4) . . .
53(4) . . .
59(4) . . .
55(4) . . .
63(4) . . .
53(4) . . .
60(4) . . .
56(4) . . .
64(4) . . .
61(4) . . .
61(4) . . .
64(4) . . .
62(4) . . .
56(4) . . .
63(4) . . .
61(4) . . .
56(4) . . .
60(4) . . .
65(4) . . .
55(4) . . .
53(4) . . .
60(5) . . .
69(4) . . .
56(4) . . .
55(4) . . .
60(4) . . .
62(4) . . .
55(4) . . .
54(4) . . .
58(4) . . .
60(4) . . .
67(4) . . .
57(4) . . .
66(4) . . .
52(4) . . .
53(4) . . .
58(4) . . .
53(4) . . .
65(4) . . .
54(4) . . .
60(4) . . .
63(4) . . .
59(4) . . .
55(4) . . .
54(4) . . .
58(4) . . .
52(4) . . .
52(4) . . .
53(4) . . .
55(4) . . .
64(4) . . .
72(4) . . .
64(4) . . .
53(4) . . .
61(4) . . .
61(4) . . .
59(4) . . .
70(5) . . .
56(4) . . .
67(5) . . .
68(4) . . .
66(4) . . .
53(4) . . .
62(4) . . .
63(4) . . .
60(4) . . .
49(4) . . .
51(4) . . .
66(4) . . .
55(4) . . .
50(4) . . .
68(4) . . .
64(4) . . .
64(4) . . .
56(4) . . .
54(4) . . .
43.6(35) . . .
51(4) . . .
61(4) . . .
58(4) . . .
66(4) . . .
53(4) . . .
54(4) . . .
47(4) . . .
51(4) . . .
58(4) . . .
52(4) . . .
59(4) . . .
55(4) . . .
56(4) . . .
64(4) . . .
63(4) . . .
63(4) . . .
58(4) . . .
54(4) . . .
64(4) . . .
52(4) . . .
49(4) . . .
59(4) . . .
57(4) . . .
61(4) . . .
60(4) . . .
56(4) . . .
62(4) . . .
61(4) . . .
65(4) . . .
54(4) . . .
47(4) . . .
60(4) . . .
48(4) . . .
48(4) . . .
57(4) . . .
64(4) . . .
46(4) . . .
62(4) . . .
60(4) . . .
54(4) . . .
52(4) . . .
66(4) . . .
59(4) . . .
52(4) . . .
65(4) . . .
54(4) . . .
54(4) . . .
61(4) . . .
59(4) . . .
53(4) . . .
56(4) . . .
57(4) . . .
60(4) . . .
55(4) . . .
46(4) . . .
57(4) . . .
52(4) . . .
49(4) . . .
68(4) . . .
60(4) . . .
62(4) . . .
63(4) . . .
51(4) . . .
64(4) . . .
50(4) . . .
60(4) . . .
57(4) . . .
57(4) . . .
60(4) . . .
61(4) . . .
54(4) . . .
56(4) . . .
61(4) . . .
60(4) . . .
57(4) . . .
49(4) . . .
54(4) . . .
48(4) . . .
56(4) . . .
59(4) . . .
50(4) . . .
61(4) . . .
60(4) . . .
57(4) . . .
66(4) . . .
58(4) . . .
59(4) . . .
63(4) . . .
69(4) . . .
59(4) . . .
48(4) . . .
55(4) . . .
55(4) . . .
49(4) . . .
57(4) . . .
62(4) . . .
68(4) . . .
54(4) . . .
61(4) . . .
65(4) . . .
54(4) . . .
62(4) . . .
60(4) . . .
69(5) . . .
56(4) . . .
64(4) . . .
63(4) . . .
62(4) . . .
72(5) . . .
66(4) . . .
57(4) . . .
61(4) . . .
58(4) . . .
63(4) . . .
58(4) . . .
48(4) . . .
53(4) . . .
63(4) . . .
51(4) . . .
58(4) . . .
57(4) . . .
53(4) . . .
58(4) . . .
62(4) . . .
60(4) . . .
60(4) . . .
54(4) . . .
53(4) . . .
53(4) . . .
57(4) . . .
55(4) . . .
50(4) . . .
57(4) . . .
59(4) . . .
52(4) . . .
54(4) . . .
62(4) . . .
60(4) . . .
58(4) . . .
73(5) . . .
71(4) . . .
64(4) . . .
65(4) . . .
51(4) . . .
59(4) . . .
64(4) . . .
56(4) . . .
58(4) . . .
52(4) . . .
55(4) . . .
54(4) . . .
54(4) . . .
67(4) . . .
67(4) . . .
53(4) . . .
66(4) . . .
57(4) . . .
54(4) . . .
49(4) . . .
47(4) . . .
59(4) . . .
56(4) . . .
55(4) . . .
59(4) . . .
51(4) . . .
64(4) . . .
59(4) . . .
61(4) . . .
60(4) . . .
57(4) . . .
62(4) . . .
52(4) . . .
55(4) . . .
56(4) . . .
57(4) . . .
58(4) . . .
68(4) . . .
53(4) . . .
58(4) . . .
66(4) . . .
62(4) . . .
58(4) . . .
71(5) . . .
57(4) . . .
56(4) . . .
58(4) . . .
58(4) . . .
54(4) . . .
61(4) . . .
55(4) . . .
60(4) . . .
63(4) . . .
71(5) . . .
63(4) . . .
67(4) . . .
72(4) . . .
63(4) . . .
70(4) . . .
71(5) . . .
48(4) . . .
54(4) . . .
56(4) . . .
53(4) . . .
55(4) . . .
59(4) . . .
52(4) . . .
54(4) . . .
53(4) . . .
58(4) . . .
57(4) . . .
59(4) . . .
56(4) . . .
59(4) . . .
55(4) . . .
53(4) . . .
73(4) . . .
56(4) . . .
48(4) . . .
68(4) . . .
58(4) . . .
56(4) . . .
55(4) . . .
56(4) . . .
62(4) . . .
49(4) . . .
60(4) . . .
49(4) . . .
50(4) . . .
53(4) . . .
65(4) . . .
60(4) . . .
50(4) . . .
60(4) . . .
61(4) . . .
51(4) . . .
62(4) . . .
52(4) . . .
48(4) . . .
54(4) . . .
72(4) . . .
54(4) . . .
49(4) . . .
60(4) . . .
57(4) . . .
68(4) . . .
57(4) . . .
56(4) . . .
63(4) . . .
57(4) . . .
52(4) . . .
52(4) . . .
51(4) . . .
59(4) . . .
59(4) . . .
60(4) . . .
47(4) . . .
59(4) . . .
65(5) . . .
57(4) . . .
51(4) . . .
55(4) . . .
62(4) . . .
53(4) . . .
57(4) . . .
57(4) . . .
52(4) . . .
56(4) . . .
49(4) . . .
47(4) . . .
65(4) . . .
74(5) . . .
69(5) . . .
69(4) . . .
59(4) . . .
44(4) . . .
53(4) . . .
56(4) . . .
55(4) . . .
60(4) . . .
60(4) . . .
59(4) . . .
60(4) . . .
69(4) . . .
58(4) . . .
60(4) . . .
55(4) . . .
57(4) . . .
63(4) . . .
49(4) . . .
66(4) . . .
59(4) . . .
44(4) . . .
39(4) . . .
57(4) . . .
58(4) . . .
52(4) . . .
55(4) . . .
60(4) . . .
66(4) . . .
63(4) . . .
61(4) . . .
66(4) . . .
54(4) . . .
62(4) . . .
54(4) . . .
54(4) . . .
62(4) . . .
71(4) . . .
71(4) . . .
62(4) . . .
60(4) . . .
62(4) . . .
56(4) . . .
56(4) . . .
63(4) . . .
61(4) . . .
59(4) . . .
53(4) . . .
60(4) . . .
55(4) . . .
73(5) . . .
57(4) . . .
54(4) . . .
49(4) . . .
56(4) . . .
60(4) . . .
62(4) . . .
57(4) . . .
67(4) . . .
54(4) . . .
58(4) . . .
60(4) . . .
52(4) . . .
54(4) . . .
60(4) . . .
61(4) . . .
58(4) . . .
62(4) . . .
65(4) . . .
60(4) . . .
52(4) . . .
53(4) . . .
59(4) . . .
53(4) . . .
56(4) . . .
56(4) . . .
55(4) . . .
48(4) . . .
60(4) . . .
51(4) . . .
58(4) . . .
61(4) . . .
59(4) . . .
58(4) . . .
57(4) . . .
56(4) . . .
54(4) . . .
53(4) . . .
56(4) . . .
59(4) . . .
48(4) . . .
54(4) . . .
62(4) . . .
53(4) . . .
49(4) . . .
52(4) . . .
55(4) . . .
60(4) . . .
60(4) . . .
58(4) . . .
62(4) . . .
51(4) . . .
53(4) . . .
59(4) . . .
59(4) . . .
64(4) . . .
75(4) . . .
60(4) . . .
62(4) . . .
63(5) . . .
62(4) . . .
52(4) . . .
66(4) . . .
55(4) . . .
58(4) . . .
69(4) . . .
59(4) . . .
52(4) . . .
54(4) . . .
67(5) . . .
66(4) . . .
53(4) . . .
62(4) . . .
64(4) . . .
64(4) . . .
53(4) . . .
47(4) . . .
61(4) . . .
54(4) . . .
53(4) . . .
54(4) . . .
55(4) . . .
56(4) . . .
63(4) . . .
51(4) . . .
55(4) . . .
57(4) . . .
51(4) . . .
51(4) . . .
61(4) . . .
55(4) . . .
66(4) . . .
53(4) . . .
60(4) . . .
64(4) . . .
66(4) . . .
57(4) . . .
60(4) . . .
62(4) . . .
51(4) . . .
52(4) . . .
48(4) . . .
46(4) . . .
61(4) . . .
67(4) . . .
53(4) . . .
61(4) . . .
61(4) . . .
61(4) . . .
59(4) . . .
57(4) . . .
69(4) . . .
65(4) . . .
55(4) . . .
52(4) . . .
50(4) . . .
57(4) . . .
56(4) . . .
54(4) . . .
59(4) . . .
54(4) . . .
50(4) . . .
46(4) . . .
56(4) . . .
60(4) . . .
53(4) . . .
59(4) . . .
61(4) . . .
60(4) . . .
59(4) . . .
58(4) . . .
51(4) . . .
54(4) . . .
55(4) . . .
55(4) . . .
58(4) . . .
59(4) . . .
63(4) . . .
67(4) . . .
59(4) . . .
56(4) . . .
52(4) . . .
65(5) . . .
58(4) . . .
51(4) . . .
51(4) . . .
63(4) . . .
61(4) . . .
62(4) . . .
62(4) . . .
66(4) . . .
47(4) . . .
52(4) . . .
55(4) . . .
50(4) . . .
58(4) . . .
58(4) . . .
53(4) . . .
47(4) . . .
59(4) . . .
58(4) . . .
60(4) . . .
62(4) . . .
59(4) . . .
63(4) . . .
65(4) . . .
52(4) . . .
58(4) . . .
56(4) . . .
53(4) . . .
57(4) . . .
61(4) . . .
54(4) . . .
70(5) . . .
60(4) . . .
51(4) . . .
56(4) . . .
59(4) . . .
50(4) . . .
60(4) . . .
68(4) . . .
66(5) . . .
57(4) . . .
60(4) . . .
60(4) . . .
50(4) . . .
51(4) . . .
60(4) . . .
58(4) . . .
64(4) . . .
47(4) . . .
61(4) . . .
57(4) . . .
61(4) . . .
51(4) . . .
57(4) . . .
53(4) . . .
58(4) . . .
55(4) . . .
54(4) . . .
47(4) . . .
57(4) . . .
56(4) . . .
50(4) . . .
37.4(31) . . .
60(5) . . .
54(4) . . .
52(4) . . .
54(4) . . .
58(4) . . .
56(4) . . .
61(4) . . .
60(4) . . .
61(4) . . .
58(4) . . .
44.4(35) . . .
61(4) . . .
53(4) . . .
58(4) . . .
55(4) . . .
57(4) . . .
50(4) . . .
56(4) . . .
64(4) . . .
60(4) . . .
49(4) . . .
51(4) . . .
53(4) . . .
55(4) . . .
47(4) . . .
57(4) . . .
56(4) . . .
54(4) . . .
59(4) . . .
51(4) . . .
66(5) . . .
56(4) . . .
59(4) . . .
60(4) . . .
50(4) . . .
55(4) . . .
62(4) . . .
60(4) . . .
67(4) . . .
61(4) . . .
51(4) . . .
58(4) . . .
65(4) . . .
65(4) . . .
72(5) . . .
59(4) . . .
66(4) . . .
64(4) . . .
55(4) . . .
57(4) . . .
64(4) . . .
53(4) . . .
56(4) . . .
58(4) . . .
53(4) . . .
58(4) . . .
59(4) . . .
67(4) . . .
53(4) . . .
60(4) . . .
62(4) . . .
63(4) . . .
57(4) . . .
48(4) . . .
64(4) . . .
57(4) . . .
58(4) . . .
59(4) . . .
60(4) . . .
66(4) . . .
62(4) . . .
49(4) . . .
62(4) . . .
57(4) . . .
65(4) . . .
67(5) . . .
64(4) . . .
51(4) . . .
45(4) . . .
51(4) . . .
51(4) . . .
57(4) . . .
52(4) . . .
57(4) . . .
57(4) . . .
64(4) . . .
70(5) . . .
57(4) . . .
57(4) . . .
57(4) . . .
43.6(35) . . .
60(4) . . .
51(4) . . .
65(4) . . .
57(4) . . .
54(4) . . .
61(4) . . .
74(4) . . .
54(4) . . .
60(4) . . .
54(4) . . .
51(4) . . .
56(4) . . .
61(4) . . .
60(4) . . .
59(4) . . .
44.3(34) . . .
56(4) . . .
62(4) . . .
54(4) . . .
54(4) . . .
54(4) . . .
54(4) . . .
55(4) . . .
59(4) . . .
53(4) . . .
65(4) . . .
66(4) . . .
62(4) . . .
67(5) . . .
55(4) . . .
54(4) . . .
58(4) . . .
49(4) . . .
44(4) . . .
56(4) . . .
58(4) . . .
50(4) . . .
52(4) . . .
62(4) . . .
64(4) . . .
61(4) . . .
68(5) . . .
62(4) . . .
70(5) . . .
56(4) . . .
64(4) . . .
62(4) . . .
50(4) . . .
55(4) . . .
53(4) . . .
57(4) . . .
52(4) . . .
52(4) . . .
46(4) . . .
64(4) . . .
62(4) . . .
50(4) . . .
51(4) . . .
57(4) . . .
49(4) . . .
53(4) . . .
56(4) . . .
58(4) . . .
49(4) . . .
54(4) . . .
47(4) . . .
69(5) . . .
61(4) . . .
56(4) . . .
60(4) . . .
63(4) . . .
57(4) . . .
56(4) . . .
54(4) . . .
60(4) . . .
52(4) . . .
56(4) . . .
55(4) . . .
60(4) . . .
67(4) . . .
52(4) . . .
54(4) . . .
55(4) . . .
55(4) . . .
64(4) . . .
63(4) . . .
53(4) . . .
66(4) . . .
54(4) . . .
55(4) . . .
56(4) . . .
60(4) . . .
60(4) . . .
58(4) . . .
54(4) . . .
58(4) . . .
47(4) . . .
53(4) . . .
51(4) . . .
49(4) . . .
63(4) . . .
68(4) . . .
67(4) . . .
62(4) . . .
59(4) . . .
55(4) . . .
52(4) . . .
53(4) . . .
56(4) . . .
46(4) . . .
59(4) . . .
60(4) . . .
65(4) . . .
68(4) . . .
57(4) . . .
57(4) . . .
57(4) . . .
49(4) . . .
71(4) . . .
46(4) . . .
55(4) . . .
53(4) . . .
48(4) . . .
56(4) . . .
68(4) . . .
64(4) . . .
61(4) . . .
63(4) . . .
58(4) . . .
61(4) . . .
50(4) . . .
58(4) . . .
55(4) . . .
60(4) . . .
57(4) . . .
52(4) . . .
64(4) . . .
62(4) . . .
49(4) . . .
57(4) . . .
54(4) . . .
56(4) . . .
56(4) . . .
60(4) . . .
56(4) . . .
55(4) . . .
55(4) . . .
55(4) . . .
57(4) . . .
57(4) . . .
54(4) . . .
51(4) . . .
48(4) . . .
50(4) . . .
56(4) . . .
65(5) . . .
54(4) . . .
52(4) . . .
47(4) . . .
53(4) . . .
64(5) . . .
52(4) . . .
59(4) . . .
53(4) . . .
49(4) . . .
61(4) . . .
61(4) . . .
59(4) . . .
64(4) . . .
64(4) . . .
64(4) . . .
66(4) . . .
53(4) . . .
62(4) . . .
64(4) . . .
57(4) . . .
52(4) . . .
51(4) . . .
54(4) . . .
54(4) . . .
53(4) . . .
55(4) . . .
57(4) . . .
59(4) . . .
58(4) . . .
57(4) . . .
50(4) . . .
48(4) . . .
60(4) . . .
67(4) . . .
58(4) . . .
54(4) . . .
50(4) . . .
54(4) . . .
58(4) . . .
55(4) . . .
53(4) . . .
41.2(33) . . .
60(4) . . .
55(4) . . .
56(4) . . .
55(4) . . .
52(4) . . .
58(4) . . .
49(4) . . .
60(4) . . .
51(4) . . .
52(4) . . .
60(4) . . .
70(5) . . .
57(4) . . .
60(4) . . .
63(4) . . .
56(4) . . .
66(5) . . .
53(4) . . .
63(4) . . .
61(4) . . .
62(4) . . .
59(4) . . .
57(4) . . .
57(4) . . .
59(4) . . .
62(4) . . .
68(5) . . .
54(4) . . .
54(4) . . .
48(4) . . .
50(4) . . .
59(4) . . .
54(4) . . .
62(4) . . .
62(4) . . .
70(4) . . .
59(4) . . .
71(4) . . .
55(4) . . .
59(4) . . .
56(4) . . .
58(4) . . .
51(4) . . .
59(4) . . .
58(4) . . .
63(4) . . .
48(4) . . .
65(5) . . .
75(4) . . .
50(4) . . .
51(4) . . .
60(4) . . .
54(4) . . .
51(4) . . .
51(4) . . .
48(4) . . .
69(5) . . .
57(4) . . .
62(4) . . .
60(4) . . .
64(4) . . .
64(4) . . .
62(4) . . .
43.5(34) . . .
62(4) . . .
55(4) . . .
56(4) . . .
68(4) . . .
64(4) . . .
57(4) . . .
63(4) . . .
52(4) . . .
51(4) . . .
44.6(34) . . .
53(4) . . .
57(4) . . .
59(4) . . .
52(4) . . .
50(4) . . .
59(4) . . .
61(4) . . .
59(4) . . .
53(4) . . .
58(4) . . .
56(4) . . .
51(4) . . .
64(4) . . .
59(4) . . .
59(4) . . .
66(5) . . .
61(4) . . .
61(4) . . .
57(4) . . .
62(4) . . .
50(4) . . .
52(4) . . .
62(4) . . .
60(4) . . .
60(4) . . .
53(4) . . .
63(4) . . .
63(4) . . .
50(4) . . .
55(4) . . .
43(4) . . .
55(4) . . .
59(4) . . .
61(4) . . .
56(4) . . .
56(4) . . .
58(4) . . .
66(4) . . .
60(4) . . .
52(4) . . .
59(4) . . .
60(4) . . .
56(4) . . .
53(4) . . .
52(4) . . .
52(4) . . .
56(4) . . .
45.4(35) . . .
62(4) . . .
47(4) . . .
56(4) . . .
51(4) . . .
63(4) . . .
55(4) . . .
56(4) . . .
57(4) . . .
59(4) . . .
57(4) . . .
69(4) . . .
54(4) . . .
54(4) . . .
54(4) . . .
50(4) . . .
53(4) . . .
58(4) . . .
52(4) . . .
47(4) . . .
58(4) . . .
58(4) . . .
54(4) . . .
61(4) . . .
65(4) . . .
63(4) . . .
61(4) . . .
64(4) . . .
57(4) . . .
61(4) . . .
56(4) . . .
61(4) . . .
55(4) . . .
60(4) . . .
63(4) . . .
52(4) . . .
69(4) . . .
62(4) . . .
51(4) . . .
53(4) . . .
57(4) . . .
48(4) . . .
48(4) . . .
60(4) . . .
62(4) . . .
46(4) . . .
59(4) . . .
57(4) . . .
54(4) . . .
53(4) . . .
45.5(35) . . .
54(4) . . .
54(4) . . .
57(4) . . .
59(4) . . .
69(4) . . .
52(4) . . .
59(4) . . .
53(4) . . .
59(4) . . .
55(4) . . .
56(4) . . .
56(4) . . .
55(4) . . .
57(4) . . .
55(4) . . .
60(4) . . .
58(4) . . .
62(4) . . .
55(4) . . .
49(4) . . .
44(4) . . .
49(4) . . .
58(4) . . .
49(4) . . .
54(4) . . .
52(4) . . .
62(4) . . .
61(4) . . .
63(4) . . .
48(4) . . .
53(4) . . .
56(4) . . .
47(4) . . .
48(4) . . .
47(4) . . .
49(4) . . .
41.6(34) . . .
48(4) . . .
59(4) . . .
64(4) . . .
67(5) . . .
68(4) . . .
59(4) . . .
59(4) . . .
57(4) . . .
57(4) . . .
56(4) . . .
58(4) . . .
63(4) . . .
58(4) . . .
53(4) . . .
53(4) . . .
49(4) . . .
53(4) . . .
58(4) . . .
61(4) . . .
58(4) . . .
58(4) . . .
57(4) . . .
61(4) . . .
52(4) . . .
69(4) . . .
61(4) . . .
58(4) . . .
67(5) . . .
57(4) . . .
63(4) . . .
60(4) . . .
56(4) . . .
56(4) . . .
57(4) . . .
58(4) . . .
55(4) . . .
48(4) . . .
51(4) . . .
55(4) . . .
57(4) . . .
58(4) . . .
51(4) . . .
47(4) . . .
52(4) . . .
59(4) . . .
54(4) . . .
48(4) . . .
65(4) . . .
58(4) . . .
51(4) . . .
62(4) . . .
64(4) . . .
59(4) . . .
48(4) . . .
55(4) . . .
68(4) . . .
60(4) . . .
59(5) . . .
63(4) . . .
62(4) . . .
67(4) . . .
51(4) . . .
51(4) . . .
65(4) . . .
60(4) . . .
49(4) . . .
60(4) . . .
65(4) . . .
51(4) . . .
54(4) . . .
49(4) . . .
54(4) . . .
61(4) . . .
48(4) . . .
65(4) . . .
59(4) . . .
59(4) . . .
61(4) . . .
56(4) . . .
52(4) . . .
57(4) . . .
48(4) . . .
50(4) . . .
59(4) . . .
57(4) . . .
47(4) . . .
64(5) . . .
54(4) . . .
58(4) . . .
56(4) . . .
49(4) . . .
58(4) . . .
52(4) . . .
53(4) . . .
43.5(34) . . .
62(4) . . .
57(4) . . .
50(4) . . .
45.4(35) . . .
72(4) . . .
56(4) . . .
52(4) . . .
57(4) . . .
60(4) . . .
57(4) . . .
60(4) . . .
55(4) . . .
56(4) . . .
66(4) . . .
62(4) . . .
66(4) . . .
57(4) . . .
50(4) . . .
73(4) . . .
56(4) . . .
65(4) . . .
54(4) . . .
64(4) . . .
57(4) . . .
51(4) . . .
70(5) . . .
63(4) . . .
59(4) . . .
51(4) . . .
51(4) . . .
57(4) . . .
55(4) . . .
50(4) . . .
61(4) . . .
58(4) . . .
58(4) . . .
65(4) . . .
60(4) . . .
52(4) . . .
53(4) . . .
60(4) . . .
61(4) . . .
63(4) . . .
55(4) . . .
53(4) . . .
55(4) . . .
56(4) . . .
56(4) . . .
50(4) . . .
51(4) . . .
54(4) . . .
56(4) . . .
62(4) . . .
56(4) . . .
51(4) . . .
50(4) . . .
53(4) . . .
57(4) . . .
61(4) . . .
57(4) . . .
54(4) . . .
49(4) . . .
52(4) . . .
60(4) . . .
49(4) . . .
49(4) . . .
54(4) . . .
60(4) . . .
65(4) . . .
63(4) . . .
61(4) . . .
49(4) . . .
58(4) . . .
53(4) . . .
50(4) . . .
53(4) . . .
59(4) . . .
49(4) . . .
55(4) . . .
61(4) . . .
55(4) . . .
55(4) . . .
63(4) . . .
59(4) . . .
55(4) . . .
60(4) . . .
56(4) . . .
46(4) . . .
50(4) . . .
58(4) . . .
62(4) . . .
49(4) . . .
52(4) . . .
55(4) . . .
62(4) . . .
55(4) . . .
50(4) . . .
64(4) . . .
57(4) . . .
51(4) . . .
56(4) . . .
55(4) . . .
52(4) . . .
59(4) . . .
64(5) . . .
58(4) . . .
62(4) . . .
56(4) . . .
52(4) . . .
60(4) . . .
55(4) . . .
56(4) . . .
43.2(34) . . .
55(4) . . .
54(4) . . .
52(4) . . .
62(4) . . .
66(4) . . .
60(4) . . .
56(4) . . .
55(4) . . .
56(4) . . .
46(4) . . .
62(4) . . .
55(4) . . .
54(4) . . .
56(4) . . .
56(4) . . .
63(4) . . .
57(4) . . .
53(4) . . .
63(4) . . .
67(4) . . .
57(4) . . .
64(4) . . .
62(4) . . .
57(4) . . .
59(4) . . .
69(5) . . .
58(4) . . .
55(4) . . .
66(4) . . .
51(4) . . .
53(4) . . .
60(4) . . .
43.4(35) . . .
46(4) . . .
55(4) . . .
54(4) . . .
58(4) . . .
47(4) . . .
54(4) . . .
62(4) . . .
52(4) . . .
60(4) . . .
53(4) . . .
55(4) . . .
55(4) . . .
61(4) . . .
57(4) . . .
53(4) . . .
49(4) . . .
58(4) . . .
61(4) . . .
60(4) . . .
55(4) . . .
47(4) . . .
52(4) . . .
53(4) . . .
47.5(35) . . .
57(4) . . .
53(4) . . .
58(4) . . .
59(4) . . .
63(4) . . .
54(4) . . .
49(4) . . .
53(4) . . .
56(4) . . .
57(4) . . .
71(4) . . .
62(4) . . .
50(4) . . .
47(4) . . .
54(4) . . .
51(4) . . .
66(4) . . .
65(4) . . .
57(4) . . .
62(4) . . .
54(4) . . .
66(4) . . .
49(4) . . .
62(5) . . .
50(4) . . .
55(4) . . .
52(4) . . .
53(4) . . .
50(4) . . .
53(4) . . .
60(4) . . .
56(4) . . .
58(4) . . .
61(4) . . .
69(4) . . .
63(4) . . .
53(4) . . .
53(4) . . .
67(5) . . .
52(4) . . .
55(4) . . .
63(4) . . .
58(4) . . .
50(4) . . .
56(4) . . .
58(4) . . .
56(4) . . .
52(4) . . .
50(4) . . .
59(4) . . .
58(4) . . .
51(4) . . .
49(4) . . .
64(4) . . .
68(4) . . .
75(4) . . .
52(4) . . .
55(4) . . .
56(4) . . .
56(4) . . .
52(4) . . .
45.2(34) . . .
58(4) . . .
62(4) . . .
54(4) . . .
50(4) . . .
57(4) . . .
56(4) . . .
57(4) . . .
51(4) . . .
55(4) . . .
65(4) . . .
47(4) . . .
55(4) . . .
59(4) . . .
70(5) . . .
54(4) . . .
55(4) . . .
68(5) . . .
55(4) . . .
52(4) . . .
64(4) . . .
62(4) . . .
62(4) . . .
68(4) . . .
56(4) . . .
63(5) . . .
50(4) . . .
53(4) . . .
61(4) . . .
52(4) . . .
53(4) . . .
49(4) . . .
63(4) . . .
60(4) . . .
67(4) . . .
60(4) . . .
60(4) . . .
52(4) . . .
54(4) . . .
50(4) . . .
61(4) . . .
54(4) . . .
56(4) . . .
64(4) . . .
47(4) . . .
51(4) . . .
51(4) . . .
60(4) . . .
48(4) . . .
49(4) . . .
47(4) . . .
50(4) . . .
49(4) . . .
48(4) . . .
53(4) . . .
53(4) . . .
57(4) . . .
51(4) . . .
55(4) . . .
57(4) . . .
63(4) . . .
56(4) . . .
64(4) . . .
58(4) . . .
67(5) . . .
48(4) . . .
61(4) . . .
58(4) . . .
57(4) . . .
51(4) . . .
51(4) . . .
41.7(34) . . .
56(4) . . .
57(4) . . .
57(4) . . .
59(4) . . .
53(4) . . .
49(4) . . .
53(4) . . .
62(5) . . .
58(4) . . .
65(4) . . .
54(4) . . .
60(4) . . .
57(4) . . .
57(4) . . .
51(4) . . .
56(4) . . .
57(4) . . .
56(4) . . .
52(4) . . .
55(4) . . .
60(4) . . .
53(4) . . .
49(4) . . .
61(4) . . .
48(4) . . .
60(4) . . .
57(4) . . .
59(4) . . .
61(4) . . .
48(4) . . .
57(4) . . .
61(4) . . .
60(4) . . .
61(4) . . .
54(4) . . .
64(4) . . .
64(4) . . .
62(4) . . .
63(4) . . .
58(4) . . .
57(4) . . .
54(4) . . .
52(4) . . .
58(4) . . .
48(4) . . .
50(4) . . .
45(4) . . .
54(4) . . .
49(4) . . .
59(4) . . .
56(4) . . .
69(5) . . .
57(4) . . .
63(4) . . .
68(4) . . .
61(4) . . .
59(4) . . .
57(4) . . .
57(4) . . .
58(4) . . .
47(4) . . .
48(4) . . .
48(4) . . .
48(4) . . .
55(4) . . .
58(4) . . .
61(5) . . .
56(4) . . .
48(4) . . .
58(4) . . .
54(4) . . .
50(4) . . .
44(4) . . .
59(4) . . .
52(4) . . .
59(4) . . .
55(4) . . .
53(4) . . .
65(4) . . .
51(4) . . .
58(4) . . .
58(4) . . .
58(4) . . .
54(4) . . .
55(4) . . .
65(4) . . .
62(4) . . .
50(4) . . .
62(4) . . .
57(4) . . .
63(4) . . .
59(4) . . .
60(4) . . .
43.3(35) . . .
51(4) . . .
54(4) . . .
57(4) . . .
54(4) . . .
63(4) . . .
59(4) . . .
60(4) . . .
53(4) . . .
61(4) . . .
47(4) . . .
53(4) . . .
59(4) . . .
56(4) . . .
54(4) . . .
59(4) . . .
48(4) . . .
61(5) . . .
47(4) . . .
63(4) . . .
69(4) . . .
53(4) . . .
57(4) . . .
66(5) . . .
48(4) . . .
60(4) . . .
55(4) . . .
66(5) . . .
53(4) . . .
59(4) . . .
53(4) . . .
53(4) . . .
64(4) . . .
55(4) . . .
63(4) . . .
64(4) . . .
60(4) . . .
51(4) . . .
61(4) . . .
61(4) . . .
50(4) . . .
52(4) . . .
54(4) . . .
60(4) . . .
62(4) . . .
59(4) . . .
50(4) . . .
55(4) . . .
54(4) . . .
41.8(34) . . .
57(4) . . .
54(4) . . .
52(4) . . .
64(4) . . .
59(4) . . .
50(4) . . .
65(4) . . .
73(5) . . .
54(4) . . .
63(4) . . .
65(4) . . .
63(4) . . .
53(4) . . .
56(4) . . .
52(4) . . .
46(4) . . .
48(4) . . .
56(4) . . .
58(4) . . .
58(4) . . .
56(4) . . .
61(4) . . .
58(4) . . .
61(4) . . .
51(4) . . .
58(4) . . .
48(4) . . .
46(4) . . .
49(4) . . .
57(4) . . .
53(4) . . .
55(4) . . .
67(5) . . .
55(4) . . .
44.0(35) . . .
54(4) . . .
64(4) . . .
56(4) . . .
55(4) . . .
49(4) . . .
48(4) . . .
47(4) . . .
58(4) . . .
48(4) . . .
49(4) . . .
59(4) . . .
64(4) . . .
59(4) . . .
56(4) . . .
51(4) . . .
49(4) . . .
55(4) . . .
47(4) . . .
44.1(35) . . .
50(4) . . .
46(4) . . .
49(4) . . .
56(4) . . .
59(4) . . .
55(4) . . .
53(4) . . .
58(4) . . .
52(4) . . .
54(4) . . .
52(4) . . .
54(4) . . .
54(4) . . .
50(4) . . .
41.5(34) . . .
53(4) . . .
56(4) . . .
63(4) . . .
53(4) . . .
61(4) . . .
55(4) . . .
58(4) . . .
55(4) . . .
52(4) . . .
51(4) . . .
50(4) . . .
55(4) . . .
63(4) . . .
59(4) . . .
62(4) . . .
53(4) . . .
60(4) . . .
51(4) . . .
57(4) . . .
68(4) . . .
66(4) . . .
54(4) . . .
53(4) . . .
64(4) . . .
72(4) . . .
54(4) . . .
50(4) . . .
59(4) . . .
36.9(31) . . .
52(4) . . .
58(4) . . .
64(4) . . .
70(5) . . .
57(4) . . .
59(4) . . .
62(4) . . .
46(4) . . .
53(4) . . .
56(4) . . .
47(4) . . .
57(4) . . .
54(4) . . .
58(4) . . .
57(4) . . .
56(4) . . .
66(4) . . .
60(4) . . .
61(4) . . .
48(4) . . .
53(4) . . .
55(4) . . .
54(4) . . .
67(4) . . .
66(4) . . .
71(5) . . .
57(4) . . .
55(4) . . .
61(4) . . .
66(4) . . .
53(4) . . .
68(5) . . .
59(4) . . .
58(4) . . .
60(4) . . .
56(4) . . .
68(5) . . .
56(4) . . .
52(4) . . .
48(4) . . .
50(4) . . .
55(4) . . .
55(4) . . .
55(4) . . .
56(4) . . .
56(4) . . .
51(4) . . .
58(4) . . .
64(4) . . .
57(4) . . .
59(4) . . .
55(4) . . .
49(4) . . .
51(4) . . .
53(4) . . .
54(4) . . .
54(4) . . .
40.8(33) . . .
53(4) . . .
63(4) . . .
63(4) . . .
50(4) . . .
53(4) . . .
49(4) . . .
60(4) . . .
54(4) . . .
63(4) . . .
61(4) . . .
57(4) . . .
59(4) . . .
59(4) . . .
65(4) . . .
51(4) . . .
65(4) . . .
55(4) . . .
62(4) . . .
58(4) . . .
45.8(35) . . .
49(4) . . .
47(4) . . .
57(4) . . .
54(4) . . .
53(4) . . .
60(4) . . .
63(4) . . .
59(4) . . .
52(4) . . .
56(4) . . .
63(4) . . .
57(4) . . .
54(4) . . .
50(4) . . .
58(4) . . .
65(4) . . .
66(4) . . .
48(4) . . .
59(4) . . .
54(4) . . .
53(4) . . .
52(4) . . .
57(4) . . .
56(4) . . .
65(4) . . .
53(4) . . .
56(4) . . .
56(4) . . .
62(4) . . .
68(4) . . .
58(4) . . .
53(4) . . .
62(4) . . .
61(4) . . .
60(4) . . .
45(4) . . .
65(5) . . .
64(4) . . .
57(4) . . .
60(4) . . .
55(4) . . .
53(4) . . .
54(4) . . .
55(4) . . .
58(4) . . .
55(4) . . .
56(4) . . .
45(4) . . .
50(4) . . .
52(4) . . .
52(4) . . .
50(4) . . .
65(4) . . .
59(4) . . .
57(4) . . .
55(4) . . .
52(4) . . .
58(4) . . .
49(4) . . .
59(4) . . .
57(4) . . .
59(4) . . .
49(4) . . .
64(4) . . .
61(4) . . .
51(4) . . .
58(4) . . .
49(4) . . .
53(4) . . .
58(4) . . .
55(4) . . .
53(4) . . .
40.2(32) . . .
60(4) . . .
53(4) . . .
63(4) . . .
52(4) . . .
46(4) . . .
59(4) . . .
57(4) . . .
56(4) . . .
64(4) . . .
50(4) . . .
46(4) . . .
43(4) . . .
51(4) . . .
48(4) . . .
53(4) . . .
51(4) . . .
56(4) . . .
47(4) . . .
47(4) . . .
56(4) . . .
42.4(34) . . .
57(4) . . .
65(5) . . .
60(4) . . .
55(4) . . .
55(4) . . .
58(4) . . .
52(4) . . .
57(4) . . .
58(4) . . .
61(4) . . .
55(4) . . .
69(4) . . .
60(4) . . .
54(4) . . .
50(4) . . .
57(4) . . .
67(4) . . .
59(4) . . .
65(4) . . .
56(4) . . .
54(4) . . .
53(4) . . .
58(4) . . .
59(4) . . .
60(4) . . .
59(4) . . .
60(4) . . .
55(4) . . .
55(4) . . .
51(4) . . .
51(4) . . .
69(5) . . .
53(4) . . .
46(4) . . .
60(4) . . .
63(4) . . .
57(4) . . .
64(4) . . .
66(4) . . .
53(4) . . .
64(4) . . .
59(4) . . .
63(4) . . .
59(4) . . .
48(4) . . .
60(4) . . .
49(4) . . .
55(4) . . .
50(4) . . .
53(4) . . .
64(5) . . .
53(4) . . .
57(4) . . .
66(4) . . .
51(4) . . .
59(4) . . .
58(4) . . .
60(4) . . .
65(4) . . .
57(4) . . .
55(4) . . .
54(4) . . .
50(4) . . .
56(4) . . .
58(4) . . .
59(4) . . .
47(4) . . .
56(4) . . .
60(4) . . .
60(4) . . .
65(4) . . .
57(4) . . .
47(4) . . .
63(4) . . .
49(4) . . .
55(4) . . .
52(4) . . .
51(4) . . .
58(4) . . .
61(4) . . .
55(4) . . .
56(4) . . .
56(4) . . .
53(4) . . .
46(4) . . .
57(4) . . .
53(4) . . .
60(4) . . .
55(4) . . .
50(4) . . .
62(4) . . .
53(4) . . .
72(4) . . .
52(4) . . .
57(4) . . .
74(5) . . .
55(4) . . .
52(4) . . .
61(4) . . .
58(4) . . .
65(4) . . .
72(4) . . .
59(4) . . .
61(4) . . .
51(4) . . .
56(4) . . .
55(4) . . .
58(4) . . .
59(4) . . .
59(4) . . .
59(4) . . .
50(4) . . .
65(4) . . .
53(4) . . .
53(4) . . .
49(4) . . .
55(4) . . .
60(4) . . .
50(4) . . .
56(4) . . .
66(4) . . .
52(4) . . .
60(4) . . .
58(4) . . .
51(4) . . .
56(4) . . .
54(4) . . .
62(4) . . .
49(4) . . .
51(4) . . .
61(4) . . .
48(4) . . .
53(4) . . .
48(4) . . .
54(4) . . .
60(4) . . .
57(4) . . .
48(4) . . .
53(4) . . .
56(4) . . .
56(4) . . .
58(4) . . .
58(4) . . .
70(5) . . .
62(4) . . .
52(4) . . .
54(4) . . .
54(4) . . .
55(4) . . .
55(4) . . .
60(4) . . .
49(4) . . .
52(4) . . .
50(4) . . .
57(4) . . .
64(4) . . .
57(4) . . .
56(4) . . .
59(4) . . .
56(4) . . .
58(4) . . .
63(4) . . .
55(4) . . .
56(4) . . .
66(5) . . .
59(4) . . .
56(4) . . .
55(4) . . .
52(4) . . .
55(4) . . .
45.2(35) . . .
53(4) . . .
63(4) . . .
59(4) . . .
47(4) . . .
53(4) . . .
60(4) . . .
61(4) . . .
44(4) . . .
54(4) . . .
51(4) . . .
55(4) . . .
70(5) . . .
67(4) . . .
63(4) . . .
56(4) . . .
53(4) . . .
54(4) . . .
56(4) . . .
56(4) . . .
62(4) . . .
47(4) . . .
57(4) . . .
62(4) . . .
66(4) . . .
59(4) . . .
66(5) . . .
62(5) . . .
56(4) . . .
47(4) . . .
47(4) . . .
48(4) . . .
67(5) . . .
62(4) . . .
61(4) . . .
61(4) . . .
61(4) . . .
61(4) . . .
49(4) . . .
49(4) . . .
60(4) . . .
62(4) . . .
56(4) . . .
57(4) . . .
70(4) . . .
59(4) . . .
56(4) . . .
63(4) . . .
57(4) . . .
53(4) . . .
58(4) . . .
56(4) . . .
58(4) . . .
43.3(35) . . .
46(4) . . .
51(4) . . .
58(4) . . .
57(4) . . .
47(4) . . .
53(4) . . .
54(4) . . .
49(4) . . .
47(4) . . .
61(4) . . .
59(4) . . .
57(4) . . .
52(4) . . .
59(4) . . .
74(5) . . .
60(4) . . .
68(4) . . .
56(4) . . .
62(4) . . .
51(4) . . .
59(4) . . .
56(4) . . .
53(4) . . .
55(4) . . .
61(4) . . .
58(4) . . .
62(4) . . .
60(4) . . .
53(4) . . .
56(4) . . .
51(4) . . .
50(4) . . .
53(4) . . .
57(4) . . .
56(4) . . .
51(4) . . .
58(4) . . .
58(4) . . .
54(4) . . .
64(4) . . .
57(4) . . .
56(4) . . .
48(4) . . .
54(4) . . .
55(4) . . .
67(4) . . .
46(4) . . .
57(4) . . .
57(4) . . .
59(4) . . .
53(4) . . .
51(4) . . .
54(4) . . .
55(4) . . .
44.1(35) . . .
46(4) . . .
59(4) . . .
57(4) . . .
62(4) . . .
57(4) . . .
51(4) . . .
58(4) . . .
64(4) . . .
51(4) . . .
63(4) . . .
65(4) . . .
58(4) . . .
50(4) . . .
54(4) . . .
72(4) . . .
62(4) . . .
52(4) . . .
55(4) . . .
65(4) . . .
52(4) . . .
61(4) . . .
65(5) . . .
59(4) . . .
53(4) . . .
63(4) . . .
60(4) . . .
56(4) . . .
57(4) . . .
61(4) . . .
52(4) . . .
54(4) . . .
63(5) . . .
61(4) . . .
55(4) . . .
51(4) . . .
56(4) . . .
51(4) . . .
45.9(35) . . .
51(4) . . .
57(4) . . .
66(4) . . .
57(4) . . .
52(4) . . .
62(4) . . .
60(4) . . .
64(4) . . .
64(4) . . .
57(4) . . .
59(4) . . .
58(4) . . .
63(4) . . .
49(4) . . .
59(4) . . .
61(4) . . .
64(4) . . .
62(4) . . .
48(4) . . .
53(4) . . .
45(4) . . .
58(4) . . .
55(4) . . .
60(4) . . .
59(4) . . .
52(4) . . .
60(5) . . .
54(4) . . .
53(4) . . .
63(4) . . .
52(4) . . .
57(4) . . .
63(4) . . .
57(4) . . .
48(4) . . .
55(4) . . .
62(4) . . .
54(4) . . .
57(4) . . .
57(4) . . .
54(4) . . .
52(4) . . .
56(4) . . .
55(4) . . .
52(4) . . .
59(4) . . .
55(4) . . .
59(4) . . .
47(4) . . .
61(4) . . .
56(4) . . .
47(4) . . .
66(5) . . .
54(4) . . .
63(4) . . .
61(4) . . .
50(4) . . .
47(4) . . .
56(4) . . .
58(4) . . .
64(4) . . .
68(5) . . .
58(4) . . .
53(4) . . .
54(4) . . .
45(4) . . .
50(4) . . .
47(4) . . .
54(4) . . .
57(4) . . .
51(4) . . .
60(4) . . .
58(4) . . .
48(4) . . .
55(4) . . .
53(4) . . .
53(4) . . .
44.3(35) . . .
57(4) . . .
51(4) . . .
60(4) . . .
55(4) . . .
59(4) . . .
56(4) . . .
58(4) . . .
56(4) . . .
48(4) . . .
58(4) . . .
51(4) . . .
52(4) . . .
56(4) . . .
48(4) . . .
72(5) . . .
58(4) . . .
55(4) . . .
52(4) . . .
56(4) . . .
61(4) . . .
50(4) . . .
51(4) . . .
51(4) . . .
44(4) . . .
53(4) . . .
62(4) . . .
45.5(35) . . .
55(4) . . .
66(4) . . .
58(4) . . .
59(4) . . .
50(4) . . .
53(4) . . .
52(4) . . .
57(4) . . .
50(4) . . .
52(4) . . .
53(4) . . .
53(4) . . .
54(4) . . .
60(4) . . .
52(4) . . .
54(4) . . .
61(4) . . .
59(4) . . .
48(4) . . .
52(4) . . .
49(4) . . .
59(4) . . .
52(4) . . .
55(4) . . .
66(4) . . .
59(4) . . .
60(4) . . .
45(4) . . .
55(4) . . .
58(4) . . .
55(4) . . .
49(4) . . .
66(4) . . .
61(4) . . .
53(4) . . .
58(4) . . .
68(4) . . .
60(4) . . .
52(4) . . .
64(4) . . .
63(4) . . .
49(4) . . .
65(4) . . .
48(4) . . .
54(4) . . .
57(4) . . .
61(4) . . .
57(4) . . .
49(4) . . .
59(4) . . .
57(4) . . .
54(4) . . .
61(4) . . .
66(4) . . .
55(4) . . .
60(4) . . .
63(4) . . .
54(4) . . .
56(4) . . .
61(4) . . .
51(4) . . .
47(4) . . .
58(4) . . .
54(4) . . .
63(4) . . .
52(4) . . .
51(4) . . .
51(4) . . .
53(4) . . .
55(4) . . .
55(4) . . .
47(4) . . .
50(4) . . .
51(4) . . .
61(5) . . .
56(4) . . .
46(4) . . .
61(4) . . .
50(4) . . .
48(4) . . .
57(4) . . .
66(4) . . .
48(4) . . .
60(4) . . .
65(5) . . .
55(4) . . .
52(4) . . .
50(4) . . .
54(4) . . .
52(4) . . .
55(4) . . .
43.6(35) . . .
57(4) . . .
49(4) . . .
55(4) . . .
55(4) . . .
51(4) . . .
57(4) . . .
61(4) . . .
51(4) . . .
47(4) . . .
58(4) . . .
55(4) . . .
56(4) . . .
58(4) . . .
54(4) . . .
54(4) . . .
55(4) . . .
57(4) . . .
43(4) . . .
58(4) . . .
49(4) . . .
57(4) . . .
54(4) . . .
62(4) . . .
57(4) . . .
48(4) . . .
53(4) . . .
57(4) . . .
56(4) . . .
60(4) . . .
56(4) . . .
59(4) . . .
54(4) . . .
45(4) . . .
58(4) . . .
52(4) . . .
57(4) . . .
55(4) . . .
43.2(34) . . .
57(4) . . .
63(4) . . .
54(4) . . .
61(4) . . .
58(4) . . .
60(4) . . .
67(4) . . .
61(4) . . .
51(4) . . .
53(4) . . .
54(4) . . .
58(4) . . .
55(4) . . .
53(4) . . .
50(4) . . .
57(4) . . .
59(4) . . .
53(4) . . .
56(4) . . .
54(4) . . .
60(4) . . .
57(4) . . .
52(4) . . .
52(4) . . .
50(4) . . .
50(4) . . .
51(4) . . .
53(4) . . .
50(4) . . .
60(4) . . .
55(4) . . .
53(4) . . .
54(4) . . .
56(4) . . .
51(4) . . .
45(4) . . .
60(4) . . .
58(4) . . .
51(4) . . .
52(4) . . .
41.3(34) . . .
50(4) . . .
48(4) . . .
49(4) . . .
66(4) . . .
55(4) . . .
49(4) . . .
52(4) . . .
50(4) . . .
49(4) . . .
56(4) . . .
56(4) . . .
59(4) . . .
57(4) . . .
58(4) . . .
49(4) . . .
48(4) . . .
52(4) . . .
59(4) . . .
36.8(32) . . .
54(4) . . .
56(4) . . .
59(4) . . .
61(4) . . .
58(4) . . .
52(4) . . .
53(4) . . .
52(4) . . .
52(4) . . .
63(4) . . .
50(4) . . .
53(4) . . .
58(4) . . .
51(4) . . .
49(4) . . .
60(4) . . .
55(4) . . .
56(4) . . .
53(4) . . .
47(4) . . .
54(4) . . .
56(4) . . .
65(4) . . .
59(4) . . .
54(4) . . .
41.4(35) . . .
44(4) . . .
52(4) . . .
59(4) . . .
53(4) . . .
50(4) . . .
56(4) . . .
58(4) . . .
57(4) . . .
60(4) . . .
50(4) . . .
58(4) . . .
56(4) . . .
53(4) . . .
50(4) . . .
62(4) . . .
59(4) . . .
62(4) . . .
44.7(34) . . .
59(4) . . .
55(4) . . .
57(4) . . .
58(4) . . .
50(4) . . .
56(4) . . .
55(4) . . .
50(4) . . .
39.6(34) . . .
56(4) . . .
66(4) . . .
48(4) . . .
59(4) . . .
64(4) . . .
61(4) . . .
44(4) . . .
53(4) . . .
52(4) . . .
50(4) . . .
54(4) . . .
57(4) . . .
56(4) . . .
52(4) . . .
48(4) . . .
51(4) . . .
52(4) . . .
62(4) . . .
53(4) . . .
56(4) . . .
63(4) . . .
54(4) . . .
55(4) . . .
52(4) . . .
53(4) . . .
60(4) . . .
50(4) . . .
58(4) . . .
56(4) . . .
45(4) . . .
65(4) . . .
61(4) . . .
68(5) . . .
58(4) . . .
50(4) . . .
44.2(35) . . .
59(4) . . .
62(4) . . .
55(4) . . .
66(4) . . .
61(4) . . .
49(4) . . .
54(4) . . .
67(5) . . .
52(4) . . .
52(4) . . .
55(4) . . .
59(4) . . .
57(4) . . .
44.3(35) . . .
50(4) . . .
67(4) . . .
66(4) . . .
49(4) . . .
42.6(34) . . .
55(4) . . .
60(4) . . .
65(5) . . .
59(4) . . .
55(4) . . .
63(4) . . .
60(4) . . .
55(4) . . .
53(4) . . .
49(4) . . .
53(4) . . .
59(4) . . .
53(4) . . .
47(4) . . .
60(4) . . .
59(4) . . .
53(4) . . .
62(4) . . .
46(4) . . .
54(4) . . .
47(4) . . .
55(4) . . .
61(4) . . .
59(4) . . .
62(4) . . .
50(4) . . .
55(4) . . .
56(4) . . .
62(4) . . .
56(4) . . .
58(4) . . .
50(4) . . .
62(4) . . .
54(4) . . .
57(4) . . .
58(4) . . .
53(4) . . .
49(4) . . .
53(4) . . .
62(4) . . .
48(4) . . .
52(4) . . .
50(4) . . .
47(4) . . .
66(4) . . .
67(4) . . .
62(4) . . .
51(4) . . .
46.1(35) . . .
64(5) . . .
48(4) . . .
49(4) . . .
62(4) . . .
60(4) . . .
64(4) . . .
56(4) . . .
58(4) . . .
59(4) . . .
62(4) . . .
49(4) . . .
54(4) . . .
55(4) . . .
56(4) . . .
42.1(33) . . .
60(4) . . .
55(4) . . .
57(4) . . .
68(4) . . .
56(4) . . .
49(4) . . .
67(5) . . .
57(4) . . .
63(4) . . .
62(4) . . .
58(4) . . .
58(4) . . .
57(4) . . .
59(4) . . .
51(4) . . .
63(4) . . .
56(4) . . .
46(4) . . .
69(4) . . .
58(4) . . .
52(4) . . .
46(4) . . .
58(4) . . .
59(4) . . .
58(4) . . .
58(4) . . .
58(4) . . .
56(4) . . .
61(4) . . .
62(4) . . .
62(4) . . .
57(4) . . .
56(4) . . .
60(4) . . .
53(4) . . .
50(4) . . .
62(4) . . .
53(4) . . .
56(4) . . .
75(5) . . .
56(4) . . .
52(4) . . .
55(4) . . .
61(4) . . .
62(4) . . .
65(4) . . .
54(4) . . .
54(4) . . .
51(4) . . .
60(4) . . .
55(4) . . .
54(4) . . .
49(4) . . .
50(4) . . .
50(4) . . .
52(4) . . .
62(4) . . .
61(4) . . .
58(4) . . .
56(4) . . .
53(4) . . .
58(4) . . .
60(4) . . .
59(4) . . .
55(4) . . .
51(4) . . .
58(4) . . .
68(4) . . .
59(4) . . .
48(4) . . .
52(4) . . .
56(4) . . .
48(4) . . .
54(4) . . .
54(4) . . .
53(4) . . .
58(4) . . .
58(4) . . .
62(4) . . .
55(4) . . .
58(4) . . .
54(4) . . .
50(4) . . .
47(4) . . .
64(4) . . .
51(4) . . .
49(4) . . .
65(4) . . .
52(4) . . .
58(4) . . .
58(4) . . .
52(4) . . .
56(4) . . .
51(4) . . .
47(4) . . .
64(5) . . .
67(4) . . .
62(4) . . .
53(4) . . .
49(4) . . .
58(4) . . .
71(4) . . .
63(4) . . .
57(4) . . .
57(4) . . .
54(4) . . .
64(4) . . .
58(4) . . .
66(4) . . .
54(4) . . .
51(4) . . .
63(4) . . .
75(5) . . .
55(4) . . .
64(5) . . .
50(4) . . .
67(4) . . .
64(4) . . .
57(4) . . .
50(4) . . .
59(4) . . .
52(4) . . .
59(4) . . .
56(4) . . .
58(4) . . .
49(4) . . .
47(4) . . .
63(4) . . .
57(4) . . .
53(4) . . .
60(4) . . .
57(4) . . .
53(4) . . .
49(4) . . .
60(4) . . .
56(4) . . .
51(4) . . .
55(4) . . .
54(4) . . .
70(5) . . .
67(4) . . .
61(4) . . .
55(4) . . .
59(4) . . .
65(4) . . .
57(4) . . .
59(4) . . .
75(5) . . .
52(4) . . .
51(4) . . .
56(4) . . .
50(4) . . .
61(4) . . .
57(4) . . .
59(5) . . .
55(4) . . .
51(4) . . .
50(4) . . .
53(4) . . .
48(4) . . .
58(4) . . .
57(4) . . .
57(4) . . .
51(4) . . .
54(4) . . .
62(4) . . .
58(4) . . .
53(4) . . .
49(4) . . .
58(4) . . .
55(4) . . .
58(4) . . .
55(4) . . .
51(4) . . .
59(4) . . .
63(4) . . .
50(4) . . .
58(4) . . .
56(4) . . .
54(4) . . .
59(4) . . .
60(4) . . .
60(4) . . .
64(5) . . .
59(4) . . .
51(4) . . .
57(4) . . .
48(4) . . .
56(4) . . .
56(4) . . .
57(4) . . .
47(4) . . .
59(4) . . .
46(4) . . .
44.1(35) . . .
52(4) . . .
50(4) . . .
55(4) . . .
58(4) . . .
52(4) . . .
68(4) . . .
57(4) . . .
57(4) . . .
53(4) . . .
61(4) . . .
58(4) . . .
57(4) . . .
56(4) . . .
57(4) . . .
59(4) . . .
59(4) . . .
48(4) . . .
54(4) . . .
48(4) . . .
53(4) . . .
50(4) . . .
54(4) . . .
47(4) . . .
57(4) . . .
57(4) . . .
57(4) . . .
55(4) . . .
51(4) . . .
53(4) . . .
61(4) . . .
52(4) . . .
61(4) . . .
54(4) . . .
57(4) . . .
60(4) . . .
46(4) . . .
64(4) . . .
56(4) . . .
54(4) . . .
58(4) . . .
54(4) . . .
56(4) . . .
49(4) . . .
60(4) . . .
55(4) . . .
39.8(33) . . .
51(4) . . .
51(4) . . .
55(4) . . .
51(4) . . .
64(4) . . .
55(4) . . .
52(4) . . .
57(4) . . .
63(4) . . .
55(4) . . .
60(4) . . .
47(4) . . .
53(4) . . .
56(4) . . .
58(4) . . .
57(4) . . .
52(4) . . .
52(4) . . .
48(4) . . .
57(4) . . .
62(4) . . .
47(4) . . .
59(4) . . .
55(4) . . .
57(4) . . .
48(4) . . .
57(4) . . .
59(4) . . .
55(4) . . .
53(4) . . .
57(4) . . .
63(4) . . .
55(4) . . .
58(4) . . .
60(4) . . .
58(4) . . .
55(4) . . .
60(4) . . .
65(4) . . .
61(4) . . .
60(4) . . .
60(4) . . .
63(4) . . .
55(4) . . .
56(4) . . .
55(4) . . .
60(4) . . .
58(4) . . .
61(4) . . .
58(4) . . .
57(4) . . .
57(4) . . .
55(4) . . .
55(4) . . .
50(4) . . .
48(4) . . .
54(4) . . .
56(4) . . .
45(4) . . .
52(4) . . .
57(4) . . .
55(4) . . .
60(4) . . .
55(4) . . .
52(4) . . .
48(4) . . .
53(4) . . .
53(4) . . .
51(4) . . .
48(4) . . .
48(4) . . .
58(4) . . .
48(4) . . .
54(4) . . .
57(4) . . .
52(4) . . .
65(4) . . .
61(4) . . .
57(4) . . .
58(4) . . .
44(4) . . .
57(4) . . .
57(4) . . .
59(4) . . .
46(4) . . .
59(4) . . .
48(4) . . .
47(4) . . .
59(4) . . .
58(4) . . .
48(4) . . .
56(4) . . .
61(4) . . .
59(4) . . .
60(4) . . .
58(4) . . .
51(4) . . .
51(4) . . .
52(4) . . .
53(4) . . .
52(4) . . .
61(4) . . .
54(4) . . .
58(4) . . .
61(4) . . .
59(4) . . .
61(4) . . .
64(4) . . .
60(4) . . .
54(4) . . .
52(4) . . .
55(4) . . .
53(4) . . .
60(4) . . .
53(4) . . .
61(4) . . .
55(4) . . .
55(4) . . .
60(4) . . .
57(4) . . .
59(4) . . .
60(4) . . .
49(4) . . .
66(5) . . .
66(4) . . .
57(4) . . .
53(4) . . .
61(4) . . .
56(4) . . .
52(4) . . .
64(4) . . .
49(4) . . .
63(4) . . .
47(4) . . .
47(4) . . .
47(4) . . .
63(4) . . .
66(5) . . .
61(4) . . .
55(4) . . .
49(4) . . .
50(4) . . .
60(4) . . .
54(4) . . .
49(4) . . .
57(4) . . .
64(4) . . .
65(5) . . .
56(4) . . .
59(4) . . .
45(4) . . .
52(4) . . .
59(4) . . .
53(4) . . .
59(4) . . .
60(4) . . .
52(4) . . .
52(4) . . .
54(4) . . .
55(4) . . .
54(4) . . .
50(4) . . .
63(4) . . .
68(4) . . .
59(4) . . .
55(4) . . .
50(4) . . .
49(4) . . .
53(4) . . .
58(4) . . .
54(4) . . .
49(4) . . .
49(4) . . .
50(4) . . .
63(4) . . .
63(4) . . .
52(4) . . .
63(4) . . .
59(4) . . .
57(4) . . .
66(4) . . .
50(4) . . .
49(4) . . .
51(4) . . .
54(4) . . .
49(4) . . .
59(4) . . .
50(4) . . .
50(4) . . .
53(4) . . .
58(4) . . .
58(4) . . .
54(4) . . .
65(4) . . .
62(4) . . .
50(4) . . .
49(4) . . .
53(4) . . .
51(4) . . .
53(4) . . .
51(4) . . .
58(4) . . .
64(4) . . .
58(4) . . .
62(4) . . .
62(4) . . .
52(4) . . .
52(4) . . .
44(4) . . .
51(4) . . .
47(4) . . .
48(4) . . .
55(4) . . .
52(4) . . .
54(4) . . .
57(4) . . .
48(4) . . .
51(4) . . .
51(4) . . .
51(4) . . .
52(4) . . .
52(4) . . .
69(5) . . .
58(4) . . .
45.7(35) . . .
56(4) . . .
53(4) . . .
60(4) . . .
41.6(33) . . .
42.1(34) . . .
47(4) . . .
44(4) . . .
57(4) . . .
60(4) . . .
45.8(35) . . .
48(4) . . .
63(4) . . .
54(4) . . .
48(4) . . .
51(4) . . .
67(4) . . .
61(4) . . .
61(4) . . .
59(4) . . .
53(4) . . .
54(4) . . .
51(4) . . .
62(4) . . .
54(4) . . .
55(4) . . .
60(4) . . .
56(4) . . .
48(4) . . .
52(4) . . .
60(4) . . .
53(4) . . .
60(4) . . .
57(4) . . .
54(4) . . .
61(4) . . .
60(4) . . .
43.0(34) . . .
45(4) . . .
56(4) . . .
54(4) . . .
54(4) . . .
51(4) . . .
60(4) . . .
53(4) . . .
54(4) . . .
62(4) . . .
65(4) . . .
51(4) . . .
62(4) . . .
48(4) . . .
50(4) . . .
51(4) . . .
55(4) . . .
47(4) . . .
43.6(34) . . .
52(4) . . .
48(4) . . .
49(4) . . .
56(4) . . .
41(4) . . .
52(4) . . .
60(4) . . .
67(4) . . .
63(4) . . .
63(5) . . .
53(4) . . .
55(4) . . .
55(4) . . .
60(4) . . .
48(4) . . .
54(4) . . .
52(4) . . .
57(4) . . .
53(4) . . .
52(4) . . .
50(4) . . .
57(4) . . .
53(4) . . .
69(4) . . .
50(4) . . .
53(4) . . .
48(4) . . .
46(4) . . .
61(4) . . .
57(4) . . .
60(4) . . .
60(4) . . .
64(4) . . .
64(4) . . .
63(4) . . .
54(4) . . .
58(4) . . .
41.3(33) . . .
60(4) . . .
59(4) . . .
54(4) . . .
55(4) . . .
54(4) . . .
53(4) . . .
56(4) . . .
62(4) . . .
62(4) . . .
60(4) . . .
51(4) . . .
55(4) . . .
63(4) . . .
57(4) . . .
50(4) . . .
56(4) . . .
59(4) . . .
58(4) . . .
60(4) . . .
52(4) . . .
51(4) . . .
53(4) . . .
56(4) . . .
51(4) . . .
51(4) . . .
55(4) . . .
60(4) . . .
54(4) . . .
56(4) . . .
50(4) . . .
45(4) . . .
60(4) . . .
62(4) . . .
53(4) . . .
50(4) . . .
55(4) . . .
51(4) . . .
54(4) . . .
53(4) . . .
51(4) . . .
48(4) . . .
53(4) . . .
53(4) . . .
52(4) . . .
43.5(34) . . .
52(4) . . .
52(4) . . .
67(4) . . .
62(4) . . .
60(5) . . .
56(4) . . .
58(4) . . .
55(4) . . .
53(4) . . .
49(4) . . .
57(4) . . .
55(4) . . .
46(4) . . .
52(4) . . .
53(4) . . .
61(4) . . .
59(4) . . .
56(4) . . .
64(4) . . .
62(4) . . .
65(5) . . .
53(4) . . .
50(4) . . .
48(4) . . .
60(4) . . .
59(4) . . .
63(4) . . .
52(4) . . .
56(4) . . .
57(4) . . .
57(4) . . .
50(4) . . .
54(4) . . .
46(4) . . .
51(4) . . .
61(4) . . .
53(4) . . .
55(4) . . .
51(4) . . .
61(4) . . .
66(5) . . .
59(4) . . .
54(4) . . .
64(4) . . .
50(4) . . .
54(4) . . .
55(4) . . .
54(4) . . .
47(4) . . .
50(4) . . .
59(4) . . .
62(4) . . .
54(4) . . .
54(4) . . .
58(4) . . .
56(4) . . .
45.4(35) . . .
58(4) . . .
56(4) . . .
50(4) . . .
55(4) . . .
58(4) . . .
57(4) . . .
60(4) . . .
57(4) . . .
52(4) . . .
52(4) . . .
51(4) . . .
59(4) . . .
48(4) . . .
58(4) . . .
55(4) . . .
51(4) . . .
55(4) . . .
54(4) . . .
60(4) . . .
56(4) . . .
60(4) . . .
56(4) . . .
60(4) . . .
53(4) . . .
59(4) . . .
64(4) . . .
54(4) . . .
58(4) . . .
45.2(35) . . .
45(4) . . .
49(4) . . .
49(4) . . .
45(4) . . .
45(4) . . .
59(4) . . .
56(4) . . .
62(4) . . .
58(4) . . .
59(4) . . .
48(4) . . .
52(4) . . .
54(4) . . .
56(4) . . .
53(4) . . .
50(4) . . .
53(4) . . .
51(4) . . .
51(4) . . .
48(4) . . .
56(4) . . .
55(4) . . .
60(4) . . .
51(4) . . .
49(4) . . .
60(4) . . .
52(4) . . .
56(4) . . .
63(4) . . .
52(4) . . .
54(4) . . .
52(4) . . .
52(4) . . .
49(4) . . .
45.5(35) . . .
58(4) . . .
56(4) . . .
50(4) . . .
58(4) . . .
56(4) . . .
54(4) . . .
49(4) . . .
57(4) . . .
61(4) . . .
49(4) . . .
52(4) . . .
60(4) . . .
58(4) . . .
56(4) . . .
62(4) . . .
49(4) . . .
54(4) . . .
51(4) . . .
48(4) . . .
51(4) . . .
54(4) . . .
61(4) . . .
48(4) . . .
57(4) . . .
63(4) . . .
60(4) . . .
66(4) . . .
59(4) . . .
55(4) . . .
49(4) . . .
55(4) . . .
42(4) . . .
48(4) . . .
60(4) . . .
52(4) . . .
54(4) . . .
60(4) . . .
54(4) . . .
43.2(34) . . .
54(4) . . .
54(4) . . .
49(4) . . .
64(4) . . .
56(4) . . .
52(4) . . .
59(4) . . .
51(4) . . .
57(4) . . .
65(4) . . .
67(4) . . .
66(4) . . .
64(5) . . .
57(4) . . .
50(4) . . .
53(4) . . .
57(4) . . .
57(4) . . .
55(4) . . .
51(4) . . .
57(4) . . .
58(4) . . .
63(4) . . .
52(4) . . .
53(4) . . .
55(4) . . .
54(4) . . .
54(4) . . .
56(4) . . .
63(4) . . .
55(4) . . .
66(5) . . .
55(4) . . .
50(4) . . .
58(4) . . .
57(4) . . .
49(4) . . .
50(4) . . .
54(4) . . .
56(4) . . .
62(4) . . .
60(4) . . .
60(4) . . .
57(4) . . .
41.2(35) . . .
54(4) . . .
52(4) . . .
57(4) . . .
55(4) . . .
52(4) . . .
57(4) . . .
48(4) . . .
49(4) . . .
54(4) . . .
52(4) . . .
60(4) . . .
50(4) . . .
46(4) . . .
52(4) . . .
58(4) . . .
58(4) . . .
56(4) . . .
50(4) . . .
63(4) . . .
63(4) . . .
63(4) . . .
53(4) . . .
52(4) . . .
61(4) . . .
47(4) . . .
55(4) . . .
46(4) . . .
59(4) . . .
51(4) . . .
53(4) . . .
57(4) . . .
53(4) . . .
53(4) . . .
46(4) . . .
51(4) . . .
47(4) . . .
52(4) . . .
54(4) . . .
48(4) . . .
60(4) . . .
57(4) . . .
49(4) . . .
53(4) . . .
53(4) . . .
55(4) . . .
53(4) . . .
55(4) . . .
66(4) . . .
50(4) . . .
55(4) . . .
53(4) . . .
49(4) . . .
58(4) . . .
55(4) . . .
53(4) . . .
50(4) . . .
58(4) . . .
40.4(33) . . .
54(4) . . .
52(4) . . .
52(4) . . .
62(4) . . .
61(4) . . .
66(4) . . .
50(4) . . .
53(4) . . .
56(4) . . .
60(4) . . .
51(4) . . .
72(5) . . .
50(4) . . .
43(4) . . .
49(4) . . .
65(4) . . .
51(4) . . .
46(4) . . .
59(4) . . .
51(4) . . .
58(4) . . .
59(4) . . .
56(4) . . .
61(5) . . .
54(4) . . .
55(4) . . .
53(4) . . .
56(4) . . .
58(4) . . .
53(4) . . .
49(4) . . .
52(4) . . .
53(4) . . .
54(4) . . .
53(4) . . .
53(4) . . .
57(4) . . .
56(4) . . .
57(4) . . .
57(4) . . .
53(4) . . .
58(4) . . .
70(5) . . .
58(4) . . .
49(4) . . .
55(4) . . .
43(4) . . .
55(4) . . .
64(4) . . .
49(4) . . .
66(4) . . .
53(4) . . .
48(4) . . .
40.8(33) . . .
48(4) . . .
53(4) . . .
47(4) . . .
42.0(35) . . .
53(4) . . .
47(4) . . .
57(4) . . .
54(4) . . .
45.3(34) . . .
48(4) . . .
52(4) . . .
53(4) . . .
54(4) . . .
48(4) . . .
45(4) . . .
48(4) . . .
41.4(34) . . .
57(4) . . .
49(4) . . .
54(4) . . .
57(4) . . .
59(4) . . .
67(5) . . .
54(4) . . .
61(4) . . .
66(4) . . .
50(4) . . .
56(4) . . .
57(4) . . .
58(4) . . .
37.6(33) . . .
51(4) . . .
49(4) . . .
60(4) . . .
53(4) . . .
60(4) . . .
60(4) . . .
45(4) . . .
55(4) . . .
50(4) . . .
53(4) . . .
49(4) . . .
60(4) . . .
48(4) . . .
51(4) . . .
57(4) . . .
53(4) . . .
47(4) . . .
48(4) . . .
57(4) . . .
60(4) . . .
55(4) . . .
55(4) . . .
41.1(34) . . .
48(4) . . .
58(4) . . .
49(4) . . .
52(4) . . .
65(4) . . .
65(4) . . .
62(4) . . .
58(4) . . .
46(4) . . .
57(4) . . .
54(4) . . .
51(4) . . .
59(4) . . .
53(4) . . .
45(4) . . .
52(4) . . .
50(4) . . .
59(4) . . .
62(4) . . .
44(4) . . .
49(4) . . .
54(4) . . .
48(4) . . .
55(4) . . .
50(4) . . .
58(4) . . .
58(4) . . .
61(4) . . .
64(4) . . .
57(4) . . .
61(4) . . .
55(4) . . .
54(4) . . .
58(4) . . .
61(4) . . .
55(4) . . .
52(4) . . .
61(4) . . .
48(4) . . .
48(4) . . .
50(4) . . .
53(4) . . .
44(4) . . .
61(4) . . .
65(4) . . .
50(4) . . .
60(4) . . .
53(4) . . .
60(4) . . .
57(4) . . .
62(4) . . .
69(5) . . .
56(4) . . .
51(4) . . .
52(4) . . .
52(4) . . .
52(4) . . .
51(4) . . .
49(4) . . .
58(4) . . .
49(4) . . .
52(4) . . .
52(4) . . .
62(4) . . .
62(4) . . .
48(4) . . .
52(4) . . .
60(4) . . .
57(4) . . .
53(4) . . .
54(4) . . .
61(4) . . .
53(4) . . .
47(4) . . .
46(4) . . .
53(4) . . .
58(4) . . .
43(4) . . .
53(4) . . .
55(4) . . .
51(4) . . .
58(4) . . .
58(4) . . .
53(4) . . .
57(4) . . .
52(4) . . .
47(4) . . .
48(4) . . .
49(4) . . .
53(4) . . .
52(4) . . .
59(4) . . .
54(4) . . .
42.2(34) . . .
48(4) . . .
59(4) . . .
55(4) . . .
46.1(35) . . .
65(4) . . .
54(4) . . .
58(4) . . .
55(4) . . .
62(4) . . .
49(4) . . .
54(4) . . .
54(4) . . .
53(4) . . .
58(4) . . .
50(4) . . .
60(4) . . .
61(4) . . .
40.6(34) . . .
52(4) . . .
63(4) . . .
63(4) . . .
58(4) . . .
42.7(35) . . .
43.3(34) . . .
59(4) . . .
52(4) . . .
52(4) . . .
66(4) . . .
46(4) . . .
54(4) . . .
56(4) . . .
53(4) . . .
63(4) . . .
52(4) . . .
58(4) . . .
50(4) . . .
46(4) . . .
59(4) . . .
50(4) . . .
51(4) . . .
66(4) . . .
67(5) . . .
45(4) . . .
47(4) . . .
47(4) . . .
62(4) . . .
55(4) . . .
48(4) . . .
47(4) . . .
57(4) . . .
56(4) . . .
61(4) . . .
49(4) . . .
54(4) . . .
55(4) . . .
48(4) . . .
46(4) . . .
57(4) . . .
51(4) . . .
51(4) . . .
47(4) . . .
66(4) . . .
57(4) . . .
54(4) . . .
65(4) . . .
47(4) . . .
48(4) . . .
59(4) . . .
51(4) . . .
64(4) . . .
55(4) . . .
56(4) . . .
55(4) . . .
55(4) . . .
50(4) . . .
59(4) . . .
52(4) . . .
61(4) . . .
53(4) . . .
54(4) . . .
53(4) . . .
58(4) . . .
62(4) . . .
55(4) . . .
55(4) . . .
55(4) . . .
48(4) . . .
56(4) . . .
51(4) . . .
52(4) . . .
62(4) . . .
61(4) . . .
55(4) . . .
55(4) . . .
56(4) . . .
55(4) . . .
56(4) . . .
44.2(35) . . .
52(4) . . .
56(4) . . .
54(4) . . .
44.7(35) . . .
45(4) . . .
55(4) . . .
53(4) . . .
46(4) . . .
47(4) . . .
44.1(34) . . .
55(4) . . .
57(4) . . .
47(4) . . .
56(4) . . .
55(4) . . .
70(5) . . .
49(4) . . .
52(4) . . .
61(4) . . .
58(4) . . .
61(4) . . .
58(4) . . .
55(4) . . .
60(4) . . .
53(4) . . .
48(4) . . .
54(4) . . .
57(4) . . .
57(4) . . .
58(4) . . .
53(4) . . .
61(4) . . .
59(4) . . .
49(4) . . .
49(4) . . .
53(4) . . .
59(4) . . .
58(4) . . .
52(4) . . .
51(4) . . .
46(4) . . .
51(4) . . .
50(4) . . .
55(4) . . .
53(4) . . .
54(4) . . .
43.3(34) . . .
48(4) . . .
47(4) . . .
61(4) . . .
58(4) . . .
57(4) . . .
43.8(34) . . .
53(4) . . .
56(4) . . .
46(4) . . .
57(4) . . .
64(4) . . .
46(4) . . .
63(4) . . .
55(4) . . .
56(4) . . .
59(4) . . .
53(4) . . .
55(4) . . .
50(4) . . .
57(4) . . .
56(4) . . .
60(4) . . .
54(4) . . .
44(4) . . .
54(4) . . .
58(4) . . .
49(4) . . .
53(4) . . .
51(4) . . .
50(4) . . .
58(4) . . .
50(4) . . .
54(4) . . .
66(4) . . .
51(4) . . .
41.9(34) . . .
59(4) . . .
60(4) . . .
52(4) . . .
59(4) . . .
71(4) . . .
56(4) . . .
55(4) . . .
55(4) . . .
57(4) . . .
42.1(34) . . .
52(4) . . .
54(4) . . .
56(4) . . .
60(4) . . .
54(4) . . .
54(4) . . .
54(4) . . .
55(4) . . .
57(4) . . .
55(4) . . .
52(4) . . .
53(4) . . .
59(4) . . .
60(4) . . .
65(4) . . .
54(4) . . .
69(5) . . .
51(4) . . .
53(4) . . .
50(4) . . .
48(4) . . .
59(4) . . .
62(4) . . .
59(4) . . .
65(4) . . .
56(4) . . .
51(4) . . .
54(4) . . .
51(4) . . .
62(4) . . .
52(4) . . .
54(4) . . .
53(4) . . .
63(4) . . .
64(4) . . .
49(4) . . .
56(4) . . .
61(4) . . .
59(4) . . .
58(4) . . .
50(4) . . .
57(4) . . .
55(4) . . .
57(4) . . .
54(4) . . .
54(4) . . .
53(4) . . .
39.7(34) . . .
46(4) . . .
54(4) . . .
52(4) . . .
60(4) . . .
61(4) . . .
69(4) . . .
46(4) . . .
58(4) . . .
47(4) . . .
55(4) . . .
58(4) . . .
57(4) . . .
52(4) . . .
57(4) . . .
69(4) . . .
64(4) . . .
63(4) . . .
63(4) . . .
60(4) . . .
49(4) . . .
54(4) . . .
55(4) . . .
52(4) . . .
52(4) . . .
54(4) . . .
58(4) . . .
59(4) . . .
58(4) . . .
56(4) . . .
58(4) . . .
66(4) . . .
61(4) . . .
56(4) . . .
53(4) . . .
49(4) . . .
56(4) . . .
52(4) . . .
54(4) . . .
53(4) . . .
55(4) . . .
62(4) . . .
59(4) . . .
65(5) . . .
61(4) . . .
49(4) . . .
53(4) . . .
58(4) . . .
57(4) . . .
54(4) . . .
52(4) . . .
51(4) . . .
57(4) . . .
46.3(34) . . .
65(4) . . .
60(4) . . .
55(4) . . .
51(4) . . .
60(4) . . .
55(4) . . .
59(4) . . .
61(4) . . .
52(4) . . .
56(4) . . .
55(4) . . .
42.4(35) . . .
57(4) . . .
57(4) . . .
58(4) . . .
49(4) . . .
57(4) . . .
60(4) . . .
53(4) . . .
49(4) . . .
51(4) . . .
44.0(35) . . .
49(4) . . .
50(4) . . .
55(4) . . .
54(4) . . .
54(4) . . .
58(4) . . .
43(4) . . .
52(4) . . .
46(4) . . .
57(4) . . .
60(4) . . .
62(4) . . .
60(4) . . .
54(4) . . .
43(4) . . .
54(4) . . .
53(4) . . .
49(4) . . .
54(4) . . .
59(4) . . .
47(4) . . .
58(4) . . .
51(4) . . .
56(4) . . .
60(4) . . .
53(4) . . .
52(4) . . .
53(4) . . .
55(4) . . .
64(4) . . .
58(4) . . .
57(4) . . .
58(4) . . .
48(4) . . .
52(4) . . .
54(4) . . .
61(4) . . .
41.5(33) . . .
44.8(35) . . .
57(4) . . .
55(4) . . .
48(4) . . .
51(4) . . .
50(4) . . .
50(4) . . .
51(4) . . .
51(4) . . .
52(4) . . .
55(4) . . .
53(4) . . .
52(4) . . .
55(4) . . .
60(4) . . .
64(4) . . .
57(4) . . .
54(4) . . .
56(4) . . .
56(4) . . .
59(4) . . .
63(4) . . .
58(4) . . .
49(4) . . .
46(4) . . .
58(4) . . .
52(4) . . .
49(4) . . .
57(4) . . .
59(4) . . .
51(4) . . .
49(4) . . .
56(4) . . .
52(4) . . .
48(4) . . .
47(4) . . .
51(4) . . .
53(4) . . .
55(4) . . .
58(4) . . .
55(4) . . .
58(4) . . .
50(4) . . .
53(4) . . .
53(4) . . .
63(4) . . .
49(4) . . .
55(4) . . .
57(4) . . .
57(4) . . .
51(4) . . .
50(4) . . .
57(4) . . .
55(4) . . .
52(4) . . .
41.9(34) . . .
43(4) . . .
56(4) . . .
54(4) . . .
59(4) . . .
53(4) . . .
59(4) . . .
55(4) . . .
56(4) . . .
47(4) . . .
53(4) . . .
55(4) . . .
52(4) . . .
54(4) . . .
56(4) . . .
49(4) . . .
52(4) . . .
64(5) . . .
56(4) . . .
59(4) . . .
52(4) . . .
61(4) . . .
43(4) . . .
56(4) . . .
65(4) . . .
51(4) . . .
53(4) . . .
51(4) . . .
48(4) . . .
53(4) . . .
51(4) . . .
52(4) . . .
60(4) . . .
59(4) . . .
62(4) . . .
59(4) . . .
58(4) . . .
58(4) . . .
57(4) . . .
50(4) . . .
53(4) . . .
57(4) . . .
53(4) . . .
61(4) . . .
52(4) . . .
56(4) . . .
65(4) . . .
55(4) . . .
54(4) . . .
49(4) . . .
58(4) . . .
56(4) . . .
51(4) . . .
47(4) . . .
51(4) . . .
60(4) . . .
66(4) . . .
56(4) . . .
49(4) . . .
59(4) . . .
60(4) . . .
46(4) . . .
55(4) . . .
45.7(35) . . .
49(4) . . .
51(4) . . .
48(4) . . .
55(4) . . .
64(4) . . .
59(4) . . .
51(4) . . .
50(4) . . .
61(4) . . .
57(4) . . .
56(4) . . .
57(4) . . .
59(4) . . .
48(4) . . .
53(4) . . .
61(5) . . .
52(4) . . .
49(4) . . .
45(4) . . .
60(4) . . .
49(4) . . .
71(5) . . .
59(4) . . .
52(4) . . .
54(4) . . .
45(4) . . .
49(4) . . .
48(4) . . .
49(4) . . .
56(4) . . .
58(4) . . .
62(4) . . .
55(4) . . .
49(4) . . .
54(4) . . .
56(4) . . .
49(4) . . .
57(4) . . .
64(4) . . .
44.4(35) . . .
48(4) . . .
52(4) . . .
57(4) . . .
58(4) . . .
57(4) . . .
59(4) . . .
53(4) . . .
51(4) . . .
54(4) . . .
66(4) . . .
61(4) . . .
60(4) . . .
57(4) . . .
55(4) . . .
60(4) . . .
56(4) . . .
57(4) . . .
50(4) . . .
57(4) . . .
53(4) . . .
70(5) . . .
67(4) . . .
51(4) . . .
51(4) . . .
61(4) . . .
59(4) . . .
62(4) . . .
47(4) . . .
53(4) . . .
48(4) . . .
58(4) . . .
57(4) . . .
51(4) . . .
55(4) . . .
54(4) . . .
40.2(33) . . .
49(4) . . .
54(4) . . .
57(4) . . .
53(4) . . .
54(4) . . .
59(4) . . .
57(4) . . .
57(4) . . .
58(4) . . .
53(4) . . .
49(4) . . .
42.3(35) . . .
51(4) . . .
54(4) . . .
44(4) . . .
49(4) . . .
57(4) . . .
51(4) . . .
47(4) . . .
57(4) . . .
61(4) . . .
49(4) . . .
59(4) . . .
60(4) . . .
61(4) . . .
55(4) . . .
61(4) . . .
59(4) . . .
48(4) . . .
64(4) . . .
51(4) . . .
68(4) . . .
57(4) . . .
58(4) . . .
46(4) . . .
50(4) . . .
55(4) . . .
55(4) . . .
61(4) . . .
52(4) . . .
52(4) . . .
42.9(34) . . .
56(4) . . .
52(4) . . .
55(4) . . .
60(4) . . .
54(4) . . .
57(4) . . .
47(4) . . .
57(4) . . .
47(4) . . .
55(4) . . .
61(4) . . .
51(4) . . .
52(4) . . .
55(4) . . .
49(4) . . .
43(4) . . .
51(4) . . .
57(4) . . .
48(4) . . .
55(4) . . .
60(4) . . .
54(4) . . .
53(4) . . .
54(4) . . .
51(4) . . .
62(5) . . .
54(4) . . .
61(4) . . .
51(4) . . .
53(4) . . .
52(4) . . .
50(4) . . .
50(4) . . .
54(4) . . .
59(4) . . .
53(4) . . .
47(4) . . .
57(4) . . .
62(4) . . .
55(4) . . .
44(4) . . .
48(4) . . .
49(4) . . .
53(4) . . .
47(4) . . .
53(4) . . .
58(4) . . .
51(4) . . .
53(4) . . .
61(4) . . .
53(4) . . .
55(4) . . .
54(4) . . .
56(4) . . .
52(4) . . .
57(4) . . .
59(4) . . .
53(4) . . .
48(4) . . .
49(4) . . .
53(4) . . .
53(4) . . .
49(4) . . .
51(4) . . .
60(4) . . .
55(4) . . .
54(4) . . .
53(4) . . .
50(4) . . .
51(4) . . .
43.8(35) . . .
44(4) . . .
59(4) . . .
55(4) . . .
57(4) . . .
49(4) . . .
60(4) . . .
63(4) . . .
61(4) . . .
50(4) . . .
56(4) . . .
55(4) . . .
64(4) . . .
54(4) . . .
56(4) . . .
49(4) . . .
57(4) . . .
56(4) . . .
57(4) . . .
50(4) . . .
56(4) . . .
55(4) . . .
56(4) . . .
49(4) . . .
52(4) . . .
50(4) . . .
52(4) . . .
54(4) . . .
59(4) . . .
53(4) . . .
60(4) . . .
53(4) . . .
55(4) . . .
49(4) . . .
53(4) . . .
47(4) . . .
60(4) . . .
55(4) . . .
56(4) . . .
55(4) . . .
46(4) . . .
47(4) . . .
54(4) . . .
53(4) . . .
47(4) . . .
51(4) . . .
58(4) . . .
64(4) . . .
58(4) . . .
58(4) . . .
55(4) . . .
49(4) . . .
48(4) . . .
48(4) . . .
56(4) . . .
55(4) . . .
55(4) . . .
43.1(35) . . .
53(4) . . .
54(4) . . .
54(4) . . .
59(4) . . .
67(4) . . .
52(4) . . .
50(4) . . .
56(4) . . .
51(4) . . .
57(4) . . .
62(4) . . .
62(4) . . .
60(4) . . .
58(4) . . .
57(4) . . .
48(4) . . .
59(4) . . .
50(4) . . .
62(4) . . .
54(4) . . .
58(4) . . .
53(4) . . .
48(4) . . .
54(4) . . .
51(4) . . .
54(4) . . .
58(4) . . .
54(4) . . .
52(4) . . .
57(4) . . .
53(4) . . .
51(4) . . .
48(4) . . .
49(4) . . .
59(4) . . .
56(4) . . .
54(4) . . .
50(4) . . .
53(4) . . .
54(4) . . .
51(4) . . .
60(4) . . .
50(4) . . .
54(4) . . .
64(5) . . .
48(4) . . .
49(4) . . .
53(4) . . .
58(4) . . .
52(4) . . .
55(4) . . .
55(4) . . .
56(4) . . .
57(4) . . .
54(4) . . .
53(4) . . .
55(4) . . .
67(4) . . .
53(4) . . .
53(4) . . .
54(4) . . .
52(4) . . .
59(4) . . .
54(4) . . .
58(4) . . .
57(4) . . .
59(4) . . .
57(4) . . .
46(4) . . .
47(4) . . .
49(4) . . .
59(4) . . .
61(4) . . .
57(4) . . .
48(4) . . .
52(4) . . .
59(4) . . .
54(4) . . .
50(4) . . .
57(4) . . .
51(4) . . .
64(4) . . .
52(4) . . .
56(4) . . .
51(4) . . .
55(4) . . .
56(4) . . .
45(4) . . .
39.8(34) . . .
50(4) . . .
59(4) . . .
52(4) . . .
52(4) . . .
65(5) . . .
55(4) . . .
47(4) . . .
48(4) . . .
55(4) . . .
58(4) . . .
60(4) . . .
53(4) . . .
50(4) . . .
57(4) . . .
49(4) . . .
52(4) . . .
59(4) . . .
51(4) . . .
55(4) . . .
55(4) . . .
46(4) . . .
54(4) . . .
59(4) . . .
43.9(34) . . .
55(4) . . .
49(4) . . .
53(4) . . .
51(4) . . .
61(4) . . .
50(4) . . .
56(4) . . .
61(4) . . .
57(4) . . .
51(4) . . .
56(4) . . .
52(4) . . .
56(4) . . .
53(4) . . .
60(4) . . .
55(4) . . .
43.2(35) . . .
61(4) . . .
52(4) . . .
61(4) . . .
60(4) . . .
43.6(35) . . .
51(4) . . .
49(4) . . .
56(4) . . .
56(4) . . .
42.5(34) . . .
49(4) . . .
52(4) . . .
55(4) . . .
51(4) . . .
60(4) . . .
51(4) . . .
53(4) . . .
47(4) . . .
52(4) . . .
52(4) . . .
56(4) . . .
49(4) . . .
57(4) . . .
46(4) . . .
62(4) . . .
61(4) . . .
54(4) . . .
54(4) . . .
59(4) . . .
60(4) . . .
53(4) . . .
49(4) . . .
44(4) . . .
46(4) . . .
51(4) . . .
45.3(35) . . .
49(4) . . .
57(4) . . .
51(4) . . .
57(4) . . .
59(4) . . .
49(4) . . .
57(4) . . .
50(4) . . .
55(4) . . .
44.6(35) . . .
49(4) . . .
67(5) . . .
54(4) . . .
50(4) . . .
48(4) . . .
56(4) . . .
51(4) . . .
52(4) . . .
53(4) . . .
49(4) . . .
56(4) . . .
60(4) . . .
48(4) . . .
41.1(33) . . .
52(4) . . .
54(4) . . .
52(4) . . .
55(4) . . .
45(4) . . .
57(4) . . .
62(4) . . .
49(4) . . .
53(4) . . .
51(4) . . .
53(4) . . .
49(4) . . .
55(4) . . .
53(4) . . .
52(4) . . .
52(4) . . .
51(4) . . .
59(4) . . .
45.7(35) . . .
44(4) . . .
42.3(34) . . .
61(4) . . .
59(4) . . .
53(4) . . .
60(4) . . .
57(4) . . .
55(4) . . .
49(4) . . .
48(4) . . .
58(4) . . .
54(4) . . .
47(4) . . .
54(4) . . .
57(4) . . .
60(4) . . .
52(4) . . .
52(4) . . .
46(4) . . .
48(4) . . .
50(4) . . .
54(4) . . .
47(4) . . .
59(4) . . .
51(4) . . .
54(4) . . .
53(4) . . .
38.3(34) . . .
48(4) . . .
52(4) . . .
51(4) . . .
53(4) . . .
53(4) . . .
51(4) . . .
50(4) . . .
50(4) . . .
56(4) . . .
51(4) . . .
55(4) . . .
60(4) . . .
51(4) . . .
51(4) . . .
56(4) . . .
65(4) . . .
52(4) . . .
60(4) . . .
49(4) . . .
47(4) . . .
59(4) . . .
53(4) . . .
65(4) . . .
54(4) . . .
57(4) . . .
54(4) . . .
66(4) . . .
51(4) . . .
53(4) . . .
55(4) . . .
51(4) . . .
45.0(35) . . .
44(4) . . .
52(4) . . .
61(4) . . .
56(4) . . .
55(4) . . .
48(4) . . .
58(4) . . .
50(4) . . .
59(4) . . .
57(4) . . .
55(4) . . .
54(4) . . .
53(4) . . .
53(4) . . .
46(4) . . .
52(4) . . .
52(4) . . .
49(4) . . .
50(4) . . .
54(4) . . .
56(4) . . .
51(4) . . .
61(4) . . .
56(4) . . .
55(4) . . .
51(4) . . .
44(4) . . .
49(4) . . .
55(4) . . .
54(4) . . .
55(4) . . .
52(4) . . .
45(4) . . .
58(4) . . .
57(4) . . .
61(4) . . .
55(4) . . .
46(4) . . .
48(4) . . .
50(4) . . .
54(4) . . .
62(4) . . .
49(4) . . .
62(4) . . .
48(4) . . .
49(4) . . .
55(4) . . .
44.7(35) . . .
53(4) . . .
55(4) . . .
51(4) . . .
49(4) . . .
46(4) . . .
56(4) . . .
49(4) . . .
51(4) . . .
57(4) . . .
59(4) . . .
51(4) . . .
60(4) . . .
62(4) . . .
45(4) . . .
47(4) . . .
44(4) . . .
62(4) . . .
57(4) . . .
56(4) . . .
58(4) . . .
51(4) . . .
56(4) . . .
51(4) . . .
50(4) . . .
45.4(35) . . .
48(4) . . .
55(4) . . .
51(4) . . .
44.2(35) . . .
46(4) . . .
54(4) . . .
50(4) . . .
47(4) . . .
49(4) . . .
44.0(34) . . .
47(4) . . .
52(4) . . .
57(4) . . .
52(4) . . .
49(4) . . .
50(4) . . .
44(4) . . .
53(4) . . .
43.1(35) . . .
52(4) . . .
52(4) . . .
49(4) . . .
50(4) . . .
46(4) . . .
56(4) . . .
49(4) . . .
56(4) . . .
61(4) . . .
56(4) . . .
59(4) . . .
50(4) . . .
58(4) . . .
53(4) . . .
60(4) . . .
47(4) . . .
49(4) . . .
46(4) . . .
59(4) . . .
60(4) . . .
65(4) . . .
58(4) . . .
60(4) . . .
45(4) . . .
58(4) . . .
57(4) . . .
50(4) . . .
50(4) . . .
54(4) . . .
46(4) . . .
55(4) . . .
44(4) . . .
51(4) . . .
49(4) . . .
54(4) . . .
59(4) . . .
52(4) . . .
55(4) . . .
54(4) . . .
60(4) . . .
52(4) . . .
47(4) . . .
62(4) . . .
65(4) . . .
50(4) . . .
51(4) . . .
49(4) . . .
66(4) . . .
57(4) . . .
62(4) . . .
55(4) . . .
53(4) . . .
52(4) . . .
57(4) . . .
52(4) . . .
52(4) . . .
43(4) . . .
46(4) . . .
56(4) . . .
47(4) . . .
37.6(34) . . .
43(4) . . .
50(4) . . .
59(4) . . .
47(4) . . .
59(4) . . .
47(4) . . .
54(4) . . .
46(4) . . .
51(4) . . .
52(4) . . .
44.6(35) . . .
39.7(34) . . .
48(4) . . .
54(4) . . .
52(4) . . .
43.2(34) . . .
53(4) . . .
58(4) . . .
48(4) . . .
46(4) . . .
56(4) . . .
59(4) . . .
49(4) . . .
60(4) . . .
50(4) . . .
59(4) . . .
52(4) . . .
62(4) . . .
52(4) . . .
46(4) . . .
43.5(34) . . .
49(4) . . .
46.8(35) . . .
47(4) . . .
50(4) . . .
60(4) . . .
57(4) . . .
55(4) . . .
47(4) . . .
55(4) . . .
59(4) . . .
57(4) . . .
59(4) . . .
60(4) . . .
57(4) . . .
59(4) . . .
58(4) . . .
50(4) . . .
61(5) . . .
56(4) . . .
56(4) . . .
55(4) . . .
52(4) . . .
61(4) . . .
56(4) . . .
51(4) . . .
50(4) . . .
43.1(34) . . .
43(4) . . .
44(4) . . .
54(4) . . .
50(4) . . .
49(4) . . .
46(4) . . .
46(4) . . .
56(4) . . .
45(4) . . .
40.4(33) . . .
55(4) . . .
50(4) . . .
55(4) . . .
41.1(33) . . .
59(4) . . .
59(4) . . .
51(4) . . .
59(4) . . .
51(4) . . .
52(4) . . .
50(4) . . .
50(4) . . .
48(4) . . .
56(4) . . .
60(4) . . .
58(4) . . .
58(4) . . .
50(4) . . .
59(4) . . .
46(4) . . .
63(4) . . .
47(4) . . .
50(4) . . .
53(4) . . .
54(4) . . .
56(4) . . .
55(4) . . .
55(4) . . .
46(4) . . .
49(4) . . .
51(4) . . .
42(4) . . .
44.5(35) . . .
56(4) . . .
48(4) . . .
48(4) . . .
46(4) . . .
51(4) . . .
51(4) . . .
53(4) . . .
57(4) . . .
51(4) . . .
60(4) . . .
56(4) . . .
55(4) . . .
55(4) . . .
55(4) . . .
57(4) . . .
60(4) . . .
57(4) . . .
54(4) . . .
52(4) . . .
50(4) . . .
49(4) . . .
46(4) . . .
44(4) . . .
51(4) . . .
47(4) . . .
52(4) . . .
59(4) . . .
45(4) . . .
48(4) . . .
56(4) . . .
59(4) . . .
59(4) . . .
54(4) . . .
47(4) . . .
48(4) . . .
51(4) . . .
55(4) . . .
60(4) . . .
47(4) . . .
58(4) . . .
62(4) . . .
49(4) . . .
62(4) . . .
44.5(35) . . .
47(4) . . .
52(4) . . .
58(4) . . .
50(4) . . .
58(4) . . .
68(5) . . .
55(4) . . .
54(4) . . .
54(4) . . .
52(4) . . .
54(4) . . .
40.0(33) . . .
48(4) . . .
49(4) . . .
51(4) . . .
55(4) . . .
56(4) . . .
52(4) . . .
53(4) . . .
45(4) . . .
36.0(31) . . .
51(4) . . .
59(4) . . .
62(4) . . .
49(4) . . .
55(4) . . .
50(4) . . .
49(4) . . .
53(4) . . .
59(4) . . .
63(4) . . .
54(4) . . .
52(4) . . .
53(4) . . .
56(4) . . .
48(4) . . .
49(4) . . .
54(4) . . .
39.3(33) . . .
47(4) . . .
56(4) . . .
52(4) . . .
39.8(34) . . .
48(4) . . .
55(4) . . .
47.5(35) . . .
52(4) . . .
60(4) . . .
59(4) . . .
55(4) . . .
47(4) . . .
60(4) . . .
50(4) . . .
52(4) . . .
51(4) . . .
53(4) . . .
42.3(35) . . .
47(4) . . .
54(4) . . .
49(4) . . .
55(4) . . .
57(4) . . .
49(4) . . .
57(4) . . .
41.3(33) . . .
47(4) . . .
53(4) . . .
62(4) . . .
51(4) . . .
50(4) . . .
55(4) . . .
49(4) . . .
44.2(34) . . .
47(4) . . .
50(4) . . .
51(4) . . .
53(4) . . .
51(4) . . .
55(4) . . .
42.7(34) . . .
44(4) . . .
56(4) . . .
58(4) . . .
51(4) . . .
49(4) . . .
48(4) . . .
58(4) . . .
55(4) . . .
44.3(35) . . .
47(4) . . .
57(4) . . .
50(4) . . .
53(4) . . .
58(4) . . .
54(4) . . .
50(4) . . .
62(4) . . .
47(4) . . .
53(4) . . .
67(4) . . .
56(4) . . .
59(4) . . .
52(4) . . .
49(4) . . .
53(4) . . .
47(4) . . .
59(4) . . .
72(4) . . .
55(4) . . .
42.5(33) . . .
50(4) . . .
53(4) . . .
54(4) . . .
50(4) . . .
44.7(35) . . .
45(4) . . .
43(4) . . .
51(4) . . .
52(4) . . .
50(4) . . .
53(4) . . .
61(4) . . .
57(4) . . .
51(4) . . .
54(4) . . .
51(4) . . .
65(4) . . .
43.5(35) . . .
59(4) . . .
57(4) . . .
46.1(35) . . .
55(4) . . .
51(4) . . .
50(4) . . .
51(4) . . .
46(4) . . .
48(4) . . .
45.0(35) . . .
61(4) . . .
48(4) . . .
48(4) . . .
52(4) . . .
51(4) . . .
59(4) . . .
52(4) . . .
56(4) . . .
47(4) . . .
52(4) . . .
50(4) . . .
59(4) . . .
56(4) . . .
60(4) . . .
54(4) . . .
54(4) . . .
45(4) . . .
55(4) . . .
67(4) . . .
52(4) . . .
57(4) . . .
49(4) . . .
65(4) . . .
56(4) . . .
49(4) . . .
53(4) . . .
49(4) . . .
45(4) . . .
44.3(35) . . .
45(4) . . .
52(4) . . .
63(4) . . .
53(4) . . .
53(4) . . .
54(4) . . .
47(4) . . .
49(4) . . .
50(4) . . .
48(4) . . .
47(4) . . .
55(4) . . .
55(4) . . .
53(4) . . .
56(4) . . .
47(4) . . .
57(4) . . .
49(4) . . .
41.1(34) . . .
44.0(35) . . .
58(4) . . .
50(4) . . .
56(4) . . .
55(4) . . .
51(4) . . .
49(4) . . .
46.3(35) . . .
57(4) . . .
52(4) . . .
59(4) . . .
52(4) . . .
63(5) . . .
48(4) . . .
41.6(34) . . .
48(4) . . .
44.1(34) . . .
49(4) . . .
62(4) . . .
55(4) . . .
57(4) . . .
58(4) . . .
47(4) . . .
57(4) . . .
46(4) . . .
50(4) . . .
60(4) . . .
45(4) . . .
48(4) . . .
49(4) . . .
56(4) . . .
48(4) . . .
56(4) . . .
42.2(34) . . .
43.9(35) . . .
55(4) . . .
45(4) . . .
57(4) . . .
56(4) . . .
56(4) . . .
52(4) . . .
50(4) . . .
54(4) . . .
46.0(35) . . .
44.4(35) . . .
55(4) . . .
47(4) . . .
55(4) . . .
52(4) . . .
57(4) . . .
48(4) . . .
43(4) . . .
60(4) . . .
42.5(34) . . .
50(4) . . .
55(4) . . .
57(4) . . .
55(4) . . .
57(4) . . .
40.3(33) . . .
48(4) . . .
55(4) . . .
50(4) . . .
44(4) . . .
47(4) . . .
52(4) . . .
53(4) . . .
58(4) . . .
44.1(35) . . .
57(4) . . .
55(4) . . .
47(4) . . .
43.6(34) . . .
47(4) . . .
57(4) . . .
51(4) . . .
50(4) . . .
47(4) . . .
55(4) . . .
48(4) . . .
49(4) . . .
57(4) . . .
52(4) . . .
50(4) . . .
50(4) . . .
49(4) . . .
52(4) . . .
47(4) . . .
56(4) . . .
52(4) . . .
47(4) . . .
47(4) . . .
48(4) . . .
53(4) . . .
46(4) . . .
49(4) . . .
48(4) . . .
49(4) . . .
62(4) . . .
47(4) . . .
62(5) . . .
48(4) . . .
52(4) . . .
48(4) . . .
49(4) . . .
47(4) . . .
48(4) . . .
54(4) . . .
48(4) . . .
56(4) . . .
53(4) . . .
53(4) . . .
53(4) . . .
54(4) . . .
50(4) . . .
50(4) . . .
56(4) . . .
41.1(33) . . .
48(4) . . .
49(4) . . .
46(4) . . .
49(4) . . .
42.7(33) . . .
54(4) . . .
49(4) . . .
45(4) . . .
57(4) . . .
47(4) . . .
49(4) . . .
54(4) . . .
53(4) . . .
49(4) . . .
58(4) . . .
60(4) . . .
43(4) . . .
48(4) . . .
49(4) . . .
45(4) . . .
45(4) . . .
46(4) . . .
51(4) . . .
54(4) . . .
48(4) . . .
53(4) . . .
59(4) . . .
54(4) . . .
60(4) . . .
69(4) . . .
56(4) . . .
35.6(33) . . .
55(4) . . .
49(4) . . .
58(4) . . .
54(4) . . .
56(4) . . .
49(4) . . .
47(4) . . .
48(4) . . .
46(4) . . .
50(4) . . .
54(4) . . .
45(4) . . .
54(4) . . .
49(4) . . .
46(4) . . .
45(4) . . .
42.6(34) . . .
64(4) . . .
66(4) . . .
57(4) . . .
40.2(34) . . .
53(4) . . .
62(4) . . .
48(4) . . .
52(4) . . .
62(4) . . .
51(4) . . .
49(4) . . .
60(4) . . .
49(4) . . .
52(4) . . .
55(4) . . .
62(4) . . .
45(4) . . .
42.0(34) . . .
45.3(35) . . .
55(4) . . .
49(4) . . .
54(4) . . .
44.7(35) . . .
39.5(33) . . .
48(4) . . .
54(4) . . .
54(4) . . .
54(4) . . .
52(4) . . .
49(4) . . .
59(4) . . .
55(4) . . .
52(4) . . .
49(4) . . .
50(4) . . .
49(4) . . .
48(4) . . .
49(4) . . .
53(4) . . .
65(4) . . .
54(4) . . .
46(4) . . .
52(4) . . .
55(4) . . .
52(4) . . .
42.4(35) . . .
53(4) . . .
48(4) . . .
53(4) . . .
41.9(34) . . .
50(4) . . .
51(4) . . .
54(4) . . .
57(4) . . .
61(4) . . .
59(4) . . .
49(4) . . .
55(4) . . .
52(4) . . .
46(4) . . .
47(4) . . .
56(4) . . .
54(4) . . .
57(4) . . .
45.8(35) . . .
44(4) . . .
44(4) . . .
51(4) . . .
55(4) . . .
51(4) . . .
60(4) . . .
53(4) . . .
48(4) . . .
54(4) . . .
53(4) . . .
47(4) . . .
54(4) . . .
62(4) . . .
55(4) . . .
56(4) . . .
56(4) . . .
51(4) . . .
52(4) . . .
51(4) . . .
53(4) . . .
62(4) . . .
54(4) . . .
49(4) . . .
58(4) . . .
50(4) . . .
50(4) . . .
43(4) . . .
51(4) . . .
63(4) . . .
50(4) . . .
44(4) . . .
51(4) . . .
47(4) . . .
50(4) . . .
52(4) . . .
45(4) . . .
46(4) . . .
46(4) . . .
54(4) . . .
50(4) . . .
46(4) . . .
41.7(35) . . .
40.2(33) . . .
58(4) . . .
51(4) . . .
48(4) . . .
48(4) . . .
54(4) . . .
44(4) . . .
49(4) . . .
55(4) . . .
60(4) . . .
43.7(34) . . .
52(4) . . .
51(4) . . .
56(4) . . .
46(4) . . .
51(4) . . .
54(4) . . .
59(4) . . .
58(4) . . .
45.2(35) . . .
50(4) . . .
49(4) . . .
54(4) . . .
40.1(35) . . .
47(4) . . .
51(4) . . .
51(4) . . .
50(4) . . .
51(4) . . .
57(4) . . .
52(4) . . .
47(4) . . .
46(4) . . .
52(4) . . .
45.4(35) . . .
56(4) . . .
52(4) . . .
50(4) . . .
51(4) . . .
60(4) . . .
55(4) . . .
51(4) . . .
48(4) . . .
48(4) . . .
58(4) . . .
57(4) . . .
52(4) . . .
51(4) . . .
44(4) . . .
54(4) . . .
41.0(33) . . .
54(4) . . .
45(4) . . .
42.5(34) . . .
58(4) . . .
52(4) . . .
47(4) . . .
48(4) . . .
46(4) . . .
50(4) . . .
52(4) . . .
62(4) . . .
51(4) . . .
48(4) . . .
52(4) . . .
56(4) . . .
48(4) . . .
56(4) . . .
49(4) . . .
44.2(34) . . .
42.6(34) . . .
55(4) . . .
49(4) . . .
53(4) . . .
56(4) . . .
62(4) . . .
48(4) . . .
51(4) . . .
49(4) . . .
41.9(34) . . .
47(4) . . .
51(4) . . .
59(4) . . .
48(4) . . .
40.3(33) . . .
47(4) . . .
54(4) . . .
43.6(34) . . .
53(4) . . .
54(4) . . .
51(4) . . .
58(4) . . .
51(4) . . .
42.0(34) . . .
50(4) . . .
47(4) . . .
53(4) . . .
52(4) . . .
59(4) . . .
40.5(33) . . .
50(4) . . .
44(4) . . .
47(4) . . .
53(4) . . .
54(4) . . .
56(4) . . .
57(4) . . .
46(4) . . .
48(4) . . .
53(4) . . .
53(4) . . .
61(4) . . .
62(4) . . .
45.2(35) . . .
49(4) . . .
50(4) . . .
48(4) . . .
42.3(34) . . .
47(4) . . .
43.6(35) . . .
49(4) . . .
48(4) . . .
54(4) . . .
42.0(33) . . .
40.7(33) . . .
61(4) . . .
53(4) . . .
54(4) . . .
41.4(33) . . .
49(4) . . .
47(4) . . .
51(4) . . .
50(4) . . .
52(4) . . .
58(4) . . .
50(4) . . .
51(4) . . .
51(4) . . .
48(4) . . .
36.6(31) . . .
53(4) . . .
61(4) . . .
43.5(34) . . .
52(4) . . .
42(4) . . .
47(4) . . .
63(4) . . .
49(4) . . .
55(4) . . .
48(4) . . .
54(4) . . .
52(4) . . .
59(4) . . .
46(4) . . .
38.2(33) . . .
44(4) . . .
45(4) . . .
50(4) . . .
55(4) . . .
46(4) . . .
53(4) . . .
47(4) . . .
42.5(34) . . .
55(4) . . .
52(4) . . .
60(4) . . .
47(4) . . .
50(4) . . .
48(4) . . .
44(4) . . .
54(4) . . .
51(4) . . .
49(4) . . .
49(4) . . .
51(4) . . .
54(4) . . .
49(4) . . .
46(4) . . .
39.2(33) . . .
42.7(35) . . .
52(4) . . .
51(4) . . .
59(4) . . .
46(4) . . .
52(4) . . .
50(4) . . .
64(4) . . .
52(4) . . .
51(4) . . .
55(4) . . .
50(4) . . .
50(4) . . .
52(4) . . .
52(4) . . .
52(4) . . .
54(4) . . .
49(4) . . .
47(4) . . .
51(4) . . .
45.3(35) . . .
45(4) . . .
50(4) . . .
54(4) . . .
47(4) . . .
44(4) . . .
45(4) . . .
48(4) . . .
57(4) . . .
57(4) . . .
42.6(34) . . .
45(4) . . .
62(4) . . .
54(4) . . .
40.3(34) . . .
47(4) . . .
50(4) . . .
59(4) . . .
54(4) . . .
51(4) . . .
46(4) . . .
53(4) . . .
53(4) . . .
46(4) . . .
56(4) . . .
57(4) . . .
52(4) . . .
42.7(34) . . .
49(4) . . .
47(4) . . .
49(4) . . .
56(4) . . .
55(4) . . .
46(4) . . .
48(4) . . .
58(4) . . .
48(4) . . .
46.1(35) . . .
52(4) . . .
42.1(35) . . .
51(4) . . .
41.6(33) . . .
50(4) . . .
49(4) . . .
40(4) . . .
59(4) . . .
56(4) . . .
53(4) . . .
54(4) . . .
59(4) . . .
60(4) . . .
49(4) . . .
51(4) . . .
66(5) . . .
60(4) . . .
51(4) . . .
48(4) . . .
53(4) . . .
58(4) . . .
44.9(35) . . .
51(4) . . .
59(4) . . .
52(4) . . .
47(4) . . .
47(4) . . .
54(4) . . .
50(4) . . .
43(4) . . .
53(4) . . .
58(4) . . .
48(4) . . .
56(4) . . .
55(4) . . .
64(4) . . .
66(4) . . .
54(4) . . .
53(4) . . .
52(4) . . .
49(4) . . .
49(4) . . .
55(4) . . .
49(4) . . .
52(4) . . .
52(4) . . .
54(4) . . .
44.1(35) . . .
51(4) . . .
56(4) . . .
55(4) . . .
49(4) . . .
49(4) . . .
44(4) . . .
42(4) . . .
42(4) . . .
47(4) . . .
51(4) . . .
44.0(34) . . .
54(4) . . .
49(4) . . .
44.0(35) . . .
49(4) . . .
54(4) . . .
54(4) . . .
50(4) . . .
61(4) . . .
56(4) . . .
54(4) . . .
44(4) . . .
39(4) . . .
46(4) . . .
46(4) . . .
54(4) . . .
52(4) . . .
53(4) . . .
47(4) . . .
46(4) . . .
46(4) . . .
49(4) . . .
37.8(32) . . .
54(4) . . .
52(4) . . .
53(4) . . .
54(4) . . .
45(4) . . .
54(4) . . .
49(4) . . .
56(4) . . .
46(4) . . .
49(4) . . .
50(4) . . .
57(4) . . .
49(4) . . .
58(4) . . .
55(4) . . .
47(4) . . .
48(4) . . .
51(4) . . .
57(4) . . .
48(4) . . .
44.2(34) . . .
54(4) . . .
55(4) . . .
50(4) . . .
54(4) . . .
49(4) . . .
50(4) . . .
52(4) . . .
50(4) . . .
53(4) . . .
54(4) . . .
53(4) . . .
51(4) . . .
54(4) . . .
53(4) . . .
53(4) . . .
56(4) . . .
33.8(31) . . .
50(4) . . .
50(4) . . .
49(4) . . .
50(4) . . .
40.8(34) . . .
41.7(34) . . .
52(4) . . .
54(4) . . .
48(4) . . .
47(4) . . .
54(4) . . .
53(4) . . .
55(4) . . .
46(4) . . .
51(4) . . .
48(4) . . .
50(4) . . .
41.5(33) . . .
54(4) . . .
47(4) . . .
49(4) . . .
53(4) . . .
41.6(33) . . .
50(4) . . .
55(4) . . .
47(4) . . .
48(4) . . .
52(4) . . .
42(4) . . .
48(4) . . .
43.2(35) . . .
59(4) . . .
41.4(33) . . .
53(4) . . .
47(4) . . .
55(4) . . .
55(4) . . .
43.1(34) . . .
43(4) . . .
48(4) . . .
53(4) . . .
52(4) . . .
51(4) . . .
47(4) . . .
50(4) . . .
51(4) . . .
42.8(35) . . .
46(4) . . .
47(4) . . .
48(4) . . .
45(4) . . .
58(4) . . .
59(4) . . .
54(4) . . .
51(4) . . .
45(4) . . .
46(4) . . .
48(4) . . .
47(4) . . .
52(4) . . .
51(4) . . .
44.4(34) . . .
57(4) . . .
57(4) . . .
50(4) . . .
54(4) . . .
51(4) . . .
39.3(33) . . .
48(4) . . .
49(4) . . .
51(4) . . .
53(4) . . .
47(4) . . .
59(4) . . .
56(4) . . .
47(4) . . .
46(4) . . .
44.3(35) . . .
47(4) . . .
42.9(34) . . .
53(4) . . .
51(4) . . .
42(4) . . .
47(4) . . .
52(4) . . .
51(4) . . .
52(4) . . .
49(4) . . .
46(4) . . .
39(4) . . .
52(4) . . .
48(4) . . .
47.2(35) . . .
51(4) . . .
57(4) . . .
50(4) . . .
50(4) . . .
65(4) . . .
67(5) . . .
55(4) . . .
48(4) . . .
46(4) . . .
54(4) . . .
57(4) . . .
60(4) . . .
52(4) . . .
59(4) . . .
60(4) . . .
44.9(34) . . .
59(4) . . .
56(4) . . .
56(4) . . .
53(4) . . .
61(4) . . .
48(4) . . .
48(4) . . .
51(4) . . .
51(4) . . .
50(4) . . .
48(4) . . .
54(4) . . .
46(4) . . .
46(4) . . .
38.4(34) . . .
39.4(34) . . .
44.6(35) . . .
50(4) . . .
49(4) . . .
48(4) . . .
52(4) . . .
56(4) . . .
55(4) . . .
43.8(35) . . .
59(4) . . .
51(4) . . .
39.7(33) . . .
56(4) . . .
48(4) . . .
50(4) . . .
59(4) . . .
50(4) . . .
50(4) . . .
56(4) . . .
47(4) . . .
59(4) . . .
65(4) . . .
49(4) . . .
43.1(35) . . .
52(4) . . .
62(4) . . .
48(4) . . .
43.4(34) . . .
48(4) . . .
56(4) . . .
47(4) . . .
48(4) . . .
51(4) . . .
54(4) . . .
54(4) . . .
61(4) . . .
59(4) . . .
53(4) . . .
47(4) . . .
55(4) . . .
59(4) . . .
46(4) . . .
46(4) . . .
53(4) . . .
48(4) . . .
48(4) . . .
52(4) . . .
55(4) . . .
46(4) . . .
57(4) . . .
38.6(32) . . .
42.3(34) . . .
51(4) . . .
56(4) . . .
54(4) . . .
52(4) . . .
54(4) . . .
50(4) . . .
53(4) . . .
50(4) . . .
49(4) . . .
50(4) . . .
44(4) . . .
44.2(34) . . .
59(4) . . .
48(4) . . .
51(4) . . .
51(4) . . .
49(4) . . .
43.2(34) . . .
46(4) . . .
43(4) . . .
44(4) . . .
55(4) . . .
50(4) . . .
49(4) . . .
53(4) . . .
47(4) . . .
53(4) . . .
44.1(34) . . .
42.7(34) . . .
43(4) . . .
48(4) . . .
53(4) . . .
46(4) . . .
51(4) . . .
52(4) . . .
43.9(34) . . .
54(4) . . .
46(4) . . .
52(4) . . .
52(4) . . .
48(4) . . .
49(4) . . .
46(4) . . .
47(4) . . .
49(4) . . .
52(4) . . .
49(4) . . .
52(4) . . .
43(4) . . .
47(4) . . .
61(4) . . .
57(4) . . .
50(4) . . .
50(4) . . .
51(4) . . .
45(4) . . .
44.3(35) . . .
51(4) . . .
47(4) . . .
50(4) . . .
46(4) . . .
51(4) . . .
44.9(34) . . .
49(4) . . .
52(4) . . .
59(4) . . .
46(4) . . .
42.2(34) . . .
46(4) . . .
60(4) . . .
56(4) . . .
45.4(35) . . .
46(4) . . .
53(4) . . .
43(4) . . .
51(4) . . .
50(4) . . .
49(4) . . .
52(4) . . .
49(4) . . .
45(4) . . .
45.8(35) . . .
51(4) . . .
43.8(34) . . .
56(4) . . .
45(4) . . .
54(4) . . .
54(4) . . .
54(4) . . .
51(4) . . .
52(4) . . .
51(4) . . .
50(4) . . .
43(4) . . .
43.6(35) . . .
43(4) . . .
44.0(34) . . .
40.9(34) . . .
43(4) . . .
44(4) . . .
44(4) . . .
39.3(33) . . .
52(4) . . .
49(4) . . .
48(4) . . .
51(4) . . .
50(4) . . .
49(4) . . .
44(4) . . .
48(4) . . .
58(4) . . .
55(4) . . .
51(4) . . .
47(4) . . .
65(5) . . .
42.1(34) . . .
48(4) . . .
34.0(30) . . .
40.9(34) . . .
55(4) . . .
56(4) . . .
44.9(35) . . .
53(4) . . .
50(4) . . .
49(4) . . .
53(4) . . .
51(4) . . .
46(4) . . .
52(4) . . .
54(4) . . .
46(4) . . .
51(4) . . .
54(4) . . .
60(4) . . .
55(4) . . .
41.3(33) . . .
40.5(33) . . .
54(4) . . .
53(4) . . .
54(4) . . .
56(4) . . .
54(4) . . .
49(4) . . .
57(4) . . .
54(4) . . .
41.6(34) . . .
51(4) . . .
46(4) . . .
54(4) . . .
53(4) . . .
52(4) . . .
42.4(35) . . .
41(4) . . .
48(4) . . .
38.9(33) . . .
48(4) . . .
48(4) . . .
46(4) . . .
50(4) . . .
45.1(35) . . .
49(4) . . .
43.7(35) . . .
48(4) . . .
46(4) . . .
49(4) . . .
59(4) . . .
55(4) . . .
48(4) . . .
47(4) . . .
54(4) . . .
57(4) . . .
51(4) . . .
51(4) . . .
50(4) . . .
50(4) . . .
56(4) . . .
42(4) . . .
49(4) . . .
46(4) . . .
41.1(33) . . .
57(4) . . .
58(4) . . .
41.9(34) . . .
44(4) . . .
45.8(35) . . .
56(4) . . .
47(4) . . .
42.8(35) . . .
41.2(33) . . .
51(4) . . .
43(4) . . .
43(4) . . .
49(4) . . .
44.3(35) . . .
51(4) . . .
43(4) . . .
38.9(33) . . .
43.3(35) . . .
52(4) . . .
40.7(35) . . .
51(4) . . .
61(5) . . .
48(4) . . .
43.4(34) . . .
48(4) . . .
45(4) . . .
47(4) . . .
44.0(35) . . .
52(4) . . .
59(4) . . .
45.0(35) . . .
43(4) . . .
53(4) . . .
53(4) . . .
48(4) . . .
53(4) . . .
54(4) . . .
51(4) . . .
39.6(32) . . .
41.8(33) . . .
49(4) . . .
46(4) . . .
41.8(34) . . .
45.8(35) . . .
52(4) . . .
49(4) . . .
50(4) . . .
62(4) . . .
47(4) . . .
47(4) . . .
45(4) . . .
44(4) . . .
41.1(34) . . .
41.1(34) . . .
53(4) . . .
49(4) . . .
46(4) . . .
50(4) . . .
49(4) . . .
59(4) . . .
55(4) . . .
51(4) . . .
49(4) . . .
43.8(34) . . .
37.0(32) . . .
40.3(34) . . .
50(4) . . .
41.7(33) . . .
41.2(34) . . .
50(4) . . .
46(4) . . .
49(4) . . .
43.1(35) . . .
47(4) . . .
39.7(33) . . .
46(4) . . .
46(4) . . .
61(4) . . .
60(4) . . .
53(4) . . .
43(4) . . .
46(4) . . .
45.5(35) . . .
50(4) . . .
49(4) . . .
48(4) . . .
46(4) . . .
59(4) . . .
66(4) . . .
48(4) . . .
38.3(34) . . .
41.2(34) . . .
55(4) . . .
52(4) . . .
53(4) . . .
46(4) . . .
50(4) . . .
46(4) . . .
49(4) . . .
56(4) . . .
43(4) . . .
45(4) . . .
42.7(34) . . .
48(4) . . .
47(4) . . .
50(4) . . .
43.3(34) . . .
55(4) . . .
50(4) . . .
49(4) . . .
43.1(34) . . .
42.7(34) . . .
46(4) . . .
56(4) . . .
48(4) . . .
40.9(34) . . .
45.6(35) . . .
42.4(34) . . .
50(4) . . .
48(4) . . .
51(4) . . .
47(4) . . .
56(4) . . .
47(4) . . .
56(4) . . .
54(4) . . .
53(4) . . .
44(4) . . .
50(4) . . .
52(4) . . .
51(4) . . .
45.0(35) . . .
45(4) . . .
50(4) . . .
52(4) . . .
45(4) . . .
48(4) . . .
46(4) . . .
44(4) . . .
39.4(34) . . .
46(4) . . .
53(4) . . .
44(4) . . .
41.2(35) . . .
39(4) . . .
48(4) . . .
40.1(33) . . .
55(4) . . .
48(4) . . .
47(4) . . .
49(4) . . .
57(4) . . .
53(4) . . .
49(4) . . .
46(4) . . .
51(4) . . .
42.0(34) . . .
47(4) . . .
38.3(33) . . .
58(4) . . .
53(4) . . .
45.0(35) . . .
35.8(31) . . .
52(4) . . .
45(4) . . .
53(4) . . .
56(4) . . .
48(4) . . .
43(4) . . .
51(4) . . .
46(4) . . .
40.8(33) . . .
48(4) . . .
56(4) . . .
51(4) . . .
51(4) . . .
39.3(33) . . .
46(4) . . .
55(4) . . .
47(4) . . .
50(4) . . .
49(4) . . .
43.2(35) . . .
48(4) . . .
56(4) . . .
58(4) . . .
49(4) . . .
43.7(35) . . .
50(4) . . .
44(4) . . .
48(4) . . .
51(4) . . .
48(4) . . .
37.7(33) . . .
40.7(34) . . .
39.7(33) . . .
51(4) . . .
51(4) . . .
51(4) . . .
43(4) . . .
46(4) . . .
53(4) . . .
47(4) . . .
55(4) . . .
57(4) . . .
39.3(33) . . .
50(4) . . .
48(4) . . .
49(4) . . .
42.4(34) . . .
50(4) . . .
47(4) . . .
49(4) . . .
56(4) . . .
45(4) . . .
50(4) . . .
52(4) . . .
50(4) . . .
42.7(34) . . .
54(4) . . .
45(4) . . .
45(4) . . .
46(4) . . .
47(4) . . .
51(4) . . .
52(4) . . .
44(4) . . .
42(4) . . .
47(4) . . .
49(4) . . .
48(4) . . .
54(4) . . .
39.2(35) . . .
49(4) . . .
48(4) . . .
38.4(32) . . .
47(4) . . .
48(4) . . .
35.8(32) . . .
43.9(34) . . .
41.8(33) . . .
45(4) . . .
48(4) . . .
43.0(35) . . .
53(4) . . .
46(4) . . .
40.1(34) . . .
37.9(34) . . .
37.6(33) . . .
42.1(33) . . .
51(4) . . .
50(4) . . .
54(4) . . .
51(4) . . .
49(4) . . .
50(4) . . .
48(4) . . .
53(4) . . .
50(4) . . .
50(4) . . .
47(4) . . .
46(4) . . .
41.1(35) . . .
50(4) . . .
56(4) . . .
50(4) . . .
46(4) . . .
47(4) . . .
46.5(35) . . .
47(4) . . .
47(4) . . .
36.6(34) . . .
41(4) . . .
57(4) . . .
43.2(34) . . .
46(4) . . .
49(4) . . .
48(4) . . .
49(4) . . .
47(4) . . .
48(4) . . .
41.0(34) . . .
41.2(35) . . .
48(4) . . .
51(4) . . .
46(4) . . .
47(4) . . .
41.2(34) . . .
44.6(35) . . .
42.8(34) . . .
47(4) . . .
42(4) . . .
46(4) . . .
57(4) . . .
44.1(34) . . .
41.9(34) . . .
42.2(34) . . .
50(4) . . .
47(4) . . .
46(4) . . .
44(4) . . .
52(4) . . .
57(4) . . .
54(4) . . .
50(4) . . .
56(4) . . .
45(4) . . .
48(4) . . .
51(4) . . .
54(4) . . .
47(4) . . .
50(4) . . .
44(4) . . .
41.3(33) . . .
64(4) . . .
60(4) . . .
49(4) . . .
53(4) . . .
48(4) . . .
42.6(34) . . .
44(4) . . .
52(4) . . .
52(4) . . .
49(4) . . .
43(4) . . .
48(4) . . .
47(4) . . .
49(4) . . .
46(4) . . .
53(4) . . .
46(4) . . .
50(4) . . .
34.0(30) . . .
46(4) . . .
46(4) . . .
42(4) . . .
47(4) . . .
53(4) . . .
44.3(34) . . .
44(4) . . .
48(4) . . .
56(4) . . .
49(4) . . .
45(4) . . .
53(4) . . .
46(4) . . .
49(4) . . .
41.9(34) . . .
48(4) . . .
46(4) . . .
47(4) . . .
62(4) . . .
49(4) . . .
48(4) . . .
45(4) . . .
51(4) . . .
46(4) . . .
47(4) . . .
50(4) . . .
40.6(33) . . .
43.1(35) . . .
45.7(35) . . .
57(4) . . .
58(4) . . .
47(4) . . .
50(4) . . .
50(4) . . .
48(4) . . .
54(4) . . .
61(4) . . .
53(4) . . .
47(4) . . .
54(4) . . .
50(4) . . .
50(4) . . .
45(4) . . .
40.6(33) . . .
51(4) . . .
46(4) . . .
41.6(34) . . .
53(4) . . .
40.2(33) . . .
52(4) . . .
42.8(34) . . .
40.0(34) . . .
46(4) . . .
50(4) . . .
48(4) . . .
45.4(35) . . .
37.7(33) . . .
49(4) . . .
59(4) . . .
53(4) . . .
54(4) . . .
51(4) . . .
48(4) . . .
49(4) . . .
48(4) . . .
52(4) . . .
49(4) . . .
46(4) . . .
45.6(35) . . .
36.9(32) . . .
46(4) . . .
44(4) . . .
48(4) . . .
54(4) . . .
47(4) . . .
49(4) . . .
45(4) . . .
39.2(33) . . .
42.7(33) . . .
42.7(34) . . .
50(4) . . .
47(4) . . .
51(4) . . .
45.3(35) . . .
44(4) . . .
52(4) . . .
48(4) . . .
55(4) . . .
56(4) . . .
50(4) . . .
46(4) . . .
46(4) . . .
51(4) . . .
35.0(30) . . .
48(4) . . .
40(4) . . .
41(4) . . .
51(4) . . .
47(4) . . .
52(4) . . .
44(4) . . .
49(4) . . .
56(4) . . .
49(4) . . .
48(4) . . .
46(4) . . .
45(4) . . .
41.9(34) . . .
48(4) . . .
47(4) . . .
50(4) . . .
52(4) . . .
52(4) . . .
43.4(35) . . .
39.5(34) . . .
45(4) . . .
49(4) . . .
41.5(33) . . .
43(4) . . .
48(4) . . .
45.8(35) . . .
44(4) . . .
44.6(34) . . .
46(4) . . .
46(4) . . .
47(4) . . .
45(4) . . .
47(4) . . .
39.3(35) . . .
45(4) . . .
45(4) . . .
43.3(34) . . .
51(4) . . .
57(4) . . .
40.1(35) . . .
45(4) . . .
52(4) . . .
50(4) . . .
42.2(33) . . .
43(4) . . .
49(4) . . .
53(4) . . .
51(4) . . .
49(4) . . .
45(4) . . .
37.2(32) . . .
46.5(35) . . .
39.7(33) . . .
51(4) . . .
57(4) . . .
45(4) . . .
38.3(33) . . .
54(4) . . .
53(4) . . .
53(4) . . .
46(4) . . .
48(4) . . .
38.1(32) . . .
50(4) . . .
45(4) . . .
41(4) . . .
41.1(34) . . .
48(4) . . .
54(4) . . .
44(4) . . .
45(4) . . .
47(4) . . .
47(4) . . .
51(4) . . .
47(4) . . .
52(4) . . .
57(4) . . .
53(4) . . .
55(4) . . .
41.3(34) . . .
47(4) . . .
49(4) . . .
55(4) . . .
40.0(34) . . .
50(4) . . .
47(4) . . .
40.9(33) . . .
42(4) . . .
49(4) . . .
42.0(34) . . .
37.3(32) . . .
41.4(34) . . .
54(4) . . .
32.7(32) . . .
51(4) . . .
41.0(33) . . .
40.0(33) . . .
49(4) . . .
46(4) . . .
33.0(32) . . .
48(4) . . .
51(4) . . .
50(4) . . .
45(4) . . .
42.1(35) . . .
46(4) . . .
46(4) . . .
54(4) . . .
48(4) . . .
55(4) . . .
40.5(33) . . .
52(4) . . .
51(4) . . .
43.6(35) . . .
51(4) . . .
41.9(34) . . .
37.7(32) . . .
47(4) . . .
46(4) . . .
48(4) . . .
51(4) . . .
46(4) . . .
48(4) . . .
49(4) . . .
45.4(35) . . .
48(4) . . .
46(4) . . .
53(4) . . .
44.7(35) . . .
54(4) . . .
51(4) . . .
51(4) . . .
54(4) . . .
44.0(35) . . .
50(4) . . .
45.0(35) . . .
47(4) . . .
49(4) . . .
48(4) . . .
37.1(31) . . .
45.1(35) . . .
48(4) . . .
45(4) . . .
47(4) . . .
51(4) . . .
42.5(34) . . .
47(4) . . .
48(4) . . .
54(4) . . .
64(4) . . .
50(4) . . .
54(4) . . .
51(4) . . .
40(4) . . .
50(4) . . .
40.4(33) . . .
42(4) . . .
45(4) . . .
51(4) . . .
55(4) . . .
47(4) . . .
49(4) . . .
49(4) . . .
49(4) . . .
44.9(35) . . .
52(4) . . .
35.8(30) . . .
52(4) . . .
48(4) . . .
51(4) . . .
50(4) . . .
39.8(33) . . .
53(4) . . .
48(4) . . .
53(4) . . .
48(4) . . .
39.4(34) . . .
52(4) . . .
48(4) . . .
49(4) . . .
49(4) . . .
45(4) . . .
40.0(35) . . .
43.1(35) . . .
44.6(34) . . .
50(4) . . .
38.7(32) . . .
53(4) . . .
49(4) . . .
44.0(34) . . .
43(4) . . .
33.3(31) . . .
47(4) . . .
51(4) . . .
48(4) . . .
39.7(32) . . .
49(4) . . .
36.3(32) . . .
43.0(34) . . .
48(4) . . .
39.1(34) . . .
43(4) . . .
52(4) . . .
50(4) . . .
47(4) . . .
49(4) . . .
41.5(35) . . .
45(4) . . .
64(4) . . .
49(4) . . .
52(4) . . .
52(4) . . .
46(4) . . .
52(4) . . .
47(4) . . .
54(4) . . .
55(4) . . .
43(4) . . .
45(4) . . .
55(4) . . .
42.3(35) . . .
49(4) . . .
52(4) . . .
48(4) . . .
40.6(34) . . .
37.0(32) . . .
46(4) . . .
45.0(35) . . .
52(4) . . .
56(4) . . .
46(4) . . .
51(4) . . .
52(4) . . .
50(4) . . .
42.5(34) . . .
54(4) . . .
41.5(33) . . .
51(4) . . .
52(4) . . .
47(4) . . .
38(4) . . .
42(4) . . .
43.8(35) . . .
54(4) . . .
53(4) . . .
40.4(34) . . .
47(4) . . .
43.6(35) . . .
50(4) . . .
44.4(35) . . .
47(4) . . .
49(4) . . .
41.5(34) . . .
47(4) . . .
44.4(35) . . .
48(4) . . .
48(4) . . .
52(4) . . .
42.8(34) . . .
53(4) . . .
57(4) . . .
44.2(35) . . .
50(4) . . .
45.0(34) . . .
54(4) . . .
46(4) . . .
51(4) . . .
50(4) . . .
50(4) . . .
46(4) . . .
51(4) . . .
56(4) . . .
55(4) . . .
52(4) . . .
45(4) . . .
50(4) . . .
52(4) . . .
44.4(35) . . .
53(4) . . .
55(4) . . .
52(4) . . .
46(4) . . .
52(4) . . .
56(4) . . .
39(4) . . .
49(4) . . .
54(4) . . .
37.6(32) . . .
39.7(34) . . .
51(4) . . .
44(4) . . .
44(4) . . .
50(4) . . .
57(4) . . .
44(4) . . .
41(4) . . .
47(4) . . .
48(4) . . .
40.3(33) . . .
43(4) . . .
55(4) . . .
49(4) . . .
38.9(32) . . .
49(4) . . .
43(4) . . .
39.4(34) . . .
40.2(33) . . .
48(4) . . .
47(4) . . .
44(4) . . .
43.2(35) . . .
52(4) . . .
52(4) . . .
42(4) . . .
44(4) . . .
40.1(35) . . .
48(4) . . .
51(4) . . .
39.8(34) . . .
40.8(34) . . .
38.2(34) . . .
52(4) . . .
46(4) . . .
44(4) . . .
42(4) . . .
54(4) . . .
50(4) . . .
42.4(34) . . .
46(4) . . .
47(4) . . .
47(4) . . .
39.5(33) . . .
50(4) . . .
53(4) . . .
51(4) . . .
46(4) . . .
43.2(34) . . .
38.5(33) . . .
52(4) . . .
57(4) . . .
50(4) . . .
53(4) . . .
47(4) . . .
37.7(33) . . .
41.8(34) . . .
41.5(33) . . .
33.5(30) . . .
35.1(32) . . .
44(4) . . .
46(4) . . .
45.7(35) . . .
38.4(32) . . .
54(4) . . .
43(4) . . .
34.3(31) . . .
40.5(33) . . .
51(4) . . .
47(4) . . .
46(4) . . .
45(4) . . .
41.9(33) . . .
35.8(31) . . .
54(4) . . .
52(4) . . .
38.4(35) . . .
44.4(35) . . .
36.7(31) . . .
44(4) . . .
43.3(34) . . .
44(4) . . .
53(4) . . .
47(4) . . .
40(4) . . .
47(4) . . .
55(4) . . .
49(4) . . .
47(4) . . .
44(4) . . .
49(4) . . .
46(4) . . .
45(4) . . .
51(4) . . .
44(4) . . .
47(4) . . .
45(4) . . .
60(4) . . .
44(4) . . .
47(4) . . .
48(4) . . .
49(4) . . .
46(4) . . .
53(4) . . .
44(4) . . .
46(4) . . .
47(4) . . .
44(4) . . .
37.1(31) . . .
49(4) . . .
43.8(34) . . .
45.8(35) . . .
50(4) . . .
54(4) . . .
47(4) . . .
53(4) . . .
49(4) . . .
57(4) . . .
48(4) . . .
42(4) . . .
42.2(34) . . .
51(4) . . .
37.7(32) . . .
44(4) . . .
50(4) . . .
36.5(33) . . .
44.9(35) . . .
50(4) . . .
53(4) . . .
53(4) . . .
55(4) . . .
46(4) . . .
49(4) . . .
46(4) . . .
44(4) . . .
43.7(34) . . .
42.8(34) . . .
37.8(33) . . .
41(4) . . .
43(4) . . .
50(4) . . .
44.8(35) . . .
43(4) . . .
46(4) . . .
42.8(34) . . .
52(4) . . .
45.0(34) . . .
44(4) . . .
43(4) . . .
45(4) . . .
44(4) . . .
47(4) . . .
54(4) . . .
46(4) . . .
43(4) . . .
45(4) . . .
50(4) . . .
46(4) . . .
50(4) . . .
38.6(33) . . .
49(4) . . .
43.5(34) . . .
49(4) . . .
45(4) . . .
36.9(33) . . .
53(4) . . .
43.8(34) . . .
47(4) . . .
43(4) . . .
52(4) . . .
47(4) . . .
62(4) . . .
47(4) . . .
51(4) . . .
39.4(34) . . .
46(4) . . .
45(4) . . .
43(4) . . .
39.0(32) . . .
52(4) . . .
46(4) . . .
54(4) . . .
42.8(34) . . .
52(4) . . .
37.1(33) . . .
34.9(31) . . .
46(4) . . .
39.2(34) . . .
37.7(34) . . .
59(4) . . .
48(4) . . .
57(4) . . .
47(4) . . .
53(4) . . .
49(4) . . .
49(4) . . .
38.5(33) . . .
50(4) . . .
49(4) . . .
42.3(34) . . .
52(4) . . .
51(4) . . .
46(4) . . .
38.7(34) . . .
40.9(34) . . .
46(4) . . .
43(4) . . .
42(4) . . .
47(4) . . .
48(4) . . .
40.5(33) . . .
43(4) . . .
49(4) . . .
42(4) . . .
41.0(33) . . .
52(4) . . .
46(4) . . .
39.4(34) . . .
40.6(34) . . .
42.4(34) . . .
47(4) . . .
45(4) . . .
41.6(34) . . .
44(4) . . .
42.8(34) . . .
35.0(31) . . .
40.5(35) . . .
41.9(34) . . .
47(4) . . .
44.2(35) . . .
55(4) . . .
49(4) . . .
41.6(34) . . .
56(4) . . .
44.1(35) . . .
41.4(34) . . .
35.8(31) . . .
47(4) . . .
37.5(33) . . .
44.3(35) . . .
44.1(35) . . .
56(4) . . .
50(4) . . .
50(4) . . .
39.1(32) . . .
43(4) . . .
38.2(35) . . .
35.9(33) . . .
47(4) . . .
48(4) . . .
43(4) . . .
47(4) . . .
46(4) . . .
44(4) . . .
39.2(32) . . .
43.3(35) . . .
43(4) . . .
37.7(33) . . .
50(4) . . .
54(4) . . .
45(4) . . .
46(4) . . .
54(4) . . .
54(4) . . .
48(4) . . .
54(4) . . .
45(4) . . .
47(4) . . .
55(4) . . .
44.7(34) . . .
52(4) . . .
51(4) . . .
52(4) . . .
34.2(30) . . .
43.7(35) . . .
46(4) . . .
44(4) . . .
45(4) . . .
48(4) . . .
45(4) . . .
48(4) . . .
45(4) . . .
53(4) . . .
52(4) . . .
56(4) . . .
48(4) . . .
54(4) . . .
49(4) . . .
40.3(33) . . .
43(4) . . .
45(4) . . .
42.2(35) . . .
42(4) . . .
41.6(33) . . .
41.8(34) . . .
42.7(35) . . .
42(4) . . .
41.5(33) . . .
57(4) . . .
39.8(33) . . .
47(4) . . .
49(4) . . .
42.5(34) . . .
45(4) . . .
42.0(34) . . .
46(4) . . .
47(4) . . .
46(4) . . .
39.9(33) . . .
38.1(32) . . .
48(4) . . .
44(4) . . .
45(4) . . .
35.9(31) . . .
48(4) . . .
45(4) . . .
48(4) . . .
44.8(35) . . .
55(4) . . .
48(4) . . .
45(4) . . .
44(4) . . .
42.5(35) . . .
42.7(34) . . .
48(4) . . .
44(4) . . .
48(4) . . .
45.1(35) . . .
47(4) . . .
40.7(35) . . .
43(4) . . .
52(4) . . .
45.1(35) . . .
58(4) . . .
50(4) . . .
47(4) . . .
40.7(34) . . .
50(4) . . .
44.8(35) . . .
46(4) . . .
49(4) . . .
49(4) . . .
50(4) . . .
36.5(32) . . .
45(4) . . .
47(4) . . .
47(4) . . .
48(4) . . .
51(4) . . .
54(4) . . .
50(4) . . .
45(4) . . .
49(4) . . .
54(4) . . .
51(4) . . .
48(4) . . .
49(4) . . .
47(4) . . .
39.5(33) . . .
36.2(33) . . .
42.0(35) . . .
44.5(34) . . .
51(4) . . .
55(4) . . .
48(4) . . .
48(4) . . .
39.2(32) . . .
41.1(34) . . .
45(4) . . .
53(4) . . .
51(4) . . .
46(4) . . .
42.0(33) . . .
55(4) . . .
43(4) . . .
46(4) . . .
51(4) . . .
46(4) . . .
47(4) . . .
39.8(34) . . .
52(4) . . .
43.6(34) . . .
38.7(33) . . .
43(4) . . .
49(4) . . .
51(4) . . .
48(4) . . .
49(4) . . .
47(4) . . .
53(4) . . .
42.7(34) . . .
55(4) . . .
40.9(34) . . .
43(4) . . .
54(4) . . .
46(4) . . .
45(4) . . .
45(4) . . .
50(4) . . .
45(4) . . .
59(4) . . .
48(4) . . .
51(4) . . .
52(4) . . .
41(4) . . .
42.8(34) . . .
51(4) . . .
50(4) . . .
58(4) . . .
46(4) . . .
42(4) . . .
39.7(32) . . .
43(4) . . .
50(4) . . .
42(4) . . .
43.5(33) . . .
47(4) . . .
41.9(34) . . .
51(4) . . .
52(4) . . .
54(4) . . .
54(4) . . .
43.0(35) . . .
53(4) . . .
43(4) . . .
45.5(35) . . .
50(4) . . .
53(4) . . .
51(4) . . .
49(4) . . .
50(4) . . .
50(4) . . .
41.7(34) . . .
44(4) . . .
44(4) . . .
41.8(34) . . .
53(4) . . .
41.5(34) . . .
46(4) . . .
32.9(30) . . .
52(4) . . .
47(4) . . .
48(4) . . .
41.1(34) . . .
56(4) . . .
43.0(34) . . .
56(4) . . .
47(4) . . .
42.2(34) . . .
45(4) . . .
39.0(33) . . .
54(4) . . .
45(4) . . .
44(4) . . .
43(4) . . .
55(4) . . .
39.8(33) . . .
55(4) . . .
40.0(34) . . .
43.2(34) . . .
45(4) . . .
45(4) . . .
48(4) . . .
39.0(35) . . .
36.8(31) . . .
43.2(35) . . .
44(4) . . .
45(4) . . .
47(4) . . .
51(4) . . .
44.9(35) . . .
52(4) . . .
49(4) . . .
42.5(35) . . .
45(4) . . .
43(4) . . .
49(4) . . .
49(4) . . .
53(4) . . .
45(4) . . .
50(4) . . .
51(4) . . .
38.4(34) . . .
38.8(33) . . .
43.6(35) . . .
46(4) . . .
44(4) . . .
40.8(34) . . .
45(4) . . .
47(4) . . .
45(4) . . .
36.4(32) . . .
40(4) . . .
47(4) . . .
37.7(32) . . .
44(4) . . .
40(4) . . .
38.2(34) . . .
48(4) . . .
54(4) . . .
47(4) . . .
45(4) . . .
46(4) . . .
44.6(35) . . .
39.4(33) . . .
39(4) . . .
40(4) . . .
48(4) . . .
47(4) . . .
52(4) . . .
42.4(34) . . .
47(4) . . .
50(4) . . .
52(4) . . .
39.5(33) . . .
44.7(34) . . .
52(4) . . .
48(4) . . .
44.8(35) . . .
38.7(34) . . .
42.9(34) . . .
57(4) . . .
47(4) . . .
52(4) . . .
50(4) . . .
46(4) . . .
45(4) . . .
58(4) . . .
48(4) . . .
45.2(35) . . .
45(4) . . .
55(4) . . .
48(4) . . .
41.5(34) . . .
41.3(34) . . .
35.1(34) . . .
49(4) . . .
53(4) . . .
39.9(33) . . .
44(4) . . .
35.4(33) . . .
43(4) . . .
50(4) . . .
46(4) . . .
54(4) . . .
48(4) . . .
46(4) . . .
43(4) . . .
43.5(34) . . .
40.7(33) . . .
48(4) . . .
43(4) . . .
44(4) . . .
38.6(32) . . .
43(4) . . .
58(5) . . .
39.5(34) . . .
37.5(31) . . .
57(4) . . .
53(4) . . .
42(4) . . .
36.0(32) . . .
44(4) . . .
41.9(33) . . .
54(4) . . .
50(4) . . .
37.9(35) . . .
43.4(34) . . .
48(4) . . .
46(4) . . .
51(4) . . .
47(4) . . .
40.9(34) . . .
36.7(31) . . .
37.2(33) . . .
44(4) . . .
41.0(34) . . .
62(4) . . .
39.0(34) . . .
43(4) . . .
49(4) . . .
51(4) . . .
49(4) . . .
54(4) . . .
43(4) . . .
47(4) . . .
48(4) . . .
56(4) . . .
34.4(31) . . .
46(4) . . .
39.0(34) . . .
53(4) . . .
50(4) . . .
50(4) . . .
35.9(32) . . .
41(4) . . .
49(4) . . .
44.0(35) . . .
44.3(35) . . .
38.6(33) . . .
46(4) . . .
40.5(34) . . .
50(4) . . .
40(4) . . .
44(4) . . .
51(4) . . .
44(4) . . .
34.3(30) . . .
50(4) . . .
49(4) . . .
42(4) . . .
42.7(34) . . .
48(4) . . .
46(4) . . .
52(4) . . .
49(4) . . .
51(4) . . .
45.2(35) . . .
54(4) . . .
45(4) . . .
48(4) . . .
46(4) . . .
56(4) . . .
40.5(33) . . .
42(4) . . .
41.9(35) . . .
40.3(33) . . .
43.4(34) . . .
41.0(35) . . .
43(4) . . .
42.0(34) . . .
47(4) . . .
42.2(34) . . .
42.4(33) . . .
38.8(33) . . .
36.1(32) . . .
34.4(31) . . .
43.0(34) . . .
47(4) . . .
40.2(34) . . .
33.4(32) . . .
36.9(32) . . .
57(4) . . .
47(4) . . .
38.4(33) . . .
50(4) . . .
50(4) . . .
36.5(32) . . .
36.8(35) . . .
45(4) . . .
45(4) . . .
37.1(32) . . .
48(4) . . .
44(4) . . .
43.8(35) . . .
44.9(35) . . .
39.7(33) . . .
43.2(35) . . .
55(4) . . .
37.9(31) . . .
41.3(33) . . .
38.1(33) . . .
42(4) . . .
39.0(35) . . .
39.7(33) . . .
39.9(33) . . .
42.8(34) . . .
48(4) . . .
37(4) . . .
48(4) . . .
37.5(32) . . .
40.2(33) . . .
44(4) . . .
41(4) . . .
45(4) . . .
37.6(32) . . .
44.4(34) . . .
61(4) . . .
52(4) . . .
30.5(29) . . .
49(4) . . .
38.9(32) . . .
46(4) . . .
39(4) . . .
45(4) . . .
44.6(35) . . .
47(4) . . .
40.2(34) . . .
37.7(33) . . .
43(4) . . .
51(4) . . .
54(4) . . .
46(4) . . .
47(4) . . .
44.3(35) . . .
49(4) . . .
42.5(35) . . .
43(4) . . .
45(4) . . .
41.3(33) . . .
34.1(30) . . .
46(4) . . .
39.8(35) . . .
49(4) . . .
40.1(33) . . .
41.3(33) . . .
45(4) . . .
38.4(34) . . .
41(4) . . .
40.7(33) . . .
38.6(32) . . .
47(4) . . .
37.0(33) . . .
45(4) . . .
46(4) . . .
44(4) . . .
39.7(33) . . .
39.8(35) . . .
41.0(34) . . .
42.0(34) . . .
43.1(34) . . .
44.9(35) . . .
51(4) . . .
43.2(34) . . .
43.3(34) . . .
51(4) . . .
40.1(33) . . .
47(4) . . .
45(4) . . .
51(4) . . .
53(4) . . .
59(4) . . .
45(4) . . .
48(4) . . .
40.5(33) . . .
48(4) . . .
49(4) . . .
41.0(35) . . .
44(4) . . .
38.8(32) . . .
44(4) . . .
49(4) . . .
49(4) . . .
48(4) . . .
39.6(33) . . .
39.4(35) . . .
38.1(34) . . .
46(4) . . .
36.7(33) . . .
35.1(31) . . .
44(4) . . .
42(4) . . .
43.9(35) . . .
40.0(32) . . .
41.7(33) . . .
45(4) . . .
43(4) . . .
53(4) . . .
43.9(34) . . .
39.6(33) . . .
41.0(34) . . .
41.8(33) . . .
50(4) . . .
39.6(33) . . .
50(4) . . .
47(4) . . .
39.5(33) . . .
40.3(34) . . .
50(4) . . .
36.6(32) . . .
36.7(33) . . .
44(4) . . .
48(4) . . .
56(4) . . .
39.9(33) . . .
37.9(33) . . .
44(4) . . .
43.1(35) . . .
45.0(35) . . .
40.7(34) . . .
41.6(33) . . .
43.5(35) . . .
44(4) . . .
45.3(35) . . .
46(4) . . .
48(4) . . .
38.6(31) . . .
41.0(34) . . .
41.8(34) . . .
45(4) . . .
41(4) . . .
40.9(33) . . .
47(4) . . .
50(4) . . .
46(4) . . .
44.3(35) . . .
45(4) . . .
41(4) . . .
39.5(33) . . .
42.7(34) . . .
43(4) . . .
36.1(32) . . .
41.5(35) . . .
48(4) . . .
45(4) . . .
41.3(34) . . .
50(4) . . .
48(4) . . .
40.6(33) . . .
38.0(32) . . .
51(4) . . .
37.7(32) . . .
52(4) . . .
41.0(34) . . .
52(4) . . .
58(4) . . .
43.7(35) . . .
39.9(33) . . .
41.9(34) . . .
44(4) . . .
34.6(33) . . .
42.3(35) . . .
48(4) . . .
42.6(33) . . .
45.8(35) . . .
50(4) . . .
41.1(34) . . .
55(4) . . .
43.2(34) . . .
30.9(29) . . .
41(4) . . .
47(4) . . .
55(4) . . .
49(4) . . .
60(4) . . .
45(4) . . .
45(4) . . .
54(4) . . .
42.8(34) . . .
49(4) . . .
39.8(32) . . .
54(4) . . .
46(4) . . .
47(4) . . .
39.2(32) . . .
47(4) . . .
52(4) . . .
49(4) . . .
41.4(35) . . .
43(4) . . .
37.6(35) . . .
41.7(34) . . .
45(4) . . .
34.6(30) . . .
41(4) . . .
40(4) . . .
50(4) . . .
45.2(34) . . .
42.1(35) . . .
43(4) . . .
38.7(34) . . .
40.0(33) . . .
54(4) . . .
42(4) . . .
35.0(31) . . .
47(4) . . .
53(4) . . .
50(4) . . .
43(4) . . .
47(4) . . .
45(4) . . .
29.9(28) . . .
36.9(32) . . .
30.9(29) . . .
42(4) . . .
45(4) . . .
43.5(34) . . .
48(4) . . .
43(4) . . .
41.8(35) . . .
48(4) . . .
44.5(35) . . .
48(4) . . .
49(4) . . .
50(4) . . .
41.3(35) . . .
38.6(32) . . .
40.5(34) . . .
42.9(34) . . .
50(4) . . .
38.5(32) . . .
45(4) . . .
46(4) . . .
32.3(30) . . .
48(4) . . .
48(4) . . .
43.5(34) . . .
51(4) . . .
60(4) . . .
46(4) . . .
44.4(35) . . .
44.3(35) . . .
42.8(34) . . .
43(4) . . .
46(4) . . .
53(4) . . .
54(4) . . .
46(4) . . .
41.4(35) . . .
45(4) . . .
46(4) . . .
47(4) . . .
37.8(33) . . .
35.5(33) . . .
42.4(35) . . .
52(4) . . .
47(4) . . .
38.3(31) . . .
65(5) . . .
35.4(30) . . .
48(4) . . .
47(4) . . .
31.0(31) . . .
48(4) . . .
43.0(35) . . .
49(4) . . .
43.6(34) . . .
46(4) . . .
38.6(34) . . .
42.0(35) . . .
49(4) . . .
43.7(35) . . .
43(4) . . .
52(4) . . .
50(4) . . .
42.8(34) . . .
45(4) . . .
54(4) . . .
44(4) . . .
34.9(31) . . .
41.6(33) . . .
42.7(35) . . .
44(4) . . .
52(4) . . .
46(4) . . .
39.6(33) . . .
46(4) . . .
44(4) . . .
47(4) . . .
51(4) . . .
54(4) . . .
38(4) . . .
35.9(31) . . .
38.7(33) . . .
40.1(33) . . .
51(4) . . .
40.2(33) . . .
45(4) . . .
52(4) . . .
44(4) . . .
32.8(30) . . .
52(4) . . .
41(4) . . .
37.6(32) . . .
53(4) . . .
51(4) . . .
52(4) . . .
45(4) . . .
42.5(35) . . .
54(4) . . .
31.7(29) . . .
41.8(33) . . .
46(4) . . .
58(4) . . .
40.6(34) . . .
47(4) . . .
40.9(34) . . .
38.1(34) . . .
40.6(34) . . .
41.1(33) . . .
35.2(32) . . .
42.1(34) . . .
41.3(35) . . .
37.5(33) . . .
36.9(32) . . .
44.3(35) . . .
47(4) . . .
53(4) . . .
46(4) . . .
39.7(32) . . .
38.9(32) . . .
46(4) . . .
49(4) . . .
39.3(34) . . .
30.6(29) . . .
45(4) . . .
37.8(34) . . .
40(4) . . .
49(4) . . .
51(4) . . .
41.6(34) . . .
40.8(34) . . .
50(4) . . .
38.0(32) . . .
41.3(34) . . .
44(4) . . .
51(4) . . .
53(4) . . .
45.6(35) . . .
39.3(32) . . .
39.6(35) . . .
38.7(35) . . .
37.0(33) . . .
43(4) . . .
38.4(32) . . .
49(4) . . .
47(4) . . .
51(4) . . .
43.5(35) . . .
44.3(34) . . .
46(4) . . .
53(4) . . .
57(4) . . .
44.9(35) . . .
44.5(35) . . .
40.0(33) . . .
40(4) . . .
44(4) . . .
44.3(35) . . .
49(4) . . .
52(4) . . .
49(4) . . .
37.5(34) . . .
42.7(34) . . .
38.6(33) . . .
43(4) . . .
34.2(31) . . .
39.1(34) . . .
47(4) . . .
47(4) . . .
40.6(34) . . .
39.5(34) . . .
43(4) . . .
37.0(32) . . .
39.8(33) . . .
52(4) . . .
47(4) . . .
46(4) . . .
58(4) . . .
47(4) . . .
46(4) . . .
52(4) . . .
46(4) . . .
34.8(31) . . .
38.8(33) . . .
38.6(34) . . .
49(4) . . .
39.7(33) . . .
38.2(32) . . .
50(4) . . .
50(4) . . .
38.3(33) . . .
46.1(35) . . .
42(4) . . .
42(4) . . .
38.0(34) . . .
42(4) . . .
36.1(32) . . .
39.0(32) . . .
38.8(33) . . .
45(4) . . .
45(4) . . .
37.1(32) . . .
33.0(30) . . .
37.9(32) . . .
45(4) . . .
45(4) . . .
42.2(35) . . .
47(4) . . .
51(4) . . .
37.0(32) . . .
42(4) . . .
47(4) . . .
51(4) . . .
50(4) . . .
44(4) . . .
42.9(34) . . .
43.9(35) . . .
45(4) . . .
41(4) . . .
36.9(32) . . .
43.5(34) . . .
47(4) . . .
44(4) . . .
39.2(34) . . .
43(4) . . .
40.5(34) . . .
40.8(33) . . .
48(4) . . .
48(4) . . .
54(4) . . .
46(4) . . .
33.2(30) . . .
35.3(34) . . .
44(4) . . .
44.3(35) . . .
39.8(33) . . .
46(4) . . .
43(4) . . .
49(4) . . .
46(4) . . .
40.2(33) . . .
42.2(34) . . .
40.3(33) . . .
41(4) . . .
40.8(34) . . .
46(4) . . .
43.7(35) . . .
43(4) . . .
37.8(33) . . .
48(4) . . .
41.9(34) . . .
38.0(32) . . .
45(4) . . .
44(4) . . .
42.4(34) . . .
41.3(33) . . .
35.2(31) . . .
40.2(34) . . .
44(4) . . .
40.8(34) . . .
42.7(34) . . .
43.7(34) . . .
40.3(34) . . .
41(4) . . .
35.0(31) . . .
43.4(35) . . .
46(4) . . .
38.9(35) . . .
42(4) . . .
41.4(35) . . .
42.0(34) . . .
45(4) . . .
41.6(34) . . .
46(4) . . .
34.8(31) . . .
43.5(35) . . .
47(4) . . .
38.8(33) . . .
41(4) . . .
43.1(35) . . .
38.3(32) . . .
36.5(32) . . .
34.8(31) . . .
37.9(34) . . .
32.3(30) . . .
39.4(33) . . .
52(4) . . .
40.2(33) . . .
49(4) . . .
52(4) . . .
42.4(33) . . .
41.3(35) . . .
38.4(34) . . .
46(4) . . .
48(4) . . .
40.6(33) . . .
44(4) . . .
46(4) . . .
38.3(33) . . .
36.8(32) . . .
47(4) . . .
42(4) . . .
34.7(32) . . .
36.0(32) . . .
46(4) . . .
49(4) . . .
56(4) . . .
40.4(35) . . .
40.4(33) . . .
47(4) . . .
48(4) . . .
41.7(35) . . .
44(4) . . .
56(5) . . .
46(4) . . .
42(4) . . .
41.5(35) . . .
40.2(35) . . .
37.8(33) . . .
38.5(33) . . .
40.6(33) . . .
47(4) . . .
49(4) . . .
49(4) . . .
40.3(33) . . .
41.1(34) . . .
46(4) . . .
38.3(33) . . .
40.4(34) . . .
44.7(35) . . .
38.5(34) . . .
45(4) . . .
39(4) . . .
45(4) . . .
44.8(35) . . .
54(4) . . .
43.5(34) . . .
49(4) . . .
43.0(35) . . .
45.6(35) . . .
49(4) . . .
43(4) . . .
36.4(32) . . .
34.2(30) . . .
39.7(33) . . .
46(4) . . .
39.1(34) . . .
51(4) . . .
39.7(34) . . .
49(4) . . .
39.7(34) . . .
35.3(33) . . .
43(4) . . .
43.1(35) . . .
46(4) . . .
50(4) . . .
46(4) . . .
40.1(33) . . .
39.2(32) . . .
42.5(33) . . .
47(4) . . .
42(4) . . .
36.4(33) . . .
38.3(32) . . .
38.3(33) . . .
44(4) . . .
40.7(33) . . .
53(4) . . .
50(4) . . .
43.1(35) . . .
39.5(32) . . .
51(4) . . .
42(4) . . .
44.3(34) . . .
49(4) . . .
37.2(33) . . .
38(4) . . .
34.9(31) . . .
39.1(33) . . .
47(4) . . .
38.2(32) . . .
44(4) . . .
39.9(33) . . .
43.0(34) . . .
35.1(31) . . .
39.6(34) . . .
45.7(35) . . .
47(4) . . .
43.6(34) . . .
33.0(31) . . .
38.1(33) . . .
38.8(33) . . .
54(4) . . .
44.5(34) . . .
45.0(35) . . .
42(4) . . .
43(4) . . .
45.0(35) . . .
48(4) . . .
45(4) . . .
36.1(33) . . .
34.9(31) . . .
42.2(34) . . .
43.4(34) . . .
45(4) . . .
47(4) . . .
50(4) . . .
44(4) . . .
49(4) . . .
42.8(34) . . .
46(4) . . .
45(4) . . .
34.9(31) . . .
45(4) . . .
46(4) . . .
46(4) . . .
43.5(35) . . .
43.9(34) . . .
46(4) . . .
39.4(34) . . .
41(4) . . .
49(4) . . .
35.6(31) . . .
41.0(34) . . .
49(4) . . .
40.9(34) . . .
41.9(35) . . .
37.1(31) . . .
41(4) . . .
40(4) . . .
44(4) . . .
37.4(32) . . .
37.9(33) . . .
48(4) . . .
54(4) . . .
41(4) . . .
47(4) . . .
39.0(32) . . .
42(4) . . .
42(4) . . .
49(4) . . .
41.5(34) . . .
40.6(33) . . .
35.3(32) . . .
36.9(33) . . .
50(4) . . .
41.1(34) . . .
44(4) . . .
43.0(35) . . .
45(4) . . .
41(4) . . .
39.2(34) . . .
37.7(32) . . .
41.8(34) . . .
41(4) . . .
41.3(35) . . .
52(4) . . .
47(4) . . .
45(4) . . .
38(4) . . .
35.4(34) . . .
40.5(33) . . .
32.3(30) . . .
37(4) . . .
38.5(34) . . .
44(4) . . .
51(4) . . .
39.6(33) . . .
37.7(33) . . .
38.1(34) . . .
39.6(33) . . .
41.2(33) . . .
45(4) . . .
40.7(35) . . .
38.8(33) . . .
40.2(33) . . .
36.2(31) . . .
41.6(35) . . .
33.5(31) . . .
33.8(32) . . .
37.2(32) . . .
44.5(34) . . .
34.5(31) . . .
45(4) . . .
41.4(34) . . .
40.2(34) . . .
54(4) . . .
48(4) . . .
46(4) . . .
48(4) . . .
37.2(32) . . .
38.4(32) . . .
42(4) . . .
45(4) . . .
42.7(35) . . .
44.9(35) . . .
45.8(35) . . .
48(4) . . .
41.6(34) . . .
46(4) . . .
44(4) . . .
40.9(34) . . .
44(4) . . .
38.2(33) . . .
40.2(34) . . .
36.1(31) . . .
38.5(32) . . .
50(4) . . .
49(4) . . .
38.3(32) . . .
46(4) . . .
33.5(31) . . .
35.0(31) . . .
35.4(32) . . .
37.4(33) . . .
36.8(31) . . .
43(4) . . .
44(4) . . .
50(4) . . .
42.2(35) . . .
42.3(34) . . .
35.8(34) . . .
30.7(30) . . .
37.3(34) . . .
35.6(34) . . .
36.8(32) . . .
47(4) . . .
44(4) . . .
40.7(34) . . .
46(4) . . .
43.3(35) . . .
40.2(33) . . .
49(4) . . .
50(4) . . .
46(4) . . .
48(4) . . .
39(4) . . .
39.0(34) . . .
44(4) . . .
38.6(32) . . .
43(4) . . .
34.3(30) . . .
46(4) . . .
41.4(34) . . .
39.9(33) . . .
48(4) . . .
52(4) . . .
42(4) . . .
37.9(35) . . .
39.8(34) . . .
45(4) . . .
36.5(32) . . .
49(4) . . .
45(4) . . .
45(4) . . .
45(4) . . .
47(4) . . .
42(4) . . .
45(4) . . .
44.6(35) . . .
40.8(33) . . .
45(4) . . .
40.4(34) . . .
44(4) . . .
39.9(33) . . .
47(4) . . .
46(4) . . .
50(4) . . .
36.1(32) . . .
37.2(32) . . .
49(4) . . .
41.9(34) . . .
42.9(34) . . .
44(4) . . .
47(4) . . .
37.8(33) . . .
38.6(33) . . .
50(4) . . .
40.2(33) . . .
45.3(35) . . .
39.7(34) . . .
41.2(34) . . .
36.9(32) . . .
45(4) . . .
44.1(35) . . .
39.2(34) . . .
37.6(33) . . .
40.0(35) . . .
39.0(33) . . .
44(4) . . .
43.2(35) . . .
40.1(34) . . .
41.9(35) . . .
37.8(33) . . .
33.4(30) . . .
44.2(34) . . .
40.6(35) . . .
49(4) . . .
35.6(31) . . .
34.8(30) . . .
39.0(34) . . .
46(4) . . .
39.7(33) . . .
42.2(34) . . .
45.1(35) . . .
45(4) . . .
40(4) . . .
36.5(32) . . .
37.0(31) . . .
32.4(30) . . .
50(4) . . .
47(4) . . .
33.4(31) . . .
40.3(33) . . .
45(4) . . .
41.1(34) . . .
46(4) . . .
46(4) . . .
55(4) . . .
35.9(31) . . .
38.0(35) . . .
32.0(30) . . .
49(4) . . .
52(4) . . .
41(4) . . .
40(4) . . .
52(4) . . .
42(4) . . .
43.3(34) . . .
36.2(32) . . .
32.4(29) . . .
39.7(33) . . .
30.8(29) . . .
38.0(32) . . .
39.4(35) . . .
39.1(35) . . .
38.6(32) . . .
39.3(33) . . .
35.4(31) . . .
33.8(32) . . .
37.0(34) . . .
38.3(34) . . .
41.4(33) . . .
52(4) . . .
43.7(35) . . .
42.6(35) . . .
46(4) . . .
45.8(35) . . .
45.9(35) . . .
39.7(34) . . .
42(4) . . .
40(4) . . .
46(4) . . .
45.0(35) . . .
39.8(35) . . .
40(4) . . .
46(4) . . .
35.2(31) . . .
42(4) . . .
48(4) . . .
37.6(35) . . .
43(4) . . .
42.3(34) . . .
43.8(34) . . .
46(4) . . .
36.7(34) . . .
39(4) . . .
39.0(33) . . .
40.5(33) . . .
49(4) . . .
31.7(29) . . .
39.8(34) . . .
35.6(31) . . .
48(4) . . .
38.4(32) . . .
32.3(29) . . .
36.3(31) . . .
38.4(32) . . .
38.6(34) . . .
43(4) . . .
45(4) . . .
45(4) . . .
35.8(31) . . .
44(4) . . .
49(4) . . .
42(4) . . .
35.0(34) . . .
48(4) . . .
42(4) . . .
41(4) . . .
41(4) . . .
46(4) . . .
40.1(33) . . .
42.7(34) . . .
44(4) . . .
37.3(33) . . .
45(4) . . .
45(4) . . .
42(4) . . .
39.5(33) . . .
44(4) . . .
43.5(34) . . .
50(4) . . .
42(4) . . .
43(4) . . .
46(4) . . .
45(4) . . .
49(4) . . .
39.2(34) . . .
41(4) . . .
44(4) . . .
40.8(33) . . .
42(4) . . .
41.8(34) . . .
41.8(35) . . .
41.7(35) . . .
41.9(34) . . .
50(4) . . .
42(4) . . .
35.9(32) . . .
40.6(33) . . .
46(4) . . .
46(4) . . .
44(4) . . .
44(4) . . .
39.9(35) . . .
35.3(31) . . .
33.8(30) . . .
36.7(32) . . .
40.2(35) . . .
44.7(35) . . .
49(4) . . .
34.3(30) . . .
43(4) . . .
40.5(33) . . .
47(4) . . .
42.7(35) . . .
40.8(34) . . .
48(4) . . .
40.1(33) . . .
37.9(32) . . .
46(4) . . .
48(4) . . .
45(4) . . .
43(4) . . .
40.4(34) . . .
33.3(30) . . .
40.9(35) . . .
43(4) . . .
40.6(34) . . .
40.1(34) . . .
46(4) . . .
36.2(32) . . .
40(4) . . .
39.2(33) . . .
45.1(35) . . .
53(4) . . .
48(4) . . .
44(4) . . .
33.8(32) . . .
46(4) . . .
37.9(32) . . .
35.2(33) . . .
42(4) . . .
42.1(35) . . .
38.0(32) . . .
45(4) . . .
42(4) . . .
45(4) . . .
39.4(34) . . .
41.0(33) . . .
50(4) . . .
42.8(34) . . .
34.0(30) . . .
36.4(32) . . .
43.9(35) . . .
44(4) . . .
40.4(34) . . .
50(4) . . .
53(4) . . .
46(4) . . .
42(4) . . .
41.0(34) . . .
39.7(35) . . .
40.8(33) . . .
42.5(34) . . .
38.1(33) . . .
38.6(34) . . .
41.3(34) . . .
39.6(33) . . .
39.7(34) . . .
50(4) . . .
46(4) . . .
42(4) . . .
34.5(30) . . .
44(4) . . .
31.7(29) . . .
36.5(35) . . .
34.3(32) . . .
34.6(31) . . .
39.8(33) . . .
50(4) . . .
38.7(34) . . .
43(4) . . .
42.1(34) . . .
45.5(35) . . .
37.3(32) . . .
43(4) . . .
40.0(33) . . .
47(4) . . .
45(4) . . .
38.7(32) . . .
45(4) . . .
45(4) . . .
42.7(34) . . .
49(4) . . .
41.6(34) . . .
49(4) . . .
34.7(32) . . .
41.6(33) . . .
39.6(32) . . .
45(4) . . .
32.9(31) . . .
41.1(35) . . .
41.5(33) . . .
48(4) . . .
32.8(30) . . .
42(4) . . .
38.4(32) . . .
40.6(33) . . .
36.3(32) . . .
33.8(31) . . .
48(4) . . .
41.7(33) . . .
41.8(34) . . .
37.1(32) . . .
51(4) . . .
45(4) . . .
40.3(33) . . .
43.9(34) . . .
48(4) . . .
35.4(32) . . .
42.4(35) . . .
38.6(32) . . .
35.3(31) . . .
39.6(33) . . .
38.0(32) . . .
40.3(35) . . .
34.1(30) . . .
31.3(29) . . .
50(4) . . .
43(4) . . .
36.1(31) . . .
43.1(35) . . .
49(4) . . .
36.1(31) . . .
37.9(35) . . .
35.8(32) . . .
40.3(33) . . .
40.8(33) . . .
37.1(32) . . .
38.1(33) . . .
36.6(31) . . .
38.0(32) . . .
38.5(33) . . .
53(4) . . .
43.2(35) . . .
45(4) . . .
46(4) . . .
43(4) . . .
40.9(34) . . .
44(4) . . .
44(4) . . .
47(4) . . .
43.2(35) . . .
45(4) . . .
45(4) . . .
46(4) . . .
42.7(34) . . .
47(4) . . .
41(4) . . .
40.1(34) . . .
35.5(31) . . .
39.3(33) . . .
36.5(34) . . .
36.4(32) . . .
52(4) . . .
38.1(32) . . .
44.0(35) . . .
41.5(34) . . .
52(4) . . .
40.0(33) . . .
38.8(33) . . .
34.0(30) . . .
40.5(33) . . .
47(4) . . .
47(4) . . .
42.1(34) . . .
38.2(33) . . .
34.8(30) . . .
38.3(34) . . .
48(4) . . .
46(4) . . .
42.7(34) . . .
39(4) . . .
36.2(34) . . .
37.7(32) . . .
47(4) . . .
38.2(32) . . .
38.7(32) . . .
54(4) . . .
49(4) . . .
42.0(34) . . .
39.8(34) . . .
41(4) . . .
39(4) . . .
41.1(34) . . .
42.3(34) . . .
44.0(34) . . .
46(4) . . .
38.3(34) . . .
41(4) . . .
47(4) . . .
39.3(32) . . .
45(4) . . .
38.4(33) . . .
38.7(34) . . .
47(4) . . .
45(4) . . .
41.0(34) . . .
42.7(34) . . .
45.8(35) . . .
55(4) . . .
47(4) . . .
40.9(34) . . .
51(4) . . .
45(4) . . .
49(4) . . .
40.4(34) . . .
40.5(35) . . .
39.3(34) . . .
37.3(32) . . .
29.1(28) . . .
41.0(35) . . .
39.3(34) . . .
42.2(34) . . .
36.3(32) . . .
36.1(31) . . .
43(4) . . .
36.5(33) . . .
36.5(33) . . .
36.7(32) . . .
43.7(34) . . .
40.3(34) . . .
47(4) . . .
38.2(34) . . .
40.2(33) . . .
46(4) . . .
38.5(34) . . .
41(4) . . .
38.0(32) . . .
38.1(33) . . .
43.1(34) . . .
39(4) . . .
31.1(30) . . .
48(4) . . .
44.2(35) . . .
35.8(32) . . .
39.1(34) . . .
47(4) . . .
38.5(32) . . .
44.2(35) . . .
38.0(34) . . .
42.1(34) . . .
45(4) . . .
38.0(32) . . .
47(4) . . .
50(4) . . .
38.2(34) . . .
38.8(34) . . .
35.3(32) . . .
38.0(32) . . .
47(4) . . .
48(4) . . .
39.1(33) . . .
43(4) . . .
44.4(34) . . .
34.7(31) . . .
44(4) . . .
46(4) . . .
37.9(32) . . .
33.6(30) . . .
38.0(33) . . .
43(4) . . .
46(4) . . .
57(4) . . .
36.9(33) . . .
42(4) . . .
42(4) . . .
51(4) . . .
37.4(33) . . .
38.0(32) . . .
43.6(34) . . .
45(4) . . .
51(4) . . .
35.4(32) . . .
39.8(32) . . .
43.4(34) . . .
34.8(30) . . .
51(4) . . .
52(4) . . .
43.2(34) . . .
39.3(35) . . .
40(4) . . .
40.6(35) . . .
44.2(34) . . .
41.1(34) . . .
34.9(32) . . .
30.1(30) . . .
35.7(32) . . .
41.8(35) . . .
33.7(30) . . .
47(4) . . .
43(4) . . .
44(4) . . .
38.7(32) . . .
35.3(32) . . .
41(4) . . .
32.6(31) . . .
49(4) . . .
39.5(33) . . .
43(4) . . .
45(4) . . .
39.5(35) . . .
40.5(35) . . .
37.8(32) . . .
44(4) . . .
35.4(33) . . .
44(4) . . .
37.0(32) . . .
40.9(33) . . .
47(4) . . .
40(4) . . .
40.2(35) . . .
35.4(32) . . .
42.9(34) . . .
38.1(33) . . .
39.2(33) . . .
43(4) . . .
46(4) . . .
49(4) . . .
36.0(31) . . .
41(4) . . .
46(4) . . .
40.6(33) . . .
42.7(34) . . .
37.9(33) . . .
38.9(34) . . .
46(4) . . .
42.9(34) . . .
40.8(34) . . .
37.9(35) . . .
33.9(33) . . .
38.9(33) . . .
43.2(35) . . .
39.7(33) . . .
32.6(30) . . .
37.9(33) . . .
42(4) . . .
40.9(34) . . .
44(4) . . .
39.6(34) . . .
46(4) . . .
46(4) . . .
31.6(30) . . .
35.4(31) . . .
52(4) . . .
42(4) . . .
35.4(31) . . .
53(4) . . .
46(4) . . .
33.2(30) . . .
44(4) . . .
51(4) . . .
39.1(33) . . .
37.3(33) . . .
41.2(35) . . .
46(4) . . .
45(4) . . .
36.8(32) . . .
39(4) . . .
48(4) . . .
44.5(34) . . .
40.0(33) . . .
43.6(35) . . .
34.7(31) . . .
52(4) . . .
56(4) . . .
45.8(35) . . .
46(4) . . .
34.3(32) . . .
37.0(34) . . .
47(4) . . .
37.3(33) . . .
39.1(32) . . .
50(4) . . .
48(4) . . .
42.8(34) . . .
43(4) . . .
35.5(30) . . .
34.0(31) . . .
46(4) . . .
35.5(33) . . .
40.0(33) . . .
36.5(33) . . .
37.8(33) . . .
36.4(34) . . .
44(4) . . .
43.8(34) . . .
39.3(33) . . .
38.4(32) . . .
34.6(30) . . .
36.3(32) . . .
50(4) . . .
43.9(34) . . .
40.1(34) . . .
30.8(28) . . .
47(4) . . .
42.5(34) . . .
45(4) . . .
40.0(34) . . .
38.1(32) . . .
44.3(35) . . .
46.2(35) . . .
35.5(31) . . .
44(4) . . .
45(4) . . .
49(4) . . .
35.0(31) . . .
38.1(33) . . .
52(4) . . .
49(4) . . .
43.4(34) . . .
34.4(30) . . .
42.8(35) . . .
33.3(31) . . .
37.9(33) . . .
52(4) . . .
52(4) . . .
49(4) . . .
49(4) . . .
47(4) . . .
42.3(35) . . .
36.2(31) . . .
34.2(32) . . .
44(4) . . .
51(4) . . .
48(4) . . .
44.2(34) . . .
45(4) . . .
47(4) . . .
44(4) . . .
48(4) . . .
37.1(32) . . .
44(4) . . .
44(4) . . .
52(4) . . .
33.8(31) . . .
44(4) . . .
40.3(35) . . .
39.2(35) . . .
39.0(33) . . .
38.0(32) . . .
38.0(32) . . .
40(4) . . .
42(4) . . .
34.0(31) . . .
38.0(32) . . .
40.5(33) . . .
43(4) . . .
39.0(34) . . .
34.2(30) . . .
34.6(31) . . .
53(4) . . .
48(4) . . .
38.7(35) . . .
44(4) . . .
37.3(32) . . .
37.9(34) . . .
40.1(34) . . .
40.6(33) . . .
38.6(32) . . .
41.6(33) . . .
37.4(33) . . .
38.7(33) . . .
48(4) . . .
43.1(34) . . .
38.1(32) . . .
31.2(30) . . .
42(4) . . .
35.9(32) . . .
38.1(32) . . .
33.5(31) . . .
38.1(32) . . .
50(4) . . .
48(4) . . .
38.2(34) . . .
36.6(31) . . .
32.9(30) . . .
43(4) . . .
40.7(34) . . .
42.6(34) . . .
35.2(30) . . .
36.4(32) . . .
34.9(32) . . .
45(4) . . .
34.7(32) . . .
36.0(31) . . .
39(4) . . .
47(4) . . .
36.1(31) . . .
53(4) . . .
41.6(34) . . .
32.5(30) . . .
38.3(34) . . .
33.9(31) . . .
37.5(32) . . .
42.3(34) . . .
41.4(33) . . .
51(4) . . .
37.9(32) . . .
35.4(31) . . .
34.7(32) . . .
34.6(33) . . .
44(4) . . .
36.6(32) . . .
45.2(34) . . .
39(4) . . .
51(4) . . .
54(4) . . .
39.9(33) . . .
41.3(34) . . .
43(4) . . .
33.5(32) . . .
37.3(34) . . .
34.0(31) . . .
45(4) . . .
34.4(31) . . .
47(4) . . .
40.1(35) . . .
45(4) . . .
38.3(32) . . .
34.8(32) . . .
47(4) . . .
38.3(33) . . .
35.8(31) . . .
37.1(32) . . .
33.7(31) . . .
42(4) . . .
49(4) . . .
38.8(32) . . .
47(4) . . .
44.4(35) . . .
47(4) . . .
40.4(35) . . .
37.0(31) . . .
38.0(32) . . .
40.8(33) . . .
37.5(32) . . .
43.7(35) . . .
42.6(33) . . .
36.1(32) . . .
40.0(33) . . .
43(4) . . .
41.5(34) . . .
33.3(30) . . .
37.8(34) . . .
46(4) . . .
45(4) . . .
41.2(34) . . .
35.9(31) . . .
40.7(34) . . .
46(4) . . .
46(4) . . .
36.9(32) . . .
40.4(34) . . .
40.2(34) . . .
38.8(33) . . .
43(4) . . .
38.5(32) . . .
42.2(34) . . .
41.1(35) . . .
37.2(34) . . .
37.5(34) . . .
44(4) . . .
41.2(34) . . .
43(4) . . .
37.2(33) . . .
47(4) . . .
40.5(33) . . .
33.8(31) . . .
34.4(33) . . .
42(4) . . .
38.2(33) . . .
36.5(34) . . .
42.0(34) . . .
46(4) . . .
46(4) . . .
35.5(32) . . .
38.8(33) . . .
48(4) . . .
37.8(33) . . .
37.6(35) . . .
47(4) . . .
44.2(34) . . .
35.6(32) . . .
35.0(32) . . .
39.1(33) . . .
48(4) . . .
45.7(35) . . .
41.8(34) . . .
45(4) . . .
41.3(34) . . .
41.3(34) . . .
37.2(32) . . .
45(4) . . .
42(4) . . .
43(4) . . .
50(4) . . .
41.7(34) . . .
39.1(33) . . .
41(4) . . .
46(4) . . .
45(4) . . .
36.1(31) . . .
44.2(35) . . .
39.0(33) . . .
51(4) . . .
38.9(32) . . .
41.0(33) . . .
40.4(35) . . .
39(4) . . .
38.1(34) . . .
44(4) . . .
44(4) . . .
43.3(35) . . .
38(4) . . .
31.1(29) . . .
47(4) . . .
40.1(33) . . .
36.6(34) . . .
37.3(35) . . .
32.7(30) . . .
43.1(34) . . .
43.1(34) . . .
47(4) . . .
40(4) . . .
31.4(29) . . .
30.1(29) . . .
34.1(31) . . .
34.6(32) . . .
39(4) . . .
35.3(31) . . .
38.6(32) . . .
43.7(35) . . .
35.0(32) . . .
39(4) . . .
30.2(28) . . .
43.8(34) . . .
44.4(34) . . .
40.7(33) . . .
42(4) . . .
44(4) . . .
45.3(35) . . .
40.5(33) . . .
51(4) . . .
30.1(28) . . .
38.1(34) . . .
37.7(32) . . .
38.6(32) . . .
44(4) . . .
33.0(31) . . .
39.1(33) . . .
35.8(31) . . .
39.8(34) . . .
37.0(32) . . .
35.5(32) . . .
41(4) . . .
47(4) . . .
38.5(34) . . .
42(4) . . .
40.8(35) . . .
38.5(32) . . .
39.6(33) . . .
45(4) . . .
44(4) . . .
39.8(34) . . .
50(4) . . .
39.1(32) . . .
42(4) . . .
42(4) . . .
36.3(33) . . .
44(4) . . .
40.7(33) . . .
39.2(33) . . .
38.2(34) . . .
46(4) . . .
36.4(31) . . .
43.4(34) . . .
49(4) . . .
47(4) . . .
46(4) . . .
54(4) . . .
54(4) . . .
40.0(34) . . .
45(4) . . .
44(4) . . .
43.3(34) . . .
49(4) . . .
52(4) . . .
37.5(34) . . .
34.6(31) . . .
42.9(34) . . .
40.0(33) . . .
40.4(33) . . .
39.0(33) . . .
46(4) . . .
38.9(33) . . .
45.9(35) . . .
40.2(34) . . .
37.0(32) . . .
31.4(29) . . .
45(4) . . .
40.5(34) . . .
36.0(34) . . .
36.5(33) . . .
51(4) . . .
39.5(33) . . .
42.0(34) . . .
43(4) . . .
49(4) . . .
38.8(32) . . .
36.4(32) . . .
39.9(33) . . .
41(4) . . .
43(4) . . .
36.4(31) . . .
33.1(30) . . .
29.4(29) . . .
29.6(30) . . .
36.8(32) . . .
46.4(35) . . .
39.9(33) . . .
35.8(31) . . .
47(4) . . .
44(4) . . .
46(4) . . .
44.4(34) . . .
40.3(33) . . .
47(4) . . .
48(4) . . .
36.4(32) . . .
39.5(32) . . .
38.0(34) . . .
37.9(32) . . .
45(4) . . .
37.0(32) . . .
37.4(32) . . .
41.9(34) . . .
45(4) . . .
48(4) . . .
46(4) . . .
43.6(35) . . .
38.0(34) . . .
46(4) . . .
44(4) . . .
31.7(29) . . .
35.7(31) . . .
44.4(35) . . .
43(4) . . .
37.9(33) . . .
38.6(32) . . .
43(4) . . .
47(4) . . .
41(4) . . .
42.8(34) . . .
33.2(30) . . .
49(4) . . .
43(4) . . .
35.5(31) . . .
36.6(31) . . .
40.7(34) . . .
45(4) . . .
39.1(35) . . .
41(4) . . .
48(4) . . .
37.0(31) . . .
37.2(33) . . .
36.4(34) . . .
43(4) . . .
31.3(29) . . .
34.4(31) . . .
45(4) . . .
49(4) . . .
32.3(29) . . .
39.8(32) . . .
37.2(32) . . .
31.4(29) . . .
36.7(33) . . .
40.0(34) . . .
45.3(35) . . .
40.7(34) . . .
48(4) . . .
41(4) . . .
34.6(32) . . .
39.8(32) . . .
35.2(32) . . .
32.7(30) . . .
35.4(32) . . .
43(4) . . .
52(4) . . .
38.9(33) . . .
35.3(34) . . .
34.3(31) . . .
32.5(31) . . .
40.0(33) . . .
52(4) . . .
39.0(32) . . .
36.8(33) . . .
41.3(34) . . .
51(4) . . .
60(4) . . .
39.5(33) . . .
30.3(30) . . .
44.6(35) . . .
29.6(29) . . .
33.7(30) . . .
48(4) . . .
36.9(31) . . .
45(4) . . .
43.8(35) . . .
46(4) . . .
43(4) . . .
36.7(32) . . .
37.0(32) . . .
42.7(34) . . .
50(4) . . .
46(4) . . .
46(4) . . .
48(4) . . .
38.3(32) . . .
38.7(33) . . .
44(4) . . .
38(4) . . .
41.6(33) . . .
40.1(34) . . .
38.0(33) . . .
34.0(32) . . .
40.3(34) . . .
40.1(33) . . .
37.3(32) . . .
34.0(31) . . .
35.1(32) . . .
45(4) . . .
38.6(32) . . .
38.0(33) . . .
42.9(34) . . .
51(4) . . .
43.5(35) . . .
40.8(34) . . .
42.2(34) . . .
49(4) . . .
37.9(34) . . .
51(4) . . .
46(4) . . .
38.4(33) . . .
39.7(32) . . .
49(4) . . .
45(4) . . .
37.8(32) . . .
40.0(33) . . .
37.3(33) . . .
34.3(31) . . .
32.7(31) . . .
39.7(33) . . .
49(4) . . .
44(4) . . .
47(4) . . .
48(4) . . .
38.7(32) . . .
40.8(33) . . .
42(4) . . .
43(4) . . .
44.7(35) . . .
58(4) . . .
41.7(33) . . .
41.2(35) . . .
38.2(34) . . .
34.5(30) . . .
38.7(33) . . .
43(4) . . .
45(4) . . .
38.1(33) . . .
39.3(34) . . .
34.5(31) . . .
26.9(26) . . .
37.4(33) . . .
46(4) . . .
43.6(34) . . .
45(4) . . .
33.2(31) . . .
35.7(34) . . .
41.8(35) . . .
45.1(35) . . .
39.6(33) . . .
34.9(33) . . .
38(4) . . .
44(4) . . .
36.7(32) . . .
43.6(35) . . .
47(4) . . .
46(4) . . .
32.8(30) . . .
46(4) . . .
41.5(33) . . .
48(4) . . .
35.1(31) . . .
38(4) . . .
39.4(33) . . .
48(4) . . .
48(4) . . .
35.8(32) . . .
44(4) . . .
41.5(33) . . .
32.9(30) . . .
38.1(32) . . .
35.3(31) . . .
47(4) . . .
39.5(33) . . .
36.2(32) . . .
39.2(32) . . .
46(4) . . .
35.1(30) . . .
44.4(35) . . .
31.9(30) . . .
42(4) . . .
34.9(31) . . .
48(4) . . .
41.1(34) . . .
41.2(35) . . .
42(4) . . .
38.0(33) . . .
44.6(35) . . .
34.5(31) . . .
39.2(34) . . .
40(4) . . .
44(4) . . .
38.0(32) . . .
51(4) . . .
34.8(30) . . .
38(4) . . .
38.3(33) . . .
48(4) . . .
39.9(33) . . .
37.3(32) . . .
37.8(34) . . .
44(4) . . .
50(4) . . .
45(4) . . .
44(4) . . .
46(4) . . .
43(4) . . .
46(4) . . .
34.3(32) . . .
36.4(32) . . .
36.5(31) . . .
30.8(28) . . .
42.0(34) . . .
48(4) . . .
38.1(34) . . .
37.9(33) . . .
42(4) . . .
38.9(32) . . .
41.1(34) . . .
34.4(31) . . .
37.1(34) . . .
32.8(30) . . .
34.8(31) . . .
34.6(33) . . .
42(4) . . .
38.4(33) . . .
37.9(33) . . .
46(4) . . .
36.8(32) . . .
41(4) . . .
45(4) . . .
40.0(33) . . .
39.0(33) . . .
37.7(34) . . .
41.6(35) . . .
39.3(32) . . .
42.1(33) . . .
45.0(34) . . .
41.9(35) . . .
43(4) . . .
41.0(35) . . .
40.9(35) . . .
46(4) . . .
37.6(32) . . .
45(4) . . .
51(4) . . .
38.9(33) . . .
37.2(32) . . .
40(4) . . .
32.8(31) . . .
40.3(34) . . .
44.7(34) . . .
43(4) . . .
44(4) . . .
45(4) . . .
44(4) . . .
38.7(33) . . .
39.7(33) . . .
45(4) . . .
38.3(32) . . .
43(4) . . .
34.8(31) . . .
44(4) . . .
33.0(31) . . .
43(4) . . .
34.9(32) . . .
32.7(31) . . .
46(4) . . .
40(4) . . .
43(4) . . .
44(4) . . .
41.4(33) . . .
42.0(35) . . .
45(4) . . .
36.1(32) . . .
33.1(31) . . .
27.5(28) . . .
31.4(31) . . .
29.1(29) . . .
49(4) . . .
47(4) . . .
42.3(34) . . .
45(4) . . .
45(4) . . .
40.1(35) . . .
39.5(32) . . .
41.7(33) . . .
42(4) . . .
35.1(33) . . .
29.9(28) . . .
38.3(32) . . .
42.8(34) . . .
41.5(34) . . .
36.2(33) . . .
52(4) . . .
38.9(34) . . .
34.8(30) . . .
38.6(33) . . .
37.0(35) . . .
39(4) . . .
36.2(31) . . .
47(4) . . .
37.4(32) . . .
41(4) . . .
31.7(30) . . .
41.9(34) . . .
39.8(33) . . .
44(4) . . .
40.3(34) . . .
38.3(32) . . .
45.0(35) . . .
42(4) . . .
40.6(34) . . .
38.6(34) . . .
39.6(33) . . .
33.0(30) . . .
37.1(32) . . .
36.1(33) . . .
38.7(35) . . .
34.0(30) . . .
41.9(34) . . .
23.2(26) . . .
35.7(32) . . .
49(4) . . .
45(4) . . .
57(4) . . .
40.5(35) . . .
37.2(34) . . .
45(4) . . .
42.0(33) . . .
39.2(33) . . .
37.3(32) . . .
46(4) . . .
41.1(34) . . .
35.2(30) . . .
37.7(32) . . .
36.3(32) . . .
41.8(35) . . .
37.3(32) . . .
36.9(33) . . .
39.7(33) . . .
43(4) . . .
42(4) . . .
44(4) . . .
32.5(30) . . .
41.0(34) . . .
37.8(33) . . .
46(4) . . .
44(4) . . .
32.4(30) . . .
44.0(34) . . .
48(4) . . .
41(4) . . .
44(4) . . .
39.7(34) . . .
43(4) . . .
35.0(33) . . .
37.4(33) . . .
35.8(32) . . .
34.6(31) . . .
39.7(33) . . .
40.0(33) . . .
39.6(34) . . .
39.9(34) . . .
40.4(34) . . .
37.5(32) . . .
46(4) . . .
42(4) . . .
29.1(32) . . .
37.8(33) . . .
46(4) . . .
37.7(34) . . .
34.5(33) . . .
32.5(30) . . .
46(4) . . .
38.0(33) . . .
46(4) . . .
41.3(35) . . .
38.5(32) . . .
38.9(33) . . .
37.8(33) . . .
45(4) . . .
53(4) . . .
49(4) . . .
31.5(30) . . .
44(4) . . .
45(4) . . .
35.8(31) . . .
46(4) . . .
41.1(34) . . .
39(4) . . .
46(4) . . .
40.4(34) . . .
34.1(31) . . .
41.3(33) . . .
39.6(33) . . .
43(4) . . .
48(4) . . .
36.9(32) . . .
32.0(30) . . .
46(4) . . .
40(4) . . .
39.0(34) . . .
31.0(30) . . .
37.3(33) . . .
37.6(34) . . .
44(4) . . .
35.1(31) . . .
43.9(35) . . .
36.8(32) . . .
42.1(34) . . .
46(4) . . .
35.0(30) . . .
37.8(32) . . .
42.2(34) . . .
31.2(29) . . .
38.5(34) . . .
45(4) . . .
40.0(33) . . .
47(4) . . .
44(4) . . .
45(4) . . .
36.9(33) . . .
35.3(31) . . .
41.8(34) . . .
38.7(32) . . .
39.0(32) . . .
42.8(35) . . .
38.0(33) . . .
32.5(31) . . .
35.3(32) . . .
41.2(35) . . .
42.2(35) . . .
28.5(28) . . .
35.5(31) . . .
38.4(34) . . .
41.7(34) . . .
32.6(30) . . .
43(4) . . .
50(4) . . .
51(4) . . .
41.6(35) . . .
30.2(29) . . .
38.3(32) . . .
36.7(31) . . .
35.2(34) . . .
40.8(35) . . .
36.7(31) . . .
38.5(33) . . .
36.2(33) . . .
45(4) . . .
40.9(34) . . .
27.5(27) . . .
36.3(31) . . .
37.6(34) . . .
37.2(32) . . .
37.9(33) . . .
38.0(32) . . .
35.3(32) . . .
36.0(35) . . .
42(4) . . .
43(4) . . .
36.5(32) . . .
38.4(33) . . .
40.6(33) . . .
45(4) . . .
40.3(34) . . .
38.6(33) . . .
45(4) . . .
44(4) . . .
38.8(35) . . .
53(4) . . .
41.8(34) . . .
42.3(35) . . .
45(4) . . .
41.0(34) . . .
46(4) . . .
45(4) . . .
31.7(30) . . .
46(4) . . .
40.5(33) . . .
37.3(33) . . .
39.4(33) . . .
44(4) . . .
32.9(32) . . .
41(4) . . .
30.1(31) . . .
36.3(31) . . .
33.7(31) . . .
34.1(33) . . .
34.4(31) . . .
40.7(34) . . .
33.9(31) . . .
47(4) . . .
49(4) . . .
40.4(35) . . .
32.8(30) . . .
42.9(35) . . .
44(4) . . .
53(4) . . .
37.8(31) . . .
36.0(31) . . .
36.4(31) . . .
42(4) . . .
45(4) . . .
36.5(34) . . .
43.8(35) . . .
46(4) . . .
40.5(35) . . .
40.3(34) . . .
42(4) . . .
42.1(34) . . .
39.8(33) . . .
45(4) . . .
45(4) . . .
47(4) . . .
51(4) . . .
51(4) . . .
39.9(35) . . .
36.4(33) . . .
35.0(32) . . .
40.1(33) . . .
48(4) . . .
41.3(34) . . .
44(4) . . .
33.1(30) . . .
34.8(31) . . .
47(4) . . .
46(4) . . .
40.8(34) . . .
37.8(33) . . .
50(4) . . .
50(4) . . .
43(4) . . .
44.7(35) . . .
52(4) . . .
37.3(32) . . .
42(4) . . .
36.1(34) . . .
36.0(33) . . .
41.4(34) . . .
39.2(33) . . .
46(4) . . .
39.4(34) . . .
42.4(35) . . .
40.2(34) . . .
32.6(29) . . .
47(4) . . .
33.4(31) . . .
35.1(33) . . .
42.5(35) . . .
43.8(35) . . .
39.1(33) . . .
41(4) . . .
34.4(32) . . .
37.0(32) . . .
38.0(32) . . .
31.7(29) . . .
37.7(34) . . .
44(4) . . .
39.1(33) . . .
47(4) . . .
47(4) . . .
34.4(33) . . .
40(4) . . .
34.9(31) . . .
34.9(32) . . .
33.5(31) . . .
44(4) . . .
45(4) . . .
37.1(31) . . .
37.4(33) . . .
46(4) . . .
42(4) . . .
39(4) . . .
40.4(33) . . .
35.5(32) . . .
42(4) . . .
34.1(30) . . .
41.1(33) . . .
42.1(34) . . .
40(4) . . .
34.2(32) . . .
36.5(31) . . .
42.5(33) . . .
38.8(32) . . .
38.8(33) . . .
50(4) . . .
43.5(34) . . .
40.0(33) . . .
35.7(31) . . .
30.5(31) . . .
32.4(32) . . .
33.5(34) . . .
40.4(33) . . .
39.6(33) . . .
44.0(35) . . .
34.5(32) . . .
42(4) . . .
43.8(34) . . .
42.7(35) . . .
41.1(35) . . .
40(4) . . .
30.5(31) . . .
33.9(31) . . .
45.1(35) . . .
49(4) . . .
38.2(32) . . .
33.7(30) . . .
49(4) . . .
48(4) . . .
46(4) . . .
42(4) . . .
43(4) . . .
42.3(34) . . .
45(4) . . .
35.3(32) . . .
42(4) . . .
44(4) . . .
35.1(31) . . .
47(4) . . .
39.1(33) . . .
39(4) . . .
38.9(33) . . .
41.2(33) . . .
40.7(34) . . .
47(4) . . .
39.5(34) . . .
37.6(32) . . .
44(4) . . .
38.7(32) . . .
40.0(34) . . .
35.4(31) . . .
36.9(32) . . .
30.7(29) . . .
33.0(30) . . .
39.8(35) . . .
45(4) . . .
39.5(32) . . .
44(4) . . .
43(4) . . .
31.2(32) . . .
33.9(33) . . .
43.0(34) . . .
35.2(31) . . .
43.4(34) . . .
43(4) . . .
40.1(34) . . .
43.1(33) . . .
40.2(34) . . .
50(4) . . .
37.0(33) . . .
41.9(35) . . .
38.0(34) . . .
33.6(31) . . .
35.6(32) . . .
40(4) . . .
46(4) . . .
37.7(32) . . .
34.2(30) . . .
40(4) . . .
38.8(34) . . .
41.0(34) . . .
45.1(35) . . .
39.1(34) . . .
35.3(32) . . .
44(4) . . .
38.6(33) . . .
47(4) . . .
48(4) . . .
34.1(32) . . .
37.6(35) . . .
35.1(33) . . .
50(4) . . .
38.3(33) . . .
43(4) . . .
39.2(34) . . .
36.6(31) . . .
38.5(32) . . .
47(4) . . .
49(4) . . .
37.2(33) . . .
41.7(34) . . .
35.8(32) . . .
39.6(35) . . .
37(4) . . .
28.9(29) . . .
42.2(34) . . .
47(4) . . .
42.9(35) . . .
32.7(33) . . .
32.2(31) . . .
37.9(32) . . .
38.8(32) . . .
43(4) . . .
35.8(33) . . .
34.2(32) . . .
37.1(31) . . .
38.0(32) . . .
37.8(33) . . .
44(4) . . .
42(4) . . .
34.5(31) . . .
36.0(31) . . .
39.7(34) . . .
41(4) . . .
34.3(32) . . .
36.2(31) . . .
36.1(32) . . .
36.5(32) . . .
34.2(33) . . .
39.4(34) . . .
33.6(30) . . .
32.9(31) . . .
43(4) . . .
41(4) . . .
38.2(33) . . .
24.9(26) . . .
39.6(35) . . .
40.9(33) . . .
41.5(35) . . .
35.3(32) . . .
42.7(34) . . .
45(4) . . .
41.4(34) . . .
38.6(33) . . .
37.8(33) . . .
40.0(33) . . .
32.7(30) . . .
36.8(33) . . .
37.6(33) . . .
40.3(33) . . .
38.0(32) . . .
30.8(30) . . .
29.8(30) . . .
38.0(33) . . .
37.3(32) . . .
38.7(32) . . .
46(4) . . .
46(4) . . .
44(4) . . .
45.2(35) . . .
41.3(34) . . .
40.2(33) . . .
46(4) . . .
50(4) . . .
51(4) . . .
41.1(34) . . .
42.0(35) . . .
36.8(33) . . .
37.7(33) . . .
35.8(31) . . .
51(4) . . .
40.8(34) . . .
41(4) . . .
46(4) . . .
34.7(30) . . .
35.5(31) . . .
53(4) . . .
40.8(34) . . .
28.8(28) . . .
37.5(32) . . .
42.1(34) . . .
44(4) . . .
38.4(32) . . .
39.1(32) . . .
36.7(31) . . .
36.8(32) . . .
36.8(33) . . .
46(4) . . .
37.5(32) . . .
35.9(31) . . .
37.3(32) . . .
42(4) . . .
45(4) . . .
39.0(34) . . .
37.8(33) . . .
34.8(32) . . .
40(4) . . .
44(4) . . .
40.4(33) . . .
40.5(33) . . .
31.9(30) . . .
43(4) . . .
39.9(32) . . .
37.3(31) . . .
40.2(33) . . .
39.4(34) . . .
36.5(35) . . .
40.4(34) . . .
42.5(33) . . .
40(4) . . .
38(4) . . .
43(4) . . .
35.0(32) . . .
39.3(32) . . .
42.6(35) . . .
46(4) . . .
45(4) . . .
30.7(29) . . .
31.8(29) . . .
35.5(32) . . .
35.7(33) . . .
39(4) . . .
33.4(31) . . .
41.0(33) . . .
40.7(34) . . .
37.8(34) . . .
32.5(29) . . .
46(4) . . .
39.8(32) . . .
43(4) . . .
42(4) . . .
40.7(34) . . .
42.4(35) . . .
35.4(32) . . .
41.2(34) . . .
33.8(30) . . .
38.0(33) . . .
39.2(33) . . .
39.3(33) . . .
37.1(33) . . .
38.2(33) . . .
43(4) . . .
35.8(32) . . .
35.9(31) . . .
44.5(35) . . .
39.5(33) . . .
40(4) . . .
46(4) . . .
38.6(32) . . .
36.7(32) . . .
38.9(33) . . .
47(4) . . .
42.7(35) . . .
44.1(35) . . .
40.7(34) . . .
39.3(35) . . .
37.5(34) . . .
34.0(30) . . .
42.1(33) . . .
36.9(32) . . .
34.6(34) . . .
30.8(30) . . .
41(4) . . .
35.9(31) . . .
34.4(30) . . .
50(4) . . .
43(4) . . .
37.6(32) . . .
36.5(32) . . .
45(4) . . .
30.5(29) . . .
34.9(33) . . .
35.2(32) . . .
41.3(34) . . .
46(4) . . .
34.7(32) . . .
42(4) . . .
44(4) . . .
44(4) . . .
35.9(33) . . .
37.1(34) . . .
37.6(34) . . .
39.1(32) . . .
41.0(34) . . .
45(4) . . .
37.2(33) . . .
41.5(34) . . .
51(4) . . .
36.1(32) . . .
39(4) . . .
38.3(34) . . .
39.7(33) . . .
45(4) . . .
36.8(32) . . .
34.6(32) . . .
46(4) . . .
40.7(33) . . .
40.5(33) . . .
32.3(30) . . .
38.2(34) . . .
41.8(34) . . .
39.0(33) . . .
34.1(31) . . .
43(4) . . .
42(4) . . .
47(4) . . .
39.2(32) . . .
37.8(32) . . .
43(4) . . .
45(4) . . .
37.3(32) . . .
45.1(35) . . .
42.8(34) . . .
37.3(32) . . .
41(4) . . .
38.9(33) . . .
37.9(34) . . .
40.1(33) . . .
35.7(32) . . .
36.7(33) . . .
38.8(33) . . .
30.5(28) . . .
39.2(33) . . .
41.4(35) . . .
36.4(33) . . .
38.5(33) . . .
35.0(30) . . .
36.8(33) . . .
41(4) . . .
43(4) . . .
48(4) . . .
32.7(30) . . .
44(4) . . .
50(4) . . .
38.0(34) . . .
40.1(35) . . .
39.7(33) . . .
52(4) . . .
44(4) . . .
39(4) . . .
37.3(33) . . .
39.1(33) . . .
35.7(32) . . .
45(4) . . .
40.7(34) . . .
39.0(32) . . .
35.4(31) . . .
47(4) . . .
40.3(34) . . .
41(4) . . .
43(4) . . .
40.7(33) . . .
46(4) . . .
42(4) . . .
40(4) . . .
44.5(35) . . .
41.0(33) . . .
40.2(35) . . .
39(4) . . .
34.3(33) . . .
39.1(34) . . .
42.1(34) . . .
38.0(31) . . .
41(4) . . .
39(4) . . .
44(4) . . .
43.3(34) . . .
40.0(34) . . .
37(4) . . .
37.2(32) . . .
38.6(33) . . .
44.6(35) . . .
45(4) . . .
41.1(33) . . .
38.6(33) . . .
42.6(34) . . .
36.1(32) . . .
41.5(35) . . .
38.5(34) . . .
40.0(34) . . .
41.3(33) . . .
40.9(34) . . .
40.4(34) . . .
34.0(30) . . .
44(4) . . .
32.6(30) . . .
32.7(29) . . .
42.3(33) . . .
40.1(33) . . .
45(4) . . .
35.8(31) . . .
37.1(32) . . .
36.4(31) . . .
34.8(31) . . .
37.8(34) . . .
39.9(32) . . .
45(4) . . .
32.4(30) . . .
34.9(33) . . .
30.8(29) . . .
49(4) . . .
39.3(34) . . .
37.0(35) . . .
41.6(35) . . .
47(4) . . .
41.0(34) . . .
38.9(33) . . .
43(4) . . .
37.4(33) . . .
45(4) . . .
36.0(31) . . .
48(4) . . .
36(4) . . .
37.2(34) . . .
39.9(33) . . .
33.5(30) . . .
48(4) . . .
40(4) . . .
45(4) . . .
43.1(35) . . .
35.3(31) . . .
37.9(32) . . .
47(4) . . .
34.1(30) . . .
52(4) . . .
45(4) . . .
44(4) . . .
37.3(32) . . .
38.9(33) . . .
33.8(31) . . .
51(4) . . .
44.4(35) . . .
38.1(32) . . .
44(4) . . .
42.2(34) . . .
37.0(33) . . .
43(4) . . .
38(4) . . .
30.6(31) . . .
30.9(29) . . .
35.7(31) . . .
35.1(32) . . .
42(4) . . .
40.3(33) . . .
44.3(34) . . .
41.1(35) . . .
41.1(33) . . .
37.9(34) . . .
42.1(34) . . .
37.5(33) . . .
42(4) . . .
53(4) . . .
36.2(31) . . .
41(4) . . .
30.4(29) . . .
32.2(31) . . .
34.8(35) . . .
37.2(34) . . .
34.6(32) . . .
34.2(31) . . .
39.2(33) . . .
41(4) . . .
39.7(34) . . .
42.3(34) . . .
35.9(32) . . .
48(4) . . .
35.8(34) . . .
42(4) . . .
43.7(35) . . .
43.9(34) . . .
38.9(33) . . .
40(4) . . .
46(4) . . .
37.5(31) . . .
31.7(29) . . .
41.0(34) . . .
38.4(33) . . .
39.0(33) . . .
41.4(33) . . .
36.8(31) . . .
38.9(35) . . .
44(4) . . .
43.4(35) . . .
44.5(35) . . .
40.6(34) . . .
33.0(30) . . .
42(4) . . .
42.7(35) . . .
40.6(33) . . .
38.8(34) . . .
44(4) . . .
48(4) . . .
43(4) . . .
43.1(34) . . .
45(4) . . .
45(4) . . .
32.3(30) . . .
45(4) . . .
35.8(31) . . .
39.1(34) . . .
37.4(33) . . .
40.5(35) . . .
41.7(34) . . .
36.3(32) . . .
29.0(28) . . .
30.7(30) . . .
34.8(33) . . .
35.8(31) . . .
36.7(32) . . .
37.2(32) . . .
52(4) . . .
47(4) . . .
40.9(33) . . .
43.3(34) . . .
47(4) . . .
38.6(35) . . .
33.5(30) . . .
33.0(30) . . .
42.0(33) . . .
45(4) . . .
48(4) . . .
40.8(34) . . .
35.9(31) . . .
39.5(33) . . .
40.5(34) . . .
35.7(34) . . .
33.8(31) . . .
34.8(31) . . .
43(4) . . .
37.0(34) . . .
36.8(35) . . .
37.7(33) . . .
41.5(34) . . .
42.4(34) . . .
49(4) . . .
38.1(34) . . .
43.0(35) . . .
33.4(30) . . .
46(4) . . .
35.4(31) . . .
36.8(31) . . .
46(4) . . .
32.0(29) . . .
43(4) . . .
43(4) . . .
50(4) . . .
42.2(35) . . .
34.7(30) . . .
40.0(34) . . .
34.8(31) . . .
41(4) . . .
39.3(32) . . .
39.4(33) . . .
38.9(34) . . .
39.1(35) . . .
36.3(33) . . .
37.5(32) . . .
40.6(34) . . .
35.8(31) . . .
38(4) . . .
34.5(31) . . .
42.1(35) . . .
34.2(30) . . .
38.8(33) . . .
40(4) . . .
46(4) . . .
42.5(34) . . .
45(4) . . .
34.9(33) . . .
34.3(34) . . .
37.7(34) . . .
25.9(27) . . .
35.8(31) . . .
40.3(33) . . .
41.9(34) . . .
39.9(33) . . .
35.1(32) . . .
39.8(33) . . .
42(4) . . .
31.4(31) . . .
40.3(34) . . .
52(4) . . .
37.6(32) . . .
45(4) . . .
45(4) . . .
38.6(32) . . .
33.5(31) . . .
31.9(30) . . .
43(4) . . .
43.8(35) . . .
42.8(35) . . .
35.1(31) . . .
36.9(32) . . .
40(4) . . .
34.8(31) . . .
47(4) . . .
44.6(34) . . .
37.6(32) . . .
39.3(34) . . .
48(4) . . .
28.8(27) . . .
36.6(32) . . .
41(4) . . .
53(4) . . .
47(4) . . .
46(4) . . .
38.3(33) . . .
41(4) . . .
45(4) . . .
38.4(33) . . .
34.5(31) . . .
34.9(31) . . .
40.2(34) . . .
36.7(32) . . .
47(4) . . .
35.3(31) . . .
36.3(31) . . .
39.8(32) . . .
40.7(34) . . .
43(4) . . .
32.7(31) . . .
39.5(32) . . .
38.6(35) . . .
30.9(30) . . .
36.8(31) . . .
33.3(30) . . .
34.8(32) . . .
32.8(30) . . .
33.3(31) . . .
39.3(34) . . .
35.5(31) . . .
36.6(31) . . .
35.3(30) . . .
33.8(31) . . .
44(4) . . .
38.8(33) . . .
38.1(32) . . .
40.5(34) . . .
43(4) . . .
49(4) . . .
48(4) . . .
42(4) . . .
37.1(33) . . .
44(4) . . .
30.4(29) . . .
36.8(32) . . .
38.9(32) . . .
37.1(33) . . .
38.3(32) . . .
38.7(32) . . .
39.8(33) . . .
41.4(35) . . .
43(4) . . .
33.2(31) . . .
47(4) . . .
35.1(31) . . .
34.7(31) . . .
41.5(35) . . .
39.6(34) . . .
39.3(32) . . .
45(4) . . .
33.8(31) . . .
34.8(33) . . .
40.4(34) . . .
36.0(31) . . .
38.3(32) . . .
42(4) . . .
49(4) . . .
48(4) . . .
42.2(33) . . .
40.1(34) . . .
39(4) . . .
41(4) . . .
48(4) . . .
38.2(32) . . .
37.2(34) . . .
41(4) . . .
38.3(33) . . .
43(4) . . .
37.9(32) . . .
39.5(34) . . .
33.4(31) . . .
38.8(35) . . .
40.2(34) . . .
40.6(33) . . .
41.0(33) . . .
48(4) . . .
33.9(31) . . .
34.5(32) . . .
36.9(32) . . .
44(4) . . .
41.3(35) . . .
27.8(27) . . .
35.2(32) . . .
33.7(30) . . .
39.2(34) . . .
30.2(28) . . .
31.9(29) . . .
35.6(32) . . .
34.9(32) . . .
42(4) . . .
35.0(31) . . .
38.5(34) . . .
33.8(30) . . .
39.4(33) . . .
40.3(34) . . .
43(4) . . .
36.6(31) . . .
39.9(34) . . .
34.3(30) . . .
35.8(31) . . .
38.1(35) . . .
43(4) . . .
49(4) . . .
38.6(33) . . .
42(4) . . .
46(4) . . .
38.1(32) . . .
40.2(33) . . .
36.8(32) . . .
32.3(30) . . .
39.1(35) . . .
39.2(34) . . .
37.7(32) . . .
40.6(33) . . .
40.4(35) . . .
38.5(34) . . .
39.8(34) . . .
38.0(32) . . .
33.4(30) . . .
36.2(33) . . .
32.5(31) . . .
38.0(34) . . .
43.3(35) . . .
46(4) . . .
42(4) . . .
38.6(34) . . .
42(4) . . .
54(4) . . .
41.2(33) . . .
37.7(35) . . .
41(4) . . .
34.9(31) . . .
37.5(32) . . .
41.6(34) . . .
38.2(33) . . .
41(4) . . .
30.6(32) . . .
40.6(33) . . .
36.2(34) . . .
44(4) . . .
43(4) . . .
35.0(33) . . .
33.3(30) . . .
43(4) . . .
47(4) . . .
37.4(31) . . .
35.6(31) . . .
32.7(30) . . .
33.4(31) . . .
44(4) . . .
40.3(33) . . .
36.6(32) . . .
37.4(31) . . .
32.6(31) . . .
39.4(33) . . .
39.3(33) . . .
51(4) . . .
43.1(34) . . .
46(4) . . .
42(4) . . .
37.3(33) . . .
47(4) . . .
49(4) . . .
44(4) . . .
34.2(31) . . .
40.4(35) . . .
47(4) . . .
38.6(32) . . .
42.8(34) . . .
53(4) . . .
38.1(32) . . .
46(4) . . .
38.3(32) . . .
41.0(35) . . .
40.1(34) . . .
37.4(32) . . .
45.3(35) . . .
42(4) . . .
38.3(35) . . .
40.3(34) . . .
41.5(34) . . .
39.2(33) . . .
42.8(35) . . .
43(4) . . .
41.6(34) . . .
40.4(33) . . .
33.4(30) . . .
36.0(34) . . .
41(4) . . .
34.5(32) . . .
34.8(32) . . .
39.5(33) . . .
39.7(33) . . .
43(4) . . .
36.7(32) . . .
39.7(33) . . .
47(4) . . .
38.8(32) . . .
48(4) . . .
29.4(28) . . .
27.4(28) . . .
38.3(33) . . .
45(4) . . .
35.9(32) . . .
38.0(34) . . .
35.1(31) . . .
38.6(32) . . .
34.4(31) . . .
40.0(35) . . .
42(4) . . .
39.2(32) . . .
36.3(31) . . .
45(4) . . .
39.4(34) . . .
43.5(35) . . .
34.8(31) . . .
41.3(33) . . .
53(4) . . .
35.4(31) . . .
33.0(31) . . .
38.1(32) . . .
33.3(30) . . .
36.1(32) . . .
33.0(30) . . .
34.3(32) . . .
36.7(32) . . .
37.8(32) . . .
44(4) . . .
39.7(34) . . .
50(4) . . .
32.9(30) . . .
37.3(32) . . .
36.3(33) . . .
47(4) . . .
37.0(32) . . .
38.6(33) . . .
37.8(34) . . .
39.2(34) . . .
38.3(34) . . .
28.3(28) . . .
44.3(34) . . .
35.7(31) . . .
45(4) . . .
42.2(34) . . .
33.2(32) . . .
42.7(34) . . .
40.1(35) . . .
35.5(32) . . .
34.0(31) . . .
28.0(29) . . .
34.6(31) . . .
38(4) . . .
34(4) . . .
32.9(32) . . .
35.0(32) . . .
37.3(32) . . .
45(4) . . .
31.1(30) . . .
35.6(32) . . .
38.1(33) . . .
38.9(33) . . .
32.2(31) . . .
32.8(31) . . .
38.8(35) . . .
39.7(32) . . .
39.9(34) . . .
31.7(31) . . .
42(4) . . .
41.5(34) . . .
39.2(33) . . .
40.9(33) . . .
36.6(33) . . .
44(4) . . .
38.0(34) . . .
35.0(31) . . .
43(4) . . .
41.7(35) . . .
34.3(31) . . .
37.9(33) . . .
39.0(32) . . .
34.1(31) . . .
37(4) . . .
30.0(30) . . .
40.1(34) . . .
35.4(31) . . .
37.9(34) . . .
35.3(34) . . .
34.8(32) . . .
39.6(33) . . .
33.7(31) . . .
38.6(33) . . .
38.7(33) . . .
43.3(35) . . .
32.4(29) . . .
37.9(32) . . .
39.3(34) . . .
35.6(34) . . .
38.2(34) . . .
38.5(32) . . .
42.0(34) . . .
45(4) . . .
32.4(30) . . .
30.2(29) . . .
38.8(33) . . .
33.3(30) . . .
46(4) . . .
35.7(31) . . .
36.5(32) . . .
32.5(29) . . .
42.9(35) . . .
37.0(32) . . .
49(4) . . .
40.6(34) . . .
38.4(33) . . .
36.4(32) . . .
41(4) . . .
44(4) . . .
32.1(30) . . .
29.2(28) . . .
40.5(34) . . .
48(4) . . .
33.2(31) . . .
35.0(32) . . .
40.2(33) . . .
36.6(31) . . .
49(4) . . .
33.3(31) . . .
37.8(34) . . .
41.2(33) . . .
36.0(32) . . .
23.0(25) . . .
36.7(34) . . .
38(4) . . .
36.4(31) . . .
43.0(35) . . .
50(4) . . .
41.3(34) . . .
40.8(33) . . .
40.2(34) . . .
35.0(31) . . .
45(4) . . .
34.9(33) . . .
30.8(29) . . .
35.3(32) . . .
39.2(34) . . .
35.1(32) . . .
30.3(29) . . .
33.7(31) . . .
34.0(30) . . .
43(4) . . .
31.7(30) . . .
35.1(32) . . .
41.7(34) . . .
37.3(32) . . .
34.9(31) . . .
40(4) . . .
33.1(32) . . .
35.3(31) . . .
39.7(33) . . .
41(4) . . .
39.3(35) . . .
40.1(33) . . .
33.4(31) . . .
41.5(34) . . .
36.4(32) . . .
37(4) . . .
44(4) . . .
39.5(33) . . .
43(4) . . .
33.9(30) . . .
34.7(33) . . .
38.3(33) . . .
40.4(33) . . .
34.2(31) . . .
39.1(33) . . .
45(4) . . .
40(4) . . .
48(4) . . .
38.2(32) . . .
47(4) . . .
40(4) . . .
32.0(33) . . .
29.6(29) . . .
39.5(34) . . .
31.5(28) . . .
45(4) . . .
45(4) . . .
37.8(32) . . .
31.6(29) . . .
38.5(33) . . .
38.3(33) . . .
34.5(31) . . .
34.1(30) . . .
34.4(33) . . .
45(4) . . .
39.1(33) . . .
45.5(35) . . .
50(4) . . .
41.6(34) . . .
37.2(33) . . .
34.7(31) . . .
38.7(33) . . .
37.4(32) . . .
39.5(35) . . .
38.3(34) . . .
38.4(33) . . .
37.8(32) . . .
38.5(33) . . .
31.2(29) . . .
43(4) . . .
43.9(35) . . .
35.8(31) . . .
36.4(32) . . .
35.6(32) . . .
49(4) . . .
45(4) . . .
37.6(32) . . .
35.4(32) . . .
38(4) . . .
35.3(32) . . .
48(4) . . .
48(4) . . .
48(4) . . .
31.5(29) . . .
38.6(34) . . .
48(4) . . .
41.7(33) . . .
42.6(35) . . .
48(4) . . .
31.5(31) . . .
35.3(35) . . .
38.5(32) . . .
30.7(29) . . .
41.6(35) . . .
45(4) . . .
36.6(32) . . .
39.9(33) . . .
34.8(34) . . .
41(4) . . .
37.4(33) . . .
36.9(32) . . .
42.0(33) . . .
38.3(32) . . .
38.2(35) . . .
42(4) . . .
32.8(31) . . .
34.7(30) . . .
52(4) . . .
40.0(34) . . .
38.3(32) . . .
34.8(32) . . .
27.5(27) . . .
29.6(28) . . .
46(4) . . .
30.8(31) . . .
34.7(31) . . .
34.6(31) . . .
45(4) . . .
33.3(32) . . .
37.2(33) . . .
34.9(31) . . .
38.6(32) . . .
42.6(35) . . .
35.9(32) . . .
37.2(33) . . .
40.9(33) . . .
42.6(34) . . .
55(4) . . .
41.7(35) . . .
41.5(34) . . .
33.0(30) . . .
35.3(31) . . .
36.0(33) . . .
35.5(32) . . .
38.4(34) . . .
27.9(28) . . .
35.7(31) . . .
39(4) . . .
39.8(35) . . .
36.2(33) . . .
38.2(32) . . .
50(4) . . .
40.7(35) . . .
41.3(34) . . .
34.8(30) . . .
32.3(30) . . .
35.4(32) . . .
39(4) . . .
37.9(34) . . .
37.5(34) . . .
36.3(32) . . .
36(4) . . .
32.5(31) . . .
35.2(34) . . .
43(4) . . .
35.8(31) . . .
32.5(32) . . .
33.3(33) . . .
38.3(33) . . .
34.9(32) . . .
27.9(28) . . .
42(4) . . .
42(4) . . .
30.6(28) . . .
43.6(34) . . .
39.9(33) . . .
40.1(34) . . .
40(4) . . .
40(4) . . .
34.7(31) . . .
33.3(29) . . .
40(4) . . .
39.4(33) . . .
41.0(34) . . .
47(4) . . .
44(4) . . .
32.5(29) . . .
37.6(35) . . .
32.4(31) . . .
42.2(34) . . .
34.4(30) . . .
34.5(30) . . .
37.4(34) . . .
37.4(34) . . .
37.7(32) . . .
29.6(28) . . .
39.1(33) . . .
35.2(32) . . .
41(4) . . .
36.1(31) . . .
32.0(30) . . .
29.6(29) . . .
34.5(31) . . .
38.5(32) . . .
36.7(31) . . .
35.1(31) . . .
39(4) . . .
41(4) . . .
33.2(31) . . .
35.6(31) . . .
36.5(32) . . .
35.4(31) . . .
40.0(33) . . .
48(4) . . .
42.7(34) . . .
40.6(34) . . .
40.9(35) . . .
40.3(33) . . .
41.2(34) . . .
35.1(31) . . .
48(4) . . .
45(4) . . .
31.7(29) . . .
37.1(32) . . .
39.8(33) . . .
42(4) . . .
40.4(34) . . .
47(4) . . .
36.2(32) . . .
45(4) . . .
46(4) . . .
34.9(33) . . .
42(4) . . .
41.5(34) . . .
36.4(33) . . .
37.1(33) . . .
34.0(32) . . .
35.7(31) . . .
43.7(35) . . .
36.4(31) . . .
31.7(29) . . .
46(4) . . .
35.1(33) . . .
40.4(34) . . .
36.9(34) . . .
32.7(31) . . .
33.2(30) . . .
40.4(35) . . .
29.6(29) . . .
34.1(32) . . .
34.2(32) . . .
40(4) . . .
33.7(33) . . .
34.7(30) . . .
35.2(32) . . .
44(4) . . .
49(4) . . .
34.8(33) . . .
35.0(31) . . .
37.8(34) . . .
45(4) . . .
37.8(33) . . .
42.5(35) . . .
35.6(31) . . .
39.0(33) . . .
34.6(32) . . .
43(4) . . .
43.8(35) . . .
35.7(32) . . .
38.7(35) . . .
41(4) . . .
34.5(31) . . .
38.2(32) . . .
38.0(32) . . .
48(4) . . .
44(4) . . .
32.7(31) . . .
33.9(30) . . .
37.2(32) . . .
37.5(34) . . .
44(4) . . .
44(4) . . .
33.6(30) . . .
36.4(31) . . .
36.5(33) . . .
34.0(32) . . .
34.9(32) . . .
35.8(31) . . .
38.9(32) . . .
34.5(33) . . .
31.4(33) . . .
42(4) . . .
43.6(34) . . .
49(4) . . .
32.6(31) . . .
34.5(33) . . .
41(4) . . .
31.8(29) . . .
33.4(30) . . .
40(4) . . .
44(4) . . .
43(4) . . .
43.7(35) . . .
42(4) . . .
37(4) . . .
35.5(31) . . .
38.8(32) . . .
32.6(30) . . .
33.9(31) . . .
40(4) . . .
44(4) . . .
42.9(35) . . .
48(4) . . .
34.3(31) . . .
31.7(30) . . .
41.9(35) . . .
48(4) . . .
40.8(33) . . .
31.0(30) . . .
41(4) . . .
33.4(31) . . .
36.2(31) . . .
38.3(33) . . .
41(4) . . .
32.5(32) . . .
39.4(34) . . .
41.4(34) . . .
47(4) . . .
41(4) . . .
35.2(34) . . .
34.2(32) . . .
45.5(35) . . .
39.6(33) . . .
29.6(28) . . .
32.6(33) . . .
35.5(32) . . .
38.3(33) . . .
38.8(33) . . .
29.2(28) . . .
37.5(35) . . .
32.6(29) . . .
31.0(29) . . .
38.9(34) . . .
35.3(33) . . .
40(4) . . .
41(4) . . .
34.9(30) . . .
40.8(34) . . .
40.2(34) . . .
38.0(34) . . .
38.9(34) . . .
30.0(28) . . .
33.6(30) . . .
48(4) . . .
39.3(33) . . .
35.8(32) . . .
37.0(31) . . .
38.2(33) . . .
37.0(33) . . .
40(4) . . .
34.2(32) . . .
30.0(28) . . .
38.8(33) . . .
32.2(31) . . .
38.6(34) . . .
31.7(29) . . .
42.5(33) . . .
44(4) . . .
51(4) . . .
35.7(33) . . .
38.6(32) . . .
27.0(29) . . .
31.6(30) . . .
45(4) . . .
46.1(34) . . .
43.0(34) . . .
43.5(35) . . .
43(4) . . .
37.7(35) . . .
41(4) . . .
37.9(31) . . .
41.7(35) . . .
39.8(35) . . .
30.3(31) . . .
39.7(34) . . .
34.7(30) . . .
33.7(30) . . .
35(4) . . .
38(4) . . .
35.3(33) . . .
34.3(32) . . .
30.1(28) . . .
36.0(35) . . .
37(4) . . .
26.9(28) . . .
36.6(32) . . .
50(4) . . .
41.3(34) . . .
44.5(35) . . .
43.2(35) . . .
28.8(29) . . .
34.7(31) . . .
32.1(29) . . .
40.0(34) . . .
40.2(33) . . .
38.5(32) . . .
40.5(34) . . .
41(4) . . .
38.2(35) . . .
41.5(35) . . .
36.1(32) . . .
35.7(32) . . .
31.3(30) . . .
36.7(32) . . .
37.8(34) . . .
38.9(32) . . .
36.7(31) . . .
46(4) . . .
35.8(30) . . .
45.0(35) . . .
34.7(31) . . .
38.1(34) . . .
36.7(33) . . .
40.6(35) . . .
42(4) . . .
35.0(31) . . .
32.8(31) . . .
43(4) . . .
49(4) . . .
41.5(34) . . .
34.9(31) . . .
40.9(33) . . .
43(4) . . .
36.7(34) . . .
51(4) . . .
49(4) . . .
43(4) . . .
30.4(32) . . .
36.8(33) . . .
37.4(32) . . .
41.0(33) . . .
40.6(34) . . .
45(4) . . .
35.1(32) . . .
40.4(34) . . .
36.1(31) . . .
33.8(31) . . .
35.2(31) . . .
40(4) . . .
32.1(30) . . .
31.6(30) . . .
31.5(30) . . .
36.5(32) . . .
37.0(33) . . .
46(4) . . .
38.2(32) . . .
28.6(27) . . .
32.0(29) . . .
37.2(34) . . .
39.0(32) . . .
32.7(30) . . .
32.6(31) . . .
35.6(33) . . .
46(4) . . .
43.8(34) . . .
40.5(34) . . .
38.8(35) . . .
39(4) . . .
40.0(33) . . .
39.2(33) . . .
35.0(31) . . .
38.0(34) . . .
41.1(35) . . .
38.1(33) . . .
35.0(30) . . .
41(4) . . .
38.0(35) . . .
43(4) . . .
39.0(33) . . .
47(4) . . .
40.6(33) . . .
44(4) . . .
48(4) . . .
36.4(31) . . .
46(4) . . .
38.0(32) . . .
42(4) . . .
44(4) . . .
39.5(33) . . .
36.5(31) . . .
37.8(33) . . .
37.7(32) . . .
44(4) . . .
34.8(31) . . .
35.3(31) . . .
31.0(30) . . .
37.2(32) . . .
37.6(32) . . .
41.1(33) . . .
36.4(32) . . .
34.6(30) . . .
53(4) . . .
35.5(31) . . .
32.6(30) . . .
35.9(32) . . .
36.5(33) . . .
43(4) . . .
41.8(35) . . .
35.8(31) . . .
39.5(34) . . .
42(4) . . .
33.2(31) . . .
32.0(31) . . .
34.9(31) . . .
35.3(32) . . .
38.3(33) . . .
42.7(35) . . .
36.4(33) . . .
33.3(30) . . .
48(4) . . .
47(4) . . .
36.0(32) . . .
39.6(33) . . .
42.8(34) . . .
41(4) . . .
39(4) . . .
38.8(33) . . .
40.5(34) . . .
37.0(31) . . .
36.1(34) . . .
31.6(32) . . .
38.8(35) . . .
35.0(30) . . .
50(4) . . .
32.0(30) . . .
44(4) . . .
42(4) . . .
36.9(31) . . .
43.3(34) . . .
41.2(34) . . .
25.4(27) . . .
37.2(33) . . .
32.0(29) . . .
27.4(27) . . .
35.0(33) . . .
32.5(31) . . .
41(4) . . .
33.9(31) . . .
36.2(32) . . .
42(4) . . .
30.0(27) . . .
43.5(35) . . .
33.9(31) . . .
37.0(33) . . .
34.0(34) . . .
34.8(31) . . .
27.9(27) . . .
36.5(32) . . .
34.6(32) . . .
32.4(32) . . .
42(4) . . .
41.4(33) . . .
29.6(28) . . .
38.6(34) . . .
35.1(30) . . .
37.7(34) . . .
25.3(28) . . .
43.5(35) . . .
39(4) . . .
38.7(35) . . .
37.8(33) . . .
31.1(29) . . .
36.9(32) . . .
37.1(33) . . .
35.0(32) . . .
40.7(33) . . .
41.3(34) . . .
38.9(33) . . .
40.1(35) . . .
36.8(35) . . .
34.2(31) . . .
52(4) . . .
38.0(32) . . .
37.4(33) . . .
34.7(34) . . .
33.6(32) . . .
33.6(30) . . .
29.6(29) . . .
37.6(34) . . .
40(4) . . .
37(4) . . .
42.4(34) . . .
37.6(32) . . .
38.9(34) . . .
43(4) . . .
37.8(32) . . .
36.3(32) . . .
35.3(31) . . .
43.4(35) . . .
31.2(30) . . .
36.2(33) . . .
41.5(34) . . .
41.2(34) . . .
43(4) . . .
24.4(26) . . .
28.4(29) . . .
45(4) . . .
38.0(32) . . .
34.5(33) . . .
37.2(33) . . .
38.6(33) . . .
35.5(31) . . .
38.4(33) . . .
44(4) . . .
41.6(34) . . .
37.0(31) . . .
38.9(33) . . .
31.9(30) . . .
32.5(32) . . .
28.9(28) . . .
36.1(33) . . .
31.1(28) . . .
31.6(28) . . .
38.9(34) . . .
33.7(31) . . .
32.7(30) . . .
39.5(34) . . .
39.8(34) . . .
41(4) . . .
47(4) . . .
37.0(32) . . .
36.3(32) . . .
40(4) . . .
42(4) . . .
35.5(32) . . .
33.2(31) . . .
34.2(30) . . .
39.3(35) . . .
34.9(34) . . .
39.8(34) . . .
33.0(31) . . .
33.0(31) . . .
32.3(33) . . .
31.4(32) . . .
30.4(30) . . .
37.7(32) . . .
37.9(33) . . .
33.5(31) . . .
27.7(29) . . .
41(4) . . .
42.3(34) . . .
43.0(34) . . .
38.7(33) . . .
40(4) . . .
42(4) . . .
34.1(30) . . .
47(4) . . .
36.9(33) . . .
38.6(32) . . .
40.4(33) . . .
32.1(29) . . .
28.8(28) . . .
38.4(34) . . .
33.6(29) . . .
46(4) . . .
32.0(30) . . .
41(4) . . .
39(4) . . .
37.0(32) . . .
44(4) . . .
32.9(29) . . .
38.3(34) . . .
43(4) . . .
34.0(32) . . .
36.9(32) . . .
37.7(31) . . .
37.7(35) . . .
34.7(32) . . .
35.8(32) . . .
39.1(34) . . .
35.7(31) . . .
36.5(32) . . .
37.7(34) . . .
44.6(35) . . .
36.8(31) . . .
36.4(32) . . .
40.2(34) . . .
33.7(32) . . .
46(4) . . .
38.1(32) . . .
30.0(28) . . .
25.6(26) . . .
42(4) . . .
41.0(33) . . .
37.0(32) . . .
33.9(31) . . .
35.8(35) . . .
33.8(32) . . .
39(4) . . .
40.9(33) . . .
42.0(34) . . .
35.9(31) . . .
39.9(34) . . .
40.3(35) . . .
41.4(33) . . .
33.7(31) . . .
34.5(32) . . .
39(4) . . .
44(4) . . .
37.3(33) . . .
40.2(35) . . .
25.8(27) . . .
36.3(33) . . .
46(4) . . .
41.8(34) . . .
29.5(28) . . .
39.3(35) . . .
37.2(33) . . .
37.7(34) . . .
32.3(30) . . .
35.0(31) . . .
39.1(35) . . .
35.0(31) . . .
40(4) . . .
33.8(30) . . .
39.8(35) . . .
39(4) . . .
37.0(32) . . .
41.5(33) . . .
39.5(33) . . .
39.5(33) . . .
40.0(35) . . .
40.0(34) . . .
43.4(34) . . .
35.8(31) . . .
33.6(30) . . .
39.0(34) . . .
39.3(34) . . .
38.3(32) . . .
38.7(32) . . .
41(4) . . .
43(4) . . .
50(4) . . .
37.9(32) . . .
32.8(32) . . .
43(4) . . .
39.8(33) . . .
39.0(34) . . .
30.1(28) . . .
42.3(34) . . .
37.1(34) . . .
34.0(30) . . .
35.8(31) . . .
36.3(31) . . .
34.9(32) . . .
39.4(34) . . .
46(4) . . .
47(4) . . .
40.4(33) . . .
50(4) . . .
37.2(32) . . .
37.1(33) . . .
33.3(31) . . .
37.8(32) . . .
47(4) . . .
36.5(32) . . .
40(4) . . .
38.0(34) . . .
35.3(31) . . .
34.6(31) . . .
36.6(35) . . .
40.5(34) . . .
38.6(32) . . .
44.3(35) . . .
40(4) . . .
42(4) . . .
32.2(31) . . .
43(4) . . .
41.0(34) . . .
46(4) . . .
31.2(30) . . .
40(4) . . .
36.6(31) . . .
40.7(34) . . .
35.5(33) . . .
34.6(33) . . .
32.4(31) . . .
32.1(29) . . .
34.3(31) . . .
34.0(31) . . .
44(4) . . .
36.5(33) . . .
39.0(33) . . .
39.1(32) . . .
36.3(30) . . .
41(4) . . .
40(4) . . .
28.7(30) . . .
47(4) . . .
44(4) . . .
39.0(33) . . .
45(4) . . .
41.5(34) . . .
36.1(31) . . .
41.4(35) . . .
37.4(34) . . .
37.8(33) . . .
38.2(32) . . .
35.8(32) . . .
41.5(34) . . .
35.3(32) . . .
38(4) . . .
40.2(33) . . .
38.4(33) . . .
41.1(34) . . .
38.4(33) . . .
34.9(30) . . .
41.0(33) . . .
36.2(32) . . .
34.6(33) . . .
33.9(32) . . .
44.2(35) . . .
40.0(33) . . .
41(4) . . .
33.5(31) . . .
31.6(32) . . .
26.3(26) . . .
39.7(34) . . .
31.1(29) . . .
43(4) . . .
36.7(33) . . .
34.3(30) . . .
40.7(34) . . .
38.8(35) . . .
32.4(32) . . .
44(4) . . .
40.9(35) . . .
38.4(32) . . .
32.0(30) . . .
37.2(35) . . .
36.1(32) . . .
37.0(31) . . .
34.5(32) . . .
40.0(33) . . .
33.0(29) . . .
41.9(34) . . .
42.4(34) . . .
45(4) . . .
30.7(30) . . .
44(4) . . .
34.9(31) . . .
37.0(33) . . .
45(4) . . .
39.6(33) . . .
31.8(29) . . .
38.8(32) . . .
41.7(33) . . .
41.5(34) . . .
36.8(32) . . .
39.0(33) . . .
36.2(31) . . .
43.0(34) . . .
39.6(33) . . .
33.0(31) . . .
42(4) . . .
42.7(34) . . .
40.4(33) . . .
40.0(35) . . .
42(4) . . .
32.1(29) . . .
36.2(31) . . .
44.3(35) . . .
42(4) . . .
36.0(33) . . .
33.5(30) . . .
33.7(30) . . .
36.1(31) . . .
35.4(35) . . .
31.9(32) . . .
40.9(35) . . .
42.0(34) . . .
38.4(33) . . .
35.6(32) . . .
39(4) . . .
39.1(33) . . .
45.4(35) . . .
45.3(35) . . .
39.7(33) . . .
31.1(30) . . .
37.5(34) . . .
37.7(32) . . .
38.4(33) . . .
35.0(31) . . .
39(4) . . .
35.3(34) . . .
34.8(31) . . .
39.3(32) . . .
34.2(30) . . .
32.8(31) . . .
37.9(33) . . .
33.5(31) . . .
34.4(32) . . .
34.8(31) . . .
31.7(29) . . .
40.7(35) . . .
31.8(30) . . .
38.5(34) . . .
38.1(33) . . .
35.8(31) . . .
39.6(33) . . .
48(4) . . .
36.2(33) . . .
30.5(30) . . .
38.7(32) . . .
33.1(31) . . .
40.5(34) . . .
44(4) . . .
42(4) . . .
42(4) . . .
29.7(30) . . .
41.9(33) . . .
37.2(33) . . .
33.9(32) . . .
47(4) . . .
32.6(31) . . .
34.8(31) . . .
39.3(33) . . .
33.8(32) . . .
39.5(34) . . .
39.0(33) . . .
39.5(33) . . .
38(4) . . .
33.6(32) . . .
42(4) . . .
37.0(33) . . .
38.2(32) . . .
40.3(33) . . .
38.3(32) . . .
44(4) . . .
42.8(34) . . .
36.2(33) . . .
44(4) . . .
38.2(33) . . .
39.5(34) . . .
37.9(32) . . .
33.5(30) . . .
46(4) . . .
38.6(34) . . .
42.5(35) . . .
36.5(31) . . .
46(4) . . .
42(4) . . .
42.7(34) . . .
40.2(34) . . .
37.8(32) . . .
35.1(32) . . .
32.8(33) . . .
42(4) . . .
47(4) . . .
34.4(31) . . .
34.9(32) . . .
36.3(34) . . .
38.1(34) . . .
29.9(29) . . .
30.3(29) . . .
30.6(30) . . .
33.4(33) . . .
39(4) . . .
38.4(33) . . .
42.1(33) . . .
43.6(35) . . .
38.2(35) . . .
32.4(31) . . .
42(4) . . .
29.2(28) . . .
33.3(30) . . .
40(4) . . .
47(4) . . .
39.7(33) . . .
39.3(33) . . .
35(4) . . .
33.9(34) . . .
30.6(29) . . .
38.3(33) . . .
33.3(30) . . .
35.2(32) . . .
34.7(34) . . .
38.8(33) . . .
41.8(34) . . .
39.5(33) . . .
31.5(29) . . .
36.1(32) . . .
44(4) . . .
38.1(32) . . .
39.3(33) . . .
36.5(33) . . .
39(4) . . .
41(4) . . .
28.4(28) . . .
35.3(31) . . .
35.9(32) . . .
34.9(33) . . .
34.0(31) . . .
41.0(33) . . .
35.1(32) . . .
44(4) . . .
45(4) . . .
38.4(33) . . .
33.8(30) . . .
36.3(32) . . .
38.1(34) . . .
36.7(33) . . .
37.0(34) . . .
36.5(32) . . .
48(4) . . .
46(4) . . .
41.3(33) . . .
42.2(34) . . .
41.1(34) . . .
37.2(34) . . .
42(4) . . .
46(4) . . .
38.2(33) . . .
35.2(31) . . .
39.9(34) . . .
45(4) . . .
34.9(34) . . .
42.2(34) . . .
40.4(33) . . .
45(4) . . .
37.2(32) . . .
34.2(31) . . .
32.3(30) . . .
33.8(30) . . .
39.6(33) . . .
34.7(33) . . .
37(4) . . .
33.5(30) . . .
30.7(29) . . .
35.5(32) . . .
37.9(35) . . .
34.5(31) . . .
35.5(31) . . .
34.5(31) . . .
36.8(33) . . .
29.5(30) . . .
30.3(31) . . .
46(4) . . .
38.3(34) . . .
29.2(29) . . .
42(4) . . .
47(4) . . .
50(4) . . .
38.3(32) . . .
41.3(34) . . .
34.4(32) . . .
35.2(31) . . .
32.3(30) . . .
40.3(34) . . .
32.2(31) . . .
37.1(34) . . .
38.2(33) . . .
39.2(33) . . .
47(4) . . .
38.3(33) . . .
34.4(30) . . .
43.3(34) . . .
39.8(33) . . .
44(4) . . .
35.1(32) . . .
39.2(35) . . .
30.9(29) . . .
34.7(31) . . .
37.1(33) . . .
35.1(31) . . .
42(4) . . .
33.9(31) . . .
34.2(30) . . .
37.0(32) . . .
30.0(29) . . .
37.0(32) . . .
31.7(30) . . .
31.0(30) . . .
40.7(34) . . .
35.5(32) . . .
43.0(35) . . .
44(4) . . .
40.5(33) . . .
34.8(31) . . .
41(4) . . .
36.8(31) . . .
42.8(34) . . .
36.9(32) . . .
32.4(30) . . .
35.3(32) . . .
43.4(34) . . .
41.4(33) . . .
47(4) . . .
39.6(34) . . .
30.5(31) . . .
43(4) . . .
44.1(35) . . .
39.1(34) . . .
48(4) . . .
40.0(33) . . .
41.5(35) . . .
43.3(34) . . .
37.5(31) . . .
41.9(35) . . .
47(4) . . .
51(4) . . .
39.1(33) . . .
42.0(35) . . .
47(4) . . .
42(4) . . .
43.8(35) . . .
30.3(29) . . .
34.3(35) . . .
36.7(32) . . .
44.2(35) . . .
33.7(31) . . .
37.1(31) . . .
35.9(33) . . .
40(4) . . .
32.1(29) . . .
43.4(35) . . .
36.0(31) . . .
33.2(30) . . .
31.2(30) . . .
41(4) . . .
35.5(31) . . .
39.7(33) . . .
40.6(34) . . .
43(4) . . .
34.0(30) . . .
31.5(29) . . .
29.1(29) . . .
41(4) . . .
38(4) . . .
36.7(33) . . .
35.5(31) . . .
47(4) . . .
37.4(35) . . .
38(4) . . .
33.2(30) . . .
40.5(33) . . .
39.4(33) . . .
38.7(32) . . .
34.8(32) . . .
36.2(32) . . .
36.5(31) . . .
38.4(32) . . .
44(4) . . .
48(4) . . .
38.0(32) . . .
36.0(32) . . .
45(4) . . .
34.5(31) . . .
41.2(34) . . .
44(4) . . .
47(4) . . .
38.5(32) . . .
44(4) . . .
37.8(34) . . .
34.8(31) . . .
34.5(31) . . .
33.4(32) . . .
34.3(34) . . .
36.0(34) . . .
39.8(33) . . .
44.7(35) . . .
48(4) . . .
40(4) . . .
33.6(32) . . .
39.7(35) . . .
41.4(33) . . .
40.9(34) . . .
34.1(33) . . .
34.6(32) . . .
38.5(33) . . .
39.4(32) . . .
41(4) . . .
34.9(34) . . .
38.4(33) . . .
33.9(31) . . .
41.4(34) . . .
34.9(31) . . .
41.0(35) . . .
35.4(33) . . .
34.2(30) . . .
28.4(28) . . .
42.5(35) . . .
41(4) . . .
42(4) . . .
32.8(30) . . .
32.4(30) . . .
45(4) . . .
40.1(35) . . .
32.0(30) . . .
33.8(30) . . .
32.8(31) . . .
26.8(28) . . .
39(4) . . .
36.9(33) . . .
44.0(34) . . .
32.1(32) . . .
34.2(33) . . .
36.6(33) . . .
48(4) . . .
36.0(31) . . .
35.7(32) . . .
41(4) . . .
41(4) . . .
33.8(30) . . .
31.2(30) . . .
39.3(33) . . .
30.3(29) . . .
35.8(34) . . .
36.6(33) . . .
33.8(30) . . .
24.7(26) . . .
36.8(34) . . .
36.5(32) . . .
34.4(31) . . .
46(4) . . .
40.8(35) . . .
35.5(34) . . .
35.5(34) . . .
30.3(29) . . .
34.7(31) . . .
41(4) . . .
43(4) . . .
44(4) . . .
41.4(33) . . .
38.5(34) . . .
39.5(33) . . .
33.7(33) . . .
37.3(33) . . .
39.4(33) . . .
33.3(30) . . .
39(4) . . .
39.3(35) . . .
34.4(31) . . .
39.5(33) . . .
32.9(30) . . .
37.5(34) . . .
35.1(32) . . .
45(4) . . .
44.3(35) . . .
35.6(32) . . .
28.3(28) . . .
36.0(33) . . .
32.9(32) . . .
49(4) . . .
40.8(34) . . .
36.8(33) . . .
36.9(33) . . .
34.4(31) . . .
42.4(34) . . .
34.6(32) . . .
37.7(34) . . .
34.9(31) . . .
36.8(33) . . .
38.6(32) . . .
46(4) . . .
44(4) . . .
31.3(29) . . .
35.8(32) . . .
29.5(28) . . .
34.0(32) . . .
33.5(32) . . .
32.5(33) . . .
30.1(29) . . .
38.1(33) . . .
33.8(30) . . .
44(4) . . .
41(4) . . .
33.0(30) . . .
34.6(31) . . .
41.3(34) . . .
33.7(31) . . .
37.7(33) . . .
36.3(31) . . .
36.4(32) . . .
40.6(35) . . .
33.2(33) . . .
34.2(32) . . .
32.0(29) . . .
30.3(29) . . .
31.8(31) . . .
38(4) . . .
44(4) . . .
34.3(32) . . .
38.0(32) . . .
38.9(34) . . .
39(4) . . .
38.9(35) . . .
39.0(33) . . .
43.0(34) . . .
37.1(32) . . .
38.7(34) . . .
34.1(32) . . .
39.0(33) . . .
39.9(33) . . .
49(4) . . .
38.2(33) . . .
30.2(29) . . .
33.4(30) . . .
29.5(29) . . .
33.9(34) . . .
36.6(34) . . .
32.8(30) . . .
32.4(29) . . .
42(4) . . .
38.7(34) . . .
35.7(33) . . .
33.3(31) . . .
37.3(32) . . .
40.2(35) . . .
33.9(30) . . .
38.6(32) . . .
47(4) . . .
29.2(29) . . .
32.6(30) . . .
31.3(30) . . .
34.1(32) . . .
31.0(31) . . .
47(4) . . .
44(4) . . .
38.2(34) . . .
44(4) . . .
38.6(33) . . .
31.3(29) . . .
26.3(28) . . .
35(4) . . .
38.5(34) . . .
31.4(29) . . .
36.6(32) . . .
42(4) . . .
34.5(32) . . .
36.9(32) . . .
30.9(29) . . .
40.2(34) . . .
35.3(32) . . .
36.1(34) . . .
30.1(30) . . .
36.2(31) . . .
29.5(28) . . .
41.1(35) . . .
39.5(34) . . .
35.8(31) . . .
34.8(31) . . .
46(4) . . .
40.5(34) . . .
38.0(34) . . .
34.7(30) . . .
38.6(32) . . .
28.2(29) . . .
30.5(30) . . .
30.5(31) . . .
36.5(33) . . .
41.9(34) . . .
36.8(32) . . .
36.9(32) . . .
41.1(35) . . .
35.3(31) . . .
32.3(30) . . .
43(4) . . .
32.8(32) . . .
36.1(33) . . .
34.8(31) . . .
35.7(31) . . .
39.7(33) . . .
36.2(33) . . .
41.8(33) . . .
34.3(30) . . .
38.2(33) . . .
31.3(29) . . .
37.2(34) . . .
28.1(28) . . .
44.5(35) . . .
36.2(31) . . .
27.1(27) . . .
38.9(34) . . .
41.1(34) . . .
40.0(33) . . .
35.6(32) . . .
30.5(31) . . .
27.0(28) . . .
42.1(35) . . .
33.9(31) . . .
40.8(34) . . .
41.8(34) . . .
45(4) . . .
38.8(35) . . .
37.7(33) . . .
44(4) . . .
38.7(33) . . .
41(4) . . .
39.6(33) . . .
32.1(30) . . .
35.3(31) . . .
33.3(30) . . .
40(4) . . .
37.7(33) . . .
37.2(32) . . .
42.2(34) . . .
36.5(31) . . .
34.9(31) . . .
35.0(33) . . .
34.1(30) . . .
24.9(27) . . .
33.4(31) . . .
31.0(29) . . .
32.0(29) . . .
32.6(31) . . .
37.3(33) . . .
39(4) . . .
37.9(34) . . .
34.7(31) . . .
30.9(29) . . .
37.3(32) . . .
32.2(31) . . .
33.8(33) . . .
34.4(31) . . .
36.4(31) . . .
34.4(31) . . .
32.7(30) . . .
31.8(29) . . .
36.6(33) . . .
25.0(27) . . .
33.8(32) . . .
32.3(32) . . .
34.7(33) . . .
43.2(34) . . .
42.6(34) . . .
33.3(31) . . .
29.5(30) . . .
35.9(33) . . .
34.3(31) . . .
34.1(30) . . .
31.4(30) . . .
31.5(32) . . .
43(4) . . .
34.8(31) . . .
28.0(28) . . .
33.9(31) . . .
28.1(29) . . .
35.2(34) . . .
42.2(34) . . .
33.5(31) . . .
35.7(34) . . .
33.4(32) . . .
45(4) . . .
45(4) . . .
36.2(31) . . .
31.3(32) . . .
31.9(32) . . .
42(4) . . .
37.2(32) . . .
45(4) . . .
38.8(33) . . .
40.3(34) . . .
43.5(34) . . .
42.3(34) . . .
41.4(34) . . .
34.4(32) . . .
36.8(34) . . .
37.3(33) . . .
35.6(30) . . .
43(4) . . .
35.6(31) . . .
37.0(32) . . .
33.9(32) . . .
35.2(31) . . .
43(4) . . .
45(4) . . .
32.8(30) . . .
31.3(30) . . .
30.5(29) . . .
39(4) . . .
43(4) . . .
38.4(33) . . .
35.3(31) . . .
35.1(31) . . .
30.6(31) . . .
30.9(30) . . .
40(4) . . .
31.2(31) . . .
37.9(33) . . .
35.5(31) . . .
36.3(32) . . .
32.8(31) . . .
38.5(32) . . .
31.5(29) . . .
37.4(33) . . .
45(4) . . .
38.1(32) . . .
37.5(32) . . .
28.7(28) . . .
37.3(34) . . .
32.0(32) . . .
32.6(31) . . .
37.6(32) . . .
35.4(32) . . .
39.2(34) . . .
48(4) . . .
30.0(29) . . .
36.4(32) . . .
32.5(29) . . .
32.7(31) . . .
38.6(32) . . .
44(4) . . .
40.9(33) . . .
36.8(33) . . .
39(4) . . .
40(4) . . .
34.8(32) . . .
31.3(30) . . .
32.7(31) . . .
41(4) . . .
35.2(32) . . .
39.5(33) . . .
41.6(34) . . .
48(4) . . .
45(4) . . .
42(4) . . .
39.7(34) . . .
35.4(31) . . .
38.1(33) . . .
30.2(31) . . .
36.3(33) . . .
42.5(35) . . .
24.3(26) . . .
41.4(34) . . .
46(4) . . .
39(4) . . .
40.4(33) . . .
37.9(32) . . .
43(4) . . .
31.7(31) . . .
38.5(33) . . .
41.2(34) . . .
40.1(33) . . .
30.7(29) . . .
36.2(34) . . .
37.0(32) . . .
39.0(32) . . .
45(4) . . .
35.7(32) . . .
33.8(31) . . .
47(4) . . .
42.5(35) . . .
39.6(33) . . .
36.9(32) . . .
38.3(34) . . .
39.7(33) . . .
37.9(33) . . .
40.9(34) . . .
37.8(32) . . .
38.9(34) . . .
37.1(33) . . .
34.6(31) . . .
37.4(32) . . .
35.3(32) . . .
46(4) . . .
37.4(33) . . .
33.0(30) . . .
44(4) . . .
40.3(34) . . .
35.7(32) . . .
39.2(32) . . .
38.4(32) . . .
33.4(31) . . .
29.5(29) . . .
31.4(30) . . .
37.2(32) . . .
27.5(28) . . .
29.4(29) . . .
39(4) . . .
40.9(35) . . .
39.0(33) . . .
42.0(34) . . .
35.2(32) . . .
35.8(34) . . .
39.5(34) . . .
38.3(33) . . .
29.0(27) . . .
37.1(33) . . .
30.8(31) . . .
26.3(29) . . .
32.3(31) . . .
42.8(34) . . .
35.9(32) . . .
41.8(35) . . .
40.5(35) . . .
34.7(31) . . .
46.0(35) . . .
41.5(35) . . .
39(4) . . .
43(4) . . .
36.7(31) . . .
36.8(33) . . .
39(4) . . .
33.2(31) . . .
31.9(31) . . .
36.1(31) . . .
37.9(32) . . .
29.0(27) . . .
33.2(32) . . .
38.1(34) . . .
37.7(32) . . .
34.1(31) . . .
35.8(33) . . .
28.4(27) . . .
35.6(31) . . .
42.2(34) . . .
47(4) . . .
33.3(34) . . .
34.6(34) . . .
41.4(35) . . .
40.2(33) . . .
43(4) . . .
38(4) . . .
31.3(30) . . .
35.7(31) . . .
29.7(28) . . .
36.5(32) . . .
38.0(33) . . .
39(4) . . .
33.4(31) . . .
32.0(30) . . .
37.8(32) . . .
40(4) . . .
35.0(33) . . .
34.8(33) . . .
34.8(31) . . .
30.5(29) . . .
33.1(33) . . .
32.5(30) . . .
38.2(32) . . .
32.7(29) . . .
36.9(34) . . .
36.8(33) . . .
31.4(29) . . .
28.2(27) . . .
45(4) . . .
38.6(33) . . .
34.5(32) . . .
33.4(32) . . .
38.9(33) . . .
36.4(32) . . .
38.6(34) . . .
45(4) . . .
35.8(33) . . .
37.0(33) . . .
32.8(31) . . .
37.3(35) . . .
35.2(32) . . .
30.5(29) . . .
38.8(32) . . .
39.7(33) . . .
38.3(34) . . .
35.0(33) . . .
40.7(33) . . .
40.3(33) . . .
26.2(29) . . .
35.6(33) . . .
31.1(29) . . .
29.9(29) . . .
34.4(30) . . .
30.9(30) . . .
33.7(32) . . .
36.4(32) . . .
41.6(35) . . .
22.2(25) . . .
26.6(28) . . .
36.0(34) . . .
32.8(32) . . .
38.3(33) . . .
35.7(31) . . .
36.8(32) . . .
35.9(34) . . .
46(4) . . .
38.7(32) . . .
32.3(29) . . .
32.7(29) . . .
32.7(32) . . .
35.8(32) . . .
30.4(29) . . .
40.9(34) . . .
40.1(33) . . .
33.4(32) . . .
32.2(29) . . .
40.4(33) . . .
33.8(30) . . .
35.3(33) . . .
39.2(34) . . .
44(4) . . .
35.6(31) . . .
46(4) . . .
38.7(34) . . .
36.7(35) . . .
36.1(32) . . .
33.9(31) . . .
36.0(31) . . .
37.4(34) . . .
34.4(30) . . .
46(4) . . .
35.3(31) . . .
39.4(34) . . .
36.9(34) . . .
30.1(29) . . .
41.1(35) . . .
40.0(33) . . .
36.0(32) . . .
49(4) . . .
43(4) . . .
36.7(32) . . .
34.7(31) . . .
30.8(30) . . .
31.9(32) . . .
40(4) . . .
38.6(33) . . .
35.7(31) . . .
34.2(32) . . .
27.6(30) . . .
40.8(35) . . .
43.2(34) . . .
36.0(31) . . .
46(4) . . .
36.2(35) . . .
28.3(27) . . .
32.8(30) . . .
27.2(28) . . .
41.1(35) . . .
36.7(33) . . .
40.2(34) . . .
33.3(30) . . .
35.0(31) . . .
37.5(32) . . .
38.3(34) . . .
45(4) . . .
36.6(32) . . .
35.7(31) . . .
38.7(34) . . .
29.9(30) . . .
38.4(32) . . .
40.9(32) . . .
39.0(33) . . .
36.5(32) . . .
35.5(33) . . .
32.7(31) . . .
40.3(33) . . .
26.2(26) . . .
43.0(34) . . .
38.1(34) . . .
35.3(33) . . .
38.4(32) . . .
40.2(33) . . .
38.8(34) . . .
36.2(33) . . .
31.3(31) . . .
35.5(31) . . .
39.9(33) . . .
35.6(33) . . .
36.0(33) . . .
43.7(34) . . .
33.8(30) . . .
34.2(31) . . .
30.9(29) . . .
31.1(30) . . .
30.1(30) . . .
39.8(33) . . .
28.8(29) . . .
30.4(30) . . .
32.4(30) . . .
34.2(30) . . .
34.9(31) . . .
34.4(31) . . .
35.5(32) . . .
34.7(30) . . .
41.6(34) . . .
29.0(28) . . .
32.8(32) . . .
36.5(34) . . .
37.2(33) . . .
30.3(29) . . .
37.2(32) . . .
38.2(34) . . .
33.1(31) . . .
47(4) . . .
38.7(32) . . .
37.6(32) . . .
37.4(33) . . .
46(4) . . .
44.2(34) . . .
36.3(32) . . .
38.0(32) . . .
34.9(31) . . .
39(4) . . .
35.3(31) . . .
37.4(32) . . .
37.8(32) . . .
30.3(31) . . .
30.0(29) . . .
36.5(33) . . .
47(4) . . .
34.8(31) . . .
42(4) . . .
26.3(28) . . .
30.2(30) . . .
38.2(32) . . .
40.6(34) . . .
33.5(32) . . .
38(4) . . .
42(4) . . .
37.3(32) . . .
32.7(31) . . .
37.3(32) . . .
34.1(33) . . .
31.8(30) . . .
43.6(34) . . .
27.5(28) . . .
38.5(35) . . .
35.7(32) . . .
36.0(32) . . .
35.7(31) . . .
39.5(35) . . .
36.4(32) . . .
37.6(33) . . .
38.2(34) . . .
35.7(30) . . .
28.3(28) . . .
28.6(31) . . .
32.4(32) . . .
39.2(34) . . .
40.0(34) . . .
38.9(34) . . .
35.9(34) . . .
32.9(30) . . .
37.7(32) . . .
27.1(27) . . .
27.4(28) . . .
34.1(32) . . .
30.6(29) . . .
38.9(32) . . .
44(4) . . .
40.1(33) . . .
41(4) . . .
42(4) . . .
36.6(32) . . .
31.8(31) . . .
43(4) . . .
40(4) . . .
42.1(35) . . .
31.0(29) . . .
41.4(34) . . .
35.1(33) . . .
35.1(34) . . .
37.6(32) . . .
34.1(30) . . .
34.8(31) . . .
37.1(32) . . .
37.0(33) . . .
40.0(33) . . .
38.3(32) . . .
41(4) . . .
31.0(30) . . .
36.6(33) . . .
31.8(30) . . .
31.7(29) . . .
37.0(35) . . .
38(4) . . .
40.8(34) . . .
32.6(30) . . .
34.9(31) . . .
39.3(34) . . .
33.2(31) . . .
38.2(34) . . .
32.0(29) . . .
34.9(31) . . .
31.7(34) . . .
32.9(33) . . .
37.1(34) . . .
37.0(32) . . .
36.2(32) . . .
31.6(29) . . .
34.3(33) . . .
35.9(33) . . .
28.3(27) . . .
38.9(33) . . .
32.9(30) . . .
32.0(32) . . .
34.3(35) . . .
33.0(31) . . .
37.2(31) . . .
37.3(32) . . .
35.7(33) . . .
35.5(32) . . .
36.8(32) . . .
42.0(34) . . .
34.5(30) . . .
37.2(33) . . .
36.3(33) . . .
34.5(31) . . .
32.5(32) . . .
36.5(34) . . .
37.6(33) . . .
39(4) . . .
36.4(33) . . .
29.5(28) . . .
33.9(31) . . .
42(4) . . .
32.4(30) . . .
32.5(30) . . .
37.0(34) . . .
28.6(30) . . .
31.5(31) . . .
36.1(32) . . .
40.2(33) . . .
43(4) . . .
42(4) . . .
35.0(31) . . .
41.5(33) . . .
35.2(31) . . .
40.9(34) . . .
42(4) . . .
43(4) . . .
29.4(28) . . .
35.5(31) . . .
40.9(35) . . .
40(4) . . .
32.3(31) . . .
35.3(32) . . .
40.7(33) . . .
37.7(33) . . .
44(4) . . .
39.0(33) . . .
37.3(32) . . .
31.9(29) . . .
38.4(33) . . .
37.7(34) . . .
37.9(33) . . .
38.4(32) . . .
42.1(35) . . .
24.9(26) . . .
39(4) . . .
44(4) . . .
33.2(30) . . .
44(4) . . .
35.8(32) . . .
34.5(32) . . .
29.4(28) . . .
41.0(34) . . .
43.0(35) . . .
36.2(32) . . .
32.2(31) . . .
28.1(30) . . .
41.2(34) . . .
40.5(33) . . .
44(4) . . .
39.6(34) . . .
35.3(32) . . .
33.3(30) . . .
36.0(33) . . .
39.7(34) . . .
30.3(30) . . .
30.3(28) . . .
29.5(29) . . .
36.9(33) . . .
37.5(33) . . .
42(4) . . .
39.6(34) . . .
41.9(34) . . .
31.8(32) . . .
38(4) . . .
37.3(34) . . .
41.0(34) . . .
37.9(32) . . .
27.9(28) . . .
37.9(34) . . .
42.3(33) . . .
35.4(31) . . .
37.3(31) . . .
41.3(34) . . .
36.2(32) . . .
43(4) . . .
39.1(33) . . .
35.8(31) . . .
32.7(30) . . .
31.1(32) . . .
42(4) . . .
29.2(29) . . .
34.2(30) . . .
30.1(31) . . .
31.1(32) . . .
38.2(33) . . .
40.9(34) . . .
29.6(28) . . .
36.4(32) . . .
42(4) . . .
47(4) . . .
41.2(35) . . .
43.5(35) . . .
34.4(31) . . .
32.2(30) . . .
41.4(35) . . .
38.4(33) . . .
34.5(31) . . .
43(4) . . .
45(4) . . .
34.9(32) . . .
33.3(31) . . .
38.2(33) . . .
35.4(32) . . .
39.0(33) . . .
37.1(31) . . .
38.8(33) . . .
38.2(35) . . .
29.5(30) . . .
30.7(33) . . .
27.7(28) . . .
29.6(29) . . .
38(4) . . .
36.3(33) . . .
38.4(34) . . .
45(4) . . .
42.5(34) . . .
44(4) . . .
37.8(35) . . .
39.6(34) . . .
33.5(30) . . .
26.7(27) . . .
35.5(32) . . .
28.1(28) . . .
31.3(30) . . .
36.2(31) . . .
34.2(32) . . .
41(4) . . .
32.5(33) . . .
30.5(28) . . .
38.8(32) . . .
35.6(31) . . .
32.9(31) . . .
41(4) . . .
35.7(32) . . .
38.8(33) . . .
48(4) . . .
40(4) . . .
30.8(31) . . .
44(4) . . .
38.6(33) . . .
34.4(30) . . .
33.8(31) . . .
38.2(35) . . .
34.5(32) . . .
34.6(31) . . .
35.7(31) . . .
34.3(33) . . .
37.5(35) . . .
34.0(31) . . .
34.3(31) . . .
29.6(31) . . .
36.0(31) . . .
46(4) . . .
39.9(35) . . .
29.0(27) . . .
30.3(29) . . .
35.5(32) . . .
34.1(31) . . .
37.3(32) . . .
39.7(32) . . .
35.4(31) . . .
43(4) . . .
32.2(29) . . .
32.0(31) . . .
30.9(29) . . .
27.9(29) . . .
35.4(32) . . .
37.4(31) . . .
38.7(33) . . .
39.0(32) . . .
38.4(32) . . .
34.3(31) . . .
34.3(33) . . .
42.1(34) . . .
34.0(30) . . .
37.4(33) . . .
36.7(33) . . .
30.0(29) . . .
33.4(30) . . .
39.7(33) . . .
41(4) . . .
39.3(34) . . .
39.8(34) . . .
43(4) . . .
44(4) . . .
26.3(27) . . .
24.6(28) . . .
35.6(33) . . .
35.4(31) . . .
31.1(29) . . .
33.8(31) . . .
40(4) . . .
37.2(32) . . .
43.7(34) . . .
32.7(29) . . .
40(4) . . .
32.9(30) . . .
31.1(29) . . .
36.8(31) . . .
34.7(30) . . .
41.2(35) . . .
37.5(34) . . .
38.4(34) . . .
40.9(33) . . .
37.7(33) . . .
34.2(32) . . .
35.0(32) . . .
38.0(32) . . .
34.2(31) . . .
34.9(31) . . .
37.3(33) . . .
32.9(30) . . .
28.5(28) . . .
28.5(28) . . .
35.7(34) . . .
31.6(32) . . .
32.7(31) . . .
41.1(33) . . .
39.3(33) . . .
31.1(29) . . .
31.0(32) . . .
36.2(33) . . .
36.9(31) . . .
35.8(32) . . .
35.2(32) . . .
32.4(30) . . .
40.3(35) . . .
37.7(31) . . .
35.0(31) . . .
38.2(34) . . .
24.6(28) . . .
30.5(29) . . .
35.5(31) . . .
30.5(29) . . .
27.9(29) . . .
34.8(32) . . .
35.2(32) . . .
34.9(31) . . .
38.1(32) . . .
34.2(32) . . .
44(4) . . .
34.6(30) . . .
32.3(30) . . .
32.3(30) . . .
32.7(30) . . .
30.4(31) . . .
32.3(31) . . .
38.8(33) . . .
33.6(31) . . .
34.0(33) . . .
29.0(30) . . .
33.9(32) . . .
34.6(31) . . .
41.7(34) . . .
35.6(33) . . .
20.2(25) . . .
39.1(33) . . .
41.5(34) . . .
39.4(33) . . .
46(4) . . .
40(4) . . .
39.1(34) . . .
42.6(34) . . .
33.4(31) . . .
34.3(31) . . .
39.6(34) . . .
33.7(31) . . .
38.0(32) . . .
43(4) . . .
37.5(33) . . .
31.8(30) . . .
36.0(32) . . .
31.1(29) . . .
30.6(30) . . .
38(4) . . .
31.7(30) . . .
34.9(32) . . .
32.7(30) . . .
32.4(31) . . .
25.1(27) . . .
32.9(31) . . .
30.0(29) . . .
32.2(30) . . .
33.5(30) . . .
38.1(34) . . .
34.7(32) . . .
29.6(29) . . .
31.2(30) . . .
44(4) . . .
41(4) . . .
31.4(29) . . .
39.9(33) . . .
30.8(29) . . .
26.6(27) . . .
30.8(31) . . .
30.7(29) . . .
40.7(33) . . .
40.3(33) . . .
35.0(31) . . .
26.4(26) . . .
38.7(34) . . .
38.3(33) . . .
42(4) . . .
43(4) . . .
32.3(31) . . .
43(4) . . .
33.1(30) . . .
37.6(33) . . .
40(4) . . .
36.8(31) . . .
43(4) . . .
39.3(33) . . .
35.4(32) . . .
35.7(32) . . .
38.1(34) . . .
35.4(32) . . .
42.6(34) . . .
38.8(34) . . .
37.2(33) . . .
43(4) . . .
35.0(31) . . .
39.0(32) . . .
26.5(27) . . .
34.8(33) . . .
32.7(30) . . .
30.1(29) . . .
32.1(30) . . .
36.0(32) . . .
46(4) . . .
38.3(32) . . .
41.6(33) . . .
38.0(32) . . .
39.5(33) . . .
37.3(34) . . .
39.4(35) . . .
43.3(34) . . .
34.2(30) . . .
37(4) . . .
29.4(30) . . .
38.3(34) . . .
28.3(28) . . .
40.7(35) . . .
33.2(31) . . .
29.5(29) . . .
38.9(33) . . .
28.9(30) . . .
36.4(32) . . .
36.0(33) . . .
43(4) . . .
41.5(35) . . .
32.5(30) . . .
31.6(30) . . .
42(4) . . .
33.7(30) . . .
38.4(33) . . .
31.5(29) . . .
24.9(26) . . .
34.7(32) . . .
39.5(34) . . .
35.1(31) . . .
37.3(32) . . .
35.4(32) . . .
40.0(34) . . .
28.5(28) . . .
31.8(30) . . .
31.6(30) . . .
31.7(30) . . .
36.3(32) . . .
34.6(32) . . .
42.0(34) . . .
31.9(30) . . .
34.8(32) . . .
44(4) . . .
35.8(32) . . .
41.7(34) . . .
45.2(35) . . .
38.8(34) . . .
42(4) . . .
38.1(33) . . .
40.6(33) . . .
32.8(30) . . .
47(4) . . .
35.2(31) . . .
33.1(32) . . .
28.2(27) . . .
30.3(30) . . .
29.6(30) . . .
31.1(32) . . .
26.2(27) . . .
35.6(31) . . .
35.0(31) . . .
33.4(31) . . .
36.3(34) . . .
41.3(34) . . .
39.9(32) . . .
28.7(28) . . .
37.2(33) . . .
46(4) . . .
44(4) . . .
38.8(33) . . .
40.3(33) . . .
39.7(34) . . .
35.8(31) . . .
36.9(33) . . .
34.9(30) . . .
34.5(31) . . .
34.6(31) . . .
40.1(35) . . .
45(4) . . .
39.6(34) . . .
33.3(30) . . .
39(4) . . .
30.7(30) . . .
43.2(35) . . .
35.8(31) . . .
40.4(33) . . .
43.3(35) . . .
36.8(32) . . .
42.3(34) . . .
34.7(31) . . .
40.0(33) . . .
39.3(35) . . .
41(4) . . .
40.4(34) . . .
45.9(35) . . .
35.7(32) . . .
35.0(34) . . .
33.7(31) . . .
32.5(29) . . .
39.8(33) . . .
38.1(32) . . .
40.8(33) . . .
41.1(32) . . .
30.9(29) . . .
32.0(29) . . .
32.5(30) . . .
28.0(30) . . .
27.7(30) . . .
37.6(32) . . .
33.5(31) . . .
31.7(31) . . .
32.5(33) . . .
34.9(32) . . .
46.0(35) . . .
45(4) . . .
29.9(29) . . .
32.0(33) . . .
29.8(29) . . .
37.9(32) . . .
36.5(35) . . .
34.8(34) . . .
41(4) . . .
38.4(32) . . .
36.2(32) . . .
38.6(34) . . .
29.7(29) . . .
35.8(34) . . .
38.7(33) . . .
33.2(31) . . .
28.8(29) . . .
38(4) . . .
38.7(34) . . .
39.6(33) . . .
35.2(31) . . .
39.0(35) . . .
40.8(34) . . .
33.5(30) . . .
40.4(35) . . .
42.4(34) . . .
36.7(32) . . .
26.1(27) . . .
24.2(27) . . .
31.3(29) . . .
36.7(33) . . .
24.4(26) . . .
36(4) . . .
35.7(32) . . .
33.3(30) . . .
42.3(34) . . .
35.4(35) . . .
34.5(34) . . .
36.7(31) . . .
41.2(34) . . .
41(4) . . .
42.0(34) . . .
33.4(32) . . .
34.8(32) . . .
46.7(35) . . .
36.9(34) . . .
33.6(32) . . .
41(4) . . .
40.2(34) . . .
37.4(32) . . .
36.0(32) . . .
32.5(31) . . .
37.5(34) . . .
34.3(32) . . .
33.2(30) . . .
28.3(27) . . .
28.4(28) . . .
37.6(33) . . .
42(4) . . .
33.7(31) . . .
35.8(31) . . .
38.4(34) . . .
30.5(30) . . .
34.5(32) . . .
38.5(33) . . .
41.1(34) . . .
42(4) . . .
36.4(32) . . .
31.0(29) . . .
28.1(28) . . .
37.5(34) . . .
35.6(32) . . .
44(4) . . .
47(4) . . .
35.2(31) . . .
40.0(33) . . .
41(4) . . .
33.8(30) . . .
36.2(31) . . .
36.4(31) . . .
39.2(34) . . .
43(4) . . .
36.0(33) . . .
34.4(31) . . .
47(4) . . .
41.8(34) . . .
35.0(32) . . .
31.0(28) . . .
37.3(32) . . .
36.3(31) . . .
32.0(29) . . .
41(4) . . .
32.3(30) . . .
35.3(31) . . .
37.9(31) . . .
38.2(35) . . .
38.8(35) . . .
45(4) . . .
33.6(30) . . .
41.5(33) . . .
33.1(31) . . .
36.5(34) . . .
35.8(33) . . .
29.3(28) . . .
30.0(31) . . .
29.7(31) . . .
26.3(28) . . .
31.0(31) . . .
30.2(29) . . .
28.4(28) . . .
37.8(32) . . .
44(4) . . .
35.8(32) . . .
35.8(30) . . .
39(4) . . .
36.7(31) . . .
40.9(34) . . .
37.1(33) . . .
33.3(30) . . .
34.4(32) . . .
31.1(29) . . .
29.4(28) . . .
33.4(30) . . .
44.2(35) . . .
43(4) . . .
36.2(34) . . .
37.0(34) . . .
33.6(31) . . .
26.9(27) . . .
32.9(30) . . .
36.8(33) . . .
28.2(27) . . .
32.5(30) . . .
40.3(32) . . .
38.3(33) . . .
36(4) . . .
26.9(28) . . .
41.8(34) . . .
36.0(32) . . .
31.1(29) . . .
31.8(33) . . .
30.1(30) . . .
39.5(33) . . .
34.4(31) . . .
32.9(31) . . .
36.4(34) . . .
39.5(34) . . .
29.0(28) . . .
34.7(30) . . .
34.2(31) . . .
36.5(35) . . .
25.6(27) . . .
25.5(26) . . .
33.6(30) . . .
40.8(33) . . .
33.1(29) . . .
27.4(27) . . .
32.1(29) . . .
35.7(31) . . .
44(4) . . .
30.8(31) . . .
29.8(29) . . .
31.2(29) . . .
36.4(32) . . .
30.9(28) . . .
36.2(35) . . .
23.1(27) . . .
34.4(30) . . .
31.3(29) . . .
42(4) . . .
30.9(29) . . .
36.9(32) . . .
38.6(32) . . .
37.5(33) . . .
40(4) . . .
34.9(32) . . .
29.0(28) . . .
29.3(28) . . .
30.4(28) . . .
36.5(33) . . .
37.2(32) . . .
38.1(33) . . .
33.3(30) . . .
37.8(33) . . .
33.2(33) . . .
28.9(29) . . .
41.0(33) . . .
31.4(29) . . .
37.5(34) . . .
39(4) . . .
34.0(30) . . .
37.1(32) . . .
35.9(32) . . .
34.7(32) . . .
34.8(34) . . .
30.5(29) . . .
44.9(35) . . .
40.2(33) . . .
35.5(32) . . .
41(4) . . .
34.5(31) . . .
29.3(28) . . .
28.9(29) . . .
47(4) . . .
43(4) . . .
33.3(32) . . .
43.0(34) . . .
40.6(33) . . .
41(4) . . .
25.8(27) . . .
30.6(29) . . .
36.3(32) . . .
33.2(30) . . .
39.2(34) . . .
31.5(31) . . .
34.5(30) . . .
39.6(33) . . .
37.7(33) . . .
41(4) . . .
40.1(35) . . .
33.1(31) . . .
44.4(34) . . .
33.3(30) . . .
36.3(34) . . .
37.3(33) . . .
39.3(33) . . .
30.7(29) . . .
38.9(34) . . .
36.4(32) . . .
31.5(29) . . .
33.0(30) . . .
32.0(29) . . .
43.2(35) . . .
45(4) . . .
32.9(31) . . .
35.3(31) . . .
52(4) . . .
39.2(34) . . .
35.7(35) . . .
28.5(28) . . .
33.2(30) . . .
36.7(31) . . .
37.7(33) . . .
37.8(34) . . .
36.7(32) . . .
32.1(30) . . .
30.9(29) . . .
24.1(27) . . .
36.3(34) . . .
37.4(34) . . .
28.2(27) . . .
39.3(33) . . .
32.8(31) . . .
28.6(31) . . .
30.4(32) . . .
32.1(30) . . .
37.3(33) . . .
36.8(32) . . .
38.4(33) . . .
31.7(29) . . .
38.7(33) . . .
42.4(35) . . .
34.7(31) . . .
35.3(33) . . .
30.6(31) . . .
27.4(28) . . .
37.4(34) . . .
34.7(32) . . .
37.6(32) . . .
35.5(31) . . .
37.2(32) . . .
38.3(34) . . .
35.0(32) . . .
30.8(29) . . .
41.6(34) . . .
39.6(33) . . .
35.4(31) . . .
38.7(34) . . .
31.0(30) . . .
27.2(27) . . .
32.5(30) . . .
29.9(31) . . .
34.3(33) . . .
38.4(32) . . .
36.8(33) . . .
37.4(33) . . .
34.8(31) . . .
39(4) . . .
24.5(26) . . .
31.6(29) . . .
30.9(29) . . .
39.0(34) . . .
41(4) . . .
39.3(33) . . .
41.1(33) . . .
37.7(33) . . .
34.9(31) . . .
34.8(34) . . .
33.2(31) . . .
38.0(32) . . .
42.6(35) . . .
37.2(34) . . .
33.2(33) . . .
37.5(33) . . .
36.0(32) . . .
38.7(32) . . .
35.3(31) . . .
36.9(32) . . .
31.6(30) . . .
45(4) . . .
30.4(28) . . .
27.5(29) . . .
30.2(29) . . .
39.3(33) . . .
35.5(31) . . .
32.5(30) . . .
36.6(34) . . .
39.1(33) . . .
43.9(34) . . .
40.5(33) . . .
41.9(34) . . .
31.7(29) . . .
36.6(32) . . .
39.4(33) . . .
35.5(31) . . .
33.7(30) . . .
33.5(32) . . .
33.6(32) . . .
46(4) . . .
34.3(31) . . .
35.6(31) . . .
38.2(34) . . .
34.2(30) . . .
39.0(33) . . .
44.1(35) . . .
35.1(33) . . .
31.5(32) . . .
35.1(31) . . .
41.7(34) . . .
42.8(34) . . .
33.9(31) . . .
35.3(32) . . .
44(4) . . .
40.6(33) . . .
41.2(33) . . .
26.7(27) . . .
34.0(34) . . .
38.9(33) . . .
34.6(31) . . .
37.0(32) . . .
31.3(31) . . .
42(4) . . .
40.2(35) . . .
40.8(34) . . .
32.4(29) . . .
44(4) . . .
35.9(32) . . .
38.0(33) . . .
37.8(32) . . .
31.5(29) . . .
33.9(31) . . .
28.5(29) . . .
36.7(32) . . .
32.6(30) . . .
33.6(31) . . .
31.3(30) . . .
34.9(31) . . .
38.5(32) . . .
36.4(31) . . .
37.0(32) . . .
35.4(32) . . .
40.6(35) . . .
41.5(34) . . .
36.4(31) . . .
36.0(33) . . .
48(4) . . .
40.9(34) . . .
35.3(31) . . .
32.0(29) . . .
31.7(30) . . .
31.3(31) . . .
33.4(32) . . .
34.8(30) . . .
33.8(31) . . .
31.7(31) . . .
23.8(30) . . .
24.1(27) . . .
29.3(28) . . .
45.0(35) . . .
42.7(34) . . .
38.4(35) . . .
38.1(34) . . .
37.3(33) . . .
36.9(31) . . .
36.2(35) . . .
36.5(34) . . .
33.1(33) . . .
36.6(32) . . .
38.2(32) . . .
35.7(31) . . .
38(4) . . .
37.6(34) . . .
34.8(31) . . .
28.4(28) . . .
27.1(28) . . .
29.6(30) . . .
34.7(32) . . .
35.0(31) . . .
35.0(33) . . .
42(4) . . .
35.8(32) . . .
34.8(32) . . .
33.4(30) . . .
32.1(29) . . .
35.9(32) . . .
34.4(31) . . .
36.7(33) . . .
34.7(31) . . .
37.9(32) . . .
32.4(30) . . .
39(4) . . .
36.0(32) . . .
31.4(29) . . .
38.4(34) . . .
36.1(33) . . .
27.1(28) . . .
37.3(33) . . .
45.0(35) . . .
30.8(29) . . .
39(4) . . .
37.4(33) . . .
45.2(35) . . .
44.8(35) . . .
42.8(34) . . .
35.3(31) . . .
30.0(28) . . .
40.7(33) . . .
36.3(31) . . .
38.8(33) . . .
34.8(32) . . .
30.1(29) . . .
39.1(33) . . .
47(4) . . .
29.7(28) . . .
34.0(33) . . .
34.9(31) . . .
31.4(29) . . .
25.7(27) . . .
31.2(29) . . .
41(4) . . .
39.5(34) . . .
32.8(30) . . .
35.5(32) . . .
37.8(35) . . .
35.1(32) . . .
35.2(33) . . .
28.3(28) . . .
29.5(29) . . .
33.8(32) . . .
38.3(34) . . .
40.1(35) . . .
31.4(30) . . .
30.8(29) . . .
38.1(34) . . .
36.9(33) . . .
31.5(29) . . .
40.8(33) . . .
35.9(34) . . .
35.8(33) . . .
36.6(34) . . .
29.4(29) . . .
33.4(31) . . .
29.9(29) . . .
39.2(34) . . .
34.8(33) . . .
34.7(31) . . .
32.6(30) . . .
34.5(32) . . .
42(4) . . .
33.2(32) . . .
31.8(29) . . .
32.5(29) . . .
37.7(33) . . .
38.0(34) . . .
36.9(34) . . .
28.6(29) . . .
35.6(31) . . .
28.3(27) . . .
31.5(32) . . .
29.2(32) . . .
46(4) . . .
34.7(30) . . .
30.9(29) . . .
38(4) . . .
39.0(34) . . .
36.5(31) . . .
30.0(29) . . .
30.8(29) . . .
30.5(31) . . .
38.5(33) . . .
43.7(34) . . .
37.0(32) . . .
27.3(28) . . .
27.2(29) . . .
34.4(31) . . .
45.5(34) . . .
35.2(33) . . .
30.6(29) . . .
32.2(31) . . .
36.9(34) . . .
26.3(27) . . .
40.2(33) . . .
33.2(30) . . .
33.8(31) . . .
39.2(33) . . .
32.0(30) . . .
32.8(33) . . .
35.7(32) . . .
41.7(34) . . .
32.9(30) . . .
35.0(30) . . .
35.2(31) . . .
36.2(33) . . .
38.6(34) . . .
38.2(33) . . .
30.5(29) . . .
37.8(32) . . .
36.2(35) . . .
33.1(34) . . .
31.8(30) . . .
36.5(32) . . .
29.6(31) . . .
36(4) . . .
30.9(30) . . .
33.2(30) . . .
37.0(32) . . .
38.8(32) . . .
42(4) . . .
26.1(30) . . .
31.8(30) . . .
30.6(28) . . .
41(4) . . .
23.1(26) . . .
31.9(30) . . .
33.1(30) . . .
36.5(32) . . .
35.4(31) . . .
37.1(35) . . .
33.8(31) . . .
41.5(34) . . .
41.5(33) . . .
30.8(28) . . .
37.0(33) . . .
42.2(35) . . .
25.5(27) . . .
36.1(31) . . .
33.9(31) . . .
39.2(34) . . .
41.5(34) . . .
29.1(28) . . .
31.4(29) . . .
36.1(34) . . .
38(4) . . .
36.7(32) . . .
47(4) . . .
32.5(32) . . .
36.8(35) . . .
35.5(34) . . .
32.8(32) . . .
36.8(32) . . .
39.6(33) . . .
37.0(32) . . .
28.1(27) . . .
32.1(30) . . .
31.1(30) . . .
34.2(31) . . .
30.0(29) . . .
33.8(31) . . .
46(4) . . .
37.4(31) . . .
31.6(30) . . .
40(4) . . .
31.4(29) . . .
34.0(31) . . .
33.0(30) . . .
34.5(31) . . .
34.4(32) . . .
35.8(32) . . .
32.6(30) . . .
36.7(31) . . .
41(4) . . .
33.1(31) . . .
28.3(28) . . .
38.9(32) . . .
33.6(31) . . .
34.3(33) . . .
28.6(29) . . .
31.8(30) . . .
31.3(29) . . .
37.0(32) . . .
43(4) . . .
37.6(33) . . .
39.0(33) . . .
41.8(34) . . .
29.2(28) . . .
31.1(31) . . .
33.7(33) . . .
45(4) . . .
35.4(31) . . .
36.7(32) . . .
31.5(30) . . .
31.0(31) . . .
33.2(31) . . .
35.2(31) . . .
37.9(33) . . .
40.7(35) . . .
30.1(30) . . .
32.5(31) . . .
32.4(30) . . .
34.5(32) . . .
31.9(32) . . .
37.6(32) . . .
35.0(31) . . .
37.7(32) . . .
34.5(31) . . .
32.6(30) . . .
35.2(32) . . .
42.1(34) . . .
34.2(31) . . .
36.2(34) . . .
33.7(31) . . .
38.4(35) . . .
36.0(32) . . .
37.0(32) . . .
43(4) . . .
37.0(34) . . .
36(4) . . .
33.5(30) . . .
33.9(30) . . .
36.7(33) . . .
32.0(33) . . .
39.8(33) . . .
35.8(31) . . .
29.2(29) . . .
27.0(29) . . .
35(4) . . .
31.2(31) . . .
31.6(29) . . .
41.0(33) . . .
38.5(32) . . .
36.9(34) . . .
32.9(30) . . .
37.1(32) . . .
37.8(32) . . .
33.9(32) . . .
34.2(32) . . .
31.4(30) . . .
32.3(29) . . .
37.3(32) . . .
39.3(33) . . .
39.4(33) . . .
33.8(31) . . .
41.4(33) . . .
40.3(34) . . .
33.7(31) . . .
33.0(31) . . .
25.3(26) . . .
34.0(30) . . .
36.4(31) . . .
37.9(34) . . .
24.9(26) . . .
38.8(34) . . .
35.5(31) . . .
35.3(33) . . .
37.3(33) . . .
32.3(28) . . .
37.0(31) . . .
33.6(30) . . .
31.9(32) . . .
36(4) . . .
34.4(32) . . .
40.0(33) . . .
35.9(31) . . .
34.2(31) . . .
33.4(33) . . .
43(4) . . .
29.9(28) . . .
36.2(31) . . .
39(4) . . .
25.9(28) . . .
42(4) . . .
31.6(30) . . .
42.1(34) . . .
32.6(30) . . .
37.5(34) . . .
31.4(29) . . .
28.8(28) . . .
35.7(32) . . .
39.2(33) . . .
37.3(34) . . .
28.4(28) . . .
42.7(34) . . .
32.4(31) . . .
38(4) . . .
26.7(29) . . .
27.6(28) . . .
42.1(34) . . .
35.3(31) . . .
34.4(31) . . .
33.6(31) . . .
34.7(31) . . .
28.2(28) . . .
24.1(27) . . .
35.3(34) . . .
35.3(32) . . .
38.9(33) . . .
30.4(30) . . .
32.5(30) . . .
36.9(35) . . .
31.3(30) . . .
47(4) . . .
35.4(31) . . .
33.5(31) . . .
29.9(28) . . .
35.9(32) . . .
37.8(32) . . .
32.8(31) . . .
36.1(32) . . .
32.8(30) . . .
38.8(32) . . .
35.5(31) . . .
36.2(31) . . .
39.9(34) . . .
35.9(32) . . .
35.0(32) . . .
35.7(31) . . .
33.3(29) . . .
29.9(29) . . .
34.9(34) . . .
39.4(33) . . .
40.8(33) . . .
43.2(35) . . .
38(4) . . .
42(4) . . .
40(4) . . .
35.1(31) . . .
32.5(29) . . .
36.5(33) . . .
34.8(33) . . .
29.8(28) . . .
36.4(31) . . .
36.0(33) . . .
33.8(31) . . .
26.9(28) . . .
32.7(33) . . .
39.3(32) . . .
44(4) . . .
39.2(35) . . .
39.5(35) . . .
42(4) . . .
40.7(34) . . .
32.7(30) . . .
41.0(34) . . .
41.6(35) . . .
36.3(31) . . .
34.7(30) . . .
31.1(29) . . .
30.1(29) . . .
31.3(31) . . .
31.4(30) . . .
28.4(28) . . .
36.7(34) . . .
37.4(33) . . .
37.9(34) . . .
29.5(28) . . .
44.6(35) . . .
33.9(31) . . .
47(4) . . .
35.8(31) . . .
34.1(31) . . .
51(4) . . .
27.2(28) . . .
37.8(35) . . .
31.9(30) . . .
32.3(29) . . .
25.1(27) . . .
28.6(28) . . .
37.3(33) . . .
39.5(34) . . .
35.7(31) . . .
40.2(33) . . .
37.5(35) . . .
32.8(32) . . .
28.8(30) . . .
34.4(30) . . .
28.2(27) . . .
46(4) . . .
43(4) . . .
34.8(32) . . .
38.1(32) . . .
35.7(31) . . .
31.4(31) . . .
36.9(35) . . .
31.4(29) . . .
34.2(30) . . .
39.0(32) . . .
34.8(31) . . .
34.6(32) . . .
34.3(33) . . .
35.1(31) . . .
38.2(33) . . .
38.5(34) . . .
32.0(33) . . .
39.8(35) . . .
39.9(32) . . .
41.6(35) . . .
31.2(29) . . .
29.1(28) . . .
37.9(35) . . .
40.7(33) . . .
36.6(32) . . .
37(4) . . .
39(4) . . .
25.9(28) . . .
33.2(30) . . .
33.2(31) . . .
33.2(31) . . .
31.6(31) . . .
33.2(32) . . .
37.0(32) . . .
31.9(30) . . .
30.6(31) . . .
32.2(32) . . .
33.8(30) . . .
30.7(29) . . .
37.9(34) . . .
34.5(34) . . .
37.5(33) . . .
32.6(30) . . .
40.6(34) . . .
35.6(33) . . .
26.7(28) . . .
39(4) . . .
29.0(28) . . .
34.8(30) . . .
27.7(28) . . .
35.3(34) . . .
33.4(31) . . .
36.2(32) . . .
39.6(32) . . .
34.0(34) . . .
37.2(34) . . .
43(4) . . .
33.7(30) . . .
32.1(30) . . .
26.2(26) . . .
37.1(32) . . .
42(4) . . .
34.9(32) . . .
29.5(29) . . .
36.9(35) . . .
31.3(33) . . .
29.4(29) . . .
42.5(34) . . .
29.4(29) . . .
32.0(33) . . .
29.7(30) . . .
37.1(35) . . .
32.5(29) . . .
38.6(32) . . .
36.0(32) . . .
30.6(30) . . .
40.7(33) . . .
34.9(30) . . .
39(4) . . .
36.1(31) . . .
42(4) . . .
33.4(31) . . .
34.1(30) . . .
35.3(33) . . .
32.2(33) . . .
31.8(31) . . .
27.1(27) . . .
35.6(31) . . .
43(4) . . .
31.1(31) . . .
34.1(32) . . .
33.9(30) . . .
33.2(30) . . .
46(4) . . .
35.2(32) . . .
36.6(32) . . .
32.0(30) . . .
43.2(34) . . .
37.6(33) . . .
39(4) . . .
37.4(32) . . .
43.2(34) . . .
45.3(35) . . .
35.6(33) . . .
39(4) . . .
31.4(30) . . .
41.7(33) . . .
33.0(32) . . .
37.8(32) . . .
38.5(35) . . .
24.3(25) . . .
34.1(30) . . .
35.3(33) . . .
37.6(33) . . .
40(4) . . .
27.3(29) . . .
24.9(26) . . .
27.3(27) . . .
30.3(32) . . .
29.4(30) . . .
36.1(32) . . .
29.7(29) . . .
28.3(28) . . .
37.7(34) . . .
38.4(32) . . .
35.0(30) . . .
37.2(32) . . .
29.4(29) . . .
39.1(34) . . .
34.6(32) . . .
35.6(32) . . .
30.3(29) . . .
31.1(31) . . .
36.3(32) . . .
42.5(34) . . .
29.3(28) . . .
37.2(32) . . .
29.7(28) . . .
32.3(30) . . .
42.3(34) . . .
45(4) . . .
36.5(31) . . .
37.8(32) . . .
37.3(34) . . .
34.0(31) . . .
40.2(33) . . .
37.2(32) . . .
18.0(22) . . .
35.4(34) . . .
35.9(31) . . .
48(4) . . .
34.3(30) . . .
39.6(34) . . .
37(4) . . .
36.6(33) . . .
35.7(31) . . .
38.0(33) . . .
29.0(28) . . .
40(4) . . .
38.4(33) . . .
31.7(30) . . .
35.2(31) . . .
27.2(28) . . .
30.2(30) . . .
41(4) . . .
38.9(32) . . .
38.8(34) . . .
40(4) . . .
31.3(30) . . .
39(4) . . .
37.7(32) . . .
29.4(29) . . .
35.3(32) . . .
29.1(28) . . .
31.8(30) . . .
28.3(28) . . .
41(4) . . .
37.4(33) . . .
39.3(34) . . .
40.9(33) . . .
35.3(31) . . .
34.1(31) . . .
34.0(32) . . .
39.2(34) . . .
38.1(34) . . .
41.6(33) . . .
36.6(33) . . .
34.8(33) . . .
36.0(33) . . .
32.1(30) . . .
37.2(32) . . .
32.1(33) . . .
33.1(33) . . .
32.2(31) . . .
37.4(33) . . .
35.6(31) . . .
38.2(34) . . .
37.7(35) . . .
26.6(26) . . .
38.3(33) . . .
43.1(35) . . .
35.4(33) . . .
35.1(33) . . .
34.2(32) . . .
39.8(33) . . .
35.1(32) . . .
32.9(32) . . .
29.9(29) . . .
32.8(31) . . .
29.4(28) . . .
33.0(30) . . .
36.1(34) . . .
33.7(33) . . .
35.1(32) . . .
34.3(30) . . .
43.8(34) . . .
33.9(32) . . .
33.8(31) . . .
44(4) . . .
30.3(29) . . .
39.9(34) . . .
34.8(32) . . .
41(4) . . .
32.4(31) . . .
20.8(24) . . .
26.5(30) . . .
39.8(34) . . .
44.1(35) . . .
43.5(34) . . .
34.5(31) . . .
45(4) . . .
35.5(31) . . .
51(4) . . .
35.3(32) . . .
44.9(35) . . .
32.9(30) . . .
36.2(33) . . .
33.8(32) . . .
34.3(32) . . .
43.2(35) . . .
36.4(33) . . .
33.5(32) . . .
33.5(31) . . .
38.7(32) . . .
30.2(29) . . .
30.2(29) . . .
35.5(33) . . .
28.7(28) . . .
33.6(31) . . .
32.0(30) . . .
37.4(33) . . .
37.4(35) . . .
32.8(30) . . .
30.4(29) . . .
38.2(32) . . .
37.7(33) . . .
41.3(35) . . .
35.2(32) . . .
44.1(34) . . .
40(4) . . .
29.5(30) . . .
36.8(33) . . .
43(4) . . .
41.7(34) . . .
38.0(34) . . .
36.1(34) . . .
33.3(32) . . .
34.8(32) . . .
34.2(31) . . .
33.8(33) . . .
41(4) . . .
52(4) . . .
31.3(30) . . .
41.9(34) . . .
33.1(30) . . .
44(4) . . .
33.7(30) . . .
44(4) . . .
40.8(33) . . .
37.7(32) . . .
25.5(26) . . .
31.3(30) . . .
35.9(31) . . .
32.9(30) . . .
34.8(32) . . .
28.2(28) . . .
38.0(34) . . .
38.5(34) . . .
39.5(32) . . .
28.9(28) . . .
35.3(34) . . .
32.0(30) . . .
43.5(35) . . .
31.4(29) . . .
40.7(34) . . .
41.0(34) . . .
41.2(33) . . .
33.2(30) . . .
35.9(31) . . .
38.5(32) . . .
34.2(32) . . .
37.6(32) . . .
37.0(32) . . .
37.0(31) . . .
38.9(32) . . .
35.0(31) . . .
33.7(31) . . .
24.9(26) . . .
32.7(30) . . .
35.5(31) . . .
38.0(33) . . .
39.7(35) . . .
30.9(29) . . .
39.6(33) . . .
38.5(33) . . .
42.4(35) . . .
40.0(34) . . .
43(4) . . .
37.1(33) . . .
34.9(33) . . .
31.8(31) . . .
29.8(31) . . .
28.0(28) . . .
33.8(31) . . .
33.1(32) . . .
41(4) . . .
35.5(31) . . .
32.1(30) . . .
29.4(28) . . .
36.0(34) . . .
36.0(32) . . .
45(4) . . .
32.1(30) . . .
33.6(31) . . .
34.1(30) . . .
40.1(33) . . .
34.9(31) . . .
31.8(29) . . .
37.3(34) . . .
39(4) . . .
33.9(32) . . .
44(4) . . .
30.9(29) . . .
26.4(27) . . .
31.7(33) . . .
33.3(32) . . .
38.9(33) . . .
28.1(28) . . .
37.5(33) . . .
39.5(34) . . .
33.5(30) . . .
35.3(32) . . .
34.0(30) . . .
36.9(32) . . .
42(4) . . .
40.0(34) . . .
29.7(29) . . .
31.3(30) . . .
33.0(30) . . .
33.5(30) . . .
43(4) . . .
35.7(31) . . .
32.1(30) . . .
37(4) . . .
26.2(28) . . .
36.0(32) . . .
36.4(31) . . .
34.5(31) . . .
33.9(32) . . .
35.6(34) . . .
34.4(31) . . .
42.5(34) . . .
30.8(31) . . .
40(4) . . .
33.8(31) . . .
42.0(34) . . .
43.7(35) . . .
34.1(32) . . .
35.6(35) . . .
37.0(33) . . .
38.1(32) . . .
35.5(31) . . .
38.0(34) . . .
32.8(32) . . .
31.9(31) . . .
35.8(31) . . .
30.6(29) . . .
35.6(31) . . .
37.5(34) . . .
38.8(34) . . .
35.3(31) . . .
27.0(27) . . .
34.0(32) . . .
33.7(32) . . .
33.8(32) . . .
38.0(33) . . .
37.8(31) . . .
46(4) . . .
32.8(34) . . .
35.8(32) . . .
38.3(32) . . .
33.2(30) . . .
35.7(33) . . .
30.1(30) . . .
38.0(34) . . .
32.9(30) . . .
30.9(29) . . .
33.8(31) . . .
37(4) . . .
30.5(30) . . .
33.0(30) . . .
38.9(34) . . .
29.4(30) . . .
38(4) . . .
28.5(29) . . .
31.6(30) . . .
31.0(29) . . .
29.1(30) . . .
29.5(29) . . .
35.2(33) . . .
39.2(32) . . .
37.5(32) . . .
36.3(33) . . .
41(4) . . .
43.8(35) . . .
32.1(31) . . .
41(4) . . .
34.7(33) . . .
38.2(34) . . .
24.9(26) . . .
36.2(31) . . .
39.3(33) . . .
34.3(31) . . .
30.7(31) . . .
35.7(33) . . .
30.9(29) . . .
36.0(34) . . .
39.9(35) . . .
33.6(31) . . .
24.2(26) . . .
39.0(33) . . .
39.9(33) . . .
37.9(33) . . .
35.9(32) . . .
39.6(33) . . .
37.8(32) . . .
32.8(31) . . .
51(4) . . .
30.1(31) . . .
32.0(30) . . .
28.5(29) . . .
31.7(31) . . .
27.1(27) . . .
43(4) . . .
27.7(27) . . .
25.6(26) . . .
30.2(29) . . .
38(4) . . .
33.4(30) . . .
27.4(28) . . .
34.5(31) . . .
38.5(33) . . .
34.8(32) . . .
34.7(30) . . .
39.1(33) . . .
38.9(32) . . .
27.9(28) . . .
27.7(29) . . .
30.6(30) . . .
40.3(34) . . .
32.3(31) . . .
36.8(33) . . .
35.3(32) . . .
37.8(33) . . .
26.7(27) . . .
29.8(30) . . .
28.1(28) . . .
36.5(34) . . .
40.5(34) . . .
30.0(28) . . .
38.7(33) . . .
36.3(32) . . .
33.7(31) . . .
28.1(28) . . .
26.9(27) . . .
30.4(29) . . .
30.5(30) . . .
36.0(33) . . .
38.3(33) . . .
42.6(34) . . .
29.3(29) . . .
33.0(33) . . .
31.9(31) . . .
34.6(32) . . .
31.2(28) . . .
30.5(30) . . .
38(4) . . .
36.0(31) . . .
40.8(34) . . .
43.6(34) . . .
33.4(31) . . .
34.4(33) . . .
30.4(29) . . .
39.4(33) . . .
33.8(31) . . .
32.9(31) . . .
41(4) . . .
34.5(32) . . .
35.8(31) . . .
37.2(33) . . .
29.4(31) . . .
30.8(31) . . .
36.9(32) . . .
36.5(31) . . .
33.4(30) . . .
32.5(32) . . .
39(4) . . .
49(4) . . .
41.4(35) . . .
31.6(31) . . .
36.3(33) . . .
31.1(29) . . .
31.2(29) . . .
33.7(30) . . .
35.4(31) . . .
28.4(29) . . .
32.2(31) . . .
32.5(33) . . .
53(4) . . .
33.0(30) . . .
30.6(30) . . .
43(4) . . .
38.9(33) . . .
36.4(32) . . .
41.3(34) . . .
34.6(31) . . .
27.7(29) . . .
34.2(31) . . .
30.0(28) . . .
35.6(32) . . .
40.5(35) . . .
46(4) . . .
40.0(34) . . .
34.1(30) . . .
33.0(32) . . .
34(4) . . .
32.3(29) . . .
34.8(31) . . .
36.0(32) . . .
33.3(31) . . .
36(4) . . .
30.2(29) . . .
37.8(32) . . .
31.9(30) . . .
35.6(32) . . .
30.3(30) . . .
44(4) . . .
29.1(28) . . .
29.3(29) . . .
35.6(32) . . .
35.9(34) . . .
29.9(30) . . .
45(4) . . .
34.8(30) . . .
33.9(31) . . .
40.1(35) . . .
40(4) . . .
27.0(27) . . .
31.0(32) . . .
33.5(30) . . .
36.7(32) . . .
33.6(33) . . .
30.9(29) . . .
37.2(32) . . .
39.6(34) . . .
35.4(32) . . .
32.8(30) . . .
34.3(31) . . .
38.7(33) . . .
41(4) . . .
33.1(30) . . .
26.0(26) . . .
36.7(32) . . .
28.1(29) . . .
34.4(33) . . .
38.7(35) . . .
32.4(30) . . .
43.7(35) . . .
40.2(34) . . .
24.9(25) . . .
37.5(32) . . .
42.7(35) . . .
38.0(33) . . .
44(4) . . .
34.6(31) . . .
36.4(30) . . .
36.4(31) . . .
36.1(31) . . .
35.0(31) . . .
33.0(31) . . .
28.5(28) . . .
38.4(32) . . .
37.7(33) . . .
29.8(29) . . .
41(4) . . .
36.5(32) . . .
42.2(33) . . .
40.0(34) . . .
39.8(34) . . .
35.0(32) . . .
39.1(34) . . .
40.1(33) . . .
42.0(34) . . .
44.0(35) . . .
41.0(34) . . .
39.3(33) . . .
41.2(33) . . .
39.1(35) . . .
43(4) . . .
37.2(33) . . .
33.5(31) . . .
27.6(28) . . .
35.5(31) . . .
37.4(34) . . .
33.4(31) . . .
32.2(30) . . .
34.0(31) . . .
30.1(30) . . .
39.2(34) . . .
40(4) . . .
24.9(26) . . .
27.6(28) . . .
34.1(32) . . .
32.6(33) . . .
39.5(35) . . .
37.7(32) . . .
36.8(31) . . .
32.6(30) . . .
35.0(31) . . .
43(4) . . .
33.2(30) . . .
30.8(29) . . .
39.8(35) . . .
34.5(34) . . .
34.8(30) . . .
34.7(31) . . .
30.4(29) . . .
30.3(29) . . .
36.5(32) . . .
36.8(32) . . .
43(4) . . .
42.4(34) . . .
31.4(31) . . .
37(4) . . .
37.1(32) . . .
38.3(32) . . .
41.5(34) . . .
36.2(31) . . .
36.1(34) . . .
30.0(29) . . .
37.0(32) . . .
29.6(29) . . .
28.5(29) . . .
41(4) . . .
40.9(34) . . .
38.1(32) . . .
32.2(29) . . .
28.0(27) . . .
33.4(30) . . .
31.1(29) . . .
36.1(31) . . .
34.9(32) . . .
33.7(31) . . .
43(4) . . .
39.5(34) . . .
39.7(33) . . .
40.7(34) . . .
35.6(34) . . .
35.5(34) . . .
35.1(32) . . .
29.7(28) . . .
26.7(27) . . .
43(4) . . .
27.8(27) . . .
41.5(33) . . .
39.0(33) . . .
37.5(35) . . .
27.3(27) . . .
30.9(31) . . .
27.6(28) . . .
33.2(30) . . .
41(4) . . .
33.2(31) . . .
40.8(34) . . .
38.6(32) . . .
33.6(30) . . .
29.8(29) . . .
28.9(28) . . .
34.3(31) . . .
38.1(32) . . .
36.1(32) . . .
35.0(30) . . .
38.6(35) . . .
39.2(34) . . .
48(4) . . .
40.7(33) . . .
34.9(32) . . .
33.2(32) . . .
25.3(26) . . .
33.6(31) . . .
36.2(32) . . .
28.8(28) . . .
37.1(33) . . .
40.5(35) . . .
31.6(29) . . .
34.2(32) . . .
35.8(33) . . .
26.0(27) . . .
33.1(31) . . .
44.2(35) . . .
42.9(34) . . .
38.9(33) . . .
31.2(29) . . .
31.0(29) . . .
34.8(30) . . .
35.1(31) . . .
31.8(29) . . .
35.0(31) . . .
38.6(33) . . .
34.5(31) . . .
40(4) . . .
37.9(35) . . .
34.4(33) . . .
40.8(34) . . .
37.4(32) . . .
31.8(30) . . .
37.7(34) . . .
39.7(35) . . .
33.8(30) . . .
31.6(29) . . .
33.2(30) . . .
34.2(32) . . .
28.1(28) . . .
36.9(32) . . .
39.4(32) . . .
38.5(33) . . .
42(4) . . .
40.0(35) . . .
34.8(32) . . .
38.3(32) . . .
39.9(34) . . .
37.2(35) . . .
29.1(28) . . .
37.4(32) . . .
35.0(31) . . .
38.5(32) . . .
35.0(32) . . .
34.1(31) . . .
41.4(34) . . .
34.0(31) . . .
32.5(32) . . .
26.2(28) . . .
23.2(26) . . .
32.7(30) . . .
38.2(32) . . .
33.5(31) . . .
31.1(30) . . .
36.9(34) . . .
42.4(34) . . .
33.3(30) . . .
42(4) . . .
40(4) . . .
30.5(29) . . .
39.4(33) . . .
40.7(34) . . .
32.5(32) . . .
39(4) . . .
49(4) . . .
48(4) . . .
37.1(33) . . .
33.9(32) . . .
33.7(30) . . .
36.0(32) . . .
35.3(31) . . .
36.0(32) . . .
36.9(33) . . .
36.6(33) . . .
29.6(30) . . .
37.3(32) . . .
29.4(28) . . .
30.2(30) . . .
35.7(32) . . .
35.0(31) . . .
38.7(33) . . .
39.6(35) . . .
30.8(32) . . .
29.9(29) . . .
30.6(29) . . .
31.5(30) . . .
40(4) . . .
30.5(30) . . .
37.1(34) . . .
32.1(29) . . .
41.0(34) . . .
36.1(31) . . .
38(4) . . .
33.3(32) . . .
32.4(30) . . .
32.8(30) . . .
34.2(33) . . .
35.5(34) . . .
33.8(33) . . .
36.7(32) . . .
31.2(30) . . .
28.3(30) . . .
30.9(31) . . .
24.8(28) . . .
33.8(30) . . .
40.8(34) . . .
32.9(32) . . .
37(4) . . .
38.4(34) . . .
39.3(33) . . .
38.0(32) . . .
41.0(35) . . .
35.1(32) . . .
34.0(31) . . .
37.6(32) . . .
28.3(28) . . .
27.7(28) . . .
34.4(33) . . .
27.1(28) . . .
31.3(30) . . .
29.3(32) . . .
37.5(34) . . .
33.1(29) . . .
52(4) . . .
35.0(31) . . .
44(4) . . .
43(4) . . .
29.6(29) . . .
33.1(31) . . .
29.9(29) . . .
34.5(32) . . .
27.0(26) . . .
36.2(33) . . .
27.4(27) . . .
39.3(33) . . .
33.6(33) . . .
37.5(34) . . .
31.8(29) . . .
35.0(31) . . .
33.6(30) . . .
36.6(33) . . .
35.8(33) . . .
38.3(34) . . .
28.2(28) . . .
30.5(29) . . .
36.5(32) . . .
34.9(33) . . .
31.5(29) . . .
32.3(30) . . .
31.2(29) . . .
33.0(31) . . .
41(4) . . .
35.4(35) . . .
26.8(27) . . .
33.5(31) . . .
36.4(32) . . .
43(4) . . .
34.0(31) . . .
35.9(31) . . .
30.0(28) . . .
36.9(34) . . .
35.5(33) . . .
28.8(29) . . .
29.4(29) . . .
36.6(32) . . .
36.0(31) . . .
38.2(35) . . .
32.0(30) . . .
34.8(31) . . .
31.7(32) . . .
29.0(31) . . .
27.6(32) . . .
29.6(29) . . .
34.7(31) . . .
38(4) . . .
40(4) . . .
31.4(29) . . .
42.7(34) . . .
44(4) . . .
40.0(34) . . .
36.9(32) . . .
41.3(33) . . .
33.6(30) . . .
26.6(27) . . .
32.3(30) . . .
33.6(33) . . .
32.9(30) . . .
42.4(34) . . .
32.2(29) . . .
31.8(31) . . .
29.1(32) . . .
33.9(31) . . .
38.3(32) . . .
34.3(30) . . .
36.4(34) . . .
36.5(35) . . .
36.1(32) . . .
32.6(30) . . .
32.9(31) . . .
36.6(34) . . .
37.7(33) . . .
28.7(28) . . .
38.5(33) . . .
28.5(28) . . .
24.6(26) . . .
41(4) . . .
39.2(33) . . .
37.2(32) . . .
23.9(26) . . .
29.0(30) . . .
37.6(33) . . .
32.2(30) . . .
29.4(29) . . .
41.0(34) . . .
31.3(31) . . .
33.8(34) . . .
26.2(27) . . .
29.2(28) . . .
37.6(33) . . .
34.3(31) . . .
32.4(30) . . .
34.3(32) . . .
24.9(26) . . .
30.8(32) . . .
34.0(31) . . .
35.9(32) . . .
38.3(32) . . .
30.1(29) . . .
33.7(32) . . .
28.2(28) . . .
29.8(30) . . .
29.7(29) . . .
37.2(32) . . .
33.3(31) . . .
44(4) . . .
28.8(29) . . .
34.2(31) . . .
32.1(30) . . .
44(4) . . .
38.4(35) . . .
43.1(35) . . .
36.5(31) . . .
35.0(30) . . .
37.4(33) . . .
32.5(32) . . .
33.1(34) . . .
30.0(28) . . .
40.0(33) . . .
34.0(31) . . .
31.4(32) . . .
33.2(32) . . .
38.5(33) . . .
39.0(32) . . .
36.3(32) . . .
32.8(32) . . .
33.7(30) . . .
37.3(32) . . .
36.1(32) . . .
38.5(35) . . .
31.7(30) . . .
26.9(27) . . .
35.0(31) . . .
44.7(35) . . .
41(4) . . .
33.4(31) . . .
33.0(32) . . .
39.1(32) . . .
33.8(31) . . .
25.3(27) . . .
41(4) . . .
35.1(31) . . .
34.7(30) . . .
27.8(30) . . .
28.8(33) . . .
26.3(29) . . .
32.8(30) . . .
42.9(34) . . .
28.2(27) . . .
32.8(32) . . .
35.9(33) . . .
31.9(29) . . .
38.3(31) . . .
36.8(32) . . .
34.3(32) . . .
42(4) . . .
34.2(32) . . .
32.4(29) . . .
40(4) . . .
41(4) . . .
31.0(29) . . .
37.3(32) . . .
34.1(30) . . .
33.5(30) . . .
29.2(30) . . .
36.6(34) . . .
37.7(32) . . .
38.5(33) . . .
42.4(35) . . .
30.4(30) . . .
35.0(32) . . .
41.2(33) . . .
35.1(31) . . .
25.0(27) . . .
30.6(30) . . .
36.9(32) . . .
32.7(30) . . .
30.8(29) . . .
36.0(34) . . .
33.2(31) . . .
29.4(28) . . .
33.4(30) . . .
33.6(31) . . .
38.1(32) . . .
41(4) . . .
39.2(34) . . .
33.5(30) . . .
36.1(31) . . .
37.7(34) . . .
37.7(35) . . .
29.8(30) . . .
30.5(29) . . .
25.4(30) . . .
40(4) . . .
42.4(35) . . .
33.3(30) . . .
38.2(33) . . .
42.1(34) . . .
37.7(34) . . .
35.7(33) . . .
33.7(31) . . .
39.6(33) . . .
42.4(35) . . .
34.4(33) . . .
26.9(28) . . .
37.0(33) . . .
29.3(28) . . .
26.8(28) . . .
26.4(28) . . .
36.1(32) . . .
33.0(30) . . .
30.5(29) . . .
41(4) . . .
37.0(34) . . .
30.1(30) . . .
34.0(30) . . .
29.3(28) . . .
35.7(32) . . .
30.3(29) . . .
34.9(33) . . .
31.3(30) . . .
36.8(32) . . .
39.2(33) . . .
39(4) . . .
28.0(28) . . .
40.5(33) . . .
38.1(32) . . .
44(4) . . .
52(4) . . .
40.3(33) . . .
32.2(30) . . .
35.8(32) . . .
33.6(32) . . .
29.4(30) . . .
35.4(32) . . .
36.5(31) . . .
33.5(31) . . .
33.8(32) . . .
29.1(28) . . .
39.6(34) . . .
45(4) . . .
35.1(32) . . .
35.0(34) . . .
25.7(27) . . .
26.6(27) . . .
36.7(32) . . .
45(4) . . .
37.6(34) . . .
37.6(33) . . .
41.8(34) . . .
51(4) . . .
39.7(34) . . .
35.0(33) . . .
31.9(30) . . .
34.0(30) . . .
30.0(29) . . .
25.7(28) . . .
27.0(28) . . .
33.6(31) . . .
34.3(31) . . .
37.6(32) . . .
38.1(34) . . .
24.0(26) . . .
31.3(31) . . .
32.9(30) . . .
32.4(29) . . .
33.8(32) . . .
34.3(33) . . .
36.5(34) . . .
35.3(32) . . .
37.9(32) . . .
33.3(31) . . .
33.0(32) . . .
31.9(30) . . .
35.5(31) . . .
34.8(31) . . .
41.5(34) . . .
43(4) . . .
34.8(31) . . .
33.2(30) . . .
36.8(32) . . .
31.1(29) . . .
35.5(33) . . .
36.6(32) . . .
44.2(34) . . .
36.3(33) . . .
34.2(33) . . .
32.3(31) . . .
35.1(32) . . .
33.6(31) . . .
28.7(29) . . .
32.3(33) . . .
36.2(33) . . .
35.6(31) . . .
35.3(31) . . .
36.0(33) . . .
30.1(30) . . .
39(4) . . .
39.0(33) . . .
37.6(32) . . .
27.1(27) . . .
36.3(35) . . .
31.6(30) . . .
31.2(29) . . .
35.4(32) . . .
29.8(29) . . .
36(4) . . .
31.0(32) . . .
39.8(34) . . .
31.6(29) . . .
35.4(32) . . .
38.5(35) . . .
33.9(33) . . .
36.8(32) . . .
34.8(31) . . .
37.5(32) . . .
31.7(30) . . .
37.1(32) . . .
44.3(35) . . .
32.1(29) . . .
25.4(27) . . .
29.6(29) . . .
38.2(32) . . .
37.1(32) . . .
37.5(32) . . .
32.5(30) . . .
29.7(30) . . .
35.5(32) . . .
28.5(28) . . .
38.7(32) . . .
37.6(34) . . .
41(4) . . .
42.6(34) . . .
35.2(31) . . .
34.3(31) . . .
37.4(33) . . .
42.7(35) . . .
37.8(34) . . .
34.1(30) . . .
42(4) . . .
33.0(30) . . .
37.4(32) . . .
36.4(33) . . .
34.3(31) . . .
34.0(31) . . .
34.0(33) . . .
35.7(32) . . .
30.0(28) . . .
37.0(32) . . .
37.8(32) . . .
37.8(33) . . .
31.5(29) . . .
33.6(30) . . .
32.9(30) . . .
34.0(34) . . .
27.5(31) . . .
30.2(30) . . .
36.9(31) . . .
35.7(31) . . .
32.4(30) . . .
33.8(30) . . .
42.0(35) . . .
30.5(28) . . .
30.0(29) . . .
31.3(30) . . .
35.5(34) . . .
27.2(29) . . .
35.2(31) . . .
35.8(31) . . .
40.8(35) . . .
29.7(31) . . .
35.8(34) . . .
35.6(31) . . .
30.4(30) . . .
31.0(30) . . .
26.8(29) . . .
32.4(32) . . .
35.6(31) . . .
32.2(31) . . .
21.3(25) . . .
36.4(34) . . .
44.0(34) . . .
39.2(33) . . .
37.6(33) . . .
34.7(33) . . .
32.2(30) . . .
30.9(30) . . .
34.3(31) . . .
35.8(33) . . .
29.8(28) . . .
38.5(32) . . .
41.3(34) . . .
33.8(30) . . .
33.2(31) . . .
35.1(33) . . .
35.0(32) . . .
35.6(31) . . .
36.4(31) . . .
26.9(27) . . .
31.2(32) . . .
30.3(32) . . .
33.4(30) . . .
34.7(31) . . .
37.4(34) . . .
41(4) . . .
34.1(31) . . .
31.5(29) . . .
35.0(31) . . .
37.5(32) . . .
32.5(31) . . .
33.6(32) . . .
33.5(31) . . .
35.7(31) . . .
35.2(33) . . .
27.4(29) . . .
33.6(33) . . .
25.3(26) . . .
26.9(30) . . .
41(4) . . .
30.3(30) . . .
36.6(33) . . .
34.3(32) . . .
33.1(31) . . .
31.4(31) . . .
31.6(30) . . .
36.2(31) . . .
35.1(31) . . .
35.4(31) . . .
32.9(30) . . .
40(4) . . .
32.2(30) . . .
36.8(31) . . .
36.1(33) . . .
36.6(34) . . .
33.0(30) . . .
33.8(30) . . .
35.2(31) . . .
36.9(32) . . .
28.8(28) . . .
27.2(28) . . .
28.7(29) . . .
33.0(31) . . .
35.3(31) . . .
32.7(32) . . .
38(4) . . .
43(4) . . .
34.1(31) . . .
31.4(29) . . .
32.2(31) . . .
37.4(33) . . .
35.7(32) . . .
32.7(30) . . .
28.9(31) . . .
39(4) . . .
35.8(33) . . .
41.9(34) . . .
38.0(33) . . .
34.0(31) . . .
35.9(35) . . .
38.2(33) . . .
38.4(32) . . .
27.3(28) . . .
24.8(26) . . .
34.8(34) . . .
33.7(30) . . .
38.2(32) . . .
31.5(30) . . .
40(4) . . .
40(4) . . .
33.0(32) . . .
33.9(31) . . .
36.3(32) . . .
30.4(29) . . .
33.2(31) . . .
33.7(30) . . .
34.9(31) . . .
41.1(34) . . .
37.5(31) . . .
32.6(29) . . .
34.5(34) . . .
36.0(31) . . .
37.0(34) . . .
33.0(32) . . .
36(4) . . .
41(4) . . .
37.5(32) . . .
38.1(33) . . .
35.6(34) . . .
37.7(34) . . .
44(4) . . .
34.1(31) . . .
38.6(33) . . .
34.0(30) . . .
38.4(34) . . .
31.1(30) . . .
37.8(32) . . .
38.0(34) . . .
32.8(32) . . .
37.4(33) . . .
42.8(35) . . .
40.8(33) . . .
36.5(32) . . .
32.1(33) . . .
37.1(33) . . .
34.7(31) . . .
38.2(32) . . .
40.9(35) . . .
34.6(33) . . .
28.9(28) . . .
35.3(32) . . .
28.4(28) . . .
36.8(33) . . .
26.9(28) . . .
34.8(32) . . .
31.8(30) . . .
27.5(27) . . .
31.8(30) . . .
36.9(34) . . .
42.3(35) . . .
27.9(28) . . .
35.0(32) . . .
36.6(32) . . .
30.7(30) . . .
39.8(35) . . .
32.8(30) . . .
35.1(32) . . .
38(4) . . .
30.2(31) . . .
29.3(29) . . .
39.1(32) . . .
28.6(28) . . .
40(4) . . .
42(4) . . .
37.7(34) . . .
39.8(33) . . .
29.6(29) . . .
33.0(34) . . .
38(4) . . .
34.7(31) . . .
32.2(30) . . .
29.7(30) . . .
28.9(31) . . .
38.0(35) . . .
36.5(32) . . .
32.9(30) . . .
43(4) . . .
29.1(30) . . .
29.7(29) . . .
32.1(31) . . .
30.9(29) . . .
37.1(33) . . .
39.3(35) . . .
28.8(30) . . .
32.4(31) . . .
25.8(27) . . .
37.2(34) . . .
28.3(30) . . .
32.7(31) . . .
35.4(31) . . .
36.8(32) . . .
34.2(31) . . .
26.9(29) . . .
27.2(29) . . .
39.8(33) . . .
30.0(28) . . .
33.8(31) . . .
38(4) . . .
39(4) . . .
29.4(28) . . .
35.5(31) . . .
27.7(27) . . .
36.8(34) . . .
46(4) . . .
29.4(28) . . .
32.6(32) . . .
44(4) . . .
42(4) . . .
35.1(30) . . .
40.5(33) . . .
36.3(31) . . .
38.7(32) . . .
40.7(34) . . .
32.0(30) . . .
35.0(31) . . .
31.6(30) . . .
35.8(32) . . .
31.2(28) . . .
30.5(28) . . .
37.0(32) . . .
28.1(28) . . .
35.4(31) . . .
41.6(34) . . .
35.5(31) . . .
37.1(32) . . .
40.5(34) . . .
37.6(34) . . .
32.7(31) . . .
36.4(32) . . .
30.5(29) . . .
32.6(30) . . .
29.3(30) . . .
41(4) . . .
37.8(32) . . .
29.0(28) . . .
35.4(33) . . .
35.8(34) . . .
30.0(29) . . .
42.2(34) . . .
39.7(33) . . .
30.5(28) . . .
29.2(29) . . .
35.6(34) . . .
40.9(34) . . .
30.1(29) . . .
32.9(29) . . .
43(4) . . .
41(4) . . .
42.9(35) . . .
43.1(35) . . .
29.3(28) . . .
38.0(34) . . .
31.5(29) . . .
37.8(32) . . .
25.3(26) . . .
34.1(34) . . .
31.1(32) . . .
40(4) . . .
36.8(32) . . .
27.7(28) . . .
30.0(30) . . .
36.7(34) . . .
30.7(30) . . .
33.7(30) . . .
31.4(29) . . .
39.2(33) . . .
31.2(29) . . .
38.0(33) . . .
37.0(32) . . .
33.7(30) . . .
29.3(28) . . .
31.5(30) . . .
30.4(29) . . .
31.6(29) . . .
31.6(31) . . .
27.3(30) . . .
34.3(32) . . .
35.7(32) . . .
38.8(32) . . .
41.4(34) . . .
31.5(31) . . .
33.3(30) . . .
40.4(33) . . .
45(4) . . .
31.0(29) . . .
35.1(33) . . .
33.2(32) . . .
32.1(30) . . .
34.0(31) . . .
36.0(34) . . .
25.8(27) . . .
27.5(27) . . .
37.8(32) . . .
43(4) . . .
34.0(32) . . .
30.9(31) . . .
33.6(32) . . .
32.0(29) . . .
32.3(30) . . .
27.5(29) . . .
30.5(32) . . .
33.3(32) . . .
34.1(31) . . .
33.7(31) . . .
34.9(32) . . .
35.7(34) . . .
34.0(33) . . .
28.3(29) . . .
37.3(33) . . .
38.3(33) . . .
30.8(29) . . .
32.1(30) . . .
33.3(30) . . .
35.5(31) . . .
32.2(32) . . .
29.0(29) . . .
33.1(32) . . .
36.5(32) . . .
39.9(33) . . .
32.0(31) . . .
31.0(29) . . .
35.6(32) . . .
32.7(31) . . .
35.9(32) . . .
34.8(30) . . .
41.5(35) . . .
29.3(28) . . .
24.7(27) . . .
33.2(30) . . .
29.3(28) . . .
32.8(30) . . .
34.1(33) . . .
36.0(31) . . .
26.8(27) . . .
32.7(32) . . .
31.6(33) . . .
43.2(34) . . .
36.1(31) . . .
32.8(30) . . .
26.7(28) . . .
26.4(26) . . .
37.4(32) . . .
40.7(33) . . .
32.3(30) . . .
30.9(31) . . .
43(4) . . .
37.0(32) . . .
34.3(30) . . .
31.1(30) . . .
39(4) . . .
35.6(31) . . .
26.7(28) . . .
39.8(32) . . .
36.6(32) . . .
41(4) . . .
37.4(34) . . .
43.2(34) . . .
34.6(32) . . .
34.4(32) . . .
33.4(31) . . .
27.7(28) . . .
35.3(31) . . .
38(4) . . .
39.4(35) . . .
33.8(32) . . .
32.4(31) . . .
37.1(31) . . .
40.4(34) . . .
38.0(32) . . .
37.0(31) . . .
38.1(33) . . .
32.3(30) . . .
41.1(35) . . .
30.7(30) . . .
37.2(34) . . .
36.3(33) . . .
37.5(32) . . .
36.5(32) . . .
35.6(32) . . .
33.8(32) . . .
31.8(29) . . .
36.9(33) . . .
26.1(28) . . .
32.8(30) . . .
43(4) . . .
34.5(30) . . .
29.5(29) . . .
37.4(34) . . .
33.7(31) . . .
41.6(34) . . .
34.8(31) . . .
40.0(33) . . .
33.7(30) . . .
34.4(32) . . .
37.8(33) . . .
33.0(30) . . .
33.1(30) . . .
30.3(28) . . .
39.5(34) . . .
38.2(32) . . .
39.4(33) . . .
41.4(35) . . .
39.4(33) . . .
34.7(32) . . .
29.6(29) . . .
37.2(32) . . .
24.7(27) . . .
35.6(33) . . .
31.6(32) . . .
32.8(31) . . .
35.8(32) . . .
37.9(33) . . .
25.6(26) . . .
47(4) . . .
39.8(35) . . .
39.2(32) . . .
35.7(32) . . .
37.5(33) . . .
40(4) . . .
36.2(34) . . .
46(4) . . .
40.8(34) . . .
33.4(31) . . .
36.7(33) . . .
29.6(29) . . .
35.3(32) . . .
47(4) . . .
38.4(34) . . .
37.2(34) . . .
34.4(30) . . .
34.3(31) . . .
29.9(29) . . .
40(4) . . .
37.2(32) . . .
34.6(30) . . .
38.4(33) . . .
34.7(31) . . .
32.3(33) . . .
34.9(31) . . .
36.2(31) . . .
31.8(29) . . .
29.9(29) . . .
25.4(26) . . .
33.3(31) . . .
34.9(31) . . .
30.4(29) . . .
26.1(27) . . .
32.7(33) . . .
28.1(28) . . .
34.7(31) . . .
32.0(29) . . .
29.1(27) . . .
40.0(34) . . .
35.7(32) . . .
34.2(31) . . .
39.4(33) . . .
36.4(34) . . .
33.3(31) . . .
34.8(31) . . .
34.4(31) . . .
34.9(30) . . .
35.1(32) . . .
29.0(30) . . .
31.6(32) . . .
39.6(33) . . .
31.0(30) . . .
35.6(32) . . .
37.7(33) . . .
34.8(31) . . .
30.4(29) . . .
40.3(34) . . .
33.4(31) . . .
33.9(34) . . .
32.6(29) . . .
46(4) . . .
30.4(29) . . .
35.7(33) . . .
37.1(32) . . .
37.9(33) . . .
38.2(33) . . .
30.4(31) . . .
36.4(35) . . .
38(4) . . .
34.8(31) . . .
28.8(28) . . .
36.5(33) . . .
37.8(33) . . .
36.1(31) . . .
39.5(32) . . .
32.2(30) . . .
36(4) . . .
41(4) . . .
43(4) . . .
40.5(34) . . .
32.3(30) . . .
33.0(32) . . .
32.3(32) . . .
37.6(33) . . .
38.2(33) . . .
38.4(33) . . .
42.7(35) . . .
41.3(34) . . .
42.2(34) . . .
37.4(32) . . .
42.0(34) . . .
39.6(34) . . .
39(4) . . .
36.0(33) . . .
28.8(27) . . .
34.5(32) . . .
34.7(33) . . .
33.4(34) . . .
40(4) . . .
37.7(32) . . .
41.8(35) . . .
33.4(31) . . .
29.5(30) . . .
32.9(31) . . .
38.2(33) . . .
32.7(30) . . .
39(4) . . .
41(4) . . .
37.9(33) . . .
30.3(29) . . .
33.0(31) . . .
32.6(33) . . .
33.0(32) . . .
33.2(31) . . .
37.1(32) . . .
41.9(35) . . .
35.7(34) . . .
28.3(29) . . .
44(4) . . .
26.2(27) . . .
31.2(30) . . .
39.3(33) . . .
36.4(32) . . .
39.3(33) . . .
45.1(35) . . .
37.8(34) . . .
35.6(35) . . .
32.2(31) . . .
31.4(30) . . .
30.9(29) . . .
39.3(34) . . .
34.1(33) . . .
34.4(32) . . .
33.8(30) . . .
38.3(32) . . .
35.7(33) . . .
26.0(28) . . .
30.3(29) . . .
32.4(30) . . .
30.1(28) . . .
20.9(23) . . .
31.6(32) . . .
32.4(31) . . .
27.2(27) . . .
45(4) . . .
41(4) . . .
33.7(33) . . .
35.2(34) . . .
36.0(32) . . .
41.1(33) . . .
36.8(34) . . .
37.6(33) . . .
42(4) . . .
38.3(33) . . .
37.0(32) . . .
41(4) . . .
30.8(30) . . .
39.5(33) . . .
40.8(34) . . .
33.2(30) . . .
36.8(32) . . .
41(4) . . .
43(4) . . .
30.5(29) . . .
40.8(35) . . .
33.6(33) . . .
31.1(29) . . .
31.3(31) . . .
35.5(31) . . .
28.2(30) . . .
29.0(27) . . .
35.1(32) . . .
28.5(27) . . .
39.5(32) . . .
39(4) . . .
34.7(32) . . .
38.3(33) . . .
39.9(33) . . .
41.1(35) . . .
38.5(32) . . .
31.2(30) . . .
27.3(28) . . .
40.4(33) . . .
33.6(31) . . .
37.7(33) . . .
34.7(32) . . .
36.3(33) . . .
36.8(31) . . .
37.2(32) . . .
39(4) . . .
30.7(30) . . .
43(4) . . .
37.0(32) . . .
46(4) . . .
37.0(32) . . .
39(4) . . .
31.0(29) . . .
23.2(25) . . .
30.4(28) . . .
39.2(34) . . .
31.9(31) . . .
38(4) . . .
39.6(33) . . .
41.1(34) . . .
35.8(32) . . .
37.3(33) . . .
34.3(31) . . .
36.0(31) . . .
35.9(32) . . .
34.9(32) . . .
38.4(33) . . .
36.3(32) . . .
29.2(28) . . .
35.3(35) . . .
31.9(30) . . .
44(4) . . .
33.4(30) . . .
26.4(26) . . .
31.6(31) . . .
35.7(32) . . .
36.9(33) . . .
40.9(33) . . .
38.5(33) . . .
34.9(31) . . .
39(4) . . .
31.4(31) . . .
28.3(28) . . .
24.0(25) . . .
37.1(33) . . .
33.2(30) . . .
35.2(32) . . .
34.9(31) . . .
35.0(30) . . .
27.4(27) . . .
30.0(32) . . .
35.0(31) . . .
32.6(29) . . .
30.2(29) . . .
35.7(32) . . .
28.0(28) . . .
32.9(31) . . .
24.2(26) . . .
31.2(29) . . .
35.6(34) . . .
32.9(32) . . .
35.9(33) . . .
37.0(32) . . .
29.1(29) . . .
35.1(33) . . .
32.2(34) . . .
24.2(26) . . .
26.2(27) . . .
33.2(30) . . .
35.7(32) . . .
34.4(31) . . .
32.0(30) . . .
32.2(30) . . .
30.1(29) . . .
34.2(30) . . .
41.5(35) . . .
27.3(27) . . .
27.9(27) . . .
28.8(30) . . .
30.1(31) . . .
36.7(33) . . .
33.4(31) . . .
29.1(29) . . .
34.6(33) . . .
32.7(33) . . .
27.0(27) . . .
31.2(29) . . .
35.0(30) . . .
34.5(33) . . .
36.7(33) . . .
32.5(30) . . .
41.2(34) . . .
32.3(29) . . .
36.8(33) . . .
40(4) . . .
35.6(32) . . .
38.7(32) . . .
37.7(31) . . .
37.7(32) . . .
37.8(31) . . .
36.2(32) . . .
28.5(29) . . .
32.0(30) . . .
26.8(28) . . .
31.3(29) . . .
36.8(33) . . .
33.5(31) . . .
38.2(32) . . .
32.6(29) . . .
42(4) . . .
34.5(31) . . .
29.8(28) . . .
32.9(30) . . .
33.3(32) . . .
34.8(32) . . .
37.2(32) . . .
33.4(30) . . .
34.1(32) . . .
42(4) . . .
32.0(32) . . .
27.3(27) . . .
37.8(32) . . .
34.5(30) . . .
36.9(31) . . .
38.4(33) . . .
34.3(31) . . .
36.2(31) . . .
29.5(28) . . .
38.7(35) . . .
38.0(33) . . .
37.9(33) . . .
43.4(35) . . .
26.6(29) . . .
33.0(32) . . .
30.6(31) . . .
34.1(32) . . .
36.4(31) . . .
41(4) . . .
33.2(32) . . .
35.1(32) . . .
31.5(29) . . .
36.6(32) . . .
31.1(30) . . .
35.3(33) . . .
36.6(32) . . .
37.0(32) . . .
41.7(34) . . .
38.5(33) . . .
42(4) . . .
41(4) . . .
36.9(32) . . .
31.6(29) . . .
40.2(35) . . .
35.5(32) . . .
33.6(31) . . .
34.3(31) . . .
36.0(31) . . .
33.6(34) . . .
34.6(33) . . .
36.8(32) . . .
29.6(29) . . .
40.1(33) . . .
31.8(31) . . .
33.5(34) . . .
32.0(31) . . .
38.2(32) . . .
36.2(31) . . .
34.0(31) . . .
38.5(34) . . .
29.3(29) . . .
36.3(32) . . .
41.2(34) . . .
40.1(34) . . .
38.1(35) . . .
28.3(29) . . .
30.5(29) . . .
35.7(32) . . .
37.0(32) . . .
32.8(30) . . .
27.4(27) . . .
24.7(26) . . .
32.5(32) . . .
35.8(33) . . .
29.0(28) . . .
32.3(29) . . .
32.3(30) . . .
31.4(30) . . .
30.5(31) . . .
29.1(28) . . .
43.1(35) . . .
40.5(33) . . .
35.0(32) . . .
28.8(29) . . .
29.4(28) . . .
34.2(31) . . .
33.5(30) . . .
33.2(31) . . .
42(4) . . .
39.6(34) . . .
34.2(30) . . .
27.1(28) . . .
30.4(29) . . .
34.6(34) . . .
29.6(28) . . .
40.1(33) . . .
32.0(29) . . .
35.4(34) . . .
28.3(29) . . .
34.8(32) . . .
33.9(30) . . .
42.2(34) . . .
36.9(32) . . .
28.2(29) . . .
31.0(31) . . .
29.3(28) . . .
38.7(32) . . .
34.0(30) . . .
37.7(34) . . .
35.3(31) . . .
24.8(26) . . .
22.6(24) . . .
37(4) . . .
37.1(32) . . .
43.7(35) . . .
34.2(30) . . .
32.4(29) . . .
31.2(29) . . .
29.6(29) . . .
36.3(32) . . .
36.6(32) . . .
32.0(32) . . .
27.0(27) . . .
23.8(25) . . .
34.7(31) . . .
43.0(34) . . .
33.0(31) . . .
37.0(32) . . .
34.3(31) . . .
32.1(31) . . .
32.8(30) . . .
35.0(33) . . .
30.8(31) . . .
31.0(31) . . .
34.7(32) . . .
43.3(35) . . .
37.5(32) . . .
40.3(34) . . .
36.0(33) . . .
33.5(31) . . .
45(4) . . .
27.9(29) . . .
36.1(35) . . .
37.2(34) . . .
36.0(31) . . .
30.6(29) . . .
36.8(34) . . .
35(4) . . .
23.5(25) . . .
33.5(30) . . .
36.4(32) . . .
38.4(33) . . .
36.8(33) . . .
37.7(34) . . .
45(4) . . .
31.2(29) . . .
36.4(33) . . .
40(4) . . .
29.6(31) . . .
44.4(35) . . .
36.4(31) . . .
33.8(31) . . .
32.6(31) . . .
33.1(30) . . .
33.1(30) . . .
35.9(33) . . .
37.9(35) . . .
32.0(32) . . .
34.5(33) . . .
38.4(32) . . .
30.4(30) . . .
21.4(24) . . .
34.3(32) . . .
38.0(32) . . .
35.4(31) . . .
29.4(30) . . .
34.3(34) . . .
32.9(31) . . .
45.2(35) . . .
37.2(33) . . .
42.0(35) . . .
43(4) . . .
36.2(33) . . .
35.4(32) . . .
33.7(30) . . .
34.5(31) . . .
29.1(30) . . .
30.4(31) . . .
27.6(29) . . .
27.4(27) . . .
35.6(34) . . .
30.9(33) . . .
29.0(29) . . .
31.7(30) . . .
37.0(32) . . .
35.0(31) . . .
40(4) . . .
24.8(27) . . .
28.9(29) . . .
33.5(30) . . .
34.1(31) . . .
35.4(33) . . .
37.3(34) . . .
43.5(35) . . .
33.1(30) . . .
29.0(29) . . .
30.5(30) . . .
42(4) . . .
41.0(33) . . .
34.2(30) . . .
42.1(35) . . .
33.1(30) . . .
31.4(30) . . .
33.8(31) . . .
29.5(29) . . .
31.6(30) . . .
30.3(29) . . .
34.4(32) . . .
27.7(28) . . .
33.0(31) . . .
34.5(32) . . .
37.7(34) . . .
33.4(31) . . .
33.3(30) . . .
34.8(34) . . .
27.2(28) . . .
40(4) . . .
32.0(32) . . .
35.0(31) . . .
37(4) . . .
39.9(34) . . .
44(4) . . .
31.4(31) . . .
36.2(31) . . .
39(4) . . .
31.0(30) . . .
35.8(31) . . .
37.8(32) . . .
37.2(31) . . .
35.9(31) . . .
28.4(28) . . .
30.1(30) . . .
29.7(30) . . .
32.7(30) . . .
40(4) . . .
35.7(33) . . .
36.1(33) . . .
30.4(28) . . .
33.9(30) . . .
36.8(34) . . .
27.9(30) . . .
30.5(29) . . .
30.0(28) . . .
35.8(31) . . .
25.5(29) . . .
36.0(35) . . .
34.3(31) . . .
29.9(29) . . .
36.3(32) . . .
34.8(33) . . .
43(4) . . .
32.2(31) . . .
33.0(30) . . .
49(4) . . .
39.0(34) . . .
33.4(31) . . .
35.8(33) . . .
36.1(31) . . .
47(4) . . .
45(4) . . .
37.2(33) . . .
46(4) . . .
31.8(29) . . .
24.8(27) . . .
27.3(31) . . .
28.9(29) . . .
39.5(34) . . .
31.2(30) . . .
34.6(32) . . .
44(4) . . .
31.9(29) . . .
31.9(29) . . .
36.7(31) . . .
27.2(28) . . .
29.8(31) . . .
35.6(32) . . .
25.7(26) . . .
41.3(35) . . .
34.5(31) . . .
37.2(34) . . .
40.6(35) . . .
38.3(32) . . .
28.9(28) . . .
34.6(31) . . .
31.5(31) . . .
26.5(27) . . .
28.9(27) . . .
29.2(28) . . .
30.6(30) . . .
26.5(29) . . .
36.0(33) . . .
35.9(31) . . .
26.3(28) . . .
32.8(31) . . .
35.3(33) . . .
33.6(30) . . .
37.6(32) . . .
31.7(30) . . .
34.3(30) . . .
39.2(35) . . .
34.4(32) . . .
34.7(31) . . .
33.7(30) . . .
46(4) . . .
30.4(30) . . .
31.4(30) . . .
30.9(28) . . .
34.8(33) . . .
34.6(32) . . .
36.1(32) . . .
33.0(34) . . .
35.4(30) . . .
43(4) . . .
29.0(30) . . .
27.4(28) . . .
36.8(32) . . .
42.9(33) . . .
40(4) . . .
33.5(32) . . .
31.7(30) . . .
30.1(29) . . .
38.5(33) . . .
32.1(33) . . .
36(4) . . .
36.9(32) . . .
43.5(35) . . .
40.3(33) . . .
29.3(29) . . .
42(4) . . .
37.9(32) . . .
28.0(28) . . .
33.5(30) . . .
41.3(35) . . .
40(4) . . .
29.9(29) . . .
33.0(30) . . .
32.0(29) . . .
35.5(31) . . .
38.8(34) . . .
27.2(27) . . .
33.8(30) . . .
36.4(32) . . .
36.7(34) . . .
43(4) . . .
43.6(35) . . .
29.5(28) . . .
37.7(32) . . .
37.4(33) . . .
29.0(29) . . .
30.2(30) . . .
34.1(30) . . .
38.8(32) . . .
34.5(31) . . .
35.7(34) . . .
32.6(32) . . .
40.5(33) . . .
36.3(32) . . .
38.7(34) . . .
27.0(29) . . .
32.5(33) . . .
29.9(28) . . .
39.3(34) . . .
28.1(28) . . .
34.7(33) . . .
31.5(29) . . .
30.7(29) . . .
35.0(31) . . .
30.5(30) . . .
36.9(33) . . .
39.0(33) . . .
28.1(28) . . .
27.1(28) . . .
41(4) . . .
30.9(29) . . .
37.6(33) . . .
37.7(32) . . .
36.7(32) . . .
30.5(29) . . .
37.8(33) . . .
43.5(34) . . .
33.6(31) . . .
35.1(32) . . .
31.3(31) . . .
33.0(31) . . .
40.0(34) . . .
42.0(34) . . .
27.5(28) . . .
48(4) . . .
34.3(32) . . .
31.4(29) . . .
38.0(32) . . .
34.8(31) . . .
38.0(34) . . .
30.3(29) . . .
34.7(31) . . .
35.5(31) . . .
34.9(33) . . .
33.5(33) . . .
37.7(32) . . .
32.9(30) . . .
38.2(33) . . .
39.0(35) . . .
38.8(34) . . .
35.1(31) . . .
39.1(33) . . .
32.5(31) . . .
35.7(33) . . .
28.2(29) . . .
34.1(32) . . .
34.3(30) . . .
39.6(33) . . .
32.9(32) . . .
32.3(32) . . .
36.8(32) . . .
39.2(32) . . .
31.2(30) . . .
31.4(31) . . .
34.8(31) . . .
45(4) . . .
33.6(31) . . .
40(4) . . .
38(4) . . .
33.5(32) . . .
33.8(32) . . .
31.7(29) . . .
33.4(33) . . .
30.2(31) . . .
30.9(30) . . .
38.4(32) . . .
39.3(33) . . .
31.9(30) . . .
34.3(31) . . .
36.9(32) . . .
36.3(31) . . .
35.4(30) . . .
28.3(28) . . .
36(4) . . .
26.6(27) . . .
30.2(28) . . .
47(4) . . .
37.3(33) . . .
34.7(34) . . .
27.9(29) . . .
39.4(33) . . .
40.7(33) . . .
40(4) . . .
31.6(31) . . .
35.7(32) . . .
32.3(29) . . .
30.3(29) . . .
33.4(31) . . .
35.0(32) . . .
40.8(34) . . .
33.7(31) . . .
33.7(31) . . .
36.0(33) . . .
29.8(29) . . .
34.4(33) . . .
41.2(33) . . .
42.9(34) . . .
41(4) . . .
31.4(31) . . .
31.6(31) . . .
48(4) . . .
32.4(32) . . .
34.1(31) . . .
24.2(24) . . .
34.1(33) . . .
31.4(29) . . .
34.3(33) . . .
33.4(30) . . .
35.0(31) . . .
31.2(29) . . .
32.1(30) . . .
36.2(33) . . .
31.5(32) . . .
39.2(33) . . .
38.0(32) . . .
33.5(30) . . .
38.9(34) . . .
26.2(27) . . .
28.1(27) . . .
38.6(32) . . .
41.1(33) . . .
34.3(31) . . .
36.0(34) . . .
38.9(34) . . .
36.1(31) . . .
34.8(31) . . .
31.4(30) . . .
32.3(32) . . .
36.7(33) . . .
30.5(29) . . .
33.8(30) . . .
30.1(29) . . .
29.8(31) . . .
27.7(29) . . .
40.5(34) . . .
41.3(33) . . .
30.9(30) . . .
30.8(34) . . .
33.8(32) . . .
38.4(33) . . .
36.4(31) . . .
33.5(32) . . .
37.1(33) . . .
33.4(30) . . .
27.5(27) . . .
44(4) . . .
28.2(28) . . .
25.2(26) . . .
31.4(31) . . .
34.3(31) . . .
26.4(28) . . .
35.7(35) . . .
36.1(33) . . .
34.6(32) . . .
29.3(28) . . .
31.3(30) . . .
48(4) . . .
37.1(33) . . .
41.2(34) . . .
31.6(30) . . .
36.7(32) . . .
41.8(34) . . .
32.2(30) . . .
30.5(29) . . .
37.3(32) . . .
35.8(32) . . .
34.9(33) . . .
37.6(32) . . .
35.8(32) . . .
36.1(32) . . .
43(4) . . .
36.7(33) . . .
37.7(34) . . .
34.4(31) . . .
37.7(32) . . .
39.4(33) . . .
35.4(34) . . .
35.5(33) . . .
37.7(32) . . .
28.8(29) . . .
40(4) . . .
31.0(30) . . .
39.0(34) . . .
30.1(29) . . .
32.5(29) . . .
35.6(32) . . .
39.9(35) . . .
34.6(31) . . .
35.8(32) . . .
29.1(28) . . .
34.1(33) . . .
32.8(33) . . .
30.9(29) . . .
32.9(29) . . .
45(4) . . .
39.1(33) . . .
32.1(31) . . .
29.6(29) . . .
37.0(32) . . .
31.4(29) . . .
35.8(33) . . .
29.9(31) . . .
33.0(32) . . .
40.4(33) . . .
39.1(34) . . .
37.3(33) . . .
33.6(32) . . .
29.0(29) . . .
32.8(30) . . .
38(4) . . .
34.0(32) . . .
33.5(32) . . .
30.1(29) . . .
24.6(26) . . .
31.1(30) . . .
35.6(34) . . .
37.3(33) . . .
38.1(32) . . .
38.7(33) . . .
32.5(31) . . .
30.6(31) . . .
33.1(32) . . .
36.3(33) . . .
37.2(32) . . .
24.3(25) . . .
33.9(32) . . .
36.8(32) . . .
29.1(28) . . .
38.3(32) . . .
31.0(33) . . .
33.8(33) . . .
36.1(31) . . .
40.8(33) . . .
35.6(32) . . .
29.3(29) . . .
30.9(30) . . .
35.4(32) . . .
29.7(29) . . .
34.3(31) . . .
31.4(33) . . .
32.3(32) . . .
31.0(30) . . .
25.7(27) . . .
34.0(32) . . .
33.3(31) . . .
31.9(31) . . .
34.7(32) . . .
32.5(30) . . .
36.2(34) . . .
35.5(32) . . .
27.1(28) . . .
30.8(30) . . .
32.4(30) . . .
40.8(34) . . .
39.5(33) . . .
33.5(29) . . .
28.7(29) . . .
28.9(27) . . .
32.8(35) . . .
39(4) . . .
30.2(29) . . .
30.3(29) . . .
29.1(29) . . .
34.7(31) . . .
40.8(34) . . .
30.2(29) . . .
27.3(27) . . .
37.0(31) . . .
33.4(31) . . .
40(4) . . .
38.3(34) . . .
34.6(32) . . .
37.1(32) . . .
41.7(35) . . .
32.3(32) . . .
38(4) . . .
35.9(32) . . .
41.6(35) . . .
33.6(33) . . .
32.9(33) . . .
35.2(31) . . .
36.7(32) . . .
32.3(30) . . .
30.7(30) . . .
34.8(31) . . .
36.4(31) . . .
36.2(31) . . .
36.1(33) . . .
28.0(29) . . .
37.3(34) . . .
32.4(31) . . .
37.7(32) . . .
28.8(28) . . .
36.3(34) . . .
31.1(31) . . .
30.4(31) . . .
26.0(27) . . .
36.5(32) . . .
30.7(33) . . .
36.0(33) . . .
35.0(32) . . .
34.2(30) . . .
34.9(33) . . .
32.1(30) . . .
33.9(31) . . .
32.0(29) . . .
35.4(31) . . .
26.3(27) . . .
31.5(31) . . .
37.8(34) . . .
34.7(30) . . .
36.8(32) . . .
29.5(29) . . .
35.8(32) . . .
36.6(35) . . .
30.7(29) . . .
36.0(32) . . .
41.9(34) . . .
33.4(32) . . .
27.8(28) . . .
33.2(31) . . .
38.0(32) . . .
42.4(35) . . .
33.1(32) . . .
35.3(32) . . .
30.7(29) . . .
32.9(30) . . .
28.2(28) . . .
38(4) . . .
32.1(30) . . .
33.5(31) . . .
38.6(33) . . .
31.5(32) . . .
45(4) . . .
39.4(33) . . .
38.0(32) . . .
40.6(34) . . .
39.2(34) . . .
37.1(34) . . .
37.0(33) . . .
32.8(31) . . .
37.5(33) . . .
30.0(28) . . .
31.4(31) . . .
32.4(30) . . .
38.8(32) . . .
32.2(30) . . .
29.3(29) . . .
34.2(33) . . .
25.9(28) . . .
35.6(31) . . .
34.3(31) . . .
37.8(33) . . .
41.1(35) . . .
39.0(33) . . .
37.5(31) . . .
31.8(30) . . .
33.3(31) . . .
37.5(33) . . .
36.0(31) . . .
30.9(30) . . .
28.7(28) . . .
26.8(27) . . .
29.0(30) . . .
39.8(33) . . .
42.4(34) . . .
32.0(29) . . .
32.9(31) . . .
35.0(30) . . .
30.5(29) . . .
35.2(31) . . .
36.4(31) . . .
29.6(29) . . .
34.5(33) . . .
37.5(32) . . .
34.8(31) . . .
30.4(30) . . .
27.0(29) . . .
31.3(29) . . .
40.6(33) . . .
34.8(31) . . .
39.2(33) . . .
40.2(34) . . .
39.6(34) . . .
37.5(32) . . .
33.7(31) . . .
36.5(34) . . .
38.9(33) . . .
39(4) . . .
38.3(32) . . .
30.4(30) . . .
20.3(23) . . .
31.5(30) . . .
31.2(29) . . .
34.0(31) . . .
39.2(33) . . .
36.0(34) . . .
26.4(30) . . .
25.6(28) . . .
28.1(28) . . .
36.1(32) . . .
38.7(34) . . .
33.0(32) . . .
32.1(30) . . .
34.2(31) . . .
30.3(30) . . .
34.8(33) . . .
36.2(34) . . .
35.1(34) . . .
30.8(29) . . .
33.2(30) . . .
34.8(33) . . .
25.9(25) . . .
32.6(30) . . .
32.8(30) . . .
34.9(31) . . .
32.2(31) . . .
32.6(33) . . .
30.6(28) . . .
36.7(31) . . .
31.7(30) . . .
32.2(32) . . .
33.2(30) . . .
34.9(31) . . .
29.8(28) . . .
27.0(28) . . .
29.8(29) . . .
38.2(33) . . .
39.6(33) . . .
25.0(26) . . .
43(4) . . .
39(4) . . .
33.0(32) . . .
32.2(30) . . .
29.3(28) . . .
37.0(33) . . .
26.7(28) . . .
26.3(26) . . .
38.6(32) . . .
38.4(33) . . .
29.1(30) . . .
36.2(33) . . .
36.0(32) . . .
43.1(34) . . .
31.0(29) . . .
26.8(27) . . .
31.5(31) . . .
29.7(31) . . .
30.0(28) . . .
29.1(28) . . .
35.2(33) . . .
35.7(34) . . .
27.7(29) . . .
36.0(32) . . .
31.5(30) . . .
37(4) . . .
30.9(31) . . .
43.2(35) . . .
34.3(31) . . .
35.9(32) . . .
32.2(32) . . .
33.6(32) . . .
30.3(29) . . .
28.3(28) . . .
35.5(31) . . .
39.1(34) . . .
34.7(32) . . .
28.3(28) . . .
29.9(28) . . .
29.6(29) . . .
39(4) . . .
36.3(32) . . .
28.6(27) . . .
29.8(28) . . .
36.2(31) . . .
35.6(35) . . .
29.3(28) . . .
40.9(34) . . .
36.8(31) . . .
35.1(31) . . .
34.2(32) . . .
33.5(32) . . .
27.3(27) . . .
38.1(32) . . .
31.0(30) . . .
32.5(31) . . .
34.8(31) . . .
30.0(29) . . .
33.8(31) . . .
33.6(32) . . .
34.5(34) . . .
41(4) . . .
29.9(28) . . .
32.2(29) . . .
39.3(34) . . .
30.4(30) . . .
28.6(29) . . .
31.9(30) . . .
30.4(29) . . .
33.2(32) . . .
31.3(32) . . .
37.3(32) . . .
36.5(32) . . .
38(4) . . .
35.2(32) . . .
32.3(31) . . .
30.8(31) . . .
38.0(33) . . .
27.7(28) . . .
32.9(32) . . .
28.4(28) . . .
52(4) . . .
30.9(29) . . .
32.8(31) . . .
32.5(31) . . .
31.0(29) . . .
36.6(33) . . .
32.8(30) . . .
29.7(30) . . .
29.7(29) . . .
34.1(32) . . .
35.8(31) . . .
32.2(29) . . .
33.0(30) . . .
26.1(25) . . .
40.3(34) . . .
31.5(29) . . .
33.9(31) . . .
29.7(30) . . .
34.2(32) . . .
29.0(28) . . .
34.5(31) . . .
29.1(29) . . .
31.1(30) . . .
33.7(31) . . .
31.7(30) . . .
34.6(31) . . .
35.6(31) . . .
39.0(34) . . .
34.6(32) . . .
32.4(30) . . .
29.9(29) . . .
42.0(35) . . .
39.5(34) . . .
38.8(34) . . .
39.5(35) . . .
35.0(31) . . .
31.5(30) . . .
38.0(33) . . .
34.5(31) . . .
36.5(32) . . .
36.0(32) . . .
31.3(30) . . .
32.5(30) . . .
32.7(30) . . .
31.4(30) . . .
27.4(27) . . .
39(4) . . .
33.6(33) . . .
31.9(30) . . .
34.9(30) . . .
39.3(33) . . .
44(4) . . .
32.7(32) . . .
32.5(29) . . .
32.3(30) . . .
30.3(29) . . .
38.5(35) . . .
23.4(25) . . .
29.5(29) . . .
30.9(29) . . .
38.0(33) . . .
31.3(30) . . .
37(4) . . .
36.2(31) . . .
27.8(27) . . .
36.8(33) . . .
35.1(33) . . .
33.4(33) . . .
33.4(30) . . .
41.0(33) . . .
44.0(34) . . .
33.8(30) . . .
44(4) . . .
34.6(31) . . .
31.3(30) . . .
40.8(33) . . .
46(4) . . .
25.9(26) . . .
31.1(30) . . .
27.5(27) . . .
34.3(30) . . .
36.3(32) . . .
35.1(33) . . .
28.9(28) . . .
30.1(29) . . .
29.4(29) . . .
33.3(32) . . .
42.1(35) . . .
33.6(31) . . .
32.3(29) . . .
31.0(29) . . .
39(4) . . .
28.6(28) . . .
34.0(31) . . .
36.5(31) . . .
35.4(33) . . .
31.2(30) . . .
41(4) . . .
33.6(30) . . .
34.5(31) . . .
33.2(30) . . .
33.9(31) . . .
28.3(28) . . .
33.9(31) . . .
36.0(32) . . .
35.9(32) . . .
38(4) . . .
37.6(33) . . .
30.5(28) . . .
30.6(30) . . .
40(4) . . .
40(4) . . .
34.8(31) . . .
44.3(34) . . .
35.1(32) . . .
34.6(35) . . .
33.7(34) . . .
33.5(33) . . .
34.1(31) . . .
31.2(29) . . .
35.2(34) . . .
35.1(31) . . .
38.6(33) . . .
35.2(32) . . .
38.7(32) . . .
39.4(35) . . .
35.2(32) . . .
31.1(30) . . .
34.8(31) . . .
43(4) . . .
39.2(34) . . .
34.3(31) . . .
34.5(32) . . .
29.4(28) . . .
33.1(30) . . .
33.8(34) . . .
27.9(30) . . .
23.8(27) . . .
31.9(30) . . .
36.3(33) . . .
33.4(33) . . .
30.4(29) . . .
32.5(31) . . .
33.7(30) . . .
36.3(32) . . .
37(4) . . .
34.6(32) . . .
31.8(29) . . .
42.5(34) . . .
36.8(33) . . .
35.6(32) . . .
30.5(29) . . .
29.6(29) . . .
26.6(26) . . .
24.1(25) . . .
33.3(32) . . .
30.0(30) . . .
33.3(31) . . .
30.3(29) . . .
27.3(28) . . .
35.7(33) . . .
26.4(27) . . .
36.7(32) . . .
37.9(32) . . .
32.9(30) . . .
40(4) . . .
31.8(30) . . .
36.3(32) . . .
33.7(30) . . .
34.2(32) . . .
29.6(30) . . .
35.1(33) . . .
29.8(29) . . .
30.4(29) . . .
34.4(31) . . .
36.0(34) . . .
28.6(29) . . .
30.2(29) . . .
35.3(31) . . .
30.3(28) . . .
41(4) . . .
41(4) . . .
28.1(28) . . .
34.2(31) . . .
33.0(33) . . .
26.7(28) . . .
33.7(31) . . .
37.4(32) . . .
35.5(32) . . .
33.1(30) . . .
34.7(33) . . .
33.2(31) . . .
29.1(28) . . .
29.7(28) . . .
33.6(31) . . .
27.0(26) . . .
34.5(31) . . .
28.8(29) . . .
34.4(32) . . .
31.3(28) . . .
38.3(34) . . .
36.5(32) . . .
34.3(31) . . .
35.2(32) . . .
34.5(32) . . .
31.6(31) . . .
38.0(33) . . .
33.0(30) . . .
29.6(30) . . .
33.1(35) . . .
33.4(33) . . .
42(4) . . .
28.1(28) . . .
43(4) . . .
34.7(32) . . .
37.6(32) . . .
33.5(30) . . .
35.1(30) . . .
32.1(31) . . .
34.0(34) . . .
36.6(33) . . .
36.8(32) . . .
30.9(29) . . .
35.6(33) . . .
35.4(35) . . .
32.6(32) . . .
24.0(25) . . .
38.3(32) . . .
36.1(32) . . .
38.7(34) . . .
32.6(34) . . .
27.6(28) . . .
35.2(31) . . .
37.4(33) . . .
45(4) . . .
40.1(33) . . .
26.5(27) . . .
37.3(33) . . .
32.9(30) . . .
25.8(29) . . .
26.6(29) . . .
42.9(34) . . .
26.6(27) . . .
30.9(31) . . .
40.0(35) . . .
31.4(31) . . .
31.9(30) . . .
38.8(33) . . .
31.9(30) . . .
29.8(28) . . .
29.4(29) . . .
42.6(34) . . .
35.2(31) . . .
39.8(35) . . .
37.6(34) . . .
32.3(30) . . .
35.0(30) . . .
37.2(34) . . .
40(4) . . .
37.8(32) . . .
30.5(29) . . .
37.8(32) . . .
34.6(31) . . .
43(4) . . .
25.5(26) . . .
33.0(30) . . .
36.2(32) . . .
36.3(33) . . .
36.1(34) . . .
38.2(32) . . .
33.1(30) . . .
39.8(33) . . .
42(4) . . .
33.3(33) . . .
26.7(28) . . .
30.4(29) . . .
33.7(30) . . .
32.4(30) . . .
29.2(28) . . .
32.6(30) . . .
35.4(31) . . .
33.9(32) . . .
34.0(31) . . .
31.8(29) . . .
37.7(32) . . .
30.7(29) . . .
30.5(29) . . .
40(4) . . .
41(4) . . .
26.8(28) . . .
31.5(29) . . .
35.6(31) . . .
27.7(28) . . .
34.6(32) . . .
31.3(30) . . .
34.9(31) . . .
36.2(32) . . .
26.1(27) . . .
33.2(31) . . .
41.8(34) . . .
26.1(27) . . .
33.1(32) . . .
34.0(31) . . .
31.1(29) . . .
37.4(32) . . .
33.4(30) . . .
50(4) . . .
30.7(30) . . .
38.0(33) . . .
34.7(31) . . .
31.6(30) . . .
37.5(33) . . .
29.7(31) . . .
30.1(30) . . .
30.0(29) . . .
31.7(29) . . .
35.0(31) . . .
24.2(26) . . .
30.5(31) . . .
35.5(32) . . .
31.6(29) . . .
30.3(30) . . .
35.1(35) . . .
24.1(26) . . .
33.6(31) . . .
36.7(32) . . .
37(4) . . .
26.8(26) . . .
37.6(32) . . .
39.7(33) . . .
31.0(29) . . .
32.3(30) . . .
29.5(27) . . .
44(4) . . .
34.1(30) . . .
40.0(34) . . .
43.3(35) . . .
40(4) . . .
37.3(33) . . .
36.0(32) . . .
36.2(33) . . .
27.6(29) . . .
28.8(30) . . .
31.0(30) . . .
33.6(30) . . .
33.7(32) . . .
32.0(30) . . .
30.7(29) . . .
33.0(30) . . .
38.0(32) . . .
35.3(31) . . .
32.2(31) . . .
32.7(32) . . .
32.2(29) . . .
41.6(34) . . .
37.0(32) . . .
34.1(33) . . .
28.1(30) . . .
34.6(32) . . .
34.9(32) . . .
25.8(26) . . .
27.6(27) . . .
32.9(30) . . .
22.7(24) . . .
31.7(30) . . .
31.7(30) . . .
33.9(32) . . .
30.8(29) . . .
30.3(28) . . .
34.3(31) . . .
41(4) . . .
31.4(31) . . .
34.9(34) . . .
37.6(32) . . .
32.7(30) . . .
42.8(34) . . .
31.5(29) . . .
27.5(27) . . .
31.6(29) . . .
37.2(32) . . .
35.1(32) . . .
33.0(31) . . .
40.7(35) . . .
37.9(32) . . .
36.4(32) . . .
31.1(28) . . .
37.8(33) . . .
28.9(29) . . .
31.9(30) . . .
32.6(31) . . .
30.6(31) . . .
33.2(33) . . .
33.3(31) . . .
34.2(30) . . .
36.3(32) . . .
32.5(29) . . .
32.4(31) . . .
28.5(28) . . .
42.7(34) . . .
36.3(31) . . .
45(4) . . .
32.9(31) . . .
32.5(30) . . .
31.7(29) . . .
30.5(30) . . .
39(4) . . .
40.4(35) . . .
30.3(29) . . .
34.3(30) . . .
50(4) . . .
33.9(29) . . .
34.7(30) . . .
30.7(29) . . .
36.1(32) . . .
31.5(31) . . .
29.8(30) . . .
37(4) . . .
42(4) . . .
30.6(28) . . .
28.2(28) . . .
38(4) . . .
37.3(33) . . .
35.4(31) . . .
28.3(27) . . .
35.2(33) . . .
32.7(33) . . .
35.3(31) . . .
40.7(33) . . .
35.9(32) . . .
37.7(34) . . .
31.8(31) . . .
36(4) . . .
34.6(31) . . .
40.2(35) . . .
37.1(34) . . .
32.3(30) . . .
39.5(33) . . .
33.9(31) . . .
36.0(32) . . .
34.9(32) . . .
34.3(33) . . .
42(4) . . .
39.9(34) . . .
26.1(27) . . .
31.7(30) . . .
37.7(32) . . .
42(4) . . .
40.8(33) . . .
41.3(33) . . .
38.9(33) . . .
36.5(33) . . .
34.9(30) . . .
38.9(32) . . .
28.8(27) . . .
34.7(32) . . .
37(4) . . .
33.6(30) . . .
28.5(29) . . .
34.9(32) . . .
31.7(30) . . .
30.9(30) . . .
30.4(29) . . .
26.0(26) . . .
37.1(33) . . .
41.0(35) . . .
32.5(31) . . .
25.8(26) . . .
33.7(30) . . .
33.1(31) . . .
31.0(29) . . .
37.7(33) . . .
29.6(28) . . .
37.1(32) . . .
43(4) . . .
37.0(33) . . .
35.0(31) . . .
32.3(29) . . .
29.4(29) . . .
38.2(35) . . .
36.5(33) . . .
34.0(31) . . .
30.0(29) . . .
43(4) . . .
38.7(33) . . .
46(4) . . .
28.1(29) . . .
33.9(31) . . .
28.3(28) . . .
40.6(34) . . .
32.0(30) . . .
38.6(33) . . .
39.3(33) . . .
33.5(30) . . .
36.8(34) . . .
29.9(30) . . .
31.4(29) . . .
43.3(34) . . .
37.2(34) . . .
32.0(30) . . .
31.5(30) . . .
24.9(26) . . .
32.5(30) . . .
23.0(25) . . .
29.3(30) . . .
31.5(30) . . .
36.4(33) . . .
35.2(31) . . .
36.3(31) . . .
32.5(30) . . .
27.6(27) . . .
36.1(33) . . .
42.2(35) . . .
35.3(33) . . .
39.8(34) . . .
33.9(31) . . .
38.1(32) . . .
33.2(30) . . .
30.6(29) . . .
25.9(27) . . .
34.6(32) . . .
32.2(29) . . .
37.2(32) . . .
34.9(33) . . .
32.1(31) . . .
37.2(31) . . .
34.2(31) . . .
27.3(27) . . .
32.1(31) . . .
31.8(30) . . .
36.3(33) . . .
35.1(31) . . .
36.0(32) . . .
37.7(35) . . .
31.2(30) . . .
29.1(29) . . .
36.3(31) . . .
36.4(32) . . .
34.7(31) . . .
37.1(33) . . .
33.8(31) . . .
32.9(30) . . .
29.1(28) . . .
34.5(32) . . .
34.3(31) . . .
39.2(32) . . .
29.6(29) . . .
40(4) . . .
34.7(31) . . .
32.3(31) . . .
29.6(28) . . .
37.9(32) . . .
35.6(32) . . .
31.0(32) . . .
33.6(32) . . .
41.2(33) . . .
38.6(32) . . .
33.0(31) . . .
36.2(33) . . .
37.7(32) . . .
36.8(31) . . .
29.7(29) . . .
32.4(31) . . .
32.0(31) . . .
37.0(34) . . .
36.3(32) . . .
31.6(30) . . .
37.8(34) . . .
32.6(31) . . .
32.4(32) . . .
34.3(31) . . .
37.1(32) . . .
40(4) . . .
24.8(28) . . .
33.9(32) . . .
43.6(34) . . .
42.4(34) . . .
35.6(33) . . .
35.3(32) . . .
47(4) . . .
35.0(30) . . .
33.4(30) . . .
40.1(35) . . .
34.5(33) . . .
28.9(30) . . .
33.2(30) . . .
31.6(29) . . .
33.8(32) . . .
36.0(32) . . .
36.3(32) . . .
42.3(34) . . .
47(4) . . .
35.2(31) . . .
32.7(32) . . .
30.0(31) . . .
28.7(28) . . .
30.6(31) . . .
30.3(29) . . .
32.3(30) . . .
30.2(29) . . .
32.2(29) . . .
39.3(33) . . .
31.0(30) . . .
34.2(31) . . .
33.9(31) . . .
38.2(33) . . .
41(4) . . .
30.4(30) . . .
33.1(31) . . .
31.2(29) . . .
35.7(31) . . .
31.0(29) . . .
36.2(33) . . .
32.8(31) . . .
35.0(32) . . .
25.7(27) . . .
25.1(26) . . .
31.0(31) . . .
25.3(26) . . .
28.1(28) . . .
32.4(30) . . .
25.5(27) . . .
29.2(31) . . .
44(4) . . .
29.4(29) . . .
21.5(24) . . .
27.6(29) . . .
31.6(34) . . .
28.4(28) . . .
27.4(27) . . .
27.4(27) . . .
29.9(30) . . .
34.7(33) . . .
46(4) . . .
34.2(30) . . .
27.8(28) . . .
42(4) . . .
38.0(34) . . .
31.4(31) . . .
33.3(30) . . .
33.8(32) . . .
34.0(32) . . .
35.3(33) . . .
41.1(34) . . .
37.2(32) . . .
33.4(31) . . .
26.1(29) . . .
34.6(32) . . .
33.9(31) . . .
27.6(27) . . .
28.0(30) . . .
20.1(22) . . .
36.9(33) . . .
30.3(30) . . .
32.8(30) . . .
31.9(31) . . .
29.3(29) . . .
37.2(33) . . .
40.8(35) . . .
38.7(32) . . .
35.7(32) . . .
32.6(32) . . .
38.7(35) . . .
34.4(32) . . .
42.6(34) . . .
33.5(30) . . .
31.7(29) . . .
42(4) . . .
29.4(31) . . .
34.2(30) . . .
36.0(32) . . .
41(4) . . .
32.0(30) . . .
32.6(30) . . .
30.8(29) . . .
32.9(31) . . .
37.7(35) . . .
35.3(31) . . .
29.5(29) . . .
41.0(34) . . .
41.8(34) . . .
31.3(30) . . .
36.0(33) . . .
33.2(29) . . .
27.6(27) . . .
36.8(33) . . .
40(4) . . .
36.9(34) . . .
31.0(29) . . .
31.0(30) . . .
35.9(34) . . .
27.1(28) . . .
41(4) . . .
34.5(30) . . .
35.5(31) . . .
28.5(28) . . .
37.9(34) . . .
33.7(31) . . .
26.0(26) . . .
33.6(31) . . .
33.9(32) . . .
37.0(35) . . .
33.2(32) . . .
36.6(32) . . .
36.5(34) . . .
27.5(28) . . .
33.7(30) . . .
40.3(35) . . .
41.5(33) . . .
36.3(32) . . .
29.6(31) . . .
33.8(31) . . .
42.1(34) . . .
29.9(29) . . .
28.3(30) . . .
37(4) . . .
40(4) . . .
36.4(32) . . .
28.1(28) . . .
31.0(29) . . .
40(4) . . .
28.6(28) . . .
32.2(32) . . .
30.9(30) . . .
40.3(35) . . .
32.8(32) . . .
32.0(29) . . .
38.7(32) . . .
38.3(33) . . .
38.0(33) . . .
31.8(31) . . .
33.9(32) . . .
31.0(30) . . .
37.9(33) . . .
36.3(33) . . .
39.7(35) . . .
31.0(30) . . .
40.5(33) . . .
35.9(31) . . .
29.6(30) . . .
37.9(34) . . .
33.5(30) . . .
34.2(30) . . .
43(4) . . .
38.0(31) . . .
34.3(31) . . .
39.0(33) . . .
39.4(33) . . .
33.0(31) . . .
43(4) . . .
36.8(33) . . .
35.1(31) . . .
30.2(28) . . .
24.7(26) . . .
33.6(33) . . .
30.4(30) . . .
35.2(32) . . .
35.5(32) . . .
33.9(31) . . .
39.4(35) . . .
33.1(31) . . .
34.7(30) . . .
33.6(31) . . .
40(4) . . .
33.8(34) . . .
33.6(31) . . .
35.6(31) . . .
38.7(32) . . .
32.4(29) . . .
38.2(32) . . .
39.8(32) . . .
35.5(31) . . .
43.0(34) . . .
29.9(28) . . .
26.8(29) . . .
27.7(27) . . .
35.5(31) . . .
35.4(31) . . .
40.0(34) . . .
33.2(31) . . .
29.6(29) . . .
35.1(31) . . .
26.7(27) . . .
40(4) . . .
33.1(32) . . .
29.7(30) . . .
30.9(29) . . .
34.1(33) . . .
37.3(33) . . .
23.6(25) . . .
34.2(32) . . .
41.9(34) . . .
30.8(30) . . .
33.2(31) . . .
26.1(27) . . .
loop_
_refln_index_h
_refln_index_k
_refln_index_l
_refln_observed_status
_refln_F_squared_meas
_refln_F_squared_calc
_refln_phase_calc
_refln_d_spacing
_gsas_i100_meas
0 2 0 o 986.815 1389.725 180.00 8.35838 4.37
0 0 2 o 0.000 16.190 180.00 6.42364 0.00
1 0 1 o 13638.776 14283.744 0.00 5.89071 59.98
0 2 2 o 30401.398 31038.891 0.00 5.09326 100.00
0 1 3 o 85.913 21.897 0.00 4.14846 0.19
0 3 1 o 1326.356 1348.787 180.00 5.11211 4.40
1 1 2 o 4513.948 4240.319 0.00 4.44675 22.65
0 4 0 o 1846.298 907.258 0.00 4.17919 2.05
1 2 1 o 1740.798 1748.427 0.00 4.81505 10.24
1 0 3 o 242.786 202.531 180.00 3.59704 0.40
0 0 4 o 334.202 121.757 180.00 3.21182 0.22
0 2 4 o 1658.294 1921.563 0.00 2.99809 1.90
0 3 3 o 12264.065 11479.329 0.00 3.39551 17.97
1 2 3 o 1192.683 1267.639 0.00 3.30407 3.31
1 4 1 o 909.698 887.882 180.00 3.40852 2.69
0 5 1 o 83.713 61.334 180.00 3.23558 0.11
1 1 4 o 32.978 32.679 0.00 2.84813 0.07
1 3 2 o 3658.546 3563.694 0.00 3.55334 11.74
0 4 2 o 1.646 0.863 0.00 3.50306 0.00
0 1 5 o 1644.900 1813.859 180.00 2.53963 1.35
2 0 0 o 2064.630 1988.966 180.00 3.31429 1.44
0 6 0 o 1184.236 1398.536 0.00 2.78613 0.59
1 0 5 o 579.591 305.400 180.00 2.39576 0.42
2 1 1 o 921.919 953.849 180.00 3.15167 2.33
2 0 2 o 385.420 441.961 0.00 2.94536 0.43
2 2 0 o 158.492 201.903 0.00 3.08092 0.19
1 3 4 o 46.265 100.363 0.00 2.56575 0.08
0 0 6 o 2590.276 3605.077 0.00 2.14121 0.76
1 2 5 o 405.521 475.420 0.00 2.30302 0.55
0 3 5 o 54.859 207.059 0.00 2.33333 0.04
2 1 3 o 1384.005 1408.711 0.00 2.58939 2.37
2 3 1 o 820.288 900.090 0.00 2.78097 1.62
2 2 2 o 2203.508 2235.021 180.00 2.77793 4.33
0 4 4 o 9444.919 11503.165 0.00 2.54663 7.82
1 4 3 o 5082.327 5090.539 0.00 2.72627 9.63
0 2 6 o 129.521 123.529 180.00 2.07423 0.07
1 5 2 o 3055.209 2865.338 180.00 2.70710 5.71
1 6 1 o 767.482 747.899 0.00 2.51862 1.24
0 6 2 o 87.547 143.462 0.00 2.55605 0.07
2 4 0 o 1652.677 1792.881 180.00 2.59681 1.42
1 1 6 o 809.607 757.356 180.00 2.02257 0.85
2 0 4 o 2077.334 2328.248 180.00 2.30647 1.41
0 7 1 o 152.000 289.577 0.00 2.34789 0.11
0 5 3 o 652.753 594.528 180.00 2.63533 0.58
2 2 4 o 53.050 48.714 0.00 2.22337 0.07
0 1 7 o 321.982 531.913 0.00 1.82436 0.14
2 3 3 o 40.016 136.102 180.00 2.37175 0.06
0 8 0 o 26.902 20.586 180.00 2.08959 0.01
2 5 1 o 2.591 5.289 180.00 2.31523 0.00
2 4 2 o 85.585 51.312 180.00 2.40753 0.13
1 0 7 o 1272.220 1100.868 0.00 1.76878 0.51
2 1 5 o 384.467 356.377 180.00 2.01585 0.40
1 4 5 o 8.214 7.908 180.00 2.07846 0.01
1 3 6 o 635.992 610.575 0.00 1.91362 0.60
0 4 6 o 1838.654 1585.648 180.00 1.90565 0.86
2 6 0 o 1228.072 1204.404 180.00 2.13268 0.72
1 5 4 o 5125.381 5377.420 0.00 2.18656 6.27
1 7 2 o 2709.531 2528.719 0.00 2.12076 3.12
0 3 7 o 1375.120 1402.544 0.00 1.74320 0.54
0 5 5 o 19793.484 20518.861 0.00 2.03730 10.53
1 2 7 o 591.057 638.718 180.00 1.73045 0.46
2 0 6 o 1.765 2.483 180.00 1.79852 0.00
0 0 8 o 71.440 98.090 0.00 1.60591 0.01
1 8 1 o 727.479 764.907 180.00 1.96936 0.72
0 8 2 o 3208.514 2482.564 180.00 1.98710 1.63
1 6 3 o 4966.339 4680.514 180.00 2.20266 6.17
2 3 5 o 1147.011 964.626 0.00 1.90793 1.07
0 2 8 o 623.949 533.945 180.00 1.57706 0.20
3 0 1 o 2907.668 2648.001 180.00 2.17755 1.76
0 7 3 o 6806.156 5729.196 0.00 2.08572 3.79
2 4 4 o 1299.573 1285.352 180.00 2.01935 1.36
1 1 8 o 880.887 767.148 0.00 1.55400 0.55
2 2 6 o 1551.742 1420.117 180.00 1.75828 1.24
0 6 4 o 9290.772 7546.432 180.00 2.10462 5.27
2 6 2 o 540.386 486.500 180.00 2.02404 0.57
3 1 2 o 2842.069 2923.327 180.00 2.07325 3.13
0 9 1 o 2694.852 3032.442 0.00 1.83830 1.17
2 7 1 o 258.815 256.958 180.00 1.91586 0.24
3 2 1 o 49.748 52.271 0.00 2.10722 0.06
2 5 3 o 395.794 316.694 0.00 2.06272 0.43
3 0 3 o 2623.272 2723.750 0.00 1.96357 1.30
2 1 7 o 238.157 336.036 0.00 1.59823 0.16
1 4 7 o 223.696 254.173 180.00 1.62889 0.15
1 5 6 o 1173.598 1337.656 0.00 1.73990 0.92
0 1 9 o 2016.008 2140.272 0.00 1.42230 0.53
3 2 3 o 4765.000 4175.874 180.00 1.91153 4.47
1 3 8 o 129.487 147.616 0.00 1.50292 0.08
2 8 0 o 44.065 37.660 0.00 1.76760 0.02
3 4 1 o 817.998 469.256 180.00 1.93113 0.78
0 10 0 o 10764.579 10843.530 180.00 1.67168 1.94
3 1 4 o 3095.317 3134.015 0.00 1.80967 2.61
0 5 7 o 3.303 4.888 0.00 1.60885 0.00
3 3 2 o 1151.067 708.663 0.00 1.95637 1.13
1 0 9 o 340.688 430.872 180.00 1.39548 0.09
1 6 5 o 271.267 371.931 0.00 1.81653 0.23
0 4 8 o 0.802 0.792 0.00 1.49904 0.00
1 9 2 o 9.060 7.916 0.00 1.72299 0.01
1 8 3 o 128.187 125.317 0.00 1.80684 0.11
2 3 7 o 2002.368 2003.941 180.00 1.54281 1.24
2 4 6 o 1788.690 1862.948 0.00 1.65203 1.26
3 0 5 o 2891.993 2639.152 180.00 1.67530 1.05
0 6 6 o 5412.373 6143.363 0.00 1.69775 2.01
2 0 8 o 1215.311 1045.179 180.00 1.44519 0.33
2 5 5 o 2078.471 2482.810 180.00 1.73561 1.61
0 3 9 o 19.005 29.490 0.00 1.38282 0.00
1 2 9 o 23.521 31.244 180.00 1.37643 0.01
2 2 8 o 706.672 694.882 0.00 1.42406 0.37
3 3 4 o 214.990 238.318 180.00 1.73038 0.17
1 10 1 o 384.801 550.114 180.00 1.60817 0.26
2 8 2 o 12.056 9.780 0.00 1.70426 0.01
0 9 3 o 176.661 144.459 180.00 1.70404 0.07
0 0 10 o 5227.408 4874.567 180.00 1.28473 0.57
0 10 2 o 237.891 427.490 0.00 1.61779 0.08
3 2 5 o 28.228 53.344 0.00 1.64263 0.02
1 7 4 o 434.579 453.847 180.00 1.84102 0.38
2 7 3 o 1623.151 1472.670 180.00 1.76526 1.30
3 4 3 o 348.547 290.076 180.00 1.77718 0.28
2 6 4 o 1492.024 1265.196 0.00 1.77667 1.21
3 6 1 o 1855.764 1459.292 180.00 1.71570 1.41
3 5 2 o 486.820 405.058 0.00 1.77184 0.39
0 7 5 o 1709.661 1424.896 180.00 1.74925 0.67
2 9 1 o 37.479 50.894 180.00 1.60758 0.03
3 1 6 o 5.368 11.309 180.00 1.53118 0.00
0 8 4 o 1112.841 859.486 0.00 1.75153 0.44
0 2 10 o 351.903 355.611 0.00 1.26981 0.07
1 5 8 o 72.683 83.685 180.00 1.41425 0.04
0 11 1 o 4239.340 5014.765 180.00 1.50918 1.25
2 1 9 o 916.320 1274.196 180.00 1.30703 0.41
1 1 10 o 77.345 57.468 0.00 1.25768 0.03
1 6 7 o 757.266 713.646 0.00 1.49327 0.44
1 4 9 o 33.479 35.297 0.00 1.32364 0.02
3 0 7 o 1030.936 1218.890 180.00 1.41180 0.27
2 10 0 o 269.785 248.267 0.00 1.49256 0.08
2 5 7 o 2368.589 2106.412 0.00 1.44734 1.29
3 4 5 o 40.263 33.919 180.00 1.55501 0.03
3 3 6 o 2.905 2.561 180.00 1.48225 0.00
1 3 10 o 0.010 0.008 0.00 1.23014 0.00
0 6 8 o 8.971 10.668 180.00 1.39133 0.00
2 4 8 o 2095.603 1931.953 180.00 1.36583 1.02
2 6 6 o 2472.374 2941.626 180.00 1.51104 1.46
1 7 6 o 320.170 315.764 0.00 1.55003 0.20
0 5 9 o 52.185 55.802 0.00 1.31282 0.01
0 12 0 o 2139.317 2602.863 0.00 1.39306 0.27
3 7 2 o 2022.241 1926.213 180.00 1.57249 1.29
3 2 7 o 26.058 31.136 0.00 1.39208 0.01
1 10 3 o 20.046 24.209 180.00 1.51596 0.01
0 7 7 o 3855.816 4577.768 0.00 1.45522 1.06
3 5 4 o 241.193 499.581 180.00 1.59875 0.16
2 3 9 o 770.615 728.122 0.00 1.27619 0.33
4 0 0 o 1521.690 1801.327 0.00 1.65714 0.27
0 4 10 o 11.953 10.600 180.00 1.22801 0.00
1 11 2 o 246.028 198.736 180.00 1.44339 0.13
4 1 1 o 1105.025 744.356 0.00 1.63564 0.76
3 6 3 o 519.328 682.639 0.00 1.60502 0.35
4 0 2 o 96.179 125.310 180.00 1.60461 0.03
2 10 2 o 239.504 264.982 180.00 1.45384 0.13
4 2 0 o 425.011 212.333 180.00 1.62550 0.15
3 8 1 o 104.615 119.805 0.00 1.50770 0.06
1 9 4 o 267.337 254.606 0.00 1.56259 0.17
2 9 3 o 227.451 260.243 0.00 1.51546 0.14
3 1 8 o 1138.439 1346.144 180.00 1.29514 0.50
0 11 3 o 537.538 428.162 0.00 1.43220 0.14
4 2 2 o 1382.066 1510.230 0.00 1.57583 0.89
1 8 5 o 470.926 519.351 180.00 1.57476 0.30
2 7 5 o 1915.409 1948.445 0.00 1.54700 1.19
4 3 1 o 788.791 771.030 180.00 1.57639 0.51
4 1 3 o 472.505 529.548 180.00 1.53891 0.29
0 12 2 o 4902.871 4209.892 180.00 1.36142 1.19
1 12 1 o 23.749 17.281 180.00 1.35567 0.01
0 10 4 o 276.779 222.095 180.00 1.48285 0.08
4 4 0 o 1346.980 1617.654 0.00 1.54046 0.41
2 11 1 o 419.348 454.155 0.00 1.37349 0.21
0 8 6 o 1485.191 1439.857 180.00 1.49548 0.43
2 8 4 o 2000.281 2214.320 180.00 1.54858 1.24
4 0 4 o 910.679 1167.500 0.00 1.47268 0.26
3 4 7 o 80.822 85.573 0.00 1.33754 0.04
4 2 4 o 882.283 766.863 180.00 1.45034 0.48
1 7 8 o 486.364 795.230 0.00 1.30648 0.22
1 6 9 o 296.650 156.650 180.00 1.24772 0.12
3 5 6 o 231.189 305.372 180.00 1.39699 0.12
3 3 8 o 16.435 14.924 180.00 1.26512 0.01
2 5 9 o 1280.980 1392.726 180.00 1.22055 0.50
4 1 5 o 1151.240 1366.467 0.00 1.38782 0.58
4 3 3 o 2262.792 1942.919 0.00 1.48925 1.30
4 5 1 o 2297.690 2505.301 0.00 1.47495 1.30
4 4 2 o 1729.682 1339.053 180.00 1.49799 1.01
3 6 5 o 41.457 27.635 180.00 1.43573 0.02
3 9 2 o 5.779 6.681 180.00 1.38819 0.00
2 6 8 o 1995.658 1794.302 0.00 1.28288 0.86
0 13 1 o 2959.334 2658.142 0.00 1.27951 0.64
0 9 5 o 625.599 883.255 0.00 1.50530 0.18
3 8 3 o 624.346 622.334 180.00 1.43093 0.33
2 12 0 o 632.706 565.578 180.00 1.28423 0.14
4 6 0 o 4340.172 3929.690 180.00 1.42426 1.15
1 8 7 o 72.430 50.680 0.00 1.35005 0.03
2 7 7 o 2532.326 2814.029 180.00 1.33244 1.18
0 7 9 o 381.211 410.472 0.00 1.22527 0.08
4 0 6 o 1178.866 1406.911 180.00 1.31051 0.27
3 10 1 o 87.549 154.314 0.00 1.32600 0.04
3 7 4 o 81.180 70.605 0.00 1.44773 0.04
4 3 5 o 202.380 151.122 180.00 1.35108 0.10
1 12 3 o 110.819 133.427 180.00 1.29905 0.05
4 2 6 o 416.593 490.032 0.00 1.29469 0.18
0 8 8 o 851.992 853.811 0.00 1.27331 0.18
1 13 2 o 50.586 17.537 180.00 1.23868 0.02
4 4 4 o 665.042 703.939 0.00 1.38896 0.33
1 11 4 o 17.410 14.093 180.00 1.34511 0.01
2 11 3 o 912.618 834.261 180.00 1.31470 0.41
4 6 2 o 1033.625 1195.880 0.00 1.39049 0.52
3 5 8 o 159.121 319.262 0.00 1.21085 0.06
2 8 6 o 2587.375 2324.975 0.00 1.36314 1.26
2 12 2 o 1223.963 1066.657 0.00 1.25931 0.51
4 5 3 o 497.219 440.759 180.00 1.40284 0.26
4 7 1 o 3255.720 2499.843 180.00 1.35388 1.56
2 10 4 o 1120.039 862.265 0.00 1.35355 0.54
1 9 6 o 235.666 197.568 180.00 1.37266 0.12
3 6 7 o 795.319 699.314 180.00 1.25935 0.33
4 1 7 o 520.171 543.237 180.00 1.22664 0.21
1 10 5 o 130.601 114.413 0.00 1.37093 0.06
0 12 4 o 157.791 136.750 180.00 1.27803 0.03
0 9 7 o 14.086 30.192 180.00 1.30551 0.00
0 13 3 o 1113.651 803.229 180.00 1.23158 0.22
4 8 0 o 1479.454 1755.323 0.00 1.29840 0.33
2 9 5 o 3107.467 2886.115 180.00 1.37056 1.52
3 7 6 o 58.177 71.989 0.00 1.29284 0.03
4 4 6 o 55.576 27.847 180.00 1.25047 0.02
4 5 5 o 316.703 280.947 0.00 1.28557 0.14
0 11 5 o 179.270 255.372 0.00 1.30804 0.04
3 10 3 o 214.980 218.377 180.00 1.27287 0.09
3 11 2 o 583.094 581.563 0.00 1.22900 0.23
3 9 4 o 59.982 70.563 180.00 1.30010 0.03
4 8 2 o 1619.676 1651.070 180.00 1.27267 0.69
3 8 5 o 17.194 39.649 180.00 1.30708 0.01
4 7 3 o 413.541 590.944 0.00 1.29747 0.18
4 6 4 o 130.477 144.711 180.00 1.30199 0.06
5 0 1 o 1635.354 1744.942 0.00 1.31871 0.37
4 9 1 o 1519.564 1294.125 0.00 1.23086 0.61
0 10 6 o 17.746 9.963 180.00 1.31766 0.00
5 1 2 o 309.779 337.526 0.00 1.29445 0.14
5 2 1 o 364.309 456.400 0.00 1.30260 0.16
5 0 3 o 22.864 27.565 0.00 1.26642 0.00
2 9 7 o 38.683 102.823 0.00 1.21467 0.02
5 2 3 o 495.570 306.741 0.00 1.25213 0.20
5 4 1 o 9.109 9.719 180.00 1.25759 0.00
5 3 2 o 586.329 449.753 0.00 1.26448 0.25
5 1 4 o 28.195 19.994 0.00 1.22215 0.01
1 10 7 o 37.208 92.194 180.00 1.21493 0.01
2 11 5 o 0.000 17.193 180.00 1.21671 0.00
2 10 6 o 131.526 238.554 180.00 1.22444 0.05
5 4 3 o 756.370 924.070 0.00 1.21199 0.29
5 5 2 o 183.486 245.226 180.00 1.21030 0.07
1 11 6 o 57.997 60.855 0.00 1.21819 0.02
