#------------------------------------------------------------------------------
#$Date: 2016-03-21 01:21:50 +0200 (Mon, 21 Mar 2016) $
#$Revision: 178377 $
#$URL: svn://www.crystallography.net/cod/cif/4/00/20/4002091.cif $
#------------------------------------------------------------------------------
#
# This file is available in the Crystallography Open Database (COD),
# http://www.crystallography.net/
#
# All data on this site have been placed in the public domain by the
# contributors.
#
data_4002091
loop_
_publ_author_name
'Nanthamathee, Chompoonoot'
'Ling, Sanliang'
'Slater, Ben'
'Attfield, Martin P.'
_publ_section_title
;
 Contradistinct Thermoresponsive Behavior of Isostructural MIL-53 Type
 Metal--Organic Frameworks by Modifying the Framework Inorganic Anion
;
_journal_name_full               'Chemistry of Materials'
_journal_page_first              141223143002002
_journal_paper_doi               10.1021/cm503311x
_journal_year                    2014
_chemical_formula_sum            'C8 Al F O4'
_chemical_formula_weight         206.06
_chemical_name_systematic        ' ?'
_space_group_IT_number           15
_symmetry_cell_setting           monoclinic
_symmetry_space_group_name_Hall  '-I 2b'
_symmetry_space_group_name_H-M   'I 1 1 2/b'
_audit_creation_date             2014-08-28T13:11
_audit_creation_method           'from EXP file using GSAS2CIF'
_audit_update_record
' 2014-08-28T13:11  Initial CIF as created by GSAS2CIF'
_cell_angle_alpha                90.0
_cell_angle_beta                 90.0
_cell_angle_gamma                90.3983(23)
_cell_formula_units_Z            4
_cell_length_a                   6.56198(18)
_cell_length_b                   16.4171(6)
_cell_length_c                   13.1717(7)
_cell_volume                     1418.94(10)
_computing_structure_refinement  GSAS
_diffrn_radiation_polarisn_ratio 0.95
_diffrn_radiation_probe          x-ray
_diffrn_radiation_wavelength     0.825993
_exptl_absorpt_correction_T_max  1.00000
_exptl_absorpt_correction_T_min  1.00000
_exptl_absorpt_process_details
;   GSAS Absorption/surface roughness correction: function number 0
 No correction is applied.
;
_pd_block_id                     2014-08-28T13:11|125K|175K|Synchrotron_I11
_pd_calc_method                  'Rietveld Refinement'
_pd_instr_location               ' ?'
_pd_meas_2theta_range_inc        0.003
_pd_meas_2theta_range_max        149.9955
_pd_meas_2theta_range_min        0.0015
_pd_meas_number_of_points        49999
_pd_phase_name                   300K
_pd_proc_2theta_range_inc        0.003
_pd_proc_2theta_range_max        150.00487
_pd_proc_2theta_range_min        0.010868
_pd_proc_info_datetime           2014-08-28T13:11:18
_pd_proc_info_excluded_regions   ' ?'
_pd_proc_ls_background_function
;   GSAS Background function number 1 with  2 terms.
 Shifted Chebyshev function of 1st kind
      1:    0.00000     2:    0.00000    
;
_pd_proc_ls_peak_cutoff          0.00001
_pd_proc_ls_profile_function
;
 CW Profile function number 4 with  21 terms
 Pseudovoigt profile coefficients as parameterized in
 P. Thompson, D.E. Cox & J.B. Hastings (1987). J. Appl. Cryst.,20,79-83.
 Asymmetry correction of L.W. Finger, D.E. Cox & A. P. Jephcoat (1994).
 J. Appl. Cryst.,27,892-900.
 Microstrain broadening by P.W. Stephens,  (1999). J. Appl. Cryst.,32,281-289.
 Peak tails are ignored  where the intensity is below 0.0000 times the peak
   Aniso. broadening axis   1.0   0.0   1.0
;
_pd_proc_ls_prof_R_factor        0.0323
_pd_proc_ls_prof_wR_expected     0.0239
_pd_proc_ls_prof_wR_factor       0.0412
_pd_proc_number_of_points        49999
_pd_spec_mounting                ' ?'
_refine_ls_goodness_of_fit_all   1.73
_refine_ls_matrix_type           full
_refine_ls_number_parameters     41
_refine_ls_number_restraints     0
_refine_ls_R_Fsqd_factor         0.16881
_refine_ls_shift/su_max          0.04
_refine_ls_shift/su_mean         0.01
_reflns_d_resolution_high        1.207
_reflns_d_resolution_low         8.208
_reflns_limit_h_max              5
_reflns_limit_h_min              -5
_reflns_limit_k_max              14
_reflns_limit_k_min              0
_reflns_limit_l_max              11
_reflns_limit_l_min              0
_reflns_number_total             422
_cod_data_source_file            alf125K.cif
_cod_data_source_block           125K_publ
_cod_depositor_comments
;
The following automatic conversions were performed:

'_geom_bond_publ_flag' value 'N' changed to 'n' according to
/home/saulius/struct/COD-crude-data--automatic-downloads/rss-feeds/ACS/lib/dictionaries/cif_core.dic
dictionary named 'cif_core.dic' version 2.4.2 from 2011-04-26 (22
times).

'_geom_angle_publ_flag' value 'N' changed to 'n' according
to
/home/saulius/struct/COD-crude-data--automatic-downloads/rss-feeds/ACS/lib/dictionaries/cif_core.dic
dictionary named 'cif_core.dic' version 2.4.2 from 2011-04-26 (26
times).

Automatic conversion script
Id: cif_fix_values 2935 2014-11-11 08:27:57Z andrius 
;
_cod_original_cell_volume        1418.93(9)
_cod_database_code               4002091
#BEGIN Tags that were not found in dictionaries:
_gsas_exptl_extinct_corr_t_min   1.00000
_gsas_exptl_extinct_corr_t_max   1.00000
#END Tags that were not found in dictionaries
loop_
_symmetry_equiv_pos_site_id
_symmetry_equiv_pos_as_xyz
1 +x,+y,+z
2 -x,-y+1/2,+z
-1 -x,-y,-z
-2 +x,+y+1/2,-z
101 +x+1/2,+y+1/2,+z+1/2
102 -x+1/2,-y,+z+1/2
-101 -x+1/2,-y+1/2,-z+1/2
-102 +x+1/2,+y,-z+1/2
loop_
_atom_site_type_symbol
_atom_site_label
_atom_site_fract_x
_atom_site_fract_y
_atom_site_fract_z
_atom_site_occupancy
_atom_site_thermal_displace_type
_atom_site_U_iso_or_equiv
_atom_site_symmetry_multiplicity
Al Al1 0.25 0.25 0.75 1.0 Uiso 0.0140(17) 4
F F1 0.0 0.25 0.6905(6) 1.0 Uiso 0.0087(13) 4
O O1 0.1618(11) 0.1723(4) 0.8466(8) 1.0 Uiso 0.0087(13) 8
O O2 -0.1742(11) 0.6621(4) -0.8314(8) 1.0 Uiso 0.0087(13) 8
C C3 -0.1936(22) 0.0232(9) -0.0467(11) 1.0 Uiso 0.0105(22) 8
C C2 -0.0036(27) 0.0659(7) 0.9438(9) 1.0 Uiso 0.0105(22) 8
C C1 -0.0048(24) 0.1355(7) 0.8697(9) 1.0 Uiso 0.0105(22) 8
C C4 0.2001(22) 0.5357(9) -0.9708(12) 1.0 Uiso 0.0105(22) 8
loop_
_atom_type_symbol
_atom_type_number_in_cell
_atom_type_scat_dispersion_real
_atom_type_scat_dispersion_imag
_atom_type_scat_Cromer_Mann_a1
_atom_type_scat_Cromer_Mann_a2
_atom_type_scat_Cromer_Mann_a3
_atom_type_scat_Cromer_Mann_a4
_atom_type_scat_Cromer_Mann_b1
_atom_type_scat_Cromer_Mann_b2
_atom_type_scat_Cromer_Mann_b3
_atom_type_scat_Cromer_Mann_b4
_atom_type_scat_Cromer_Mann_c
_atom_type_scat_source
Al 4.0 0.000 0.000 6.42020 3.03870 1.90020 0.74260 1.59360 31.5472 1.96460
85.0886 1.11510 International_Tables_Vol_C
F 4.0 0.000 0.000 3.53920 10.2825 2.64120 4.29440 1.51700 0.26150 1.02430
26.1476 0.27760 International_Tables_Vol_C
O 16.0 0.000 0.000 3.04850 13.2771 2.28680 5.70110 1.54630 0.32390 0.86700
32.9089 0.25080 International_Tables_Vol_C
C 32.0 0.000 0.000 2.31000 20.8439 1.02000 10.2075 1.58860 0.56870 0.86500
51.6512 0.21560 International_Tables_Vol_C
loop_
_geom_angle_atom_site_label_1
_geom_angle_atom_site_label_2
_geom_angle_atom_site_label_3
_geom_angle
_geom_angle_site_symmetry_1
_geom_angle_site_symmetry_3
_geom_angle_publ_flag
F1 Al1 F1 180.0 1_555 -101_566 n
F1 Al1 O1 91.04(26) 1_555 1_555 n
F1 Al1 O1 88.96(26) 1_555 -101_445 n
F1 Al1 O2 90.13(28) 1_555 -1_565 n
F1 Al1 O2 89.87(28) 1_555 101_546 n
F1 Al1 O1 88.96(26) -101_445 1_555 n
F1 Al1 O1 91.04(26) -101_445 -101_445 n
F1 Al1 O2 89.87(28) -101_445 -1_565 n
F1 Al1 O2 90.13(28) -101_445 101_546 n
O1 Al1 O1 180.0 1_555 -101_445 n
O1 Al1 O2 93.03(32) 1_555 -1_565 n
O1 Al1 O2 86.97(32) 1_555 101_546 n
O1 Al1 O2 86.97(32) -101_445 -1_565 n
O1 Al1 O2 93.03(32) -101_445 101_546 n
O2 Al1 O2 180.0 -1_565 101_546 n
Al1 F1 Al1 128.9(4) 1_555 2_555 n
Al1 O1 C1 137.3(9) 1_555 1_555 n
Al1 O2 C1 135.7(8) -1_565 -2_565 n
C2 C3 C4 115.2(13) 1_554 2_556 n
C3 C2 C1 114.9(15) 1_556 1_555 n
C3 C2 C4 127.0(10) 1_556 -2_555 n
C1 C2 C4 115.0(14) 1_555 -2_555 n
O1 C1 O2 118.5(9) 1_555 -2_444 n
O1 C1 C2 120.2(13) 1_555 1_555 n
O2 C1 C2 121.1(13) -2_555 1_555 n
C3 C4 C2 112.6(13) 2_554 -2_565 n
loop_
_geom_bond_atom_site_label_1
_geom_bond_atom_site_label_2
_geom_bond_distance
_geom_bond_site_symmetry_2
_geom_bond_publ_flag
Al1 F1 1.8183(34) 1_555 n
Al1 F1 1.8183(34) -101_445 n
Al1 O1 1.889(8) 1_555 n
Al1 O1 1.889(8) -101_445 n
Al1 O2 1.868(8) -1_565 n
Al1 O2 1.868(8) 101_546 n
F1 Al1 1.8183(34) 1_555 n
F1 Al1 1.8183(34) 2_555 n
O1 Al1 1.889(8) 1_555 n
O1 C1 1.282(14) 1_555 n
O2 Al1 1.868(8) -1_565 n
O2 C1 1.299(12) -2_555 n
C3 C2 1.432(16) 1_554 n
C3 C4 1.391(10) 2_556 n
C2 C3 1.432(16) 1_556 n
C2 C1 1.502(9) 1_555 n
C2 C4 1.472(16) -2_545 n
C1 O1 1.282(14) 1_555 n
C1 O2 1.299(12) -2_545 n
C1 C2 1.502(9) 1_555 n
C4 C3 1.391(10) 2_554 n
C4 C2 1.472(16) -2_555 n
loop_
_pd_meas_intensity_total
_pd_proc_ls_weight
_pd_proc_intensity_bkg_calc
_pd_calc_intensity_total
19.9(24) 0.0 0.00 .
23.3(26) 0.0 0.00 .
23.0(26) 0.0 0.00 .
22.8(25) 0.0 0.00 .
51(4) 0.0 0.0 .
214(8) 0.0 0.0 .
167(7) 0.0 0.0 .
994(17) 0.0 0.0 .
1772(22) 0.0 0.0 .
3388(31) 0.0 0.0 .
3631(31) 0.0 0.0 .
3670(32) 0.0 0.0 .
3640(33) 0.0 0.0 .
1223(19) 0.0 0.0 .
97(5) 0.0 0.0 .
70(4) 0.0 0.0 .
45(4) 0.0 0.0 .
49(4) 0.0 0.0 .
40.3(34) 0.0 0.00 .
69(5) 0.0 0.0 .
243(8) 0.0 0.0 .
390(10) 0.0 0.0 .
788(16) 0.0 0.0 .
985(17) 0.0 0.0 .
1092(17) 0.0 0.0 .
1276(19) 0.0 0.0 .
1415(20) 0.0 0.0 .
1517(21) 0.0 0.0 .
1774(22) 0.0 0.0 .
1965(23) 0.0 0.0 .
2154(24) 0.0 0.0 .
2103(25) 0.0 0.0 .
1927(24) 0.0 0.0 .
1632(22) 0.0 0.0 .
1131(17) 0.0 0.0 .
670(14) 0.0 0.0 .
316(9) 0.0 0.0 .
223(8) 0.0 0.0 .
143(6) 0.0 0.0 .
83(5) 0.0 0.0 .
52(4) 0.0 0.0 .
36.2(32) 0.0 0.00 .
32.0(32) 0.0 0.00 .
28.2(29) 0.0 0.00 .
35.5(31) 0.0 0.00 .
29.5(29) 0.0 0.00 .
30.3(31) 0.0 0.00 .
25.5(27) 0.0 0.00 .
30.4(30) 0.0 0.00 .
37.5(32) 0.0 0.00 .
31.7(30) 0.0 0.00 .
30.9(30) 0.0 0.00 .
32.7(31) 0.0 0.00 .
26.9(27) 0.0 0.00 .
27.8(28) 0.0 0.00 .
30.2(29) 0.0 0.00 .
28.4(29) 0.0 0.00 .
29.4(28) 0.0 0.00 .
37.2(33) 0.0 0.00 .
33.9(30) 0.0 0.00 .
28.8(29) 0.0 0.00 .
32.0(31) 0.0 0.00 .
32.6(30) 0.0 0.00 .
36.2(32) 0.0 0.00 .
31.0(29) 0.0 0.00 .
34.2(31) 0.0 0.00 .
28.0(27) 0.0 0.00 .
35.2(31) 0.0 0.00 .
26.7(27) 0.0 0.00 .
35.9(31) 0.0 0.00 .
35.7(32) 0.0 0.00 .
39(4) 0.0 0.0 .
33.5(33) 0.0 0.00 .
34.2(31) 0.0 0.00 .
30.5(28) 0.0 0.00 .
33.1(32) 0.0 0.00 .
41(4) 0.0 0.0 .
29.4(28) 0.0 0.00 .
35.5(31) 0.0 0.00 .
27.7(28) 0.0 0.00 .
34.6(32) 0.0 0.00 .
34.5(33) 0.0 0.00 .
29.3(28) 0.0 0.00 .
30.8(29) 0.0 0.00 .
44.0(35) 0.0 0.00 .
44(4) 0.0 0.0 .
40.0(34) 0.0 0.00 .
32.2(30) 0.0 0.00 .
35.2(31) 0.0 0.00 .
35.8(31) 0.0 0.00 .
39.8(34) 0.0 0.00 .
32.6(32) 0.0 0.00 .
42.5(35) 0.0 0.00 .
54(4) 0.0 0.0 .
55(4) 0.0 0.0 .
58(4) 0.0 0.0 .
75(5) 0.0 0.0 .
79(5) 0.0 0.0 .
93(5) 0.0 0.0 .
106(6) 0.0 0.0 .
105(5) 0.0 0.0 .
104(5) 0.0 0.0 .
118(6) 0.0 0.0 .
145(6) 0.0 0.0 .
129(6) 0.0 0.0 .
150(7) 0.0 0.0 .
133(6) 0.0 0.0 .
164(7) 0.0 0.0 .
176(7) 0.0 0.0 .
170(7) 0.0 0.0 .
182(7) 0.0 0.0 .
206(8) 0.0 0.0 .
202(7) 0.0 0.0 .
234(8) 0.0 0.0 .
228(8) 0.0 0.0 .
229(8) 0.0 0.0 .
250(8) 0.0 0.0 .
260(8) 0.0 0.0 .
290(9) 0.0 0.0 .
276(9) 0.0 0.0 .
287(10) 0.0 0.0 .
290(9) 0.0 0.0 .
304(9) 0.0 0.0 .
316(9) 0.0 0.0 .
328(10) 0.0 0.0 .
313(10) 0.0 0.0 .
348(10) 0.0 0.0 .
347(10) 0.0 0.0 .
355(10) 0.0 0.0 .
327(10) 0.0 0.0 .
363(11) 0.0 0.0 .
396(11) 0.0 0.0 .
426(11) 0.0 0.0 .
409(11) 0.0 0.0 .
431(11) 0.0 0.0 .
421(11) 0.0 0.0 .
412(11) 0.0 0.0 .
435(11) 0.0 0.0 .
405(11) 0.0 0.0 .
462(12) 0.0 0.0 .
467(12) 0.0 0.0 .
458(11) 0.0 0.0 .
461(11) 0.0 0.0 .
515(12) 0.0 0.0 .
487(12) 0.0 0.0 .
517(12) 0.0 0.0 .
516(12) 0.0 0.0 .
500(12) 0.0 0.0 .
516(12) 0.0 0.0 .
485(12) 0.0 0.0 .
507(12) 0.0 0.0 .
505(12) 0.0 0.0 .
522(12) 0.0 0.0 .
544(12) 0.0 0.0 .
536(12) 0.0 0.0 .
543(12) 0.0 0.0 .
551(12) 0.0 0.0 .
559(12) 0.0 0.0 .
520(12) 0.0 0.0 .
553(13) 0.0 0.0 .
543(12) 0.0 0.0 .
582(13) 0.0 0.0 .
563(12) 0.0 0.0 .
520(12) 0.0 0.0 .
536(13) 0.0 0.0 .
568(13) 0.0 0.0 .
576(13) 0.0 0.0 .
536(12) 0.0 0.0 .
603(13) 0.0 0.0 .
601(13) 0.0 0.0 .
590(13) 0.0 0.0 .
615(13) 0.0 0.0 .
598(13) 0.0 0.0 .
604(13) 0.0 0.0 .
596(14) 0.0 0.0 .
583(13) 0.0 0.0 .
585(13) 0.0 0.0 .
598(13) 0.0 0.0 .
572(13) 0.0 0.0 .
631(14) 0.0 0.0 .
599(13) 0.0 0.0 .
631(13) 0.0 0.0 .
633(13) 0.0 0.0 .
647(14) 0.0 0.0 .
635(14) 0.0 0.0 .
641(14) 0.0 0.0 .
648(13) 0.0 0.0 .
699(14) 0.0 0.0 .
664(14) 0.0 0.0 .
615(14) 0.0 0.0 .
650(14) 0.0 0.0 .
665(13) 0.0 0.0 .
656(13) 0.0 0.0 .
675(14) 0.0 0.0 .
678(14) 0.0 0.0 .
650(14) 0.0 0.0 .
670(13) 0.0 0.0 .
643(13) 0.0 0.0 .
663(14) 0.0 0.0 .
665(14) 0.0 0.0 .
666(14) 0.0 0.0 .
688(14) 0.0 0.0 .
680(14) 0.0 0.0 .
702(14) 0.0 0.0 .
669(14) 0.0 0.0 .
700(14) 0.0 0.0 .
760(14) 0.0 0.0 .
683(14) 0.0 0.0 .
720(15) 0.0 0.0 .
709(14) 0.0 0.0 .
721(14) 0.0 0.0 .
715(14) 0.0 0.0 .
724(14) 0.0 0.0 .
705(15) 0.0 0.0 .
705(14) 0.0 0.0 .
739(14) 0.0 0.0 .
751(14) 0.0 0.0 .
741(15) 0.0 0.0 .
735(15) 0.0 0.0 .
742(15) 0.0 0.0 .
741(14) 0.0 0.0 .
761(14) 0.0 0.0 .
735(14) 0.0 0.0 .
750(15) 0.0 0.0 .
743(15) 0.0 0.0 .
789(15) 0.0 0.0 .
755(14) 0.0 0.0 .
745(15) 0.0 0.0 .
760(16) 0.0 0.0 .
755(15) 0.0 0.0 .
775(14) 0.0 0.0 .
770(14) 0.0 0.0 .
801(15) 0.0 0.0 .
787(15) 0.0 0.0 .
778(15) 0.0 0.0 .
767(14) 0.0 0.0 .
839(15) 0.0 0.0 .
790(15) 0.0 0.0 .
804(16) 0.0 0.0 .
799(15) 0.0 0.0 .
798(15) 0.0 0.0 .
833(15) 0.0 0.0 .
803(15) 0.0 0.0 .
809(15) 0.0 0.0 .
796(15) 0.0 0.0 .
832(15) 0.0 0.0 .
834(15) 0.0 0.0 .
808(15) 0.0 0.0 .
838(16) 0.0 0.0 .
854(16) 0.0 0.0 .
845(15) 0.0 0.0 .
869(16) 0.0 0.0 .
822(15) 0.0 0.0 .
855(16) 0.0 0.0 .
879(16) 0.0 0.0 .
889(15) 0.0 0.0 .
829(15) 0.0 0.0 .
822(16) 0.0 0.0 .
855(16) 0.0 0.0 .
853(15) 0.0 0.0 .
875(15) 0.0 0.0 .
855(16) 0.0 0.0 .
823(16) 0.0 0.0 .
905(16) 0.0 0.0 .
890(16) 0.0 0.0 .
856(15) 0.0 0.0 .
889(16) 0.0 0.0 .
901(17) 0.0 0.0 .
872(16) 0.0 0.0 .
863(15) 0.0 0.0 .
894(16) 0.0 0.0 .
910(16) 0.0 0.0 .
900(17) 0.0 0.0 .
852(16) 0.0 0.0 .
911(16) 0.0 0.0 .
898(16) 0.0 0.0 .
918(16) 0.0 0.0 .
893(17) 0.0 0.0 .
837(16) 0.0 0.0 .
910(16) 0.0 0.0 .
939(16) 0.0 0.0 .
898(16) 0.0 0.0 .
938(17) 0.0 0.0 .
957(17) 0.0 0.0 .
896(16) 0.0 0.0 .
896(16) 0.0 0.0 .
896(16) 0.0 0.0 .
930(17) 0.0 0.0 .
928(16) 0.0 0.0 .
904(16) 0.0 0.0 .
928(16) 0.0 0.0 .
934(16) 0.0 0.0 .
925(17) 0.0 0.0 .
958(17) 0.0 0.0 .
897(15) 0.0 0.0 .
915(16) 0.0 0.0 .
939(17) 0.0 0.0 .
939(17) 0.0 0.0 .
912(16) 0.0 0.0 .
956(16) 0.0 0.0 .
941(16) 0.0 0.0 .
959(17) 0.0 0.0 .
968(17) 0.0 0.0 .
940(16) 0.0 0.0 .
939(16) 0.0 0.0 .
915(16) 0.0 0.0 .
934(17) 0.0 0.0 .
948(17) 0.0 0.0 .
977(17) 0.0 0.0 .
939(16) 0.0 0.0 .
959(17) 0.0 0.0 .
984(17) 0.0 0.0 .
917(16) 0.0 0.0 .
972(16) 0.0 0.0 .
935(16) 0.0 0.0 .
935(16) 0.0 0.0 .
1000(18) 0.0 0.0 .
991(17) 0.0 0.0 .
964(16) 0.0 0.0 .
977(16) 0.0 0.0 .
986(17) 0.0 0.0 .
989(17) 0.0 0.0 .
1023(17) 0.0 0.0 .
1010(17) 0.0 0.0 .
1032(17) 0.0 0.0 .
1030(17) 0.0 0.0 .
1034(18) 0.0 0.0 .
1016(17) 0.0 0.0 .
1036(17) 0.0 0.0 .
1026(17) 0.0 0.0 .
1060(18) 0.0 0.0 .
1044(18) 0.0 0.0 .
1033(17) 0.0 0.0 .
1064(17) 0.0 0.0 .
1027(17) 0.0 0.0 .
1066(18) 0.0 0.0 .
1073(18) 0.0 0.0 .
1072(18) 0.0 0.0 .
1063(17) 0.0 0.0 .
1072(17) 0.0 0.0 .
1069(18) 0.0 0.0 .
1067(18) 0.0 0.0 .
1089(18) 0.0 0.0 .
1073(17) 0.0 0.0 .
1123(18) 0.0 0.0 .
1126(18) 0.0 0.0 .
1099(18) 0.0 0.0 .
1076(18) 0.0 0.0 .
1078(17) 0.0 0.0 .
1109(18) 0.0 0.0 .
1120(18) 0.0 0.0 .
1119(18) 0.0 0.0 .
1087(17) 0.0 0.0 .
1142(18) 0.0 0.0 .
1073(17) 0.0 0.0 .
1080(18) 0.0 0.0 .
1136(18) 0.0 0.0 .
1140(18) 0.0 0.0 .
1128(17) 0.0 0.0 .
1163(18) 0.0 0.0 .
1202(19) 0.0 0.0 .
1122(18) 0.0 0.0 .
1189(18) 0.0 0.0 .
1178(18) 0.0 0.0 .
1166(18) 0.0 0.0 .
1164(19) 0.0 0.0 .
1197(19) 0.0 0.0 .
1157(18) 0.0 0.0 .
1211(18) 0.0 0.0 .
1212(19) 0.0 0.0 .
1222(20) 0.0 0.0 .
1129(18) 0.0 0.0 .
1156(18) 0.0 0.0 .
1217(18) 0.0 0.0 .
1186(18) 0.0 0.0 .
1189(19) 0.0 0.0 .
1253(19) 0.0 0.0 .
1226(18) 0.0 0.0 .
1202(18) 0.0 0.0 .
1194(18) 0.0 0.0 .
1226(19) 0.0 0.0 .
1207(19) 0.0 0.0 .
1231(18) 0.0 0.0 .
1211(18) 0.0 0.0 .
1210(19) 0.0 0.0 .
1218(19) 0.0 0.0 .
1260(19) 0.0 0.0 .
1265(18) 0.0 0.0 .
1226(18) 0.0 0.0 .
1253(19) 0.0 0.0 .
1292(20) 0.0 0.0 .
1280(19) 0.0 0.0 .
1257(18) 0.0 0.0 .
1262(19) 0.0 0.0 .
1211(19) 0.0 0.0 .
1265(19) 0.0 0.0 .
1289(19) 0.0 0.0 .
1332(19) 0.0 0.0 .
1312(19) 0.0 0.0 .
1277(19) 0.0 0.0 .
1270(19) 0.0 0.0 .
1275(19) 0.0 0.0 .
1304(19) 0.0 0.0 .
1312(19) 0.0 0.0 .
1290(19) 0.0 0.0 .
1326(20) 0.0 0.0 .
1311(19) 0.0 0.0 .
1320(19) 0.0 0.0 .
1315(19) 0.0 0.0 .
1363(20) 0.0 0.0 .
1304(19) 0.0 0.0 .
1292(19) 0.0 0.0 .
1311(19) 0.0 0.0 .
1320(20) 0.0 0.0 .
1305(20) 0.0 0.0 .
1335(20) 0.0 0.0 .
1303(19) 0.0 0.0 .
1342(19) 0.0 0.0 .
1313(19) 0.0 0.0 .
1347(20) 0.0 0.0 .
1323(19) 0.0 0.0 .
1349(19) 0.0 0.0 .
1341(19) 0.0 0.0 .
1302(19) 0.0 0.0 .
1383(21) 0.0 0.0 .
1352(20) 0.0 0.0 .
1380(19) 0.0 0.0 .
1381(19) 0.0 0.0 .
1363(20) 0.0 0.0 .
1345(20) 0.0 0.0 .
1333(20) 0.0 0.0 .
1364(19) 0.0 0.0 .
1290(19) 0.0 0.0 .
1348(20) 0.0 0.0 .
1323(20) 0.0 0.0 .
1350(20) 0.0 0.0 .
1310(19) 0.0 0.0 .
1364(19) 0.0 0.0 .
1370(20) 0.0 0.0 .
1318(20) 0.0 0.0 .
1394(20) 0.0 0.0 .
1377(19) 0.0 0.0 .
1355(19) 0.0 0.0 .
1396(20) 0.0 0.0 .
1405(21) 0.0 0.0 .
1375(20) 0.0 0.0 .
1374(19) 0.0 0.0 .
1359(19) 0.0 0.0 .
1367(20) 0.0 0.0 .
1368(20) 0.0 0.0 .
1392(20) 0.0 0.0 .
1394(19) 0.0 0.0 .
1412(20) 0.0 0.0 .
1447(21) 0.0 0.0 .
1376(20) 0.0 0.0 .
1400(20) 0.0 0.0 .
1382(19) 0.0 0.0 .
1383(20) 0.0 0.0 .
1396(20) 0.0 0.0 .
1368(20) 0.0 0.0 .
1354(19) 0.0 0.0 .
1400(19) 0.0 0.0 .
1398(20) 0.0 0.0 .
1430(21) 0.0 0.0 .
1392(20) 0.0 0.0 .
1357(19) 0.0 0.0 .
1341(19) 0.0 0.0 .
1433(20) 0.0 0.0 .
1386(20) 0.0 0.0 .
1485(21) 0.0 0.0 .
1417(20) 0.0 0.0 .
1384(19) 0.0 0.0 .
1374(20) 0.0 0.0 .
1374(20) 0.0 0.0 .
1394(20) 0.0 0.0 .
1410(20) 0.0 0.0 .
1454(20) 0.0 0.0 .
1425(20) 0.0 0.0 .
1380(21) 0.0 0.0 .
1326(20) 0.0 0.0 .
1385(19) 0.0 0.0 .
1427(20) 0.0 0.0 .
1335(19) 0.0 0.0 .
1373(21) 0.0 0.0 .
1328(19) 0.0 0.0 .
1384(19) 0.0 0.0 .
1384(19) 0.0 0.0 .
1373(20) 0.0 0.0 .
1383(20) 0.0 0.0 .
1417(20) 0.0 0.0 .
1406(19) 0.0 0.0 .
1388(20) 0.0 0.0 .
1355(20) 0.0 0.0 .
1390(21) 0.0 0.0 .
1340(20) 0.0 0.0 .
1367(19) 0.0 0.0 .
1384(20) 0.0 0.0 .
1435(20) 0.0 0.0 .
1405(20) 0.0 0.0 .
1356(20) 0.0 0.0 .
1382(19) 0.0 0.0 .
1391(20) 0.0 0.0 .
1359(20) 0.0 0.0 .
1353(20) 0.0 0.0 .
1370(20) 0.0 0.0 .
1353(19) 0.0 0.0 .
1428(20) 0.0 0.0 .
1405(20) 0.0 0.0 .
1402(20) 0.0 0.0 .
1343(19) 0.0 0.0 .
1382(19) 0.0 0.0 .
1429(20) 0.0 0.0 .
1374(20) 0.0 0.0 .
1344(20) 0.0 0.0 .
1356(20) 0.0 0.0 .
1357(19) 0.0 0.0 .
1405(20) 0.0 0.0 .
1397(21) 0.0 0.0 .
1369(20) 0.0 0.0 .
1372(19) 0.0 0.0 .
1313(19) 0.0 0.0 .
1324(20) 0.0 0.0 .
1390(21) 0.0 0.0 .
1372(20) 0.0 0.0 .
1419(20) 0.0 0.0 .
1365(19) 0.0 0.0 .
1371(20) 0.0 0.0 .
1393(21) 0.0 0.0 .
1419(20) 0.0 0.0 .
1440(20) 0.0 0.0 .
1393(19) 0.0 0.0 .
1364(20) 0.0 0.0 .
1364(20) 0.0 0.0 .
1351(20) 0.0 0.0 .
1382(19) 0.0 0.0 .
1356(19) 0.0 0.0 .
1359(20) 0.0 0.0 .
1371(21) 0.0 0.0 .
1413(20) 0.0 0.0 .
1359(19) 0.0 0.0 .
1402(20) 0.0 0.0 .
1372(20) 0.0 0.0 .
1391(20) 0.0 0.0 .
1390(20) 0.0 0.0 .
1390(19) 0.0 0.0 .
1428(20) 0.0 0.0 .
1357(20) 0.0 0.0 .
1364(20) 0.0 0.0 .
1382(20) 0.0 0.0 .
1397(19) 0.0 0.0 .
1304(19) 0.0 0.0 .
1365(20) 0.0 0.0 .
1375(20) 0.0 0.0 .
1413(20) 0.0 0.0 .
1419(20) 0.0 0.0 .
1367(20) 0.0 0.0 .
1344(20) 0.0 0.0 .
1355(20) 0.0 0.0 .
1333(19) 0.0 0.0 .
1371(19) 0.0 0.0 .
1378(20) 0.0 0.0 .
1355(20) 0.0 0.0 .
1391(20) 0.0 0.0 .
1369(19) 0.0 0.0 .
1363(19) 0.0 0.0 .
1344(20) 0.0 0.0 .
1365(20) 0.0 0.0 .
1385(20) 0.0 0.0 .
1368(19) 0.0 0.0 .
1382(19) 0.0 0.0 .
1360(20) 0.0 0.0 .
1323(20) 0.0 0.0 .
1328(19) 0.0 0.0 .
1391(19) 0.0 0.0 .
1392(19) 0.0 0.0 .
1392(20) 0.0 0.0 .
1324(20) 0.0 0.0 .
1309(19) 0.0 0.0 .
1289(19) 0.0 0.0 .
1306(19) 0.0 0.0 .
1323(20) 0.0 0.0 .
1378(21) 0.0 0.0 .
1342(20) 0.0 0.0 .
1317(19) 0.0 0.0 .
1316(19) 0.0 0.0 .
1306(19) 0.0 0.0 .
1299(20) 0.0 0.0 .
1330(20) 0.0 0.0 .
1356(19) 0.0 0.0 .
1350(19) 0.0 0.0 .
1371(20) 0.0 0.0 .
1359(20) 0.0 0.0 .
1312(19) 0.0 0.0 .
1299(19) 0.0 0.0 .
1289(19) 0.0 0.0 .
1339(20) 0.0 0.0 .
1333(20) 0.0 0.0 .
1351(20) 0.0 0.0 .
1279(19) 0.0 0.0 .
1293(19) 0.0 0.0 .
1310(20) 0.0 0.0 .
1352(20) 0.0 0.0 .
1264(19) 0.0 0.0 .
1322(19) 0.0 0.0 .
1363(20) 0.0 0.0 .
1239(19) 0.0 0.0 .
1279(19) 0.0 0.0 .
1336(19) 0.0 0.0 .
1337(19) 0.0 0.0 .
1365(20) 0.0 0.0 .
1296(20) 0.0 0.0 .
1252(19) 0.0 0.0 .
1311(19) 0.0 0.0 .
1257(18) 0.0 0.0 .
1318(20) 0.0 0.0 .
1299(20) 0.0 0.0 .
1332(20) 0.0 0.0 .
1338(19) 0.0 0.0 .
1306(19) 0.0 0.0 .
1291(19) 0.0 0.0 .
1316(20) 0.0 0.0 .
1308(20) 0.0 0.0 .
1243(18) 0.0 0.0 .
1266(18) 0.0 0.0 .
1270(19) 0.0 0.0 .
1309(20) 0.0 0.0 .
1264(19) 0.0 0.0 .
1309(19) 0.0 0.0 .
1332(19) 0.0 0.0 .
1282(19) 0.0 0.0 .
1284(20) 0.0 0.0 .
1269(19) 0.0 0.0 .
1293(19) 0.0 0.0 .
1267(19) 0.0 0.0 .
1278(19) 0.0 0.0 .
1281(20) 0.0 0.0 .
1284(19) 0.0 0.0 .
1287(19) 0.0 0.0 .
1304(19) 0.0 0.0 .
1348(20) 0.0 0.0 .
1302(20) 0.0 0.0 .
1316(19) 0.0 0.0 .
1305(19) 0.0 0.0 .
1326(19) 0.0 0.0 .
1278(19) 0.0 0.0 .
1286(19) 0.0 0.0 .
1264(19) 0.0 0.0 .
1285(19) 0.0 0.0 .
1312(19) 0.0 0.0 .
1294(19) 0.0 0.0 .
1262(19) 0.0 0.0 .
1294(19) 0.0 0.0 .
1244(18) 0.0 0.0 .
1253(19) 0.0 0.0 .
1262(19) 0.0 0.0 .
1259(19) 0.0 0.0 .
1257(19) 0.0 0.0 .
1258(18) 0.0 0.0 .
1312(19) 0.0 0.0 .
1257(19) 0.0 0.0 .
1256(19) 0.0 0.0 .
1255(19) 0.0 0.0 .
1256(18) 0.0 0.0 .
1264(19) 0.0 0.0 .
1269(19) 0.0 0.0 .
1266(19) 0.0 0.0 .
1279(19) 0.0 0.0 .
1254(18) 0.0 0.0 .
1207(19) 0.0 0.0 .
1265(19) 0.0 0.0 .
1288(19) 0.0 0.0 .
1268(19) 0.0 0.0 .
1263(18) 0.0 0.0 .
1224(19) 0.0 0.0 .
1277(20) 0.0 0.0 .
1266(19) 0.0 0.0 .
1231(18) 0.0 0.0 .
1237(18) 0.0 0.0 .
1246(19) 0.0 0.0 .
1252(20) 0.0 0.0 .
1225(19) 0.0 0.0 .
1243(18) 0.0 0.0 .
1208(18) 0.0 0.0 .
1219(19) 0.0 0.0 .
1256(20) 0.0 0.0 .
1247(19) 0.0 0.0 .
1233(18) 0.0 0.0 .
1213(18) 0.0 0.0 .
1217(19) 0.0 0.0 .
1230(19) 0.0 0.0 .
1224(19) 0.0 0.0 .
1182(18) 0.0 0.0 .
1177(18) 0.0 0.0 .
1198(19) 0.0 0.0 .
1226(19) 0.0 0.0 .
1209(19) 0.0 0.0 .
1172(18) 0.0 0.0 .
1209(18) 0.0 0.0 .
1208(19) 0.0 0.0 .
1231(19) 0.0 0.0 .
1194(19) 0.0 0.0 .
1195(18) 0.0 0.0 .
1210(19) 0.0 0.0 .
1188(19) 0.0 0.0 .
1211(19) 0.0 0.0 .
1198(18) 0.0 0.0 .
1213(18) 0.0 0.0 .
1153(18) 0.0 0.0 .
1168(18) 0.0 0.0 .
1207(19) 0.0 0.0 .
1220(18) 0.0 0.0 .
1246(18) 0.0 0.0 .
1197(19) 0.0 0.0 .
1237(19) 0.0 0.0 .
1209(19) 0.0 0.0 .
1193(18) 0.0 0.0 .
1205(18) 0.0 0.0 .
1219(19) 0.0 0.0 .
1230(19) 0.0 0.0 .
1186(19) 0.0 0.0 .
1179(18) 0.0 0.0 .
1228(18) 0.0 0.0 .
1198(19) 0.0 0.0 .
1196(19) 0.0 0.0 .
1210(19) 0.0 0.0 .
1133(18) 0.0 0.0 .
1159(18) 0.0 0.0 .
1126(18) 0.0 0.0 .
1171(19) 0.0 0.0 .
1150(18) 0.0 0.0 .
1210(18) 0.0 0.0 .
1192(18) 0.0 0.0 .
1127(18) 0.0 0.0 .
1126(19) 0.0 0.0 .
1163(18) 0.0 0.0 .
1171(18) 0.0 0.0 .
1169(18) 0.0 0.0 .
1154(18) 0.0 0.0 .
1180(19) 0.0 0.0 .
1187(18) 0.0 0.0 .
1217(18) 0.0 0.0 .
1208(18) 0.0 0.0 .
1234(19) 0.0 0.0 .
1141(18) 0.0 0.0 .
1168(18) 0.0 0.0 .
1092(17) 0.0 0.0 .
1141(18) 0.0 0.0 .
1155(18) 0.0 0.0 .
1178(19) 0.0 0.0 .
1162(18) 0.0 0.0 .
1164(18) 0.0 0.0 .
1163(18) 0.0 0.0 .
1126(18) 0.0 0.0 .
1156(19) 0.0 0.0 .
1154(18) 0.0 0.0 .
1178(18) 0.0 0.0 .
1133(18) 0.0 0.0 .
1150(19) 0.0 0.0 .
1138(18) 0.0 0.0 .
1144(18) 0.0 0.0 .
1128(17) 0.0 0.0 .
1136(18) 0.0 0.0 .
1160(18) 0.0 0.0 .
1146(18) 0.0 0.0 .
1145(18) 0.0 0.0 .
1105(17) 0.0 0.0 .
1123(18) 0.0 0.0 .
1135(19) 0.0 0.0 .
1175(19) 0.0 0.0 .
1154(18) 0.0 0.0 .
1157(18) 0.0 0.0 .
1138(18) 0.0 0.0 .
1182(19) 0.0 0.0 .
1199(19) 0.0 0.0 .
1162(18) 0.0 0.0 .
1153(18) 0.0 0.0 .
1148(18) 0.0 0.0 .
1181(19) 0.0 0.0 .
1116(18) 0.0 0.0 .
1142(18) 0.0 0.0 .
1122(17) 0.0 0.0 .
1149(18) 0.0 0.0 .
1117(19) 0.0 0.0 .
1113(18) 0.0 0.0 .
1132(18) 0.0 0.0 .
1105(17) 0.0 0.0 .
1123(18) 0.0 0.0 .
1095(18) 0.0 0.0 .
1122(18) 0.0 0.0 .
1161(18) 0.0 0.0 .
1116(17) 0.0 0.0 .
1130(18) 0.0 0.0 .
1111(18) 0.0 0.0 .
1145(18) 0.0 0.0 .
1165(18) 0.0 0.0 .
1102(17) 0.0 0.0 .
1105(18) 0.0 0.0 .
1135(18) 0.0 0.0 .
1154(18) 0.0 0.0 .
1092(17) 0.0 0.0 .
1126(18) 0.0 0.0 .
1119(18) 0.0 0.0 .
1100(18) 0.0 0.0 .
1106(18) 0.0 0.0 .
1109(17) 0.0 0.0 .
1120(18) 0.0 0.0 .
1093(18) 0.0 0.0 .
1125(18) 0.0 0.0 .
1103(18) 0.0 0.0 .
1134(17) 0.0 0.0 .
1137(18) 0.0 0.0 .
1109(18) 0.0 0.0 .
1082(18) 0.0 0.0 .
1093(17) 0.0 0.0 .
1150(18) 0.0 0.0 .
1087(18) 0.0 0.0 .
1145(18) 0.0 0.0 .
1123(18) 0.0 0.0 .
1099(17) 0.0 0.0 .
1097(17) 0.0 0.0 .
1095(18) 0.0 0.0 .
1100(18) 0.0 0.0 .
1116(18) 0.0 0.0 .
1105(17) 0.0 0.0 .
1102(17) 0.0 0.0 .
1103(18) 0.0 0.0 .
1143(19) 0.0 0.0 .
1115(18) 0.0 0.0 .
1116(17) 0.0 0.0 .
1096(17) 0.0 0.0 .
1098(18) 0.0 0.0 .
1064(18) 0.0 0.0 .
1102(18) 0.0 0.0 .
1056(17) 0.0 0.0 .
1154(18) 0.0 0.0 .
1076(18) 0.0 0.0 .
1136(19) 0.0 0.0 .
1046(17) 0.0 0.0 .
1073(17) 0.0 0.0 .
1084(17) 0.0 0.0 .
1089(18) 0.0 0.0 .
1074(18) 0.0 0.0 .
1074(18) 0.0 0.0 .
1087(17) 0.0 0.0 .
1069(17) 0.0 0.0 .
1067(18) 0.0 0.0 .
1073(18) 0.0 0.0 .
1072(18) 0.0 0.0 .
1056(17) 0.0 0.0 .
1081(17) 0.0 0.0 .
1084(18) 0.0 0.0 .
1077(18) 0.0 0.0 .
1098(18) 0.0 0.0 .
1059(17) 0.0 0.0 .
1103(18) 0.0 0.0 .
1076(18) 0.0 0.0 .
1031(17) 0.0 0.0 .
1026(17) 0.0 0.0 .
1063(17) 0.0 0.0 .
1119(18) 0.0 0.0 .
1067(18) 0.0 0.0 .
1082(18) 0.0 0.0 .
1057(17) 0.0 0.0 .
1037(17) 0.0 0.0 .
1069(18) 0.0 0.0 .
1119(18) 0.0 0.0 .
1049(17) 0.0 0.0 .
1078(17) 0.0 0.0 .
1076(17) 0.0 0.0 .
1094(18) 0.0 0.0 .
1047(18) 0.0 0.0 .
1090(18) 0.0 0.0 .
1053(17) 0.0 0.0 .
1082(17) 0.0 0.0 .
1023(17) 0.0 0.0 .
1085(18) 0.0 0.0 .
1037(17) 0.0 0.0 .
1113(17) 0.0 0.0 .
1030(17) 0.0 0.0 .
1063(17) 0.0 0.0 .
1077(18) 0.0 0.0 .
1069(17) 0.0 0.0 .
1056(17) 0.0 0.0 .
1050(17) 0.0 0.0 .
1104(18) 0.0 0.0 .
1071(18) 0.0 0.0 .
1077(18) 0.0 0.0 .
1043(17) 0.0 0.0 .
1042(17) 0.0 0.0 .
1068(18) 0.0 0.0 .
1063(18) 0.0 0.0 .
1052(17) 0.0 0.0 .
1057(17) 0.0 0.0 .
1070(17) 0.0 0.0 .
1088(17) 0.0 0.0 .
1070(18) 0.0 0.0 .
1043(18) 0.0 0.0 .
1059(17) 0.0 0.0 .
1020(17) 0.0 0.0 .
1018(17) 0.0 0.0 .
1029(17) 0.0 0.0 .
1064(18) 0.0 0.0 .
1060(17) 0.0 0.0 .
1046(17) 0.0 0.0 .
1059(17) 0.0 0.0 .
1100(18) 0.0 0.0 .
1060(17) 0.0 0.0 .
989(16) 0.0 0.0 .
982(17) 0.0 0.0 .
1055(18) 0.0 0.0 .
1083(18) 0.0 0.0 .
1019(17) 0.0 0.0 .
1029(17) 0.0 0.0 .
1025(17) 0.0 0.0 .
1015(17) 0.0 0.0 .
1031(17) 0.0 0.0 .
1015(17) 0.0 0.0 .
1031(17) 0.0 0.0 .
1012(17) 0.0 0.0 .
1013(17) 0.0 0.0 .
1072(18) 0.0 0.0 .
983(16) 0.0 0.0 .
992(16) 0.0 0.0 .
1027(17) 0.0 0.0 .
1034(18) 0.0 0.0 .
1035(17) 0.0 0.0 .
1021(17) 0.0 0.0 .
1034(17) 0.0 0.0 .
973(17) 0.0 0.0 .
997(18) 0.0 0.0 .
1040(17) 0.0 0.0 .
1027(17) 0.0 0.0 .
969(16) 0.0 0.0 .
1021(17) 0.0 0.0 .
1040(18) 0.0 0.0 .
1006(17) 0.0 0.0 .
979(16) 0.0 0.0 .
999(16) 0.0 0.0 .
1007(17) 0.0 0.0 .
992(17) 0.0 0.0 .
997(17) 0.0 0.0 .
1008(16) 0.0 0.0 .
1000(16) 0.0 0.0 .
1050(18) 0.0 0.0 .
1075(18) 0.0 0.0 .
985(17) 0.0 0.0 .
1036(17) 0.0 0.0 .
1033(17) 0.0 0.0 .
1001(17) 0.0 0.0 .
960(17) 0.0 0.0 .
968(17) 0.0 0.0 .
961(16) 0.0 0.0 .
1045(17) 0.0 0.0 .
983(17) 0.0 0.0 .
978(17) 0.0 0.0 .
992(17) 0.0 0.0 .
1009(16) 0.0 0.0 .
1044(17) 0.0 0.0 .
967(17) 0.0 0.0 .
1003(17) 0.0 0.0 .
982(17) 0.0 0.0 .
954(16) 0.0 0.0 .
1022(17) 0.0 0.0 .
981(17) 0.0 0.0 .
1028(17) 0.0 0.0 .
995(16) 0.0 0.0 .
1041(17) 0.0 0.0 .
995(17) 0.0 0.0 .
1000(17) 0.0 0.0 .
949(17) 0.0 0.0 .
997(17) 0.0 0.0 .
981(16) 0.0 0.0 .
977(17) 0.0 0.0 .
1034(18) 0.0 0.0 .
979(17) 0.0 0.0 .
983(16) 0.0 0.0 .
992(17) 0.0 0.0 .
978(17) 0.0 0.0 .
935(17) 0.0 0.0 .
975(17) 0.0 0.0 .
939(16) 0.0 0.0 .
990(16) 0.0 0.0 .
984(17) 0.0 0.0 .
960(17) 0.0 0.0 .
934(16) 0.0 0.0 .
955(16) 0.0 0.0 .
977(16) 0.0 0.0 .
978(17) 0.0 0.0 .
967(17) 0.0 0.0 .
980(17) 0.0 0.0 .
992(16) 0.0 0.0 .
931(16) 0.0 0.0 .
977(17) 0.0 0.0 .
1030(18) 0.0 0.0 .
911(16) 0.0 0.0 .
934(16) 0.0 0.0 .
984(16) 0.0 0.0 .
946(16) 0.0 0.0 .
901(16) 0.0 0.0 .
973(17) 0.0 0.0 .
973(16) 0.0 0.0 .
958(16) 0.0 0.0 .
950(17) 0.0 0.0 .
972(17) 0.0 0.0 .
941(16) 0.0 0.0 .
972(16) 0.0 0.0 .
970(17) 0.0 0.0 .
992(17) 0.0 0.0 .
967(17) 0.0 0.0 .
969(16) 0.0 0.0 .
970(16) 0.0 0.0 .
974(17) 0.0 0.0 .
941(17) 0.0 0.0 .
980(17) 0.0 0.0 .
956(16) 0.0 0.0 .
964(16) 0.0 0.0 .
913(16) 0.0 0.0 .
933(17) 0.0 0.0 .
958(17) 0.0 0.0 .
955(16) 0.0 0.0 .
945(16) 0.0 0.0 .
955(17) 0.0 0.0 .
964(17) 0.0 0.0 .
919(16) 0.0 0.0 .
955(16) 0.0 0.0 .
930(16) 0.0 0.0 .
925(16) 0.0 0.0 .
946(17) 0.0 0.0 .
937(16) 0.0 0.0 .
955(16) 0.0 0.0 .
946(16) 0.0 0.0 .
934(16) 0.0 0.0 .
936(17) 0.0 0.0 .
957(17) 0.0 0.0 .
912(16) 0.0 0.0 .
931(16) 0.0 0.0 .
969(17) 0.0 0.0 .
921(17) 0.0 0.0 .
919(16) 0.0 0.0 .
918(16) 0.0 0.0 .
944(16) 0.0 0.0 .
933(16) 0.0 0.0 .
909(17) 0.0 0.0 .
884(16) 0.0 0.0 .
908(16) 0.0 0.0 .
905(16) 0.0 0.0 .
892(16) 0.0 0.0 .
925(17) 0.0 0.0 .
924(16) 0.0 0.0 .
927(16) 0.0 0.0 .
920(16) 0.0 0.0 .
939(16) 0.0 0.0 .
920(17) 0.0 0.0 .
913(16) 0.0 0.0 .
905(16) 0.0 0.0 .
938(16) 0.0 0.0 .
912(16) 0.0 0.0 .
904(16) 0.0 0.0 .
906(16) 0.0 0.0 .
903(16) 0.0 0.0 .
902(16) 0.0 0.0 .
915(16) 0.0 0.0 .
897(16) 0.0 0.0 .
929(16) 0.0 0.0 .
890(16) 0.0 0.0 .
901(16) 0.0 0.0 .
903(16) 0.0 0.0 .
917(16) 0.0 0.0 .
927(16) 0.0 0.0 .
945(16) 0.0 0.0 .
915(16) 0.0 0.0 .
899(16) 0.0 0.0 .
909(16) 0.0 0.0 .
900(16) 0.0 0.0 .
919(16) 0.0 0.0 .
916(16) 0.0 0.0 .
887(16) 0.0 0.0 .
902(16) 0.0 0.0 .
916(16) 0.0 0.0 .
891(15) 0.0 0.0 .
925(16) 0.0 0.0 .
891(17) 0.0 0.0 .
913(16) 0.0 0.0 .
939(16) 0.0 0.0 .
858(15) 0.0 0.0 .
904(16) 0.0 0.0 .
848(16) 0.0 0.0 .
874(16) 0.0 0.0 .
868(15) 0.0 0.0 .
894(16) 0.0 0.0 .
910(16) 0.0 0.0 .
933(17) 0.0 0.0 .
906(16) 0.0 0.0 .
843(15) 0.0 0.0 .
877(16) 0.0 0.0 .
885(16) 0.0 0.0 .
884(16) 0.0 0.0 .
843(16) 0.0 0.0 .
877(15) 0.0 0.0 .
878(16) 0.0 0.0 .
872(16) 0.0 0.0 .
871(16) 0.0 0.0 .
875(16) 0.0 0.0 .
879(15) 0.0 0.0 .
882(16) 0.0 0.0 .
857(16) 0.0 0.0 .
875(16) 0.0 0.0 .
848(16) 0.0 0.0 .
837(15) 0.0 0.0 .
847(15) 0.0 0.0 .
906(16) 0.0 0.0 .
883(16) 0.0 0.0 .
911(16) 0.0 0.0 .
928(16) 0.0 0.0 .
900(16) 0.0 0.0 .
890(16) 0.0 0.0 .
905(16) 0.0 0.0 .
804(15) 0.0 0.0 .
870(15) 0.0 0.0 .
870(16) 0.0 0.0 .
875(16) 0.0 0.0 .
866(16) 0.0 0.0 .
913(16) 0.0 0.0 .
890(15) 0.0 0.0 .
864(16) 0.0 0.0 .
888(16) 0.0 0.0 .
838(15) 0.0 0.0 .
813(15) 0.0 0.0 .
881(15) 0.0 0.0 .
885(16) 0.0 0.0 .
826(16) 0.0 0.0 .
825(16) 0.0 0.0 .
855(15) 0.0 0.0 .
851(15) 0.0 0.0 .
860(16) 0.0 0.0 .
877(17) 0.0 0.0 .
854(16) 0.0 0.0 .
850(15) 0.0 0.0 .
820(15) 0.0 0.0 .
857(16) 0.0 0.0 .
867(16) 0.0 0.0 .
841(16) 0.0 0.0 .
817(15) 0.0 0.0 .
902(16) 0.0 0.0 .
821(15) 0.0 0.0 .
863(16) 0.0 0.0 .
848(16) 0.0 0.0 .
856(15) 0.0 0.0 .
872(15) 0.0 0.0 .
882(16) 0.0 0.0 .
853(16) 0.0 0.0 .
859(16) 0.0 0.0 .
863(15) 0.0 0.0 .
821(15) 0.0 0.0 .
865(16) 0.0 0.0 .
873(16) 0.0 0.0 .
867(16) 0.0 0.0 .
845(15) 0.0 0.0 .
816(15) 0.0 0.0 .
842(16) 0.0 0.0 .
809(15) 0.0 0.0 .
823(15) 0.0 0.0 .
886(15) 0.0 0.0 .
886(16) 0.0 0.0 .
854(16) 0.0 0.0 .
814(16) 0.0 0.0 .
829(15) 0.0 0.0 .
849(15) 0.0 0.0 .
801(15) 0.0 0.0 .
818(16) 0.0 0.0 .
829(15) 0.0 0.0 .
846(15) 0.0 0.0 .
833(15) 0.0 0.0 .
803(15) 0.0 0.0 .
803(15) 0.0 0.0 .
840(15) 0.0 0.0 .
856(15) 0.0 0.0 .
816(15) 0.0 0.0 .
838(16) 0.0 0.0 .
790(15) 0.0 0.0 .
833(15) 0.0 0.0 .
850(15) 0.0 0.0 .
818(15) 0.0 0.0 .
850(16) 0.0 0.0 .
813(16) 0.0 0.0 .
826(15) 0.0 0.0 .
818(15) 0.0 0.0 .
800(15) 0.0 0.0 .
809(15) 0.0 0.0 .
853(16) 0.0 0.0 .
785(15) 0.0 0.0 .
828(15) 0.0 0.0 .
831(15) 0.0 0.0 .
763(15) 0.0 0.0 .
813(16) 0.0 0.0 .
838(16) 0.0 0.0 .
865(15) 0.0 0.0 .
826(15) 0.0 0.0 .
816(15) 0.0 0.0 .
844(16) 0.0 0.0 .
826(15) 0.0 0.0 .
841(15) 0.0 0.0 .
816(15) 0.0 0.0 .
867(16) 0.0 0.0 .
810(15) 0.0 0.0 .
849(16) 0.0 0.0 .
831(15) 0.0 0.0 .
808(15) 0.0 0.0 .
800(15) 0.0 0.0 .
816(15) 0.0 0.0 .
825(15) 0.0 0.0 .
814(15) 0.0 0.0 .
811(16) 0.0 0.0 .
811(15) 0.0 0.0 .
839(16) 0.0 0.0 .
844(15) 0.0 0.0 .
854(15) 0.0 0.0 .
821(16) 0.0 0.0 .
796(15) 0.0 0.0 .
849(16) 0.0 0.0 .
835(15) 0.0 0.0 .
836(15) 0.0 0.0 .
816(15) 0.0 0.0 .
846(16) 0.0 0.0 .
796(15) 0.0 0.0 .
829(15) 0.0 0.0 .
834(15) 0.0 0.0 .
807(15) 0.0 0.0 .
853(16) 0.0 0.0 .
825(15) 0.0 0.0 .
808(15) 0.0 0.0 .
800(15) 0.0 0.0 .
823(15) 0.0 0.0 .
854(16) 0.0 0.0 .
834(16) 0.0 0.0 .
793(15) 0.0 0.0 .
822(15) 0.0 0.0 .
836(15) 0.0 0.0 .
830(16) 0.0 0.0 .
792(15) 0.0 0.0 .
812(15) 0.0 0.0 .
787(15) 0.0 0.0 .
823(15) 0.0 0.0 .
830(16) 0.0 0.0 .
797(15) 0.0 0.0 .
769(14) 0.0 0.0 .
786(15) 0.0 0.0 .
791(15) 0.0 0.0 .
805(15) 0.0 0.0 .
819(15) 0.0 0.0 .
788(14) 0.0 0.0 .
784(15) 0.0 0.0 .
789(15) 0.0 0.0 .
795(15) 0.0 0.0 .
806(15) 0.0 0.0 .
840(15) 0.0 0.0 .
824(15) 0.0 0.0 .
823(16) 0.0 0.0 .
791(15) 0.0 0.0 .
842(16) 0.0 0.0 .
790(15) 0.0 0.0 .
811(15) 0.0 0.0 .
774(15) 0.0 0.0 .
819(16) 0.0 0.0 .
802(15) 0.0 0.0 .
788(15) 0.0 0.0 .
844(16) 0.0 0.0 .
760(15) 0.0 0.0 .
794(15) 0.0 0.0 .
752(15) 0.0 0.0 .
779(14) 0.0 0.0 .
794(15) 0.0 0.0 .
803(15) 0.0 0.0 .
838(15) 0.0 0.0 .
813(15) 0.0 0.0 .
787(15) 0.0 0.0 .
791(15) 0.0 0.0 .
788(16) 0.0 0.0 .
789(15) 0.0 0.0 .
822(15) 0.0 0.0 .
787(15) 0.0 0.0 .
818(15) 0.0 0.0 .
802(16) 0.0 0.0 .
785(15) 0.0 0.0 .
783(14) 0.0 0.0 .
790(15) 0.0 0.0 .
809(15) 0.0 0.0 .
765(15) 0.0 0.0 .
787(15) 0.0 0.0 .
800(15) 0.0 0.0 .
793(15) 0.0 0.0 .
835(15) 0.0 0.0 .
801(16) 0.0 0.0 .
789(15) 0.0 0.0 .
760(14) 0.0 0.0 .
741(14) 0.0 0.0 .
751(15) 0.0 0.0 .
793(15) 0.0 0.0 .
776(15) 0.0 0.0 .
782(14) 0.0 0.0 .
784(15) 0.0 0.0 .
774(15) 0.0 0.0 .
824(16) 0.0 0.0 .
780(15) 0.0 0.0 .
791(15) 0.0 0.0 .
795(15) 0.0 0.0 .
823(15) 0.0 0.0 .
780(15) 0.0 0.0 .
759(15) 0.0 0.0 .
765(14) 0.0 0.0 .
809(15) 0.0 0.0 .
803(15) 0.0 0.0 .
850(16) 0.0 0.0 .
787(15) 0.0 0.0 .
780(14) 0.0 0.0 .
746(15) 0.0 0.0 .
796(15) 0.0 0.0 .
788(15) 0.0 0.0 .
797(15) 0.0 0.0 .
797(15) 0.0 0.0 .
774(15) 0.0 0.0 .
771(15) 0.0 0.0 .
783(15) 0.0 0.0 .
730(14) 0.0 0.0 .
767(14) 0.0 0.0 .
775(15) 0.0 0.0 .
765(15) 0.0 0.0 .
779(15) 0.0 0.0 .
762(14) 0.0 0.0 .
781(15) 0.0 0.0 .
787(15) 0.0 0.0 .
785(16) 0.0 0.0 .
779(15) 0.0 0.0 .
775(15) 0.0 0.0 .
774(14) 0.0 0.0 .
775(15) 0.0 0.0 .
811(16) 0.0 0.0 .
778(15) 0.0 0.0 .
753(14) 0.0 0.0 .
783(15) 0.0 0.0 .
799(15) 0.0 0.0 .
775(15) 0.0 0.0 .
787(15) 0.0 0.0 .
749(14) 0.0 0.0 .
763(15) 0.0 0.0 .
745(15) 0.0 0.0 .
791(15) 0.0 0.0 .
799(15) 0.0 0.0 .
786(15) 0.0 0.0 .
794(15) 0.0 0.0 .
779(15) 0.0 0.0 .
768(15) 0.0 0.0 .
746(15) 0.0 0.0 .
790(14) 0.0 0.0 .
766(15) 0.0 0.0 .
753(15) 0.0 0.0 .
783(15) 0.0 0.0 .
794(15) 0.0 0.0 .
780(14) 0.0 0.0 .
780(15) 0.0 0.0 .
791(15) 0.0 0.0 .
770(15) 0.0 0.0 .
764(15) 0.0 0.0 .
765(14) 0.0 0.0 .
734(14) 0.0 0.0 .
737(15) 0.0 0.0 .
794(15) 0.0 0.0 .
761(15) 0.0 0.0 .
764(14) 0.0 0.0 .
775(15) 0.0 0.0 .
755(15) 0.0 0.0 .
795(15) 0.0 0.0 .
791(15) 0.0 0.0 .
741(14) 0.0 0.0 .
772(15) 0.0 0.0 .
734(15) 0.0 0.0 .
711(14) 0.0 0.0 .
759(14) 0.0 0.0 .
753(14) 0.0 0.0 .
765(15) 0.0 0.0 .
767(15) 0.0 0.0 .
778(15) 0.0 0.0 .
783(15) 0.0 0.0 .
768(14) 0.0 0.0 .
779(15) 0.0 0.0 .
787(16) 0.0 0.0 .
732(14) 0.0 0.0 .
777(15) 0.0 0.0 .
764(14) 0.0 0.0 .
765(15) 0.0 0.0 .
768(15) 0.0 0.0 .
764(15) 0.0 0.0 .
798(15) 0.0 0.0 .
737(14) 0.0 0.0 .
796(15) 0.0 0.0 .
809(16) 0.0 0.0 .
730(14) 0.0 0.0 .
761(14) 0.0 0.0 .
767(15) 0.0 0.0 .
760(15) 0.0 0.0 .
789(15) 0.0 0.0 .
777(15) 0.0 0.0 .
760(14) 0.0 0.0 .
775(15) 0.0 0.0 .
748(15) 0.0 0.0 .
782(15) 0.0 0.0 .
728(14) 0.0 0.0 .
778(14) 0.0 0.0 .
770(15) 0.0 0.0 .
736(14) 0.0 0.0 .
774(15) 0.0 0.0 .
803(15) 0.0 0.0 .
753(14) 0.0 0.0 .
741(14) 0.0 0.0 .
798(15) 0.0 0.0 .
783(15) 0.0 0.0 .
792(15) 0.0 0.0 .
817(15) 0.0 0.0 .
818(16) 0.0 0.0 .
776(15) 0.0 0.0 .
813(15) 0.0 0.0 .
773(15) 0.0 0.0 .
785(15) 0.0 0.0 .
764(15) 0.0 0.0 .
753(15) 0.0 0.0 .
767(15) 0.0 0.0 .
806(15) 0.0 0.0 .
763(14) 0.0 0.0 .
836(16) 0.0 0.0 .
763(15) 0.0 0.0 .
741(15) 0.0 0.0 .
777(15) 0.0 0.0 .
787(15) 0.0 0.0 .
775(15) 0.0 0.0 .
782(15) 0.0 0.0 .
794(15) 0.0 0.0 .
797(15) 0.0 0.0 .
755(14) 0.0 0.0 .
775(15) 0.0 0.0 .
813(16) 0.0 0.0 .
794(15) 0.0 0.0 .
810(15) 0.0 0.0 .
792(15) 0.0 0.0 .
779(15) 0.0 0.0 .
790(16) 0.0 0.0 .
764(15) 0.0 0.0 .
784(14) 0.0 0.0 .
803(15) 0.0 0.0 .
790(15) 0.0 0.0 .
792(15) 0.0 0.0 .
829(15) 0.0 0.0 .
795(15) 0.0 0.0 .
793(15) 0.0 0.0 .
790(15) 0.0 0.0 .
826(16) 0.0 0.0 .
772(15) 0.0 0.0 .
816(15) 0.0 0.0 .
799(15) 0.0 0.0 .
805(15) 0.0 0.0 .
806(15) 0.0 0.0 .
755(14) 0.0 0.0 .
781(14) 0.0 0.0 .
829(15) 0.0 0.0 .
852(16) 0.0 0.0 .
816(15) 0.0 0.0 .
845(15) 0.0 0.0 .
877(15) 0.0 0.0 .
811(15) 0.0 0.0 .
798(15) 0.0 0.0 .
838(16) 0.0 0.0 .
849(15) 0.0 0.0 .
829(15) 0.0 0.0 .
851(16) 0.0 0.0 .
872(16) 0.0 0.0 .
850(16) 0.0 0.0 .
834(15) 0.0 0.0 .
909(16) 0.0 0.0 .
870(16) 0.0 0.0 .
907(17) 0.0 0.0 .
941(17) 0.0 0.0 .
948(16) 0.0 0.0 .
941(16) 0.0 0.0 .
954(16) 0.0 0.0 .
948(17) 0.0 0.0 .
999(17) 0.0 0.0 .
1013(17) 0.0 0.0 .
1010(17) 0.0 0.0 .
1061(17) 0.0 0.0 .
1098(18) 0.0 0.0 .
1145(18) 0.0 0.0 .
1121(17) 0.0 0.0 .
1135(17) 0.0 0.0 .
1171(18) 0.0 0.0 .
1220(19) 0.0 0.0 .
1270(19) 0.0 0.0 .
1330(19) 0.0 0.0 .
1404(20) 0.0 0.0 .
1437(20) 0.0 0.0 .
1486(21) 0.0 0.0 .
1526(21) 0.0 0.0 .
1556(20) 0.0 0.0 .
1584(21) 0.0 0.0 .
1703(22) 0.0 0.0 .
1817(23) 0.0 0.0 .
1844(23) 0.0 0.0 .
1996(23) 0.0 0.0 .
2049(24) 0.0 0.0 .
2250(26) 0.0 0.0 .
2434(27) 0.0 0.0 .
2612(27) 0.0 0.0 .
2954(28) 0.0 0.0 .
3392(31) 0.0 0.0 .
3887(34) 0.0 0.0 .
4377(36) 0.0 0. .
5124(38) 0.0 0. .
5933(40) 0.0 0. .
6775(44) 0.0 0. .
7848(48) 0.0 0. .
8929(51) 0.0 0. .
10202(54) 0.0 0. .
11234(55) 0.0 0. .
12627(61) 0.0 0. .
13821(65) 0.0 0. .
15211(67) 0.0 0. .
16618(69) 0.0 0. .
18232(71) 0.0 0. .
20341(78) 0.0 0. .
22709(84) 0.0 0. .
25741(88) 0.0 0. .
28739(91) 0.0 0. .
33018(97) 0.0 0. .
36890(110) 0.0 0. .
39900(110) 0.0 0. .
41080(110) 0.0 0. .
38530(110) 0.0 0. .
32712(97) 0.0 0. .
26748(90) 0.0 0. .
21672(84) 0.0 0. .
17626(72) 0.0 0. .
14709(64) 0.0 0. .
12102(58) 0.0 0. .
9903(54) 0.0 0. .
8566(52) 0.0 0. .
7257(46) 0.0 0. .
6172(41) 0.0 0. .
5390(39) 0.0 0. .
4813(37) 0.0 0. .
4229(36) 0.0 0. .
3693(33) 0.0 0.0 .
3347(30) 0.0 0.0 .
2963(29) 0.0 0.0 .
2724(28) 0.0 0.0 .
2454(27) 0.0 0.0 .
2285(26) 0.0 0.0 .
2185(24) 0.0 0.0 .
2021(24) 0.0 0.0 .
1879(23) 0.0 0.0 .
1776(23) 0.0 0.0 .
1696(22) 0.0 0.0 .
1583(21) 0.0 0.0 .
1573(21) 0.0 0.0 .
1455(21) 0.0 0.0 .
1444(21) 0.0 0.0 .
1352(19) 0.0 0.0 .
1296(19) 0.0 0.0 .
1285(19) 0.0 0.0 .
1213(19) 0.0 0.0 .
1190(19) 0.0 0.0 .
1124(18) 0.0 0.0 .
1114(17) 0.0 0.0 .
1098(18) 0.0 0.0 .
1045(17) 0.0 0.0 .
1066(18) 0.0 0.0 .
996(16) 0.0 0.0 .
1042(17) 0.0 0.0 .
950(17) 0.0 0.0 .
951(17) 0.0 0.0 .
963(17) 0.0 0.0 .
953(16) 0.0 0.0 .
911(16) 0.0 0.0 .
918(16) 0.0 0.0 .
921(17) 0.0 0.0 .
897(16) 0.0 0.0 .
926(16) 0.0 0.0 .
897(16) 0.0 0.0 .
902(16) 0.0 0.0 .
854(16) 0.0 0.0 .
872(16) 0.0 0.0 .
856(15) 0.0 0.0 .
860(15) 0.0 0.0 .
862(16) 0.0 0.0 .
867(16) 0.0 0.0 .
832(15) 0.0 0.0 .
848(15) 0.0 0.0 .
830(15) 0.0 0.0 .
832(16) 0.0 0.0 .
793(15) 0.0 0.0 .
819(15) 0.0 0.0 .
834(15) 0.0 0.0 .
795(15) 0.0 0.0 .
796(15) 0.0 0.0 .
770(15) 0.0 0.0 .
780(15) 0.0 0.0 .
775(14) 0.0 0.0 .
795(15) 0.0 0.0 .
752(15) 0.0 0.0 .
821(16) 0.0 0.0 .
786(15) 0.0 0.0 .
729(14) 0.0 0.0 .
776(15) 0.0 0.0 .
770(15) 0.0 0.0 .
753(15) 0.0 0.0 .
756(14) 0.0 0.0 .
806(15) 0.0 0.0 .
762(15) 0.0 0.0 .
751(15) 0.0 0.0 .
770(15) 0.0 0.0 .
750(14) 0.0 0.0 .
724(14) 0.0 0.0 .
725(14) 0.0 0.0 .
757(15) 0.0 0.0 .
767(15) 0.0 0.0 .
726(14) 0.0 0.0 .
730(14) 0.0 0.0 .
719(14) 0.0 0.0 .
731(15) 0.0 0.0 .
777(15) 0.0 0.0 .
765(15) 0.0 0.0 .
723(14) 0.0 0.0 .
754(15) 0.0 0.0 .
721(15) 0.0 0.0 .
729(14) 0.0 0.0 .
743(14) 0.0 0.0 .
733(14) 0.0 0.0 .
709(14) 0.0 0.0 .
724(15) 0.0 0.0 .
714(14) 0.0 0.0 .
736(14) 0.0 0.0 .
724(14) 0.0 0.0 .
713(14) 0.0 0.0 .
691(15) 0.0 0.0 .
715(14) 0.0 0.0 .
733(14) 0.0 0.0 .
747(14) 0.0 0.0 .
714(14) 0.0 0.0 .
745(15) 0.0 0.0 .
754(15) 0.0 0.0 .
715(14) 0.0 0.0 .
703(14) 0.0 0.0 .
712(14) 0.0 0.0 .
708(14) 0.0 0.0 .
727(15) 0.0 0.0 .
684(14) 0.0 0.0 .
703(14) 0.0 0.0 .
737(15) 0.0 0.0 .
683(14) 0.0 0.0 .
744(15) 0.0 0.0 .
739(14) 0.0 0.0 .
738(14) 0.0 0.0 .
704(14) 0.0 0.0 .
722(15) 0.0 0.0 .
720(14) 0.0 0.0 .
705(14) 0.0 0.0 .
728(14) 0.0 0.0 .
719(14) 0.0 0.0 .
712(14) 0.0 0.0 .
722(14) 0.0 0.0 .
725(14) 0.0 0.0 .
751(15) 0.0 0.0 .
715(15) 0.0 0.0 .
754(15) 0.0 0.0 .
698(14) 0.0 0.0 .
715(14) 0.0 0.0 .
704(14) 0.0 0.0 .
744(15) 0.0 0.0 .
749(15) 0.0 0.0 .
732(14) 0.0 0.0 .
712(14) 0.0 0.0 .
679(14) 0.0 0.0 .
674(14) 0.0 0.0 .
716(15) 0.0 0.0 .
747(14) 0.0 0.0 .
757(14) 0.0 0.0 .
717(14) 0.0 0.0 .
711(15) 0.0 0.0 .
711(15) 0.0 0.0 .
695(14) 0.0 0.0 .
761(14) 0.0 0.0 .
725(14) 0.0 0.0 .
683(15) 0.0 0.0 .
698(14) 0.0 0.0 .
711(14) 0.0 0.0 .
680(14) 0.0 0.0 .
668(14) 0.0 0.0 .
675(14) 0.0 0.0 .
667(14) 0.0 0.0 .
697(14) 0.0 0.0 .
677(14) 0.0 0.0 .
687(14) 0.0 0.0 .
681(14) 0.0 0.0 .
676(14) 0.0 0.0 .
694(14) 0.0 0.0 .
692(14) 0.0 0.0 .
681(14) 0.0 0.0 .
710(15) 0.0 0.0 .
698(14) 0.0 0.0 .
645(13) 0.0 0.0 .
683(14) 0.0 0.0 .
700(14) 0.0 0.0 .
672(14) 0.0 0.0 .
665(14) 0.0 0.0 .
672(13) 0.0 0.0 .
717(14) 0.0 0.0 .
693(14) 0.0 0.0 .
687(14) 0.0 0.0 .
695(14) 0.0 0.0 .
672(13) 0.0 0.0 .
676(14) 0.0 0.0 .
658(14) 0.0 0.0 .
674(14) 0.0 0.0 .
662(14) 0.0 0.0 .
670(13) 0.0 0.0 .
702(14) 0.0 0.0 .
666(14) 0.0 0.0 .
647(14) 0.0 0.0 .
691(14) 0.00523 663.6 21.6
682(14) 0.00545 663.6 21.4
682(14) 0.00510 663.5 21.2
699(15) 0.00463 663.4 21.0
671(14) 0.00521 663.4 20.8
685(14) 0.00544 663.3 20.6
692(14) 0.00535 663.3 20.4
662(14) 0.00516 663.2 20.2
695(15) 0.00458 663.1 20.0
628(13) 0.00569 663.0 19.8
666(13) 0.00559 662.8 19.6
681(14) 0.00543 662.7 19.5
635(13) 0.00551 662.5 19.3
679(15) 0.00472 662.4 19.1
679(14) 0.00522 662.2 18.9
670(13) 0.00557 662.1 18.8
692(14) 0.00533 661.9 18.6
650(14) 0.00538 661.8 18.4
634(14) 0.00520 661.6 18.3
654(14) 0.00521 661.4 18.1
657(13) 0.00568 661.3 18.0
648(13) 0.00568 661.1 17.8
666(14) 0.00519 661.0 17.7
651(14) 0.00526 660.8 17.5
671(14) 0.00501 660.7 17.4
662(13) 0.00564 660.5 17.2
638(13) 0.00569 660.4 17.1
681(14) 0.00505 660.2 16.9
672(14) 0.00512 660.1 16.8
692(14) 0.00480 659.9 16.7
651(13) 0.00573 659.8 16.5
645(13) 0.00552 659.6 16.4
650(14) 0.00517 659.4 16.3
649(14) 0.00514 659.3 16.1
673(14) 0.00519 659.1 16.0
643(13) 0.00576 659.0 15.9
655(14) 0.00537 658.8 15.8
614(13) 0.00565 658.7 15.6
682(14) 0.00502 658.5 15.5
657(13) 0.00553 658.4 15.4
681(14) 0.00544 658.2 15.3
669(14) 0.00525 658.1 15.2
677(14) 0.00495 657.9 15.1
654(14) 0.00526 657.8 15.0
631(13) 0.00569 657.6 14.9
650(13) 0.00573 657.4 14.7
702(14) 0.00486 657.3 14.6
682(14) 0.00494 657.1 14.5
690(14) 0.00506 657.0 14.4
679(14) 0.00540 656.8 14.3
666(13) 0.00554 656.7 14.2
656(14) 0.00534 656.5 14.1
634(14) 0.00522 656.4 14.0
644(14) 0.00538 656.2 13.9
647(13) 0.00565 656.1 13.9
676(14) 0.00545 655.9 13.8
634(13) 0.00551 655.7 13.7
677(14) 0.00484 655.6 13.6
665(14) 0.00523 655.4 13.5
627(13) 0.00589 655.3 13.4
668(13) 0.00551 655.1 13.3
659(14) 0.00522 655.0 13.2
643(14) 0.00492 654.8 13.2
650(14) 0.00530 654.7 13.1
676(14) 0.00543 654.5 13.0
655(13) 0.00560 654.4 12.9
667(14) 0.00519 654.2 12.9
645(14) 0.00508 654.1 12.8
653(14) 0.00543 653.9 12.7
671(13) 0.00554 653.7 12.6
642(13) 0.00571 653.6 12.6
639(14) 0.00540 653.4 12.5
645(14) 0.00511 653.3 12.4
667(14) 0.00516 653.1 12.4
662(13) 0.00560 653.0 12.3
620(13) 0.00578 652.8 12.2
641(14) 0.00526 652.7 12.2
649(14) 0.00511 652.5 12.1
651(14) 0.00518 652.4 12.1
637(13) 0.00582 652.2 12.0
678(14) 0.00529 652.0 11.9
679(14) 0.00507 651.9 11.9
658(14) 0.00515 651.7 11.8
618(13) 0.00552 651.6 11.8
618(13) 0.00597 651.4 11.7
641(13) 0.00561 651.3 11.7
664(14) 0.00528 651.1 11.6
643(14) 0.00539 651.0 11.6
641(13) 0.00554 650.8 11.5
656(13) 0.00565 650.7 11.5
679(14) 0.00509 650.5 11.5
633(14) 0.00536 650.4 11.4
640(14) 0.00524 650.2 11.4
626(13) 0.00567 650.0 11.3
656(13) 0.00569 649.9 11.3
671(14) 0.00516 649.7 11.3
645(14) 0.00520 649.6 11.2
632(14) 0.00544 649.4 11.2
640(13) 0.00573 649.3 11.2
631(13) 0.00589 649.1 11.1
645(14) 0.00540 649.0 11.1
641(14) 0.00535 648.8 11.1
657(14) 0.00542 648.7 11.1
665(13) 0.00551 648.5 11.0
628(13) 0.00589 648.3 11.0
652(14) 0.00535 648.2 11.0
652(14) 0.00515 648.0 11.0
638(13) 0.00559 647.9 11.0
628(13) 0.00594 647.7 11.0
611(13) 0.00612 647.6 11.0
630(13) 0.00555 647.4 11.0
617(14) 0.00547 647.3 11.0
637(13) 0.00560 647.1 11.0
631(13) 0.00584 647.0 11.0
648(13) 0.00574 646.8 11.0
673(14) 0.00504 646.7 11.0
607(14) 0.00547 646.5 11.0
672(14) 0.00523 646.3 11.0
682(14) 0.00541 646.2 11.0
682(14) 0.00543 646.0 11.0
668(14) 0.00511 645.9 11.0
694(15) 0.00472 645.7 11.1
636(13) 0.00552 645.6 11.1
631(13) 0.00593 645.4 11.1
616(13) 0.00592 645.3 11.2
633(13) 0.00550 645.1 11.2
634(14) 0.00530 645.0 11.2
636(14) 0.00532 644.8 11.3
680(14) 0.00543 644.7 11.3
657(13) 0.00557 644.5 11.4
628(13) 0.00556 644.3 11.5
638(14) 0.00536 644.2 11.5
660(14) 0.00531 644.0 11.6
680(13) 0.00549 643.9 11.7
630(13) 0.00570 643.7 11.8
657(14) 0.00512 643.6 11.9
655(14) 0.00525 643.4 12.0
664(14) 0.00538 643.3 12.1
638(13) 0.00584 643.1 12.2
616(13) 0.00589 643.0 12.3
615(13) 0.00560 642.8 12.5
630(14) 0.00541 642.6 12.6
650(14) 0.00542 642.5 12.8
653(13) 0.00569 642.3 12.9
666(14) 0.00521 642.2 13.1
671(14) 0.00494 642.0 13.3
647(13) 0.00549 641.9 13.5
644(13) 0.00563 641.7 13.8
635(13) 0.00588 641.6 14.0
674(14) 0.00510 641.4 14.3
644(14) 0.00526 641.3 14.5
691(14) 0.00505 641.1 14.8
674(14) 0.00536 641.0 15.2
652(13) 0.00570 640.8 15.5
630(14) 0.00548 640.6 15.9
606(13) 0.00564 640.5 16.3
641(14) 0.00548 640.3 16.8
641(13) 0.00576 640.2 17.3
640(13) 0.00583 640.0 17.8
654(14) 0.00521 639.9 18.4
661(14) 0.00476 639.7 19.0
647(14) 0.00536 639.6 19.7
648(13) 0.00574 639.4 20.4
679(13) 0.00549 639.3 21.2
684(14) 0.00517 639.1 22.1
645(14) 0.00507 638.9 23.1
684(14) 0.00502 638.8 24.2
657(13) 0.00570 638.6 25.4
654(13) 0.00564 638.5 26.7
635(13) 0.00550 638.3 28.2
689(15) 0.00455 638.2 29.9
684(14) 0.00519 638.0 31.9
736(14) 0.00498 637.9 34.1
737(14) 0.00498 637.7 36.7
658(14) 0.00536 637.6 39.7
684(15) 0.00464 637.4 43.2
717(14) 0.00483 637.3 47.4
717(14) 0.00521 637.1 52.2
698(14) 0.00514 636.9 58.0
747(15) 0.00463 636.8 64.8
759(15) 0.00447 636.6 72.8
728(14) 0.00482 636.5 82.1
790(15) 0.00471 636.3 93.0
754(15) 0.00471 636.2 105.5
760(15) 0.00452 636.0 119.8
791(15) 0.00422 635.9 135.9
757(15) 0.00462 635.7 153.7
756(14) 0.00495 635.6 173.1
805(15) 0.00450 635.4 193.8
846(16) 0.00411 635.3 215.0
842(16) 0.00408 635.1 235.7
828(15) 0.00425 634.9 254.6
839(15) 0.00442 634.8 270.0
824(15) 0.00425 634.6 280.2
870(16) 0.00386 634.5 283.8
834(16) 0.00407 634.3 280.3
816(15) 0.00436 634.2 270.4
874(15) 0.00426 634.0 255.1
819(15) 0.00422 633.9 236.2
817(16) 0.00410 633.7 215.5
788(15) 0.00444 633.6 194.2
722(14) 0.00499 633.4 173.5
716(14) 0.00521 633.2 154.0
711(14) 0.00500 633.1 136.0
683(14) 0.00483 632.9 119.8
672(14) 0.00499 632.8 105.4
677(14) 0.00538 632.6 92.8
690(14) 0.00544 632.5 81.8
669(14) 0.00515 632.3 72.4
634(14) 0.00527 632.2 64.3
661(14) 0.00525 632.0 57.4
670(13) 0.00550 631.9 51.6
654(13) 0.00567 631.7 46.6
628(13) 0.00559 631.6 42.4
667(14) 0.00477 631.4 38.8
638(14) 0.00538 631.2 35.7
624(13) 0.00590 631.1 33.1
681(14) 0.00543 630.9 30.8
664(14) 0.00531 630.8 28.8
651(14) 0.00512 630.6 27.0
622(13) 0.00556 630.5 25.4
635(13) 0.00580 630.3 24.0
633(13) 0.00580 630.2 22.7
637(14) 0.00533 630.0 21.6
658(14) 0.00500 629.9 20.6
621(13) 0.00554 629.7 19.6
642(13) 0.00580 629.5 18.7
666(13) 0.00554 629.4 17.9
615(13) 0.00579 629.2 17.2
657(14) 0.00508 629.1 16.5
638(14) 0.00544 628.9 15.9
631(13) 0.00587 628.8 15.3
617(13) 0.00591 628.6 14.8
600(13) 0.00577 628.5 14.3
638(14) 0.00519 628.3 13.8
665(14) 0.00517 628.2 13.4
609(13) 0.00608 628.0 13.0
645(13) 0.00551 627.9 12.6
622(13) 0.00560 627.7 12.2
634(14) 0.00536 627.5 11.9
627(13) 0.00554 627.4 11.6
647(13) 0.00575 627.2 11.3
620(13) 0.00569 627.1 11.0
613(13) 0.00557 626.9 10.7
647(14) 0.00540 626.8 10.4
641(13) 0.00566 626.6 10.2
598(13) 0.00620 626.5 10.0
639(14) 0.00537 626.3 9.8
609(13) 0.00570 626.2 9.6
590(13) 0.00582 626.0 9.4
597(13) 0.00610 625.8 9.2
630(13) 0.00591 625.7 9.0
626(13) 0.00557 625.5 8.8
622(14) 0.00535 625.4 8.7
637(14) 0.00538 625.2 8.5
626(13) 0.00585 625.1 8.4
610(13) 0.00609 624.9 8.2
609(13) 0.00573 624.8 8.1
644(14) 0.00507 624.6 8.0
606(13) 0.00579 624.5 7.8
630(13) 0.00580 624.3 7.7
623(13) 0.00599 624.2 7.6
643(14) 0.00539 624.0 7.5
626(14) 0.00533 623.8 7.4
610(13) 0.00572 623.7 7.3
629(13) 0.00589 623.5 7.2
622(13) 0.00597 623.4 7.1
638(13) 0.00555 623.2 7.0
654(14) 0.00493 623.1 6.9
629(13) 0.00549 622.9 6.8
657(13) 0.00559 622.8 6.7
625(13) 0.00581 622.6 6.6
609(13) 0.00569 622.5 6.6
601(13) 0.00564 622.3 6.5
645(14) 0.00533 622.2 6.4
599(13) 0.00624 622.0 6.3
620(13) 0.00580 621.8 6.3
593(13) 0.00585 621.7 6.2
619(14) 0.00546 621.5 6.1
657(14) 0.00540 621.4 6.1
636(13) 0.00583 621.2 6.0
625(13) 0.00583 621.1 6.0
595(13) 0.00593 620.9 5.9
631(14) 0.00534 620.8 5.8
622(13) 0.00573 620.6 5.8
617(13) 0.00602 620.5 5.7
622(13) 0.00575 620.4 5.7
618(13) 0.00561 620.3 5.6
662(14) 0.00514 620.3 5.6
643(14) 0.00547 620.2 5.5
599(13) 0.00625 620.2 5.5
631(14) 0.00548 620.2 5.4
636(14) 0.00530 620.1 5.4
626(14) 0.00546 620.1 5.4
624(13) 0.00574 620.0 5.3
599(13) 0.00619 620.0 5.3
615(13) 0.00573 619.9 5.2
622(13) 0.00552 619.9 5.2
618(13) 0.00562 619.8 5.2
629(13) 0.00570 619.8 5.1
633(13) 0.00588 619.7 5.1
610(13) 0.00564 619.7 5.0
614(14) 0.00544 619.6 5.0
590(13) 0.00586 619.6 5.0
597(13) 0.00618 619.5 4.9
601(13) 0.00623 619.5 4.9
650(14) 0.00541 619.4 4.9
627(14) 0.00519 619.4 4.8
594(13) 0.00604 619.3 4.8
622(13) 0.00576 619.3 4.8
632(13) 0.00598 619.2 4.7
580(13) 0.00596 619.2 4.7
587(13) 0.00556 619.2 4.7
645(14) 0.00544 619.1 4.7
624(13) 0.00591 619.1 4.6
603(13) 0.00616 619.0 4.6
613(13) 0.00577 619.0 4.6
596(13) 0.00557 618.9 4.5
634(13) 0.00554 618.9 4.5
648(13) 0.00572 618.8 4.5
629(13) 0.00587 618.8 4.5
622(13) 0.00551 618.7 4.4
606(14) 0.00541 618.7 4.4
596(13) 0.00587 618.6 4.4
603(13) 0.00621 618.6 4.4
628(13) 0.00581 618.5 4.3
616(13) 0.00562 618.5 4.3
627(14) 0.00533 618.4 4.3
576(13) 0.00615 618.4 4.3
597(13) 0.00626 618.3 4.3
616(13) 0.00584 618.3 4.2
643(14) 0.00529 618.2 4.2
643(14) 0.00509 618.2 4.2
638(14) 0.00537 618.2 4.2
609(13) 0.00607 618.1 4.2
627(13) 0.00574 618.1 4.1
607(13) 0.00558 618.0 4.1
596(13) 0.00575 618.0 4.1
593(13) 0.00581 617.9 4.1
590(13) 0.00627 617.9 4.1
602(13) 0.00600 617.8 4.0
630(14) 0.00538 617.8 4.0
617(14) 0.00545 617.7 4.0
612(13) 0.00577 617.7 4.0
588(13) 0.00635 617.6 4.0
604(13) 0.00572 617.6 3.9
616(13) 0.00556 617.5 3.9
638(14) 0.00543 617.5 3.9
607(13) 0.00597 617.4 3.9
605(13) 0.00610 617.4 3.9
615(13) 0.00562 617.3 3.9
623(14) 0.00540 617.3 3.8
612(13) 0.00564 617.2 3.8
613(13) 0.00586 617.2 3.8
592(13) 0.00627 617.2 3.8
633(13) 0.00555 617.1 3.8
654(14) 0.00507 617.1 3.8
632(13) 0.00560 617.0 3.8
648(13) 0.00572 617.0 3.7
637(13) 0.00584 616.9 3.7
637(13) 0.00551 616.9 3.7
631(14) 0.00520 616.8 3.7
608(13) 0.00581 616.8 3.7
653(13) 0.00570 616.7 3.7
622(13) 0.00591 616.7 3.7
601(13) 0.00581 616.6 3.6
612(14) 0.00524 616.6 3.6
621(13) 0.00568 616.5 3.6
591(13) 0.00631 616.5 3.6
623(13) 0.00591 616.4 3.6
625(13) 0.00555 616.4 3.6
630(14) 0.00514 616.3 3.6
590(13) 0.00614 616.3 3.6
619(13) 0.00606 616.2 3.5
578(13) 0.00628 616.2 3.5
604(13) 0.00576 616.2 3.5
634(14) 0.00519 616.1 3.5
611(13) 0.00568 616.1 3.5
637(13) 0.00583 616.0 3.5
641(13) 0.00569 616.0 3.5
610(13) 0.00579 615.9 3.5
636(14) 0.00532 615.9 3.5
624(13) 0.00550 615.8 3.4
607(13) 0.00612 615.8 3.4
625(13) 0.00580 615.7 3.4
613(13) 0.00571 615.7 3.4
648(14) 0.00531 615.6 3.4
645(14) 0.00547 615.6 3.4
626(13) 0.00592 615.5 3.4
601(13) 0.00583 615.5 3.4
632(14) 0.00545 615.4 3.4
623(13) 0.00557 615.4 3.3
654(13) 0.00553 615.3 3.3
616(13) 0.00610 615.3 3.3
602(13) 0.00590 615.2 3.3
618(14) 0.00536 615.2 3.3
613(13) 0.00575 615.2 3.3
636(13) 0.00571 615.1 3.3
604(13) 0.00616 615.1 3.3
620(13) 0.00558 615.0 3.3
619(14) 0.00541 615.0 3.3
637(14) 0.00541 614.9 3.3
623(13) 0.00580 614.9 3.2
616(13) 0.00607 614.8 3.2
595(13) 0.00561 614.8 3.2
583(13) 0.00563 614.7 3.2
595(13) 0.00574 614.7 3.2
567(12) 0.00645 614.6 3.2
610(13) 0.00612 614.6 3.2
633(13) 0.00554 614.5 3.2
607(13) 0.00554 614.5 3.2
597(13) 0.00587 614.4 3.2
593(13) 0.00627 614.4 3.2
614(13) 0.00610 614.3 3.2
623(13) 0.00573 614.3 3.1
622(14) 0.00510 614.2 3.1
631(14) 0.00540 614.2 3.1
568(12) 0.00663 614.2 3.1
636(13) 0.00577 614.1 3.1
609(13) 0.00570 614.1 3.1
601(14) 0.00544 614.0 3.1
608(13) 0.00580 614.0 3.1
611(13) 0.00615 613.9 3.1
596(13) 0.00631 613.9 3.1
592(13) 0.00593 613.8 3.1
638(14) 0.00510 613.8 3.1
607(13) 0.00559 613.7 3.1
590(13) 0.00632 613.7 3.1
637(13) 0.00559 613.6 3.1
613(13) 0.00570 613.6 3.0
624(14) 0.00529 613.5 3.0
594(13) 0.00583 613.5 3.0
597(13) 0.00622 613.4 3.0
582(13) 0.00610 613.4 3.0
621(13) 0.00555 613.3 3.0
639(14) 0.00528 613.3 3.0
622(13) 0.00564 613.2 3.0
610(13) 0.00610 613.2 3.0
603(13) 0.00595 613.2 3.0
618(13) 0.00560 613.1 3.0
631(14) 0.00530 613.1 3.0
585(13) 0.00612 613.0 3.0
593(13) 0.00626 613.0 3.0
592(13) 0.00607 612.9 3.0
602(13) 0.00575 612.9 3.0
616(13) 0.00569 612.8 3.0
603(13) 0.00601 612.8 2.9
593(13) 0.00630 612.7 2.9
577(13) 0.00601 612.7 2.9
584(13) 0.00581 612.6 2.9
582(13) 0.00616 612.6 2.9
607(13) 0.00597 612.5 2.9
586(13) 0.00637 612.5 2.9
566(13) 0.00618 612.4 2.9
608(14) 0.00533 612.4 2.9
615(14) 0.00545 612.3 2.9
603(13) 0.00601 612.3 2.9
613(13) 0.00606 612.2 2.9
644(14) 0.00535 612.2 2.9
629(14) 0.00535 612.2 2.9
600(13) 0.00590 612.1 2.9
618(13) 0.00601 612.1 2.9
643(13) 0.00576 612.0 2.9
589(13) 0.00592 612.0 2.9
609(14) 0.00521 611.9 2.9
609(13) 0.00564 611.9 2.9
608(13) 0.00611 611.8 2.9
612(13) 0.00601 611.8 2.9
594(13) 0.00592 611.7 2.9
621(14) 0.00506 611.7 2.9
611(13) 0.00574 611.6 2.8
611(13) 0.00602 611.6 2.8
599(13) 0.00608 611.5 2.8
606(13) 0.00577 611.5 2.8
579(13) 0.00597 611.4 2.8
600(13) 0.00592 611.4 2.8
629(13) 0.00593 611.3 2.8
587(13) 0.00626 611.3 2.8
621(13) 0.00557 611.2 2.8
629(14) 0.00524 611.2 2.8
595(13) 0.00575 611.2 2.8
592(13) 0.00632 611.1 2.8
619(13) 0.00587 611.1 2.8
614(13) 0.00567 611.0 2.8
602(13) 0.00550 611.0 2.8
598(13) 0.00573 610.9 2.8
582(12) 0.00645 610.9 2.8
643(13) 0.00562 610.8 2.8
653(14) 0.00527 610.8 2.8
608(13) 0.00567 610.7 2.8
587(13) 0.00606 610.7 2.8
639(13) 0.00586 610.6 2.8
614(13) 0.00569 610.6 2.8
606(13) 0.00559 610.5 2.8
615(13) 0.00561 610.5 2.8
604(13) 0.00596 610.4 2.8
612(13) 0.00604 610.4 2.8
616(13) 0.00571 610.3 2.8
594(13) 0.00576 610.3 2.8
617(14) 0.00545 610.3 2.8
588(13) 0.00621 610.2 2.8
632(13) 0.00591 610.2 2.8
651(14) 0.00522 610.1 2.8
626(14) 0.00533 610.1 2.8
605(13) 0.00581 610.0 2.8
621(13) 0.00586 610.0 2.8
613(13) 0.00603 609.9 2.8
597(13) 0.00597 609.9 2.8
598(13) 0.00556 609.8 2.8
603(13) 0.00559 609.8 2.8
602(13) 0.00609 609.7 2.8
622(13) 0.00598 609.7 2.8
595(13) 0.00577 609.6 2.8
621(14) 0.00508 609.6 2.8
616(13) 0.00557 609.5 2.8
582(12) 0.00643 609.5 2.8
597(13) 0.00618 609.4 2.8
599(13) 0.00571 609.4 2.8
591(14) 0.00529 609.3 2.8
589(13) 0.00585 609.3 2.8
621(13) 0.00600 609.3 2.8
634(13) 0.00584 609.3 2.8
626(13) 0.00560 609.3 2.8
601(13) 0.00560 609.4 2.8
595(13) 0.00589 609.4 2.8
575(12) 0.00647 609.4 2.8
585(13) 0.00622 609.4 2.8
639(14) 0.00531 609.5 2.8
603(13) 0.00558 609.5 2.8
610(13) 0.00564 609.5 2.8
613(13) 0.00601 609.5 2.8
633(13) 0.00572 609.5 2.8
603(13) 0.00574 609.6 2.8
595(13) 0.00563 609.6 2.8
619(13) 0.00555 609.6 2.8
576(12) 0.00649 609.6 2.8
608(13) 0.00578 609.6 2.8
594(13) 0.00559 609.7 2.8
589(13) 0.00574 609.7 2.8
628(13) 0.00552 609.7 2.8
594(13) 0.00629 609.7 2.8
615(13) 0.00580 609.8 2.8
580(13) 0.00591 609.8 2.8
622(13) 0.00550 609.8 2.8
636(13) 0.00575 609.8 2.8
596(13) 0.00627 609.8 2.8
575(13) 0.00618 609.9 2.8
563(13) 0.00616 609.9 2.8
592(13) 0.00590 609.9 2.8
634(13) 0.00569 609.9 2.8
607(13) 0.00612 609.9 2.8
601(13) 0.00586 610.0 2.8
555(13) 0.00613 610.0 2.8
592(13) 0.00593 610.0 2.8
626(13) 0.00590 610.0 2.8
595(13) 0.00628 610.0 2.8
592(13) 0.00586 610.1 2.8
605(14) 0.00543 610.1 2.8
576(13) 0.00603 610.1 2.8
620(13) 0.00595 610.1 2.9
592(13) 0.00625 610.2 2.9
588(13) 0.00599 610.2 2.9
615(14) 0.00526 610.2 2.9
640(14) 0.00523 610.2 2.9
624(13) 0.00584 610.2 2.9
637(13) 0.00578 610.3 2.9
603(13) 0.00574 610.3 2.9
616(14) 0.00532 610.3 2.9
588(13) 0.00600 610.3 2.9
612(13) 0.00610 610.3 2.9
581(13) 0.00630 610.4 2.9
608(13) 0.00554 610.4 2.9
586(13) 0.00552 610.4 2.9
572(13) 0.00617 610.4 2.9
608(13) 0.00614 610.4 3.0
589(13) 0.00621 610.5 3.0
601(13) 0.00577 610.5 3.0
619(14) 0.00525 610.5 3.0
600(13) 0.00582 610.5 3.0
601(13) 0.00624 610.6 3.0
615(13) 0.00595 610.6 3.0
581(13) 0.00590 610.6 3.0
565(13) 0.00592 610.6 3.0
592(13) 0.00581 610.6 3.1
609(13) 0.00611 610.7 3.1
601(13) 0.00606 610.7 3.1
601(13) 0.00582 610.7 3.1
588(13) 0.00584 610.7 3.1
579(13) 0.00611 610.7 3.1
595(13) 0.00630 610.8 3.1
602(13) 0.00596 610.8 3.1
603(13) 0.00567 610.8 3.2
636(14) 0.00532 610.8 3.2
600(13) 0.00606 610.8 3.2
546(12) 0.00682 610.9 3.2
595(13) 0.00596 610.9 3.2
582(13) 0.00581 610.9 3.3
567(13) 0.00616 610.9 3.3
595(13) 0.00615 611.0 3.3
579(13) 0.00640 611.0 3.3
617(13) 0.00572 611.0 3.3
598(13) 0.00575 611.0 3.4
612(13) 0.00555 611.0 3.4
591(13) 0.00620 611.1 3.4
605(13) 0.00618 611.1 3.4
610(13) 0.00561 611.1 3.5
586(13) 0.00567 611.1 3.5
602(13) 0.00590 611.1 3.5
601(13) 0.00613 611.2 3.6
598(13) 0.00619 611.2 3.6
560(13) 0.00624 611.2 3.6
597(14) 0.00541 611.2 3.7
585(13) 0.00592 611.2 3.7
604(13) 0.00611 611.3 3.7
584(12) 0.00642 611.3 3.8
563(12) 0.00641 611.3 3.8
606(14) 0.00538 611.3 3.9
608(13) 0.00569 611.4 3.9
639(13) 0.00579 611.4 4.0
616(13) 0.00603 611.4 4.0
614(13) 0.00566 611.4 4.1
594(13) 0.00555 611.4 4.2
576(13) 0.00610 611.5 4.2
598(13) 0.00628 611.5 4.3
601(13) 0.00608 611.5 4.4
591(13) 0.00589 611.5 4.4
603(13) 0.00550 611.5 4.5
611(13) 0.00579 611.6 4.6
589(13) 0.00633 611.6 4.7
587(13) 0.00621 611.6 4.8
587(13) 0.00589 611.6 4.9
613(14) 0.00545 611.6 5.0
626(13) 0.00549 611.7 5.2
600(13) 0.00626 611.7 5.3
590(13) 0.00620 611.7 5.4
608(13) 0.00564 611.7 5.6
598(13) 0.00565 611.8 5.8
592(13) 0.00584 611.8 5.9
549(12) 0.00679 611.8 6.1
612(13) 0.00566 611.8 6.4
604(13) 0.00564 611.8 6.6
601(13) 0.00563 611.9 6.9
596(13) 0.00586 611.9 7.2
538(12) 0.00687 611.9 7.5
603(13) 0.00580 611.9 7.8
593(13) 0.00569 611.9 8.2
604(13) 0.00549 612.0 8.6
622(13) 0.00575 612.0 9.1
604(13) 0.00611 612.0 9.6
579(13) 0.00607 612.0 10.2
618(14) 0.00546 612.0 10.8
616(13) 0.00576 612.1 11.5
594(13) 0.00606 612.1 12.2
611(13) 0.00608 612.1 13.0
562(13) 0.00622 612.1 13.9
585(13) 0.00575 612.2 14.9
601(13) 0.00568 612.2 16.0
599(13) 0.00613 612.2 17.1
609(13) 0.00610 612.2 18.3
614(13) 0.00568 612.2 19.6
613(13) 0.00550 612.3 20.9
630(13) 0.00553 612.3 22.2
580(12) 0.00644 612.3 23.5
631(13) 0.00584 612.3 24.8
576(13) 0.00603 612.3 26.0
606(14) 0.00516 612.4 27.0
590(13) 0.00599 612.4 27.8
588(13) 0.00625 612.4 28.3
626(13) 0.00593 612.4 28.6
611(13) 0.00577 612.4 28.5
595(13) 0.00552 612.5 28.1
626(14) 0.00544 612.5 27.5
605(13) 0.00615 612.5 26.6
575(13) 0.00637 612.5 25.5
618(13) 0.00560 612.6 24.3
625(14) 0.00513 612.6 23.0
606(13) 0.00569 612.6 21.7
582(13) 0.00637 612.6 20.3
594(13) 0.00622 612.6 19.1
595(13) 0.00577 612.7 17.8
623(14) 0.00526 612.7 16.7
580(13) 0.00611 612.7 15.6
654(13) 0.00570 612.7 14.6
616(13) 0.00576 612.7 13.7
586(13) 0.00596 612.8 12.8
616(14) 0.00539 612.8 12.1
626(13) 0.00551 612.8 11.4
587(13) 0.00636 612.8 10.7
600(13) 0.00586 612.8 10.1
590(13) 0.00596 612.9 9.6
595(13) 0.00579 612.9 9.1
599(13) 0.00586 612.9 8.7
599(13) 0.00619 612.9 8.3
584(13) 0.00603 613.0 8.0
605(13) 0.00555 613.0 7.6
602(13) 0.00575 613.0 7.4
636(13) 0.00567 613.0 7.1
610(13) 0.00611 613.0 6.9
577(13) 0.00610 613.1 6.6
600(13) 0.00564 613.1 6.5
606(13) 0.00567 613.1 6.3
610(13) 0.00594 613.1 6.1
594(13) 0.00627 613.1 6.0
596(13) 0.00572 613.2 5.8
602(13) 0.00563 613.2 5.7
593(13) 0.00597 613.2 5.6
607(13) 0.00601 613.2 5.5
598(13) 0.00622 613.2 5.4
574(13) 0.00618 613.3 5.3
617(14) 0.00525 613.3 5.2
603(13) 0.00576 613.3 5.1
592(13) 0.00633 613.3 5.1
576(12) 0.00647 613.4 5.0
588(13) 0.00593 613.4 4.9
588(13) 0.00555 613.4 4.9
580(13) 0.00602 613.4 4.8
580(12) 0.00641 613.4 4.8
633(13) 0.00590 613.5 4.7
626(13) 0.00558 613.5 4.7
602(14) 0.00547 613.5 4.7
585(13) 0.00596 613.5 4.6
617(13) 0.00604 613.5 4.6
627(13) 0.00580 613.6 4.6
607(13) 0.00563 613.6 4.5
585(13) 0.00553 613.6 4.5
621(14) 0.00540 613.6 4.5
637(13) 0.00583 613.7 4.5
588(13) 0.00612 613.7 4.4
573(13) 0.00608 613.7 4.4
623(14) 0.00530 613.7 4.4
612(13) 0.00568 613.7 4.4
578(12) 0.00642 613.8 4.4
594(13) 0.00611 613.8 4.4
611(13) 0.00562 613.8 4.4
626(14) 0.00529 613.8 4.4
592(13) 0.00578 613.8 4.3
582(13) 0.00626 613.9 4.3
586(13) 0.00621 613.9 4.3
631(14) 0.00546 613.9 4.3
615(13) 0.00551 613.9 4.3
598(13) 0.00589 613.9 4.3
610(13) 0.00610 614.0 4.3
581(13) 0.00594 614.0 4.3
607(13) 0.00566 614.0 4.3
606(13) 0.00579 614.0 4.3
634(13) 0.00556 614.1 4.3
608(13) 0.00614 614.1 4.3
582(13) 0.00598 614.1 4.3
580(13) 0.00578 614.1 4.4
596(13) 0.00578 614.1 4.4
611(13) 0.00584 614.2 4.4
598(13) 0.00618 614.2 4.4
595(13) 0.00583 614.2 4.4
581(13) 0.00584 614.2 4.4
592(13) 0.00599 614.2 4.4
612(13) 0.00606 614.3 4.4
596(13) 0.00624 614.3 4.4
616(13) 0.00550 614.3 4.4
583(13) 0.00585 614.3 4.4
628(14) 0.00547 614.3 4.5
593(13) 0.00619 614.4 4.5
571(12) 0.00655 614.4 4.5
597(13) 0.00578 614.4 4.5
564(13) 0.00575 614.4 4.5
594(13) 0.00595 614.5 4.5
608(13) 0.00607 614.5 4.6
593(13) 0.00628 614.5 4.6
592(13) 0.00591 614.5 4.6
601(14) 0.00543 614.5 4.6
646(13) 0.00550 614.6 4.6
634(13) 0.00579 614.6 4.7
609(13) 0.00603 614.6 4.7
627(13) 0.00554 614.6 4.7
630(14) 0.00500 614.6 4.7
603(13) 0.00584 614.7 4.7
638(13) 0.00578 614.7 4.8
583(13) 0.00626 614.7 4.8
599(13) 0.00576 614.7 4.8
625(14) 0.00528 614.7 4.8
626(13) 0.00553 614.8 4.9
565(12) 0.00657 614.8 4.9
631(13) 0.00572 614.8 4.9
642(13) 0.00550 614.8 5.0
623(13) 0.00549 614.9 5.0
618(13) 0.00555 614.9 5.0
608(13) 0.00614 614.9 5.0
616(13) 0.00588 614.9 5.1
584(13) 0.00594 614.9 5.1
609(13) 0.00556 615.0 5.1
598(13) 0.00583 615.0 5.2
597(13) 0.00628 615.0 5.2
586(13) 0.00601 615.0 5.2
606(13) 0.00573 615.0 5.3
648(14) 0.00526 615.1 5.3
652(14) 0.00531 615.1 5.4
605(13) 0.00616 615.1 5.4
616(13) 0.00562 615.1 5.4
617(14) 0.00528 615.1 5.5
571(13) 0.00615 615.2 5.5
623(13) 0.00581 615.2 5.6
628(13) 0.00590 615.2 5.6
632(14) 0.00541 615.2 5.6
595(13) 0.00572 615.3 5.7
605(13) 0.00580 615.3 5.7
588(13) 0.00616 615.3 5.8
589(13) 0.00637 615.3 5.8
614(13) 0.00559 615.3 5.9
595(13) 0.00573 615.4 5.9
619(13) 0.00557 615.4 6.0
610(13) 0.00598 615.4 6.0
628(13) 0.00594 615.4 6.1
597(13) 0.00592 615.4 6.1
592(13) 0.00554 615.5 6.2
611(14) 0.00546 615.5 6.3
614(13) 0.00602 615.5 6.3
586(13) 0.00639 615.5 6.4
626(14) 0.00542 615.5 6.4
605(14) 0.00520 615.6 6.5
588(13) 0.00593 615.6 6.6
588(13) 0.00635 615.6 6.6
627(13) 0.00588 615.6 6.7
633(13) 0.00553 615.7 6.8
629(14) 0.00521 615.7 6.8
634(14) 0.00541 615.7 6.9
594(13) 0.00628 615.7 7.0
640(13) 0.00578 615.7 7.1
629(13) 0.00557 615.8 7.1
589(13) 0.00557 615.8 7.2
615(13) 0.00553 615.9 7.3
636(13) 0.00580 616.1 7.4
633(13) 0.00577 616.3 7.5
635(14) 0.00541 616.5 7.5
625(14) 0.00544 616.6 7.6
624(13) 0.00551 616.8 7.7
646(13) 0.00577 617.0 7.8
618(13) 0.00568 617.2 7.9
605(13) 0.00572 617.4 8.0
628(14) 0.00542 617.6 8.1
619(13) 0.00573 617.8 8.2
597(13) 0.00619 618.0 8.3
597(13) 0.00609 618.2 8.4
642(14) 0.00536 618.3 8.5
623(13) 0.00554 618.5 8.6
594(13) 0.00595 618.7 8.7
582(12) 0.00641 618.9 8.9
586(13) 0.00596 619.1 9.0
621(14) 0.00541 619.3 9.1
618(13) 0.00559 619.5 9.2
607(13) 0.00594 619.7 9.4
601(13) 0.00621 619.9 9.5
616(13) 0.00563 620.1 9.6
584(13) 0.00584 620.2 9.8
627(14) 0.00548 620.4 9.9
642(13) 0.00566 620.6 10.1
616(13) 0.00600 620.8 10.2
619(13) 0.00561 621.0 10.4
619(14) 0.00528 621.2 10.6
595(13) 0.00574 621.4 10.7
614(13) 0.00588 621.6 10.9
648(13) 0.00572 621.8 11.1
600(13) 0.00589 622.0 11.3
643(14) 0.00505 622.1 11.5
625(13) 0.00563 622.3 11.7
616(13) 0.00594 622.5 11.9
613(13) 0.00610 622.7 12.1
655(14) 0.00538 622.9 12.3
605(13) 0.00550 623.1 12.5
619(13) 0.00570 623.3 12.7
623(13) 0.00595 623.5 13.0
597(13) 0.00624 623.7 13.2
622(13) 0.00554 623.8 13.5
628(14) 0.00508 624.0 13.7
608(13) 0.00582 624.2 14.0
598(13) 0.00626 624.4 14.3
621(13) 0.00578 624.6 14.6
633(13) 0.00550 624.8 14.9
619(14) 0.00532 625.0 15.2
574(13) 0.00615 625.2 15.5
623(13) 0.00599 625.4 15.8
642(13) 0.00568 625.6 16.2
635(13) 0.00552 625.7 16.5
628(14) 0.00523 625.9 16.9
651(14) 0.00541 626.1 17.3
607(13) 0.00608 626.3 17.7
595(13) 0.00620 626.5 18.1
641(14) 0.00538 626.7 18.5
632(14) 0.00523 626.9 19.0
617(13) 0.00566 627.1 19.5
635(13) 0.00587 627.3 19.9
647(13) 0.00555 627.5 20.5
648(14) 0.00539 627.6 21.0
637(14) 0.00539 627.8 21.5
625(13) 0.00549 628.0 22.1
619(13) 0.00603 628.2 22.7
637(14) 0.00547 628.4 23.4
633(14) 0.00544 628.6 24.0
653(14) 0.00524 628.8 24.7
670(14) 0.00527 629.0 25.4
629(13) 0.00589 629.2 26.2
629(13) 0.00565 629.3 27.0
640(14) 0.00529 629.5 27.8
605(13) 0.00583 629.7 28.7
641(13) 0.00560 629.9 29.6
643(13) 0.00584 630.1 30.6
638(14) 0.00543 630.3 31.6
636(14) 0.00523 630.5 32.7
642(14) 0.00537 630.7 33.9
627(13) 0.00589 630.9 35.1
634(13) 0.00590 631.1 36.4
653(14) 0.00544 631.2 37.7
669(14) 0.00483 631.4 39.1
636(14) 0.00543 631.6 40.7
625(13) 0.00580 631.8 42.3
675(13) 0.00551 632.0 44.0
660(14) 0.00529 632.2 45.8
631(14) 0.00512 632.4 47.8
621(13) 0.00566 632.6 49.9
639(13) 0.00581 632.8 52.1
667(13) 0.00555 633.0 54.5
643(14) 0.00542 633.1 57.0
661(14) 0.00476 633.3 59.8
678(14) 0.00507 633.5 62.7
687(14) 0.00541 633.7 65.9
666(13) 0.00552 633.9 69.4
673(14) 0.00525 634.1 73.1
676(14) 0.00483 634.3 77.2
673(14) 0.00510 634.5 81.6
655(13) 0.00571 634.7 86.4
698(14) 0.00520 634.8 91.6
724(15) 0.00470 635.0 97.3
675(14) 0.00502 635.2 103.6
728(15) 0.00473 635.4 110.5
706(14) 0.00528 635.6 118.2
722(14) 0.00502 635.8 126.7
711(14) 0.00500 636.0 136.1
759(15) 0.00443 636.2 146.6
743(15) 0.00466 636.4 158.4
772(14) 0.00483 636.6 171.6
768(14) 0.00476 636.7 186.7
830(16) 0.00408 636.9 203.9
827(16) 0.00406 637.1 223.8
848(16) 0.00408 637.3 247.2
861(15) 0.00434 637.5 274.9
960(16) 0.00372 637.7 308.5
956(17) 0.00361 637.9 350.0
1033(17) 0.003338 638.1 402.2
1101(18) 0.003133 638.3 468.8
1230(18) 0.003021 638.4 554.3
1341(20) 0.002597 638.6 664.3
1541(21) 0.002186 638.8 805.0
1714(22) 0.002018 639.0 982.8
1895(23) 0.001874 639.2 1203.5
2120(24) 0.001755 639.4 1471.1
2452(27) 0.001402 639.6 1787.1
2691(28) 0.001256 639.8 2147.9
3076(30) 0.001116 640.0 2542.4
3356(30) 0.001076 640.2 2948.7
3775(32) 0.000984 640.3 3329.6
4072(34) 0.000856 640.5 3633.2
4471(37) 0.000735 641. 3803.
4808(38) 0.000707 641. 3800.
4552(35) 0.000803 641. 3625.
3922(33) 0.000945 641.3 3317.3
3484(32) 0.000989 641.5 2934.7
2875(29) 0.001173 641.7 2528.1
2617(27) 0.001338 641.9 2134.6
2321(25) 0.001591 642.1 1775.3
2083(24) 0.001767 642.2 1461.1
1869(23) 0.001838 642.4 1195.1
1671(23) 0.001911 642.6 976.0
1491(21) 0.002315 642.8 799.6
1408(19) 0.002632 643.0 660.1
1194(18) 0.003068 643.2 551.1
1179(18) 0.002997 643.4 466.3
1119(19) 0.002913 643.6 400.4
1074(18) 0.003218 643.8 348.6
976(16) 0.00382 643.9 307.4
960(16) 0.00386 644.1 274.1
929(16) 0.00370 644.3 246.6
911(17) 0.00356 644.5 223.4
867(16) 0.00406 644.7 203.6
792(15) 0.00469 644.9 186.5
834(15) 0.00438 645.1 171.5
807(15) 0.00425 645.3 158.3
741(15) 0.00447 645.5 146.6
746(15) 0.00443 645.7 136.1
717(14) 0.00517 645.8 126.7
727(14) 0.00490 646.0 118.3
730(15) 0.00464 646.2 110.7
734(15) 0.00461 646.4 103.8
682(14) 0.00512 646.6 97.6
712(14) 0.00523 646.8 91.9
724(14) 0.00492 647.0 86.7
681(14) 0.00507 647.2 81.9
689(14) 0.00505 647.4 77.5
727(14) 0.00497 647.6 73.5
697(14) 0.00533 647.7 69.8
722(14) 0.00491 647.9 66.4
703(14) 0.00489 648.1 63.2
705(14) 0.00489 648.3 60.3
684(14) 0.00535 648.5 57.6
731(14) 0.00507 648.7 55.0
674(14) 0.00506 648.9 52.7
675(14) 0.00492 649.1 50.5
687(14) 0.00507 649.3 48.4
666(13) 0.00551 649.4 46.5
661(13) 0.00562 649.6 44.7
673(14) 0.00525 649.8 43.0
673(14) 0.00507 650.0 41.4
663(14) 0.00519 650.2 39.9
677(14) 0.00538 650.4 38.4
699(14) 0.00532 650.6 37.1
651(14) 0.00532 650.8 35.9
663(14) 0.00483 651.0 34.7
656(14) 0.00530 651.2 33.5
642(13) 0.00573 651.3 32.5
686(14) 0.00543 651.5 31.5
683(14) 0.00513 651.7 30.5
681(15) 0.00471 651.9 29.6
684(14) 0.00512 652.1 28.7
663(13) 0.00563 652.3 27.9
701(14) 0.00528 652.5 27.2
655(14) 0.00534 652.7 26.4
662(14) 0.00487 652.9 25.7
665(14) 0.00522 653.1 25.0
654(13) 0.00571 653.2 24.4
656(13) 0.00562 653.4 23.8
608(13) 0.00588 653.6 23.2
669(14) 0.00483 653.8 22.6
663(14) 0.00521 654.0 22.1
657(13) 0.00570 654.2 21.6
674(14) 0.00540 654.4 21.1
674(14) 0.00509 654.6 20.6
674(14) 0.00494 654.8 20.2
681(14) 0.00505 654.9 19.7
649(13) 0.00576 655.1 19.3
680(14) 0.00530 655.3 18.9
644(14) 0.00539 655.5 18.5
635(14) 0.00534 655.7 18.2
679(14) 0.00509 655.9 17.8
660(13) 0.00562 656.1 17.5
671(14) 0.00536 656.3 17.2
626(13) 0.00566 656.5 16.9
651(14) 0.00510 656.7 16.6
669(14) 0.00508 656.8 16.3
651(13) 0.00573 657.0 16.0
652(14) 0.00539 657.2 15.7
663(14) 0.00511 657.4 15.5
655(14) 0.00522 657.6 15.2
647(13) 0.00550 657.8 15.0
672(13) 0.00555 658.0 14.7
646(14) 0.00532 658.2 14.5
623(13) 0.00555 658.4 14.3
658(14) 0.00530 658.5 14.1
692(14) 0.00510 658.7 13.9
672(13) 0.00553 658.9 13.7
655(14) 0.00522 659.1 13.5
662(14) 0.00498 659.3 13.3
640(14) 0.00546 659.5 13.2
672(14) 0.00538 659.7 13.0
650(13) 0.00577 659.9 12.8
648(14) 0.00527 660.1 12.7
651(14) 0.00512 660.3 12.5
647(13) 0.00550 660.4 12.4
666(13) 0.00555 660.6 12.2
658(13) 0.00571 660.8 12.1
673(14) 0.00531 661.0 12.0
677(14) 0.00484 661.2 11.8
635(13) 0.00562 661.4 11.7
676(13) 0.00554 661.6 11.6
665(13) 0.00550 661.8 11.5
646(14) 0.00533 662.0 11.4
651(14) 0.00493 662.2 11.3
682(14) 0.00504 662.3 11.2
657(13) 0.00558 662.5 11.1
684(14) 0.00538 662.7 11.0
638(13) 0.00555 662.9 10.9
650(14) 0.00512 663.1 10.8
688(14) 0.00493 663.3 10.7
668(13) 0.00556 663.5 10.6
652(13) 0.00570 663.7 10.5
671(14) 0.00521 663.9 10.5
666(14) 0.00494 664.0 10.4
660(14) 0.00506 664.2 10.3
681(14) 0.00543 664.4 10.3
656(13) 0.00553 664.6 10.2
641(14) 0.00548 664.8 10.1
703(14) 0.00476 665.0 10.1
682(14) 0.00523 665.2 10.0
659(13) 0.00564 665.4 9.9
666(14) 0.00541 665.6 9.9
609(13) 0.00588 665.8 9.8
650(14) 0.00507 665.9 9.8
680(14) 0.00515 666.1 9.7
668(13) 0.00553 666.3 9.7
669(14) 0.00528 666.5 9.6
640(14) 0.00536 666.7 9.6
664(14) 0.00522 666.9 9.6
681(14) 0.00524 667.1 9.5
707(14) 0.00523 667.3 9.5
670(14) 0.00516 667.5 9.5
626(14) 0.00548 667.7 9.4
647(14) 0.00529 667.8 9.4
632(13) 0.00570 668.0 9.4
644(13) 0.00577 668.2 9.3
649(14) 0.00540 668.4 9.3
654(14) 0.00515 668.6 9.3
679(14) 0.00513 668.8 9.3
676(14) 0.00543 669.0 9.2
680(14) 0.00546 669.2 9.2
698(14) 0.00502 669.4 9.2
726(15) 0.00433 669.5 9.2
643(13) 0.00560 669.7 9.2
638(13) 0.00578 669.9 9.2
637(13) 0.00579 670.1 9.2
657(14) 0.00530 670.3 9.1
670(15) 0.00474 670.5 9.1
645(14) 0.00539 670.7 9.1
650(13) 0.00564 670.9 9.1
670(13) 0.00550 671.1 9.1
638(13) 0.00550 671.3 9.1
672(14) 0.00482 671.4 9.1
672(14) 0.00516 671.6 9.1
623(13) 0.00591 671.8 9.1
663(13) 0.00555 672.0 9.1
653(14) 0.00538 672.2 9.1
683(14) 0.00484 672.4 9.1
671(14) 0.00524 672.6 9.1
641(13) 0.00589 672.8 9.1
708(14) 0.00517 673.0 9.2
696(14) 0.00498 673.1 9.2
619(14) 0.00538 673.3 9.2
645(14) 0.00535 673.5 9.2
659(13) 0.00566 673.7 9.2
686(14) 0.00526 673.9 9.2
656(14) 0.00528 674.1 9.2
691(14) 0.00486 674.3 9.3
696(14) 0.00499 674.5 9.3
703(14) 0.00528 674.7 9.3
701(14) 0.00511 674.9 9.3
681(14) 0.00512 675.0 9.4
667(14) 0.00511 675.2 9.4
652(14) 0.00535 675.4 9.4
670(13) 0.00558 675.6 9.4
673(14) 0.00530 675.8 9.5
686(14) 0.00484 676.0 9.5
669(14) 0.00514 676.2 9.5
649(14) 0.00546 676.4 9.6
694(14) 0.00537 676.6 9.6
683(14) 0.00505 676.8 9.6
647(14) 0.00527 676.9 9.7
663(14) 0.00506 677.2 9.7
669(14) 0.00533 677.6 9.7
662(13) 0.00568 678.0 9.8
653(14) 0.00525 678.5 9.8
693(14) 0.00484 678.9 9.9
623(13) 0.00586 679.3 9.9
676(14) 0.00533 679.8 10.0
673(13) 0.00552 680.2 10.0
691(14) 0.00506 680.6 10.1
685(14) 0.00481 681.0 10.1
666(14) 0.00510 681.5 10.2
653(13) 0.00562 681.9 10.2
661(13) 0.00562 682.3 10.3
670(14) 0.00517 682.8 10.3
668(14) 0.00488 683.2 10.4
659(13) 0.00550 683.6 10.5
655(13) 0.00564 684.1 10.5
667(13) 0.00550 684.5 10.6
681(14) 0.00517 684.9 10.7
709(15) 0.00452 685.3 10.7
708(14) 0.00499 685.8 10.8
688(14) 0.00537 686.2 10.9
701(14) 0.00531 686.6 11.0
660(14) 0.00524 687.1 11.0
690(15) 0.00454 687.5 11.1
668(14) 0.00514 687.9 11.2
682(14) 0.00543 688.4 11.3
667(14) 0.00544 688.8 11.4
689(14) 0.00505 689.2 11.4
693(15) 0.00468 689.6 11.5
709(14) 0.00485 690.1 11.6
672(13) 0.00554 690.5 11.7
705(14) 0.00507 690.9 11.8
652(14) 0.00541 691.4 11.9
687(14) 0.00484 691.8 12.0
672(14) 0.00516 692.2 12.1
724(14) 0.00513 692.7 12.2
686(14) 0.00534 693.1 12.3
677(14) 0.00510 693.5 12.4
702(15) 0.00471 693.9 12.5
698(14) 0.00494 694.4 12.7
690(14) 0.00539 694.8 12.8
693(14) 0.00513 695.2 12.9
681(14) 0.00507 695.7 13.0
681(14) 0.00496 696.1 13.1
698(14) 0.00499 696.5 13.3
720(14) 0.00523 697.0 13.4
671(14) 0.00530 697.4 13.5
668(14) 0.00514 697.8 13.7
681(14) 0.00509 698.2 13.8
696(14) 0.00520 698.7 14.0
656(13) 0.00568 699.1 14.1
678(14) 0.00515 699.5 14.3
673(14) 0.00508 700.0 14.4
687(14) 0.00511 700.4 14.6
677(14) 0.00535 700.8 14.7
673(13) 0.00555 701.3 14.9
705(14) 0.00510 701.7 15.1
667(14) 0.00508 702.1 15.2
740(15) 0.00458 702.5 15.4
704(14) 0.00522 703.0 15.6
698(14) 0.00541 703.4 15.8
688(14) 0.00498 703.8 16.0
721(15) 0.00445 704.3 16.2
718(14) 0.00483 704.7 16.4
682(14) 0.00546 705.1 16.6
673(13) 0.00553 705.6 16.8
688(14) 0.00510 706.0 17.0
695(15) 0.00463 706.4 17.3
698(14) 0.00488 706.8 17.5
684(14) 0.00541 707.3 17.7
709(14) 0.00514 707.7 18.0
701(14) 0.00492 708.1 18.2
690(15) 0.00467 708.6 18.5
674(14) 0.00527 709.0 18.7
714(14) 0.00526 709.4 19.0
707(14) 0.00519 709.9 19.3
703(14) 0.00490 710.3 19.5
698(15) 0.00470 710.7 19.8
724(14) 0.00477 711.2 20.1
709(14) 0.00528 711.6 20.4
724(14) 0.00505 712.0 20.7
683(14) 0.00517 712.4 21.1
682(14) 0.00499 712.9 21.4
716(14) 0.00481 713.3 21.7
716(14) 0.00522 713.7 22.1
687(14) 0.00528 714.2 22.4
729(14) 0.00483 714.6 22.8
697(14) 0.00488 715.0 23.2
695(14) 0.00493 715.5 23.6
706(14) 0.00531 715.9 24.0
711(14) 0.00495 716.3 24.4
703(14) 0.00480 716.7 24.8
712(15) 0.00472 717.2 25.3
761(15) 0.00466 717.6 25.7
743(14) 0.00501 718.0 26.2
742(14) 0.00480 718.5 26.7
720(14) 0.00485 718.9 27.2
700(14) 0.00504 719.3 27.7
736(14) 0.00480 719.8 28.2
694(14) 0.00537 720.2 28.7
703(14) 0.00501 720.6 29.3
694(14) 0.00494 721.0 29.9
685(14) 0.00504 721.5 30.5
711(14) 0.00506 721.9 31.1
741(14) 0.00503 722.3 31.7
696(14) 0.00501 722.8 32.4
687(14) 0.00488 723.2 33.1
702(14) 0.00487 723.6 33.8
729(14) 0.00508 724.1 34.5
718(14) 0.00519 724.5 35.3
748(15) 0.00459 724.9 36.1
750(15) 0.00438 725.3 36.9
731(15) 0.00462 725.8 37.7
731(14) 0.00506 726.2 38.6
748(14) 0.00494 726.6 39.5
768(15) 0.00450 727.1 40.5
775(16) 0.00401 727.5 41.5
729(15) 0.00467 727.9 42.5
710(14) 0.00518 728.4 43.5
753(14) 0.00493 728.8 44.6
711(14) 0.00499 729.2 45.8
752(15) 0.00431 729.6 47.0
772(15) 0.00449 730.1 48.2
787(15) 0.00474 730.5 49.5
758(14) 0.00478 730.9 50.9
776(15) 0.00447 731.4 52.3
783(15) 0.00418 731.8 53.8
736(14) 0.00482 732.2 55.3
799(15) 0.00466 732.7 56.9
799(15) 0.00453 733.1 58.6
779(15) 0.00441 733.5 60.4
791(15) 0.00424 733.9 62.2
807(16) 0.00410 734.4 64.1
775(14) 0.00482 734.8 66.2
757(14) 0.00479 735.2 68.3
776(15) 0.00442 735.7 70.5
723(14) 0.00476 736.1 72.9
764(15) 0.00449 736.5 75.3
767(14) 0.00483 737.0 77.9
776(15) 0.00461 737.4 80.7
767(15) 0.00459 737.8 83.6
847(16) 0.00390 738.2 86.6
785(15) 0.00439 738.7 89.9
794(15) 0.00470 739.1 93.3
755(15) 0.00469 739.5 96.9
782(15) 0.00441 740.0 100.8
795(15) 0.00427 740.4 104.8
776(15) 0.00461 740.8 109.2
805(15) 0.00460 741.3 113.8
772(15) 0.00449 741.7 118.7
834(16) 0.00399 742.1 123.9
822(15) 0.00423 742.5 129.6
796(15) 0.00449 743.0 135.5
841(15) 0.00445 743.4 142.0
827(16) 0.00412 743.8 148.9
824(16) 0.00393 744.3 156.3
814(15) 0.00420 744.7 164.3
887(16) 0.00407 745.1 172.9
859(15) 0.00433 745.6 182.2
862(16) 0.00400 746.0 192.2
895(17) 0.00364 746.4 203.2
893(16) 0.00393 746.9 215.1
925(16) 0.00396 747.3 228.0
934(16) 0.00397 747.7 242.2
913(16) 0.00385 748.1 257.7
938(17) 0.00352 748.6 274.7
986(17) 0.003494 749.0 293.5
939(16) 0.00393 749.4 314.2
990(16) 0.00373 749.9 337.2
1017(17) 0.003419 750.3 362.9
1020(18) 0.003169 750.7 391.6
1085(18) 0.003177 751.2 424.1
1130(17) 0.003275 751.6 460.9
1180(18) 0.003134 752.0 503.0
1231(19) 0.002892 752.4 551.7
1281(20) 0.002563 752.9 608.6
1376(20) 0.002549 753.3 675.8
1500(20) 0.002466 753.7 756.1
1562(21) 0.002346 754.2 852.5
1708(22) 0.002037 754.6 969.3
1816(23) 0.001813 755.0 1111.2
1981(24) 0.001734 755.5 1283.7
2246(25) 0.001649 755.9 1492.6
2598(27) 0.001398 756.3 1743.8
2886(29) 0.001191 756.7 2043.3
3160(31) 0.001054 757.2 2395.5
3600(32) 0.000948 757.6 2803.7
4087(33) 0.000901 758.0 3267.4
4585(36) 0.000784 758. 3780.
5098(38) 0.000675 759. 4327.
5708(41) 0.000590 759. 4879.
6410(43) 0.000542 760. 5392.
6926(43) 0.000533 760. 5806.
7166(45) 0.000493 761. 6057.
7110(46) 0.000476 761. 6101.
6817(45) 0.000496 761. 5927.
6176(42) 0.000575 762. 5571.
5534(39) 0.000667 762. 5089.
5018(38) 0.000689 763. 4547.
4427(36) 0.000764 763. 3994.
4010(34) 0.000867 763.6 3465.8
3682(32) 0.000978 764.1 2982.1
3240(30) 0.001139 764.5 2552.1
3011(30) 0.001129 764.9 2178.5
2746(29) 0.001213 765.3 1859.1
2488(27) 0.001401 765.8 1590.0
2328(25) 0.001561 766.2 1365.6
2199(24) 0.001685 766.6 1180.0
2014(24) 0.001726 767.1 1027.2
1966(24) 0.001673 767.5 901.7
1848(23) 0.001875 767.9 798.3
1707(22) 0.002143 768.4 712.7
1599(21) 0.002331 768.8 641.3
1528(21) 0.002240 769.2 581.3
1513(22) 0.002141 769.6 530.3
1407(20) 0.002521 770.1 486.5
1400(20) 0.002623 770.5 448.6
1315(19) 0.002821 770.9 415.5
1340(20) 0.002614 771.4 386.4
1232(20) 0.002617 771.8 360.7
1261(19) 0.002773 772.2 337.9
1174(18) 0.003201 772.7 317.7
1123(17) 0.003291 773.1 299.7
1090(18) 0.003167 773.5 283.8
1064(18) 0.003027 773.9 269.7
1088(18) 0.003240 774.4 257.4
1087(17) 0.003429 774.8 246.7
1078(17) 0.003389 775.2 237.5
1069(18) 0.003230 775.7 229.9
1036(18) 0.003097 776.1 223.8
1015(17) 0.003420 776.5 219.3
999(17) 0.00365 777.0 216.4
1023(17) 0.00356 777.4 215.1
1026(17) 0.003358 777.8 215.7
1009(17) 0.003372 778.2 218.0
1000(17) 0.003468 778.7 222.3
977(16) 0.00377 779.1 228.4
1026(17) 0.00353 779.5 236.5
1023(17) 0.003316 780.0 246.2
1014(17) 0.003325 780.4 257.2
974(17) 0.00364 780.8 269.0
1009(17) 0.00367 781.3 280.6
1052(17) 0.003391 781.7 290.5
1054(18) 0.003203 782.1 297.3
1014(17) 0.003379 782.6 299.5
1054(17) 0.003365 783.0 296.2
1056(17) 0.00352 783.4 287.3
1094(18) 0.003154 783.8 273.7
1080(18) 0.003105 784.3 256.8
1013(17) 0.003312 784.7 238.2
955(16) 0.00372 785.1 219.0
925(16) 0.00402 785.6 200.4
897(16) 0.00386 786.0 182.9
925(17) 0.00366 786.4 166.8
883(16) 0.00394 786.9 152.3
867(15) 0.00423 787.3 139.4
886(16) 0.00413 787.7 127.9
859(16) 0.00399 788.1 117.9
847(16) 0.00391 788.6 109.1
859(16) 0.00403 789.0 101.4
835(15) 0.00439 789.4 94.7
835(15) 0.00445 789.9 88.9
814(15) 0.00435 790.3 83.7
833(16) 0.00390 790.7 79.2
852(16) 0.00406 791.2 75.1
820(15) 0.00450 791.6 71.5
818(15) 0.00451 792.0 68.3
824(15) 0.00424 792.4 65.4
804(16) 0.00407 792.9 62.7
777(15) 0.00455 793.3 60.3
799(15) 0.00463 793.7 58.0
870(15) 0.00423 794.2 55.9
772(15) 0.00456 794.6 54.0
834(16) 0.00376 795.0 52.1
810(15) 0.00437 795.5 50.4
791(15) 0.00474 795.9 48.8
811(15) 0.00452 796.3 47.4
794(15) 0.00436 796.7 45.9
786(16) 0.00415 797.2 44.6
797(15) 0.00438 797.6 43.3
771(14) 0.00484 798.0 42.1
840(15) 0.00436 798.5 41.0
823(15) 0.00428 798.9 39.9
813(16) 0.00404 799.3 38.9
775(15) 0.00439 799.8 37.9
826(15) 0.00453 800.2 37.0
821(15) 0.00446 800.6 36.1
855(16) 0.00402 801.0 35.2
821(16) 0.00411 801.5 34.4
810(15) 0.00439 801.9 33.6
806(15) 0.00461 802.3 32.9
819(15) 0.00435 802.8 32.2
843(16) 0.00401 803.2 31.5
826(16) 0.00411 803.6 30.8
861(16) 0.00408 804.1 30.2
845(15) 0.00442 804.5 29.6
830(15) 0.00429 804.9 29.0
801(15) 0.00422 805.3 28.4
795(15) 0.00429 805.8 27.9
834(15) 0.00422 806.2 27.4
854(15) 0.00439 806.6 26.9
834(15) 0.00422 807.1 26.4
778(15) 0.00426 807.5 25.9
771(15) 0.00442 807.9 25.4
854(15) 0.00422 808.4 25.0
828(15) 0.00446 808.8 24.6
842(16) 0.00414 809.2 24.2
828(16) 0.00407 809.6 23.8
821(15) 0.00422 810.1 23.4
849(15) 0.00427 810.5 23.0
802(15) 0.00466 810.9 22.7
809(15) 0.00418 811.4 22.3
846(16) 0.00380 811.8 22.0
798(15) 0.00450 812.2 21.7
809(15) 0.00456 812.7 21.4
849(15) 0.00438 813.1 21.1
812(15) 0.00429 813.5 20.8
842(16) 0.00380 813.9 20.5
854(16) 0.00406 814.4 20.2
840(15) 0.00439 814.8 19.9
809(15) 0.00464 815.2 19.7
777(15) 0.00454 815.7 19.4
824(16) 0.00391 816.1 19.2
807(15) 0.00433 816.5 19.0
812(15) 0.00454 817.0 18.8
818(15) 0.00455 817.4 18.5
858(16) 0.00412 817.8 18.3
817(16) 0.00412 818.3 18.1
844(16) 0.00415 818.7 17.9
797(15) 0.00465 819.1 17.8
837(15) 0.00440 819.5 17.6
832(15) 0.00424 820.0 17.4
789(15) 0.00424 820.4 17.2
802(15) 0.00431 820.8 17.1
798(15) 0.00467 821.3 16.9
854(15) 0.00424 821.7 16.8
842(16) 0.00408 822.1 16.6
821(16) 0.00408 822.6 16.5
829(16) 0.00410 823.0 16.4
838(15) 0.00444 823.4 16.3
825(15) 0.00443 823.8 16.1
847(16) 0.00407 824.3 16.0
834(16) 0.00409 824.7 15.9
828(15) 0.00428 825.1 15.8
835(15) 0.00446 825.6 15.7
805(15) 0.00447 826.0 15.7
813(15) 0.00427 826.4 15.6
828(16) 0.00408 826.9 15.5
834(15) 0.00423 827.3 15.5
831(15) 0.00446 827.7 15.4
825(15) 0.00427 828.1 15.3
849(16) 0.00399 828.6 15.3
864(16) 0.00396 829.0 15.3
808(15) 0.00447 829.4 15.2
855(15) 0.00435 829.9 15.2
911(16) 0.00369 830.3 15.2
837(16) 0.00408 830.7 15.2
855(16) 0.00406 831.2 15.2
786(15) 0.00462 831.6 15.2
814(15) 0.00457 832.0 15.2
848(16) 0.00412 832.5 15.2
841(16) 0.00392 833.0 15.3
851(16) 0.00408 833.5 15.3
814(15) 0.00450 834.0 15.4
812(15) 0.00456 834.6 15.5
858(16) 0.00398 835.1 15.5
854(16) 0.00380 835.6 15.6
836(16) 0.00412 836.1 15.7
785(15) 0.00474 836.6 15.8
851(15) 0.00432 837.2 16.0
831(15) 0.00420 837.7 16.1
845(16) 0.00379 838.2 16.3
846(15) 0.00420 838.7 16.5
879(15) 0.00422 839.2 16.7
831(15) 0.00447 839.8 16.9
829(16) 0.00411 840.3 17.2
809(16) 0.00411 840.8 17.4
866(16) 0.00409 841.3 17.7
850(15) 0.00438 841.8 18.1
844(15) 0.00439 842.3 18.4
875(16) 0.00397 842.9 18.8
873(16) 0.00388 843.4 19.2
851(15) 0.00419 843.9 19.7
891(15) 0.00419 844.4 20.2
868(16) 0.00407 844.9 20.8
837(16) 0.00412 845.5 21.4
826(16) 0.00412 846.0 22.1
851(16) 0.00412 846.5 22.9
842(15) 0.00444 847.0 23.8
845(15) 0.00424 847.5 24.7
875(16) 0.00400 848.0 25.8
905(16) 0.00381 848.6 26.9
879(16) 0.00398 849.1 28.2
887(15) 0.00422 849.6 29.7
838(15) 0.00426 850.1 31.4
855(16) 0.00405 850.6 33.3
885(16) 0.00378 851.2 35.4
870(16) 0.00405 851.7 37.9
866(15) 0.00432 852.2 40.7
845(16) 0.00416 852.7 44.1
865(16) 0.00392 853.2 48.1
866(16) 0.00397 853.8 53.0
930(16) 0.00389 854.3 59.0
953(16) 0.00388 854.8 66.6
990(17) 0.003437 855.3 76.4
954(17) 0.00356 855.8 88.8
970(17) 0.00359 856.3 104.8
965(16) 0.00376 856.9 125.0
1029(17) 0.00362 857.4 150.4
1070(17) 0.003339 857.9 181.5
1205(19) 0.002742 858.4 218.6
1199(19) 0.002884 858.9 261.6
1210(18) 0.003049 859.5 309.3
1270(18) 0.002933 860.0 359.0
1216(19) 0.002889 860.5 406.2
1304(20) 0.002541 861.0 443.9
1354(20) 0.002567 861.5 464.7
1387(19) 0.002650 862.1 463.7
1336(19) 0.002762 862.6 441.6
1285(19) 0.002652 863.1 404.4
1166(19) 0.002749 863.6 359.7
1234(19) 0.002794 864.1 314.2
1136(17) 0.003266 864.6 272.2
1100(17) 0.003354 865.2 236.3
1096(18) 0.003206 865.7 207.6
1063(18) 0.003076 866.2 186.7
1090(18) 0.003147 866.7 173.5
1037(17) 0.00358 867.2 167.6
1035(17) 0.00357 867.8 168.7
1006(17) 0.003467 868.3 176.2
1043(18) 0.003147 868.8 189.4
1083(18) 0.003139 869.3 207.1
1089(17) 0.003435 869.8 228.0
1081(17) 0.003324 870.4 249.7
1097(18) 0.003159 870.9 268.9
1163(19) 0.002833 871.4 281.4
1179(19) 0.002873 871.9 283.7
1199(18) 0.003119 872.4 274.4
1181(18) 0.003066 872.9 255.3
1137(18) 0.003044 873.5 229.9
1071(18) 0.003178 874.0 202.0
1061(17) 0.003273 874.5 174.4
1013(16) 0.00368 875.0 148.8
978(17) 0.00364 875.5 126.2
956(17) 0.00357 876.1 106.9
944(17) 0.00355 876.6 90.6
914(16) 0.00384 877.1 77.3
961(16) 0.00386 877.6 66.6
904(16) 0.00390 878.1 57.9
910(16) 0.00375 878.6 51.0
916(16) 0.00373 879.2 45.5
914(16) 0.00389 879.7 41.0
891(16) 0.00416 880.2 37.4
911(16) 0.00390 880.7 34.4
906(16) 0.00379 881.2 31.9
918(16) 0.00380 881.8 29.7
880(16) 0.00409 882.3 27.8
873(15) 0.00428 882.8 26.1
883(16) 0.00402 883.3 24.7
866(16) 0.00387 883.8 23.4
917(16) 0.00372 884.4 22.2
922(16) 0.00403 884.9 21.2
911(16) 0.00407 885.4 20.2
890(16) 0.00395 885.9 19.3
900(16) 0.00369 886.4 18.6
890(16) 0.00392 886.9 17.8
890(16) 0.00413 887.5 17.2
885(15) 0.00416 888.0 16.6
858(16) 0.00411 888.5 16.0
894(17) 0.00363 889.0 15.5
903(16) 0.00383 889.5 15.0
867(15) 0.00429 890.1 14.6
903(16) 0.00407 890.6 14.2
914(16) 0.00373 891.1 13.8
868(16) 0.00378 891.6 13.4
902(16) 0.00385 892.1 13.1
937(16) 0.00395 892.7 12.8
893(16) 0.00409 893.2 12.5
875(16) 0.00401 893.7 12.3
889(17) 0.00361 894.2 12.0
896(16) 0.00384 894.7 11.8
873(15) 0.00427 895.2 11.5
889(16) 0.00407 895.8 11.3
913(16) 0.00387 896.3 11.1
892(16) 0.00382 896.8 10.9
927(17) 0.00367 897.3 10.8
900(16) 0.00414 897.8 10.6
927(16) 0.00391 898.4 10.5
908(16) 0.00381 898.9 10.3
905(16) 0.00370 899.4 10.2
925(16) 0.00373 899.9 10.0
887(15) 0.00418 900.4 9.9
941(16) 0.00385 901.0 9.8
906(16) 0.00387 901.5 9.7
872(16) 0.00399 902.0 9.6
920(16) 0.00384 902.5 9.5
936(16) 0.00396 903.0 9.4
893(16) 0.00395 903.5 9.3
928(17) 0.00358 904.1 9.2
896(16) 0.00383 904.6 9.2
882(16) 0.00411 905.1 9.1
905(16) 0.00411 905.6 9.0
901(16) 0.00393 906.1 9.0
915(16) 0.00372 906.7 8.9
915(16) 0.00375 907.2 8.9
890(16) 0.00406 907.7 8.8
913(16) 0.00411 908.2 8.8
911(16) 0.00385 908.7 8.7
886(16) 0.00388 909.2 8.7
871(16) 0.00403 909.8 8.6
933(16) 0.00391 910.3 8.6
936(16) 0.00399 910.8 8.6
916(16) 0.00377 911.3 8.6
939(17) 0.003490 911.8 8.5
898(16) 0.00393 912.4 8.5
920(16) 0.00401 912.9 8.5
966(16) 0.00381 913.4 8.5
912(16) 0.00387 913.9 8.5
929(17) 0.003480 914.4 8.5
958(17) 0.003480 915.0 8.5
937(16) 0.00395 915.5 8.5
903(16) 0.00409 916.0 8.5
901(16) 0.00391 916.5 8.5
923(17) 0.003467 917.0 8.5
934(17) 0.00364 917.5 8.5
910(16) 0.00407 918.1 8.5
953(16) 0.00385 918.6 8.5
975(17) 0.003495 919.1 8.5
920(17) 0.00358 919.6 8.5
917(16) 0.00382 920.1 8.5
924(16) 0.00404 920.7 8.6
899(16) 0.00407 921.2 8.6
922(16) 0.00374 921.7 8.6
907(16) 0.00377 922.2 8.7
952(17) 0.00364 922.7 8.7
922(16) 0.00404 923.3 8.7
953(16) 0.00381 923.8 8.8
954(17) 0.00358 924.3 8.8
937(17) 0.00359 924.8 8.9
939(17) 0.00363 925.3 8.9
941(16) 0.00392 925.8 9.0
883(16) 0.00407 926.4 9.0
930(16) 0.00370 926.9 9.1
961(17) 0.003463 927.4 9.2
928(16) 0.00378 927.9 9.2
933(16) 0.00397 928.4 9.3
934(16) 0.00382 929.0 9.4
1003(17) 0.003322 929.5 9.4
918(16) 0.00376 930.0 9.5
945(16) 0.00372 930.5 9.6
948(16) 0.00392 931.0 9.7
949(17) 0.00363 931.5 9.8
961(17) 0.003466 932.1 9.9
973(17) 0.003506 932.6 10.0
975(17) 0.00365 933.1 10.1
906(16) 0.00409 933.6 10.2
956(17) 0.00359 934.1 10.3
978(17) 0.003439 934.7 10.4
982(17) 0.00353 935.2 10.6
892(16) 0.00408 935.7 10.7
927(16) 0.00401 936.2 10.8
972(17) 0.00361 936.7 11.0
971(17) 0.003461 937.3 11.1
941(16) 0.00371 937.8 11.3
941(16) 0.00394 938.3 11.4
907(16) 0.00411 938.8 11.6
940(16) 0.00373 939.3 11.8
962(17) 0.003420 939.9 12.0
975(17) 0.003494 940.4 12.2
975(16) 0.00379 940.9 12.4
961(16) 0.00387 941.4 12.6
961(17) 0.00362 941.9 12.8
955(17) 0.003308 942.4 13.0
922(16) 0.00375 943.0 13.2
939(16) 0.00395 943.5 13.5
922(16) 0.00397 944.0 13.7
927(17) 0.00366 944.5 14.0
938(17) 0.003412 945.0 14.3
898(16) 0.00389 945.6 14.6
937(16) 0.00398 946.1 14.9
916(16) 0.00399 946.6 15.2
949(17) 0.00366 947.1 15.6
984(17) 0.003385 947.6 15.9
977(17) 0.00355 948.2 16.3
986(16) 0.00375 948.7 16.7
992(16) 0.00373 949.2 17.1
1022(17) 0.003431 949.7 17.5
951(17) 0.00351 950.2 17.9
915(16) 0.00376 950.8 18.4
985(16) 0.00376 951.3 18.9
960(16) 0.00374 951.8 19.4
924(16) 0.00377 952.3 20.0
941(17) 0.00365 952.8 20.5
988(17) 0.00352 953.4 21.1
988(16) 0.00376 953.9 21.8
961(16) 0.00370 954.4 22.4
984(17) 0.003435 954.9 23.2
980(17) 0.003482 955.4 23.9
979(17) 0.00360 955.9 24.7
975(16) 0.00383 956.5 25.5
978(17) 0.00357 957.0 26.4
959(17) 0.003462 957.5 27.4
934(17) 0.00360 958.0 28.4
956(16) 0.00372 958.5 29.5
1000(16) 0.00369 959.1 30.6
976(17) 0.00354 959.6 31.8
994(17) 0.003322 960.1 33.1
1038(17) 0.003295 960.6 34.5
1001(17) 0.00365 961.1 36.0
1015(17) 0.00365 961.7 37.6
983(17) 0.003487 962.2 39.3
1005(17) 0.003281 962.7 41.2
1019(17) 0.003429 963.2 43.1
970(16) 0.00377 963.7 45.3
1005(16) 0.00370 964.3 47.6
1025(17) 0.003381 964.8 50.1
1002(18) 0.003243 965.3 52.8
956(16) 0.00367 965.8 55.8
982(16) 0.00374 966.3 59.0
1019(17) 0.00367 966.9 62.6
1002(17) 0.003452 967.4 66.5
1012(18) 0.003248 967.9 70.8
1043(17) 0.003352 968.4 75.6
1050(17) 0.00355 968.9 80.9
1103(17) 0.003340 969.5 86.8
1031(17) 0.003399 970.0 93.4
1045(18) 0.003050 970.5 100.9
1072(18) 0.003224 971.0 109.5
1083(17) 0.003442 971.5 119.2
1121(17) 0.003279 972.0 130.3
1082(18) 0.003229 972.6 143.0
1169(19) 0.002802 973.1 157.6
1139(18) 0.003017 973.6 174.5
1169(18) 0.003155 974.1 193.9
1212(18) 0.003029 974.6 216.1
1204(19) 0.002896 975.2 241.6
1276(20) 0.002566 975.7 270.6
1301(20) 0.002593 976.2 303.5
1319(19) 0.002815 976.7 340.6
1354(19) 0.002692 977.2 381.8
1436(20) 0.002399 977.8 426.9
1534(21) 0.002206 978.3 475.4
1548(21) 0.002240 978.8 526.1
1641(21) 0.002277 979.3 576.9
1662(22) 0.002143 979.8 625.1
1691(22) 0.002034 980.4 667.5
1709(22) 0.001989 980.9 700.7
1724(22) 0.002068 981.4 722.4
1728(22) 0.002142 981.9 731.4
1753(22) 0.002022 982.4 728.8
1745(23) 0.001948 983.0 716.7
1624(22) 0.002145 983.5 698.0
1664(22) 0.002138 984.0 675.1
1610(21) 0.002318 984.5 649.6
1644(22) 0.002061 985.0 622.2
1595(22) 0.002110 985.5 592.9
1561(21) 0.002226 986.1 561.2
1525(21) 0.002351 986.6 527.2
1520(20) 0.002451 987.1 491.0
1486(21) 0.002317 987.6 453.5
1447(21) 0.002297 988.1 415.6
1349(20) 0.002541 988.7 378.5
1378(19) 0.002650 989.2 343.0
1265(18) 0.002940 989.7 309.8
1289(19) 0.002652 990.2 279.4
1322(20) 0.002477 990.7 251.8
1281(19) 0.002732 991.3 227.0
1255(18) 0.002955 991.8 204.9
1245(18) 0.002985 992.3 185.2
1253(19) 0.002779 992.8 167.8
1198(19) 0.002685 993.3 152.5
1136(18) 0.003109 993.9 138.9
1195(18) 0.003068 994.4 127.0
1183(18) 0.003115 994.9 116.4
1181(18) 0.002938 995.4 107.1
1162(19) 0.002772 995.9 98.8
1183(18) 0.002990 996.5 91.5
1141(18) 0.003228 997.0 85.0
1120(18) 0.003240 997.5 79.1
1076(17) 0.003267 998.0 73.9
1089(18) 0.003028 998.5 69.2
1080(18) 0.003250 999.1 64.9
1105(17) 0.003370 999.6 61.1
1025(17) 0.00358 1000.1 57.6
1048(17) 0.003363 1000.6 54.4
1118(19) 0.002891 1001.1 51.4
1080(18) 0.003137 1001.6 48.7
1070(17) 0.003494 1002.2 46.3
1052(17) 0.003450 1002.7 44.0
1063(18) 0.003226 1003.2 41.9
1091(18) 0.003085 1003.7 39.9
1112(18) 0.003113 1004.2 38.1
1065(17) 0.00351 1004.8 36.4
1109(18) 0.003154 1005.3 34.8
1024(17) 0.003312 1005.8 33.3
1032(18) 0.003251 1006.3 32.0
1094(18) 0.003261 1006.8 30.7
1126(17) 0.003318 1007.4 29.4
1077(18) 0.003225 1007.9 28.3
1007(17) 0.003436 1008.4 27.2
1059(18) 0.003226 1008.9 26.2
1077(17) 0.003269 1009.4 25.3
1038(17) 0.00359 1010.0 24.4
1054(17) 0.003279 1010.5 23.5
1070(18) 0.003127 1011.0 22.7
1073(18) 0.003257 1011.5 22.0
1099(18) 0.003256 1012.0 21.3
1062(17) 0.003494 1012.6 20.6
1040(17) 0.003362 1013.1 19.9
1017(18) 0.003216 1013.6 19.3
1103(18) 0.003075 1014.1 18.7
1058(17) 0.003469 1014.6 18.2
1076(17) 0.003446 1015.1 17.6
1067(18) 0.003230 1015.7 17.1
1014(17) 0.003334 1016.2 16.7
1058(18) 0.003216 1016.7 16.2
1016(17) 0.00364 1017.2 15.8
1043(17) 0.00359 1017.7 15.3
1070(18) 0.003132 1018.3 14.9
1022(18) 0.003164 1018.8 14.6
1051(17) 0.003297 1019.3 14.2
1052(17) 0.003506 1019.8 13.8
1059(17) 0.003477 1020.3 13.5
1024(17) 0.003486 1020.9 13.2
1059(18) 0.003040 1021.4 12.9
1045(17) 0.003327 1021.9 12.6
1032(17) 0.00362 1022.4 12.3
1034(17) 0.00357 1022.9 12.0
1040(17) 0.003351 1023.5 11.7
1035(18) 0.003165 1024.0 11.5
1033(17) 0.003419 1024.5 11.2
1077(17) 0.003431 1025.0 11.0
1056(17) 0.003479 1025.5 10.8
1033(17) 0.003303 1026.1 10.5
1018(18) 0.003261 1026.6 10.3
1081(18) 0.003184 1027.1 10.1
1051(17) 0.00355 1027.6 9.9
1028(17) 0.00353 1028.1 9.7
1000(17) 0.00354 1028.6 9.5
1058(18) 0.003154 1029.2 9.4
1019(17) 0.003349 1029.7 9.2
1080(17) 0.003442 1030.2 9.0
1120(18) 0.003179 1030.7 8.9
1005(17) 0.003465 1031.2 8.7
1020(17) 0.003322 1031.8 8.5
1015(17) 0.003440 1032.3 8.4
1109(17) 0.003373 1032.8 8.3
1065(17) 0.003363 1033.3 8.1
1123(19) 0.002918 1033.8 8.0
976(17) 0.00353 1034.4 7.9
1010(17) 0.00359 1034.9 7.7
1045(17) 0.00353 1035.4 7.6
1078(18) 0.003216 1035.9 7.5
1055(18) 0.003218 1036.4 7.4
1060(17) 0.003307 1037.0 7.3
1025(17) 0.00359 1037.5 7.1
1056(17) 0.00353 1038.0 7.0
1042(18) 0.003247 1038.5 6.9
1014(18) 0.003215 1039.0 6.8
1008(17) 0.003379 1039.6 6.7
1039(17) 0.003492 1040.1 6.6
1028(17) 0.00362 1040.6 6.6
1050(17) 0.003311 1041.1 6.5
1094(18) 0.002977 1041.6 6.4
1050(17) 0.003310 1042.2 6.3
1054(17) 0.003457 1042.7 6.2
1038(17) 0.00360 1043.2 6.1
1022(17) 0.003388 1043.7 6.1
1049(18) 0.003085 1044.2 6.0
1058(17) 0.003294 1044.7 5.9
1132(18) 0.003242 1045.3 5.8
1081(17) 0.003449 1045.8 5.8
1059(17) 0.003318 1046.3 5.7
1023(18) 0.003138 1046.8 5.6
1048(17) 0.003336 1047.3 5.6
1055(17) 0.00352 1047.9 5.5
1091(17) 0.003354 1048.4 5.4
1088(18) 0.003197 1048.9 5.4
1091(18) 0.003011 1049.4 5.3
1085(18) 0.003200 1049.9 5.3
1054(17) 0.00351 1050.5 5.2
1079(17) 0.003390 1051.0 5.2
1121(18) 0.003050 1051.5 5.1
1058(18) 0.003102 1052.0 5.1
1025(17) 0.003405 1052.5 5.0
1078(17) 0.003430 1053.1 5.0
1089(17) 0.003297 1053.6 4.9
1078(18) 0.003222 1054.1 4.9
1116(18) 0.002989 1054.6 4.8
1050(17) 0.003322 1055.1 4.8
1081(17) 0.003450 1055.7 4.7
1086(17) 0.003324 1056.2 4.7
1072(18) 0.003157 1056.7 4.7
1042(17) 0.003311 1057.2 4.6
1108(18) 0.003123 1057.7 4.6
1076(17) 0.003447 1058.2 4.5
1060(17) 0.003399 1058.8 4.5
1052(18) 0.003250 1059.3 4.5
1102(18) 0.003074 1059.8 4.4
1059(17) 0.003388 1060.3 4.4
1061(17) 0.003504 1060.8 4.4
1094(18) 0.003253 1061.4 4.3
1099(18) 0.003141 1061.9 4.3
1033(17) 0.003399 1062.4 4.3
1047(17) 0.003432 1062.9 4.3
1111(17) 0.003354 1063.4 4.2
1051(18) 0.003260 1064.0 4.2
1064(18) 0.003113 1064.5 4.2
1106(18) 0.003072 1065.0 4.2
1118(18) 0.003243 1065.5 4.2
1057(17) 0.00354 1066.0 4.2
1086(18) 0.003143 1066.6 4.1
1089(18) 0.003083 1067.1 4.1
1115(18) 0.003063 1067.6 4.1
1075(17) 0.003386 1068.1 4.1
1105(17) 0.003387 1068.6 4.1
1104(18) 0.003112 1069.2 4.1
1092(18) 0.002965 1069.7 4.1
1100(18) 0.003127 1070.2 4.1
1079(17) 0.003436 1070.7 4.1
1100(17) 0.003361 1071.2 4.1
1047(17) 0.003332 1071.8 4.1
1078(18) 0.002929 1072.3 4.1
1097(18) 0.003143 1072.8 4.1
1083(17) 0.003404 1073.3 4.1
1127(17) 0.003287 1073.8 4.2
1115(18) 0.003087 1074.3 4.2
1039(18) 0.003144 1074.9 4.2
1085(18) 0.003214 1075.4 4.2
1063(17) 0.003504 1075.9 4.3
1099(17) 0.003327 1076.4 4.3
1107(18) 0.003165 1076.9 4.3
1157(19) 0.002823 1077.5 4.4
1093(18) 0.003156 1078.0 4.4
1080(17) 0.003434 1078.5 4.5
1081(17) 0.003408 1079.0 4.5
1076(18) 0.003187 1079.5 4.6
1111(19) 0.002918 1079.8 4.6
1092(18) 0.003217 1079.9 4.7
1084(17) 0.003445 1080.0 4.7
1077(17) 0.003399 1080.0 4.8
1069(18) 0.003235 1080.1 4.8
1063(18) 0.003153 1080.1 4.8
1088(18) 0.003203 1080.2 4.8
1123(17) 0.003301 1080.3 4.8
1144(18) 0.003116 1080.3 4.8
1093(18) 0.003175 1080.4 4.8
1093(18) 0.003087 1080.5 4.8
1109(18) 0.003170 1080.5 4.7
1095(17) 0.003403 1080.6 4.7
1068(18) 0.003250 1080.7 4.6
1090(18) 0.003102 1080.7 4.5
1089(18) 0.003199 1080.8 4.4
1091(17) 0.003285 1080.8 4.4
1102(17) 0.003389 1080.9 4.3
1042(17) 0.003314 1081.0 4.2
1043(17) 0.003283 1081.0 4.1
1135(18) 0.003047 1081.1 4.1
1099(17) 0.003331 1081.2 4.0
1094(17) 0.003370 1081.2 3.9
1067(17) 0.003304 1081.3 3.9
1099(18) 0.003041 1081.4 3.8
1077(18) 0.003170 1081.4 3.8
1062(17) 0.003395 1081.5 3.7
1090(17) 0.003441 1081.5 3.7
1093(18) 0.003174 1081.6 3.6
1100(18) 0.002987 1081.7 3.6
1112(18) 0.003116 1081.7 3.5
1114(17) 0.003298 1081.8 3.5
1109(17) 0.003340 1081.9 3.5
1090(18) 0.003211 1081.9 3.4
1070(18) 0.003113 1082.0 3.4
1061(17) 0.003334 1082.0 3.4
1052(17) 0.003507 1082.1 3.4
1100(17) 0.003361 1082.2 3.4
1156(18) 0.002968 1082.2 3.3
1077(18) 0.003022 1082.3 3.3
1093(18) 0.003194 1082.4 3.3
1125(17) 0.003285 1082.4 3.3
1060(17) 0.003480 1082.5 3.3
1080(18) 0.003202 1082.6 3.3
1144(19) 0.002851 1082.6 3.3
1121(18) 0.003120 1082.7 3.3
1087(17) 0.003417 1082.7 3.3
1092(17) 0.003335 1082.8 3.2
1115(18) 0.003108 1082.9 3.2
1100(18) 0.002987 1082.9 3.2
1075(18) 0.003217 1083.0 3.2
1123(17) 0.003315 1083.1 3.3
1109(18) 0.003254 1083.1 3.3
1114(18) 0.003117 1083.2 3.3
1117(18) 0.002965 1083.3 3.3
1113(18) 0.002976 1083.3 3.3
1100(17) 0.003393 1083.4 3.3
1057(17) 0.003389 1083.4 3.3
1075(18) 0.003115 1083.5 3.3
1066(18) 0.003128 1083.6 3.3
1127(18) 0.003099 1083.6 3.3
1056(17) 0.00352 1083.7 3.4
1103(18) 0.003147 1083.8 3.4
1075(18) 0.003158 1083.8 3.4
1121(18) 0.003003 1083.9 3.4
1106(18) 0.003181 1083.9 3.4
1085(17) 0.003416 1084.0 3.5
1074(17) 0.003267 1084.1 3.5
1035(18) 0.003256 1084.1 3.5
1118(18) 0.003007 1084.2 3.6
1138(18) 0.003153 1084.3 3.6
1091(17) 0.003355 1084.3 3.6
1110(18) 0.003108 1084.4 3.7
1149(19) 0.002894 1084.5 3.7
1099(18) 0.003205 1084.5 3.8
1117(18) 0.003237 1084.6 3.8
1061(17) 0.003471 1084.6 3.8
1096(18) 0.003163 1084.7 3.9
1091(18) 0.003011 1084.8 4.0
1120(18) 0.003101 1084.8 4.0
1070(17) 0.003445 1084.9 4.1
1066(17) 0.00351 1085.0 4.2
1060(17) 0.003279 1085.0 4.2
1127(19) 0.002841 1085.1 4.3
1101(18) 0.003144 1085.2 4.4
1083(17) 0.003367 1085.2 4.5
1100(17) 0.003360 1085.3 4.6
1098(18) 0.003097 1085.3 4.7
1094(18) 0.002923 1085.4 4.8
1149(18) 0.002942 1085.5 4.9
1116(17) 0.003312 1085.5 5.0
1090(17) 0.003355 1085.6 5.2
1118(18) 0.003098 1085.7 5.3
1127(19) 0.002875 1085.7 5.4
1134(18) 0.003026 1085.8 5.6
1149(18) 0.003233 1085.8 5.8
1148(18) 0.003149 1085.9 6.0
1082(18) 0.003194 1086.0 6.2
1078(18) 0.003053 1086.0 6.4
1089(18) 0.003165 1086.1 6.6
1088(17) 0.003437 1086.2 6.9
1122(18) 0.003217 1086.2 7.2
1109(18) 0.003097 1086.3 7.5
1105(18) 0.003050 1086.4 7.8
1141(18) 0.003004 1086.4 8.2
1147(18) 0.003254 1086.5 8.6
1077(17) 0.003383 1086.5 9.0
1138(18) 0.003002 1086.6 9.5
1098(18) 0.003093 1086.7 10.0
1138(18) 0.002998 1086.7 10.6
1113(17) 0.003355 1086.8 11.2
1079(17) 0.003308 1086.9 11.9
1072(18) 0.003236 1086.9 12.7
1092(18) 0.003131 1087.0 13.5
1106(18) 0.003237 1087.0 14.4
1139(18) 0.003254 1087.1 15.4
1132(18) 0.003083 1087.2 16.5
1094(18) 0.003104 1087.2 17.7
1110(18) 0.003062 1087.3 19.0
1107(18) 0.003246 1087.4 20.4
1104(17) 0.003363 1087.4 22.0
1104(18) 0.003127 1087.5 23.6
1119(18) 0.003066 1087.6 25.3
1121(18) 0.003147 1087.6 27.2
1133(18) 0.003247 1087.7 29.1
1161(18) 0.003194 1087.7 31.0
1158(19) 0.002905 1087.8 33.0
1130(19) 0.002913 1087.9 34.9
1158(18) 0.002992 1087.9 36.6
1129(17) 0.003273 1088.0 38.2
1106(17) 0.003387 1088.1 39.5
1142(18) 0.003086 1088.1 40.4
1118(18) 0.002936 1088.2 40.9
1100(18) 0.003190 1088.3 40.9
1134(17) 0.003268 1088.3 40.5
1175(18) 0.003163 1088.4 39.7
1191(19) 0.002865 1088.4 38.4
1150(19) 0.002806 1088.5 36.9
1154(18) 0.002990 1088.6 35.2
1146(18) 0.003215 1088.6 33.3
1108(17) 0.003326 1088.7 31.4
1124(18) 0.003121 1088.8 29.4
1115(19) 0.002901 1088.8 27.5
1099(18) 0.003199 1088.9 25.6
1097(17) 0.003395 1088.9 23.8
1113(17) 0.003294 1089.0 22.2
1085(18) 0.003200 1089.1 20.6
1082(18) 0.003085 1089.1 19.1
1069(18) 0.003262 1089.2 17.8
1091(17) 0.003414 1089.3 16.6
1057(17) 0.003448 1089.3 15.4
1117(18) 0.003065 1089.4 14.4
1060(18) 0.003164 1089.5 13.5
1098(18) 0.003164 1089.5 12.6
1088(17) 0.003421 1089.6 11.8
1112(18) 0.003254 1089.6 11.1
1100(18) 0.003141 1089.7 10.5
1124(18) 0.002973 1089.8 9.9
1135(18) 0.003023 1089.8 9.3
1110(17) 0.003379 1089.9 8.8
1105(18) 0.003196 1090.0 8.4
1134(18) 0.003002 1090.0 8.0
1088(18) 0.003206 1090.1 7.6
1103(18) 0.003199 1090.2 7.2
1098(17) 0.003386 1090.2 6.9
1099(18) 0.003187 1090.3 6.6
1118(18) 0.003062 1090.3 6.3
1129(18) 0.003081 1090.4 6.1
1095(17) 0.003269 1090.5 5.9
1122(17) 0.003307 1090.5 5.6
1100(18) 0.003137 1090.6 5.4
1097(18) 0.003029 1090.7 5.2
1116(18) 0.003006 1090.7 5.1
1086(17) 0.003339 1090.8 4.9
1109(17) 0.003355 1090.8 4.7
1074(18) 0.003247 1090.9 4.6
1073(18) 0.003126 1091.0 4.5
1119(18) 0.003104 1091.0 4.3
1112(18) 0.003258 1091.1 4.2
1139(17) 0.003277 1091.2 4.1
1132(18) 0.003088 1091.2 4.0
1075(18) 0.003094 1091.3 3.9
1079(18) 0.003265 1091.4 3.8
1146(18) 0.003200 1091.4 3.7
1120(17) 0.003313 1091.5 3.6
1128(18) 0.003073 1091.5 3.5
1088(18) 0.002965 1091.6 3.5
1085(18) 0.003256 1091.7 3.4
1147(18) 0.003249 1091.7 3.3
1122(17) 0.003304 1091.8 3.2
1099(18) 0.003130 1091.9 3.2
1068(18) 0.003019 1091.9 3.1
1080(18) 0.003201 1092.0 3.1
1093(17) 0.003409 1092.1 3.0
1092(17) 0.003386 1092.1 2.9
1096(18) 0.003196 1092.2 2.9
1160(19) 0.002828 1092.2 2.8
1070(17) 0.003274 1092.3 2.8
1105(17) 0.003357 1092.4 2.8
1117(18) 0.003231 1092.4 2.7
1078(18) 0.003244 1092.5 2.7
1130(19) 0.002901 1092.6 2.6
1106(18) 0.003127 1092.6 2.6
1089(17) 0.003410 1092.7 2.6
1089(17) 0.003323 1092.7 2.5
1068(18) 0.003248 1092.8 2.5
1074(18) 0.003181 1092.9 2.5
1121(18) 0.003154 1092.9 2.4
1123(17) 0.003331 1093.0 2.4
1113(18) 0.003255 1093.1 2.4
1111(18) 0.003123 1093.1 2.3
1101(18) 0.003066 1093.2 2.3
1093(18) 0.003219 1093.3 2.3
1154(18) 0.003212 1093.3 2.3
1134(18) 0.003121 1093.4 2.2
1133(18) 0.003005 1093.4 2.2
1138(18) 0.002989 1093.5 2.2
1068(17) 0.003353 1093.6 2.2
1067(17) 0.003490 1093.6 2.1
1069(18) 0.003254 1093.7 2.1
1074(18) 0.003169 1093.5 2.1
1095(18) 0.003146 1093.1 2.1
1102(18) 0.003257 1092.6 2.1
1105(17) 0.003358 1092.1 2.0
1137(18) 0.003115 1091.7 2.0
1129(18) 0.002970 1091.2 2.0
1123(18) 0.003054 1090.8 2.0
1106(17) 0.003285 1090.3 2.0
1107(17) 0.003389 1089.9 2.0
1136(18) 0.003039 1089.4 1.9
1072(18) 0.003090 1089.0 1.9
1117(18) 0.003093 1088.5 1.9
1094(17) 0.003375 1088.1 1.9
1129(17) 0.003289 1087.6 1.9
1122(18) 0.003070 1087.2 1.9
1121(19) 0.002861 1086.7 1.9
1115(18) 0.003093 1086.3 1.8
1089(17) 0.003409 1085.8 1.8
1080(17) 0.003432 1085.3 1.8
1069(17) 0.003310 1084.9 1.8
1095(18) 0.002958 1084.4 1.8
1108(18) 0.003154 1084.0 1.8
1105(17) 0.003405 1083.5 1.8
1113(18) 0.003257 1083.1 1.8
1082(18) 0.003250 1082.6 1.7
1097(18) 0.002980 1082.2 1.7
1093(18) 0.003203 1081.7 1.7
1077(17) 0.003461 1081.3 1.7
1101(17) 0.003353 1080.8 1.7
1133(18) 0.003034 1080.4 1.7
1143(19) 0.002888 1079.9 1.7
1105(18) 0.003115 1079.5 1.7
1079(17) 0.003455 1079.0 1.7
1082(17) 0.003338 1078.5 1.7
1114(18) 0.003120 1078.1 1.7
1136(18) 0.002956 1077.6 1.6
1104(18) 0.003111 1077.2 1.6
1119(17) 0.003309 1076.7 1.6
1064(17) 0.003324 1076.3 1.6
1094(18) 0.003092 1075.8 1.6
1063(18) 0.003162 1075.4 1.6
1041(17) 0.003387 1074.9 1.6
1066(17) 0.003496 1074.5 1.6
1108(18) 0.003229 1074.0 1.6
1063(18) 0.003226 1073.6 1.6
1116(18) 0.003025 1073.1 1.6
1038(17) 0.003452 1072.7 1.6
1062(17) 0.003502 1072.2 1.6
1033(17) 0.003381 1071.7 1.6
1107(18) 0.003044 1071.3 1.6
1096(18) 0.003198 1070.8 1.5
1104(18) 0.003263 1070.4 1.5
1145(18) 0.003242 1069.9 1.5
1050(18) 0.003256 1069.5 1.5
1109(18) 0.003012 1069.0 1.5
1162(18) 0.002995 1068.6 1.5
1105(17) 0.003302 1068.1 1.5
1124(17) 0.003302 1067.7 1.5
1106(18) 0.003116 1067.2 1.5
1110(18) 0.002989 1066.8 1.5
1089(18) 0.003196 1066.3 1.5
1098(17) 0.003314 1065.9 1.5
1064(17) 0.003504 1065.4 1.5
1074(18) 0.003189 1065.0 1.5
1095(18) 0.002932 1064.5 1.5
1065(17) 0.003274 1064.0 1.5
1094(17) 0.003354 1063.6 1.5
1072(17) 0.003464 1063.1 1.5
1101(18) 0.003183 1062.7 1.5
1076(18) 0.003011 1062.2 1.5
1022(17) 0.003437 1061.8 1.4
1094(17) 0.003397 1061.3 1.4
1082(17) 0.003388 1060.9 1.4
1068(18) 0.003116 1060.4 1.4
1078(18) 0.003042 1060.0 1.4
1135(18) 0.003052 1059.5 1.4
1052(17) 0.00355 1059.1 1.4
1069(17) 0.003426 1058.6 1.4
1070(17) 0.003266 1058.2 1.4
1107(18) 0.002965 1057.7 1.4
1058(17) 0.003283 1057.2 1.4
1045(17) 0.00355 1056.8 1.4
1050(17) 0.003494 1056.3 1.4
1109(18) 0.003104 1055.9 1.4
1108(18) 0.003028 1055.4 1.4
1069(18) 0.003246 1055.0 1.4
1078(17) 0.003421 1054.5 1.4
1092(17) 0.003305 1054.1 1.4
1117(18) 0.003111 1053.6 1.4
1122(18) 0.003062 1053.2 1.4
1060(17) 0.003343 1052.7 1.4
1072(17) 0.003463 1052.3 1.4
1100(18) 0.003217 1051.8 1.4
1075(18) 0.003142 1051.4 1.4
1076(18) 0.003154 1050.9 1.4
1119(18) 0.003229 1050.4 1.4
1105(17) 0.003372 1050.0 1.4
1103(18) 0.003149 1049.5 1.4
1070(18) 0.003202 1049.1 1.4
1051(17) 0.003306 1048.6 1.4
1033(17) 0.003494 1048.2 1.4
1045(17) 0.00354 1047.7 1.4
1039(17) 0.003448 1047.3 1.4
1057(18) 0.003211 1046.8 1.4
1064(18) 0.003235 1046.4 1.4
1081(17) 0.003333 1045.9 1.4
1120(17) 0.003339 1045.5 1.4
1088(18) 0.003162 1045.0 1.4
1066(18) 0.003103 1044.6 1.4
1065(18) 0.003262 1044.1 1.4
1058(17) 0.003458 1043.6 1.4
1025(17) 0.00364 1043.2 1.3
1105(18) 0.003065 1042.7 1.3
1063(18) 0.003087 1042.3 1.3
1049(17) 0.003379 1041.8 1.3
1040(17) 0.00356 1041.4 1.3
1072(17) 0.003463 1040.9 1.3
1068(17) 0.003276 1040.5 1.3
1039(18) 0.003163 1040.0 1.3
1066(17) 0.003271 1039.6 1.3
1060(17) 0.003466 1039.1 1.3
1044(17) 0.00356 1038.7 1.3
998(17) 0.003492 1038.2 1.3
1091(19) 0.002897 1037.8 1.3
1079(18) 0.003217 1037.3 1.3
1080(17) 0.003445 1036.9 1.3
1072(17) 0.003456 1036.4 1.3
1036(17) 0.003421 1035.9 1.3
1066(18) 0.003091 1035.5 1.3
1080(18) 0.003242 1035.0 1.3
1055(17) 0.00353 1034.6 1.3
1081(17) 0.003372 1034.1 1.3
1062(17) 0.003274 1033.7 1.3
1107(18) 0.002975 1033.2 1.3
1077(18) 0.003174 1032.8 1.3
1128(17) 0.003289 1032.3 1.3
1061(17) 0.003400 1031.9 1.3
1078(18) 0.003254 1031.4 1.3
1028(17) 0.003352 1031.0 1.3
1041(17) 0.003387 1030.5 1.3
1029(17) 0.00361 1030.1 1.3
1091(18) 0.003246 1029.6 1.3
1088(18) 0.003175 1029.1 1.3
1054(18) 0.003250 1028.7 1.3
1025(17) 0.003440 1028.2 1.3
998(16) 0.00373 1027.8 1.3
1050(17) 0.003354 1027.3 1.3
1093(18) 0.003096 1026.9 1.3
987(17) 0.003503 1026.4 1.3
978(17) 0.00361 1026.0 1.3
1040(17) 0.00360 1025.5 1.3
1017(17) 0.003425 1025.1 1.3
1028(18) 0.003231 1024.6 1.3
1044(17) 0.003275 1024.2 1.3
1006(17) 0.00363 1023.7 1.3
1038(17) 0.00357 1023.3 1.3
1043(18) 0.003259 1022.8 1.3
1001(17) 0.003314 1022.3 1.3
1041(18) 0.003260 1021.9 1.3
1025(17) 0.003502 1021.4 1.3
1039(17) 0.00360 1021.0 1.3
1057(17) 0.003289 1020.5 1.3
1063(18) 0.003058 1020.1 1.3
1032(17) 0.003370 1019.6 1.3
1071(17) 0.003457 1019.2 1.3
1022(17) 0.00361 1018.7 1.3
1037(17) 0.003358 1018.3 1.3
1010(18) 0.003249 1017.8 1.3
1038(17) 0.003358 1017.4 1.3
1088(17) 0.003408 1016.9 1.3
1108(17) 0.003303 1016.5 1.3
1059(17) 0.003276 1016.0 1.3
1013(18) 0.003209 1015.5 1.3
1044(17) 0.003362 1015.1 1.3
1018(17) 0.00362 1014.6 1.3
998(16) 0.00373 1014.2 1.3
1085(18) 0.003181 1013.7 1.3
1014(18) 0.003200 1013.3 1.3
1015(17) 0.003446 1012.8 1.3
1044(17) 0.00355 1012.4 1.3
1011(17) 0.00365 1011.9 1.3
1047(17) 0.003273 1011.5 1.3
1013(17) 0.003329 1011.0 1.3
1005(17) 0.003479 1010.6 1.3
1069(17) 0.003477 1010.1 1.3
1057(17) 0.003393 1009.7 1.3
1025(17) 0.003359 1009.2 1.3
1031(18) 0.003196 1008.8 1.3
1032(17) 0.003366 1008.3 1.3
1019(17) 0.00363 1007.8 1.3
1017(17) 0.00355 1007.4 1.3
1031(17) 0.003320 1006.9 1.3
994(17) 0.003430 1006.5 1.4
1021(17) 0.003439 1006.0 1.4
1056(17) 0.00351 1005.6 1.4
1024(17) 0.003475 1005.1 1.4
998(17) 0.003432 1004.7 1.4
1026(18) 0.003256 1004.2 1.4
1002(17) 0.00353 1003.8 1.4
1039(17) 0.00360 1003.3 1.4
1030(17) 0.003408 1002.9 1.4
1048(18) 0.003182 1002.4 1.4
986(17) 0.003497 1002.0 1.4
1043(17) 0.003458 1001.5 1.4
1047(17) 0.00353 1001.0 1.4
1029(17) 0.003367 1000.6 1.4
1039(18) 0.003196 1000.1 1.4
1018(17) 0.003448 999.7 1.4
1026(17) 0.00356 999.2 1.4
1004(16) 0.00373 998.8 1.4
1025(17) 0.003381 998.3 1.4
984(17) 0.003327 997.9 1.4
986(17) 0.00351 997.4 1.4
1039(17) 0.003503 997.0 1.4
991(16) 0.00374 996.5 1.4
1022(17) 0.003414 996.1 1.4
1037(18) 0.003156 995.6 1.4
994(17) 0.00352 995.2 1.4
1010(17) 0.00361 994.7 1.4
1016(17) 0.00366 994.2 1.4
1063(17) 0.003301 993.8 1.4
999(18) 0.003217 993.3 1.4
1034(17) 0.003333 992.9 1.4
1027(17) 0.00359 992.4 1.4
998(16) 0.00374 992.0 1.4
1034(17) 0.003347 991.5 1.4
1014(18) 0.003228 991.1 1.4
1017(17) 0.003343 990.6 1.4
1015(16) 0.00367 990.2 1.4
1069(17) 0.003420 989.7 1.4
1036(17) 0.003359 989.3 1.4
984(17) 0.003373 988.8 1.4
950(16) 0.00369 988.4 1.4
1054(17) 0.00353 987.9 1.4
1030(17) 0.003484 987.4 1.5
998(17) 0.00352 987.0 1.5
1023(17) 0.003336 986.5 1.5
1067(18) 0.003201 986.1 1.5
988(16) 0.00376 985.6 1.5
996(17) 0.00356 985.2 1.5
1004(17) 0.003426 984.7 1.5
1001(17) 0.003368 984.3 1.5
993(17) 0.003494 983.8 1.5
945(16) 0.00392 983.4 1.5
1007(17) 0.003486 982.9 1.5
1037(17) 0.003299 982.5 1.5
1026(17) 0.003361 982.0 1.5
1020(17) 0.003480 981.6 1.5
999(16) 0.00373 981.1 1.5
986(17) 0.00355 980.6 1.5
1022(17) 0.003300 980.0 1.5
1032(17) 0.003371 979.5 1.5
1029(17) 0.00356 979.0 1.5
936(16) 0.00395 978.5 1.5
963(17) 0.00358 978.0 1.5
961(17) 0.00352 977.5 1.5
1001(17) 0.003505 976.9 1.5
1012(17) 0.00361 976.4 1.5
978(16) 0.00381 975.9 1.6
990(17) 0.00353 975.4 1.6
1002(17) 0.003277 974.9 1.6
966(17) 0.00361 974.4 1.6
991(17) 0.00364 973.9 1.6
997(16) 0.00375 973.3 1.6
1016(17) 0.003422 972.8 1.6
985(18) 0.003247 972.3 1.6
1017(17) 0.003452 971.8 1.6
1010(17) 0.00363 971.3 1.6
971(16) 0.00382 970.8 1.6
944(16) 0.00372 970.2 1.6
966(17) 0.003337 969.7 1.6
1018(17) 0.003389 969.2 1.6
1002(16) 0.00369 968.7 1.6
988(16) 0.00376 968.2 1.6
972(17) 0.00359 967.7 1.6
1001(17) 0.003270 967.1 1.7
1000(17) 0.003497 966.6 1.7
951(16) 0.00391 966.1 1.7
958(16) 0.00382 965.6 1.7
1016(17) 0.003363 965.1 1.7
990(17) 0.003316 964.6 1.7
963(16) 0.00371 964.1 1.7
972(16) 0.00385 963.5 1.7
991(16) 0.00369 963.0 1.7
968(17) 0.00354 962.5 1.7
1024(18) 0.003202 962.0 1.7
1004(17) 0.003406 961.5 1.7
977(16) 0.00382 961.0 1.8
1013(17) 0.00355 960.4 1.8
980(17) 0.00356 959.9 1.8
956(17) 0.00353 959.4 1.8
995(17) 0.00353 958.9 1.8
995(16) 0.00373 958.4 1.8
1020(17) 0.003449 957.9 1.8
1023(17) 0.003344 957.3 1.8
945(16) 0.00373 956.8 1.8
986(17) 0.00366 956.3 1.8
978(16) 0.00382 955.8 1.8
999(17) 0.003489 955.3 1.9
986(17) 0.003387 954.8 1.9
974(17) 0.003482 954.3 1.9
985(16) 0.00368 953.7 1.9
983(16) 0.00377 953.2 1.9
969(17) 0.00361 952.7 1.9
988(17) 0.003427 952.2 1.9
1002(17) 0.003442 951.7 1.9
909(16) 0.00396 951.2 2.0
957(16) 0.00387 950.6 2.0
989(17) 0.003480 950.1 2.0
943(17) 0.00352 949.6 2.0
956(16) 0.00369 949.1 2.0
967(16) 0.00378 948.6 2.0
942(16) 0.00398 948.1 2.0
967(17) 0.00365 947.5 2.1
998(18) 0.003255 947.0 2.1
949(17) 0.00367 946.5 2.1
980(16) 0.00373 946.0 2.1
927(16) 0.00398 945.5 2.1
941(17) 0.00366 945.0 2.1
933(17) 0.00354 944.5 2.2
965(17) 0.00364 943.9 2.2
968(16) 0.00378 943.4 2.2
971(16) 0.00381 942.9 2.2
958(16) 0.00368 942.4 2.2
987(17) 0.003300 941.9 2.3
986(17) 0.003466 941.4 2.3
940(16) 0.00394 940.8 2.3
956(16) 0.00386 940.3 2.3
970(17) 0.00364 939.8 2.3
956(17) 0.003454 939.3 2.4
937(17) 0.00363 938.8 2.4
996(16) 0.00371 938.3 2.4
949(16) 0.00383 937.7 2.4
981(17) 0.00354 937.2 2.5
977(17) 0.003462 936.7 2.5
954(17) 0.00365 936.2 2.5
941(16) 0.00396 935.7 2.6
987(16) 0.00368 935.2 2.6
984(17) 0.00353 934.7 2.6
955(17) 0.00357 934.1 2.7
973(17) 0.00359 933.6 2.7
939(16) 0.00396 933.1 2.7
937(16) 0.00381 932.6 2.8
991(17) 0.003491 932.1 2.8
949(17) 0.00366 931.6 2.9
917(16) 0.00387 931.0 2.9
982(16) 0.00378 930.5 2.9
910(16) 0.00393 930.0 3.0
896(16) 0.00390 929.5 3.0
957(17) 0.00358 929.0 3.1
945(16) 0.00378 928.5 3.2
932(16) 0.00401 927.9 3.2
917(16) 0.00379 927.4 3.3
905(16) 0.00373 926.9 3.3
935(16) 0.00369 926.4 3.4
962(16) 0.00384 925.9 3.5
972(16) 0.00381 925.4 3.6
896(16) 0.00389 924.9 3.6
957(17) 0.003411 924.3 3.7
961(17) 0.00359 923.8 3.8
944(16) 0.00387 923.3 3.9
925(16) 0.00405 922.8 4.0
922(16) 0.00379 922.3 4.1
952(17) 0.003395 921.8 4.2
922(16) 0.00374 921.2 4.4
914(16) 0.00406 920.7 4.5
932(16) 0.00400 920.2 4.6
920(16) 0.00384 919.7 4.8
950(17) 0.003309 919.2 5.0
919(16) 0.00378 918.7 5.1
922(16) 0.00402 918.1 5.3
954(16) 0.00391 917.6 5.5
903(16) 0.00392 917.1 5.7
938(17) 0.003456 916.6 6.0
967(17) 0.00361 916.1 6.2
936(16) 0.00398 915.6 6.5
915(16) 0.00404 915.1 6.8
929(16) 0.00372 914.5 7.1
919(17) 0.00353 914.0 7.5
870(16) 0.00399 913.5 7.8
976(16) 0.00380 913.0 8.2
914(16) 0.00402 912.5 8.6
911(16) 0.00384 912.0 9.1
920(16) 0.00372 911.4 9.5
906(16) 0.00383 910.9 10.0
918(16) 0.00405 910.4 10.5
941(16) 0.00386 909.9 11.0
944(17) 0.00366 909.4 11.4
907(16) 0.00369 908.9 11.9
936(17) 0.00366 908.3 12.4
942(16) 0.00395 907.8 12.8
957(16) 0.00376 907.3 13.2
898(16) 0.00387 906.8 13.5
896(16) 0.00384 906.3 13.7
913(16) 0.00390 905.8 13.9
964(16) 0.00385 905.3 13.9
901(16) 0.00399 904.7 13.9
926(17) 0.00367 904.2 13.7
945(16) 0.00368 903.7 13.5
931(16) 0.00386 903.2 13.3
931(16) 0.00398 902.7 12.9
979(17) 0.00354 902.2 12.5
931(16) 0.00370 901.6 12.1
923(16) 0.00371 901.1 11.7
906(16) 0.00400 900.6 11.3
903(16) 0.00413 900.1 10.8
922(17) 0.00360 899.6 10.4
926(17) 0.00364 899.1 10.0
948(17) 0.00362 898.5 9.6
917(16) 0.00399 898.0 9.3
885(15) 0.00419 897.5 8.9
909(16) 0.00385 897.0 8.6
913(17) 0.00358 896.5 8.3
876(16) 0.00397 896.0 8.1
898(16) 0.00407 895.5 7.8
897(16) 0.00411 894.9 7.6
902(16) 0.00383 894.4 7.4
909(17) 0.00358 893.9 7.2
894(16) 0.00384 893.4 7.1
888(15) 0.00418 892.9 6.9
909(16) 0.00410 892.4 6.8
948(16) 0.00369 891.8 6.7
932(17) 0.003477 891.3 6.6
888(16) 0.00391 890.8 6.5
900(16) 0.00413 890.3 6.5
939(16) 0.00393 889.8 6.4
902(16) 0.00395 889.3 6.4
903(17) 0.00359 888.7 6.3
884(16) 0.00395 888.2 6.3
881(15) 0.00424 887.7 6.3
903(16) 0.00402 887.2 6.2
896(16) 0.00380 886.7 6.2
901(16) 0.00373 886.2 6.2
944(17) 0.00366 885.7 6.3
911(16) 0.00407 885.1 6.3
899(16) 0.00402 884.6 6.3
874(16) 0.00396 884.1 6.3
899(16) 0.00375 883.6 6.4
915(16) 0.00379 883.1 6.4
912(16) 0.00406 882.6 6.5
872(16) 0.00412 882.0 6.5
864(16) 0.00408 881.5 6.6
904(17) 0.00362 881.0 6.7
872(16) 0.00401 880.5 6.7
884(15) 0.00424 880.0 6.8
919(16) 0.00382 879.5 6.9
888(16) 0.00396 878.9 7.0
921(17) 0.00365 878.4 7.1
845(15) 0.00422 877.9 7.2
885(15) 0.00422 877.4 7.3
878(16) 0.00400 876.9 7.4
901(16) 0.00375 876.4 7.6
921(16) 0.00371 875.9 7.7
882(16) 0.00412 875.3 7.8
882(15) 0.00417 874.8 8.0
858(16) 0.00404 874.3 8.2
881(16) 0.00384 873.8 8.3
928(17) 0.00367 873.3 8.5
875(16) 0.00409 872.8 8.7
863(15) 0.00433 872.2 8.9
890(16) 0.00381 871.7 9.1
899(16) 0.00372 871.2 9.3
909(16) 0.00383 870.7 9.6
889(16) 0.00413 870.2 9.8
864(15) 0.00434 869.7 10.1
852(16) 0.00408 869.1 10.4
884(16) 0.00371 868.6 10.7
914(16) 0.00380 868.1 11.0
902(16) 0.00411 867.6 11.4
897(16) 0.00413 867.1 11.7
886(16) 0.00393 866.6 12.1
846(16) 0.00384 866.1 12.5
864(16) 0.00397 865.5 12.9
843(15) 0.00441 865.0 13.4
875(15) 0.00420 864.5 13.9
883(16) 0.00394 864.0 14.4
862(16) 0.00384 863.5 15.0
881(16) 0.00394 863.0 15.6
885(15) 0.00418 862.4 16.3
856(15) 0.00433 861.9 17.0
832(15) 0.00422 861.4 17.8
876(16) 0.00377 860.9 18.6
869(16) 0.00398 860.4 19.5
872(15) 0.00424 859.9 20.5
859(15) 0.00423 859.3 21.6
911(16) 0.00369 858.8 22.8
859(16) 0.00389 858.3 24.1
865(16) 0.00397 857.8 25.5
827(15) 0.00449 857.3 27.1
843(15) 0.00433 856.8 28.8
894(16) 0.00394 856.3 30.7
880(16) 0.00387 855.7 32.9
888(16) 0.00386 855.2 35.3
910(16) 0.00409 854.7 38.0
875(16) 0.00413 854.2 41.0
850(16) 0.00399 853.7 44.5
838(16) 0.00405 853.2 48.5
886(16) 0.00400 852.6 53.2
890(15) 0.00420 852.1 58.7
898(16) 0.00392 851.6 65.3
957(17) 0.00354 851.1 73.3
931(16) 0.00375 850.6 83.2
952(16) 0.00376 850.1 95.7
975(16) 0.00376 849.5 111.5
980(17) 0.003485 849.0 131.7
967(17) 0.003506 848.5 157.3
1012(17) 0.003391 848.0 189.7
1044(17) 0.003485 847.5 229.9
1102(17) 0.003329 847.0 278.8
1173(18) 0.002936 846.5 336.5
1208(19) 0.002767 845.9 402.1
1288(19) 0.002655 845.4 472.5
1341(19) 0.002669 844.9 541.2
1400(19) 0.002646 844.4 598.0
1512(21) 0.002277 843.9 630.7
1485(21) 0.002186 843.4 630.7
1398(20) 0.002474 842.8 598.6
1333(19) 0.002749 842.3 543.7
1297(19) 0.002846 841.8 478.2
1204(19) 0.002881 841.3 412.2
1144(19) 0.002867 840.8 351.9
1101(18) 0.003155 840.3 300.3
1092(17) 0.003376 839.7 258.4
1091(17) 0.003381 839.2 226.3
1032(17) 0.003335 838.7 203.4
1059(18) 0.003014 838.2 189.0
1029(17) 0.003421 837.7 182.4
983(16) 0.00377 837.2 182.8
1044(17) 0.00353 836.7 189.8
1040(17) 0.003351 836.1 202.9
1015(18) 0.003242 835.6 221.6
1043(17) 0.003304 835.1 245.3
1044(17) 0.00355 834.6 272.9
1106(17) 0.003276 834.1 301.9
1112(18) 0.003187 833.6 329.0
1141(19) 0.002888 833.0 349.0
1129(18) 0.003010 832.5 357.3
1125(17) 0.003299 832.0 350.9
1158(18) 0.003118 831.5 330.9
1139(18) 0.002999 831.0 301.3
1100(18) 0.003026 830.5 267.1
1040(17) 0.003364 829.9 232.4
988(16) 0.00377 829.4 199.8
979(17) 0.00366 828.9 170.6
939(16) 0.00371 828.4 145.4
969(17) 0.003497 827.9 124.1
892(16) 0.00400 827.4 106.3
932(16) 0.00402 826.9 91.8
848(16) 0.00410 826.3 79.9
875(16) 0.00378 825.8 70.2
863(16) 0.00390 825.3 62.4
878(16) 0.00411 824.8 56.0
885(15) 0.00420 824.3 50.7
880(16) 0.00400 823.8 46.3
860(16) 0.00393 823.2 42.6
842(16) 0.00413 822.7 39.5
862(15) 0.00420 822.2 36.7
834(15) 0.00447 821.7 34.4
824(16) 0.00414 821.2 32.3
821(16) 0.00402 820.7 30.4
796(15) 0.00437 820.1 28.8
843(15) 0.00434 819.6 27.3
844(15) 0.00441 819.1 26.0
848(16) 0.00408 818.6 24.8
814(16) 0.00408 818.1 23.7
828(15) 0.00420 817.6 22.8
804(15) 0.00459 817.1 21.9
804(15) 0.00462 816.5 21.1
867(16) 0.00404 816.0 20.4
814(16) 0.00410 815.5 19.7
838(16) 0.00410 815.0 19.1
804(15) 0.00458 814.5 18.6
799(15) 0.00467 814.0 18.1
807(15) 0.00438 813.4 17.7
844(16) 0.00386 812.9 17.3
843(15) 0.00418 812.4 16.9
805(15) 0.00462 811.9 16.5
823(15) 0.00443 811.4 16.2
820(15) 0.00427 810.9 16.0
788(15) 0.00419 810.3 15.7
807(15) 0.00420 809.8 15.5
830(15) 0.00447 809.3 15.3
830(15) 0.00439 808.8 15.1
825(15) 0.00428 808.3 15.0
816(16) 0.00413 807.8 14.9
815(15) 0.00426 807.3 14.8
836(15) 0.00447 806.7 14.7
808(15) 0.00446 806.2 14.6
816(15) 0.00423 805.7 14.6
823(16) 0.00407 805.2 14.6
816(15) 0.00428 804.7 14.6
812(15) 0.00458 804.2 14.7
808(15) 0.00440 803.6 14.8
854(16) 0.00404 803.1 14.9
816(15) 0.00423 802.6 15.1
801(15) 0.00444 802.1 15.3
782(15) 0.00475 801.6 15.5
770(15) 0.00450 801.1 15.8
789(15) 0.00431 800.5 16.2
825(16) 0.00406 800.0 16.5
774(15) 0.00463 799.5 16.8
756(14) 0.00492 799.0 17.1
829(16) 0.00413 798.6 17.3
822(16) 0.00403 798.1 17.4
829(16) 0.00415 797.6 17.4
828(15) 0.00437 797.2 17.3
841(15) 0.00443 796.7 17.2
792(15) 0.00433 796.2 17.1
754(15) 0.00452 795.8 17.1
792(15) 0.00448 795.3 17.1
819(15) 0.00439 794.8 17.2
780(14) 0.00477 794.4 17.3
793(15) 0.00435 793.9 17.4
754(15) 0.00454 793.4 17.6
790(15) 0.00437 793.0 17.8
815(15) 0.00452 792.5 18.1
832(15) 0.00445 792.0 18.4
777(15) 0.00459 791.6 18.7
786(15) 0.00417 791.1 19.1
760(15) 0.00472 790.7 19.5
791(15) 0.00467 790.2 19.9
781(14) 0.00478 789.7 20.3
792(15) 0.00435 789.3 20.8
800(16) 0.00400 788.8 21.3
779(15) 0.00445 788.3 21.9
749(14) 0.00494 787.9 22.4
791(15) 0.00463 787.4 23.1
804(15) 0.00436 786.9 23.7
834(16) 0.00387 786.5 24.4
828(16) 0.00405 786.0 25.2
809(15) 0.00460 785.5 25.9
800(15) 0.00457 785.1 26.8
826(15) 0.00417 784.6 27.7
779(15) 0.00430 784.1 28.6
804(15) 0.00434 783.7 29.7
792(15) 0.00471 783.2 30.8
799(15) 0.00454 782.7 31.9
794(15) 0.00440 782.3 33.2
817(16) 0.00408 781.8 34.5
832(15) 0.00422 781.3 35.9
830(15) 0.00449 780.9 37.5
811(15) 0.00442 780.4 39.1
840(16) 0.00411 779.9 40.9
859(16) 0.00396 779.5 42.8
822(15) 0.00424 779.0 44.9
812(15) 0.00459 778.5 47.1
793(15) 0.00453 778.1 49.5
802(16) 0.00415 777.6 52.2
797(15) 0.00427 777.2 55.0
826(15) 0.00424 776.7 58.1
804(15) 0.00465 776.2 61.5
809(15) 0.00443 775.8 65.3
866(16) 0.00398 775.3 69.3
874(16) 0.00398 774.8 73.9
833(15) 0.00434 774.4 78.9
858(15) 0.00431 773.9 84.4
879(16) 0.00405 773.4 90.6
882(16) 0.00377 773.0 97.5
885(16) 0.00389 772.5 105.3
884(16) 0.00409 772.0 114.2
913(16) 0.00406 771.6 124.2
886(16) 0.00393 771.1 135.7
899(17) 0.00363 770.6 148.8
961(17) 0.00355 770.2 163.9
910(16) 0.00400 769.7 181.3
951(16) 0.00390 769.2 201.3
981(17) 0.00357 768.8 224.3
1021(18) 0.003249 768.3 250.9
1065(17) 0.003329 767.8 281.3
1045(17) 0.00353 767.4 316.2
1112(17) 0.003349 766.9 355.7
1186(18) 0.002960 766.4 400.3
1240(20) 0.002549 766.0 450.0
1288(19) 0.002676 765.5 504.4
1385(19) 0.002690 765.1 562.8
1448(20) 0.002537 764.6 623.4
1535(21) 0.002266 764.1 683.4
1603(22) 0.002020 763.7 738.9
1683(22) 0.002044 763.2 784.9
1620(21) 0.002311 762.7 816.4
1680(21) 0.002170 762.3 829.4
1586(21) 0.002183 761.8 822.0
1608(22) 0.002005 761.3 795.2
1527(21) 0.002311 760.9 752.7
1484(20) 0.002516 760.4 699.4
1350(19) 0.002713 759.9 640.3
1311(19) 0.002665 759.5 579.6
1280(20) 0.002600 759.0 520.5
1169(18) 0.002973 758.5 464.9
1151(18) 0.003231 758.1 414.0
1106(18) 0.003232 757.6 368.1
1110(18) 0.003039 757.1 327.3
1120(18) 0.002974 756.7 291.4
1046(17) 0.003365 756.2 259.8
1039(17) 0.00359 755.7 232.4
1031(17) 0.003470 755.3 208.5
1009(17) 0.003414 754.8 187.8
979(17) 0.003507 754.3 169.9
946(16) 0.00375 753.9 154.3
972(16) 0.00381 753.4 140.8
959(17) 0.00366 753.0 129.0
945(17) 0.00358 752.5 118.8
899(16) 0.00385 752.0 109.8
916(16) 0.00390 751.6 101.8
891(15) 0.00418 751.1 94.8
891(16) 0.00383 750.6 88.6
876(16) 0.00381 750.2 83.0
853(16) 0.00403 749.7 78.0
822(15) 0.00434 749.2 73.6
836(15) 0.00445 748.8 69.6
824(15) 0.00418 748.3 65.9
813(16) 0.00415 747.8 62.7
836(15) 0.00420 747.4 59.7
841(15) 0.00438 746.9 57.0
814(15) 0.00456 746.4 54.5
819(15) 0.00420 746.0 52.3
822(16) 0.00395 745.5 50.3
840(16) 0.00415 745.0 48.5
852(15) 0.00434 744.6 46.9
781(14) 0.00480 744.1 45.4
804(15) 0.00438 743.6 44.1
799(16) 0.00408 743.2 43.0
815(15) 0.00426 742.7 41.9
791(15) 0.00470 742.2 41.1
797(15) 0.00463 741.8 40.3
784(15) 0.00448 741.3 39.7
800(16) 0.00396 740.9 39.2
786(15) 0.00439 740.4 38.9
810(15) 0.00463 739.9 38.7
756(14) 0.00486 739.5 38.6
738(15) 0.00464 739.0 38.7
771(15) 0.00419 738.5 38.9
759(15) 0.00468 738.1 39.3
770(14) 0.00483 737.6 39.8
755(14) 0.00481 737.1 40.6
763(15) 0.00455 736.7 41.5
762(15) 0.00441 736.2 42.6
765(15) 0.00461 735.7 43.9
762(14) 0.00490 735.3 45.5
750(14) 0.00489 734.8 47.2
811(15) 0.00426 734.3 49.2
772(15) 0.00440 733.9 51.3
758(15) 0.00458 733.4 53.6
793(15) 0.00470 732.9 56.0
783(15) 0.00459 732.5 58.5
769(15) 0.00440 732.0 60.9
750(15) 0.00456 731.5 63.1
790(15) 0.00447 731.1 65.0
744(14) 0.00498 730.6 66.5
764(15) 0.00456 730.1 67.4
789(15) 0.00433 729.7 67.7
781(15) 0.00438 729.2 67.4
799(15) 0.00445 728.8 66.6
772(14) 0.00478 728.3 65.3
734(14) 0.00477 727.8 63.8
786(15) 0.00421 727.4 62.1
774(15) 0.00453 726.9 60.3
780(15) 0.00461 726.4 58.8
768(14) 0.00485 726.0 57.4
780(15) 0.00434 725.5 56.2
754(15) 0.00432 725.0 55.5
766(15) 0.00451 724.6 55.1
760(14) 0.00482 724.1 55.1
776(14) 0.00481 723.6 55.6
744(15) 0.00467 723.2 56.5
745(15) 0.00443 722.7 57.9
779(15) 0.00444 722.2 59.8
735(14) 0.00503 721.8 62.2
785(15) 0.00470 721.3 65.1
771(15) 0.00463 720.8 68.5
832(16) 0.00393 720.4 72.3
801(15) 0.00444 719.9 76.5
787(15) 0.00469 719.4 80.9
823(15) 0.00446 719.0 85.3
779(15) 0.00442 718.5 89.4
794(16) 0.00401 718.0 93.0
791(15) 0.00436 717.6 95.6
794(15) 0.00464 717.1 97.2
770(14) 0.00486 716.7 97.6
820(15) 0.00426 716.2 96.8
817(16) 0.00406 715.7 95.1
790(15) 0.00449 715.3 92.8
770(14) 0.00488 714.8 90.2
821(15) 0.00445 714.3 87.5
759(15) 0.00461 713.9 85.2
796(16) 0.00413 713.4 83.2
782(15) 0.00452 712.9 81.9
784(14) 0.00481 712.5 81.1
811(15) 0.00443 712.0 81.0
762(15) 0.00462 711.5 81.5
802(15) 0.00421 711.1 82.5
803(15) 0.00427 710.6 84.2
799(15) 0.00464 710.1 86.2
781(15) 0.00452 709.7 88.5
789(15) 0.00449 709.2 90.8
828(15) 0.00424 708.7 93.1
830(15) 0.00431 708.3 95.0
805(15) 0.00463 707.8 96.3
813(15) 0.00438 707.3 96.8
772(15) 0.00440 706.9 96.5
814(16) 0.00411 706.4 95.1
807(15) 0.00439 705.9 92.9
793(15) 0.00471 705.5 89.9
770(15) 0.00459 705.0 86.4
798(15) 0.00424 704.6 82.5
801(15) 0.00427 704.1 78.3
774(15) 0.00463 703.6 74.2
789(15) 0.00472 703.2 70.1
761(15) 0.00459 702.7 66.2
747(15) 0.00441 702.2 62.4
735(15) 0.00462 701.8 58.9
759(15) 0.00465 701.3 55.6
724(14) 0.00518 700.8 52.4
745(15) 0.00461 700.4 49.4
710(15) 0.00464 699.9 46.5
753(15) 0.00438 699.4 43.8
712(14) 0.00517 699.0 41.2
740(14) 0.00502 698.5 38.7
746(15) 0.00463 698.0 36.4
729(15) 0.00444 697.6 34.2
727(14) 0.00479 697.1 32.2
725(14) 0.00511 696.6 30.3
736(14) 0.00503 696.2 28.5
708(14) 0.00502 695.7 26.9
702(15) 0.00460 695.2 25.4
698(14) 0.00489 694.8 24.1
714(14) 0.00521 694.3 22.8
697(14) 0.00531 693.8 21.7
720(14) 0.00487 693.4 20.6
686(14) 0.00486 692.9 19.7
688(14) 0.00516 692.5 18.8
682(14) 0.00547 692.0 18.0
693(14) 0.00522 691.5 17.2
668(14) 0.00535 691.1 16.6
712(15) 0.00473 690.6 15.9
705(14) 0.00497 690.1 15.4
677(13) 0.00553 689.7 14.8
705(14) 0.00519 689.2 14.3
696(14) 0.00506 688.7 13.9
710(14) 0.00485 688.3 13.5
724(14) 0.00478 687.8 13.1
642(13) 0.00577 687.3 12.8
673(14) 0.00530 686.9 12.4
686(14) 0.00504 686.4 12.1
708(14) 0.00477 685.9 11.9
720(15) 0.00472 685.5 11.6
686(14) 0.00542 685.0 11.4
665(14) 0.00528 684.5 11.2
679(14) 0.00491 684.1 11.1
674(14) 0.00500 683.6 10.9
674(14) 0.00530 683.1 10.8
680(13) 0.00553 682.7 10.7
713(14) 0.00493 682.2 10.6
640(14) 0.00540 681.7 10.5
681(14) 0.00489 681.3 10.4
684(14) 0.00525 680.8 10.4
682(14) 0.00542 680.4 10.4
642(14) 0.00535 679.9 10.4
661(14) 0.00514 679.4 10.4
702(14) 0.00499 679.0 10.5
716(14) 0.00510 678.5 10.5
664(13) 0.00562 678.0 10.7
669(14) 0.00509 677.6 10.8
691(14) 0.00479 677.1 11.0
695(14) 0.00496 676.6 11.2
681(14) 0.00534 676.2 11.5
671(13) 0.00558 675.7 11.9
655(14) 0.00532 675.2 12.3
698(15) 0.00453 674.8 12.8
642(14) 0.00549 674.3 13.5
697(14) 0.00526 673.8 14.4
691(14) 0.00538 673.4 15.5
711(14) 0.00488 672.9 17.0
724(15) 0.00443 672.4 19.2
727(14) 0.00479 672.0 22.4
695(14) 0.00527 671.5 27.2
719(14) 0.00506 671.0 34.4
720(14) 0.00489 670.6 44.8
737(15) 0.00450 670.1 59.1
770(15) 0.00447 669.6 77.7
782(15) 0.00475 669.2 100.0
807(15) 0.00450 668.7 123.9
777(15) 0.00449 668.3 145.1
850(16) 0.00377 667.8 157.1
842(16) 0.00408 667.3 155.0
846(15) 0.00441 666.9 139.6
782(15) 0.00463 666.4 116.9
756(15) 0.00462 665.9 92.9
742(15) 0.00445 665.5 71.3
739(15) 0.00459 665.0 53.7
678(13) 0.00550 664.5 40.3
677(14) 0.00529 664.1 30.7
684(14) 0.00510 663.6 24.0
653(14) 0.00532 663.1 19.5
702(14) 0.00491 662.7 16.5
662(13) 0.00563 662.2 14.3
646(14) 0.00545 661.7 12.7
680(14) 0.00497 661.3 11.5
687(14) 0.00494 660.8 10.5
668(14) 0.00536 660.3 9.7
690(14) 0.00536 659.9 9.0
664(14) 0.00526 659.4 8.4
698(15) 0.00467 658.9 7.9
686(14) 0.00502 658.5 7.5
673(14) 0.00536 658.0 7.1
638(13) 0.00586 657.5 6.8
659(14) 0.00538 657.1 6.5
676(14) 0.00500 656.6 6.2
649(14) 0.00533 656.2 6.0
694(14) 0.00514 655.7 5.7
668(13) 0.00556 655.2 5.5
690(14) 0.00498 654.8 5.4
641(14) 0.00523 654.3 5.2
641(14) 0.00539 653.8 5.0
635(13) 0.00569 653.4 4.9
659(13) 0.00568 652.9 4.8
676(14) 0.00514 652.4 4.6
679(14) 0.00484 652.0 4.5
651(13) 0.00550 651.5 4.4
667(13) 0.00553 651.0 4.3
634(13) 0.00580 650.6 4.2
647(14) 0.00532 650.1 4.1
651(14) 0.00496 649.6 4.1
660(14) 0.00535 649.2 4.0
627(13) 0.00592 648.7 3.9
658(13) 0.00566 648.2 3.8
608(13) 0.00587 647.8 3.8
646(14) 0.00492 647.3 3.7
623(13) 0.00570 646.8 3.6
658(13) 0.00565 646.4 3.6
647(13) 0.00575 645.9 3.5
640(14) 0.00539 645.4 3.5
651(14) 0.00497 645.0 3.4
632(13) 0.00553 644.5 3.4
631(13) 0.00590 644.1 3.3
641(13) 0.00567 643.6 3.3
677(14) 0.00505 643.1 3.2
667(14) 0.00506 642.7 3.2
644(13) 0.00550 642.2 3.2
623(13) 0.00598 641.7 3.1
597(13) 0.00616 641.3 3.1
640(14) 0.00541 640.8 3.1
647(14) 0.00515 640.3 3.0
624(13) 0.00570 639.9 3.0
625(13) 0.00592 639.4 3.0
621(13) 0.00575 638.9 2.9
626(14) 0.00547 638.5 2.9
616(13) 0.00554 638.0 2.9
612(13) 0.00580 637.5 2.8
650(13) 0.00570 637.1 2.8
637(13) 0.00552 636.6 2.8
643(14) 0.00528 636.1 2.8
647(14) 0.00530 635.7 2.7
637(13) 0.00552 635.2 2.7
639(13) 0.00581 634.7 2.7
634(13) 0.00549 634.3 2.7
632(14) 0.00522 633.8 2.7
614(13) 0.00567 633.3 2.6
630(13) 0.00586 632.9 2.6
646(13) 0.00571 632.4 2.6
651(14) 0.00528 632.0 2.6
630(14) 0.00532 631.5 2.6
619(13) 0.00571 631.0 2.5
607(13) 0.00596 630.6 2.5
617(13) 0.00604 630.1 2.5
612(13) 0.00562 629.6 2.5
621(14) 0.00536 629.2 2.5
635(14) 0.00539 628.7 2.5
622(13) 0.00589 628.2 2.4
633(13) 0.00587 627.8 2.4
643(14) 0.00540 627.3 2.4
669(14) 0.00487 626.8 2.4
655(14) 0.00541 626.4 2.4
605(13) 0.00612 625.9 2.4
639(13) 0.00580 625.4 2.4
680(14) 0.00502 625.0 2.4
657(14) 0.00486 624.5 2.3
643(14) 0.00547 624.0 2.3
620(13) 0.00598 623.6 2.3
600(13) 0.00614 623.1 2.3
622(13) 0.00567 622.6 2.3
623(14) 0.00535 622.2 2.3
639(14) 0.00535 621.7 2.3
616(13) 0.00604 621.2 2.3
607(13) 0.00606 620.8 2.3
605(13) 0.00578 620.3 2.3
589(13) 0.00570 619.8 2.3
624(13) 0.00574 619.4 2.3
625(13) 0.00595 618.9 2.3
633(13) 0.00572 618.5 2.3
641(14) 0.00534 618.0 2.3
600(13) 0.00574 617.5 2.3
613(13) 0.00581 617.1 2.3
624(13) 0.00599 616.6 2.3
640(13) 0.00562 616.1 2.3
585(13) 0.00595 615.7 2.3
631(14) 0.00535 615.2 2.3
631(14) 0.00548 614.7 2.3
623(13) 0.00600 614.3 2.3
632(13) 0.00553 613.8 2.3
637(14) 0.00527 613.3 2.3
595(13) 0.00586 612.9 2.3
587(13) 0.00613 612.4 2.3
583(13) 0.00637 611.9 2.3
589(13) 0.00601 611.5 2.3
622(14) 0.00548 611.0 2.3
596(13) 0.00579 610.5 2.3
608(13) 0.00597 610.1 2.4
621(13) 0.00597 609.6 2.4
621(14) 0.00533 609.1 2.4
606(14) 0.00541 608.7 2.4
570(13) 0.00608 608.2 2.5
601(13) 0.00600 607.7 2.5
609(13) 0.00612 607.3 2.5
603(13) 0.00572 606.8 2.6
572(13) 0.00584 606.4 2.6
614(13) 0.00558 605.9 2.7
582(13) 0.00627 605.4 2.7
595(13) 0.00627 605.0 2.7
582(13) 0.00607 604.5 2.8
591(13) 0.00557 604.0 2.8
622(14) 0.00546 603.6 2.9
632(13) 0.00589 603.1 3.0
580(12) 0.00643 602.6 3.0
609(13) 0.00563 602.2 3.0
606(14) 0.00534 601.7 3.1
584(13) 0.00598 601.2 3.1
581(13) 0.00639 600.8 3.1
592(13) 0.00620 600.3 3.1
624(13) 0.00557 599.8 3.1
636(14) 0.00501 599.4 3.1
613(13) 0.00580 598.9 3.1
625(13) 0.00592 598.4 3.1
612(13) 0.00600 598.0 3.0
640(14) 0.00532 597.5 3.0
608(14) 0.00538 597.0 2.9
601(13) 0.00562 596.6 2.9
600(13) 0.00613 596.1 2.8
584(13) 0.00630 595.6 2.8
594(13) 0.00582 595.2 2.7
576(13) 0.00575 594.7 2.7
620(13) 0.00560 594.3 2.6
637(13) 0.00583 593.8 2.6
597(13) 0.00611 593.4 2.6
623(14) 0.00540 593.1 2.5
609(13) 0.00559 592.8 2.5
615(13) 0.00577 592.5 2.5
603(13) 0.00616 592.3 2.5
590(13) 0.00596 592.0 2.5
577(13) 0.00589 591.7 2.4
616(13) 0.00558 591.4 2.4
592(13) 0.00605 591.2 2.4
595(13) 0.00627 590.9 2.4
619(13) 0.00565 590.6 2.4
599(13) 0.00571 590.3 2.4
589(13) 0.00588 590.1 2.4
558(12) 0.00651 589.8 2.4
598(13) 0.00622 589.5 2.4
588(13) 0.00574 589.2 2.4
576(13) 0.00582 589.0 2.4
592(13) 0.00588 588.7 2.4
617(13) 0.00583 588.4 2.4
592(13) 0.00633 588.1 2.5
621(13) 0.00576 587.9 2.5
642(14) 0.00519 587.6 2.5
604(13) 0.00586 587.3 2.5
589(13) 0.00639 587.0 2.5
585(13) 0.00632 586.8 2.6
568(13) 0.00617 586.5 2.6
595(14) 0.00544 586.2 2.6
571(13) 0.00612 585.9 2.6
568(12) 0.00641 585.7 2.7
611(13) 0.00608 585.4 2.7
620(13) 0.00555 585.1 2.7
590(14) 0.00528 584.8 2.8
556(13) 0.00623 584.6 2.8
562(12) 0.00666 584.3 2.9
582(12) 0.00640 584.0 2.9
576(13) 0.00608 583.7 3.0
588(13) 0.00550 583.5 3.0
587(13) 0.00603 583.2 3.1
606(13) 0.00609 582.9 3.1
588(13) 0.00617 582.6 3.2
559(13) 0.00617 582.4 3.3
598(14) 0.00528 582.1 3.4
581(13) 0.00590 581.8 3.5
575(12) 0.00649 581.5 3.6
556(12) 0.00657 581.3 3.7
582(13) 0.00582 581.0 3.8
628(14) 0.00519 580.7 3.9
574(13) 0.00606 580.4 4.0
612(13) 0.00608 580.2 4.2
590(13) 0.00620 579.9 4.3
609(13) 0.00566 579.6 4.5
592(13) 0.00558 579.3 4.7
587(13) 0.00595 579.1 4.9
592(13) 0.00626 578.8 5.1
604(13) 0.00588 578.5 5.4
594(13) 0.00572 578.2 5.7
601(13) 0.00574 578.0 6.0
564(13) 0.00629 577.7 6.3
567(12) 0.00661 577.4 6.8
616(13) 0.00571 577.1 7.2
624(14) 0.00537 576.9 7.8
575(13) 0.00595 576.6 8.4
582(13) 0.00623 576.3 9.2
585(13) 0.00636 576.0 10.1
621(14) 0.00544 575.8 11.3
580(13) 0.00595 575.5 12.9
607(13) 0.00566 575.2 15.0
568(13) 0.00633 574.9 17.9
595(13) 0.00626 574.7 21.8
589(13) 0.00585 574.4 27.1
623(14) 0.00523 574.1 33.9
621(13) 0.00553 573.8 42.2
603(13) 0.00603 573.6 51.8
623(13) 0.00602 573.3 61.9
658(14) 0.00525 573.0 70.7
660(14) 0.00505 572.7 76.1
657(14) 0.00524 572.5 76.7
637(13) 0.00578 572.2 73.3
662(13) 0.00564 571.9 68.3
663(14) 0.00520 571.6 63.7
639(14) 0.00518 571.4 61.0
649(13) 0.00554 571.1 60.7
691(14) 0.00538 570.8 62.9
678(13) 0.00551 570.5 67.6
680(14) 0.00505 570.3 74.0
663(14) 0.00491 570.0 81.5
667(14) 0.00515 569.7 88.5
659(13) 0.00568 569.5 93.6
672(14) 0.00546 569.2 95.2
648(14) 0.00544 568.9 92.6
666(14) 0.00489 568.6 86.3
662(14) 0.00531 568.4 77.6
700(14) 0.00530 568.1 68.0
676(14) 0.00534 567.8 58.5
608(13) 0.00578 567.5 49.8
606(13) 0.00559 567.3 42.1
606(13) 0.00581 567.0 35.6
605(13) 0.00609 566.7 30.1
586(13) 0.00623 566.4 25.7
559(13) 0.00638 566.2 22.1
607(14) 0.00546 565.9 19.1
594(13) 0.00587 565.6 16.8
607(13) 0.00612 565.3 14.9
579(13) 0.00631 565.1 13.4
613(13) 0.00565 564.8 12.1
576(13) 0.00600 564.5 11.1
553(12) 0.00641 564.2 10.2
544(12) 0.00684 564.0 9.4
561(13) 0.00632 563.7 8.8
607(13) 0.00551 563.4 8.2
587(13) 0.00582 563.1 7.8
581(13) 0.00593 562.9 7.3
592(13) 0.00625 562.6 7.0
554(13) 0.00632 562.3 6.6
543(13) 0.00601 562.0 6.3
528(12) 0.00660 561.8 6.1
587(13) 0.00619 561.5 5.9
592(13) 0.00629 561.2 5.6
573(13) 0.00602 560.9 5.5
561(13) 0.00608 560.7 5.3
572(13) 0.00618 560.4 5.1
547(12) 0.00658 560.1 5.0
553(12) 0.00673 559.8 4.9
527(12) 0.00675 559.6 4.8
552(13) 0.00597 559.3 4.7
578(13) 0.00595 559.0 4.6
579(13) 0.00630 558.7 4.5
581(13) 0.00639 558.5 4.5
521(12) 0.00672 558.2 4.4
519(12) 0.00646 557.9 4.4
547(12) 0.00642 557.6 4.3
552(12) 0.00667 557.4 4.3
568(12) 0.00648 557.1 4.3
561(13) 0.00614 556.8 4.3
582(14) 0.00540 556.5 4.3
568(13) 0.00607 556.3 4.3
554(12) 0.00672 556.0 4.3
562(12) 0.00644 555.7 4.3
564(13) 0.00632 555.4 4.3
567(13) 0.00582 555.2 4.3
587(13) 0.00575 554.9 4.3
533(12) 0.00696 554.6 4.4
569(13) 0.00639 554.3 4.4
595(13) 0.00574 554.1 4.4
552(13) 0.00583 553.8 4.5
529(12) 0.00661 553.5 4.5
591(13) 0.00625 553.2 4.6
603(13) 0.00598 553.0 4.7
571(13) 0.00604 552.7 4.7
571(13) 0.00582 552.4 4.8
583(13) 0.00603 552.1 4.9
539(12) 0.00679 551.9 5.0
571(13) 0.00635 551.6 5.1
544(13) 0.00629 551.3 5.2
558(13) 0.00592 551.0 5.3
541(12) 0.00644 550.8 5.4
563(12) 0.00663 550.5 5.6
570(13) 0.00627 550.2 5.7
566(13) 0.00591 549.9 5.9
574(13) 0.00589 549.7 6.0
551(12) 0.00647 549.4 6.2
582(13) 0.00636 549.1 6.4
546(13) 0.00637 548.8 6.6
584(13) 0.00571 548.6 6.8
565(13) 0.00622 548.3 7.1
563(12) 0.00652 548.0 7.3
530(12) 0.00704 547.7 7.6
548(13) 0.00610 547.5 7.9
581(13) 0.00566 547.2 8.2
613(13) 0.00564 546.9 8.5
577(13) 0.00617 546.6 8.9
544(12) 0.00688 546.4 9.3
554(13) 0.00608 546.1 9.7
578(13) 0.00566 545.8 10.1
571(13) 0.00604 545.5 10.6
558(12) 0.00650 545.3 11.1
517(12) 0.00723 545.0 11.6
548(13) 0.00635 544.7 12.2
546(13) 0.00603 544.4 12.7
601(13) 0.00563 544.2 13.4
549(12) 0.00671 543.9 14.0
591(13) 0.00635 543.6 14.7
552(13) 0.00627 543.3 15.4
536(13) 0.00589 543.1 16.1
577(13) 0.00595 542.8 16.9
569(12) 0.00656 542.5 17.7
538(12) 0.00682 542.3 18.5
572(13) 0.00598 542.0 19.2
580(13) 0.00574 541.7 20.0
598(13) 0.00588 541.4 20.8
586(13) 0.00636 541.2 21.5
570(12) 0.00643 540.9 22.2
555(13) 0.00624 540.6 22.8
567(13) 0.00578 540.3 23.4
604(13) 0.00581 540.1 23.9
582(13) 0.00638 539.8 24.3
585(13) 0.00638 539.5 24.6
611(13) 0.00551 539.2 24.7
568(13) 0.00595 539.0 24.8
603(13) 0.00559 538.7 24.7
589(13) 0.00630 538.4 24.5
589(13) 0.00614 538.1 24.1
577(13) 0.00601 537.9 23.5
556(13) 0.00615 537.6 22.8
550(13) 0.00639 537.3 22.1
566(12) 0.00660 537.0 21.2
536(12) 0.00662 536.8 20.4
586(13) 0.00561 536.5 19.5
545(13) 0.00639 536.2 18.7
579(13) 0.00617 535.9 17.8
536(12) 0.00694 535.7 17.0
580(13) 0.00606 535.4 16.2
580(13) 0.00572 535.1 15.4
553(13) 0.00616 534.8 14.7
552(12) 0.00658 534.6 14.0
562(12) 0.00661 534.3 13.4
581(13) 0.00589 534.0 12.8
524(12) 0.00645 533.7 12.3
568(13) 0.00604 533.5 11.7
562(12) 0.00662 533.2 11.3
550(12) 0.00678 532.9 10.8
551(13) 0.00637 532.6 10.4
537(13) 0.00621 532.4 10.1
558(13) 0.00621 532.1 9.7
569(12) 0.00643 531.8 9.4
573(12) 0.00651 531.5 9.1
552(12) 0.00640 531.3 8.7
552(13) 0.00592 531.0 8.4
535(12) 0.00652 530.7 8.0
558(12) 0.00654 530.4 7.7
562(12) 0.00660 530.2 7.3
542(12) 0.00646 529.9 7.0
591(14) 0.00545 529.6 6.7
563(13) 0.00622 529.3 6.4
556(12) 0.00662 529.1 6.1
528(12) 0.00699 528.8 5.8
558(13) 0.00610 528.5 5.6
552(13) 0.00597 528.2 5.4
567(13) 0.00612 528.0 5.2
540(12) 0.00682 527.7 5.0
544(12) 0.00681 527.4 4.8
523(12) 0.00672 527.1 4.7
523(13) 0.00631 526.9 4.5
491(12) 0.00708 526.6 4.4
521(12) 0.00711 526.3 4.2
536(12) 0.00677 526.0 4.1
530(12) 0.00667 525.8 4.0
570(13) 0.00578 525.5 3.9
539(12) 0.00649 525.2 3.8
557(12) 0.00670 524.9 3.7
523(12) 0.00709 524.7 3.6
514(12) 0.00690 524.4 3.5
532(13) 0.00627 524.1 3.4
534(12) 0.00670 523.8 3.3
514(12) 0.00730 523.6 3.3
553(13) 0.00632 523.3 3.2
531(12) 0.00650 523.0 3.1
548(13) 0.00616 522.7 3.1
500(12) 0.00711 522.5 3.0
524(12) 0.00712 522.2 2.9
520(12) 0.00693 521.9 2.9
508(12) 0.00660 521.6 2.8
512(12) 0.00658 521.4 2.8
536(12) 0.00656 521.1 2.7
508(12) 0.00729 520.8 2.7
509(12) 0.00698 520.5 2.6
520(12) 0.00653 520.3 2.6
548(13) 0.00626 520.0 2.5
530(12) 0.00686 519.7 2.5
528(12) 0.00702 519.4 2.5
546(13) 0.00626 519.2 2.4
541(13) 0.00626 518.9 2.4
503(12) 0.00712 518.6 2.4
512(12) 0.00716 518.3 2.3
530(12) 0.00698 518.1 2.3
554(13) 0.00617 517.8 2.3
507(12) 0.00641 517.5 2.2
523(12) 0.00647 517.2 2.2
514(12) 0.00717 517.0 2.2
550(12) 0.00666 516.7 2.1
525(12) 0.00675 516.4 2.1
516(13) 0.00626 516.1 2.1
544(13) 0.00629 515.9 2.1
524(12) 0.00692 515.6 2.0
515(12) 0.00723 515.3 2.0
543(13) 0.00635 515.1 2.0
508(13) 0.00625 514.8 2.0
499(12) 0.00676 514.5 2.0
503(12) 0.00746 514.2 1.9
541(12) 0.00675 514.0 1.9
525(12) 0.00656 513.7 1.9
498(12) 0.00656 513.4 1.9
504(12) 0.00679 513.1 1.9
486(11) 0.00772 512.9 1.9
514(12) 0.00707 512.6 1.8
503(12) 0.00701 512.3 1.8
519(13) 0.00614 512.0 1.8
493(12) 0.00704 511.8 1.8
532(12) 0.00699 511.5 1.8
552(12) 0.00645 511.2 1.8
515(12) 0.00669 510.9 1.8
526(12) 0.00642 510.7 1.7
500(12) 0.00700 510.4 1.7
536(12) 0.00699 510.1 1.7
538(12) 0.00646 509.8 1.7
508(12) 0.00683 509.6 1.7
522(12) 0.00656 509.3 1.7
509(12) 0.00702 509.0 1.7
508(12) 0.00733 508.8 1.7
499(12) 0.00713 508.6 1.7
516(12) 0.00668 508.3 1.6
515(12) 0.00687 508.1 1.6
539(12) 0.00662 507.9 1.6
535(12) 0.00696 507.7 1.6
486(12) 0.00735 507.5 1.6
530(13) 0.00638 507.2 1.6
503(12) 0.00701 507.0 1.6
525(12) 0.00681 506.8 1.6
534(12) 0.00693 506.6 1.6
517(12) 0.00667 506.4 1.6
496(12) 0.00678 506.2 1.6
508(12) 0.00670 505.9 1.6
513(12) 0.00713 505.7 1.6
492(11) 0.00757 505.5 1.6
525(12) 0.00654 505.3 1.6
507(12) 0.00671 505.1 1.6
557(13) 0.00611 504.8 1.6
522(12) 0.00712 504.6 1.5
528(12) 0.00713 504.4 1.5
530(13) 0.00632 504.2 1.5
525(13) 0.00621 504.0 1.5
513(12) 0.00688 503.7 1.5
496(12) 0.00750 503.5 1.5
495(12) 0.00746 503.3 1.5
511(12) 0.00656 503.1 1.5
488(13) 0.00640 502.9 1.5
490(12) 0.00702 502.7 1.5
525(12) 0.00703 502.4 1.5
509(12) 0.00719 502.2 1.5
494(12) 0.00703 502.0 1.5
484(12) 0.00678 501.8 1.5
520(12) 0.00667 501.6 1.5
513(12) 0.00718 501.3 1.5
506(12) 0.00739 501.1 1.5
499(12) 0.00712 500.9 1.5
517(12) 0.00643 500.7 1.5
505(12) 0.00688 500.5 1.5
506(12) 0.00735 500.2 1.5
494(12) 0.00730 500.0 1.6
485(12) 0.00726 499.8 1.6
529(13) 0.00628 499.6 1.6
496(12) 0.00696 499.4 1.6
519(12) 0.00714 499.2 1.6
498(12) 0.00726 498.9 1.6
515(12) 0.00676 498.7 1.6
514(12) 0.00661 498.5 1.6
543(13) 0.00639 498.3 1.6
510(12) 0.00730 498.1 1.6
525(12) 0.00668 497.8 1.6
540(12) 0.00644 497.6 1.6
511(12) 0.00680 497.4 1.6
487(12) 0.00747 497.2 1.7
506(12) 0.00735 497.0 1.7
491(12) 0.00717 496.7 1.7
500(12) 0.00680 496.5 1.7
476(12) 0.00718 496.3 1.7
479(12) 0.00749 496.1 1.7
495(12) 0.00748 495.9 1.8
467(12) 0.00727 495.7 1.8
484(12) 0.00698 495.4 1.8
497(12) 0.00670 495.2 1.8
492(12) 0.00730 495.0 1.9
534(12) 0.00697 494.8 1.9
522(12) 0.00661 494.6 1.9
489(12) 0.00690 494.3 1.9
489(12) 0.00715 494.1 2.0
485(11) 0.00758 493.9 2.0
491(12) 0.00754 493.7 2.1
493(12) 0.00691 493.5 2.1
469(12) 0.00715 493.2 2.2
513(12) 0.00683 493.0 2.2
496(12) 0.00747 492.8 2.3
483(11) 0.00769 492.6 2.4
511(12) 0.00681 492.4 2.4
505(13) 0.00616 492.2 2.5
512(12) 0.00663 491.9 2.6
494(12) 0.00754 491.7 2.7
489(12) 0.00753 491.5 2.9
507(12) 0.00665 491.3 3.0
457(12) 0.00716 491.1 3.2
488(12) 0.00703 490.8 3.3
512(12) 0.00725 490.6 3.6
510(12) 0.00731 490.4 3.8
517(12) 0.00673 490.2 4.1
485(12) 0.00693 490.0 4.4
515(12) 0.00666 489.8 4.8
512(12) 0.00732 489.5 5.2
508(12) 0.00717 489.3 5.8
487(12) 0.00707 489.1 6.4
500(12) 0.00647 488.9 7.1
491(12) 0.00705 488.7 7.9
502(12) 0.00739 488.4 8.8
511(12) 0.00695 488.2 9.8
515(12) 0.00661 488.0 10.9
487(12) 0.00703 487.8 12.0
494(12) 0.00718 487.6 13.2
523(12) 0.00707 487.3 14.3
512(12) 0.00688 487.1 15.2
526(12) 0.00648 486.9 15.8
524(12) 0.00681 486.7 16.0
531(12) 0.00679 486.5 15.8
502(12) 0.00746 486.3 15.3
479(12) 0.00739 486.0 14.4
512(12) 0.00642 485.8 13.3
508(12) 0.00676 485.6 12.2
487(12) 0.00735 485.4 11.0
511(12) 0.00736 485.2 10.0
502(12) 0.00687 484.9 9.0
482(12) 0.00687 484.7 8.1
473(12) 0.00722 484.5 7.3
485(12) 0.00736 484.3 6.6
482(11) 0.00774 484.1 6.0
493(12) 0.00703 483.8 5.4
497(12) 0.00655 483.6 5.0
492(12) 0.00715 483.4 4.6
479(11) 0.00765 483.2 4.3
477(11) 0.00777 483.0 4.0
503(12) 0.00684 482.8 3.8
492(12) 0.00676 482.5 3.6
500(12) 0.00706 482.3 3.4
516(12) 0.00701 482.1 3.3
449(11) 0.00826 481.9 3.1
492(12) 0.00688 481.7 3.0
466(12) 0.00696 481.4 2.9
495(12) 0.00707 481.2 2.9
480(11) 0.00773 481.0 2.8
513(12) 0.00724 480.8 2.7
490(12) 0.00695 480.6 2.7
493(13) 0.00633 480.3 2.6
521(12) 0.00666 480.1 2.6
474(11) 0.00790 479.9 2.6
476(11) 0.00775 479.7 2.5
514(12) 0.00671 479.5 2.5
480(12) 0.00683 479.3 2.5
471(12) 0.00733 479.0 2.5
496(12) 0.00745 478.8 2.5
510(12) 0.00725 478.6 2.5
500(12) 0.00675 478.4 2.5
502(12) 0.00667 478.2 2.5
500(12) 0.00699 477.9 2.5
499(12) 0.00741 477.7 2.5
472(11) 0.00764 477.5 2.5
481(12) 0.00715 477.3 2.6
473(12) 0.00725 477.1 2.6
473(12) 0.00735 476.8 2.6
450(11) 0.00831 476.6 2.7
475(11) 0.00764 476.4 2.7
496(12) 0.00665 476.2 2.7
465(12) 0.00715 476.0 2.8
482(12) 0.00723 475.8 2.8
477(11) 0.00778 475.5 2.9
473(12) 0.00732 475.3 3.0
472(12) 0.00718 475.1 3.0
495(12) 0.00675 474.9 3.1
504(12) 0.00705 474.7 3.2
484(11) 0.00764 474.4 3.2
486(12) 0.00717 474.2 3.3
519(12) 0.00645 474.0 3.4
493(12) 0.00706 473.8 3.5
499(12) 0.00714 473.6 3.6
473(11) 0.00791 473.3 3.7
511(12) 0.00678 473.1 3.8
511(12) 0.00656 472.9 3.9
494(12) 0.00715 472.7 4.0
477(11) 0.00762 472.5 4.0
511(12) 0.00723 472.3 4.1
488(12) 0.00703 472.0 4.2
477(12) 0.00674 471.8 4.3
476(12) 0.00718 471.6 4.4
491(12) 0.00745 471.4 4.4
499(12) 0.00755 471.2 4.5
469(11) 0.00756 470.9 4.5
483(12) 0.00672 470.7 4.5
487(12) 0.00699 470.5 4.5
474(11) 0.00788 470.3 4.5
459(11) 0.00813 470.1 4.5
469(12) 0.00748 469.8 4.5
487(12) 0.00670 469.6 4.4
470(12) 0.00750 469.4 4.4
499(12) 0.00743 469.2 4.3
493(12) 0.00744 469.0 4.2
458(11) 0.00764 468.8 4.1
531(13) 0.00578 468.5 4.0
491(12) 0.00700 468.3 3.9
456(11) 0.00825 468.1 3.9
463(11) 0.00786 467.9 3.8
470(12) 0.00745 467.7 3.7
476(12) 0.00692 467.4 3.6
483(12) 0.00695 467.2 3.5
466(11) 0.00794 467.0 3.4
493(12) 0.00731 466.8 3.3
434(11) 0.00818 466.6 3.2
460(12) 0.00740 466.3 3.1
483(12) 0.00719 466.1 3.0
451(11) 0.00827 465.9 3.0
458(11) 0.00785 465.7 2.9
463(12) 0.00743 465.5 2.8
473(12) 0.00718 465.3 2.7
456(11) 0.00775 465.0 2.7
478(11) 0.00777 464.8 2.6
507(12) 0.00685 464.6 2.6
486(12) 0.00705 464.4 2.5
457(12) 0.00753 464.2 2.5
469(12) 0.00750 463.9 2.4
468(11) 0.00794 463.7 2.4
469(12) 0.00754 463.5 2.3
475(12) 0.00725 463.3 2.3
507(12) 0.00684 463.1 2.3
447(11) 0.00816 462.8 2.2
484(11) 0.00765 462.6 2.2
462(12) 0.00743 462.4 2.2
476(12) 0.00691 462.2 2.2
469(12) 0.00750 462.0 2.1
509(12) 0.00698 461.8 2.1
478(11) 0.00779 461.5 2.1
455(11) 0.00765 461.3 2.1
446(12) 0.00737 461.1 2.1
459(12) 0.00747 460.9 2.0
488(12) 0.00743 460.7 2.0
466(11) 0.00797 460.4 2.0
469(12) 0.00740 460.2 2.0
470(12) 0.00689 460.0 2.0
474(12) 0.00719 459.8 2.0
485(11) 0.00759 459.6 2.0
493(12) 0.00751 459.4 1.9
453(11) 0.00771 459.1 1.9
472(12) 0.00710 458.9 1.9
477(12) 0.00731 458.7 1.9
445(11) 0.00834 458.5 1.9
444(11) 0.00836 458.3 1.9
466(11) 0.00769 458.0 1.9
510(13) 0.00628 457.8 1.9
498(12) 0.00719 457.6 1.9
504(12) 0.00740 457.4 1.9
477(11) 0.00766 457.2 1.9
456(11) 0.00765 456.9 1.9
498(12) 0.00673 456.7 1.9
489(12) 0.00711 456.5 1.9
466(11) 0.00804 456.3 1.9
469(11) 0.00777 456.1 1.9
469(12) 0.00752 455.9 1.9
474(12) 0.00726 455.6 1.9
479(12) 0.00740 455.4 1.9
467(11) 0.00797 455.2 1.9
444(11) 0.00801 455.0 1.9
463(12) 0.00745 454.8 1.9
492(12) 0.00669 454.5 1.9
478(12) 0.00734 454.3 1.9
477(11) 0.00779 454.1 1.9
476(12) 0.00747 453.9 1.9
458(12) 0.00747 453.7 1.9
474(12) 0.00706 453.4 1.9
447(11) 0.00794 453.2 1.9
468(11) 0.00794 453.0 1.9
456(11) 0.00766 452.8 1.9
454(12) 0.00754 452.6 1.9
450(11) 0.00781 452.4 1.9
456(11) 0.00806 452.1 1.9
429(11) 0.00860 451.9 1.9
448(11) 0.00778 451.7 1.9
455(12) 0.00749 451.5 1.9
462(11) 0.00765 451.3 1.9
476(11) 0.00780 451.0 2.0
483(11) 0.00773 450.8 2.0
468(12) 0.00738 450.6 2.0
483(12) 0.00675 450.4 2.0
461(11) 0.00779 450.2 2.0
471(11) 0.00784 449.9 2.0
460(11) 0.00811 449.7 2.0
462(12) 0.00735 449.5 2.0
467(12) 0.00682 449.3 2.0
457(11) 0.00774 449.1 2.0
505(12) 0.00737 448.9 2.0
472(11) 0.00784 448.6 2.0
461(11) 0.00768 448.4 2.1
468(12) 0.00690 448.2 2.1
491(12) 0.00712 448.0 2.1
474(11) 0.00786 447.8 2.1
454(11) 0.00819 447.6 2.1
454(12) 0.00749 447.5 2.1
456(12) 0.00692 447.3 2.1
444(11) 0.00777 447.2 2.1
463(11) 0.00799 447.1 2.1
453(11) 0.00814 446.9 2.2
418(11) 0.00832 446.8 2.2
467(12) 0.00706 446.7 2.2
461(12) 0.00751 446.5 2.2
440(11) 0.00847 446.4 2.2
456(11) 0.00795 446.3 2.2
447(11) 0.00769 446.1 2.2
426(11) 0.00798 446.0 2.2
468(12) 0.00728 445.9 2.3
472(11) 0.00780 445.7 2.3
458(11) 0.00769 445.6 2.3
435(11) 0.00777 445.5 2.3
429(11) 0.00786 445.3 2.3
453(11) 0.00775 445.2 2.3
452(11) 0.00821 445.1 2.3
459(12) 0.00751 444.9 2.4
473(12) 0.00711 444.8 2.4
446(11) 0.00772 444.7 2.4
464(11) 0.00768 444.5 2.4
466(11) 0.00788 444.4 2.4
459(11) 0.00767 444.3 2.5
472(12) 0.00723 444.1 2.5
433(11) 0.00806 444.0 2.5
462(11) 0.00786 443.9 2.5
467(11) 0.00801 443.7 2.5
459(12) 0.00736 443.6 2.6
468(12) 0.00707 443.5 2.6
442(11) 0.00779 443.3 2.6
423(11) 0.00863 443.2 2.6
464(11) 0.00801 443.1 2.6
456(11) 0.00770 442.9 2.7
475(12) 0.00717 442.8 2.7
460(11) 0.00773 442.7 2.7
414(11) 0.00884 442.5 2.7
432(11) 0.00860 442.4 2.8
463(12) 0.00733 442.3 2.8
445(12) 0.00740 442.1 2.8
438(11) 0.00801 442.0 2.8
431(11) 0.00854 441.9 2.9
454(11) 0.00814 441.7 2.9
444(11) 0.00774 441.6 2.9
461(12) 0.00664 441.5 3.0
452(11) 0.00759 441.3 3.0
446(11) 0.00841 441.2 3.0
465(11) 0.00802 441.1 3.0
459(11) 0.00771 440.9 3.1
443(12) 0.00737 440.8 3.1
470(12) 0.00698 440.7 3.1
467(11) 0.00799 440.5 3.2
431(11) 0.00866 440.4 3.2
428(11) 0.00808 440.3 3.2
457(12) 0.00699 440.1 3.3
435(11) 0.00794 440.0 3.3
443(11) 0.00841 439.9 3.4
434(11) 0.00846 439.7 3.4
459(11) 0.00765 439.6 3.4
460(12) 0.00731 439.5 3.5
497(12) 0.00697 439.4 3.5
443(11) 0.00835 439.2 3.6
424(11) 0.00843 439.1 3.6
425(11) 0.00821 439.0 3.7
464(12) 0.00729 438.8 3.7
445(11) 0.00790 438.7 3.8
478(11) 0.00781 438.6 3.8
437(11) 0.00830 438.4 3.9
446(11) 0.00778 438.3 3.9
459(12) 0.00729 438.2 4.0
458(12) 0.00735 438.0 4.0
442(11) 0.00849 437.9 4.1
453(11) 0.00785 437.8 4.2
459(12) 0.00749 437.6 4.2
468(12) 0.00737 437.5 4.3
453(11) 0.00786 437.4 4.3
457(11) 0.00811 437.2 4.4
425(11) 0.00846 437.1 4.5
465(12) 0.00703 437.0 4.6
443(11) 0.00771 436.8 4.6
465(11) 0.00767 436.7 4.7
451(11) 0.00826 436.6 4.8
466(12) 0.00738 436.4 4.9
410(11) 0.00842 436.3 5.0
458(11) 0.00757 436.2 5.1
451(11) 0.00811 436.0 5.1
462(11) 0.00794 435.9 5.2
447(12) 0.00752 435.8 5.3
457(12) 0.00715 435.6 5.4
468(12) 0.00747 435.5 5.6
450(11) 0.00798 435.4 5.7
437(11) 0.00853 435.2 5.8
443(11) 0.00781 435.1 5.9
431(11) 0.00769 435.0 6.0
446(11) 0.00783 434.8 6.2
455(11) 0.00792 434.7 6.3
430(11) 0.00867 434.6 6.4
442(11) 0.00791 434.4 6.6
462(12) 0.00674 434.3 6.8
441(11) 0.00784 434.2 6.9
428(11) 0.00880 434.0 7.1
439(11) 0.00841 433.9 7.3
447(11) 0.00771 433.8 7.5
442(12) 0.00755 433.6 7.7
420(11) 0.00822 433.5 7.9
416(11) 0.00899 433.4 8.1
451(11) 0.00806 433.2 8.3
424(11) 0.00840 433.1 8.6
475(12) 0.00700 433.0 8.9
456(11) 0.00773 432.8 9.1
462(11) 0.00808 432.7 9.4
459(11) 0.00808 432.6 9.8
415(11) 0.00843 432.4 10.1
457(12) 0.00724 432.3 10.5
454(11) 0.00785 432.2 10.9
446(11) 0.00831 432.0 11.3
447(11) 0.00791 431.9 11.7
430(11) 0.00804 431.8 12.2
431(11) 0.00803 431.6 12.7
449(11) 0.00794 431.5 13.3
445(11) 0.00837 431.4 13.9
443(11) 0.00798 431.3 14.6
430(11) 0.00825 431.1 15.4
460(12) 0.00749 431.0 16.2
440(11) 0.00818 430.9 17.1
453(11) 0.00824 430.7 18.2
443(11) 0.00780 430.6 19.3
446(11) 0.00765 430.5 20.7
454(11) 0.00763 430.3 22.2
451(11) 0.00804 430.2 24.0
441(11) 0.00835 430.1 26.0
463(11) 0.00760 429.9 28.5
454(12) 0.00751 429.8 31.5
472(12) 0.00743 429.7 35.1
493(12) 0.00732 429.5 39.4
495(12) 0.00750 429.4 44.7
491(12) 0.00722 429.3 51.0
515(13) 0.00630 429.1 58.4
476(12) 0.00738 429.0 67.2
506(12) 0.00730 428.9 77.2
533(12) 0.00682 428.7 88.4
523(12) 0.00643 428.6 100.2
547(13) 0.00600 428.5 111.8
571(13) 0.00618 428.3 121.7
589(13) 0.00637 428.2 128.5
570(12) 0.00651 428.1 130.9
572(13) 0.00602 427.9 128.8
534(13) 0.00621 427.8 123.1
577(13) 0.00610 427.7 115.4
537(12) 0.00696 427.5 107.4
509(12) 0.00714 427.4 100.0
532(12) 0.00640 427.3 94.0
515(13) 0.00632 427.1 89.8
513(12) 0.00686 427.0 87.5
562(12) 0.00665 426.9 87.0
509(12) 0.00717 426.7 88.6
545(13) 0.00624 426.6 92.0
542(13) 0.00605 426.5 97.3
531(12) 0.00646 426.3 104.5
575(13) 0.00636 426.2 113.4
553(12) 0.00658 426.1 124.1
572(13) 0.00584 425.9 136.2
570(13) 0.00588 425.8 149.4
581(13) 0.00589 425.7 163.0
573(12) 0.00647 425.5 176.1
644(13) 0.00550 425.4 187.3
620(14) 0.00542 425.3 195.3
638(14) 0.00513 425.1 198.9
635(14) 0.00538 425.0 197.4
621(13) 0.00597 424.9 191.1
605(13) 0.00589 424.7 181.0
593(13) 0.00575 424.6 168.3
600(13) 0.00568 424.5 154.4
552(13) 0.00639 424.3 140.4
566(12) 0.00662 424.2 126.9
539(12) 0.00641 424.1 114.4
522(12) 0.00668 423.9 103.2
526(12) 0.00660 423.8 93.3
526(12) 0.00688 423.7 84.8
504(12) 0.00737 423.5 77.4
460(12) 0.00753 423.4 71.2
510(12) 0.00653 423.3 66.0
514(12) 0.00674 423.2 61.8
502(12) 0.00722 423.0 58.3
487(11) 0.00772 422.9 55.5
469(12) 0.00749 422.8 53.4
479(12) 0.00699 422.6 51.8
468(12) 0.00752 422.5 50.8
429(11) 0.00861 422.4 50.3
482(11) 0.00769 422.2 50.2
471(12) 0.00730 422.1 50.5
492(12) 0.00670 422.0 51.3
462(11) 0.00765 421.8 52.5
484(11) 0.00769 421.7 54.1
484(11) 0.00760 421.6 56.1
476(12) 0.00746 421.4 58.5
501(12) 0.00640 421.3 61.1
475(12) 0.00737 421.2 63.9
473(11) 0.00782 421.0 66.8
463(11) 0.00797 420.9 69.5
472(12) 0.00744 420.8 71.9
477(12) 0.00669 420.6 73.8
503(12) 0.00682 420.5 75.3
500(12) 0.00743 420.4 76.5
517(12) 0.00704 420.2 77.5
504(12) 0.00686 420.1 78.6
520(13) 0.00627 420.0 80.1
489(12) 0.00699 419.8 82.1
519(12) 0.00710 419.7 84.9
485(12) 0.00755 419.6 88.7
537(13) 0.00633 419.4 93.8
501(12) 0.00672 419.3 100.3
510(12) 0.00663 419.2 108.7
505(12) 0.00737 419.0 119.5
552(12) 0.00648 418.9 133.2
559(13) 0.00600 418.8 150.3
572(13) 0.00577 418.6 171.7
578(13) 0.00587 418.5 197.8
614(13) 0.00607 418.4 229.4
660(14) 0.00528 418.2 266.8
692(14) 0.00497 418.1 309.6
738(15) 0.00470 418.0 356.7
798(15) 0.00442 417.8 405.4
865(15) 0.00427 417.7 450.6
901(16) 0.00397 417.6 485.2
949(17) 0.00361 417.4 501.9
913(16) 0.00371 417.3 496.7
864(16) 0.00409 417.2 471.3
809(15) 0.00459 417.0 431.7
752(15) 0.00452 416.9 385.6
729(15) 0.00458 416.8 339.3
696(14) 0.00493 416.6 296.6
696(14) 0.00510 416.5 259.6
641(13) 0.00578 416.4 228.9
648(14) 0.00534 416.2 204.7
617(13) 0.00554 416.1 186.5
646(14) 0.00543 416.0 174.0
604(13) 0.00608 415.8 166.7
604(13) 0.00619 415.7 164.0
584(13) 0.00598 415.6 165.7
592(13) 0.00559 415.4 171.2
622(13) 0.00557 415.3 180.2
629(13) 0.00592 415.2 192.2
626(13) 0.00596 415.1 206.5
624(13) 0.00578 414.9 221.8
654(14) 0.00494 414.8 236.5
640(13) 0.00556 414.7 248.2
636(13) 0.00587 414.5 254.6
679(14) 0.00547 414.4 253.8
666(14) 0.00528 414.3 245.5
638(14) 0.00514 414.1 230.9
597(13) 0.00599 414.0 212.1
597(13) 0.00623 413.9 191.3
583(13) 0.00632 413.7 170.5
550(13) 0.00634 413.6 150.8
551(13) 0.00602 413.5 132.9
531(12) 0.00679 413.3 117.0
489(12) 0.00755 413.2 103.2
514(12) 0.00712 413.1 91.4
528(12) 0.00658 412.9 81.3
511(12) 0.00646 412.8 72.8
512(12) 0.00685 412.7 65.6
487(11) 0.00760 412.5 59.5
483(11) 0.00763 412.4 54.4
487(12) 0.00700 412.3 50.1
448(11) 0.00759 412.1 46.5
443(11) 0.00765 412.0 43.3
499(12) 0.00748 411.9 40.7
494(12) 0.00727 411.7 38.3
453(11) 0.00769 411.6 36.3
448(12) 0.00737 411.5 34.6
450(11) 0.00777 411.3 33.0
438(11) 0.00850 411.2 31.7
443(11) 0.00785 411.1 30.5
447(12) 0.00752 410.9 29.4
438(11) 0.00786 410.8 28.5
457(11) 0.00784 410.7 27.7
447(11) 0.00837 410.5 27.0
431(11) 0.00807 410.4 26.4
452(12) 0.00742 410.3 25.9
438(11) 0.00799 410.1 25.5
419(11) 0.00866 410.0 25.1
431(11) 0.00861 409.9 24.8
438(11) 0.00784 409.7 24.6
446(12) 0.00739 409.6 24.5
399(11) 0.00893 409.5 24.4
439(11) 0.00822 409.3 24.4
462(11) 0.00809 409.2 24.5
447(11) 0.00769 409.1 24.6
428(11) 0.00774 408.9 24.8
439(11) 0.00775 408.8 25.1
421(11) 0.00874 408.7 25.5
452(11) 0.00813 408.5 26.0
462(11) 0.00763 408.4 26.5
443(12) 0.00747 408.3 27.1
410(11) 0.00853 408.1 27.9
423(11) 0.00887 408.0 28.8
456(11) 0.00814 407.9 29.8
472(12) 0.00740 407.7 30.9
437(12) 0.00755 407.6 32.3
474(12) 0.00738 407.5 33.8
478(11) 0.00778 407.3 35.5
462(11) 0.00808 407.2 37.4
449(11) 0.00773 407.1 39.6
448(12) 0.00731 407.0 42.1
485(12) 0.00712 406.8 44.9
471(11) 0.00790 406.7 48.1
454(11) 0.00814 406.6 51.6
499(12) 0.00673 406.4 55.5
456(12) 0.00750 406.3 59.9
497(12) 0.00682 406.2 64.8
516(12) 0.00727 406.0 70.2
489(12) 0.00756 405.9 76.0
504(12) 0.00671 405.8 82.2
475(12) 0.00733 405.6 88.9
511(12) 0.00679 405.5 95.7
508(12) 0.00724 405.4 102.6
515(12) 0.00706 405.2 109.2
517(12) 0.00660 405.1 115.2
476(12) 0.00731 405.0 120.2
519(12) 0.00684 404.8 123.9
551(12) 0.00676 404.7 126.0
543(12) 0.00658 404.6 126.3
551(13) 0.00636 404.4 124.8
545(13) 0.00636 404.3 121.8
517(12) 0.00690 404.2 117.6
491(11) 0.00758 404.0 112.6
515(12) 0.00645 403.9 107.1
501(12) 0.00683 403.8 101.5
517(12) 0.00678 403.6 96.1
483(12) 0.00744 403.5 91.1
499(12) 0.00740 403.4 86.7
506(12) 0.00680 403.2 82.9
504(12) 0.00663 403.1 79.9
506(12) 0.00685 403.0 77.6
456(11) 0.00790 402.8 76.1
479(11) 0.00775 402.7 75.5
502(12) 0.00689 402.6 75.6
467(12) 0.00722 402.4 76.6
505(12) 0.00697 402.3 78.4
496(12) 0.00742 402.2 81.1
495(12) 0.00751 402.0 84.5
497(12) 0.00682 401.9 88.6
502(12) 0.00640 401.8 93.2
516(12) 0.00678 401.6 98.2
516(12) 0.00721 401.5 103.1
563(12) 0.00651 401.4 107.5
496(12) 0.00705 401.2 111.0
495(13) 0.00636 401.1 112.9
515(12) 0.00652 401.0 113.1
523(12) 0.00708 400.8 111.2
531(12) 0.00692 400.7 107.4
511(12) 0.00687 400.6 102.1
497(12) 0.00658 400.4 95.7
517(12) 0.00667 400.3 88.8
473(11) 0.00787 400.2 81.7
474(11) 0.00783 400.0 74.7
453(11) 0.00783 399.9 68.1
468(12) 0.00693 399.8 61.9
447(11) 0.00783 399.6 56.4
435(11) 0.00846 399.5 51.3
424(11) 0.00863 399.4 46.8
453(11) 0.00764 399.2 42.8
451(12) 0.00754 399.1 39.3
431(11) 0.00828 399.0 36.2
447(11) 0.00826 398.9 33.4
437(11) 0.00806 398.7 31.0
427(11) 0.00800 398.6 28.8
436(11) 0.00758 398.5 26.9
428(11) 0.00831 398.3 25.2
420(11) 0.00888 398.2 23.7
409(11) 0.00879 398.1 22.4
419(11) 0.00834 397.9 21.2
422(11) 0.00791 397.8 20.1
425(11) 0.00827 397.7 19.2
432(11) 0.00859 397.5 18.3
433(11) 0.00821 397.4 17.5
412(11) 0.00833 397.3 16.8
405(11) 0.00844 397.1 16.1
426(11) 0.00836 397.0 15.5
437(11) 0.00853 396.9 15.0
432(11) 0.00799 396.7 14.5
397(11) 0.00850 396.6 14.0
378(10) 0.00928 396.5 13.6
403(11) 0.00902 396.3 13.2
402(10) 0.00919 396.2 12.8
424(11) 0.00829 396.1 12.5
410(11) 0.00803 395.9 12.1
395(11) 0.00890 395.8 11.8
419(11) 0.00864 395.7 11.6
393(10) 0.00947 395.5 11.3
397(11) 0.00863 395.4 11.1
378(11) 0.00856 395.3 10.8
400(11) 0.00861 395.1 10.6
405(10) 0.00908 395.0 10.4
415(11) 0.00905 394.9 10.2
413(11) 0.00828 394.7 10.1
399(11) 0.00803 394.6 9.9
403(11) 0.00852 394.5 9.8
397(10) 0.00952 394.3 9.6
384(10) 0.00960 394.2 9.5
413(11) 0.00830 394.1 9.4
404(11) 0.00800 393.9 9.3
413(11) 0.00829 393.8 9.2
387(10) 0.00961 393.7 9.1
432(11) 0.00839 393.6 9.0
399(11) 0.00898 393.5 8.9
411(11) 0.00798 393.4 8.8
421(11) 0.00831 393.3 8.8
396(10) 0.00933 393.2 8.7
408(11) 0.00888 393.1 8.6
394(11) 0.00866 392.9 8.6
394(11) 0.00838 392.8 8.6
387(10) 0.00913 392.7 8.5
375(10) 0.00988 392.6 8.5
390(10) 0.00923 392.5 8.5
402(11) 0.00857 392.4 8.4
402(11) 0.00883 392.3 8.4
388(11) 0.00903 392.2 8.4
378(10) 0.00987 392.1 8.4
389(10) 0.00921 391.9 8.4
426(11) 0.00829 391.8 8.4
416(11) 0.00827 391.7 8.4
385(10) 0.00910 391.6 8.5
374(10) 0.00994 391.5 8.5
407(11) 0.00890 391.4 8.5
424(11) 0.00818 391.3 8.6
407(11) 0.00851 391.2 8.6
378(10) 0.00938 391.1 8.7
409(10) 0.00914 390.9 8.7
430(11) 0.00804 390.8 8.8
396(11) 0.00852 390.7 8.9
384(10) 0.00944 390.6 9.0
403(11) 0.00899 390.5 9.1
398(10) 0.00938 390.4 9.2
397(11) 0.00880 390.3 9.4
395(11) 0.00855 390.2 9.5
400(11) 0.00879 390.1 9.7
400(10) 0.00912 389.9 10.0
390(10) 0.00943 389.8 10.2
428(11) 0.00789 389.7 10.5
415(11) 0.00804 389.6 10.9
418(11) 0.00831 389.5 11.4
411(11) 0.00899 389.4 12.0
393(10) 0.00955 389.3 12.9
417(11) 0.00811 389.2 14.1
391(11) 0.00845 389.1 15.8
420(11) 0.00831 388.9 18.0
401(10) 0.00918 388.8 21.0
418(11) 0.00890 388.7 24.8
410(11) 0.00847 388.6 29.3
406(11) 0.00770 388.5 34.2
411(11) 0.00827 388.4 38.9
409(11) 0.00901 388.3 42.4
454(11) 0.00812 388.2 43.5
445(11) 0.00774 388.1 41.8
448(12) 0.00726 387.9 38.0
435(11) 0.00797 387.8 33.4
407(10) 0.00916 387.7 28.9
415(11) 0.00876 387.6 24.8
420(11) 0.00840 387.5 21.6
409(11) 0.00813 387.4 19.1
391(11) 0.00886 387.3 17.3
409(10) 0.00919 387.2 16.0
388(10) 0.00919 387.1 15.2
376(10) 0.00945 386.9 14.7
406(11) 0.00826 386.8 14.4
413(11) 0.00832 386.7 14.2
404(10) 0.00924 386.6 14.2
386(10) 0.00914 386.5 14.2
402(11) 0.00863 386.4 14.2
413(11) 0.00822 386.3 14.3
385(11) 0.00897 386.2 14.5
425(11) 0.00872 386.1 14.7
419(11) 0.00831 385.9 14.9
395(11) 0.00871 385.8 15.1
413(11) 0.00824 385.7 15.3
405(11) 0.00888 385.6 15.6
396(10) 0.00929 385.5 15.9
414(11) 0.00856 385.4 16.3
391(11) 0.00879 385.3 16.6
397(11) 0.00889 385.2 17.0
397(10) 0.00923 385.1 17.4
389(10) 0.00941 384.9 17.8
375(10) 0.00922 384.8 18.3
411(11) 0.00817 384.7 18.8
407(11) 0.00850 384.6 19.3
406(11) 0.00897 384.5 19.8
417(11) 0.00889 384.4 20.4
422(11) 0.00820 384.3 21.0
408(11) 0.00837 384.2 21.6
418(11) 0.00841 384.1 22.3
431(11) 0.00845 383.9 23.0
392(10) 0.00955 383.8 23.8
426(11) 0.00794 383.7 24.6
431(11) 0.00760 383.6 25.4
408(11) 0.00868 383.5 26.3
425(11) 0.00867 383.4 27.2
409(10) 0.00908 383.3 28.2
395(11) 0.00878 383.2 29.3
392(11) 0.00826 383.1 30.4
405(11) 0.00862 382.9 31.5
396(10) 0.00936 382.8 32.8
436(11) 0.00842 382.7 34.1
423(11) 0.00825 382.6 35.5
418(11) 0.00807 382.5 36.9
441(11) 0.00793 382.4 38.5
413(11) 0.00891 382.3 40.1
410(10) 0.00915 382.2 41.9
425(11) 0.00797 382.1 43.8
433(11) 0.00756 381.9 45.8
429(11) 0.00812 381.8 47.9
451(11) 0.00822 381.7 50.2
441(11) 0.00814 381.6 52.6
452(11) 0.00781 381.5 55.2
464(12) 0.00734 381.4 58.0
417(11) 0.00837 381.3 61.0
421(11) 0.00882 381.2 64.2
453(11) 0.00791 381.1 67.5
440(11) 0.00802 380.9 71.1
458(12) 0.00737 380.8 74.9
475(12) 0.00722 380.7 78.9
465(11) 0.00798 380.6 82.9
475(12) 0.00752 380.5 87.1
448(11) 0.00761 380.4 91.2
476(12) 0.00707 380.3 95.1
499(12) 0.00728 380.2 98.8
489(12) 0.00752 380.1 102.1
496(12) 0.00711 379.9 104.9
537(13) 0.00638 379.8 107.1
485(12) 0.00708 379.7 108.7
482(12) 0.00735 379.6 109.6
465(11) 0.00803 379.5 109.9
497(12) 0.00699 379.4 109.7
483(12) 0.00694 379.3 109.1
471(12) 0.00740 379.2 108.1
486(12) 0.00741 379.1 106.7
485(11) 0.00770 378.9 105.0
461(11) 0.00760 378.8 103.0
541(13) 0.00602 378.7 100.7
509(12) 0.00693 378.6 98.2
457(11) 0.00800 378.5 95.4
468(11) 0.00798 378.4 92.4
485(12) 0.00705 378.3 89.2
422(11) 0.00809 378.2 86.0
461(12) 0.00745 378.1 82.8
466(11) 0.00792 377.9 79.7
434(11) 0.00867 377.8 76.7
436(11) 0.00810 377.7 73.8
439(12) 0.00728 377.6 71.2
447(11) 0.00777 377.5 68.7
463(11) 0.00804 377.4 66.5
453(11) 0.00811 377.3 64.6
439(11) 0.00788 377.2 62.8
449(12) 0.00709 377.1 61.3
467(12) 0.00719 376.9 60.0
458(11) 0.00803 376.8 59.0
450(11) 0.00834 376.7 58.2
457(11) 0.00760 376.6 57.6
452(12) 0.00722 376.5 57.2
418(11) 0.00833 376.4 57.0
421(11) 0.00896 376.3 57.1
411(11) 0.00897 376.2 57.4
428(11) 0.00799 376.1 57.9
443(11) 0.00762 376.0 58.7
452(12) 0.00754 375.8 59.7
442(11) 0.00836 375.7 61.0
432(11) 0.00861 375.6 62.6
418(11) 0.00834 375.5 64.4
452(12) 0.00752 375.4 66.6
455(11) 0.00774 375.3 69.1
475(11) 0.00779 375.2 72.1
466(11) 0.00765 375.1 75.4
467(12) 0.00723 375.0 79.2
475(12) 0.00711 374.8 83.4
472(12) 0.00741 374.7 88.3
456(11) 0.00816 374.6 93.8
449(11) 0.00777 374.5 100.0
494(12) 0.00678 374.4 107.0
487(12) 0.00709 374.3 114.8
491(12) 0.00719 374.2 123.5
526(12) 0.00708 374.1 133.3
491(12) 0.00711 374.0 144.2
525(13) 0.00631 373.8 156.3
531(12) 0.00651 373.7 169.6
561(12) 0.00656 373.6 184.2
587(13) 0.00636 373.5 200.0
586(13) 0.00585 373.4 217.1
594(13) 0.00559 373.3 235.2
645(14) 0.00533 373.2 254.2
641(13) 0.00571 373.1 273.9
654(13) 0.00570 373.0 293.8
677(14) 0.00511 372.8 313.5
658(14) 0.00506 372.7 332.4
734(15) 0.00461 372.6 349.6
748(14) 0.00486 372.5 364.3
723(14) 0.00512 372.4 375.4
768(15) 0.00438 372.3 382.0
738(15) 0.00425 372.2 383.4
721(14) 0.00476 372.1 379.3
680(14) 0.00540 372.0 370.1
678(14) 0.00547 371.8 356.3
637(14) 0.00538 371.7 338.9
599(14) 0.00535 371.6 319.0
628(14) 0.00540 371.5 297.8
588(13) 0.00627 371.4 276.2
569(12) 0.00644 371.3 254.8
558(13) 0.00630 371.2 234.4
544(13) 0.00612 371.1 215.1
588(13) 0.00575 371.0 197.2
574(12) 0.00647 370.8 180.8
535(12) 0.00679 370.7 166.0
522(12) 0.00671 370.6 152.5
504(12) 0.00667 370.5 140.5
500(12) 0.00673 370.4 129.7
509(12) 0.00734 370.3 120.1
488(12) 0.00728 370.2 111.7
477(12) 0.00725 370.1 104.2
461(12) 0.00745 370.0 97.6
454(11) 0.00773 369.8 91.9
441(11) 0.00840 369.7 87.0
483(12) 0.00732 369.6 82.7
481(12) 0.00719 369.5 79.1
445(11) 0.00779 369.4 76.1
434(11) 0.00820 369.3 73.6
448(11) 0.00838 369.2 71.5
490(12) 0.00725 369.1 69.9
410(11) 0.00859 369.0 68.6
463(12) 0.00732 368.8 67.5
419(11) 0.00885 368.7 66.6
430(11) 0.00858 368.6 65.7
441(11) 0.00773 368.5 64.8
439(11) 0.00770 368.4 63.6
442(11) 0.00785 368.3 62.2
437(11) 0.00839 368.2 60.4
439(11) 0.00844 368.1 58.3
456(12) 0.00748 368.0 55.9
451(12) 0.00732 367.8 53.3
443(11) 0.00803 367.7 50.5
430(11) 0.00848 367.6 47.8
433(11) 0.00861 367.5 45.1
416(11) 0.00854 367.4 42.5
434(12) 0.00751 367.3 40.0
424(11) 0.00832 367.2 37.7
430(11) 0.00859 367.1 35.6
408(11) 0.00904 367.0 33.6
405(11) 0.00860 366.8 31.8
401(11) 0.00817 366.7 30.2
410(11) 0.00846 366.6 28.7
382(10) 0.00964 366.5 27.3
388(10) 0.00955 366.4 26.0
379(10) 0.00924 366.3 24.8
387(11) 0.00827 366.2 23.8
417(11) 0.00836 366.1 22.8
410(10) 0.00910 366.0 21.9
377(10) 0.00997 365.8 21.1
387(10) 0.00908 365.7 20.3
383(11) 0.00847 365.6 19.6
367(10) 0.00931 365.5 19.0
398(10) 0.00939 365.4 18.4
405(11) 0.00906 365.3 17.8
399(11) 0.00880 365.2 17.3
386(11) 0.00854 365.1 16.8
400(11) 0.00851 365.0 16.4
402(10) 0.00927 364.8 16.0
380(10) 0.00962 364.7 15.6
382(11) 0.00903 364.6 15.2
372(10) 0.00914 364.5 14.9
391(11) 0.00860 364.4 14.6
361(10) 0.01017 364.3 14.3
396(11) 0.00893 364.2 14.1
387(11) 0.00857 364.1 13.8
381(11) 0.00840 364.0 13.6
351(10) 0.00960 363.8 13.4
381(10) 0.00975 363.7 13.3
368(10) 0.00989 363.6 13.1
380(11) 0.00889 363.5 13.0
371(10) 0.00957 363.4 12.9
406(11) 0.00879 363.3 12.8
375(10) 0.00993 363.2 12.7
397(11) 0.00844 363.1 12.7
346(10) 0.00988 363.0 12.7
377(11) 0.00882 362.8 12.7
373(10) 0.00966 362.7 12.7
394(10) 0.00941 362.6 12.8
386(11) 0.00856 362.5 12.9
377(11) 0.00887 362.4 13.0
381(10) 0.00919 362.3 13.2
368(10) 0.00987 362.2 13.4
353(10) 0.01053 362.1 13.6
373(10) 0.00931 362.0 13.8
389(11) 0.00848 361.8 14.1
373(11) 0.00906 361.7 14.4
357(10) 0.01025 361.6 14.7
382(10) 0.00961 361.5 15.0
407(11) 0.00869 361.4 15.3
381(11) 0.00872 361.3 15.6
377(10) 0.00959 361.2 15.9
378(10) 0.00985 361.1 16.1
408(11) 0.00906 361.0 16.2
379(10) 0.00921 360.8 16.2
396(11) 0.00782 360.7 16.2
395(11) 0.00885 360.6 16.0
396(10) 0.00922 360.5 15.8
327(9) 0.01137 360.4 15.5
382(11) 0.00902 360.3 15.1
364(10) 0.00917 360.2 14.6
395(11) 0.00852 360.1 14.1
368(10) 0.01002 360.0 13.7
372(10) 0.00980 359.8 13.2
387(10) 0.00916 359.7 12.7
386(11) 0.00849 359.6 12.2
368(10) 0.00940 359.5 11.7
369(10) 0.01006 359.4 11.3
355(10) 0.01025 359.3 10.9
376(10) 0.00936 359.2 10.5
380(11) 0.00883 359.1 10.1
365(10) 0.00953 359.0 9.8
387(10) 0.00946 358.8 9.5
383(10) 0.00944 358.7 9.2
356(10) 0.00946 358.6 8.9
343(10) 0.00980 358.5 8.7
377(10) 0.00914 358.4 8.5
347(10) 0.01062 358.3 8.3
351(10) 0.01000 358.2 8.1
360(10) 0.00958 358.1 7.9
362(10) 0.00941 358.0 7.8
362(10) 0.00974 357.8 7.6
367(10) 0.01016 357.7 7.5
370(10) 0.00956 357.6 7.4
356(10) 0.00966 357.5 7.3
382(11) 0.00865 357.4 7.2
343(10) 0.01065 357.3 7.1
351(10) 0.01059 357.2 7.0
366(10) 0.00959 357.1 7.0
358(10) 0.00964 357.0 6.9
349(10) 0.01026 356.8 6.8
384(10) 0.00939 356.7 6.8
348(10) 0.01073 356.6 6.8
366(10) 0.00932 356.5 6.7
365(11) 0.00889 356.4 6.7
371(10) 0.00916 356.3 6.7
356(10) 0.01027 356.2 6.7
377(10) 0.00969 356.1 6.6
372(10) 0.00975 356.0 6.6
386(11) 0.00847 355.8 6.6
366(10) 0.00963 355.7 6.6
362(10) 0.01025 355.6 6.7
361(10) 0.01022 355.5 6.7
363(10) 0.00974 355.4 6.7
349(10) 0.00953 355.3 6.7
364(10) 0.00954 355.2 6.8
369(10) 0.01013 355.1 6.8
368(10) 0.01009 355.0 6.8
369(10) 0.00926 354.8 6.9
385(11) 0.00854 354.7 7.0
385(11) 0.00893 354.6 7.0
343(10) 0.01073 354.5 7.1
350(10) 0.01051 354.4 7.2
369(10) 0.00933 354.3 7.3
348(10) 0.00944 354.2 7.4
355(10) 0.00956 354.1 7.5
373(10) 0.00987 354.0 7.6
383(10) 0.00954 353.8 7.8
365(10) 0.00935 353.7 7.9
358(10) 0.00935 353.6 8.0
360(10) 0.00979 353.5 8.2
390(10) 0.00949 353.4 8.4
395(10) 0.00930 353.3 8.6
369(10) 0.00948 353.2 8.8
336(10) 0.00998 353.1 9.0
325(10) 0.01058 353.0 9.3
359(10) 0.01033 352.8 9.5
353(10) 0.01003 352.7 9.8
351(10) 0.01002 352.6 10.1
362(10) 0.00959 352.5 10.5
370(10) 0.00969 352.4 10.8
373(10) 0.00990 352.3 11.2
391(11) 0.00878 352.2 11.6
398(11) 0.00835 352.1 12.1
339(10) 0.01061 352.0 12.5
374(10) 0.00976 351.9 13.0
398(10) 0.00932 351.7 13.6
386(11) 0.00902 351.6 14.2
374(10) 0.00912 351.5 14.8
367(10) 0.00927 351.4 15.5
388(10) 0.00928 351.3 16.2
384(10) 0.00957 351.2 16.9
386(11) 0.00896 351.1 17.7
379(11) 0.00841 351.0 18.6
357(10) 0.00969 350.9 19.5
378(10) 0.00959 350.7 20.4
377(10) 0.00991 350.6 21.3
397(11) 0.00875 350.5 22.3
363(10) 0.00946 350.4 23.3
377(10) 0.00923 350.3 24.2
357(10) 0.01033 350.2 25.2
388(10) 0.00954 350.1 26.1
356(10) 0.00989 350.0 27.0
352(10) 0.00944 349.9 27.8
375(10) 0.00915 349.7 28.5
383(10) 0.00978 349.6 29.1
375(10) 0.00984 349.5 29.6
383(10) 0.00925 349.4 29.9
376(11) 0.00863 349.3 30.1
366(10) 0.00942 349.2 30.0
375(10) 0.01000 349.1 29.9
379(10) 0.00958 349.0 29.5
401(11) 0.00850 348.9 29.0
378(11) 0.00860 348.7 28.4
387(11) 0.00869 348.6 27.7
367(10) 0.01015 348.5 26.9
380(10) 0.00956 348.4 26.1
354(10) 0.00983 348.3 25.2
368(10) 0.00916 348.2 24.3
392(11) 0.00895 348.1 23.3
405(10) 0.00911 348.0 22.4
375(10) 0.00956 347.9 21.5
353(10) 0.00962 347.7 20.7
356(10) 0.00959 347.6 19.9
363(10) 0.00949 347.5 19.1
397(10) 0.00937 347.4 18.4
378(10) 0.00933 347.3 17.7
360(10) 0.00966 347.2 17.1
351(10) 0.00940 347.1 16.5
383(11) 0.00890 347.0 15.9
358(10) 0.01040 346.9 15.4
373(10) 0.00931 346.7 15.0
359(10) 0.00943 346.6 14.5
363(10) 0.00942 346.5 14.1
379(11) 0.00902 346.4 13.8
339(10) 0.01106 346.3 13.4
343(10) 0.01032 346.2 13.1
372(11) 0.00906 346.1 12.8
353(10) 0.01002 346.0 12.4
400(11) 0.00884 345.9 12.1
366(10) 0.01011 345.7 11.8
360(10) 0.00942 345.6 11.5
352(10) 0.00954 345.5 11.1
362(10) 0.00939 345.4 10.8
335(10) 0.01063 345.3 10.5
361(10) 0.01027 345.2 10.2
368(11) 0.00903 345.1 9.9
332(10) 0.01006 345.0 9.5
351(10) 0.00978 344.9 9.2
353(10) 0.00991 344.7 9.0
354(10) 0.01036 344.6 8.7
353(10) 0.00996 344.5 8.4
373(11) 0.00880 344.4 8.2
345(10) 0.00991 344.3 8.0
340(10) 0.01083 344.2 7.8
355(10) 0.01033 344.1 7.6
345(10) 0.01002 344.0 7.4
366(11) 0.00872 343.9 7.2
339(10) 0.00984 343.7 7.0
322(9) 0.01147 343.6 6.9
334(10) 0.01066 343.5 6.8
345(10) 0.01001 343.4 6.6
355(11) 0.00886 343.3 6.5
363(10) 0.00948 343.2 6.4
329(9) 0.01133 343.1 6.3
347(10) 0.01033 343.0 6.2
342(10) 0.01004 342.9 6.2
326(10) 0.01006 342.7 6.1
344(10) 0.00997 342.6 6.0
353(10) 0.01045 342.5 6.0
364(10) 0.00996 342.4 6.0
354(10) 0.00989 342.3 5.9
342(10) 0.00994 342.2 5.9
342(10) 0.00995 342.1 5.9
330(9) 0.01108 342.0 5.9
352(10) 0.01011 341.9 5.8
328(10) 0.01077 341.7 5.8
385(11) 0.00866 341.6 5.8
370(10) 0.00932 341.5 5.9
358(10) 0.01024 341.4 5.9
342(10) 0.01047 341.3 5.9
359(10) 0.00923 341.2 5.9
352(10) 0.00968 341.1 6.0
363(10) 0.00971 341.0 6.0
358(10) 0.01045 340.9 6.1
347(10) 0.01021 340.7 6.1
323(10) 0.01043 340.6 6.2
354(10) 0.00958 340.5 6.3
366(10) 0.00956 340.4 6.3
336(10) 0.01107 340.3 6.4
385(11) 0.00895 340.2 6.5
361(10) 0.00920 340.1 6.6
361(10) 0.00923 340.0 6.7
311(9) 0.01175 339.9 6.8
360(10) 0.01028 339.7 6.9
362(10) 0.00974 339.6 7.0
360(10) 0.00927 339.5 7.2
360(10) 0.00955 339.4 7.3
331(9) 0.01122 339.3 7.4
371(10) 0.01001 339.2 7.6
335(10) 0.01068 339.1 7.7
317(10) 0.01054 339.0 7.9
351(10) 0.00972 338.9 8.0
376(10) 0.00976 338.7 8.2
367(10) 0.01010 338.6 8.3
364(10) 0.00955 338.5 8.5
365(11) 0.00866 338.4 8.6
367(10) 0.00949 338.3 8.8
354(10) 0.01061 338.2 8.9
346(10) 0.01070 338.1 9.0
349(10) 0.00955 338.0 9.1
339(10) 0.00962 337.9 9.2
349(10) 0.01023 337.7 9.3
356(10) 0.01055 337.6 9.4
338(10) 0.01090 337.5 9.5
363(10) 0.00974 337.4 9.5
337(10) 0.01036 337.3 9.5
348(10) 0.01003 337.2 9.5
342(10) 0.01081 337.1 9.5
349(10) 0.01039 337.0 9.5
358(10) 0.00953 336.9 9.4
338(10) 0.00993 336.7 9.3
356(10) 0.00988 336.6 9.2
358(10) 0.01037 336.5 9.1
337(10) 0.01055 336.4 9.0
355(10) 0.00973 336.3 8.8
372(11) 0.00900 336.2 8.7
360(10) 0.00955 336.1 8.5
336(10) 0.01102 336.0 8.4
379(10) 0.00933 335.9 8.2
329(10) 0.01079 335.7 8.0
348(10) 0.00969 335.6 7.8
342(10) 0.01026 335.5 7.6
360(10) 0.01040 335.4 7.5
358(10) 0.00965 335.3 7.3
348(10) 0.00971 335.2 7.1
344(10) 0.00996 335.1 6.9
332(10) 0.01099 335.0 6.7
369(10) 0.01017 334.9 6.5
360(10) 0.00965 334.7 6.4
342(10) 0.00988 334.6 6.2
335(10) 0.01050 334.5 6.0
339(10) 0.01058 334.4 5.9
357(10) 0.01029 334.3 5.7
329(10) 0.01066 334.2 5.6
351(10) 0.00930 334.1 5.5
346(10) 0.00984 334.0 5.3
324(9) 0.01149 333.9 5.2
336(9) 0.01109 333.7 5.1
331(10) 0.01030 333.6 5.0
330(10) 0.01003 333.5 4.8
347(10) 0.01032 333.4 4.7
354(10) 0.01049 333.3 4.6
340(10) 0.01094 333.2 4.5
369(10) 0.00941 333.1 4.4
355(11) 0.00875 333.0 4.3
339(10) 0.01033 332.9 4.3
344(10) 0.01071 332.7 4.2
338(10) 0.01103 332.6 4.1
299(9) 0.01168 332.5 4.0
316(10) 0.01043 332.4 3.9
334(10) 0.01048 332.3 3.9
357(10) 0.01035 332.2 3.8
343(10) 0.01072 332.1 3.7
327(10) 0.01092 332.0 3.7
352(10) 0.00926 331.9 3.6
363(10) 0.00943 331.7 3.6
329(9) 0.01114 331.6 3.5
344(10) 0.01083 331.5 3.5
336(10) 0.01053 331.4 3.4
354(11) 0.00900 331.3 3.4
330(10) 0.01038 331.2 3.3
324(9) 0.01147 331.1 3.3
332(10) 0.01069 331.0 3.3
343(10) 0.01021 330.9 3.2
353(10) 0.00971 330.7 3.2
341(10) 0.01044 330.6 3.2
351(10) 0.01068 330.5 3.1
333(10) 0.01075 330.4 3.1
351(10) 0.00979 330.3 3.1
333(10) 0.01028 330.2 3.0
328(10) 0.01073 330.1 3.0
318(9) 0.01178 330.0 3.0
337(10) 0.01029 329.9 3.0
338(10) 0.01023 329.7 2.9
372(11) 0.00906 329.6 2.9
355(10) 0.01004 329.5 2.9
323(9) 0.01157 329.4 2.9
330(10) 0.01042 329.3 2.9
357(10) 0.00924 329.2 2.9
343(10) 0.01012 329.1 2.8
354(10) 0.00995 329.0 2.8
341(10) 0.01101 328.9 2.8
324(10) 0.01071 328.8 2.8
339(10) 0.00983 328.6 2.8
331(10) 0.01074 328.5 2.8
328(9) 0.01119 328.4 2.8
327(9) 0.01143 328.3 2.8
331(10) 0.01085 328.2 2.8
366(11) 0.00903 328.1 2.8
346(10) 0.01021 328.0 2.8
370(10) 0.00977 327.9 2.8
327(9) 0.01132 327.8 2.8
298(9) 0.01171 327.6 2.8
339(10) 0.00947 327.5 2.8
341(10) 0.00995 327.4 2.8
348(10) 0.01046 327.3 2.8
342(10) 0.01093 327.2 2.8
324(10) 0.01069 327.1 2.8
313(10) 0.01010 327.0 2.8
334(10) 0.01026 326.9 2.9
328(9) 0.01122 326.8 2.9
326(9) 0.01116 326.6 2.9
313(9) 0.01143 326.5 2.9
346(10) 0.00972 326.4 2.9
335(10) 0.01064 326.3 3.0
318(9) 0.01168 326.2 3.0
321(9) 0.01141 326.1 3.0
319(10) 0.01092 326.0 3.1
347(10) 0.00943 325.9 3.1
334(10) 0.01039 325.8 3.1
341(10) 0.01098 325.6 3.2
345(10) 0.01037 325.5 3.3
345(10) 0.00981 325.4 3.3
324(10) 0.01070 325.3 3.4
346(10) 0.00971 325.3 3.4
361(10) 0.01030 325.2 3.5
326(10) 0.01083 325.1 3.6
357(10) 0.00968 325.1 3.7
326(10) 0.01076 325.0 3.8
329(10) 0.01106 324.9 3.9
312(9) 0.01196 324.9 4.1
344(10) 0.01040 324.8 4.3
345(10) 0.00965 324.7 4.4
337(10) 0.01029 324.7 4.6
335(10) 0.01035 324.6 4.9
329(9) 0.01133 324.5 5.2
345(10) 0.01013 324.5 5.5
357(10) 0.00934 324.4 5.9
328(10) 0.01074 324.3 6.3
363(10) 0.01002 324.3 6.8
344(10) 0.01081 324.2 7.4
325(10) 0.01068 324.1 8.1
314(10) 0.01083 324.1 8.8
341(10) 0.01015 324.0 9.6
360(10) 0.01014 323.9 10.6
323(9) 0.01148 323.9 11.6
335(10) 0.01029 323.8 12.7
349(10) 0.00932 323.7 13.7
328(10) 0.01077 323.7 14.8
327(9) 0.01142 323.6 15.6
355(10) 0.01032 323.5 16.3
333(10) 0.01066 323.5 16.6
328(10) 0.00999 323.4 16.6
339(10) 0.01029 323.3 16.2
324(9) 0.01131 323.3 15.6
347(10) 0.01064 323.2 14.7
338(10) 0.01004 323.1 13.7
330(10) 0.00951 323.1 12.7
330(10) 0.01045 323.0 11.8
347(10) 0.01083 322.9 10.9
353(10) 0.01051 322.9 10.1
314(9) 0.01110 322.8 9.4
332(10) 0.00977 322.7 8.7
334(10) 0.00990 322.7 8.2
322(9) 0.01165 322.6 7.8
331(10) 0.01090 322.5 7.4
317(10) 0.01075 322.5 7.2
321(10) 0.00974 322.4 6.9
300(9) 0.01162 322.3 6.8
323(9) 0.01169 322.3 6.7
329(10) 0.01072 322.2 6.7
306(9) 0.01135 322.1 6.7
338(10) 0.00973 322.1 6.8
315(9) 0.01124 322.0 6.9
340(10) 0.01099 321.9 7.1
326(10) 0.01100 321.9 7.3
325(10) 0.01072 321.8 7.6
336(10) 0.00993 321.7 7.9
305(9) 0.01132 321.7 8.4
349(10) 0.01060 321.6 8.9
309(9) 0.01178 321.5 9.5
311(10) 0.01098 321.5 10.1
303(9) 0.01195 321.4 10.9
338(10) 0.01062 321.3 11.7
328(9) 0.01124 321.3 12.6
333(10) 0.01056 321.2 13.6
341(10) 0.00981 321.1 14.6
324(10) 0.01055 321.1 15.5
335(10) 0.01075 321.0 16.4
327(9) 0.01137 320.9 17.1
336(10) 0.01065 320.9 17.6
348(10) 0.01016 320.8 17.7
339(10) 0.00986 320.7 17.6
332(10) 0.01092 320.7 17.2
357(10) 0.01039 320.6 16.6
333(10) 0.01049 320.5 15.9
363(11) 0.00899 320.5 15.1
332(10) 0.01060 320.4 14.3
327(9) 0.01117 320.3 13.6
352(10) 0.01050 320.3 12.9
335(10) 0.01019 320.2 12.4
338(10) 0.00976 320.1 11.9
346(10) 0.01035 320.1 11.5
287(9) 0.01292 320.0 11.3
316(9) 0.01163 319.9 11.1
346(10) 0.01015 319.9 11.0
330(10) 0.00988 319.8 11.0
324(10) 0.01038 319.7 11.0
336(10) 0.01094 319.7 11.0
334(10) 0.01073 319.6 11.0
324(10) 0.01085 319.5 11.0
357(11) 0.00902 319.5 10.9
326(10) 0.01068 319.4 10.8
299(9) 0.01244 319.3 10.6
333(9) 0.01114 319.3 10.3
317(10) 0.01101 319.2 10.1
325(10) 0.01015 319.1 9.8
343(10) 0.00975 319.1 9.6
315(9) 0.01186 319.0 9.4
323(9) 0.01152 318.9 9.2
336(10) 0.01021 318.9 9.1
337(10) 0.00980 318.8 9.1
323(10) 0.01089 318.7 9.1
341(10) 0.01100 318.7 9.1
298(9) 0.01216 318.6 9.2
318(10) 0.01089 318.5 9.3
315(10) 0.01042 318.5 9.5
320(10) 0.01057 318.4 9.8
312(9) 0.01197 318.3 10.1
314(9) 0.01140 318.3 10.5
329(10) 0.01027 318.2 10.9
355(10) 0.00922 318.1 11.4
309(9) 0.01165 318.1 11.9
326(9) 0.01137 318.0 12.5
308(9) 0.01184 317.9 13.0
336(10) 0.01027 317.9 13.6
334(10) 0.01044 317.8 14.1
330(10) 0.01075 317.7 14.6
347(10) 0.01079 317.7 15.0
329(10) 0.01062 317.6 15.2
327(10) 0.01012 317.5 15.3
325(10) 0.01019 317.5 15.2
324(10) 0.01099 317.4 14.9
334(9) 0.01109 317.3 14.6
342(10) 0.00965 317.3 14.1
354(11) 0.00878 317.2 13.5
333(10) 0.00989 317.1 12.9
326(10) 0.01108 317.1 12.3
347(10) 0.01067 317.0 11.7
312(9) 0.01150 316.9 11.2
313(10) 0.01090 316.9 10.7
345(10) 0.01041 316.8 10.2
331(9) 0.01116 316.7 9.8
285(9) 0.01292 316.7 9.4
332(10) 0.01059 316.6 9.1
331(10) 0.00992 316.5 8.8
337(10) 0.01047 316.5 8.6
359(10) 0.01035 316.4 8.4
347(10) 0.01073 316.3 8.2
343(10) 0.01002 316.3 8.0
329(10) 0.00965 316.2 7.9
340(10) 0.00993 316.1 7.9
319(9) 0.01175 316.1 7.8
331(10) 0.01081 316.0 7.8
332(10) 0.01059 315.9 7.8
302(9) 0.01149 315.9 7.8
321(10) 0.01068 315.8 7.8
287(9) 0.01297 315.7 7.9
304(9) 0.01186 315.7 7.9
303(9) 0.01152 315.6 8.0
305(10) 0.01071 315.5 8.1
315(10) 0.01060 315.5 8.2
336(10) 0.01108 315.4 8.4
320(9) 0.01114 315.3 8.5
307(9) 0.01137 315.3 8.7
315(10) 0.01059 315.2 8.8
338(10) 0.01012 315.1 9.0
334(10) 0.01108 315.1 9.2
314(9) 0.01149 315.0 9.5
326(10) 0.01016 314.9 9.7
323(10) 0.01029 314.9 9.9
312(9) 0.01150 314.8 10.2
320(9) 0.01157 314.7 10.4
344(10) 0.01016 314.7 10.7
314(9) 0.01121 314.6 11.0
325(10) 0.01039 314.5 11.3
309(9) 0.01159 314.5 11.6
311(9) 0.01197 314.4 12.0
348(10) 0.00992 314.3 12.3
343(10) 0.00953 314.3 12.6
319(9) 0.01108 314.2 13.0
337(10) 0.01073 314.1 13.3
329(9) 0.01131 314.1 13.7
329(10) 0.01061 314.0 14.0
327(10) 0.01044 313.9 14.3
357(10) 0.00965 313.9 14.7
331(10) 0.01098 313.8 15.0
314(9) 0.01199 313.7 15.3
325(10) 0.01054 313.7 15.6
326(10) 0.01041 313.6 15.9
334(10) 0.01014 313.5 16.1
360(10) 0.00989 313.5 16.3
335(10) 0.01107 313.4 16.5
343(10) 0.01035 313.3 16.7
333(10) 0.00972 313.3 16.9
314(9) 0.01128 313.2 17.0
327(9) 0.01117 313.1 17.1
316(9) 0.01162 313.1 17.1
310(9) 0.01124 313.0 17.2
328(10) 0.00960 312.9 17.2
328(10) 0.01076 312.9 17.2
342(10) 0.01086 312.8 17.2
337(10) 0.01088 312.7 17.1
320(10) 0.01075 312.7 17.1
319(10) 0.01011 312.6 17.0
327(10) 0.01039 312.5 17.0
333(9) 0.01117 312.5 17.0
317(9) 0.01172 312.4 16.9
335(10) 0.01022 312.3 16.9
338(10) 0.00977 312.3 16.9
325(10) 0.01087 312.2 16.9
329(9) 0.01117 312.1 17.0
349(10) 0.01023 312.1 17.0
341(10) 0.01040 312.0 17.1
330(10) 0.01020 311.9 17.3
343(10) 0.00987 311.9 17.4
316(9) 0.01174 311.8 17.6
313(9) 0.01158 311.7 17.9
329(10) 0.01024 311.7 18.2
296(9) 0.01188 311.6 18.5
349(10) 0.00993 311.5 18.9
352(10) 0.01053 311.5 19.3
345(10) 0.01035 311.4 19.8
334(10) 0.01062 311.3 20.4
350(10) 0.00984 311.3 21.0
347(10) 0.01039 311.2 21.7
343(10) 0.01086 311.1 22.4
363(10) 0.00963 311.1 23.2
352(10) 0.00963 311.0 24.1
318(10) 0.01088 310.9 25.0
348(10) 0.01012 310.9 26.0
353(10) 0.01049 310.8 27.1
343(10) 0.00999 310.7 28.2
351(10) 0.00946 310.7 29.4
343(10) 0.01003 310.6 30.6
357(10) 0.00987 310.5 31.8
348(10) 0.01077 310.5 33.1
370(11) 0.00906 310.4 34.3
336(10) 0.00924 310.3 35.6
345(10) 0.01013 310.3 36.7
363(10) 0.01014 310.2 37.8
344(10) 0.01073 310.1 38.8
329(10) 0.01101 310.1 39.7
334(10) 0.01014 310.0 40.4
362(10) 0.00941 309.9 40.9
365(10) 0.01006 309.9 41.2
341(10) 0.01075 309.8 41.2
339(10) 0.01012 309.7 41.1
357(11) 0.00892 309.7 40.7
388(11) 0.00852 309.6 40.1
332(10) 0.01103 309.5 39.3
358(10) 0.01030 309.5 38.3
374(11) 0.00903 309.4 37.2
352(10) 0.00941 309.3 36.0
393(11) 0.00857 309.3 34.7
365(10) 0.01001 309.2 33.3
344(10) 0.01053 309.1 31.9
334(10) 0.01060 309.1 30.5
347(10) 0.00928 309.0 29.2
338(10) 0.01079 308.9 27.8
350(10) 0.01072 308.9 26.5
343(10) 0.01050 308.8 25.2
341(10) 0.01024 308.7 24.0
322(10) 0.01018 308.7 22.8
325(10) 0.01061 308.6 21.7
323(9) 0.01146 308.5 20.7
341(10) 0.01064 308.5 19.7
339(10) 0.01053 308.4 18.8
340(10) 0.01013 308.3 17.9
326(10) 0.01079 308.3 17.1
357(10) 0.01037 308.2 16.3
330(10) 0.01054 308.1 15.6
333(10) 0.01021 308.1 15.0
336(10) 0.01044 308.0 14.3
322(9) 0.01118 307.9 13.8
307(9) 0.01210 307.9 13.2
322(10) 0.01080 307.8 12.7
323(10) 0.01061 307.7 12.3
334(10) 0.01054 307.7 11.8
348(10) 0.01046 307.6 11.4
347(10) 0.01071 307.5 11.1
330(10) 0.01030 307.5 10.7
334(10) 0.00981 307.4 10.4
339(10) 0.01041 307.3 10.1
333(10) 0.01082 307.3 9.8
328(9) 0.01124 307.2 9.5
305(9) 0.01118 307.1 9.3
317(10) 0.01061 307.1 9.0
301(9) 0.01193 307.0 8.8
329(9) 0.01127 306.9 8.6
313(9) 0.01166 306.9 8.4
322(9) 0.01124 306.8 8.2
338(10) 0.00957 306.7 8.0
325(10) 0.01049 306.7 7.8
314(9) 0.01174 306.6 7.6
314(9) 0.01185 306.5 7.4
317(9) 0.01112 306.5 7.2
317(10) 0.01040 306.4 7.0
347(10) 0.01024 306.3 6.9
329(9) 0.01146 306.3 6.7
284(9) 0.01298 306.2 6.5
306(9) 0.01163 306.1 6.4
322(10) 0.01012 306.1 6.2
330(10) 0.01034 306.0 6.1
317(9) 0.01169 305.9 5.9
337(10) 0.01088 305.9 5.8
320(10) 0.01105 305.8 5.6
322(10) 0.00989 305.7 5.5
321(10) 0.01025 305.7 5.4
293(9) 0.01277 305.6 5.2
311(9) 0.01161 305.5 5.1
330(10) 0.01073 305.5 5.0
327(10) 0.01022 305.4 4.9
303(9) 0.01141 305.3 4.8
301(9) 0.01225 305.3 4.7
308(9) 0.01181 305.2 4.6
308(9) 0.01119 305.1 4.5
311(10) 0.01072 305.1 4.5
297(9) 0.01173 305.0 4.4
292(9) 0.01266 304.9 4.3
317(9) 0.01120 304.9 4.2
292(9) 0.01230 304.8 4.2
326(10) 0.01045 304.7 4.1
316(9) 0.01120 304.7 4.0
329(9) 0.01123 304.6 4.0
313(9) 0.01154 304.5 3.9
321(10) 0.01047 304.5 3.9
310(10) 0.01107 304.4 3.8
320(9) 0.01113 304.3 3.8
329(9) 0.01119 304.3 3.7
329(10) 0.01067 304.2 3.7
347(10) 0.00937 304.1 3.7
321(10) 0.01053 304.1 3.6
291(9) 0.01245 304.0 3.6
300(9) 0.01238 303.9 3.6
318(10) 0.01067 303.9 3.5
313(10) 0.01066 303.8 3.5
313(9) 0.01109 303.7 3.5
328(9) 0.01109 303.7 3.4
321(9) 0.01155 303.6 3.4
333(10) 0.01065 303.5 3.4
295(9) 0.01143 303.5 3.3
321(10) 0.01070 303.4 3.3
315(9) 0.01155 303.3 3.3
307(9) 0.01222 303.3 3.3
327(10) 0.01088 303.2 3.2
332(10) 0.00965 303.1 3.2
292(9) 0.01155 303.1 3.2
322(9) 0.01134 303.0 3.2
305(9) 0.01218 302.9 3.1
314(10) 0.01091 302.9 3.1
340(10) 0.00945 302.8 3.1
320(10) 0.01079 302.7 3.1
291(9) 0.01269 302.7 3.1
298(9) 0.01253 302.6 3.1
316(10) 0.01107 302.5 3.0
308(10) 0.01056 302.5 3.0
330(10) 0.00997 302.4 3.0
314(9) 0.01178 302.3 3.0
322(9) 0.01136 302.3 3.0
305(9) 0.01132 302.2 3.0
316(10) 0.01038 302.1 3.0
307(9) 0.01146 302.1 3.1
315(9) 0.01178 302.0 3.1
300(9) 0.01225 301.9 3.1
309(9) 0.01118 301.9 3.1
304(9) 0.01142 301.8 3.1
304(9) 0.01137 301.7 3.2
303(9) 0.01239 301.7 3.2
318(9) 0.01119 301.6 3.3
316(9) 0.01130 301.5 3.3
311(9) 0.01128 301.5 3.4
302(9) 0.01136 301.4 3.5
287(9) 0.01304 301.3 3.5
324(10) 0.01061 301.3 3.6
310(10) 0.01077 301.2 3.7
291(9) 0.01152 301.1 3.8
295(9) 0.01220 301.1 3.9
326(9) 0.01142 301.0 4.1
300(9) 0.01175 300.9 4.2
304(10) 0.01088 300.9 4.3
292(9) 0.01185 300.8 4.4
313(9) 0.01140 300.7 4.5
291(9) 0.01276 300.7 4.6
295(9) 0.01167 300.6 4.7
312(10) 0.01033 300.5 4.7
309(9) 0.01129 300.5 4.7
286(9) 0.01245 300.4 4.7
310(9) 0.01205 300.3 4.7
323(10) 0.01034 300.3 4.6
306(10) 0.01059 300.2 4.5
327(10) 0.01028 300.1 4.4
311(9) 0.01197 300.1 4.3
307(9) 0.01223 300.0 4.1
317(10) 0.01084 299.9 4.0
312(10) 0.01043 299.9 3.9
323(10) 0.01073 299.8 3.7
295(9) 0.01227 299.7 3.6
315(9) 0.01192 299.7 3.5
301(9) 0.01118 299.6 3.4
307(10) 0.01012 299.5 3.3
274(9) 0.01306 299.5 3.2
302(9) 0.01235 299.4 3.1
299(9) 0.01250 299.3 3.1
303(9) 0.01185 299.3 3.0
296(9) 0.01112 299.2 2.9
284(9) 0.01255 299.1 2.9
304(9) 0.01213 299.1 2.8
284(9) 0.01303 299.0 2.8
294(9) 0.01136 298.9 2.8
287(9) 0.01154 298.9 2.7
322(10) 0.01052 298.8 2.7
314(9) 0.01193 298.7 2.7
312(9) 0.01151 298.7 2.6
298(9) 0.01151 298.6 2.6
278(9) 0.01170 298.5 2.6
292(9) 0.01160 298.5 2.6
311(9) 0.01201 298.4 2.6
311(9) 0.01181 298.3 2.6
295(9) 0.01190 298.3 2.5
279(9) 0.01267 298.2 2.5
324(10) 0.01075 298.1 2.5
318(9) 0.01167 298.1 2.5
312(9) 0.01132 298.0 2.5
318(10) 0.01059 297.9 2.5
290(9) 0.01196 297.9 2.5
268(9) 0.01294 297.8 2.5
284(9) 0.01310 297.7 2.5
297(9) 0.01155 297.7 2.5
282(9) 0.01214 297.6 2.5
279(9) 0.01273 297.5 2.5
293(9) 0.01229 297.5 2.5
282(9) 0.01323 297.4 2.5
300(9) 0.01155 297.3 2.5
302(9) 0.01140 297.3 2.5
289(9) 0.01242 297.2 2.5
299(9) 0.01224 297.1 2.5
316(9) 0.01172 297.1 2.5
279(9) 0.01270 297.0 2.5
321(10) 0.01009 296.9 2.5
280(9) 0.01281 296.9 2.5
295(9) 0.01264 296.8 2.5
319(9) 0.01163 296.7 2.5
310(9) 0.01131 296.7 2.5
291(9) 0.01111 296.6 2.5
299(9) 0.01126 296.5 2.5
296(9) 0.01253 296.5 2.5
303(9) 0.01232 296.4 2.5
276(9) 0.01220 296.3 2.5
319(10) 0.00991 296.3 2.5
301(9) 0.01170 296.2 2.5
303(9) 0.01201 296.1 2.5
311(9) 0.01208 296.1 2.5
307(9) 0.01145 296.0 2.6
289(10) 0.01106 295.9 2.6
295(9) 0.01177 295.9 2.6
291(9) 0.01285 295.8 2.6
303(9) 0.01192 295.7 2.6
312(9) 0.01113 295.7 2.6
300(10) 0.01099 295.6 2.6
302(9) 0.01133 295.5 2.6
297(9) 0.01267 295.5 2.6
305(9) 0.01182 295.4 2.6
296(9) 0.01190 295.3 2.7
296(9) 0.01137 295.3 2.7
293(9) 0.01176 295.2 2.7
298(9) 0.01252 295.1 2.7
321(10) 0.01097 295.1 2.7
297(9) 0.01177 295.0 2.7
293(9) 0.01138 294.9 2.7
284(9) 0.01180 294.9 2.8
277(9) 0.01319 294.8 2.8
316(9) 0.01156 294.7 2.8
297(9) 0.01174 294.7 2.8
283(9) 0.01225 294.6 2.8
297(9) 0.01204 294.5 2.8
280(9) 0.01312 294.5 2.9
289(9) 0.01217 294.4 2.9
320(10) 0.01046 294.3 2.9
287(9) 0.01204 294.3 2.9
301(9) 0.01180 294.2 2.9
277(9) 0.01339 294.1 3.0
312(10) 0.01078 294.1 3.0
279(9) 0.01195 294.0 3.0
286(9) 0.01232 293.9 3.0
296(9) 0.01188 293.9 3.1
312(9) 0.01194 294.0 3.1
320(10) 0.01075 294.0 3.1
329(10) 0.00981 294.0 3.1
286(9) 0.01222 294.1 3.2
282(9) 0.01305 294.1 3.2
301(9) 0.01212 294.1 3.2
287(9) 0.01136 294.1 3.2
301(10) 0.01040 294.2 3.3
292(9) 0.01205 294.2 3.3
315(9) 0.01167 294.2 3.3
306(9) 0.01203 294.3 3.4
289(9) 0.01216 294.3 3.4
297(10) 0.01065 294.3 3.5
316(10) 0.01065 294.3 3.5
276(9) 0.01336 294.4 3.5
298(9) 0.01233 294.4 3.6
315(9) 0.01114 294.4 3.6
317(10) 0.01038 294.5 3.7
309(9) 0.01158 294.5 3.7
305(9) 0.01202 294.5 3.8
288(9) 0.01261 294.6 3.8
295(9) 0.01212 294.6 3.9
305(10) 0.01068 294.6 4.0
280(9) 0.01245 294.6 4.0
295(9) 0.01271 294.7 4.1
320(9) 0.01110 294.7 4.2
285(9) 0.01235 294.7 4.2
289(9) 0.01157 294.8 4.3
292(9) 0.01180 294.8 4.4
305(9) 0.01212 294.8 4.5
305(9) 0.01191 294.9 4.5
297(9) 0.01165 294.9 4.6
271(9) 0.01322 294.9 4.7
299(9) 0.01169 294.9 4.8
299(9) 0.01248 295.0 4.9
309(9) 0.01129 295.0 4.9
294(9) 0.01138 295.0 5.0
318(10) 0.01065 295.1 5.1
323(10) 0.01098 295.1 5.2
310(9) 0.01201 295.1 5.2
290(9) 0.01207 295.2 5.3
283(9) 0.01222 295.2 5.3
302(9) 0.01170 295.2 5.3
326(10) 0.01105 295.2 5.4
288(9) 0.01259 295.3 5.4
308(9) 0.01159 295.3 5.4
304(10) 0.01105 295.3 5.4
300(9) 0.01128 295.4 5.4
273(9) 0.01337 295.4 5.4
280(9) 0.01322 295.4 5.5
281(9) 0.01236 295.4 5.5
280(9) 0.01218 295.5 5.5
310(10) 0.01083 295.5 5.5
314(9) 0.01126 295.5 5.5
304(9) 0.01220 295.6 5.5
322(10) 0.01076 295.6 5.5
342(10) 0.00938 295.6 5.5
302(9) 0.01150 295.7 5.6
299(9) 0.01234 295.7 5.6
320(9) 0.01153 295.7 5.6
310(9) 0.01122 295.7 5.7
303(10) 0.01028 295.8 5.7
301(9) 0.01156 295.8 5.7
291(9) 0.01292 295.8 5.8
286(9) 0.01292 295.9 5.8
319(10) 0.01101 295.9 5.9
304(10) 0.01034 295.9 6.0
268(9) 0.01245 296.0 6.0
288(9) 0.01277 296.0 6.1
290(9) 0.01252 296.0 6.2
293(9) 0.01143 296.0 6.2
300(10) 0.01055 296.1 6.3
305(9) 0.01147 296.1 6.4
325(9) 0.01153 296.1 6.5
298(9) 0.01206 296.2 6.6
278(9) 0.01268 296.2 6.7
307(10) 0.01086 296.2 6.8
301(9) 0.01200 296.2 6.9
303(9) 0.01235 296.3 7.0
317(10) 0.01106 296.3 7.1
318(10) 0.01081 296.3 7.2
325(10) 0.01050 296.4 7.3
311(10) 0.01098 296.4 7.4
295(9) 0.01257 296.4 7.5
305(9) 0.01185 296.5 7.7
309(10) 0.01104 296.5 7.8
312(10) 0.01039 296.5 7.9
308(9) 0.01141 296.5 8.1
282(9) 0.01314 296.6 8.2
294(9) 0.01196 296.6 8.4
291(9) 0.01191 296.6 8.6
309(9) 0.01113 296.7 8.7
303(9) 0.01185 296.7 8.9
292(9) 0.01269 296.7 9.1
295(9) 0.01142 296.8 9.3
315(10) 0.01068 296.8 9.5
310(9) 0.01142 296.8 9.7
332(10) 0.01090 296.8 9.9
305(9) 0.01226 296.9 10.1
314(10) 0.01084 296.9 10.3
300(9) 0.01125 296.9 10.6
312(9) 0.01147 297.0 10.8
317(9) 0.01166 297.0 11.1
307(9) 0.01226 297.0 11.3
298(9) 0.01213 297.0 11.6
313(10) 0.01050 297.1 11.9
309(9) 0.01147 297.1 12.2
318(9) 0.01126 297.1 12.5
316(9) 0.01181 297.2 12.9
312(10) 0.01097 297.2 13.2
305(10) 0.01083 297.2 13.6
320(10) 0.01061 297.3 13.9
308(9) 0.01214 297.3 14.3
317(9) 0.01167 297.3 14.7
301(9) 0.01139 297.3 15.2
312(10) 0.01036 297.4 15.6
317(10) 0.01101 297.4 16.1
307(9) 0.01212 297.4 16.6
311(9) 0.01179 297.5 17.1
337(10) 0.01017 297.5 17.7
308(10) 0.01087 297.5 18.3
315(10) 0.01050 297.6 18.9
301(9) 0.01236 297.6 19.5
307(9) 0.01193 297.6 20.2
330(10) 0.01048 297.6 20.9
324(10) 0.01032 297.7 21.7
325(10) 0.01062 297.7 22.5
284(9) 0.01327 297.7 23.4
305(9) 0.01170 297.8 24.3
336(10) 0.01040 297.8 25.3
320(10) 0.01068 297.8 26.3
324(10) 0.01082 297.8 27.4
333(9) 0.01118 297.9 28.6
300(9) 0.01200 297.9 29.8
324(10) 0.01052 297.9 31.2
340(10) 0.01006 298.0 32.6
319(10) 0.01074 298.0 34.2
341(10) 0.01094 298.0 35.9
352(10) 0.01002 298.1 37.7
331(10) 0.01044 298.1 39.7
313(10) 0.01078 298.1 41.8
327(10) 0.01088 298.1 44.2
332(9) 0.01117 298.2 46.7
359(10) 0.00984 298.2 49.5
382(11) 0.00890 298.2 52.7
346(10) 0.00963 298.3 56.1
338(10) 0.01064 298.3 60.0
392(10) 0.00948 298.3 64.4
372(10) 0.00938 298.4 69.4
401(11) 0.00817 298.4 75.1
361(10) 0.00950 298.4 81.7
386(10) 0.00949 298.4 89.2
406(10) 0.00916 298.5 98.0
413(11) 0.00835 298.5 108.3
446(12) 0.00742 298.5 120.2
438(11) 0.00782 298.6 134.1
434(11) 0.00844 298.6 150.1
475(11) 0.00774 298.6 168.5
488(12) 0.00687 298.6 189.6
497(12) 0.00649 298.7 213.4
538(12) 0.00642 298.7 239.8
612(13) 0.00600 298.7 268.4
626(13) 0.00596 298.8 298.8
646(14) 0.00530 298.8 329.4
671(14) 0.00486 298.8 358.5
706(14) 0.00498 298.9 383.8
684(14) 0.00544 298.9 402.7
683(14) 0.00544 298.9 413.9
687(14) 0.00502 298.9 416.8
683(14) 0.00479 299.0 412.2
701(14) 0.00504 299.0 401.7
704(14) 0.00532 299.0 387.2
686(14) 0.00541 299.1 370.0
694(14) 0.00493 299.1 351.4
613(13) 0.00554 299.1 332.2
636(14) 0.00540 299.2 313.1
636(13) 0.00578 299.2 295.0
607(13) 0.00594 299.2 278.3
590(13) 0.00576 299.2 263.8
551(13) 0.00603 299.3 251.6
572(13) 0.00606 299.3 242.2
578(12) 0.00644 299.3 235.5
534(12) 0.00686 299.4 231.5
547(13) 0.00625 299.4 230.0
559(13) 0.00598 299.4 230.7
539(12) 0.00662 299.5 232.9
544(12) 0.00678 299.5 236.2
558(12) 0.00648 299.5 239.7
597(13) 0.00566 299.5 242.5
492(12) 0.00727 299.6 244.1
539(12) 0.00655 299.6 244.0
540(12) 0.00692 299.6 242.4
540(13) 0.00639 299.7 239.5
504(12) 0.00684 299.7 235.9
522(12) 0.00653 299.7 232.2
516(12) 0.00692 299.7 228.5
526(12) 0.00705 299.8 225.0
512(12) 0.00677 299.8 221.3
508(12) 0.00680 299.8 216.8
529(12) 0.00646 299.9 210.9
482(11) 0.00756 299.9 203.1
534(12) 0.00695 299.9 193.3
487(12) 0.00724 300.0 181.6
494(12) 0.00669 300.0 168.7
467(12) 0.00751 300.0 155.2
450(11) 0.00812 300.0 141.8
419(11) 0.00895 300.1 128.9
426(11) 0.00787 300.1 116.8
395(11) 0.00835 300.1 105.8
399(11) 0.00863 300.2 95.8
378(10) 0.00991 300.2 86.9
375(10) 0.00974 300.2 79.0
339(10) 0.01049 300.3 72.0
383(11) 0.00828 300.3 65.9
365(10) 0.00944 300.3 60.5
336(10) 0.01101 300.3 55.7
354(10) 0.01046 300.4 51.6
356(10) 0.00994 300.4 47.9
355(10) 0.00943 300.4 44.7
352(10) 0.00975 300.5 41.8
350(10) 0.01050 300.5 39.3
332(9) 0.01124 300.5 37.0
362(10) 0.00955 300.5 35.0
350(10) 0.00949 300.6 33.2
350(10) 0.01004 300.6 31.5
335(9) 0.01122 300.6 30.0
332(10) 0.01084 300.7 28.6
345(10) 0.01016 300.7 27.3
367(11) 0.00894 300.7 26.2
324(10) 0.01094 300.8 25.1
311(9) 0.01194 300.8 24.1
303(9) 0.01232 300.8 23.2
340(10) 0.01014 300.8 22.3
308(10) 0.01071 300.9 21.5
334(10) 0.01037 300.9 20.8
312(9) 0.01192 300.9 20.1
319(10) 0.01103 301.0 19.4
332(10) 0.01047 301.0 18.8
325(10) 0.01038 301.0 18.3
308(9) 0.01147 301.1 17.7
320(9) 0.01173 301.1 17.2
297(9) 0.01208 301.1 16.8
281(9) 0.01223 301.1 16.3
304(10) 0.01098 301.2 15.9
314(10) 0.01100 301.2 15.5
315(9) 0.01196 301.2 15.2
329(10) 0.00999 301.3 14.8
312(10) 0.01066 301.3 14.5
317(9) 0.01110 301.3 14.2
331(10) 0.01086 301.3 14.0
303(9) 0.01241 301.4 13.7
321(10) 0.01045 301.4 13.5
309(10) 0.01036 301.4 13.3
287(9) 0.01195 301.5 13.1
306(9) 0.01185 301.5 12.9
353(10) 0.01051 301.5 12.7
318(10) 0.01084 301.6 12.6
301(10) 0.01098 301.6 12.4
328(10) 0.01056 301.6 12.3
299(9) 0.01227 301.6 12.2
314(9) 0.01175 301.7 12.2
296(9) 0.01216 301.7 12.1
322(10) 0.01032 301.7 12.1
323(10) 0.01066 301.8 12.1
324(9) 0.01132 301.8 12.1
332(9) 0.01138 301.8 12.1
326(10) 0.01035 301.9 12.2
321(10) 0.00994 301.9 12.3
306(9) 0.01157 301.9 12.4
307(9) 0.01198 301.9 12.6
315(9) 0.01176 302.0 12.8
334(10) 0.01005 302.0 13.1
306(10) 0.01097 302.0 13.4
311(9) 0.01153 302.1 13.8
339(10) 0.01098 302.1 14.3
305(9) 0.01203 302.1 14.9
304(9) 0.01160 302.1 15.6
323(10) 0.01009 302.2 16.5
314(9) 0.01140 302.2 17.7
317(9) 0.01183 302.2 19.1
326(10) 0.01107 302.3 21.1
346(10) 0.00998 302.3 23.5
363(10) 0.00941 302.3 26.7
372(11) 0.00897 302.4 30.8
340(10) 0.01086 302.4 35.9
359(10) 0.01005 302.4 42.2
357(10) 0.00961 302.4 49.8
354(10) 0.00998 302.5 58.8
397(11) 0.00906 302.5 68.9
397(10) 0.00938 302.5 79.8
396(11) 0.00901 302.6 90.5
401(11) 0.00847 302.6 99.8
400(11) 0.00864 302.6 106.0
433(11) 0.00823 302.7 107.7
390(10) 0.00946 302.7 104.4
424(11) 0.00794 302.7 96.9
373(11) 0.00899 302.7 86.9
371(10) 0.00929 302.8 75.9
386(10) 0.00919 302.8 65.1
349(10) 0.01055 302.8 55.2
351(10) 0.00984 302.9 46.5
371(10) 0.00918 302.9 39.2
362(10) 0.00976 302.9 33.1
332(9) 0.01115 302.9 28.2
324(9) 0.01143 303.0 24.3
329(10) 0.01075 303.0 21.3
323(10) 0.01033 303.0 18.9
333(10) 0.01044 303.1 17.0
336(10) 0.01099 303.1 15.5
306(9) 0.01207 303.1 14.3
303(9) 0.01131 303.2 13.3
324(10) 0.01026 303.2 12.5
325(10) 0.01065 303.2 11.8
311(9) 0.01162 303.2 11.2
315(9) 0.01187 303.3 10.7
304(9) 0.01150 303.3 10.2
300(9) 0.01119 303.3 9.8
301(9) 0.01170 303.4 9.5
294(9) 0.01262 303.4 9.2
330(9) 0.01129 303.4 8.9
334(10) 0.01039 303.5 8.6
295(9) 0.01115 303.5 8.4
319(10) 0.01092 303.5 8.2
313(9) 0.01201 303.5 8.0
296(9) 0.01191 303.6 7.8
323(10) 0.01031 303.6 7.6
302(10) 0.01105 303.6 7.5
294(9) 0.01169 303.7 7.4
302(9) 0.01244 303.7 7.2
329(10) 0.01100 303.7 7.1
319(10) 0.01100 303.8 7.0
327(10) 0.01026 303.8 6.9
344(10) 0.00996 303.8 6.9
334(9) 0.01126 303.8 6.8
316(9) 0.01109 303.9 6.7
307(10) 0.01107 303.9 6.6
319(10) 0.01003 303.9 6.6
287(9) 0.01222 304.0 6.5
322(9) 0.01157 304.0 6.5
324(10) 0.01079 304.0 6.4
287(9) 0.01190 304.0 6.4
317(10) 0.01085 304.1 6.3
299(9) 0.01206 304.1 6.3
293(9) 0.01266 304.1 6.3
279(9) 0.01224 304.2 6.3
302(9) 0.01113 304.2 6.2
314(10) 0.01087 304.2 6.2
325(9) 0.01113 304.3 6.2
301(9) 0.01234 304.3 6.2
314(10) 0.01071 304.3 6.2
310(10) 0.01081 304.3 6.2
294(9) 0.01185 304.4 6.2
316(9) 0.01129 304.4 6.1
292(9) 0.01280 304.4 6.1
316(10) 0.01073 304.5 6.1
310(10) 0.01098 304.5 6.1
323(10) 0.01041 304.5 6.2
288(9) 0.01285 304.6 6.2
284(9) 0.01296 304.6 6.2
325(10) 0.01077 304.6 6.2
317(10) 0.01053 304.6 6.2
318(10) 0.01081 304.7 6.2
283(9) 0.01292 304.7 6.2
300(9) 0.01222 304.7 6.3
302(9) 0.01147 304.8 6.3
302(10) 0.01049 304.8 6.3
349(10) 0.00992 304.8 6.3
312(9) 0.01185 304.8 6.4
316(9) 0.01149 304.9 6.4
311(9) 0.01149 304.9 6.4
299(9) 0.01118 304.9 6.5
309(9) 0.01155 305.0 6.5
332(9) 0.01116 305.0 6.6
325(10) 0.01102 305.0 6.6
306(9) 0.01184 305.1 6.6
315(10) 0.01094 305.2 6.7
309(9) 0.01182 305.3 6.7
314(9) 0.01189 305.4 6.8
314(9) 0.01166 305.5 6.9
305(9) 0.01173 305.7 6.9
321(10) 0.01039 305.8 7.0
325(10) 0.01070 305.9 7.1
282(9) 0.01323 306.0 7.1
308(9) 0.01161 306.2 7.2
311(10) 0.01087 306.3 7.3
302(9) 0.01125 306.4 7.4
318(9) 0.01123 306.5 7.4
326(9) 0.01144 306.7 7.5
328(10) 0.01098 306.8 7.6
322(10) 0.01055 306.9 7.7
327(10) 0.01035 307.0 7.8
297(9) 0.01208 307.2 7.9
299(9) 0.01242 307.3 8.0
325(10) 0.01071 307.4 8.1
307(9) 0.01129 307.5 8.2
304(9) 0.01144 307.7 8.3
314(9) 0.01125 307.8 8.5
333(9) 0.01133 307.9 8.6
312(10) 0.01090 308.0 8.7
322(10) 0.01046 308.2 8.8
320(10) 0.01071 308.3 9.0
316(9) 0.01144 308.4 9.1
331(9) 0.01114 308.5 9.2
314(9) 0.01116 308.7 9.4
331(10) 0.01003 308.8 9.5
305(9) 0.01161 308.9 9.7
340(10) 0.01082 309.0 9.8
318(9) 0.01162 309.2 10.0
303(9) 0.01145 309.3 10.2
317(10) 0.01034 309.4 10.3
315(10) 0.01073 309.5 10.5
314(9) 0.01165 309.7 10.7
311(9) 0.01198 309.8 10.8
303(9) 0.01150 309.9 11.0
301(9) 0.01127 310.0 11.2
331(10) 0.01055 310.2 11.3
333(9) 0.01115 310.3 11.5
324(9) 0.01145 310.4 11.7
323(10) 0.01083 310.5 11.9
305(10) 0.01064 310.7 12.0
333(10) 0.00998 310.8 12.2
307(9) 0.01222 310.9 12.4
325(9) 0.01133 311.0 12.5
323(10) 0.01072 311.2 12.7
309(10) 0.01077 311.3 12.9
317(10) 0.01099 311.4 13.1
315(9) 0.01169 311.6 13.2
331(9) 0.01127 311.7 13.4
322(10) 0.01063 311.8 13.6
331(10) 0.00990 311.9 13.8
316(10) 0.01077 312.1 14.0
302(9) 0.01235 312.2 14.2
340(10) 0.01059 312.3 14.4
342(10) 0.00983 312.4 14.6
329(10) 0.01020 312.6 14.8
322(10) 0.01067 312.7 15.1
318(9) 0.01160 312.8 15.3
317(9) 0.01117 312.9 15.6
323(10) 0.01077 313.1 15.9
326(10) 0.01055 313.2 16.2
320(9) 0.01109 313.3 16.5
325(9) 0.01142 313.4 16.9
329(10) 0.01094 313.6 17.3
301(9) 0.01142 313.7 17.7
319(10) 0.01072 313.8 18.1
349(10) 0.01043 313.9 18.5
320(9) 0.01156 314.1 19.0
339(10) 0.01010 314.2 19.6
350(10) 0.00971 314.3 20.1
342(10) 0.01035 314.4 20.7
342(10) 0.01074 314.6 21.4
348(10) 0.01059 314.7 22.1
345(10) 0.01007 314.8 22.8
340(10) 0.00953 314.9 23.6
328(10) 0.01055 315.1 24.4
343(10) 0.01057 315.2 25.3
353(10) 0.01056 315.3 26.3
338(10) 0.01049 315.4 27.3
325(10) 0.00997 315.6 28.4
330(10) 0.01059 315.7 29.5
333(10) 0.01097 315.8 30.7
336(10) 0.01107 315.9 32.0
356(10) 0.00965 316.1 33.4
342(10) 0.00975 316.2 34.8
383(11) 0.00900 316.3 36.4
386(10) 0.00960 316.4 38.1
367(10) 0.01020 316.6 40.0
349(10) 0.00990 316.7 42.2
350(10) 0.00925 316.8 44.8
370(10) 0.00914 316.9 48.0
376(10) 0.00979 317.1 52.3
407(11) 0.00898 317.2 58.4
390(11) 0.00893 317.3 67.5
428(12) 0.00741 317.4 81.4
436(11) 0.00783 317.6 102.2
461(11) 0.00806 317.7 132.0
494(12) 0.00745 317.8 172.3
502(12) 0.00700 317.9 223.5
546(13) 0.00588 318.1 282.9
627(13) 0.00550 318.2 344.9
736(14) 0.00505 318.3 399.1
783(15) 0.00467 318.4 432.4
798(15) 0.00446 318.6 433.9
807(15) 0.00419 318.7 403.6
710(14) 0.00499 318.8 352.0
677(14) 0.00545 318.9 292.7
550(12) 0.00655 319.1 235.8
535(12) 0.00641 319.2 187.1
526(12) 0.00644 319.3 149.2
496(12) 0.00696 319.4 122.0
472(11) 0.00785 319.6 103.9
457(11) 0.00762 319.7 92.9
467(12) 0.00720 319.8 86.7
464(12) 0.00737 319.9 83.7
439(11) 0.00815 320.1 82.6
431(11) 0.00865 320.2 82.7
413(11) 0.00855 320.3 83.4
437(11) 0.00776 320.4 84.6
437(11) 0.00779 320.6 86.1
429(11) 0.00805 320.7 87.7
433(11) 0.00855 320.8 89.3
429(11) 0.00788 320.9 90.9
435(11) 0.00757 321.1 92.5
400(11) 0.00868 321.2 93.8
430(11) 0.00836 321.3 95.0
424(11) 0.00886 321.4 96.0
420(11) 0.00842 321.6 96.7
440(11) 0.00764 321.7 97.2
448(11) 0.00772 321.8 97.4
409(11) 0.00883 321.9 97.4
389(10) 0.00952 322.1 97.2
379(10) 0.00912 322.2 96.8
392(11) 0.00853 322.3 96.3
406(11) 0.00841 322.4 95.5
410(11) 0.00900 322.6 94.7
384(10) 0.00969 322.7 93.6
442(11) 0.00772 322.8 92.4
418(11) 0.00776 322.9 91.1
390(11) 0.00899 323.1 89.6
379(10) 0.00961 323.2 87.9
407(11) 0.00895 323.3 86.1
406(11) 0.00831 323.4 84.1
413(11) 0.00783 323.6 82.0
391(11) 0.00873 323.7 79.8
387(10) 0.00964 323.8 77.5
384(10) 0.00931 323.9 75.3
376(10) 0.00937 324.1 73.1
398(11) 0.00820 324.2 70.9
375(10) 0.00924 324.3 68.8
373(10) 0.00992 324.4 66.8
365(10) 0.00985 324.6 64.8
376(11) 0.00903 324.7 63.0
370(11) 0.00891 324.8 61.1
345(10) 0.01006 324.9 59.3
372(10) 0.01001 325.1 57.5
363(10) 0.00992 325.2 55.6
370(10) 0.00926 325.3 53.8
375(11) 0.00889 325.5 52.0
351(10) 0.00980 325.6 50.2
350(10) 0.01069 325.7 48.5
356(10) 0.00982 325.8 46.8
355(10) 0.00962 326.0 45.2
359(10) 0.00943 326.1 43.7
343(10) 0.01039 326.2 42.2
347(10) 0.01063 326.3 40.9
345(10) 0.00997 326.5 39.6
343(10) 0.00975 326.6 38.4
327(10) 0.01098 326.7 37.3
352(10) 0.01001 326.8 36.3
380(10) 0.00976 327.0 35.4
335(10) 0.01038 327.1 34.5
323(10) 0.01071 327.2 33.8
352(10) 0.00966 327.3 33.1
367(10) 0.00989 327.5 32.5
329(9) 0.01133 327.6 32.0
313(10) 0.01087 327.7 31.5
334(10) 0.01016 327.8 31.1
354(10) 0.00980 328.0 30.8
332(10) 0.01104 328.1 30.4
345(10) 0.01071 328.2 30.1
337(10) 0.01037 328.3 29.8
346(11) 0.00897 328.2 29.6
320(10) 0.01100 328.1 29.3
319(9) 0.01157 328.1 29.1
334(9) 0.01110 328.0 28.9
331(10) 0.01084 327.9 28.8
360(11) 0.00869 327.8 28.7
338(10) 0.01049 327.7 28.6
356(10) 0.01033 327.7 28.6
384(10) 0.00950 327.6 28.7
343(10) 0.01016 327.5 28.8
337(10) 0.00947 327.4 28.9
345(10) 0.00979 327.3 29.2
336(10) 0.01099 327.3 29.4
331(9) 0.01132 327.2 29.7
343(10) 0.01014 327.1 30.1
364(11) 0.00898 327.0 30.5
333(10) 0.01069 327.0 31.0
347(10) 0.01064 326.9 31.6
324(9) 0.01126 326.8 32.2
327(10) 0.01072 326.7 32.8
343(10) 0.00986 326.6 33.6
332(10) 0.01038 326.6 34.4
335(9) 0.01112 326.5 35.2
352(10) 0.00992 326.4 36.2
370(11) 0.00904 326.3 37.3
346(10) 0.00979 326.2 38.5
353(10) 0.00989 326.2 39.7
354(10) 0.01044 326.1 41.1
365(10) 0.00996 326.0 42.7
362(10) 0.00973 325.9 44.4
360(10) 0.00966 325.9 46.2
365(10) 0.00974 325.8 48.3
338(10) 0.01092 325.7 50.5
370(10) 0.00918 325.6 53.0
365(10) 0.00957 325.5 55.6
391(11) 0.00833 325.5 58.6
391(11) 0.00892 325.4 61.8
355(10) 0.01053 325.3 65.3
385(11) 0.00897 325.2 69.2
366(10) 0.00956 325.1 73.4
408(11) 0.00873 325.1 78.0
421(11) 0.00871 325.0 82.9
402(10) 0.00918 324.9 88.2
443(11) 0.00785 324.8 93.8
430(11) 0.00785 324.7 99.7
417(11) 0.00833 324.7 105.9
418(11) 0.00872 324.6 112.1
444(11) 0.00840 324.5 118.4
447(11) 0.00787 324.4 124.5
459(12) 0.00706 324.4 130.2
459(11) 0.00775 324.3 135.3
491(12) 0.00745 324.2 139.5
477(11) 0.00775 324.1 142.6
453(12) 0.00750 324.0 144.5
476(12) 0.00664 324.0 145.1
461(12) 0.00753 323.9 144.6
481(11) 0.00771 323.8 143.0
451(11) 0.00828 323.7 140.6
466(11) 0.00765 323.6 137.7
480(12) 0.00664 323.6 134.4
469(12) 0.00728 323.5 131.0
447(11) 0.00816 323.4 127.7
418(11) 0.00885 323.3 124.8
433(11) 0.00800 323.2 122.2
433(11) 0.00768 323.2 120.2
435(11) 0.00803 323.1 118.8
446(11) 0.00836 323.0 118.0
424(11) 0.00866 322.9 118.1
428(11) 0.00830 322.9 119.0
425(11) 0.00794 322.8 120.9
442(11) 0.00785 322.7 123.7
442(11) 0.00850 322.6 127.7
422(11) 0.00867 322.5 132.9
452(12) 0.00754 322.5 139.3
445(11) 0.00758 322.4 147.0
461(12) 0.00751 322.3 155.9
470(11) 0.00793 322.2 166.0
503(12) 0.00698 322.1 177.0
486(12) 0.00700 322.1 188.5
531(13) 0.00634 322.0 199.8
510(12) 0.00711 321.9 210.0
528(12) 0.00706 321.8 218.4
551(13) 0.00640 321.7 224.7
566(13) 0.00604 321.7 228.7
574(13) 0.00584 321.6 231.3
547(12) 0.00646 321.5 233.3
534(12) 0.00694 321.4 235.5
562(13) 0.00628 321.4 238.7
586(13) 0.00574 321.3 243.3
570(13) 0.00602 321.2 249.5
577(13) 0.00627 321.1 257.3
617(13) 0.00599 321.0 266.4
594(13) 0.00591 321.0 276.6
647(14) 0.00512 320.9 287.4
666(14) 0.00506 320.8 298.5
645(13) 0.00568 320.7 309.5
653(13) 0.00572 320.6 320.4
640(14) 0.00544 320.6 330.9
656(14) 0.00508 320.5 341.1
690(14) 0.00504 320.4 350.8
747(14) 0.00486 320.3 359.9
728(14) 0.00514 320.2 368.1
744(15) 0.00462 320.2 374.9
707(15) 0.00465 320.1 379.7
743(15) 0.00464 320.0 382.2
732(14) 0.00504 319.9 381.9
695(14) 0.00525 319.9 378.6
657(14) 0.00538 319.8 372.3
673(15) 0.00475 319.7 363.0
627(13) 0.00556 319.6 351.2
628(13) 0.00579 319.5 337.2
546(12) 0.00679 319.5 321.7
583(13) 0.00584 319.4 305.1
579(13) 0.00549 319.3 288.0
551(13) 0.00609 319.2 270.8
577(12) 0.00641 319.1 253.9
526(12) 0.00695 319.1 237.5
522(12) 0.00658 319.0 221.7
506(12) 0.00641 318.9 206.8
492(12) 0.00697 318.8 192.8
504(12) 0.00740 318.7 179.8
461(11) 0.00792 318.7 167.6
469(12) 0.00746 318.6 156.4
459(12) 0.00740 318.5 146.1
487(12) 0.00706 318.4 136.6
415(11) 0.00897 318.4 127.9
421(11) 0.00839 318.3 119.9
461(12) 0.00716 318.2 112.6
434(11) 0.00792 318.1 106.0
438(11) 0.00795 318.0 99.9
406(11) 0.00906 318.0 94.4
402(11) 0.00890 317.9 89.4
403(11) 0.00870 317.8 84.8
406(11) 0.00838 317.7 80.6
404(11) 0.00877 317.6 76.8
368(10) 0.01005 317.6 73.3
391(10) 0.00922 317.5 70.0
400(11) 0.00857 317.4 67.0
374(10) 0.00927 317.3 64.1
385(10) 0.00910 317.2 61.4
392(10) 0.00944 317.2 58.9
390(11) 0.00858 317.1 56.5
374(11) 0.00881 317.0 54.3
354(10) 0.01007 316.9 52.1
386(10) 0.00928 316.9 50.1
362(10) 0.01023 316.8 48.3
358(10) 0.00963 316.7 46.5
374(11) 0.00854 316.6 44.9
358(10) 0.00978 316.5 43.4
362(10) 0.01002 316.5 42.0
375(10) 0.01000 316.4 40.7
342(10) 0.01017 316.3 39.5
349(10) 0.00947 316.2 38.4
381(10) 0.00928 316.1 37.4
385(10) 0.00969 316.1 36.4
343(10) 0.01088 316.0 35.6
372(10) 0.00954 315.9 34.8
347(10) 0.00954 315.8 34.0
367(10) 0.00947 315.8 33.3
361(10) 0.01013 315.7 32.6
345(10) 0.01083 315.6 32.0
359(10) 0.00966 315.5 31.4
368(11) 0.00873 315.4 30.9
360(10) 0.00976 315.4 30.4
345(10) 0.01087 315.3 29.9
352(10) 0.01042 315.2 29.4
340(10) 0.01002 315.1 29.0
339(10) 0.00995 315.0 28.5
374(10) 0.00915 315.0 28.1
339(10) 0.01094 314.9 27.7
307(9) 0.01160 314.8 27.3
318(10) 0.01055 314.7 26.8
328(10) 0.01023 314.6 26.4
330(10) 0.01072 314.6 26.0
341(10) 0.01078 314.5 25.6
317(9) 0.01160 314.4 25.2
346(10) 0.01013 314.3 24.7
326(10) 0.01055 314.3 24.3
337(10) 0.01051 314.2 23.9
342(10) 0.01089 314.1 23.5
326(10) 0.01090 314.0 23.0
351(10) 0.00955 313.9 22.6
329(10) 0.01104 313.9 22.2
351(10) 0.01008 313.8 21.8
333(9) 0.01120 313.7 21.4
306(9) 0.01138 313.6 21.0
330(10) 0.01001 313.5 20.6
323(10) 0.01067 313.5 20.3
341(10) 0.01052 313.4 20.0
339(10) 0.01103 313.3 19.6
318(10) 0.01059 313.2 19.3
330(10) 0.01008 313.1 19.1
341(10) 0.01004 313.1 18.8
333(10) 0.01094 313.0 18.6
323(9) 0.01158 312.9 18.4
328(10) 0.01033 312.8 18.2
344(10) 0.00950 312.8 18.1
307(9) 0.01139 312.7 17.9
320(9) 0.01170 312.6 17.9
320(9) 0.01158 312.5 17.8
340(10) 0.01040 312.4 17.8
326(10) 0.01051 312.4 17.8
330(10) 0.01078 312.3 17.8
320(9) 0.01162 312.2 17.9
308(9) 0.01211 312.1 18.1
326(10) 0.01068 312.0 18.2
332(10) 0.00955 312.0 18.4
345(10) 0.00988 311.9 18.6
321(9) 0.01155 311.8 18.9
328(9) 0.01114 311.7 19.1
313(9) 0.01111 311.6 19.4
334(10) 0.00944 311.6 19.6
326(10) 0.01071 311.5 19.8
331(9) 0.01136 311.4 20.0
326(9) 0.01136 311.3 20.1
327(10) 0.01098 311.3 20.2
329(10) 0.00974 311.2 20.2
341(10) 0.00948 311.1 20.1
329(9) 0.01129 311.0 20.1
336(10) 0.01072 310.9 20.0
330(10) 0.01054 310.9 19.9
330(10) 0.00997 310.8 19.9
327(10) 0.01065 310.7 20.0
340(10) 0.01091 310.6 20.0
324(10) 0.01078 310.5 20.2
339(10) 0.00967 310.5 20.4
322(10) 0.01081 310.4 20.7
347(10) 0.01004 310.3 21.1
337(10) 0.01097 310.2 21.6
335(10) 0.01080 310.1 22.2
328(10) 0.01009 310.1 22.9
313(10) 0.01036 310.0 23.7
341(10) 0.01015 309.9 24.5
325(9) 0.01156 309.8 25.5
329(10) 0.01073 309.8 26.6
342(10) 0.00973 309.7 27.8
350(10) 0.00958 309.6 29.2
352(10) 0.01022 309.5 30.6
355(10) 0.01044 309.4 32.0
336(10) 0.01023 309.4 33.6
317(10) 0.01072 309.3 35.2
348(10) 0.00949 309.2 36.7
353(10) 0.01015 309.1 38.2
353(10) 0.01043 309.0 39.6
324(10) 0.01055 309.0 40.9
336(10) 0.00982 308.9 41.9
353(10) 0.00969 308.8 42.6
379(10) 0.00953 308.7 43.0
344(10) 0.01089 308.6 43.0
363(10) 0.00956 308.6 42.7
353(10) 0.00918 308.5 42.0
332(10) 0.01049 308.4 41.0
324(9) 0.01148 308.3 39.8
342(10) 0.01076 308.3 38.4
366(10) 0.00987 308.2 36.8
345(10) 0.00950 308.1 35.2
348(10) 0.00986 308.0 33.5
329(9) 0.01125 307.9 31.9
318(9) 0.01185 307.9 30.3
351(10) 0.00970 307.8 28.8
307(10) 0.01034 307.7 27.4
313(10) 0.01093 307.6 26.1
314(9) 0.01192 307.5 24.9
348(10) 0.01048 307.5 23.8
326(10) 0.01080 307.4 22.8
337(10) 0.00949 307.3 22.0
319(10) 0.01091 307.2 21.2
307(9) 0.01223 307.1 20.5
332(10) 0.01101 307.1 19.9
338(10) 0.01016 307.0 19.4
300(9) 0.01119 306.9 19.0
322(10) 0.01037 306.8 18.6
336(10) 0.01095 306.8 18.4
317(9) 0.01147 306.7 18.2
328(10) 0.01049 306.6 18.1
331(10) 0.01005 306.5 18.0
336(10) 0.01010 306.4 18.1
338(10) 0.01084 306.4 18.1
326(10) 0.01087 306.3 18.2
313(10) 0.01107 306.2 18.4
308(9) 0.01144 306.1 18.5
326(10) 0.01067 306.0 18.7
334(9) 0.01119 306.0 18.9
327(9) 0.01110 305.9 19.1
331(10) 0.01047 305.8 19.2
326(10) 0.01032 305.7 19.2
320(10) 0.01069 305.6 19.2
310(9) 0.01214 305.6 19.2
318(10) 0.01101 305.5 19.0
319(10) 0.01040 305.4 18.8
303(9) 0.01132 305.3 18.5
344(10) 0.01043 305.3 18.1
325(9) 0.01149 305.2 17.6
317(10) 0.01041 305.1 17.1
322(10) 0.01050 305.0 16.6
333(10) 0.01061 304.9 16.0
339(10) 0.01069 304.9 15.4
343(10) 0.01079 304.8 14.9
316(10) 0.01093 304.7 14.3
313(10) 0.01021 304.6 13.8
324(10) 0.01068 304.5 13.3
335(10) 0.01088 304.5 12.8
322(9) 0.01154 304.4 12.4
291(9) 0.01227 304.3 12.0
306(10) 0.01034 304.2 11.6
310(9) 0.01133 304.2 11.3
312(9) 0.01164 304.1 10.9
324(9) 0.01135 304.0 10.7
298(9) 0.01170 303.9 10.4
316(10) 0.00988 303.8 10.2
314(9) 0.01139 303.8 10.0
315(9) 0.01177 303.7 9.8
295(9) 0.01255 303.6 9.6
302(9) 0.01186 303.5 9.5
336(10) 0.00989 303.4 9.4
331(10) 0.01046 303.4 9.3
347(10) 0.01071 303.3 9.3
314(9) 0.01152 303.2 9.3
275(9) 0.01318 303.1 9.3
299(10) 0.01098 303.0 9.3
311(10) 0.01045 303.0 9.4
295(9) 0.01269 302.9 9.5
308(9) 0.01169 302.8 9.6
313(10) 0.01086 302.7 9.7
298(10) 0.01106 302.7 9.9
290(9) 0.01159 302.6 10.1
307(9) 0.01206 302.5 10.3
313(10) 0.01086 302.4 10.5
315(10) 0.01080 302.3 10.8
320(10) 0.01078 302.3 11.1
312(9) 0.01127 302.2 11.4
315(9) 0.01171 302.2 11.7
321(10) 0.01061 302.2 12.0
343(10) 0.00996 302.1 12.3
340(10) 0.01020 302.1 12.5
302(9) 0.01217 302.0 12.7
315(9) 0.01184 302.0 12.8
336(10) 0.01047 302.0 12.9
313(10) 0.01069 301.9 12.8
324(10) 0.01033 301.9 12.7
287(9) 0.01280 301.9 12.5
307(9) 0.01202 301.8 12.2
337(10) 0.01060 301.8 11.9
330(10) 0.01039 301.8 11.5
297(9) 0.01227 301.7 11.1
306(9) 0.01203 301.7 10.7
306(9) 0.01197 301.6 10.3
325(10) 0.01084 301.6 9.9
308(10) 0.01091 301.6 9.5
309(9) 0.01155 301.5 9.2
341(10) 0.01070 301.5 8.8
309(9) 0.01191 301.5 8.5
311(9) 0.01119 301.4 8.2
288(9) 0.01167 301.4 7.9
325(10) 0.01065 301.4 7.7
308(9) 0.01209 301.3 7.4
282(9) 0.01308 301.3 7.2
312(10) 0.01091 301.2 7.0
310(10) 0.01008 301.2 6.9
317(9) 0.01118 301.2 6.7
329(9) 0.01137 301.1 6.6
302(9) 0.01247 301.1 6.4
293(9) 0.01177 301.1 6.3
306(10) 0.01043 301.0 6.2
293(9) 0.01208 301.0 6.1
304(9) 0.01217 301.0 6.0
305(9) 0.01230 300.9 5.9
313(9) 0.01117 300.9 5.8
292(9) 0.01145 300.8 5.8
306(9) 0.01155 300.8 5.7
324(9) 0.01154 300.8 5.7
326(10) 0.01105 300.7 5.6
302(9) 0.01141 300.7 5.6
306(10) 0.01069 300.7 5.5
311(10) 0.01081 300.6 5.5
302(9) 0.01215 300.6 5.5
305(9) 0.01216 300.6 5.4
315(10) 0.01106 300.5 5.4
332(10) 0.01001 300.5 5.4
320(10) 0.01097 300.4 5.4
303(9) 0.01234 300.4 5.4
300(9) 0.01163 300.4 5.3
312(10) 0.01087 300.3 5.3
300(9) 0.01167 300.3 5.3
322(10) 0.01086 300.3 5.3
289(9) 0.01279 300.2 5.3
287(9) 0.01249 300.2 5.3
302(9) 0.01158 300.2 5.3
291(9) 0.01183 300.1 5.3
320(10) 0.01105 300.1 5.3
331(10) 0.01106 300.0 5.3
320(10) 0.01085 300.0 5.3
308(10) 0.01043 300.0 5.4
284(9) 0.01241 299.9 5.4
288(9) 0.01275 299.9 5.4
302(9) 0.01212 299.9 5.4
302(9) 0.01128 299.8 5.4
297(9) 0.01124 299.8 5.4
316(10) 0.01037 299.8 5.5
293(9) 0.01255 299.7 5.5
306(9) 0.01206 299.7 5.5
304(9) 0.01156 299.6 5.5
318(10) 0.01041 299.6 5.6
305(9) 0.01120 299.6 5.6
301(9) 0.01204 299.5 5.6
300(9) 0.01245 299.5 5.7
311(10) 0.01096 299.5 5.7
300(10) 0.01065 299.4 5.8
329(10) 0.01042 299.4 5.8
311(9) 0.01197 299.4 5.8
304(9) 0.01219 299.3 5.9
318(10) 0.01077 299.3 5.9
295(9) 0.01167 299.3 6.0
324(10) 0.01041 299.2 6.1
328(9) 0.01131 299.2 6.1
303(9) 0.01223 299.1 6.2
328(10) 0.01063 299.1 6.2
304(10) 0.01086 299.1 6.3
315(9) 0.01130 299.0 6.4
326(9) 0.01135 299.0 6.5
314(9) 0.01172 299.0 6.5
322(10) 0.01062 298.9 6.6
320(10) 0.01065 298.9 6.7
309(10) 0.01104 298.9 6.8
299(9) 0.01248 298.8 6.9
312(9) 0.01143 298.8 7.0
321(10) 0.01073 298.7 7.1
311(10) 0.01080 298.7 7.2
319(9) 0.01109 298.7 7.3
308(9) 0.01212 298.6 7.4
299(9) 0.01187 298.6 7.5
307(9) 0.01131 298.6 7.7
318(10) 0.01087 298.5 7.8
306(9) 0.01175 298.5 7.9
309(9) 0.01212 298.5 8.1
302(9) 0.01159 298.4 8.2
303(9) 0.01132 298.4 8.4
321(10) 0.01098 298.3 8.6
334(10) 0.01063 298.3 8.7
318(9) 0.01171 298.3 8.9
331(10) 0.01050 298.2 9.1
323(10) 0.01036 298.2 9.3
289(9) 0.01249 298.2 9.5
319(9) 0.01146 298.1 9.8
306(9) 0.01214 298.1 10.0
288(9) 0.01199 298.1 10.3
308(10) 0.01081 298.0 10.5
308(9) 0.01145 298.0 10.8
311(9) 0.01179 297.9 11.1
310(9) 0.01189 297.9 11.4
320(9) 0.01116 297.9 11.8
308(10) 0.01069 297.8 12.1
309(9) 0.01150 297.8 12.5
326(9) 0.01136 297.8 12.9
314(9) 0.01174 297.7 13.3
300(9) 0.01152 297.7 13.8
317(10) 0.01040 297.7 14.2
323(10) 0.01077 297.6 14.7
344(10) 0.01069 297.6 15.3
326(9) 0.01132 297.5 15.9
312(9) 0.01114 297.5 16.5
330(10) 0.01016 297.5 17.1
369(10) 0.00912 297.4 17.8
313(9) 0.01197 297.4 18.6
337(10) 0.01090 297.4 19.4
321(10) 0.01055 297.3 20.2
330(10) 0.01016 297.3 21.1
316(9) 0.01159 297.3 22.1
322(9) 0.01146 297.2 23.2
315(9) 0.01155 297.2 24.3
346(10) 0.00967 297.1 25.5
354(10) 0.00940 297.1 26.8
354(10) 0.01001 297.1 28.2
325(9) 0.01154 297.0 29.8
344(10) 0.01033 297.0 31.4
331(10) 0.01034 297.0 33.1
328(10) 0.01040 296.9 35.0
335(10) 0.01090 296.9 37.0
354(10) 0.01059 296.9 39.2
351(10) 0.01029 296.8 41.5
336(10) 0.01041 296.8 43.9
338(10) 0.00983 296.7 46.5
360(10) 0.00947 296.7 49.2
356(10) 0.01044 296.7 52.0
345(10) 0.01034 296.6 54.9
354(10) 0.00964 296.6 57.9
381(11) 0.00891 296.6 61.0
377(10) 0.00920 296.5 64.0
347(10) 0.01069 296.5 67.0
394(11) 0.00877 296.5 69.7
390(11) 0.00897 296.4 72.2
368(10) 0.00934 296.4 74.3
386(10) 0.00911 296.3 75.8
364(10) 0.01009 296.3 76.6
396(11) 0.00870 296.3 76.7
389(11) 0.00848 296.2 76.1
369(10) 0.00947 296.2 74.8
389(10) 0.00936 296.2 72.8
384(10) 0.00974 296.1 70.3
351(10) 0.00973 296.1 67.5
362(10) 0.00930 296.1 64.4
381(10) 0.00912 296.0 61.2
365(10) 0.01002 296.0 58.0
351(10) 0.01051 295.9 54.9
358(10) 0.00992 295.9 51.9
349(10) 0.00936 295.9 49.1
363(10) 0.00942 295.8 46.4
342(10) 0.01090 295.8 44.0
321(9) 0.01158 295.8 41.8
343(10) 0.00971 295.7 39.8
370(11) 0.00826 295.7 38.0
340(10) 0.01046 295.7 36.3
346(10) 0.01060 295.6 34.9
339(10) 0.01095 295.6 33.6
340(10) 0.01023 295.5 32.5
319(10) 0.01074 295.5 31.5
317(9) 0.01126 295.5 30.7
325(9) 0.01131 295.4 30.0
303(9) 0.01217 295.4 29.4
348(10) 0.00966 295.4 28.9
326(10) 0.01032 295.3 28.5
355(10) 0.00982 295.3 28.2
330(9) 0.01123 295.3 28.0
329(10) 0.01103 295.2 27.9
328(10) 0.01060 295.2 27.8
311(9) 0.01115 295.1 27.9
324(10) 0.01104 295.1 28.0
321(9) 0.01151 295.1 28.2
323(9) 0.01124 295.0 28.5
331(10) 0.01020 295.0 28.9
316(10) 0.01081 295.0 29.4
331(10) 0.01082 294.9 30.0
359(10) 0.01043 294.9 30.8
339(10) 0.01066 294.9 31.7
335(10) 0.01011 294.8 32.8
344(10) 0.00985 294.8 34.0
331(10) 0.01084 294.7 35.6
366(10) 0.01014 294.7 37.4
354(10) 0.00983 294.7 39.4
352(10) 0.00957 294.6 41.8
335(10) 0.01059 294.6 44.6
362(10) 0.00973 294.6 47.6
368(10) 0.01014 294.5 50.9
369(10) 0.00936 294.5 54.3
392(11) 0.00863 294.5 57.8
381(11) 0.00899 294.4 61.0
383(10) 0.00922 294.4 63.8
398(10) 0.00923 294.3 65.6
361(10) 0.00920 294.3 66.4
363(10) 0.00908 294.3 65.9
374(10) 0.00935 294.2 64.4
363(10) 0.01031 294.2 62.1
358(10) 0.01006 294.2 59.3
331(10) 0.01041 294.1 56.4
369(11) 0.00875 294.1 53.6
357(10) 0.00984 294.1 51.0
357(10) 0.01017 294.0 48.6
346(10) 0.01078 294.0 46.5
338(10) 0.01029 293.9 44.8
324(10) 0.01016 293.9 43.3
367(10) 0.00917 293.9 42.1
350(10) 0.01071 293.8 41.2
361(10) 0.01012 293.8 40.5
336(10) 0.01046 293.8 40.0
355(11) 0.00885 293.7 39.7
348(10) 0.00989 293.7 39.5
356(10) 0.01044 293.7 39.4
343(10) 0.01081 293.6 39.5
353(10) 0.01016 293.6 39.7
387(11) 0.00836 293.6 39.9
356(10) 0.00994 293.5 40.3
328(9) 0.01137 293.5 40.8
322(10) 0.01106 293.4 41.3
359(10) 0.00940 293.4 42.0
347(10) 0.00961 293.4 42.7
313(9) 0.01141 293.3 43.5
344(10) 0.01079 293.3 44.4
339(10) 0.01065 293.3 45.4
338(10) 0.01051 293.2 46.3
341(10) 0.01015 293.2 47.3
369(10) 0.00976 293.2 48.2
357(10) 0.01035 293.1 49.1
359(10) 0.00987 293.1 49.7
366(10) 0.00936 293.0 50.2
352(10) 0.00983 293.0 50.4
369(10) 0.00942 293.0 50.4
358(10) 0.01038 292.9 50.1
355(10) 0.01007 292.9 49.5
337(10) 0.01025 292.9 48.7
381(11) 0.00869 292.8 47.8
363(10) 0.00974 292.8 46.7
345(10) 0.01074 292.8 45.6
370(10) 0.00935 292.7 44.5
349(10) 0.00993 292.7 43.3
351(10) 0.01010 292.6 42.2
325(9) 0.01134 292.6 41.0
343(10) 0.01080 292.6 39.9
347(10) 0.00961 292.5 38.8
332(10) 0.00965 292.5 37.8
339(10) 0.01001 292.5 36.8
339(10) 0.01055 292.4 35.8
315(9) 0.01176 292.4 34.9
306(9) 0.01143 292.4 34.0
337(10) 0.00960 292.3 33.2
353(10) 0.00968 292.3 32.4
354(10) 0.01040 292.2 31.6
329(9) 0.01147 292.2 30.9
329(10) 0.01077 292.2 30.3
339(10) 0.01001 292.1 29.7
319(9) 0.01109 292.1 29.1
336(10) 0.01081 292.1 28.6
327(9) 0.01153 292.0 28.2
324(10) 0.01059 292.0 27.8
327(10) 0.01011 292.0 27.4
317(10) 0.01103 291.9 27.1
331(9) 0.01112 291.9 26.8
345(10) 0.01052 291.8 26.6
340(10) 0.01007 291.8 26.4
323(10) 0.01014 291.8 26.3
305(9) 0.01115 291.7 26.2
324(9) 0.01147 291.7 26.1
310(9) 0.01170 291.7 26.1
314(9) 0.01120 291.6 26.1
325(10) 0.01040 291.6 26.1
328(10) 0.01078 291.6 26.1
359(10) 0.01032 291.5 26.2
342(10) 0.01047 291.5 26.2
334(10) 0.01049 291.4 26.2
331(10) 0.01017 291.4 26.3
318(10) 0.01089 291.4 26.3
310(9) 0.01197 291.3 26.3
315(9) 0.01141 291.3 26.3
293(9) 0.01163 291.3 26.3
324(10) 0.01012 291.2 26.2
327(10) 0.01045 291.2 26.1
319(9) 0.01162 291.2 26.1
312(9) 0.01155 291.1 26.0
321(10) 0.01085 291.1 25.9
312(10) 0.01106 291.0 25.8
312(9) 0.01124 291.0 25.7
325(9) 0.01135 291.0 25.7
339(10) 0.01045 290.9 25.6
339(10) 0.01013 290.9 25.6
292(9) 0.01199 290.9 25.6
304(9) 0.01182 290.8 25.6
338(10) 0.01095 290.8 25.6
322(10) 0.01083 290.8 25.6
296(9) 0.01117 290.7 25.7
297(9) 0.01186 290.7 25.8
318(9) 0.01166 290.6 25.9
327(9) 0.01143 290.6 26.0
341(10) 0.01038 290.6 26.1
346(10) 0.00949 290.5 26.3
345(10) 0.01007 290.5 26.4
331(9) 0.01110 290.5 26.6
339(10) 0.01093 290.4 26.8
326(10) 0.01034 290.4 27.0
334(10) 0.00996 290.4 27.2
352(10) 0.00975 290.3 27.5
308(9) 0.01220 290.3 27.8
345(10) 0.01079 290.2 28.2
341(10) 0.01002 290.2 28.7
314(10) 0.01000 290.2 29.3
310(9) 0.01123 290.1 30.0
347(10) 0.01056 290.1 30.8
326(9) 0.01141 290.1 31.7
334(10) 0.01018 290.0 32.8
354(10) 0.00922 290.0 34.1
317(9) 0.01117 290.0 35.5
356(10) 0.01033 289.9 37.1
346(10) 0.01055 289.9 38.8
346(10) 0.01004 289.8 40.5
357(10) 0.00923 289.8 42.4
334(10) 0.01069 289.8 44.1
332(9) 0.01120 289.7 45.7
354(10) 0.00989 289.7 47.1
332(10) 0.00998 289.7 48.0
359(11) 0.00906 289.6 48.4
338(10) 0.01042 289.6 48.3
328(9) 0.01125 289.6 47.7
337(10) 0.01064 289.5 46.7
339(10) 0.00980 289.5 45.4
320(10) 0.01040 289.4 43.9
322(10) 0.01099 289.4 42.4
302(9) 0.01246 289.4 40.9
337(10) 0.01069 289.3 39.5
336(10) 0.01044 289.3 38.3
324(10) 0.01019 289.3 37.4
335(10) 0.01034 289.2 36.6
337(9) 0.01109 289.2 36.2
352(10) 0.00990 289.2 36.0
335(10) 0.00985 289.1 36.1
339(10) 0.01004 289.1 36.5
332(9) 0.01114 289.0 37.2
333(10) 0.01105 289.0 38.2
329(10) 0.01044 289.0 39.7
325(10) 0.01019 288.9 41.5
330(10) 0.01067 288.9 43.7
345(10) 0.01044 288.9 46.3
339(10) 0.01088 288.8 49.5
359(10) 0.00952 288.8 53.1
344(10) 0.00938 288.8 57.3
354(10) 0.00957 288.7 62.0
382(10) 0.00965 288.7 67.4
389(10) 0.00956 288.6 73.3
377(10) 0.00938 288.6 79.8
381(11) 0.00869 288.6 86.7
404(11) 0.00847 288.5 94.1
405(11) 0.00899 288.5 101.6
419(11) 0.00880 288.5 109.0
433(11) 0.00809 288.4 115.9
441(12) 0.00730 288.4 122.0
460(12) 0.00756 288.4 126.7
424(11) 0.00877 288.3 129.7
444(11) 0.00842 288.3 130.8
432(11) 0.00774 288.2 130.0
448(12) 0.00687 288.2 127.4
416(11) 0.00814 288.2 123.5
421(11) 0.00881 288.1 118.6
409(11) 0.00867 288.1 113.3
410(11) 0.00849 288.1 107.9
415(11) 0.00813 288.0 102.6
409(11) 0.00846 288.0 97.7
410(10) 0.00910 288.0 93.3
391(10) 0.00924 287.9 89.5
417(11) 0.00812 287.9 86.2
387(11) 0.00853 287.9 83.5
380(11) 0.00904 287.8 81.3
435(11) 0.00849 287.8 79.6
398(11) 0.00885 287.7 78.4
372(10) 0.00936 287.7 77.6
365(10) 0.00957 287.7 77.1
385(11) 0.00903 287.6 76.8
371(10) 0.01008 287.6 76.6
396(10) 0.00910 287.6 76.4
388(11) 0.00891 287.5 76.1
386(10) 0.00907 287.5 75.4
399(11) 0.00905 287.5 74.4
391(10) 0.00953 287.4 72.9
354(10) 0.01016 287.4 70.9
377(11) 0.00894 287.3 68.5
378(11) 0.00905 287.3 65.7
375(10) 0.00992 287.3 62.6
360(10) 0.01030 287.2 59.4
366(10) 0.00922 287.2 56.0
368(11) 0.00901 287.2 52.7
364(10) 0.00918 287.1 49.4
331(10) 0.01090 287.1 46.3
352(10) 0.01054 287.1 43.3
345(10) 0.01044 287.0 40.5
336(10) 0.01027 287.0 37.9
337(10) 0.00996 286.9 35.5
310(9) 0.01155 286.9 33.3
328(9) 0.01133 286.9 31.2
324(10) 0.01065 286.8 29.4
325(10) 0.01024 286.8 27.7
326(10) 0.01095 286.8 26.1
338(10) 0.01107 286.7 24.7
335(9) 0.01113 286.7 23.5
321(10) 0.01100 286.7 22.3
308(10) 0.01067 286.6 21.3
330(10) 0.01042 286.6 20.3
297(9) 0.01236 286.5 19.5
303(9) 0.01231 286.5 18.7
317(9) 0.01131 286.5 18.0
327(10) 0.00980 286.4 17.3
306(9) 0.01129 286.4 16.7
295(9) 0.01267 286.4 16.2
285(9) 0.01302 286.3 15.7
303(9) 0.01179 286.3 15.2
287(9) 0.01158 286.3 14.8
276(9) 0.01255 286.2 14.4
297(9) 0.01235 286.2 14.0
314(9) 0.01159 286.1 13.7
336(10) 0.01040 286.1 13.3
295(9) 0.01157 286.1 13.0
303(9) 0.01145 286.0 12.7
290(9) 0.01248 286.0 12.5
315(9) 0.01117 286.0 12.2
294(9) 0.01151 285.9 12.0
303(10) 0.01044 285.9 11.8
315(10) 0.01102 285.9 11.5
300(9) 0.01213 285.8 11.4
302(9) 0.01178 285.8 11.2
310(10) 0.01088 285.7 11.0
317(10) 0.01042 285.7 10.9
293(9) 0.01181 285.7 10.8
281(9) 0.01313 285.6 10.6
333(10) 0.01009 285.6 10.5
287(9) 0.01175 285.6 10.5
301(9) 0.01129 285.5 10.4
282(9) 0.01261 285.5 10.4
286(9) 0.01310 285.5 10.3
300(9) 0.01152 285.4 10.3
290(9) 0.01140 285.4 10.3
299(9) 0.01141 285.3 10.3
306(9) 0.01146 285.3 10.4
316(9) 0.01177 285.3 10.4
302(10) 0.01103 285.2 10.5
305(10) 0.01084 285.2 10.6
294(9) 0.01184 285.2 10.7
284(9) 0.01206 285.1 10.9
269(9) 0.01356 285.1 11.0
298(9) 0.01163 285.1 11.2
302(10) 0.01085 285.0 11.4
299(9) 0.01118 285.0 11.6
287(9) 0.01265 284.9 11.9
292(9) 0.01285 284.9 12.2
315(9) 0.01120 284.9 12.5
314(10) 0.01002 284.8 12.8
314(10) 0.01100 284.8 13.1
308(9) 0.01214 284.8 13.5
307(9) 0.01216 284.7 13.9
272(9) 0.01366 284.7 14.3
309(10) 0.01022 284.7 14.7
312(10) 0.01093 284.6 15.2
297(9) 0.01251 284.6 15.6
305(9) 0.01202 284.5 16.1
289(9) 0.01213 284.5 16.5
318(10) 0.01054 284.5 16.9
313(9) 0.01128 284.4 17.3
308(9) 0.01197 284.4 17.6
293(9) 0.01268 284.4 17.9
319(10) 0.01074 284.3 18.1
294(9) 0.01134 284.3 18.3
291(9) 0.01197 284.3 18.3
286(9) 0.01289 284.2 18.3
298(9) 0.01231 284.2 18.3
308(9) 0.01138 284.1 18.1
292(9) 0.01192 284.1 17.9
297(9) 0.01183 284.1 17.6
300(9) 0.01225 284.0 17.2
302(9) 0.01215 284.0 16.8
304(9) 0.01150 284.0 16.4
292(9) 0.01153 283.9 15.9
318(9) 0.01124 283.9 15.5
319(9) 0.01157 283.9 15.0
315(9) 0.01123 283.8 14.5
302(9) 0.01148 283.8 14.1
315(10) 0.01079 283.7 13.6
288(9) 0.01271 283.7 13.2
289(9) 0.01290 283.7 12.8
299(9) 0.01158 283.6 12.4
316(10) 0.01041 283.6 12.0
291(9) 0.01190 283.6 11.7
290(9) 0.01247 283.5 11.4
306(9) 0.01219 283.5 11.1
273(9) 0.01250 283.5 10.8
262(9) 0.01305 283.4 10.5
285(9) 0.01232 283.4 10.3
307(9) 0.01161 283.3 10.1
288(9) 0.01291 283.3 9.9
279(9) 0.01308 283.3 9.7
302(10) 0.01075 283.2 9.5
296(9) 0.01151 283.2 9.4
294(9) 0.01259 283.2 9.3
298(9) 0.01244 283.1 9.1
307(10) 0.01106 283.1 9.0
287(9) 0.01132 283.1 8.9
300(9) 0.01161 283.0 8.9
298(9) 0.01250 283.0 8.8
301(9) 0.01205 282.9 8.7
310(9) 0.01126 282.9 8.7
319(10) 0.01005 282.9 8.6
301(9) 0.01172 282.8 8.6
295(9) 0.01256 282.8 8.5
292(9) 0.01244 282.8 8.5
300(9) 0.01111 282.7 8.5
300(10) 0.01064 282.7 8.5
289(9) 0.01198 282.7 8.4
310(9) 0.01194 282.6 8.4
269(8) 0.01386 282.6 8.4
276(9) 0.01285 282.5 8.4
290(9) 0.01138 282.5 8.4
296(9) 0.01145 282.5 8.4
285(9) 0.01300 282.4 8.4
286(9) 0.01276 282.4 8.4
313(10) 0.01093 282.4 8.3
307(9) 0.01135 282.3 8.3
304(9) 0.01122 282.3 8.3
300(9) 0.01250 282.3 8.3
294(9) 0.01208 282.2 8.3
299(9) 0.01143 282.2 8.2
276(9) 0.01253 282.2 8.2
305(9) 0.01142 282.1 8.2
295(9) 0.01266 282.1 8.1
293(9) 0.01243 282.0 8.1
303(9) 0.01121 282.0 8.0
279(9) 0.01279 282.0 8.0
313(9) 0.01129 281.9 7.9
284(9) 0.01315 281.9 7.8
303(9) 0.01136 281.9 7.8
287(9) 0.01204 281.8 7.7
295(9) 0.01206 281.8 7.6
294(9) 0.01237 281.8 7.6
291(9) 0.01281 281.7 7.5
279(9) 0.01269 281.7 7.4
283(9) 0.01232 281.6 7.3
292(9) 0.01176 281.6 7.2
273(9) 0.01293 281.6 7.2
289(9) 0.01269 281.5 7.1
304(9) 0.01155 281.5 7.0
311(10) 0.01022 281.5 6.9
290(9) 0.01209 281.4 6.8
293(9) 0.01242 281.4 6.7
289(9) 0.01300 281.4 6.6
292(9) 0.01186 281.3 6.5
283(9) 0.01143 281.3 6.4
293(9) 0.01215 281.2 6.4
264(8) 0.01399 281.2 6.3
285(9) 0.01282 281.2 6.2
291(9) 0.01224 281.1 6.1
298(10) 0.01084 281.1 6.0
300(10) 0.01084 281.1 5.9
281(9) 0.01332 281.0 5.9
275(9) 0.01342 281.0 5.8
285(9) 0.01244 281.0 5.7
299(10) 0.01093 280.9 5.6
276(9) 0.01252 280.9 5.5
275(9) 0.01360 280.9 5.5
295(9) 0.01255 280.9 5.4
280(9) 0.01278 280.9 5.3
321(10) 0.01015 280.9 5.3
311(9) 0.01119 280.9 5.2
295(9) 0.01266 280.9 5.2
278(9) 0.01316 280.9 5.1
281(9) 0.01296 280.9 5.0
276(9) 0.01253 280.9 5.0
266(9) 0.01295 280.9 4.9
301(9) 0.01246 280.9 4.9
299(9) 0.01197 280.9 4.8
282(9) 0.01285 280.9 4.8
288(9) 0.01168 280.9 4.7
275(9) 0.01248 280.9 4.7
285(9) 0.01303 280.9 4.6
303(9) 0.01198 280.9 4.6
305(9) 0.01128 280.9 4.6
288(9) 0.01174 280.9 4.5
283(9) 0.01269 280.9 4.5
289(9) 0.01282 280.9 4.5
289(9) 0.01236 280.9 4.4
304(10) 0.01099 280.9 4.4
283(9) 0.01237 280.9 4.4
301(9) 0.01172 280.9 4.3
263(8) 0.01404 280.9 4.3
274(9) 0.01256 280.9 4.3
279(9) 0.01227 280.9 4.2
290(9) 0.01169 280.9 4.2
297(9) 0.01255 280.9 4.2
312(9) 0.01187 280.9 4.2
283(9) 0.01239 280.9 4.2
289(9) 0.01148 280.9 4.1
258(9) 0.01367 280.9 4.1
315(9) 0.01186 280.9 4.1
302(9) 0.01227 280.9 4.1
296(9) 0.01175 280.9 4.1
288(9) 0.01186 280.9 4.1
294(9) 0.01187 280.9 4.1
279(9) 0.01318 280.9 4.0
288(9) 0.01280 280.9 4.0
306(9) 0.01141 280.9 4.0
323(10) 0.00966 280.9 4.0
297(9) 0.01165 280.9 4.0
284(9) 0.01296 280.9 4.0
273(9) 0.01366 280.9 4.0
270(9) 0.01295 280.9 4.0
261(9) 0.01214 280.9 4.0
274(9) 0.01205 280.9 4.0
274(9) 0.01368 280.9 4.0
272(9) 0.01333 280.9 4.0
295(9) 0.01187 280.9 4.0
295(10) 0.01105 280.9 4.0
282(9) 0.01218 280.9 4.0
256(8) 0.01451 280.9 4.0
284(9) 0.01302 280.9 4.0
292(9) 0.01197 280.9 4.0
298(9) 0.01140 280.9 4.0
280(9) 0.01231 280.9 4.0
272(9) 0.01368 280.9 4.1
281(9) 0.01263 280.9 4.1
278(9) 0.01238 280.9 4.1
294(9) 0.01151 280.9 4.1
284(9) 0.01260 280.9 4.1
288(9) 0.01284 280.9 4.1
286(9) 0.01286 280.9 4.2
275(9) 0.01242 280.9 4.2
290(9) 0.01150 280.9 4.2
288(9) 0.01234 280.9 4.2
296(9) 0.01267 280.9 4.3
270(9) 0.01304 280.9 4.3
283(9) 0.01203 280.9 4.3
291(9) 0.01187 280.9 4.3
293(9) 0.01225 280.9 4.4
304(9) 0.01211 280.9 4.4
311(9) 0.01143 280.9 4.5
299(9) 0.01129 280.9 4.5
293(9) 0.01148 280.9 4.5
279(9) 0.01299 280.9 4.6
292(9) 0.01268 280.9 4.6
261(9) 0.01344 280.9 4.7
275(9) 0.01192 280.9 4.7
280(9) 0.01240 280.9 4.8
283(9) 0.01301 280.9 4.9
261(8) 0.01428 280.9 4.9
291(9) 0.01192 280.9 5.0
276(9) 0.01207 280.9 5.1
278(9) 0.01292 280.9 5.2
274(9) 0.01352 280.9 5.3
277(9) 0.01357 280.9 5.4
280(9) 0.01264 280.9 5.5
314(10) 0.01035 280.9 5.6
279(9) 0.01254 280.9 5.7
287(9) 0.01282 280.9 5.9
281(9) 0.01309 280.9 6.0
278(9) 0.01274 280.9 6.2
289(9) 0.01140 280.9 6.4
300(9) 0.01167 280.9 6.7
293(9) 0.01265 280.9 6.9
286(9) 0.01321 280.9 7.2
264(9) 0.01356 280.9 7.5
285(9) 0.01138 280.9 7.9
290(9) 0.01191 280.9 8.4
295(9) 0.01268 280.9 8.9
286(9) 0.01287 280.9 9.4
294(9) 0.01224 280.9 10.1
279(9) 0.01227 280.9 10.8
277(9) 0.01257 280.9 11.6
261(8) 0.01412 280.9 12.6
289(9) 0.01232 280.9 13.6
285(9) 0.01163 280.9 14.7
312(10) 0.01005 280.9 15.9
306(9) 0.01148 280.9 17.2
296(9) 0.01258 280.9 18.5
307(9) 0.01176 280.9 19.8
305(9) 0.01119 280.9 21.0
306(10) 0.01102 280.9 22.0
328(10) 0.01064 280.9 22.7
321(9) 0.01150 280.9 23.1
311(9) 0.01174 280.9 23.1
301(9) 0.01147 280.9 22.8
301(9) 0.01183 280.9 22.2
299(9) 0.01184 280.9 21.3
305(9) 0.01232 280.9 20.3
307(9) 0.01135 280.9 19.3
312(10) 0.01054 280.9 18.2
305(10) 0.01097 280.9 17.3
283(9) 0.01272 280.9 16.4
298(9) 0.01251 280.9 15.6
292(9) 0.01213 280.9 15.0
292(9) 0.01155 280.9 14.6
281(9) 0.01177 280.9 14.2
294(9) 0.01238 280.9 14.0
290(9) 0.01269 280.9 14.0
292(9) 0.01144 280.9 14.1
287(9) 0.01109 280.9 14.3
289(9) 0.01222 280.9 14.7
299(9) 0.01239 280.9 15.3
310(9) 0.01202 280.9 15.9
305(10) 0.01099 280.9 16.6
286(9) 0.01130 280.9 17.5
296(9) 0.01169 280.9 18.3
311(9) 0.01191 280.9 19.1
304(9) 0.01221 280.9 19.8
301(9) 0.01160 280.9 20.4
305(10) 0.01041 280.9 20.7
283(9) 0.01256 280.9 20.7
285(9) 0.01288 280.9 20.5
299(9) 0.01245 280.9 20.1
284(9) 0.01227 280.9 19.6
284(10) 0.01070 280.9 19.1
270(9) 0.01259 280.9 18.6
282(9) 0.01308 280.9 18.1
286(9) 0.01314 280.9 17.8
297(9) 0.01195 280.9 17.6
294(9) 0.01146 280.9 17.5
304(9) 0.01127 280.9 17.6
294(9) 0.01267 280.9 17.9
303(9) 0.01185 280.9 18.3
312(9) 0.01136 280.9 18.9
283(9) 0.01251 280.9 19.7
293(9) 0.01176 280.9 20.6
283(9) 0.01303 280.9 21.8
289(9) 0.01258 280.9 23.1
300(10) 0.01093 280.9 24.6
290(9) 0.01177 280.9 26.2
299(9) 0.01167 280.9 28.0
290(9) 0.01273 280.9 29.9
302(9) 0.01202 280.9 31.9
312(10) 0.01087 280.9 33.9
303(9) 0.01160 280.9 35.8
278(9) 0.01303 280.9 37.6
302(9) 0.01230 280.9 39.0
312(9) 0.01138 280.9 40.0
300(9) 0.01157 280.9 40.6
313(9) 0.01127 280.9 40.5
343(10) 0.01048 280.9 40.0
304(9) 0.01228 280.9 39.0
285(9) 0.01242 280.9 37.7
286(9) 0.01162 280.9 36.2
278(9) 0.01249 280.9 34.6
319(9) 0.01145 280.9 32.9
302(9) 0.01234 280.9 31.3
293(9) 0.01215 280.9 29.9
297(9) 0.01142 280.9 28.5
297(9) 0.01177 280.9 27.3
292(9) 0.01235 280.9 26.3
308(9) 0.01174 280.9 25.5
319(10) 0.01072 280.9 24.8
290(9) 0.01193 280.9 24.3
336(10) 0.01033 280.9 23.9
294(9) 0.01252 280.9 23.6
313(9) 0.01167 280.9 23.4
279(9) 0.01233 280.9 23.4
318(10) 0.00993 280.9 23.3
314(10) 0.01098 280.9 23.4
314(9) 0.01186 280.9 23.4
315(9) 0.01188 280.9 23.5
306(9) 0.01132 280.9 23.6
301(10) 0.01067 280.9 23.7
275(9) 0.01331 280.9 23.8
287(9) 0.01283 280.9 24.0
286(9) 0.01304 280.9 24.1
262(8) 0.01394 280.9 24.3
288(9) 0.01163 280.9 24.6
333(10) 0.01025 280.9 24.9
295(9) 0.01253 280.9 25.3
277(9) 0.01321 280.9 25.7
289(9) 0.01146 280.9 26.2
303(10) 0.01088 280.9 26.8
312(10) 0.01073 280.9 27.5
297(9) 0.01255 280.9 28.2
298(9) 0.01215 280.9 29.1
304(9) 0.01132 280.9 30.0
292(9) 0.01177 280.9 31.1
300(9) 0.01129 280.9 32.2
317(9) 0.01170 280.9 33.5
311(9) 0.01139 280.9 34.9
300(9) 0.01140 280.9 36.4
306(10) 0.01086 280.9 38.0
311(10) 0.01080 280.9 39.8
333(9) 0.01131 280.9 41.7
307(9) 0.01185 280.9 43.7
318(9) 0.01119 280.9 45.9
330(10) 0.01100 280.9 48.3
338(10) 0.01083 280.9 50.8
359(10) 0.01020 280.9 53.4
334(10) 0.01034 280.9 56.3
355(10) 0.00930 280.9 59.2
357(10) 0.00972 280.9 62.4
364(10) 0.01020 280.9 65.6
350(10) 0.01067 280.9 68.9
351(10) 0.01017 280.9 72.3
371(11) 0.00875 280.9 75.7
389(11) 0.00877 280.9 79.0
374(10) 0.00954 280.9 82.3
367(10) 0.01015 280.9 85.4
380(10) 0.00919 280.9 88.3
398(11) 0.00803 280.9 91.0
397(11) 0.00860 280.9 93.3
399(10) 0.00933 280.9 95.4
367(10) 0.01000 280.9 97.0
377(10) 0.00945 280.9 98.4
386(11) 0.00840 280.9 99.3
383(10) 0.00915 280.9 100.0
389(10) 0.00953 280.9 100.3
377(10) 0.00995 280.9 100.4
375(11) 0.00897 280.9 100.1
393(11) 0.00800 280.9 99.6
365(10) 0.00960 280.9 98.9
356(10) 0.01049 280.9 97.9
332(9) 0.01111 280.9 96.7
369(10) 0.00954 280.9 95.3
375(11) 0.00879 280.9 93.7
370(10) 0.00947 280.9 91.9
367(10) 0.01006 280.9 90.0
354(10) 0.01037 280.9 87.9
341(10) 0.01012 280.9 85.7
375(11) 0.00865 280.9 83.5
331(10) 0.01048 280.9 81.3
349(10) 0.01069 280.9 79.0
355(10) 0.01011 280.9 76.7
345(10) 0.01002 280.9 74.5
328(10) 0.01056 280.9 72.3
374(10) 0.00928 280.9 70.1
373(10) 0.00997 280.9 68.0
363(10) 0.00979 280.9 65.9
366(11) 0.00905 280.9 63.8
344(10) 0.01007 280.9 61.8
336(10) 0.01035 280.9 59.9
342(10) 0.01073 280.9 57.9
344(10) 0.01012 280.9 56.1
334(10) 0.01051 280.9 54.3
330(10) 0.01029 280.9 52.5
333(10) 0.01065 280.9 50.8
324(9) 0.01144 280.9 49.1
318(10) 0.01089 280.9 47.4
305(9) 0.01127 280.9 45.9
351(10) 0.00972 280.9 44.3
336(10) 0.01101 280.9 42.8
330(9) 0.01127 280.9 41.4
317(9) 0.01119 280.9 40.0
306(9) 0.01120 280.9 38.7
317(9) 0.01134 280.9 37.4
317(9) 0.01163 280.9 36.2
300(9) 0.01242 280.9 35.0
325(10) 0.01038 280.9 33.9
325(10) 0.01046 280.9 32.8
334(10) 0.01060 280.9 31.8
309(9) 0.01185 280.9 30.8
286(9) 0.01307 280.9 29.8
312(9) 0.01110 280.9 29.0
310(10) 0.01012 280.9 28.1
268(9) 0.01338 280.9 27.3
308(9) 0.01215 280.9 26.5
316(9) 0.01177 280.9 25.8
301(9) 0.01178 280.9 25.1
287(9) 0.01146 280.9 24.4
323(10) 0.01031 280.9 23.8
285(9) 0.01298 280.9 23.2
315(9) 0.01177 280.9 22.7
293(9) 0.01190 280.9 22.1
305(10) 0.01035 280.9 21.7
292(9) 0.01192 280.9 21.2
307(9) 0.01219 280.9 20.8
308(9) 0.01185 280.9 20.3
305(9) 0.01158 280.9 20.0
317(10) 0.01018 280.9 19.6
279(9) 0.01270 280.9 19.3
304(9) 0.01230 280.9 19.0
296(9) 0.01253 280.9 18.7
297(9) 0.01161 280.9 18.4
288(9) 0.01198 280.9 18.2
295(9) 0.01143 280.9 18.0
285(9) 0.01306 280.9 17.8
282(9) 0.01292 280.9 17.6
310(10) 0.01100 280.9 17.5
284(9) 0.01228 280.9 17.4
286(9) 0.01209 280.9 17.3
276(9) 0.01348 280.9 17.2
276(9) 0.01287 280.9 17.2
292(9) 0.01177 280.9 17.1
279(9) 0.01245 280.9 17.1
297(9) 0.01184 280.9 17.1
285(9) 0.01304 280.9 17.2
285(9) 0.01237 280.9 17.2
270(9) 0.01244 280.9 17.3
268(9) 0.01287 280.9 17.4
299(9) 0.01204 280.9 17.6
307(9) 0.01225 280.9 17.7
306(9) 0.01122 280.9 17.8
316(10) 0.01055 280.9 18.0
307(9) 0.01156 280.9 18.2
311(9) 0.01171 280.9 18.4
277(9) 0.01340 280.9 18.6
294(9) 0.01144 280.9 18.7
305(10) 0.01078 280.9 18.9
299(9) 0.01169 280.9 19.1
283(9) 0.01297 280.9 19.2
284(9) 0.01307 280.9 19.4
298(9) 0.01165 280.9 19.4
316(10) 0.01009 280.9 19.5
315(10) 0.01108 280.9 19.5
293(9) 0.01281 280.9 19.5
298(9) 0.01246 280.9 19.5
262(9) 0.01317 280.9 19.5
283(9) 0.01131 280.9 19.4
295(9) 0.01208 280.9 19.3
277(9) 0.01349 280.9 19.2
268(9) 0.01382 280.8 19.1
282(9) 0.01232 280.8 19.0
274(9) 0.01241 280.8 18.9
291(9) 0.01207 280.7 18.8
251(8) 0.01465 280.7 18.7
281(9) 0.01283 280.7 18.6
295(9) 0.01177 280.6 18.6
310(10) 0.01058 280.6 18.6
315(10) 0.01082 280.6 18.6
318(9) 0.01169 280.5 18.6
303(9) 0.01187 280.5 18.6
296(9) 0.01201 280.5 18.7
286(9) 0.01180 280.4 18.8
289(9) 0.01164 280.4 18.9
296(9) 0.01258 280.4 19.0
295(9) 0.01199 280.3 19.2
291(9) 0.01188 280.3 19.4
321(10) 0.01065 280.3 19.6
304(9) 0.01151 280.2 19.8
293(9) 0.01266 280.2 20.1
274(9) 0.01328 280.2 20.3
302(9) 0.01128 280.2 20.6
293(9) 0.01188 280.1 20.9
292(9) 0.01246 280.1 21.2
277(9) 0.01339 280.1 21.6
314(10) 0.01100 280.0 21.9
299(9) 0.01164 280.0 22.3
291(9) 0.01149 280.0 22.7
272(9) 0.01299 279.9 23.0
318(9) 0.01165 279.9 23.4
297(9) 0.01172 279.9 23.8
315(10) 0.01024 279.8 24.2
300(9) 0.01168 279.8 24.6
306(9) 0.01169 279.8 25.0
312(9) 0.01189 279.7 25.4
290(9) 0.01226 279.7 25.7
314(10) 0.01052 279.7 26.1
323(10) 0.01057 279.6 26.4
301(9) 0.01217 279.6 26.8
313(9) 0.01192 279.6 27.1
325(10) 0.01074 279.5 27.4
304(10) 0.01100 279.5 27.7
314(10) 0.01063 279.5 27.9
288(9) 0.01280 279.4 28.2
300(9) 0.01218 279.4 28.4
302(9) 0.01114 279.4 28.6
306(10) 0.01051 279.4 28.8
298(9) 0.01170 279.3 29.0
320(9) 0.01139 279.3 29.1
314(9) 0.01187 279.3 29.2
300(9) 0.01208 279.2 29.3
315(10) 0.01053 279.2 29.4
309(9) 0.01121 279.2 29.5
289(9) 0.01289 279.1 29.6
271(9) 0.01359 279.1 29.7
308(10) 0.01094 279.1 29.8
326(10) 0.00990 279.0 29.8
327(10) 0.01035 279.0 29.9
312(9) 0.01188 279.0 30.1
313(9) 0.01181 278.9 30.2
294(9) 0.01153 278.9 30.4
319(10) 0.01035 278.9 30.6
304(9) 0.01194 278.8 30.9
318(9) 0.01169 278.8 31.3
312(9) 0.01150 278.8 31.6
291(9) 0.01201 278.7 32.1
317(10) 0.01017 278.7 32.5
320(10) 0.01049 278.7 33.1
308(9) 0.01205 278.7 33.6
307(9) 0.01173 278.6 34.1
326(10) 0.01011 278.6 34.6
347(10) 0.00959 278.6 34.9
318(10) 0.01090 278.5 35.1
314(9) 0.01186 278.5 35.2
333(10) 0.01044 278.5 35.0
312(10) 0.01103 278.4 34.6
315(10) 0.01089 278.4 34.0
321(9) 0.01158 278.4 33.2
325(9) 0.01146 278.3 32.4
331(10) 0.01058 278.3 31.6
301(9) 0.01156 278.3 30.7
318(10) 0.01069 278.2 29.9
305(9) 0.01219 278.2 29.2
293(9) 0.01265 278.2 28.5
298(9) 0.01194 278.1 28.0
308(10) 0.01071 278.1 27.5
306(9) 0.01124 278.1 27.2
305(9) 0.01194 278.0 27.0
321(9) 0.01150 278.0 26.8
310(9) 0.01144 278.0 26.8
303(9) 0.01114 277.9 26.8
307(9) 0.01157 277.9 26.9
313(9) 0.01179 277.9 27.1
308(9) 0.01207 277.9 27.3
297(9) 0.01178 277.8 27.5
329(10) 0.00983 277.8 27.7
314(9) 0.01123 277.8 27.9
292(9) 0.01276 277.7 28.1
322(9) 0.01148 277.7 28.2
292(9) 0.01171 277.7 28.4
306(10) 0.01013 277.6 28.5
282(9) 0.01197 277.6 28.7
291(9) 0.01277 277.6 29.0
309(9) 0.01192 277.5 29.3
299(9) 0.01163 277.5 29.7
286(9) 0.01170 277.5 30.2
298(9) 0.01192 277.4 30.8
339(10) 0.01107 277.4 31.5
298(9) 0.01240 277.4 32.2
304(9) 0.01142 277.3 33.1
286(9) 0.01182 277.3 34.1
318(10) 0.01071 277.3 35.1
310(9) 0.01212 277.2 36.1
334(10) 0.01045 277.2 37.1
323(10) 0.01088 277.2 38.1
321(10) 0.01044 277.2 39.0
339(10) 0.01025 277.1 39.8
325(9) 0.01140 277.1 40.3
330(10) 0.01107 277.1 40.6
313(9) 0.01111 277.0 40.7
332(10) 0.01028 277.0 40.6
359(10) 0.00951 277.0 40.3
322(9) 0.01155 276.9 39.8
326(10) 0.01105 276.9 39.2
306(9) 0.01150 276.9 38.5
300(9) 0.01132 276.8 37.9
309(9) 0.01166 276.8 37.2
335(9) 0.01116 276.8 36.7
332(10) 0.01061 276.7 36.1
333(10) 0.01005 276.7 35.7
319(10) 0.01065 276.7 35.3
313(9) 0.01143 276.6 35.0
323(9) 0.01157 276.6 34.8
313(10) 0.01096 276.6 34.7
310(10) 0.01066 276.5 34.6
310(10) 0.01091 276.5 34.6
309(9) 0.01163 276.5 34.7
328(9) 0.01136 276.5 34.8
314(9) 0.01124 276.4 34.9
334(10) 0.00948 276.4 35.1
317(10) 0.01065 276.4 35.2
301(9) 0.01183 276.3 35.4
331(9) 0.01121 276.3 35.6
310(9) 0.01149 276.3 35.7
299(10) 0.01094 276.2 35.9
301(9) 0.01141 276.2 36.1
311(9) 0.01187 276.2 36.3
286(9) 0.01295 276.1 36.4
288(9) 0.01169 276.1 36.6
317(10) 0.01014 276.1 36.7
341(10) 0.01005 276.0 36.9
322(9) 0.01132 276.0 37.0
311(9) 0.01162 276.0 37.1
307(9) 0.01157 275.9 37.1
327(10) 0.00994 275.9 37.1
290(9) 0.01152 275.9 37.1
289(9) 0.01291 275.8 36.9
336(10) 0.01061 275.8 36.8
299(9) 0.01155 275.8 36.5
319(10) 0.00989 275.7 36.3
318(10) 0.01051 275.7 36.0
339(10) 0.01096 275.7 35.7
324(9) 0.01130 275.7 35.3
321(10) 0.01080 275.6 35.0
291(9) 0.01160 275.6 34.7
297(9) 0.01181 275.6 34.4
299(9) 0.01243 275.5 34.2
303(9) 0.01165 275.5 34.0
296(9) 0.01155 275.5 33.8
310(10) 0.01093 275.4 33.7
298(9) 0.01164 275.4 33.7
303(9) 0.01245 275.4 33.7
303(9) 0.01159 275.3 33.8
309(10) 0.01083 275.3 33.9
303(9) 0.01124 275.3 34.1
295(9) 0.01228 275.2 34.3
322(9) 0.01150 275.2 34.6
322(10) 0.01054 275.2 34.8
301(9) 0.01122 275.1 35.0
291(9) 0.01154 275.1 35.3
326(9) 0.01114 275.1 35.4
326(9) 0.01135 275.0 35.6
299(9) 0.01158 275.0 35.7
322(10) 0.01051 275.0 35.8
318(10) 0.01080 275.0 35.8
285(9) 0.01256 274.9 35.9
313(9) 0.01169 274.9 36.0
334(10) 0.01024 274.9 36.3
318(10) 0.01054 274.8 36.7
313(10) 0.01084 274.8 37.4
311(9) 0.01197 274.8 38.4
320(9) 0.01141 274.7 39.6
286(9) 0.01212 274.7 41.2
332(10) 0.00957 274.7 43.1
316(10) 0.01091 274.6 45.2
326(9) 0.01125 274.6 47.5
336(10) 0.01099 274.6 49.6
333(10) 0.01057 274.5 51.4
348(10) 0.00916 274.5 52.5
346(10) 0.01006 274.5 52.7
346(10) 0.01061 274.4 51.9
339(10) 0.01093 274.4 50.3
337(10) 0.01057 274.4 48.1
316(10) 0.00995 274.3 45.6
325(10) 0.01040 274.3 43.0
330(9) 0.01113 274.3 40.6
332(10) 0.01093 274.3 38.5
331(10) 0.01048 274.2 36.7
327(10) 0.00990 274.2 35.2
310(10) 0.01097 274.2 34.0
314(9) 0.01176 274.1 33.1
312(9) 0.01146 274.1 32.5
302(9) 0.01179 274.1 32.1
320(10) 0.01011 274.0 31.8
292(9) 0.01159 274.0 31.8
297(9) 0.01249 274.0 31.8
336(10) 0.01066 273.9 32.0
297(9) 0.01168 273.9 32.3
315(10) 0.01099 273.9 32.8
334(10) 0.01044 273.8 33.4
318(9) 0.01174 273.8 34.1
303(9) 0.01199 273.8 35.0
327(10) 0.01074 273.7 36.0
322(10) 0.01106 273.7 37.2
319(10) 0.01089 273.7 38.5
314(9) 0.01176 273.6 39.9
303(10) 0.01093 273.6 41.4
306(10) 0.01063 273.6 43.0
323(10) 0.01046 273.5 44.6
338(10) 0.01069 273.5 46.2
342(10) 0.01085 273.5 47.7
341(10) 0.01017 273.5 49.1
330(10) 0.01015 273.4 50.4
305(9) 0.01160 273.4 51.3
333(10) 0.01095 273.4 52.0
343(10) 0.01078 273.3 52.4
334(10) 0.01047 273.3 52.6
322(10) 0.01040 273.3 52.4
324(10) 0.01071 273.2 52.1
319(9) 0.01153 273.2 51.6
324(9) 0.01140 273.2 51.0
342(10) 0.01002 273.1 50.3
312(10) 0.01046 273.1 49.7
328(10) 0.01013 273.1 49.2
318(9) 0.01146 273.0 48.7
313(9) 0.01163 273.0 48.4
325(10) 0.01045 273.0 48.3
309(10) 0.01049 272.9 48.2
328(10) 0.01067 272.9 48.2
353(10) 0.01038 272.9 48.4
343(10) 0.01068 272.8 48.5
353(10) 0.01002 272.8 48.7
349(10) 0.00915 272.8 48.7
318(9) 0.01123 272.8 48.8
332(9) 0.01126 272.7 48.7
326(9) 0.01115 272.7 48.6
305(9) 0.01165 272.7 48.5
308(10) 0.01107 272.6 48.4
326(10) 0.01093 272.6 48.4
321(9) 0.01156 272.6 48.4
320(9) 0.01144 272.5 48.5
334(10) 0.01053 272.5 48.7
346(10) 0.00922 272.5 49.0
314(10) 0.01085 272.4 49.4
315(9) 0.01191 272.4 49.8
341(10) 0.01053 272.4 50.3
330(10) 0.01023 272.3 50.7
320(10) 0.01054 272.3 51.2
308(9) 0.01152 272.3 51.5
309(9) 0.01204 272.2 51.6
318(9) 0.01129 272.2 51.6
314(9) 0.01114 272.2 51.4
331(10) 0.01036 272.1 51.0
338(10) 0.01027 272.1 50.3
333(9) 0.01115 272.1 49.5
329(10) 0.01095 272.1 48.4
328(10) 0.01057 272.0 47.1
319(10) 0.01067 272.0 45.7
323(9) 0.01122 272.0 44.1
321(9) 0.01139 271.9 42.5
300(9) 0.01119 271.9 40.8
300(10) 0.01105 271.9 39.2
308(10) 0.01107 271.8 37.5
294(9) 0.01209 271.8 35.9
329(9) 0.01135 271.8 34.3
315(10) 0.01051 271.7 32.8
275(9) 0.01191 271.7 31.4
279(9) 0.01228 271.7 30.1
299(9) 0.01205 271.6 28.8
283(9) 0.01298 271.6 27.7
306(10) 0.01080 271.6 26.7
310(10) 0.01020 271.5 25.7
285(9) 0.01174 271.5 24.8
308(9) 0.01195 271.5 24.1
285(9) 0.01320 271.4 23.4
292(9) 0.01181 271.4 22.7
290(9) 0.01138 271.4 22.2
292(9) 0.01211 271.3 21.7
294(9) 0.01258 271.3 21.3
296(9) 0.01236 271.3 21.0
282(9) 0.01215 271.3 20.6
273(9) 0.01191 271.2 20.3
273(9) 0.01294 271.2 20.1
286(9) 0.01301 271.2 19.8
293(9) 0.01240 271.1 19.5
313(10) 0.01106 271.1 19.1
283(9) 0.01193 271.1 18.8
293(9) 0.01137 271.0 18.4
263(8) 0.01429 271.0 17.9
305(9) 0.01183 271.0 17.4
286(9) 0.01235 270.9 16.9
291(9) 0.01132 270.9 16.4
276(9) 0.01206 270.9 15.9
279(9) 0.01314 270.8 15.4
282(9) 0.01327 270.8 14.9
269(9) 0.01336 270.8 14.4
283(9) 0.01195 270.7 13.9
277(9) 0.01256 270.7 13.4
276(9) 0.01338 270.7 13.0
279(9) 0.01297 270.6 12.6
289(9) 0.01195 270.6 12.3
277(9) 0.01215 270.6 11.9
280(9) 0.01249 270.6 11.6
274(9) 0.01367 270.5 11.4
303(9) 0.01141 270.5 11.1
285(9) 0.01204 270.5 10.9
294(9) 0.01128 270.4 10.7
290(9) 0.01219 270.4 10.5
274(9) 0.01355 270.4 10.3
250(8) 0.01448 270.3 10.2
275(9) 0.01211 270.3 10.1
279(9) 0.01261 270.3 9.9
295(9) 0.01231 270.2 9.8
273(9) 0.01378 270.2 9.7
284(9) 0.01213 270.2 9.7
271(9) 0.01212 270.1 9.6
286(9) 0.01187 270.1 9.5
271(9) 0.01372 270.1 9.5
270(9) 0.01378 270.0 9.4
280(9) 0.01218 270.0 9.4
273(9) 0.01256 270.0 9.3
273(9) 0.01316 269.9 9.3
297(9) 0.01223 269.9 9.3
270(9) 0.01378 269.9 9.2
290(9) 0.01136 269.9 9.2
283(10) 0.01108 269.8 9.2
263(9) 0.01310 269.8 9.2
287(9) 0.01295 269.8 9.1
270(9) 0.01343 269.8 9.1
281(9) 0.01260 269.8 9.1
281(9) 0.01165 269.8 9.2
275(9) 0.01267 269.8 9.2
254(8) 0.01457 269.8 9.2
267(9) 0.01367 269.8 9.3
271(9) 0.01263 269.8 9.3
298(10) 0.01054 269.8 9.4
309(10) 0.01094 269.8 9.4
293(9) 0.01279 269.8 9.5
275(9) 0.01326 269.8 9.6
260(9) 0.01327 269.8 9.7
256(9) 0.01304 269.8 9.8
289(9) 0.01200 269.8 9.9
270(8) 0.01385 269.8 10.1
277(9) 0.01302 269.8 10.2
280(9) 0.01244 269.8 10.4
283(9) 0.01228 269.8 10.6
267(9) 0.01303 269.8 10.8
289(9) 0.01283 269.8 11.0
288(9) 0.01237 269.8 11.2
295(9) 0.01155 269.8 11.5
285(9) 0.01162 269.8 11.8
281(9) 0.01280 269.8 12.0
286(9) 0.01301 269.8 12.4
289(9) 0.01217 269.8 12.7
266(9) 0.01319 269.8 13.1
289(9) 0.01158 269.8 13.5
271(9) 0.01312 269.8 13.9
264(8) 0.01405 269.8 14.4
291(9) 0.01220 269.8 14.9
299(9) 0.01128 269.8 15.4
279(9) 0.01259 269.8 16.0
303(9) 0.01211 269.8 16.6
311(9) 0.01188 269.8 17.3
282(9) 0.01202 269.8 18.0
264(9) 0.01269 269.8 18.8
291(9) 0.01128 269.8 19.7
275(9) 0.01327 269.8 20.6
303(9) 0.01221 269.8 21.6
288(9) 0.01199 269.8 22.7
291(9) 0.01169 269.8 23.9
312(9) 0.01117 269.8 25.1
301(9) 0.01212 269.8 26.5
297(9) 0.01244 269.8 27.9
307(10) 0.01097 269.8 29.4
306(10) 0.01048 269.8 31.1
290(9) 0.01198 269.8 32.8
293(9) 0.01265 269.8 34.7
281(9) 0.01313 269.8 36.6
293(9) 0.01173 269.8 38.7
325(10) 0.00940 269.8 40.8
304(9) 0.01161 269.8 43.0
326(9) 0.01148 269.8 45.3
350(10) 0.01054 269.8 47.6
317(9) 0.01110 269.8 50.0
340(10) 0.00945 269.8 52.3
329(10) 0.01086 269.8 54.6
314(9) 0.01169 269.8 56.7
344(10) 0.01060 269.8 58.6
331(10) 0.01051 269.8 60.4
322(10) 0.01029 269.8 61.8
336(10) 0.01016 269.8 62.9
316(9) 0.01167 269.8 63.6
334(10) 0.01049 269.8 63.9
347(10) 0.00978 269.8 63.8
337(10) 0.01013 269.8 63.3
328(10) 0.01092 269.8 62.4
339(10) 0.01099 269.8 61.2
317(9) 0.01142 269.8 59.6
342(10) 0.01013 269.8 57.8
348(10) 0.00974 269.8 55.8
314(9) 0.01131 269.8 53.6
314(9) 0.01193 269.8 51.4
303(9) 0.01160 269.8 49.1
306(9) 0.01137 269.8 46.8
295(9) 0.01199 269.8 44.6
287(9) 0.01222 269.8 42.4
332(9) 0.01125 269.8 40.3
309(9) 0.01144 269.8 38.2
292(9) 0.01118 269.8 36.3
284(9) 0.01217 269.8 34.5
306(9) 0.01182 269.8 32.8
296(9) 0.01257 269.8 31.2
296(9) 0.01164 269.8 29.7
308(10) 0.01091 269.8 28.3
301(9) 0.01122 269.8 27.0
294(9) 0.01249 269.8 25.8
298(9) 0.01238 269.8 24.7
305(9) 0.01123 269.8 23.7
281(9) 0.01189 269.8 22.8
275(9) 0.01241 269.8 22.0
271(9) 0.01362 269.8 21.2
311(9) 0.01198 269.8 20.5
281(9) 0.01233 269.8 19.9
285(9) 0.01181 269.8 19.3
279(9) 0.01235 269.8 18.8
276(9) 0.01304 269.8 18.4
295(9) 0.01246 269.8 18.0
288(9) 0.01147 269.8 17.7
292(10) 0.01082 269.8 17.4
284(9) 0.01233 269.8 17.2
288(9) 0.01284 269.8 17.0
279(9) 0.01325 269.8 16.9
287(9) 0.01152 269.8 16.8
266(9) 0.01253 269.8 16.8
271(9) 0.01284 269.8 16.8
282(9) 0.01319 269.8 16.9
286(9) 0.01285 269.8 17.0
294(9) 0.01216 269.8 17.2
291(9) 0.01116 269.8 17.4
291(9) 0.01175 269.8 17.7
294(9) 0.01263 269.8 18.0
277(9) 0.01323 269.8 18.3
291(9) 0.01183 269.8 18.7
303(9) 0.01131 269.8 19.2
301(9) 0.01173 269.8 19.7
285(9) 0.01289 269.8 20.3
291(9) 0.01225 269.8 20.9
297(9) 0.01202 269.8 21.6
292(9) 0.01172 269.8 22.3
311(10) 0.01089 269.8 23.0
279(9) 0.01337 269.8 23.8
307(9) 0.01138 269.8 24.6
294(9) 0.01230 269.8 25.4
315(10) 0.01085 269.8 26.2
319(10) 0.01102 269.8 27.0
299(9) 0.01243 269.8 27.8
294(9) 0.01195 269.8 28.4
298(9) 0.01136 269.8 29.0
308(9) 0.01124 269.8 29.5
316(9) 0.01115 269.8 29.9
292(9) 0.01273 269.8 30.1
285(9) 0.01223 269.8 30.1
305(10) 0.01073 269.8 30.0
302(9) 0.01145 269.8 29.7
297(9) 0.01220 269.8 29.3
282(9) 0.01311 269.8 28.8
299(9) 0.01153 269.8 28.1
285(9) 0.01213 269.8 27.4
292(9) 0.01214 269.8 26.5
299(9) 0.01208 269.8 25.7
262(8) 0.01424 269.8 24.8
279(9) 0.01237 269.8 23.9
270(9) 0.01244 269.8 23.0
292(9) 0.01227 269.8 22.2
285(9) 0.01299 269.8 21.3
298(9) 0.01218 269.8 20.5
300(9) 0.01142 269.8 19.8
297(10) 0.01108 269.8 19.1
290(9) 0.01227 269.8 18.4
268(9) 0.01383 269.8 17.8
287(9) 0.01244 269.8 17.2
288(9) 0.01204 269.8 16.7
291(9) 0.01128 269.8 16.2
295(9) 0.01187 269.8 15.8
273(9) 0.01357 269.8 15.4
278(9) 0.01341 269.8 15.1
289(9) 0.01165 269.8 14.8
266(9) 0.01262 269.8 14.5
280(9) 0.01239 269.8 14.3
305(9) 0.01218 269.8 14.1
268(8) 0.01396 269.8 14.0
294(9) 0.01194 269.8 13.9
295(10) 0.01087 269.8 13.8
272(9) 0.01264 269.8 13.7
279(9) 0.01338 269.8 13.7
307(9) 0.01191 269.8 13.8
286(9) 0.01211 269.8 13.8
307(10) 0.01044 269.8 13.9
276(9) 0.01240 269.8 14.0
275(9) 0.01364 269.8 14.2
276(9) 0.01286 269.8 14.4
281(9) 0.01214 269.8 14.7
294(9) 0.01165 269.8 14.9
306(9) 0.01120 269.8 15.3
286(9) 0.01309 269.8 15.6
317(9) 0.01123 269.8 16.0
290(9) 0.01160 269.8 16.5
278(9) 0.01217 269.8 17.0
286(9) 0.01228 269.8 17.5
299(9) 0.01238 269.8 18.1
300(9) 0.01173 269.8 18.8
282(9) 0.01238 269.8 19.5
298(9) 0.01189 269.8 20.2
292(9) 0.01236 269.8 21.0
296(9) 0.01262 269.8 21.8
316(9) 0.01114 269.8 22.7
299(9) 0.01161 269.8 23.6
281(9) 0.01258 269.8 24.5
302(9) 0.01185 269.8 25.4
328(9) 0.01131 269.8 26.3
298(9) 0.01156 269.8 27.1
296(10) 0.01104 269.8 27.9
311(10) 0.01099 269.8 28.6
295(9) 0.01266 269.8 29.2
287(9) 0.01275 269.8 29.8
297(9) 0.01179 269.8 30.1
296(9) 0.01111 269.8 30.4
302(9) 0.01132 269.8 30.6
317(9) 0.01165 269.8 30.6
292(9) 0.01280 269.8 30.6
302(9) 0.01146 269.8 30.5
322(10) 0.01004 269.8 30.3
328(10) 0.01072 269.8 30.1
287(9) 0.01284 269.8 29.9
315(9) 0.01147 269.8 29.7
300(9) 0.01159 269.8 29.5
300(10) 0.01101 269.8 29.4
307(9) 0.01146 269.8 29.3
300(9) 0.01243 269.8 29.3
326(9) 0.01146 269.8 29.3
322(10) 0.01089 269.8 29.4
316(10) 0.01080 269.8 29.6
307(9) 0.01133 269.8 29.8
302(9) 0.01229 269.8 30.0
314(9) 0.01162 269.8 30.3
308(9) 0.01178 269.8 30.7
309(10) 0.01091 269.8 31.1
301(9) 0.01142 269.8 31.5
315(9) 0.01185 269.8 31.9
311(9) 0.01149 269.8 32.3
295(9) 0.01212 269.8 32.8
304(9) 0.01129 269.8 33.2
314(9) 0.01109 269.8 33.5
323(9) 0.01177 269.8 33.9
334(10) 0.01084 269.8 34.1
329(10) 0.01032 269.8 34.3
327(10) 0.01029 269.8 34.4
320(9) 0.01131 269.8 34.5
317(9) 0.01174 269.8 34.4
310(10) 0.01104 269.8 34.3
308(10) 0.01101 269.8 34.0
294(9) 0.01204 269.8 33.7
304(9) 0.01178 269.8 33.2
313(9) 0.01199 269.8 32.7
308(9) 0.01128 269.8 32.2
311(10) 0.01084 269.8 31.5
300(9) 0.01140 269.8 30.9
308(9) 0.01153 269.8 30.1
314(9) 0.01191 269.8 29.4
292(9) 0.01201 269.8 28.6
290(9) 0.01142 269.8 27.9
295(9) 0.01192 269.8 27.1
303(9) 0.01228 269.8 26.3
310(9) 0.01192 269.8 25.6
290(9) 0.01175 269.8 24.9
313(10) 0.01010 269.8 24.2
294(9) 0.01177 269.8 23.5
287(9) 0.01299 269.8 22.9
284(9) 0.01296 269.8 22.3
295(9) 0.01127 269.8 21.7
274(9) 0.01131 269.8 21.2
272(9) 0.01243 269.8 20.7
272(9) 0.01340 269.8 20.2
282(9) 0.01321 269.8 19.8
276(9) 0.01262 269.8 19.4
286(9) 0.01152 269.8 19.0
293(9) 0.01181 269.8 18.7
281(9) 0.01338 269.8 18.3
296(9) 0.01227 269.8 18.0
278(9) 0.01293 269.8 17.8
305(10) 0.01049 269.8 17.5
303(9) 0.01114 269.8 17.3
296(9) 0.01255 269.8 17.1
287(9) 0.01271 269.8 16.9
295(9) 0.01187 269.8 16.7
294(9) 0.01127 269.8 16.6
287(9) 0.01182 269.8 16.4
275(9) 0.01354 269.8 16.3
294(9) 0.01273 269.8 16.2
292(9) 0.01117 269.8 16.2
282(9) 0.01202 269.8 16.1
269(9) 0.01292 269.8 16.1
288(9) 0.01300 269.8 16.1
297(9) 0.01195 269.8 16.1
299(10) 0.01100 269.8 16.2
301(9) 0.01128 269.8 16.3
298(9) 0.01229 269.8 16.4
293(9) 0.01270 269.8 16.5
310(9) 0.01122 269.8 16.7
298(9) 0.01127 269.8 16.9
287(9) 0.01173 269.8 17.1
279(9) 0.01295 269.8 17.3
309(9) 0.01201 269.8 17.6
324(10) 0.01040 269.8 17.9
294(9) 0.01139 269.8 18.3
294(9) 0.01162 269.8 18.6
280(9) 0.01299 269.8 19.0
274(9) 0.01355 269.8 19.4
308(10) 0.01085 269.8 19.9
312(10) 0.01023 269.8 20.3
302(9) 0.01126 269.8 20.8
293(9) 0.01245 269.8 21.3
317(9) 0.01168 269.8 21.8
301(9) 0.01151 269.8 22.4
295(9) 0.01117 269.8 22.9
302(9) 0.01148 269.8 23.4
300(9) 0.01186 269.8 23.9
314(9) 0.01184 269.8 24.4
299(9) 0.01172 269.8 24.9
294(10) 0.01076 269.8 25.4
279(9) 0.01231 269.8 25.8
287(9) 0.01263 269.8 26.2
300(9) 0.01251 269.8 26.6
309(9) 0.01165 269.8 26.9
306(10) 0.01041 269.8 27.1
286(9) 0.01240 269.8 27.3
293(9) 0.01271 269.8 27.5
288(9) 0.01296 269.8 27.6
297(9) 0.01176 269.8 27.6
299(9) 0.01113 269.8 27.6
301(9) 0.01141 269.8 27.5
290(9) 0.01283 269.8 27.4
304(9) 0.01184 269.8 27.3
302(9) 0.01171 269.8 27.1
283(9) 0.01221 269.8 27.0
301(9) 0.01156 269.8 26.8
295(9) 0.01260 269.8 26.6
287(9) 0.01223 269.8 26.4
299(9) 0.01161 269.8 26.2
283(9) 0.01184 269.8 26.0
291(9) 0.01153 269.8 25.8
329(9) 0.01123 269.8 25.6
323(10) 0.01093 269.8 25.4
300(9) 0.01166 269.8 25.2
306(9) 0.01131 269.8 25.1
311(9) 0.01162 269.8 24.9
296(9) 0.01270 269.8 24.7
308(10) 0.01073 269.8 24.5
293(9) 0.01185 269.8 24.3
302(9) 0.01143 269.8 24.1
293(9) 0.01219 269.8 23.9
299(9) 0.01246 269.8 23.6
273(9) 0.01323 269.8 23.4
276(9) 0.01271 269.8 23.1
287(9) 0.01229 269.8 22.8
312(9) 0.01164 269.8 22.5
276(9) 0.01351 269.8 22.1
304(9) 0.01167 269.8 21.8
303(9) 0.01128 269.8 21.4
303(9) 0.01122 269.8 21.0
293(9) 0.01203 269.8 20.5
297(9) 0.01243 269.8 20.1
278(9) 0.01271 269.8 19.7
307(10) 0.01066 269.8 19.2
296(9) 0.01189 269.8 18.8
279(9) 0.01320 269.8 18.3
281(9) 0.01325 269.8 17.9
275(9) 0.01261 269.8 17.5
296(10) 0.01098 269.8 17.0
285(9) 0.01264 269.8 16.6
302(9) 0.01247 269.8 16.2
288(9) 0.01282 269.8 15.8
294(9) 0.01144 269.8 15.5
270(9) 0.01218 269.8 15.1
288(9) 0.01211 269.8 14.8
313(9) 0.01178 269.8 14.4
278(9) 0.01334 269.8 14.1
276(9) 0.01248 269.8 13.8
290(9) 0.01166 269.8 13.5
314(9) 0.01113 269.8 13.3
272(9) 0.01365 269.8 13.0
261(8) 0.01402 269.8 12.8
278(9) 0.01257 269.8 12.6
271(9) 0.01222 269.8 12.4
277(9) 0.01240 269.8 12.2
263(8) 0.01400 269.8 12.0
294(9) 0.01195 269.8 11.8
283(9) 0.01217 269.8 11.7
295(10) 0.01085 269.8 11.5
310(9) 0.01111 269.8 11.4
272(9) 0.01368 269.8 11.3
295(9) 0.01190 269.8 11.2
270(9) 0.01278 269.8 11.1
290(9) 0.01188 269.8 11.0
291(9) 0.01218 269.8 10.9
273(9) 0.01355 269.8 10.9
296(9) 0.01211 269.8 10.8
295(9) 0.01210 269.8 10.7
278(9) 0.01218 269.8 10.7
285(9) 0.01224 269.8 10.6
293(9) 0.01264 269.8 10.6
279(9) 0.01259 269.8 10.6
278(9) 0.01233 269.8 10.5
265(9) 0.01335 269.8 10.5
284(9) 0.01304 269.8 10.5
298(9) 0.01233 269.8 10.5
264(9) 0.01340 269.8 10.5
289(9) 0.01155 269.8 10.4
283(9) 0.01253 269.8 10.4
266(8) 0.01393 269.8 10.4
277(9) 0.01332 269.8 10.4
292(9) 0.01197 269.8 10.5
252(9) 0.01345 269.9 10.5
276(9) 0.01264 269.9 10.5
253(8) 0.01446 269.9 10.5
276(9) 0.01354 269.9 10.5
302(9) 0.01121 269.9 10.6
290(10) 0.01089 269.9 10.6
287(9) 0.01186 269.9 10.7
280(9) 0.01319 269.9 10.7
266(8) 0.01398 269.9 10.8
281(9) 0.01276 269.9 10.9
265(9) 0.01182 269.9 10.9
297(9) 0.01126 269.9 11.0
281(9) 0.01325 270.0 11.1
279(9) 0.01326 270.0 11.2
276(9) 0.01297 270.0 11.3
271(9) 0.01148 270.0 11.5
259(9) 0.01315 270.0 11.6
264(8) 0.01401 270.0 11.7
284(9) 0.01317 270.0 11.8
299(9) 0.01188 270.0 12.0
289(9) 0.01175 270.0 12.1
290(9) 0.01184 270.0 12.3
257(8) 0.01446 270.0 12.4
288(9) 0.01266 270.0 12.6
303(9) 0.01159 270.1 12.8
275(9) 0.01227 270.1 12.9
270(9) 0.01243 270.1 13.1
277(9) 0.01351 270.1 13.2
294(9) 0.01244 270.1 13.4
278(9) 0.01228 270.1 13.6
269(9) 0.01259 270.1 13.7
296(9) 0.01173 270.1 13.9
294(9) 0.01266 270.1 14.0
294(9) 0.01229 270.1 14.2
271(9) 0.01263 270.1 14.4
276(9) 0.01210 270.1 14.6
311(9) 0.01112 270.2 14.8
319(9) 0.01168 270.2 14.9
278(9) 0.01266 270.2 15.2
290(9) 0.01174 270.2 15.4
299(9) 0.01132 270.2 15.6
270(9) 0.01291 270.2 15.8
303(9) 0.01228 270.2 16.1
298(9) 0.01167 270.2 16.3
317(10) 0.01088 270.2 16.6
298(9) 0.01193 270.2 16.9
284(9) 0.01315 270.2 17.2
287(9) 0.01290 270.2 17.5
291(9) 0.01182 270.3 17.8
298(10) 0.01106 270.3 18.1
278(9) 0.01320 270.3 18.5
299(9) 0.01226 270.3 18.8
295(9) 0.01242 270.3 19.2
304(9) 0.01112 270.3 19.5
306(10) 0.01031 270.3 19.9
280(9) 0.01203 270.3 20.3
289(9) 0.01250 270.3 20.7
307(9) 0.01211 270.3 21.2
281(9) 0.01254 270.3 21.6
280(9) 0.01142 270.3 22.1
286(9) 0.01226 270.4 22.6
289(9) 0.01284 270.4 23.0
307(9) 0.01190 270.4 23.6
297(9) 0.01153 270.4 24.1
295(10) 0.01088 270.4 24.6
283(9) 0.01221 270.4 25.2
322(9) 0.01137 270.4 25.8
307(9) 0.01188 270.4 26.4
293(9) 0.01152 270.4 27.1
294(9) 0.01113 270.4 27.9
291(9) 0.01208 270.4 28.7
304(9) 0.01215 270.4 29.7
313(9) 0.01184 270.5 30.8
307(9) 0.01134 270.5 32.1
326(10) 0.01021 270.5 33.6
305(9) 0.01162 270.5 35.4
308(9) 0.01210 270.5 37.5
314(9) 0.01135 270.5 39.9
309(9) 0.01126 270.5 42.7
328(10) 0.00997 270.5 45.8
316(9) 0.01120 270.5 49.1
320(9) 0.01163 270.5 52.6
323(9) 0.01131 270.5 56.2
325(10) 0.01044 270.6 59.5
346(10) 0.00964 270.6 62.3
344(10) 0.01010 270.6 64.3
312(9) 0.01189 270.6 65.2
300(9) 0.01166 270.6 64.7
312(9) 0.01110 270.6 62.9
322(10) 0.01076 270.6 60.1
309(9) 0.01148 270.6 56.5
321(9) 0.01147 270.6 52.5
304(9) 0.01160 270.6 48.4
295(9) 0.01178 270.6 44.3
305(10) 0.01089 270.6 40.5
297(9) 0.01232 270.7 37.0
300(9) 0.01229 270.7 33.9
287(9) 0.01189 270.7 31.2
311(10) 0.01008 270.7 28.8
296(9) 0.01144 270.7 26.7
281(9) 0.01312 270.7 25.0
290(9) 0.01266 270.7 23.5
281(9) 0.01193 270.7 22.2
283(9) 0.01179 270.7 21.1
300(9) 0.01143 270.7 20.2
281(9) 0.01321 270.7 19.3
293(9) 0.01242 270.7 18.6
280(9) 0.01212 270.8 17.9
270(9) 0.01188 270.8 17.3
304(10) 0.01087 270.8 16.7
263(8) 0.01401 270.8 16.2
301(9) 0.01217 270.8 15.7
275(9) 0.01265 270.8 15.2
278(9) 0.01132 270.8 14.7
280(9) 0.01229 270.8 14.3
264(9) 0.01380 270.8 13.9
277(9) 0.01328 270.8 13.6
272(9) 0.01319 270.8 13.2
269(9) 0.01258 270.8 12.9
277(9) 0.01272 270.9 12.5
310(9) 0.01205 270.9 12.2
271(9) 0.01333 270.9 11.9
277(9) 0.01267 270.9 11.7
284(9) 0.01189 270.9 11.4
287(9) 0.01205 270.9 11.1
276(9) 0.01329 270.9 10.9
285(9) 0.01293 270.9 10.7
272(9) 0.01270 270.9 10.5
279(9) 0.01209 270.9 10.3
304(9) 0.01145 270.9 10.1
274(9) 0.01366 270.9 9.9
284(9) 0.01232 271.0 9.7
252(9) 0.01361 271.0 9.5
281(9) 0.01217 271.0 9.4
281(9) 0.01284 271.0 9.2
293(9) 0.01249 271.0 9.1
281(9) 0.01287 271.0 9.0
274(9) 0.01234 271.0 8.9
284(9) 0.01190 271.0 8.7
284(9) 0.01253 271.0 8.6
278(9) 0.01344 271.0 8.5
287(9) 0.01230 271.0 8.4
300(9) 0.01134 271.0 8.4
282(9) 0.01226 271.1 8.3
276(9) 0.01289 271.1 8.2
252(8) 0.01469 271.1 8.1
278(9) 0.01171 271.1 8.1
270(9) 0.01244 271.1 8.0
282(9) 0.01226 271.1 8.0
272(9) 0.01330 271.1 7.9
260(8) 0.01438 271.1 7.9
289(9) 0.01187 271.1 7.8
289(9) 0.01126 271.1 7.8
283(9) 0.01268 271.1 7.8
283(9) 0.01306 271.1 7.8
291(9) 0.01279 271.2 7.7
276(9) 0.01237 271.2 7.7
254(9) 0.01265 271.2 7.7
285(9) 0.01204 271.2 7.7
283(9) 0.01300 271.2 7.7
271(9) 0.01357 271.2 7.7
301(9) 0.01157 271.2 7.7
259(9) 0.01320 271.2 7.8
266(9) 0.01276 271.2 7.8
257(8) 0.01448 271.2 7.8
263(8) 0.01406 271.2 7.8
283(9) 0.01208 271.2 7.9
287(9) 0.01133 271.3 7.9
275(9) 0.01300 271.3 7.9
271(9) 0.01367 271.3 8.0
280(9) 0.01284 271.3 8.0
285(9) 0.01206 271.3 8.1
286(9) 0.01140 271.3 8.1
280(9) 0.01255 271.3 8.2
283(9) 0.01331 271.3 8.2
319(9) 0.01123 271.3 8.3
262(9) 0.01345 271.3 8.4
277(9) 0.01202 271.3 8.4
310(10) 0.01081 271.3 8.5
287(9) 0.01310 271.4 8.6
287(9) 0.01225 271.4 8.7
277(9) 0.01287 271.4 8.8
293(9) 0.01170 271.4 8.9
269(9) 0.01322 271.4 9.0
315(9) 0.01181 271.4 9.1
285(9) 0.01235 271.4 9.2
283(9) 0.01146 271.4 9.4
282(9) 0.01211 271.4 9.6
281(9) 0.01239 271.4 9.9
278(9) 0.01325 271.4 10.2
295(9) 0.01179 271.4 10.5
290(9) 0.01156 271.5 11.0
278(9) 0.01232 271.5 11.6
286(9) 0.01269 271.5 12.4
284(9) 0.01302 271.5 13.4
296(9) 0.01162 271.5 14.7
283(9) 0.01179 271.5 16.2
290(9) 0.01251 271.5 18.1
308(9) 0.01163 271.5 20.2
292(9) 0.01277 271.5 22.6
278(9) 0.01265 271.5 25.3
327(10) 0.01008 271.5 28.2
307(9) 0.01154 271.5 31.0
329(10) 0.01106 271.6 33.7
325(9) 0.01148 271.6 35.9
298(9) 0.01222 271.6 37.6
319(10) 0.01009 271.6 38.5
279(9) 0.01309 271.6 38.7
303(9) 0.01179 271.6 38.2
314(9) 0.01206 271.6 37.5
340(10) 0.01022 271.6 36.6
317(10) 0.01007 271.6 35.7
309(9) 0.01158 271.6 35.1
304(9) 0.01236 271.6 34.7
326(9) 0.01118 271.6 34.6
321(9) 0.01110 271.7 34.6
327(10) 0.00965 271.7 34.8
294(9) 0.01170 271.7 34.9
304(9) 0.01228 271.7 34.8
297(9) 0.01224 271.7 34.5
292(9) 0.01200 271.7 33.8
319(10) 0.00988 271.7 32.6
281(9) 0.01209 271.7 31.2
277(9) 0.01331 271.7 29.4
290(9) 0.01270 271.7 27.6
327(10) 0.01067 271.7 25.6
298(9) 0.01140 271.7 23.7
301(9) 0.01136 271.8 21.9
282(9) 0.01318 271.8 20.1
278(9) 0.01311 271.8 18.5
265(9) 0.01320 271.8 17.1
288(9) 0.01175 271.8 15.8
292(9) 0.01175 271.8 14.6
295(9) 0.01252 271.8 13.6
290(9) 0.01221 271.8 12.7
300(9) 0.01121 271.8 11.9
283(9) 0.01212 271.8 11.3
267(9) 0.01326 271.8 10.7
276(9) 0.01343 271.9 10.2
268(9) 0.01286 271.9 9.8
276(9) 0.01226 271.9 9.4
282(9) 0.01226 271.9 9.1
294(9) 0.01179 271.9 8.9
276(9) 0.01351 271.9 8.6
279(9) 0.01261 271.9 8.4
296(9) 0.01124 271.9 8.2
297(9) 0.01132 271.9 8.1
288(9) 0.01291 271.9 7.9
275(9) 0.01352 271.9 7.8
271(9) 0.01320 271.9 7.7
296(9) 0.01130 272.0 7.6
287(9) 0.01168 272.0 7.5
272(9) 0.01359 272.0 7.4
260(8) 0.01453 272.0 7.3
291(9) 0.01171 272.0 7.2
279(9) 0.01195 272.0 7.1
267(9) 0.01331 272.0 7.1
275(9) 0.01361 272.0 7.1
258(8) 0.01456 272.0 7.1
288(9) 0.01216 272.0 7.1
304(10) 0.01047 272.0 7.2
312(9) 0.01125 272.0 7.3
282(9) 0.01326 272.1 7.5
309(9) 0.01186 272.1 7.7
275(9) 0.01287 272.1 8.0
292(9) 0.01111 272.1 8.2
275(9) 0.01288 272.1 8.5
281(9) 0.01314 272.1 8.8
294(9) 0.01254 272.1 9.0
297(9) 0.01144 272.1 9.0
296(9) 0.01119 272.1 9.0
285(9) 0.01242 272.1 8.8
278(9) 0.01341 272.1 8.5
266(8) 0.01417 272.1 8.2
271(9) 0.01313 272.2 7.8
285(9) 0.01188 272.2 7.4
280(9) 0.01195 272.2 7.1
278(9) 0.01334 272.2 6.8
270(9) 0.01342 272.2 6.5
300(9) 0.01135 272.2 6.3
271(9) 0.01296 272.2 6.2
291(9) 0.01161 272.2 6.1
290(9) 0.01278 272.2 6.0
287(9) 0.01214 272.2 6.0
306(9) 0.01116 272.2 6.0
271(9) 0.01299 272.2 6.0
279(9) 0.01239 272.3 6.0
286(9) 0.01299 272.3 6.1
294(9) 0.01211 272.3 6.1
268(9) 0.01333 272.3 6.2
269(9) 0.01260 272.3 6.2
293(9) 0.01213 272.3 6.3
292(9) 0.01272 272.3 6.4
286(9) 0.01205 272.3 6.4
274(9) 0.01196 272.3 6.5
260(9) 0.01360 272.3 6.5
296(9) 0.01227 272.3 6.5
281(9) 0.01306 272.3 6.5
296(9) 0.01145 272.4 6.5
319(10) 0.01007 272.4 6.4
283(9) 0.01250 272.4 6.4
280(9) 0.01298 272.4 6.3
289(9) 0.01288 272.4 6.3
286(9) 0.01147 272.4 6.2
295(9) 0.01134 272.4 6.1
288(9) 0.01263 272.4 6.1
285(9) 0.01269 272.4 6.0
300(9) 0.01210 272.4 5.9
264(9) 0.01356 272.4 5.9
271(9) 0.01224 272.4 5.9
289(9) 0.01234 272.5 5.8
289(9) 0.01282 272.5 5.8
275(9) 0.01322 272.5 5.8
279(9) 0.01256 272.5 5.8
281(9) 0.01170 272.5 5.8
293(9) 0.01175 272.5 5.8
300(9) 0.01262 272.5 5.9
300(9) 0.01221 272.5 5.9
301(9) 0.01160 272.5 5.9
280(9) 0.01197 272.5 6.0
292(9) 0.01206 272.5 6.0
302(9) 0.01221 272.6 6.1
281(9) 0.01339 272.7 6.1
296(9) 0.01179 272.8 6.2
300(9) 0.01116 272.9 6.3
265(9) 0.01315 273.0 6.3
291(9) 0.01284 273.1 6.4
279(9) 0.01303 273.2 6.5
286(9) 0.01167 273.3 6.6
275(9) 0.01248 273.3 6.7
297(9) 0.01137 273.4 6.9
274(9) 0.01361 273.5 7.0
281(9) 0.01280 273.6 7.2
276(9) 0.01220 273.7 7.3
274(9) 0.01191 273.8 7.5
266(9) 0.01372 273.9 7.7
290(9) 0.01270 274.0 7.9
295(9) 0.01205 274.1 8.1
291(9) 0.01144 274.2 8.4
290(9) 0.01169 274.3 8.6
285(9) 0.01253 274.4 8.9
298(9) 0.01249 274.4 9.2
271(9) 0.01327 274.5 9.6
292(9) 0.01129 274.6 10.0
299(9) 0.01117 274.7 10.4
294(9) 0.01231 274.8 10.8
287(9) 0.01308 274.9 11.3
291(9) 0.01177 275.0 11.8
291(9) 0.01113 275.1 12.3
286(9) 0.01212 275.2 12.8
281(9) 0.01282 275.3 13.4
294(9) 0.01280 275.4 13.9
307(9) 0.01155 275.5 14.5
291(9) 0.01169 275.5 15.0
309(10) 0.01106 275.6 15.4
283(9) 0.01304 275.7 15.8
304(9) 0.01226 275.8 16.2
276(9) 0.01286 275.9 16.4
286(9) 0.01150 276.0 16.6
285(9) 0.01237 276.1 16.6
285(9) 0.01270 276.2 16.6
283(9) 0.01325 276.3 16.6
310(9) 0.01124 276.4 16.5
297(10) 0.01083 276.5 16.4
310(9) 0.01131 276.6 16.2
289(9) 0.01286 276.6 16.1
273(9) 0.01329 276.7 16.0
289(9) 0.01214 276.8 15.9
309(10) 0.01024 276.9 15.8
299(9) 0.01239 277.0 15.8
302(9) 0.01191 277.1 15.8
276(9) 0.01317 277.2 15.8
338(10) 0.00956 277.3 15.8
272(9) 0.01317 277.4 15.9
300(9) 0.01250 277.5 16.0
271(9) 0.01359 277.6 16.1
318(10) 0.01051 277.7 16.3
291(9) 0.01142 277.7 16.4
286(9) 0.01174 277.8 16.6
275(9) 0.01359 277.9 16.8
301(9) 0.01180 278.0 17.0
322(10) 0.01083 278.1 17.2
285(9) 0.01221 278.2 17.4
301(9) 0.01132 278.3 17.6
308(9) 0.01213 278.4 17.8
303(9) 0.01175 278.5 18.1
284(9) 0.01258 278.6 18.3
300(9) 0.01157 278.7 18.5
329(10) 0.01075 278.8 18.7
313(9) 0.01184 278.8 18.9
311(9) 0.01115 278.9 19.0
292(9) 0.01119 279.0 19.2
297(9) 0.01122 279.1 19.3
294(9) 0.01220 279.2 19.4
338(10) 0.01106 279.3 19.4
327(10) 0.01066 279.4 19.5
315(10) 0.01087 279.5 19.6
308(9) 0.01110 279.6 19.7
296(9) 0.01212 279.7 19.8
296(9) 0.01254 279.8 19.9
287(9) 0.01229 279.9 20.0
300(9) 0.01160 279.9 20.1
312(9) 0.01145 280.0 20.3
318(9) 0.01170 280.1 20.4
341(10) 0.01069 280.2 20.5
302(9) 0.01181 280.3 20.7
292(9) 0.01136 280.4 20.8
280(9) 0.01238 280.5 20.9
299(9) 0.01237 280.6 21.0
289(9) 0.01269 280.7 21.0
292(9) 0.01211 280.8 21.1
304(10) 0.01072 280.9 21.1
301(9) 0.01128 281.0 21.1
311(9) 0.01161 281.0 21.1
283(9) 0.01326 281.1 21.1
301(9) 0.01163 281.2 21.0
286(9) 0.01180 281.3 20.9
314(10) 0.01107 281.4 20.7
297(9) 0.01265 281.5 20.5
291(9) 0.01227 281.6 20.2
281(9) 0.01254 281.7 19.9
280(9) 0.01199 281.8 19.6
284(9) 0.01208 281.9 19.2
278(9) 0.01351 282.0 18.8
282(9) 0.01278 282.1 18.4
295(9) 0.01165 282.1 18.0
290(9) 0.01171 282.2 17.6
304(10) 0.01086 282.3 17.2
313(9) 0.01177 282.4 16.8
327(9) 0.01110 282.5 16.4
294(9) 0.01211 282.6 16.0
288(9) 0.01211 282.7 15.7
296(9) 0.01192 282.8 15.3
281(9) 0.01329 282.9 15.0
276(9) 0.01275 283.0 14.7
297(9) 0.01120 283.1 14.4
285(9) 0.01207 283.2 14.2
305(9) 0.01168 283.2 13.9
324(9) 0.01143 283.3 13.7
323(10) 0.01082 283.4 13.5
281(9) 0.01271 283.5 13.3
273(9) 0.01332 283.6 13.1
308(9) 0.01183 283.7 12.9
283(9) 0.01333 283.8 12.7
311(10) 0.01084 283.9 12.5
289(9) 0.01133 284.0 12.4
294(9) 0.01163 284.1 12.2
300(9) 0.01221 284.2 12.0
305(9) 0.01207 284.3 11.9
297(10) 0.01094 284.3 11.8
281(9) 0.01223 284.4 11.6
310(10) 0.01095 284.5 11.5
298(9) 0.01205 284.6 11.4
282(9) 0.01314 284.7 11.2
285(9) 0.01169 284.8 11.1
291(10) 0.01083 284.9 11.0
302(9) 0.01133 285.0 10.9
280(9) 0.01328 285.1 10.8
264(8) 0.01409 285.2 10.7
290(9) 0.01149 285.3 10.6
292(10) 0.01067 285.4 10.5
280(9) 0.01227 285.4 10.5
287(9) 0.01294 285.5 10.4
262(8) 0.01398 285.6 10.3
285(9) 0.01208 285.6 10.3
281(9) 0.01198 285.6 10.2
279(9) 0.01258 285.6 10.1
288(9) 0.01292 285.6 10.1
288(9) 0.01287 285.6 10.1
291(9) 0.01157 285.6 10.0
299(10) 0.01056 285.6 10.0
292(9) 0.01161 285.6 10.0
289(9) 0.01282 285.6 9.9
307(9) 0.01180 285.6 9.9
296(9) 0.01201 285.6 9.9
298(9) 0.01120 285.6 9.9
283(9) 0.01259 285.6 9.9
264(8) 0.01423 285.6 9.9
296(9) 0.01209 285.6 9.9
286(9) 0.01215 285.6 10.0
279(9) 0.01232 285.6 10.0
310(9) 0.01134 285.6 10.0
279(9) 0.01341 285.6 10.1
297(9) 0.01212 285.7 10.1
302(10) 0.01097 285.7 10.2
288(9) 0.01172 285.7 10.3
294(9) 0.01218 285.7 10.4
290(9) 0.01295 285.7 10.5
272(9) 0.01311 285.7 10.6
284(9) 0.01172 285.7 10.8
273(9) 0.01282 285.7 11.0
281(9) 0.01274 285.7 11.3
292(9) 0.01266 285.7 11.6
283(9) 0.01255 285.7 12.0
271(9) 0.01268 285.7 12.4
300(9) 0.01132 285.7 12.9
300(9) 0.01205 285.7 13.5
289(9) 0.01267 285.7 14.1
270(9) 0.01269 285.7 14.9
278(9) 0.01180 285.7 15.7
298(9) 0.01116 285.7 16.5
278(9) 0.01310 285.7 17.5
282(9) 0.01310 285.7 18.5
266(9) 0.01342 285.8 19.4
300(10) 0.01098 285.8 20.4
309(9) 0.01114 285.8 21.3
299(9) 0.01231 285.8 22.0
289(9) 0.01280 285.8 22.5
285(9) 0.01222 285.8 22.9
297(10) 0.01093 285.8 22.9
282(9) 0.01278 285.8 22.7
302(9) 0.01194 285.8 22.3
316(9) 0.01177 285.8 21.8
293(9) 0.01215 285.8 21.1
294(10) 0.01057 285.8 20.5
308(10) 0.01098 285.8 19.8
303(9) 0.01219 285.8 19.2
282(9) 0.01323 285.8 18.7
265(9) 0.01310 285.8 18.3
271(9) 0.01209 285.8 18.0
327(10) 0.00985 285.8 17.8
308(9) 0.01213 285.8 17.8
309(9) 0.01211 285.8 17.8
298(9) 0.01169 285.8 18.0
275(9) 0.01221 285.9 18.3
273(9) 0.01211 285.9 18.7
284(9) 0.01288 285.9 19.3
310(9) 0.01184 285.9 19.9
298(9) 0.01200 285.9 20.6
318(10) 0.01038 285.9 21.4
307(10) 0.01074 285.9 22.2
290(9) 0.01276 285.9 22.9
281(9) 0.01281 285.9 23.7
299(9) 0.01132 285.9 24.4
317(10) 0.01016 285.9 24.9
300(9) 0.01195 285.9 25.3
292(9) 0.01278 285.9 25.5
302(9) 0.01172 285.9 25.6
287(9) 0.01198 285.9 25.5
295(9) 0.01165 285.9 25.5
309(9) 0.01145 285.9 25.3
282(9) 0.01302 285.9 25.2
308(9) 0.01175 285.9 25.2
321(9) 0.01113 285.9 25.2
304(9) 0.01181 286.0 25.2
298(9) 0.01204 286.0 25.3
300(9) 0.01239 286.0 25.6
305(9) 0.01120 286.0 25.9
318(10) 0.01031 286.0 26.3
325(10) 0.01055 286.0 26.8
306(9) 0.01215 286.0 27.4
299(9) 0.01246 286.0 28.2
313(9) 0.01127 286.0 29.0
309(10) 0.01097 286.0 30.0
337(10) 0.00979 286.0 31.2
295(9) 0.01242 286.0 32.5
281(9) 0.01316 286.0 34.1
328(10) 0.01042 286.0 35.8
325(10) 0.01034 286.0 37.8
323(10) 0.01105 286.0 39.9
288(9) 0.01287 286.0 42.3
323(9) 0.01121 286.0 45.0
317(10) 0.01076 286.0 47.7
322(10) 0.01018 286.0 50.7
341(10) 0.01031 286.0 53.6
321(9) 0.01164 286.1 56.5
315(9) 0.01182 286.1 59.2
348(10) 0.00980 286.1 61.6
356(10) 0.00937 286.1 63.5
340(10) 0.01030 286.1 64.8
339(10) 0.01099 286.1 65.6
322(9) 0.01155 286.1 65.9
357(10) 0.00981 286.1 65.9
338(10) 0.00985 286.1 65.7
335(10) 0.01037 286.1 65.4
331(9) 0.01120 286.1 65.1
322(9) 0.01137 286.1 64.8
342(10) 0.01025 286.1 64.5
355(10) 0.00938 286.1 64.1
336(10) 0.01024 286.1 63.7
347(10) 0.01059 286.1 63.4
312(9) 0.01206 286.1 63.1
332(10) 0.01021 286.1 63.0
326(10) 0.01013 286.1 63.2
341(10) 0.00987 286.1 63.6
318(9) 0.01163 286.2 64.3
325(10) 0.01078 286.2 65.3
344(10) 0.01013 286.2 66.6
348(10) 0.00980 286.2 68.2
350(10) 0.01035 286.2 69.9
369(10) 0.01004 286.2 71.7
367(10) 0.00940 286.2 73.5
344(10) 0.00950 286.2 75.2
359(10) 0.00937 286.2 76.7
331(10) 0.01048 286.2 77.9
363(10) 0.01027 286.2 78.6
360(10) 0.00953 286.2 79.0
347(10) 0.00963 286.2 79.0
367(10) 0.00933 286.2 78.6
341(10) 0.01088 286.2 77.9
372(10) 0.00999 286.2 77.0
339(10) 0.01041 286.2 75.8
338(10) 0.01016 286.2 74.6
345(10) 0.00972 286.2 73.3
326(9) 0.01122 286.2 71.9
326(9) 0.01145 286.2 70.6
333(10) 0.01035 286.3 69.1
312(10) 0.01060 286.3 67.7
339(10) 0.01017 286.3 66.1
350(10) 0.01028 286.3 64.6
349(10) 0.01043 286.3 63.0
325(10) 0.01073 286.3 61.3
340(10) 0.00915 286.3 59.6
323(10) 0.01082 286.3 57.9
323(9) 0.01155 286.3 56.1
297(9) 0.01263 286.3 54.3
331(10) 0.01039 286.3 52.5
344(10) 0.00942 286.3 50.6
332(10) 0.01086 286.3 48.7
352(10) 0.01047 286.3 46.9
328(9) 0.01137 286.3 45.0
334(10) 0.00999 286.3 43.2
333(10) 0.00946 286.3 41.4
332(10) 0.01045 286.3 39.6
302(9) 0.01229 286.3 38.0
324(10) 0.01102 286.3 36.4
293(9) 0.01154 286.4 34.9
312(10) 0.01028 286.4 33.6
305(9) 0.01121 286.4 32.4
308(9) 0.01209 286.4 31.2
304(9) 0.01210 286.4 30.2
322(10) 0.01066 286.4 29.2
309(9) 0.01113 286.4 28.4
289(9) 0.01188 286.4 27.7
299(9) 0.01221 286.4 27.0
307(9) 0.01188 286.4 26.4
302(9) 0.01166 286.4 25.9
302(9) 0.01121 286.4 25.5
295(9) 0.01193 286.4 25.1
299(9) 0.01245 286.4 24.8
283(9) 0.01274 286.4 24.6
320(10) 0.01070 286.4 24.4
306(9) 0.01138 286.4 24.2
309(9) 0.01185 286.4 24.2
309(9) 0.01208 286.4 24.1
319(9) 0.01117 286.4 24.1
298(9) 0.01134 286.5 24.1
291(9) 0.01177 286.5 24.2
306(9) 0.01185 286.5 24.2
304(9) 0.01221 286.5 24.3
304(9) 0.01170 286.5 24.4
295(9) 0.01114 286.5 24.5
314(10) 0.01091 286.5 24.6
296(9) 0.01240 286.5 24.7
290(9) 0.01292 286.5 24.9
299(10) 0.01106 286.5 25.1
305(10) 0.01061 286.5 25.4
302(9) 0.01125 286.5 25.7
306(9) 0.01207 286.5 26.0
306(9) 0.01203 286.5 26.5
302(9) 0.01172 286.5 27.0
285(9) 0.01182 286.5 27.6
300(9) 0.01163 286.5 28.3
291(9) 0.01270 286.5 29.0
304(9) 0.01214 286.5 29.8
328(10) 0.01039 286.5 30.7
295(9) 0.01148 286.5 31.7
309(9) 0.01144 286.6 32.7
324(9) 0.01149 286.6 33.8
306(9) 0.01202 286.6 34.8
327(10) 0.01045 286.6 35.8
336(10) 0.00949 286.6 36.8
323(10) 0.01076 286.6 37.7
348(10) 0.01067 286.6 38.4
333(10) 0.01096 286.6 39.0
339(10) 0.01026 286.6 39.3
340(10) 0.00965 286.6 39.4
340(10) 0.00988 286.6 39.2
315(9) 0.01185 286.6 38.7
326(9) 0.01116 286.6 38.0
320(10) 0.01101 286.6 37.0
343(10) 0.00952 286.6 35.8
309(9) 0.01123 286.6 34.5
317(9) 0.01176 286.6 33.1
302(9) 0.01178 286.6 31.8
322(10) 0.01036 286.6 30.4
320(10) 0.01044 286.6 29.1
303(9) 0.01200 286.7 27.9
310(9) 0.01188 286.7 26.7
322(9) 0.01136 286.7 25.7
290(9) 0.01236 286.7 24.8
317(10) 0.01091 286.7 24.0
294(9) 0.01226 286.7 23.4
293(9) 0.01261 286.7 22.8
290(9) 0.01186 286.7 22.4
299(9) 0.01133 286.7 22.1
309(10) 0.01075 286.7 21.9
290(9) 0.01234 286.7 21.8
298(9) 0.01246 286.7 21.8
313(10) 0.01098 286.7 22.0
302(9) 0.01125 286.7 22.2
305(10) 0.01102 286.7 22.6
291(9) 0.01222 286.7 23.1
299(9) 0.01262 286.7 23.7
319(10) 0.01097 286.7 24.4
336(10) 0.00983 286.7 25.2
323(10) 0.01095 286.7 26.1
308(9) 0.01208 286.7 27.2
286(9) 0.01304 286.8 28.3
304(9) 0.01128 286.8 29.6
304(9) 0.01110 286.8 30.9
334(10) 0.01061 286.8 32.4
302(9) 0.01247 286.8 33.9
318(9) 0.01147 286.8 35.5
317(9) 0.01124 286.8 37.1
340(10) 0.00935 286.8 38.7
319(9) 0.01142 286.8 40.3
307(9) 0.01207 286.8 41.8
315(9) 0.01166 286.8 43.1
334(10) 0.01047 286.8 44.3
324(10) 0.01038 286.8 45.2
322(10) 0.01092 286.8 45.8
340(10) 0.01099 286.8 46.0
306(9) 0.01227 286.8 45.9
336(10) 0.00979 286.8 45.4
318(10) 0.01016 286.8 44.6
332(10) 0.01018 286.8 43.5
318(9) 0.01171 286.8 42.2
333(10) 0.01083 286.9 40.7
331(10) 0.01016 286.9 39.0
316(10) 0.01045 286.9 37.3
305(10) 0.01089 286.9 35.5
302(9) 0.01229 286.9 33.8
323(10) 0.01105 286.9 32.1
294(9) 0.01180 286.9 30.4
307(10) 0.01101 286.9 28.9
324(9) 0.01110 286.9 27.4
318(9) 0.01165 286.9 26.0
296(9) 0.01248 286.9 24.8
334(10) 0.01051 286.9 23.6
307(9) 0.01132 286.9 22.6
338(10) 0.01034 286.9 21.6
318(9) 0.01187 286.9 20.8
305(9) 0.01122 286.9 20.0
306(10) 0.01097 286.9 19.4
294(9) 0.01158 286.9 18.8
289(9) 0.01269 286.9 18.4
311(9) 0.01195 286.9 18.0
302(10) 0.01088 287.0 17.7
270(9) 0.01261 287.0 17.5
282(9) 0.01204 287.0 17.4
314(9) 0.01170 287.0 17.3
298(9) 0.01249 287.0 17.4
297(9) 0.01145 287.0 17.5
295(9) 0.01172 287.0 17.7
299(9) 0.01160 287.0 18.0
297(9) 0.01238 287.0 18.4
293(9) 0.01267 287.0 18.8
316(10) 0.01062 287.0 19.4
318(10) 0.00995 287.0 20.0
292(9) 0.01220 287.0 20.7
330(9) 0.01111 287.0 21.5
297(9) 0.01250 287.0 22.3
325(10) 0.01042 287.0 23.3
290(9) 0.01175 287.0 24.2
312(9) 0.01112 287.0 25.3
322(9) 0.01154 287.0 26.3
311(9) 0.01183 287.0 27.4
278(9) 0.01256 287.0 28.4
298(10) 0.01106 287.1 29.4
336(10) 0.00991 287.1 30.2
314(9) 0.01199 287.1 30.9
347(10) 0.01031 287.1 31.5
322(10) 0.01084 287.1 31.8
342(10) 0.00956 287.1 31.8
327(10) 0.01073 287.1 31.7
301(9) 0.01246 287.1 31.3
310(9) 0.01177 287.1 30.7
322(10) 0.01086 287.1 29.9
340(10) 0.00991 287.1 29.0
315(9) 0.01119 287.1 28.1
336(10) 0.01098 287.1 27.1
331(9) 0.01122 287.1 26.0
308(9) 0.01129 287.1 25.1
286(9) 0.01179 287.1 24.1
314(9) 0.01123 287.1 23.2
303(9) 0.01211 287.1 22.4
318(10) 0.01107 287.1 21.7
306(10) 0.01095 287.1 21.1
297(9) 0.01160 287.2 20.5
322(10) 0.01094 287.2 20.1
281(9) 0.01319 287.2 19.7
311(10) 0.01069 287.2 19.4
304(10) 0.01078 287.2 19.2
311(10) 0.01108 287.2 19.0
306(9) 0.01149 287.2 18.9
313(9) 0.01197 287.2 18.8
306(9) 0.01134 287.2 18.7
319(10) 0.01026 287.2 18.6
287(9) 0.01242 287.2 18.6
309(9) 0.01208 287.2 18.5
311(9) 0.01181 287.2 18.3
317(10) 0.01087 287.2 18.2
299(9) 0.01114 287.2 18.1
284(9) 0.01249 287.2 18.0
302(9) 0.01210 287.2 17.8
331(9) 0.01115 287.2 17.7
346(10) 0.00973 287.2 17.7
298(9) 0.01109 287.2 17.6
283(9) 0.01261 287.2 17.6
288(9) 0.01280 287.3 17.5
314(9) 0.01181 287.3 17.5
278(9) 0.01289 287.3 17.5
306(10) 0.01017 287.3 17.5
302(9) 0.01152 287.3 17.5
305(9) 0.01213 287.3 17.5
290(9) 0.01284 287.3 17.6
314(10) 0.01103 287.3 17.7
319(10) 0.01006 287.3 17.8
311(9) 0.01133 287.3 17.9
315(9) 0.01155 287.3 18.1
287(9) 0.01291 287.3 18.3
312(10) 0.01077 287.3 18.5
300(10) 0.01096 287.3 18.7
309(10) 0.01084 287.3 18.9
289(9) 0.01280 287.3 18.9
279(9) 0.01287 287.3 18.9
279(9) 0.01278 287.3 18.8
308(10) 0.01083 287.3 18.6
296(9) 0.01175 287.3 18.2
305(9) 0.01221 287.4 17.8
328(10) 0.01105 287.4 17.3
323(10) 0.01081 287.4 16.7
322(10) 0.01060 287.4 16.2
288(9) 0.01200 287.4 15.6
294(9) 0.01261 287.4 15.1
261(9) 0.01362 287.4 14.6
285(9) 0.01198 287.4 14.1
282(9) 0.01243 287.4 13.8
302(9) 0.01138 287.4 13.4
288(9) 0.01288 287.4 13.1
311(9) 0.01118 287.4 12.9
277(9) 0.01262 287.4 12.8
293(9) 0.01114 287.4 12.7
284(9) 0.01272 287.5 12.6
266(8) 0.01396 287.5 12.7
286(9) 0.01248 287.5 12.7
299(9) 0.01149 287.5 12.8
299(9) 0.01149 287.6 13.0
292(9) 0.01254 287.6 13.2
302(9) 0.01215 287.6 13.5
281(9) 0.01246 287.6 13.8
325(10) 0.01005 287.6 14.2
282(9) 0.01236 287.7 14.6
299(9) 0.01186 287.7 15.1
308(9) 0.01195 287.7 15.6
306(9) 0.01156 287.7 16.2
282(9) 0.01218 287.8 16.8
308(10) 0.01089 287.8 17.4
317(9) 0.01167 287.8 18.1
312(9) 0.01191 287.8 18.9
323(10) 0.01049 287.8 19.7
307(10) 0.01066 287.9 20.5
306(9) 0.01123 287.9 21.4
316(9) 0.01133 287.9 22.3
341(10) 0.01080 287.9 23.1
330(10) 0.00997 288.0 24.0
299(10) 0.01071 288.0 24.9
310(10) 0.01100 288.0 25.8
316(9) 0.01172 288.0 26.6
327(9) 0.01108 288.1 27.4
316(9) 0.01123 288.1 28.2
331(10) 0.01000 288.1 28.8
308(9) 0.01114 288.1 29.4
284(9) 0.01303 288.1 29.9
317(9) 0.01184 288.2 30.3
337(10) 0.01046 288.2 30.6
327(10) 0.00976 288.2 30.8
319(10) 0.01084 288.2 30.8
321(9) 0.01156 288.3 30.8
327(9) 0.01109 288.3 30.7
318(10) 0.01103 288.3 30.5
331(10) 0.00984 288.3 30.2
291(9) 0.01222 288.3 29.9
320(9) 0.01158 288.4 29.6
307(9) 0.01198 288.4 29.3
300(9) 0.01183 288.4 29.0
304(9) 0.01112 288.4 28.8
285(9) 0.01246 288.5 28.6
312(9) 0.01197 288.5 28.5
311(9) 0.01111 288.5 28.5
318(10) 0.01091 288.5 28.5
308(10) 0.01102 288.6 28.7
290(9) 0.01229 288.6 28.9
301(9) 0.01241 288.6 29.2
312(10) 0.01094 288.6 29.5
307(10) 0.01106 288.6 30.0
318(9) 0.01115 288.7 30.5
325(10) 0.01106 288.7 31.0
299(9) 0.01255 288.7 31.6
310(9) 0.01126 288.7 32.2
314(10) 0.01069 288.8 32.8
320(10) 0.01094 288.8 33.4
316(9) 0.01160 288.8 34.0
304(9) 0.01212 288.8 34.6
291(9) 0.01196 288.9 35.1
318(10) 0.01039 288.9 35.5
314(10) 0.01085 288.9 35.8
323(9) 0.01147 288.9 36.0
339(10) 0.01097 288.9 36.0
360(10) 0.00970 289.0 36.0
337(10) 0.00992 289.0 35.8
318(9) 0.01108 289.0 35.5
314(9) 0.01169 289.0 35.1
303(9) 0.01217 289.1 34.5
336(10) 0.00973 289.1 33.9
308(10) 0.01052 289.1 33.2
300(9) 0.01168 289.1 32.4
348(10) 0.01061 289.1 31.6
320(9) 0.01157 289.2 30.7
311(9) 0.01153 289.2 29.9
329(10) 0.00970 289.2 29.0
331(10) 0.01066 289.2 28.2
325(9) 0.01129 289.3 27.3
327(9) 0.01131 289.3 26.5
307(9) 0.01157 289.3 25.8
331(10) 0.00976 289.3 25.1
342(10) 0.00991 289.4 24.4
326(9) 0.01116 289.4 23.7
320(9) 0.01121 289.4 23.1
328(10) 0.01048 289.4 22.6
291(9) 0.01181 289.4 22.0
321(10) 0.01036 289.5 21.6
299(9) 0.01229 289.5 21.1
290(9) 0.01248 289.5 20.7
303(9) 0.01110 289.5 20.4
305(10) 0.01106 289.6 20.0
322(10) 0.01026 289.6 19.7
315(9) 0.01183 289.6 19.4
293(9) 0.01222 289.6 19.2
314(10) 0.01066 289.6 18.9
312(10) 0.01108 289.7 18.6
325(9) 0.01119 289.7 18.4
319(9) 0.01165 289.7 18.1
309(9) 0.01157 289.7 17.9
304(9) 0.01130 289.8 17.6
303(9) 0.01173 289.8 17.4
310(9) 0.01195 289.8 17.1
321(9) 0.01153 289.8 16.8
320(10) 0.01043 289.9 16.5
303(9) 0.01149 289.9 16.2
295(9) 0.01188 289.9 15.9
285(9) 0.01298 289.9 15.5
306(9) 0.01205 289.9 15.2
276(9) 0.01285 290.0 14.9
322(10) 0.01040 290.0 14.5
331(10) 0.01050 290.0 14.2
317(9) 0.01144 290.0 13.9
320(9) 0.01159 290.1 13.5
315(9) 0.01157 290.1 13.2
310(10) 0.01071 290.1 12.9
296(9) 0.01201 290.1 12.6
309(9) 0.01164 290.2 12.3
313(9) 0.01196 290.2 12.0
313(10) 0.01065 290.2 11.7
323(10) 0.01002 290.2 11.4
319(9) 0.01123 290.2 11.2
307(9) 0.01210 290.3 10.9
317(9) 0.01153 290.3 10.7
301(9) 0.01149 290.3 10.5
298(10) 0.01093 290.3 10.3
310(10) 0.01085 290.4 10.1
291(9) 0.01275 290.4 9.9
296(9) 0.01250 290.4 9.7
310(9) 0.01140 290.4 9.6
305(10) 0.01076 290.4 9.4
282(9) 0.01218 290.5 9.3
290(9) 0.01268 290.5 9.1
300(9) 0.01198 290.5 9.0
298(9) 0.01177 290.5 8.9
286(9) 0.01220 290.6 8.8
310(9) 0.01126 290.6 8.8
293(9) 0.01275 290.6 8.7
299(9) 0.01208 290.6 8.6
320(10) 0.01080 290.7 8.6
305(10) 0.01073 290.7 8.6
287(9) 0.01254 290.7 8.5
331(9) 0.01111 290.7 8.5
302(9) 0.01210 290.7 8.5
324(10) 0.01007 290.8 8.5
282(9) 0.01232 290.8 8.5
315(10) 0.01091 290.8 8.6
286(9) 0.01295 290.8 8.6
290(9) 0.01263 290.9 8.6
312(10) 0.01083 290.9 8.7
290(9) 0.01166 290.9 8.8
307(9) 0.01183 290.9 8.9
301(9) 0.01236 290.9 9.0
309(9) 0.01108 291.0 9.1
311(10) 0.01042 291.0 9.2
303(9) 0.01143 291.0 9.4
283(9) 0.01303 291.0 9.5
300(9) 0.01235 291.1 9.7
297(9) 0.01180 291.1 10.0
283(9) 0.01227 291.1 10.3
308(9) 0.01118 291.1 10.6
272(9) 0.01340 291.2 11.0
282(9) 0.01324 291.2 11.5
305(9) 0.01157 291.2 12.0
321(10) 0.01029 291.2 12.6
296(9) 0.01186 291.2 13.4
296(9) 0.01245 291.3 14.2
329(9) 0.01122 291.3 15.1
320(10) 0.01088 291.3 16.1
289(9) 0.01116 291.3 17.2
310(9) 0.01131 291.4 18.4
319(9) 0.01162 291.4 19.7
315(9) 0.01172 291.4 21.1
314(10) 0.01084 291.4 22.5
321(10) 0.01051 291.4 23.9
330(10) 0.01077 291.5 25.2
317(9) 0.01169 291.5 26.4
326(9) 0.01112 291.5 27.3
320(10) 0.01089 291.5 28.1
320(10) 0.01019 291.6 28.5
302(9) 0.01168 291.6 28.6
350(10) 0.01058 291.6 28.3
286(9) 0.01307 291.6 27.7
295(9) 0.01194 291.7 26.8
312(10) 0.01073 291.7 25.6
313(10) 0.01104 291.7 24.3
340(10) 0.01103 291.7 22.8
310(9) 0.01163 291.7 21.4
303(9) 0.01151 291.8 19.9
322(10) 0.01007 291.8 18.5
300(9) 0.01144 291.8 17.1
321(9) 0.01144 291.8 15.9
306(9) 0.01213 291.9 14.8
314(10) 0.01067 291.9 13.7
255(9) 0.01375 291.9 12.8
316(10) 0.01072 291.9 12.1
300(9) 0.01248 292.0 11.4
278(9) 0.01302 292.0 10.8
275(9) 0.01261 292.0 10.3
293(9) 0.01157 292.0 9.8
284(9) 0.01222 292.0 9.5
294(9) 0.01268 292.1 9.2
285(9) 0.01248 292.1 8.9
304(9) 0.01129 292.1 8.7
307(9) 0.01125 292.1 8.5
307(9) 0.01181 292.2 8.4
348(10) 0.01068 292.2 8.3
310(9) 0.01136 292.2 8.2
298(9) 0.01152 292.2 8.1
303(9) 0.01157 292.2 8.1
321(9) 0.01128 292.3 8.0
289(9) 0.01287 292.3 8.0
285(9) 0.01237 292.3 8.0
288(9) 0.01133 292.3 8.0
285(9) 0.01233 292.4 7.9
283(9) 0.01301 292.4 7.9
309(9) 0.01189 292.4 8.0
318(10) 0.01094 292.4 8.0
324(10) 0.00991 292.5 8.0
330(10) 0.01060 292.5 8.0
307(9) 0.01228 292.5 8.0
296(9) 0.01240 292.5 8.1
304(9) 0.01160 292.5 8.1
275(9) 0.01219 292.6 8.2
292(9) 0.01173 292.6 8.2
290(9) 0.01251 292.6 8.3
308(9) 0.01182 292.6 8.3
287(9) 0.01229 292.7 8.4
323(10) 0.01008 292.7 8.5
306(9) 0.01198 292.7 8.6
295(9) 0.01273 292.7 8.7
296(9) 0.01223 292.7 8.8
330(10) 0.01053 292.8 8.9
272(9) 0.01277 292.8 9.0
300(9) 0.01116 292.8 9.2
297(9) 0.01230 292.8 9.3
312(9) 0.01184 292.9 9.5
297(9) 0.01201 292.9 9.7
320(10) 0.01037 292.9 9.8
270(9) 0.01307 292.9 10.1
303(9) 0.01232 293.0 10.3
335(10) 0.01070 293.0 10.5
308(9) 0.01130 293.0 10.8
309(10) 0.01070 293.0 11.1
307(9) 0.01149 293.0 11.4
311(9) 0.01192 293.1 11.8
312(9) 0.01143 293.1 12.2
312(10) 0.01079 293.1 12.6
301(10) 0.01086 293.1 13.1
327(10) 0.01058 293.2 13.7
335(9) 0.01119 293.2 14.3
302(9) 0.01163 293.2 15.1
330(10) 0.01005 293.2 15.8
346(10) 0.00951 293.3 16.7
299(9) 0.01183 293.3 17.7
325(9) 0.01145 293.3 18.8
328(10) 0.01019 293.3 19.9
338(10) 0.00995 293.3 21.2
324(10) 0.01082 293.4 22.5
321(9) 0.01137 293.4 23.9
355(10) 0.01046 293.4 25.3
352(10) 0.01009 293.4 26.8
355(10) 0.00957 293.5 28.2
341(10) 0.01041 293.5 29.6
353(10) 0.01021 293.5 30.9
336(9) 0.01115 293.5 31.9
346(10) 0.00995 293.5 32.7
321(10) 0.01004 293.6 33.2
341(10) 0.00987 293.6 33.4
324(9) 0.01137 293.6 33.3
357(10) 0.01053 293.6 32.9
309(9) 0.01139 293.7 32.4
332(10) 0.00942 293.7 31.8
323(10) 0.01100 293.7 31.0
338(10) 0.01106 293.7 30.3
347(10) 0.01059 293.8 29.6
331(10) 0.01060 293.8 29.0
301(10) 0.01106 293.8 28.4
337(10) 0.01010 293.8 28.0
342(10) 0.01092 293.8 27.6
342(10) 0.01062 293.9 27.4
332(10) 0.01061 293.9 27.2
307(10) 0.01103 293.9 27.2
332(10) 0.01050 293.9 27.2
320(9) 0.01153 294.0 27.4
316(9) 0.01136 294.0 27.7
330(10) 0.01072 294.0 28.0
339(10) 0.00988 294.0 28.5
329(10) 0.01027 294.0 29.1
333(9) 0.01114 294.1 29.7
334(10) 0.01080 294.1 30.5
323(10) 0.01088 294.1 31.3
340(10) 0.00976 294.1 32.3
311(9) 0.01139 294.2 33.3
332(9) 0.01135 294.2 34.4
350(10) 0.01032 294.2 35.7
337(10) 0.01015 294.2 37.0
330(10) 0.01041 294.3 38.5
347(10) 0.01009 294.3 40.0
359(10) 0.01042 294.3 41.6
371(10) 0.00929 294.3 43.3
348(10) 0.01005 294.3 45.0
350(10) 0.00977 294.4 46.8
351(10) 0.01031 294.4 48.5
399(10) 0.00934 294.4 50.1
388(11) 0.00901 294.4 51.6
390(11) 0.00855 294.5 52.8
382(11) 0.00895 294.5 53.8
359(10) 0.00962 294.5 54.4
370(10) 0.01013 294.5 54.7
355(10) 0.00968 294.6 54.7
378(11) 0.00837 294.6 54.3
376(10) 0.00911 294.6 53.7
371(10) 0.00969 294.6 53.0
343(10) 0.01091 294.6 52.1
348(10) 0.00990 294.7 51.1
349(10) 0.00935 294.7 50.0
373(10) 0.00935 294.7 48.9
357(10) 0.01034 294.7 47.8
363(10) 0.01025 294.8 46.7
344(10) 0.01032 294.8 45.6
371(11) 0.00833 294.8 44.6
356(10) 0.00970 294.8 43.6
368(10) 0.01009 294.8 42.7
341(10) 0.01106 294.9 42.0
335(10) 0.01036 294.9 41.4
333(10) 0.00944 294.9 40.9
332(10) 0.01004 294.9 40.5
313(9) 0.01178 295.0 40.3
349(10) 0.01041 295.0 40.3
322(10) 0.01070 295.0 40.4
342(10) 0.00912 295.0 40.6
380(11) 0.00858 295.1 41.0
363(10) 0.01020 295.1 41.6
320(9) 0.01110 295.1 42.2
335(10) 0.01011 295.1 43.0
339(10) 0.00977 295.1 43.9
347(10) 0.00954 295.2 44.8
348(10) 0.01059 295.2 45.8
325(9) 0.01115 295.2 46.8
359(10) 0.00986 295.2 47.7
361(10) 0.00915 295.3 48.5
347(10) 0.00952 295.3 49.2
357(10) 0.01042 295.3 49.8
321(10) 0.01108 295.3 50.1
349(10) 0.00998 295.3 50.1
362(10) 0.00935 295.4 49.9
353(10) 0.00990 295.4 49.4
347(10) 0.01068 295.4 48.6
340(10) 0.01025 295.4 47.6
322(10) 0.01010 295.5 46.4
355(10) 0.00960 295.5 45.0
345(10) 0.01043 295.5 43.5
319(9) 0.01174 295.5 42.0
352(10) 0.00955 295.6 40.4
339(10) 0.01010 295.6 38.8
331(10) 0.01069 295.6 37.3
336(10) 0.01049 295.6 35.8
343(10) 0.01085 295.6 34.3
307(9) 0.01154 295.7 33.0
341(10) 0.01000 295.7 31.7
354(10) 0.00968 295.7 30.5
343(10) 0.01058 295.7 29.4
324(9) 0.01139 295.8 28.4
319(10) 0.01105 295.8 27.5
307(10) 0.01075 295.8 26.7
327(10) 0.01040 295.8 26.0
314(9) 0.01185 295.9 25.3
326(9) 0.01155 295.9 24.7
320(9) 0.01109 295.9 24.2
328(10) 0.00987 295.9 23.8
298(9) 0.01196 295.9 23.5
308(9) 0.01208 296.0 23.2
343(10) 0.01072 296.0 23.0
323(10) 0.01076 296.0 22.8
314(10) 0.01024 296.0 22.7
326(9) 0.01119 296.1 22.7
294(9) 0.01254 296.1 22.7
320(9) 0.01174 296.1 22.7
308(10) 0.01088 296.1 22.8
314(10) 0.01063 296.1 23.0
326(10) 0.01075 296.2 23.2
333(10) 0.01108 296.2 23.5
326(9) 0.01122 296.2 23.8
322(10) 0.01090 296.2 24.1
304(9) 0.01137 296.3 24.6
329(10) 0.01072 296.3 25.0
312(9) 0.01189 296.3 25.5
327(9) 0.01114 296.3 26.1
321(10) 0.01073 296.4 26.7
339(10) 0.01002 296.4 27.4
329(10) 0.01073 296.4 28.2
323(9) 0.01148 296.4 29.0
327(10) 0.01041 296.4 29.8
309(9) 0.01129 296.5 30.7
326(10) 0.01035 296.5 31.7
336(10) 0.01031 296.5 32.7
321(9) 0.01154 296.5 33.8
323(9) 0.01110 296.6 35.0
321(10) 0.01050 296.6 36.2
316(10) 0.01087 296.6 37.4
324(10) 0.01093 296.6 38.7
361(10) 0.01026 296.6 40.1
349(10) 0.00961 296.7 41.4
326(10) 0.01007 296.7 42.8
329(10) 0.01063 296.7 44.1
357(10) 0.00987 296.7 45.4
326(9) 0.01126 296.8 46.7
360(10) 0.00970 296.8 47.9
346(10) 0.00991 296.8 49.1
354(10) 0.00979 296.8 50.1
315(9) 0.01183 296.9 51.0
335(10) 0.01106 296.9 51.8
341(10) 0.00991 296.9 52.4
367(11) 0.00857 296.9 52.9
336(10) 0.01026 296.9 53.1
356(10) 0.01052 297.0 53.3
337(10) 0.01095 297.0 53.2
327(10) 0.01043 297.0 53.1
328(10) 0.00957 297.0 52.8
350(10) 0.00978 297.1 52.4
340(10) 0.01099 297.1 51.9
350(10) 0.01067 297.1 51.3
360(10) 0.00946 297.1 50.6
330(10) 0.00977 297.2 50.0
338(10) 0.01032 297.2 49.3
349(10) 0.01051 297.2 48.7
356(10) 0.01029 297.2 48.0
333(10) 0.01068 297.2 47.4
338(10) 0.00992 297.3 46.9
324(10) 0.01086 297.3 46.4
319(9) 0.01160 297.3 46.0
329(10) 0.01101 297.3 45.7
347(10) 0.01000 297.4 45.5
353(10) 0.00954 297.4 45.3
336(10) 0.01012 297.4 45.3
331(9) 0.01127 297.4 45.3
327(9) 0.01127 297.4 45.5
367(10) 0.00918 297.5 45.7
351(10) 0.00946 297.5 46.0
323(10) 0.01039 297.5 46.5
317(9) 0.01182 297.5 47.0
328(10) 0.01077 297.6 47.6
352(10) 0.00952 297.6 48.2
358(10) 0.00959 297.6 49.0
333(10) 0.01060 297.6 49.8
346(10) 0.01072 297.7 50.6
347(10) 0.01006 297.7 51.5
363(10) 0.00909 297.7 52.4
335(10) 0.01026 297.7 53.3
357(10) 0.01008 297.7 54.1
347(10) 0.01059 297.8 54.9
350(10) 0.00998 297.8 55.5
336(10) 0.01007 297.8 56.0
346(10) 0.00983 297.8 56.2
353(10) 0.01000 297.9 56.2
348(10) 0.01072 297.9 56.0
354(10) 0.00968 297.9 55.5
313(10) 0.01051 297.9 54.8
343(10) 0.00973 297.9 53.8
321(9) 0.01142 298.0 52.7
339(10) 0.01095 298.0 51.4
343(10) 0.01028 298.0 50.1
339(10) 0.01001 298.0 48.6
351(10) 0.01016 298.1 47.2
353(10) 0.01018 298.1 45.8
348(10) 0.01061 298.1 44.4
344(10) 0.00994 298.1 43.1
342(10) 0.00984 298.2 41.8
354(10) 0.00997 298.2 40.6
329(9) 0.01140 298.2 39.4
338(10) 0.01097 298.2 38.4
346(10) 0.00994 298.2 37.4
327(10) 0.00997 298.3 36.4
346(10) 0.01044 298.3 35.6
328(9) 0.01121 298.3 34.8
317(9) 0.01187 298.3 34.0
331(10) 0.01038 298.4 33.3
331(10) 0.00971 298.4 32.7
288(9) 0.01247 298.4 32.1
325(9) 0.01135 298.4 31.5
302(9) 0.01189 298.5 31.0
308(9) 0.01121 298.5 30.5
322(10) 0.01046 298.5 30.0
311(9) 0.01131 298.5 29.6
316(9) 0.01164 298.5 29.1
339(10) 0.01079 298.6 28.8
322(10) 0.01052 298.6 28.4
319(10) 0.01035 298.6 28.1
331(10) 0.01070 298.6 27.8
337(9) 0.01110 298.7 27.6
331(10) 0.01078 298.7 27.4
315(10) 0.01096 298.7 27.2
325(10) 0.01000 298.7 27.1
331(10) 0.00990 298.7 27.0
317(9) 0.01172 298.8 26.9
333(10) 0.01088 298.8 26.9
342(10) 0.01006 298.8 27.0
313(9) 0.01112 298.8 27.1
335(10) 0.01065 298.9 27.2
348(10) 0.01075 298.9 27.5
325(10) 0.01105 298.9 27.7
327(10) 0.01048 298.9 28.0
329(10) 0.01046 299.0 28.4
296(9) 0.01238 299.0 28.8
330(9) 0.01123 299.0 29.3
308(9) 0.01140 299.0 29.8
327(10) 0.01027 299.0 30.4
321(9) 0.01120 299.1 31.0
361(10) 0.01010 299.1 31.6
341(10) 0.01075 299.1 32.2
320(10) 0.01100 299.1 32.8
342(10) 0.00948 299.2 33.3
340(10) 0.01027 299.2 33.8
348(10) 0.01044 299.2 34.3
335(9) 0.01119 299.2 34.6
342(10) 0.00991 299.2 34.8
340(10) 0.00960 299.3 34.8
338(10) 0.01031 299.3 34.7
358(10) 0.01030 299.3 34.4
334(9) 0.01119 299.3 34.0
369(10) 0.00933 299.4 33.5
329(10) 0.01021 299.4 32.8
351(10) 0.01000 299.4 32.0
338(10) 0.01095 299.4 31.2
321(9) 0.01169 299.5 30.3
312(10) 0.01102 299.5 29.4
298(10) 0.01061 299.5 28.5
315(10) 0.01051 299.5 27.6
323(9) 0.01157 299.5 26.7
330(9) 0.01132 299.6 25.8
295(9) 0.01213 299.6 25.0
318(10) 0.01028 299.6 24.2
320(10) 0.01066 299.6 23.5
324(9) 0.01149 299.7 22.8
337(10) 0.01086 299.7 22.1
333(10) 0.01028 299.7 21.5
320(10) 0.01031 299.7 21.0
303(9) 0.01194 299.8 20.5
325(9) 0.01145 299.8 20.0
307(9) 0.01188 299.8 19.6
335(10) 0.01013 299.8 19.2
313(10) 0.01108 299.8 18.9
290(9) 0.01231 299.9 18.6
273(9) 0.01364 299.9 18.3
308(9) 0.01154 299.9 18.1
301(9) 0.01196 299.9 17.9
337(10) 0.00992 300.0 17.7
299(9) 0.01156 300.0 17.5
314(9) 0.01178 300.0 17.4
303(9) 0.01135 300.0 17.2
304(9) 0.01156 300.0 17.1
319(9) 0.01121 300.1 17.0
317(9) 0.01113 300.1 17.0
322(9) 0.01157 300.1 16.9
278(9) 0.01291 300.1 16.9
300(10) 0.01086 300.2 16.9
294(9) 0.01216 300.2 16.9
336(10) 0.01071 300.2 16.9
345(10) 0.01072 300.2 16.9
325(10) 0.01081 300.3 16.9
326(10) 0.01016 300.3 16.9
318(10) 0.01095 300.3 17.0
338(10) 0.01075 300.3 17.1
319(9) 0.01169 300.3 17.1
347(10) 0.01013 300.4 17.2
321(10) 0.01048 300.4 17.3
314(9) 0.01131 300.4 17.4
303(9) 0.01211 300.4 17.5
318(9) 0.01175 300.5 17.6
313(9) 0.01150 300.5 17.7
333(10) 0.00963 300.5 17.8
300(9) 0.01167 300.5 17.9
323(9) 0.01136 300.5 18.0
320(9) 0.01148 300.6 18.0
335(10) 0.01013 300.6 18.0
322(10) 0.01038 300.6 17.9
354(10) 0.00955 300.6 17.9
321(9) 0.01132 300.7 17.8
337(10) 0.01102 300.7 17.6
334(10) 0.01037 300.7 17.5
332(10) 0.00971 300.7 17.3
307(9) 0.01141 300.8 17.1
303(9) 0.01212 300.8 16.9
327(9) 0.01143 300.8 16.6
332(10) 0.01051 300.8 16.4
329(10) 0.00991 300.8 16.2
301(9) 0.01164 300.9 16.0
325(9) 0.01157 300.9 15.9
338(10) 0.01058 300.9 15.7
324(10) 0.01067 300.9 15.6
330(10) 0.01031 301.0 15.4
309(9) 0.01113 301.0 15.3
302(9) 0.01233 301.0 15.2
334(10) 0.01075 301.0 15.1
332(10) 0.01049 301.0 15.0
322(10) 0.01049 301.1 14.9
315(9) 0.01128 301.1 14.8
333(9) 0.01117 301.1 14.7
343(10) 0.01045 301.1 14.5
320(10) 0.01050 301.2 14.4
313(10) 0.01079 301.2 14.2
333(10) 0.01055 301.2 14.0
305(9) 0.01215 301.2 13.8
331(10) 0.01065 301.3 13.6
343(10) 0.00960 301.3 13.3
307(9) 0.01143 301.3 13.1
320(9) 0.01157 301.3 12.8
335(10) 0.01106 301.3 12.5
327(10) 0.01082 301.4 12.2
324(10) 0.01095 301.4 11.9
332(10) 0.01059 301.4 11.6
298(9) 0.01201 301.4 11.4
307(9) 0.01200 301.5 11.1
319(10) 0.01089 301.5 10.8
327(10) 0.01002 301.5 10.6
323(10) 0.01064 301.5 10.3
305(9) 0.01223 301.6 10.1
322(9) 0.01142 301.6 9.9
304(9) 0.01145 301.6 9.6
301(10) 0.01074 301.6 9.5
286(9) 0.01260 301.6 9.3
322(9) 0.01158 301.7 9.1
323(9) 0.01168 301.7 8.9
324(10) 0.01051 301.7 8.8
312(10) 0.01026 301.7 8.7
314(10) 0.01107 301.8 8.6
317(9) 0.01168 301.8 8.4
300(9) 0.01223 301.8 8.3
286(9) 0.01183 301.8 8.3
284(9) 0.01133 301.8 8.2
327(10) 0.01005 301.9 8.1
300(9) 0.01245 301.9 8.1
311(9) 0.01162 301.9 8.0
325(10) 0.01071 301.9 8.0
308(9) 0.01115 302.0 7.9
269(9) 0.01328 302.0 7.9
317(9) 0.01178 302.0 7.9
312(9) 0.01182 302.0 7.9
302(9) 0.01158 302.1 7.9
300(10) 0.01095 302.1 7.9
309(10) 0.01107 302.1 7.9
326(9) 0.01146 302.1 7.9
319(9) 0.01133 302.1 7.9
325(10) 0.01072 302.2 8.0
350(10) 0.00923 302.2 8.0
344(10) 0.00991 302.2 8.0
298(9) 0.01259 302.2 8.1
332(10) 0.01012 302.3 8.1
312(10) 0.01088 302.3 8.1
317(10) 0.01068 302.2 8.2
309(9) 0.01143 302.2 8.2
291(9) 0.01272 302.2 8.2
316(10) 0.01083 302.2 8.3
319(10) 0.01057 302.2 8.3
310(9) 0.01111 302.1 8.3
309(9) 0.01154 302.1 8.3
301(9) 0.01234 302.1 8.3
322(10) 0.01066 302.1 8.3
322(10) 0.01043 302.1 8.2
295(9) 0.01197 302.0 8.2
301(9) 0.01243 302.0 8.1
315(9) 0.01186 302.0 8.1
330(10) 0.01060 302.0 8.0
308(9) 0.01114 301.9 7.9
290(9) 0.01194 301.9 7.9
309(9) 0.01146 301.9 7.8
301(9) 0.01233 301.9 7.7
277(9) 0.01264 301.9 7.7
326(10) 0.00946 301.8 7.6
303(9) 0.01155 301.8 7.5
314(9) 0.01151 301.8 7.5
308(9) 0.01186 301.8 7.4
307(9) 0.01165 301.8 7.3
324(10) 0.00969 301.7 7.3
305(9) 0.01143 301.7 7.2
285(9) 0.01294 301.7 7.2
292(9) 0.01280 301.7 7.1
291(9) 0.01169 301.7 7.1
323(10) 0.00987 301.6 7.0
306(9) 0.01160 301.6 7.0
308(9) 0.01200 301.6 7.0
296(9) 0.01241 301.6 6.9
294(9) 0.01143 301.6 6.9
295(9) 0.01128 301.5 6.9
289(9) 0.01222 301.5 6.9
278(9) 0.01350 301.5 6.9
293(9) 0.01180 301.5 6.9
307(9) 0.01112 301.4 6.9
326(10) 0.01015 301.4 6.9
296(9) 0.01184 301.4 6.9
308(9) 0.01202 301.4 6.9
317(9) 0.01113 301.4 6.9
309(9) 0.01134 301.3 6.9
293(9) 0.01157 301.3 7.0
296(9) 0.01159 301.3 7.0
303(9) 0.01234 301.3 7.0
306(9) 0.01183 301.3 7.1
305(10) 0.01095 301.2 7.1
293(9) 0.01186 301.2 7.2
323(9) 0.01135 301.2 7.2
320(9) 0.01157 301.2 7.3
305(9) 0.01181 301.2 7.3
302(9) 0.01139 301.1 7.4
296(9) 0.01161 301.1 7.4
312(9) 0.01124 301.1 7.5
287(9) 0.01305 301.1 7.5
300(9) 0.01125 301.1 7.6
303(9) 0.01140 301.0 7.7
326(10) 0.01047 301.0 7.7
313(9) 0.01130 301.0 7.8
310(9) 0.01199 301.0 7.9
313(9) 0.01130 300.9 7.9
303(9) 0.01133 300.9 8.0
319(10) 0.01068 300.9 8.0
316(9) 0.01145 300.9 8.1
317(9) 0.01173 300.9 8.1
325(10) 0.01040 300.8 8.2
310(10) 0.01089 300.8 8.2
337(10) 0.01026 300.8 8.3
296(9) 0.01254 300.8 8.3
310(9) 0.01209 300.8 8.3
309(9) 0.01124 300.7 8.4
304(10) 0.01089 300.7 8.4
295(9) 0.01197 300.7 8.4
308(9) 0.01179 300.7 8.4
318(9) 0.01172 300.7 8.5
308(9) 0.01191 300.6 8.5
319(10) 0.01044 300.6 8.5
313(9) 0.01121 300.6 8.5
311(9) 0.01184 300.6 8.5
299(9) 0.01246 300.6 8.5
309(10) 0.01088 300.5 8.5
281(9) 0.01190 300.5 8.5
300(9) 0.01199 300.5 8.5
313(9) 0.01214 300.5 8.5
302(9) 0.01187 300.5 8.5
315(10) 0.01077 300.4 8.5
292(9) 0.01113 300.4 8.6
302(9) 0.01126 300.4 8.6
329(9) 0.01121 300.4 8.6
315(9) 0.01136 300.3 8.6
312(10) 0.01095 300.3 8.6
291(9) 0.01196 300.3 8.6
301(9) 0.01109 300.3 8.6
309(9) 0.01200 300.3 8.6
286(9) 0.01255 300.2 8.7
305(10) 0.01108 300.2 8.7
330(10) 0.00986 300.2 8.7
324(9) 0.01123 300.2 8.7
329(9) 0.01127 300.2 8.8
326(10) 0.01105 300.1 8.8
322(10) 0.01021 300.1 8.9
295(9) 0.01165 300.1 8.9
317(9) 0.01122 300.1 9.0
332(9) 0.01124 300.1 9.0
321(10) 0.01080 300.0 9.1
327(10) 0.01052 300.0 9.2
297(9) 0.01179 300.0 9.3
301(9) 0.01206 300.0 9.3
305(9) 0.01228 300.0 9.4
308(9) 0.01111 299.9 9.6
312(10) 0.01068 299.9 9.7
310(10) 0.01080 299.9 9.8
289(9) 0.01216 299.9 9.9
306(9) 0.01210 299.8 10.1
307(10) 0.01106 299.8 10.2
303(10) 0.01069 299.8 10.4
304(9) 0.01133 299.8 10.6
323(9) 0.01128 299.8 10.7
315(9) 0.01163 299.7 10.9
328(10) 0.01014 299.7 11.1
328(10) 0.00976 299.7 11.3
320(10) 0.01059 299.7 11.5
308(9) 0.01195 299.7 11.7
299(9) 0.01234 299.6 11.9
305(9) 0.01116 299.6 12.1
308(10) 0.01004 299.6 12.3
318(10) 0.01073 299.6 12.5
302(9) 0.01239 299.6 12.6
329(9) 0.01115 299.5 12.8
345(10) 0.01023 299.5 12.9
336(10) 0.00989 299.5 13.0
308(9) 0.01138 299.5 13.0
328(9) 0.01126 299.5 13.1
332(10) 0.01081 299.4 13.0
314(9) 0.01122 299.4 13.0
338(10) 0.00946 299.4 12.9
322(10) 0.01107 299.4 12.8
302(9) 0.01236 299.3 12.7
325(9) 0.01112 299.3 12.5
315(9) 0.01124 299.3 12.3
324(10) 0.01025 299.3 12.1
327(10) 0.01028 299.3 11.9
328(9) 0.01127 299.2 11.7
287(9) 0.01266 299.2 11.5
291(9) 0.01185 299.2 11.2
292(9) 0.01219 299.2 11.0
306(9) 0.01195 299.2 10.8
301(9) 0.01239 299.1 10.6
317(9) 0.01119 299.1 10.4
289(9) 0.01201 299.1 10.2
305(10) 0.01075 299.1 10.0
314(9) 0.01150 299.1 9.8
314(9) 0.01190 299.0 9.6
318(10) 0.01072 299.0 9.5
304(10) 0.01076 299.0 9.4
303(10) 0.01098 299.0 9.3
292(9) 0.01222 299.0 9.2
293(9) 0.01265 298.9 9.1
312(9) 0.01119 298.9 9.0
320(10) 0.01075 298.9 8.9
302(9) 0.01171 298.9 8.9
310(9) 0.01189 298.8 8.9
322(9) 0.01159 298.8 8.9
322(10) 0.01040 298.8 8.9
306(10) 0.01082 298.8 8.9
301(9) 0.01153 298.8 8.9
291(9) 0.01260 298.7 8.9
306(9) 0.01200 298.7 9.0
312(9) 0.01140 298.7 9.1
333(10) 0.00996 298.7 9.2
292(9) 0.01256 298.7 9.3
319(9) 0.01165 298.6 9.4
290(9) 0.01269 298.6 9.5
325(10) 0.01034 298.6 9.6
316(10) 0.00975 298.6 9.8
289(9) 0.01173 298.6 10.0
292(9) 0.01271 298.5 10.2
322(9) 0.01139 298.5 10.4
309(9) 0.01133 298.5 10.7
320(10) 0.01016 298.5 10.9
328(10) 0.01051 298.5 11.2
311(9) 0.01201 298.4 11.5
301(9) 0.01224 298.4 11.8
320(10) 0.01094 298.4 12.2
330(10) 0.01020 298.4 12.5
345(10) 0.00999 298.4 12.9
340(10) 0.01085 298.3 13.4
316(9) 0.01117 298.3 13.8
319(10) 0.01095 298.3 14.3
326(10) 0.00987 298.3 14.8
301(9) 0.01113 298.2 15.3
319(9) 0.01173 298.2 15.9
298(9) 0.01217 298.2 16.5
294(9) 0.01163 298.2 17.1
321(10) 0.01059 298.2 17.7
301(9) 0.01171 298.1 18.4
328(9) 0.01142 298.1 19.1
344(10) 0.01018 298.1 19.8
335(10) 0.01033 298.1 20.5
330(10) 0.01045 298.1 21.3
334(10) 0.01030 298.0 22.0
317(9) 0.01171 298.0 22.8
334(10) 0.01047 298.0 23.5
324(10) 0.01060 298.0 24.2
299(9) 0.01202 298.0 24.9
332(10) 0.01090 297.9 25.6
326(9) 0.01146 297.9 26.2
309(9) 0.01130 297.9 26.7
337(10) 0.00991 297.9 27.1
326(10) 0.01076 297.9 27.4
318(9) 0.01142 297.8 27.6
301(9) 0.01240 297.8 27.7
322(10) 0.01078 297.8 27.7
326(10) 0.00990 297.8 27.5
305(9) 0.01114 297.7 27.2
318(9) 0.01155 297.7 26.7
332(9) 0.01133 297.7 26.2
342(10) 0.00975 297.7 25.6
310(10) 0.01061 297.7 24.8
313(10) 0.01067 297.6 24.1
337(10) 0.01093 297.6 23.2
314(9) 0.01176 297.6 22.4
324(10) 0.01069 297.6 21.5
326(10) 0.00963 297.6 20.7
343(10) 0.01012 297.5 19.8
317(9) 0.01172 297.5 19.0
324(9) 0.01127 297.5 18.2
332(10) 0.01024 297.5 17.5
320(10) 0.01024 297.5 16.7
303(9) 0.01135 297.4 16.0
308(9) 0.01214 297.4 15.4
333(10) 0.01102 297.4 14.8
325(10) 0.01052 297.4 14.2
332(10) 0.00969 297.4 13.7
306(9) 0.01182 297.3 13.2
294(9) 0.01257 297.3 12.7
302(9) 0.01189 297.3 12.3
310(9) 0.01126 297.3 11.9
322(10) 0.01038 297.2 11.6
307(9) 0.01138 297.2 11.2
311(9) 0.01203 297.2 10.9
288(9) 0.01223 297.2 10.7
313(10) 0.01065 297.2 10.4
296(9) 0.01140 297.1 10.2
298(9) 0.01140 297.1 10.0
305(9) 0.01235 297.1 9.8
319(9) 0.01118 297.1 9.7
322(10) 0.01056 297.1 9.6
324(10) 0.01047 297.0 9.5
318(10) 0.01092 297.0 9.4
307(9) 0.01225 297.0 9.3
316(9) 0.01115 297.0 9.3
300(9) 0.01130 297.0 9.3
310(9) 0.01120 296.9 9.3
308(9) 0.01149 296.9 9.3
306(9) 0.01219 296.9 9.3
314(9) 0.01130 296.9 9.3
310(9) 0.01120 296.9 9.4
304(9) 0.01109 296.8 9.5
295(9) 0.01202 296.8 9.6
314(9) 0.01167 296.8 9.7
310(10) 0.01061 296.8 9.9
314(10) 0.01022 296.7 10.0
280(9) 0.01296 296.7 10.2
300(9) 0.01225 296.7 10.4
301(9) 0.01239 296.7 10.6
317(9) 0.01113 296.7 10.8
306(10) 0.01083 296.6 11.1
329(10) 0.01044 296.6 11.4
315(9) 0.01157 296.6 11.6
335(9) 0.01116 296.6 11.9
307(9) 0.01143 296.6 12.2
315(10) 0.01015 296.5 12.5
327(10) 0.01051 296.5 12.8
323(9) 0.01156 296.5 13.2
310(9) 0.01180 296.5 13.5
297(9) 0.01166 296.5 13.8
283(9) 0.01198 296.4 14.0
313(9) 0.01137 296.4 14.3
338(9) 0.01110 296.4 14.5
350(10) 0.01053 296.4 14.7
298(9) 0.01210 296.4 14.9
288(9) 0.01110 296.3 15.0
297(9) 0.01147 296.3 15.1
289(9) 0.01275 296.3 15.1
306(9) 0.01179 296.3 15.0
315(9) 0.01116 296.3 14.9
342(10) 0.00979 296.2 14.7
329(10) 0.01039 296.2 14.5
323(9) 0.01149 296.2 14.2
315(9) 0.01164 296.2 13.9
304(9) 0.01138 296.1 13.6
320(10) 0.01038 296.1 13.2
311(9) 0.01149 296.1 12.8
318(9) 0.01161 296.1 12.5
279(9) 0.01302 296.1 12.1
304(10) 0.01101 296.0 11.7
300(10) 0.01091 296.0 11.4
304(9) 0.01185 296.0 11.0
324(9) 0.01152 296.0 10.7
323(10) 0.01108 296.0 10.4
314(10) 0.01097 295.9 10.1
326(10) 0.01047 295.9 9.8
310(9) 0.01154 295.9 9.6
299(9) 0.01260 295.9 9.3
302(9) 0.01150 295.9 9.1
335(10) 0.01031 295.8 8.9
328(10) 0.01022 295.8 8.7
313(9) 0.01149 295.8 8.5
303(9) 0.01228 295.8 8.4
304(9) 0.01159 295.8 8.2
294(9) 0.01155 295.7 8.1
284(9) 0.01263 295.7 8.0
305(9) 0.01191 295.7 7.9
299(9) 0.01254 295.7 7.8
323(10) 0.01047 295.6 7.7
310(10) 0.01056 295.6 7.7
297(9) 0.01192 295.6 7.6
320(9) 0.01127 295.6 7.6
310(9) 0.01204 295.6 7.6
315(9) 0.01119 295.5 7.6
309(10) 0.01052 295.5 7.6
308(9) 0.01115 295.5 7.6
338(10) 0.01090 295.5 7.6
311(9) 0.01204 295.5 7.6
313(9) 0.01117 295.4 7.7
286(9) 0.01140 295.4 7.8
288(9) 0.01193 295.4 7.8
281(9) 0.01335 295.4 8.0
310(9) 0.01209 295.4 8.1
300(9) 0.01175 295.3 8.2
321(10) 0.00984 295.3 8.4
308(10) 0.01105 295.3 8.6
300(9) 0.01232 295.3 8.8
332(10) 0.01093 295.3 9.0
314(10) 0.01098 295.2 9.3
306(10) 0.01099 295.2 9.6
315(9) 0.01117 295.2 9.8
307(9) 0.01215 295.2 10.2
325(9) 0.01122 295.1 10.5
327(10) 0.01080 295.1 10.8
285(9) 0.01251 295.1 11.1
315(10) 0.01095 295.1 11.4
327(9) 0.01138 295.1 11.6
319(9) 0.01149 295.0 11.8
313(10) 0.01068 295.0 12.0
292(9) 0.01169 295.0 12.1
290(9) 0.01240 295.0 12.1
302(9) 0.01220 295.0 12.1
325(10) 0.01102 294.9 12.1
302(10) 0.01073 294.9 11.9
292(9) 0.01121 294.9 11.8
309(9) 0.01131 294.9 11.6
319(9) 0.01172 294.9 11.4
297(9) 0.01134 294.8 11.2
313(10) 0.01089 294.8 11.0
326(10) 0.01048 294.8 10.8
319(9) 0.01122 294.8 10.6
295(9) 0.01262 294.8 10.4
306(9) 0.01146 294.8 10.3
323(10) 0.01012 294.8 10.2
321(9) 0.01110 294.8 10.1
307(9) 0.01200 294.8 10.0
303(9) 0.01231 294.8 10.0
330(10) 0.01061 294.8 9.9
314(10) 0.01065 294.8 9.9
313(9) 0.01134 294.8 10.0
325(9) 0.01128 294.8 10.0
303(9) 0.01237 294.8 10.1
309(9) 0.01115 294.8 10.2
323(10) 0.00970 294.8 10.3
324(10) 0.01076 294.8 10.4
335(10) 0.01087 294.8 10.6
308(9) 0.01198 294.8 10.8
288(9) 0.01250 294.8 11.0
305(10) 0.01041 294.8 11.2
315(10) 0.01070 294.8 11.4
317(9) 0.01150 294.8 11.7
343(10) 0.01077 294.8 12.0
311(9) 0.01176 294.8 12.3
308(10) 0.01076 294.8 12.6
301(9) 0.01155 294.8 13.0
322(9) 0.01147 294.8 13.3
322(9) 0.01141 294.8 13.7
303(9) 0.01189 294.8 14.1
302(10) 0.01100 294.8 14.5
319(10) 0.01061 294.8 15.0
317(9) 0.01181 294.8 15.5
326(9) 0.01135 294.8 16.0
320(10) 0.01080 294.8 16.5
316(10) 0.01023 294.8 17.0
299(9) 0.01147 294.8 17.6
300(9) 0.01257 294.8 18.2
334(10) 0.01075 294.8 18.8
344(10) 0.01002 294.8 19.4
322(10) 0.01064 294.8 20.1
322(10) 0.01070 294.8 20.8
294(9) 0.01275 294.8 21.4
325(10) 0.01066 294.8 22.1
342(10) 0.00990 294.8 22.8
331(10) 0.01034 294.8 23.5
328(10) 0.01088 294.8 24.2
341(10) 0.01099 294.8 24.8
341(10) 0.00990 294.8 25.5
318(10) 0.01033 294.8 26.1
305(9) 0.01151 294.8 26.6
309(9) 0.01142 294.8 27.2
347(10) 0.01079 294.8 27.7
355(10) 0.00951 294.8 28.1
335(10) 0.01043 294.8 28.5
323(10) 0.01069 294.8 28.9
350(10) 0.01050 294.8 29.2
340(10) 0.01091 294.8 29.5
338(10) 0.01035 294.8 29.8
320(10) 0.01014 294.8 30.0
343(10) 0.01018 294.8 30.2
339(10) 0.01050 294.8 30.3
337(9) 0.01108 294.7 30.5
319(9) 0.01121 294.7 30.6
323(10) 0.01008 294.7 30.7
313(10) 0.01075 294.7 30.7
341(10) 0.01092 294.7 30.7
350(10) 0.01048 294.7 30.8
310(9) 0.01114 294.7 30.8
305(10) 0.01058 294.7 30.7
305(9) 0.01140 294.7 30.7
327(9) 0.01158 294.7 30.6
319(9) 0.01133 294.7 30.5
317(10) 0.01072 294.7 30.4
352(10) 0.00910 294.7 30.2
323(10) 0.01086 294.7 30.0
335(10) 0.01103 294.7 29.8
318(9) 0.01144 294.7 29.5
337(10) 0.01044 294.7 29.1
321(10) 0.01060 294.7 28.7
334(10) 0.01033 294.7 28.3
337(10) 0.01100 294.7 27.8
327(10) 0.01100 294.7 27.3
314(9) 0.01113 294.7 26.9
335(10) 0.00979 294.7 26.3
322(10) 0.01056 294.7 25.9
321(9) 0.01153 294.7 25.4
308(9) 0.01214 294.7 24.9
324(10) 0.01045 294.7 24.5
321(10) 0.01053 294.7 24.1
360(10) 0.00966 294.7 23.7
318(9) 0.01174 294.7 23.3
290(9) 0.01228 294.7 23.0
315(10) 0.01093 294.7 22.8
309(9) 0.01143 294.7 22.5
310(9) 0.01190 294.7 22.3
308(9) 0.01212 294.7 22.2
326(10) 0.01075 294.7 22.1
340(10) 0.01006 294.7 22.0
333(10) 0.01010 294.7 22.0
315(9) 0.01130 294.7 22.0
299(9) 0.01242 294.7 22.1
299(9) 0.01150 294.7 22.2
321(10) 0.01029 294.7 22.4
328(10) 0.01055 294.7 22.6
340(10) 0.01092 294.7 22.9
306(9) 0.01203 294.7 23.2
309(9) 0.01141 294.7 23.6
335(10) 0.00971 294.7 24.0
329(10) 0.01070 294.7 24.4
347(10) 0.01070 294.7 24.9
339(10) 0.01091 294.7 25.5
315(10) 0.01105 294.7 26.1
327(10) 0.00975 294.7 26.7
343(10) 0.00971 294.7 27.3
328(10) 0.01096 294.7 27.9
323(9) 0.01154 294.7 28.5
358(10) 0.00996 294.7 29.1
313(10) 0.01038 294.7 29.7
331(10) 0.01056 294.7 30.1
321(9) 0.01153 294.7 30.5
326(9) 0.01147 294.7 30.8
336(10) 0.01020 294.7 31.0
337(10) 0.00969 294.7 31.0
369(10) 0.00959 294.7 30.9
374(10) 0.00987 294.7 30.7
312(9) 0.01169 294.7 30.3
345(10) 0.01013 294.7 29.8
341(10) 0.00942 294.7 29.2
324(10) 0.01059 294.7 28.5
341(10) 0.01092 294.7 27.7
321(9) 0.01154 294.6 26.9
326(10) 0.01080 294.6 26.0
335(10) 0.01014 294.6 25.1
326(10) 0.01054 294.6 24.2
315(9) 0.01174 294.6 23.3
329(10) 0.01105 294.6 22.5
332(10) 0.01038 294.6 21.6
326(10) 0.01036 294.6 20.8
326(10) 0.01068 294.6 20.0
322(9) 0.01150 294.6 19.3
324(9) 0.01114 294.6 18.6
311(9) 0.01127 294.6 17.9
341(10) 0.00973 294.6 17.3
329(10) 0.01082 294.6 16.8
323(9) 0.01147 294.6 16.2
321(10) 0.01069 294.6 15.8
291(9) 0.01207 294.6 15.3
310(9) 0.01119 294.6 14.9
318(9) 0.01122 294.6 14.6
316(9) 0.01171 294.6 14.2
298(9) 0.01175 294.6 13.9
302(10) 0.01096 294.6 13.7
322(10) 0.01066 294.6 13.5
328(10) 0.01094 294.6 13.3
327(9) 0.01152 294.6 13.1
297(9) 0.01186 294.6 13.0
291(9) 0.01122 294.6 12.9
288(9) 0.01160 294.6 12.9
318(10) 0.01103 294.6 12.9
311(9) 0.01205 294.6 12.9
300(9) 0.01130 294.6 13.0
307(10) 0.01102 294.6 13.1
324(10) 0.01057 294.6 13.2
336(10) 0.01073 294.6 13.5
329(9) 0.01151 294.6 13.7
305(9) 0.01166 294.6 14.0
285(9) 0.01208 294.6 14.4
346(10) 0.01018 294.6 14.8
340(10) 0.01088 294.6 15.3
320(9) 0.01173 294.6 15.8
300(9) 0.01185 294.6 16.4
312(10) 0.00994 294.6 17.0
314(10) 0.01091 294.6 17.6
312(9) 0.01179 294.6 18.3
292(9) 0.01251 294.6 19.0
298(9) 0.01168 294.6 19.6
310(10) 0.01083 294.6 20.3
309(9) 0.01138 294.6 20.8
312(9) 0.01186 294.6 21.3
328(9) 0.01128 294.6 21.7
313(10) 0.01078 294.6 22.0
297(10) 0.01100 294.6 22.2
317(10) 0.01088 294.6 22.4
316(9) 0.01174 294.6 22.5
315(9) 0.01157 294.6 22.5
309(9) 0.01122 294.6 22.5
308(10) 0.01083 294.6 22.6
298(9) 0.01197 294.6 22.6
314(9) 0.01185 294.6 22.7
325(10) 0.01105 294.6 22.8
316(9) 0.01118 294.6 22.8
306(9) 0.01166 294.6 22.9
307(9) 0.01166 294.6 23.0
342(10) 0.01090 294.6 23.2
315(9) 0.01136 294.6 23.3
327(10) 0.01043 294.6 23.4
329(10) 0.01036 294.6 23.6
325(10) 0.01105 294.6 23.8
322(9) 0.01143 294.6 23.9
330(10) 0.01048 294.5 24.1
310(9) 0.01110 294.5 24.3
333(10) 0.01032 294.5 24.5
323(9) 0.01113 294.5 24.7
363(10) 0.01027 294.5 24.9
342(10) 0.00986 294.5 25.0
323(10) 0.01039 294.5 25.2
306(9) 0.01133 294.5 25.3
328(10) 0.01097 294.5 25.3
329(9) 0.01123 294.5 25.4
327(10) 0.01046 294.5 25.5
326(10) 0.01026 294.5 25.6
289(9) 0.01268 294.5 25.8
308(9) 0.01212 294.5 26.0
340(10) 0.01070 294.5 26.4
311(9) 0.01114 294.5 26.8
299(10) 0.01095 294.5 27.3
304(9) 0.01152 294.5 27.9
332(10) 0.01102 294.5 28.7
320(9) 0.01156 294.5 29.5
319(10) 0.01070 294.5 30.5
336(10) 0.00932 294.5 31.7
318(10) 0.01086 294.5 33.0
346(10) 0.01060 294.5 34.4
319(9) 0.01168 294.5 36.0
331(10) 0.01079 294.5 37.7
353(10) 0.00922 294.5 39.5
351(10) 0.01012 294.5 41.4
367(10) 0.01016 294.5 43.5
328(9) 0.01131 294.5 45.7
363(10) 0.00916 294.5 47.9
361(10) 0.00911 294.5 50.2
366(10) 0.00920 294.5 52.5
362(10) 0.01031 294.5 54.7
362(10) 0.01002 294.5 56.8
374(10) 0.00925 294.5 58.9
367(10) 0.00918 294.5 60.7
390(11) 0.00894 294.5 62.3
356(10) 0.01043 294.5 63.7
367(10) 0.00975 294.5 64.7
379(11) 0.00906 294.5 65.4
412(11) 0.00803 294.5 65.7
364(10) 0.00997 294.5 65.7
375(10) 0.00991 294.5 65.3
393(10) 0.00918 294.5 64.5
367(10) 0.00954 294.5 63.4
362(10) 0.00937 294.5 62.0
343(10) 0.01021 294.5 60.3
338(10) 0.01089 294.5 58.4
342(10) 0.01018 294.5 56.4
362(10) 0.00913 294.5 54.3
353(10) 0.00966 294.5 52.2
342(10) 0.01007 294.5 50.1
361(10) 0.01034 294.5 48.1
336(10) 0.01013 294.5 46.1
362(10) 0.00949 294.5 44.3
338(10) 0.01048 294.5 42.5
327(9) 0.01117 294.5 40.9
366(10) 0.01025 294.5 39.5
330(10) 0.01030 294.5 38.1
346(10) 0.00930 294.5 36.9
319(10) 0.01058 294.5 35.9
335(10) 0.01098 294.5 35.0
346(10) 0.01067 294.5 34.3
300(9) 0.01169 294.5 33.7
320(10) 0.01034 294.5 33.3
342(10) 0.01024 294.5 33.0
317(9) 0.01167 294.5 32.9
317(9) 0.01179 294.5 33.0
310(9) 0.01137 294.4 33.3
314(10) 0.01093 294.4 33.7
310(9) 0.01159 294.4 34.4
314(9) 0.01173 294.4 35.2
328(9) 0.01129 294.4 36.1
330(10) 0.01056 294.4 37.3
316(10) 0.01070 294.4 38.6
340(10) 0.01062 294.4 40.1
365(10) 0.01005 294.4 41.8
344(10) 0.01050 294.4 43.6
371(11) 0.00904 294.4 45.5
346(10) 0.00956 294.4 47.6
353(10) 0.00968 294.4 49.7
329(9) 0.01134 294.4 51.9
379(10) 0.00951 294.4 54.1
359(10) 0.00970 294.4 56.2
348(10) 0.00966 294.4 58.2
317(10) 0.01098 294.4 60.0
370(10) 0.01005 294.4 61.6
388(10) 0.00932 294.4 62.7
351(10) 0.00971 294.4 63.5
320(10) 0.01058 294.4 63.9
378(11) 0.00900 294.4 63.7
389(10) 0.00961 294.4 63.1
371(10) 0.00997 294.4 62.1
376(11) 0.00867 294.4 60.6
343(10) 0.01028 294.4 58.9
344(10) 0.01001 294.4 56.8
356(10) 0.01042 294.4 54.7
361(10) 0.00932 294.4 52.4
336(10) 0.00997 294.4 50.0
342(10) 0.01008 294.4 47.7
360(10) 0.00988 294.4 45.4
339(10) 0.01088 294.4 43.1
337(10) 0.01055 294.4 41.0
344(10) 0.00982 294.4 39.0
326(10) 0.01093 294.4 37.1
346(10) 0.01043 294.4 35.4
331(9) 0.01139 294.4 33.7
327(10) 0.01022 294.4 32.2
320(10) 0.01008 294.4 30.8
341(10) 0.01002 294.4 29.5
334(9) 0.01113 294.4 28.3
309(9) 0.01202 294.4 27.2
320(10) 0.01097 294.4 26.2
317(10) 0.01051 294.4 25.2
319(10) 0.01048 294.4 24.2
301(9) 0.01200 294.4 23.3
328(9) 0.01134 294.4 22.5
338(10) 0.01026 294.4 21.6
312(10) 0.01053 294.4 20.8
309(9) 0.01127 294.4 20.1
308(9) 0.01210 294.4 19.3
303(9) 0.01238 294.4 18.6
302(9) 0.01158 294.4 17.9
326(10) 0.00958 294.4 17.3
308(9) 0.01120 294.4 16.7
301(9) 0.01244 294.4 16.1
309(9) 0.01142 294.4 15.5
304(9) 0.01153 294.4 15.0
316(10) 0.01043 294.4 14.5
318(10) 0.01077 294.4 14.1
291(9) 0.01299 294.4 13.6
307(9) 0.01169 294.4 13.2
318(9) 0.01122 294.4 12.9
320(10) 0.01058 294.4 12.5
320(10) 0.01075 294.4 12.2
329(9) 0.01113 294.4 11.9
295(9) 0.01244 294.4 11.6
301(9) 0.01168 294.3 11.4
301(9) 0.01122 294.3 11.1
293(9) 0.01196 294.3 10.9
310(9) 0.01203 294.3 10.7
283(9) 0.01286 294.3 10.5
309(9) 0.01116 294.3 10.4
320(10) 0.01047 294.3 10.2
303(9) 0.01162 294.3 10.1
321(9) 0.01161 294.3 9.9
320(10) 0.01106 294.3 9.8
320(10) 0.01028 294.3 9.7
329(10) 0.01041 294.3 9.6
322(9) 0.01125 294.3 9.5
283(9) 0.01316 294.3 9.5
326(10) 0.01072 294.3 9.4
297(9) 0.01110 294.3 9.3
278(9) 0.01249 294.3 9.3
314(9) 0.01127 294.3 9.3
343(10) 0.01071 294.3 9.2
305(9) 0.01141 294.3 9.2
293(9) 0.01156 294.3 9.2
289(9) 0.01244 294.3 9.2
324(9) 0.01110 294.3 9.2
314(9) 0.01188 294.3 9.2
300(9) 0.01180 294.3 9.3
318(10) 0.00993 294.3 9.3
290(9) 0.01181 294.3 9.3
263(9) 0.01370 294.3 9.4
282(9) 0.01314 294.3 9.4
314(9) 0.01111 294.3 9.5
301(10) 0.01096 294.3 9.5
310(9) 0.01161 294.3 9.6
309(9) 0.01187 294.3 9.7
313(9) 0.01190 294.3 9.7
316(10) 0.01093 294.3 9.8
302(10) 0.01071 294.3 9.9
322(10) 0.01063 294.3 9.9
323(9) 0.01136 294.3 10.0
329(9) 0.01143 294.3 10.1
315(9) 0.01149 294.3 10.2
331(10) 0.01004 294.3 10.3
315(10) 0.01095 294.3 10.3
323(9) 0.01159 294.3 10.4
295(9) 0.01215 294.3 10.5
303(9) 0.01147 294.3 10.6
307(10) 0.01081 294.3 10.7
305(9) 0.01148 294.3 10.7
324(9) 0.01143 294.3 10.8
287(9) 0.01292 294.3 10.9
301(9) 0.01204 294.3 11.0
303(9) 0.01166 294.3 11.1
306(9) 0.01121 294.3 11.3
296(9) 0.01255 294.3 11.4
299(9) 0.01210 294.3 11.5
301(9) 0.01175 294.3 11.6
314(10) 0.01095 294.3 11.8
314(9) 0.01124 294.3 11.9
297(9) 0.01237 294.3 12.1
303(9) 0.01183 294.3 12.2
303(10) 0.01097 294.3 12.4
295(9) 0.01152 294.3 12.6
308(9) 0.01145 294.3 12.8
315(9) 0.01192 294.3 13.0
312(10) 0.01097 294.3 13.2
321(10) 0.01052 294.3 13.4
289(9) 0.01216 294.3 13.6
309(9) 0.01186 294.3 13.8
292(9) 0.01284 294.3 14.0
309(10) 0.01093 294.3 14.2
296(9) 0.01137 294.2 14.5
318(10) 0.01066 294.2 14.7
322(9) 0.01116 294.2 14.9
325(9) 0.01141 294.2 15.2
313(10) 0.01101 294.2 15.4
306(10) 0.01051 294.2 15.7
310(9) 0.01131 294.2 16.0
312(9) 0.01133 294.2 16.3
321(9) 0.01154 294.2 16.6
328(10) 0.01054 294.2 16.9
307(10) 0.01040 294.2 17.2
303(9) 0.01127 294.2 17.6
325(9) 0.01145 294.2 17.9
361(10) 0.01021 294.2 18.3
300(9) 0.01183 294.2 18.7
340(10) 0.00928 294.2 19.1
313(9) 0.01166 294.2 19.5
289(9) 0.01302 294.2 20.0
293(9) 0.01262 294.2 20.5
324(10) 0.01051 294.2 21.0
346(11) 0.00888 294.2 21.5
329(10) 0.01016 294.2 22.1
300(9) 0.01226 294.2 22.7
319(9) 0.01165 294.2 23.3
339(10) 0.01053 294.2 23.9
344(10) 0.00936 294.2 24.6
322(10) 0.01061 294.2 25.3
290(9) 0.01298 294.2 26.0
335(10) 0.01095 294.2 26.8
324(10) 0.01078 294.2 27.5
320(10) 0.01077 294.2 28.3
319(10) 0.01101 294.2 29.2
334(10) 0.01099 294.2 30.0
346(10) 0.01023 294.2 30.9
351(10) 0.00964 294.2 31.8
345(10) 0.00993 294.2 32.7
354(10) 0.00956 294.2 33.7
346(10) 0.01084 294.2 34.6
329(10) 0.01077 294.2 35.6
333(10) 0.01060 294.2 36.6
351(10) 0.00994 294.2 37.7
354(10) 0.00989 294.2 38.7
348(10) 0.01063 294.2 39.8
343(10) 0.01040 294.2 40.9
344(10) 0.01007 294.2 42.0
365(10) 0.00942 294.2 43.2
351(10) 0.01012 294.2 44.3
350(10) 0.01060 294.2 45.5
353(10) 0.00989 294.2 46.6
361(10) 0.00924 294.2 47.7
348(10) 0.00985 294.2 48.8
344(10) 0.01078 294.2 49.8
364(10) 0.01022 294.2 50.8
366(10) 0.00918 294.2 51.7
363(10) 0.00944 294.2 52.5
360(10) 0.00957 294.2 53.2
362(10) 0.01008 294.2 53.8
343(10) 0.01088 294.2 54.2
337(10) 0.01032 294.2 54.6
326(10) 0.00989 294.2 54.7
363(10) 0.00969 294.2 54.8
352(10) 0.01064 294.2 54.7
344(10) 0.01085 294.2 54.5
346(10) 0.01030 294.2 54.2
338(10) 0.00971 294.2 53.8
345(10) 0.01008 294.2 53.4
379(10) 0.00951 294.2 52.9
373(10) 0.01003 294.2 52.4
347(10) 0.01002 294.2 51.9
338(10) 0.00954 294.1 51.3
348(10) 0.00974 294.1 50.8
330(9) 0.01131 294.1 50.3
349(10) 0.01056 294.1 49.8
369(10) 0.00942 294.1 49.4
327(10) 0.01027 294.1 49.0
349(10) 0.00937 294.1 48.7
361(10) 0.01045 294.1 48.4
316(9) 0.01132 294.1 48.2
321(10) 0.01065 294.1 48.0
344(10) 0.00937 294.1 47.9
334(10) 0.01054 294.1 47.8
347(10) 0.01066 294.1 47.7
352(10) 0.01036 294.1 47.7
349(10) 0.01008 294.1 47.8
359(10) 0.00961 294.1 47.8
364(10) 0.00950 294.1 47.9
327(9) 0.01138 294.1 48.0
339(10) 0.01052 294.1 48.1
363(10) 0.00958 294.1 48.2
332(10) 0.01048 294.1 48.2
339(10) 0.01063 294.1 48.3
351(10) 0.01067 294.1 48.3
344(10) 0.01020 294.1 48.2
337(10) 0.01041 294.1 48.1
365(10) 0.00917 294.1 48.0
349(10) 0.01006 294.1 47.7
360(10) 0.01037 294.1 47.4
346(10) 0.00980 294.1 47.0
323(10) 0.01056 294.1 46.5
307(9) 0.01133 294.1 46.0
344(10) 0.01039 294.1 45.3
311(9) 0.01205 294.1 44.7
348(10) 0.00972 294.1 43.9
362(10) 0.00907 294.1 43.1
346(10) 0.00982 294.1 42.3
338(10) 0.01085 294.1 41.5
335(10) 0.01100 294.1 40.6
333(10) 0.01023 294.1 39.8
330(10) 0.01040 294.1 38.9
346(10) 0.01037 294.1 38.1
333(9) 0.01115 294.1 37.2
337(10) 0.01101 294.1 36.4
350(10) 0.01002 294.1 35.6
319(10) 0.01032 294.1 34.9
337(10) 0.01043 294.1 34.2
331(9) 0.01138 294.1 33.5
332(10) 0.01102 294.1 32.9
338(10) 0.01010 294.1 32.3
329(10) 0.00972 294.1 31.8
338(10) 0.01031 294.1 31.3
320(9) 0.01162 294.1 30.8
326(9) 0.01149 294.1 30.4
306(9) 0.01120 294.1 30.1
330(10) 0.00952 294.1 29.7
347(10) 0.00969 294.1 29.5
331(9) 0.01124 294.1 29.2
330(9) 0.01122 294.1 29.0
322(10) 0.01041 294.1 28.8
289(9) 0.01192 294.1 28.7
351(10) 0.00932 294.1 28.6
331(9) 0.01123 294.1 28.4
327(9) 0.01111 294.1 28.3
322(10) 0.01081 294.1 28.2
331(10) 0.01023 294.1 28.1
328(10) 0.01061 294.1 28.0
346(10) 0.01073 294.1 27.9
319(10) 0.01094 294.1 27.8
325(10) 0.01060 294.1 27.6
351(10) 0.00949 294.0 27.4
316(10) 0.01095 294.0 27.2
313(9) 0.01202 294.0 26.9
311(9) 0.01123 294.0 26.6
335(10) 0.01039 294.0 26.2
315(9) 0.01145 294.0 25.8
352(10) 0.01024 294.0 25.4
348(10) 0.01066 294.0 25.0
343(10) 0.01014 294.0 24.6
318(10) 0.01079 294.0 24.1
301(9) 0.01143 294.0 23.6
323(9) 0.01110 294.0 23.2
312(9) 0.01200 294.0 22.7
324(10) 0.01081 294.0 22.2
330(10) 0.01010 294.0 21.8
321(10) 0.01072 294.0 21.3
311(9) 0.01181 294.0 20.9
317(9) 0.01166 294.0 20.4
320(10) 0.01042 294.0 20.0
288(9) 0.01164 294.0 19.6
316(9) 0.01114 294.0 19.2
300(9) 0.01205 294.0 18.9
310(9) 0.01203 294.0 18.5
304(9) 0.01147 294.0 18.2
307(10) 0.01039 294.0 17.8
307(9) 0.01109 294.0 17.5
306(9) 0.01183 294.0 17.2
299(9) 0.01244 294.0 16.9
328(10) 0.01052 294.0 16.6
299(10) 0.01073 294.0 16.4
284(9) 0.01259 294.0 16.1
316(9) 0.01162 294.0 15.8
315(9) 0.01183 294.0 15.6
325(10) 0.01068 294.0 15.3
299(10) 0.01094 294.0 15.1
299(9) 0.01160 294.0 14.9
304(9) 0.01213 294.0 14.6
322(9) 0.01154 294.0 14.4
298(9) 0.01178 294.0 14.2
287(9) 0.01168 294.0 13.9
318(10) 0.01082 294.0 13.7
327(9) 0.01141 294.0 13.5
300(9) 0.01220 294.0 13.3
300(9) 0.01195 294.0 13.1
308(9) 0.01113 294.0 12.9
288(9) 0.01202 294.0 12.7
324(9) 0.01151 294.0 12.5
299(9) 0.01209 294.0 12.3
310(10) 0.01069 294.0 12.1
296(10) 0.01103 294.0 11.9
295(9) 0.01177 294.0 11.8
321(9) 0.01165 294.0 11.6
297(9) 0.01249 294.0 11.5
303(9) 0.01144 294.0 11.3
301(9) 0.01144 294.0 11.2
298(9) 0.01228 294.0 11.0
299(9) 0.01243 294.0 10.9
305(9) 0.01126 294.0 10.8
300(9) 0.01134 294.0 10.7
293(9) 0.01212 294.0 10.5
293(9) 0.01228 294.0 10.4
290(9) 0.01277 294.0 10.3
302(9) 0.01147 294.0 10.3
312(10) 0.01052 294.0 10.2
311(10) 0.01093 294.0 10.1
305(9) 0.01188 294.0 10.0
307(9) 0.01210 294.0 10.0
284(9) 0.01237 294.0 9.9
283(9) 0.01146 294.0 9.9
285(9) 0.01236 293.9 9.8
316(9) 0.01153 293.9 9.8
291(9) 0.01277 293.9 9.7
303(9) 0.01172 293.9 9.7
318(10) 0.01049 293.9 9.7
314(9) 0.01118 293.9 9.7
295(9) 0.01252 293.9 9.7
287(9) 0.01278 293.9 9.7
297(9) 0.01218 293.9 9.7
302(10) 0.01072 293.9 9.7
305(9) 0.01187 293.9 9.7
310(9) 0.01211 293.9 9.7
277(9) 0.01321 293.9 9.7
311(10) 0.01101 293.9 9.8
308(10) 0.01048 293.9 9.8
284(9) 0.01253 293.9 9.8
308(9) 0.01219 293.9 9.9
314(9) 0.01142 293.9 9.9
305(9) 0.01139 293.9 10.0
294(9) 0.01119 293.9 10.1
295(9) 0.01201 293.9 10.1
311(9) 0.01178 293.9 10.2
295(9) 0.01240 293.9 10.3
267(9) 0.01293 293.9 10.4
291(10) 0.01103 293.9 10.5
291(9) 0.01156 293.9 10.6
304(9) 0.01235 293.9 10.7
310(9) 0.01155 293.9 10.8
295(9) 0.01182 293.9 10.9
290(9) 0.01213 293.9 11.0
308(9) 0.01154 293.9 11.1
312(9) 0.01192 293.9 11.2
290(9) 0.01244 293.9 11.4
303(10) 0.01103 293.9 11.5
310(9) 0.01124 293.9 11.6
325(9) 0.01109 293.9 11.7
317(9) 0.01173 293.8 11.8
306(9) 0.01132 293.8 11.9
292(9) 0.01221 293.8 12.1
302(9) 0.01164 293.8 12.2
303(9) 0.01202 293.8 12.3
321(9) 0.01162 293.8 12.4
306(9) 0.01153 293.8 12.4
322(10) 0.01013 293.8 12.5
303(9) 0.01132 293.8 12.6
300(9) 0.01203 293.8 12.7
294(9) 0.01260 293.8 12.7
295(9) 0.01184 293.8 12.8
294(9) 0.01188 293.8 12.8
326(10) 0.01086 293.7 12.8
307(9) 0.01221 293.7 12.8
319(9) 0.01176 293.7 12.9
291(9) 0.01251 293.7 12.9
303(10) 0.01067 293.7 12.9
313(10) 0.01082 293.7 12.9
301(9) 0.01223 293.7 12.9
321(9) 0.01161 293.7 12.9
288(9) 0.01245 293.7 12.9
302(10) 0.01056 293.7 12.9
300(9) 0.01126 293.7 12.8
304(9) 0.01193 293.7 12.8
302(9) 0.01236 293.7 12.8
295(9) 0.01215 293.7 12.8
307(10) 0.01075 293.6 12.8
304(9) 0.01175 293.6 12.8
329(9) 0.01120 293.6 12.8
318(9) 0.01172 293.6 12.8
329(10) 0.01036 293.6 12.8
294(9) 0.01138 293.6 12.8
315(10) 0.01090 293.6 12.8
301(9) 0.01245 293.6 12.8
306(9) 0.01186 293.6 12.8
307(10) 0.01108 293.6 12.8
295(9) 0.01172 293.6 12.9
315(9) 0.01128 293.6 12.9
313(9) 0.01185 293.6 12.9
303(9) 0.01197 293.5 12.9
284(9) 0.01207 293.5 13.0
289(9) 0.01158 293.5 13.0
287(9) 0.01252 293.5 13.1
313(9) 0.01196 293.5 13.1
292(9) 0.01227 293.5 13.2
297(9) 0.01185 293.5 13.2
331(10) 0.00987 293.5 13.3
283(9) 0.01261 293.5 13.3
293(9) 0.01267 293.5 13.4
304(9) 0.01122 293.5 13.5
314(10) 0.01072 293.5 13.6
318(10) 0.01080 293.5 13.7
324(10) 0.01088 293.5 13.8
324(9) 0.01163 293.4 13.9
302(9) 0.01179 293.4 14.0
305(9) 0.01146 293.4 14.1
321(10) 0.01077 293.4 14.2
309(9) 0.01167 293.4 14.4
290(9) 0.01291 293.4 14.5
318(10) 0.01089 293.4 14.6
337(10) 0.00936 293.4 14.8
311(10) 0.01104 293.4 14.9
302(9) 0.01200 293.4 15.1
288(9) 0.01283 293.4 15.2
334(10) 0.00974 293.4 15.3
313(10) 0.01049 293.4 15.5
307(9) 0.01152 293.3 15.6
297(9) 0.01240 293.3 15.7
316(9) 0.01173 293.3 15.8
306(9) 0.01226 293.3 15.8
321(10) 0.01009 293.3 15.9
290(9) 0.01227 293.3 15.9
315(9) 0.01179 293.3 16.0
298(9) 0.01245 293.3 16.0
306(9) 0.01145 293.3 16.0
283(10) 0.01106 293.3 16.0
296(9) 0.01124 293.3 15.9
302(9) 0.01234 293.3 15.9
319(9) 0.01146 293.3 15.8
270(9) 0.01291 293.3 15.8
294(10) 0.01080 293.2 15.7
296(9) 0.01163 293.2 15.7
318(9) 0.01168 293.2 15.6
320(9) 0.01134 293.2 15.5
304(9) 0.01150 293.2 15.4
313(10) 0.01054 293.2 15.3
323(10) 0.01094 293.2 15.3
315(9) 0.01188 293.2 15.2
331(10) 0.01106 293.2 15.1
325(10) 0.01049 293.2 15.0
276(9) 0.01209 293.2 14.9
300(9) 0.01126 293.2 14.8
296(9) 0.01262 293.2 14.7
306(9) 0.01201 293.1 14.6
309(10) 0.01099 293.1 14.6
300(9) 0.01134 293.1 14.5
310(9) 0.01150 293.1 14.4
294(9) 0.01262 293.1 14.3
308(9) 0.01139 293.1 14.2
333(10) 0.00987 293.1 14.1
296(9) 0.01190 293.1 14.1
301(9) 0.01175 293.1 14.0
316(9) 0.01177 293.1 13.9
267(8) 0.01390 293.1 13.8
305(9) 0.01127 293.1 13.8
314(10) 0.01094 293.1 13.7
304(9) 0.01192 293.1 13.6
284(9) 0.01307 293.0 13.5
305(9) 0.01155 293.0 13.5
312(10) 0.01061 293.0 13.4
321(10) 0.01069 293.0 13.3
334(10) 0.01090 293.0 13.3
316(9) 0.01172 293.0 13.2
284(9) 0.01211 293.0 13.2
297(9) 0.01167 293.0 13.1
312(9) 0.01140 293.0 13.1
309(9) 0.01178 293.0 13.0
309(9) 0.01232 293.0 13.0
301(9) 0.01173 293.0 12.9
297(9) 0.01109 293.0 12.9
289(9) 0.01207 292.9 12.9
303(9) 0.01213 292.9 12.9
276(9) 0.01356 292.9 12.9
300(9) 0.01211 292.9 12.9
303(9) 0.01113 292.9 12.9
302(9) 0.01156 292.9 13.0
279(9) 0.01299 292.9 13.1
291(9) 0.01266 292.9 13.2
326(10) 0.01067 292.9 13.3
313(10) 0.01054 292.9 13.5
308(9) 0.01163 292.9 13.7
317(9) 0.01180 292.9 14.0
314(9) 0.01192 292.9 14.4
321(10) 0.01098 292.9 14.8
333(10) 0.00976 292.8 15.3
312(10) 0.01083 292.8 16.0
292(9) 0.01268 292.8 16.7
291(9) 0.01253 292.8 17.6
314(10) 0.01053 292.8 18.5
309(10) 0.01063 292.8 19.7
300(9) 0.01133 292.8 20.9
316(9) 0.01164 292.8 22.4
302(9) 0.01200 292.8 23.9
315(9) 0.01123 292.8 25.6
337(10) 0.01024 292.8 27.4
354(10) 0.00993 292.8 29.4
330(9) 0.01113 292.8 31.3
339(10) 0.01042 292.8 33.3
323(10) 0.01025 292.7 35.3
326(10) 0.01034 292.7 37.1
343(10) 0.01030 292.7 38.7
331(9) 0.01111 292.7 40.1
347(10) 0.01030 292.7 41.0
325(10) 0.01031 292.7 41.6
313(9) 0.01121 292.7 41.7
335(10) 0.01072 292.7 41.3
329(9) 0.01123 292.7 40.5
313(9) 0.01127 292.7 39.3
324(10) 0.01025 292.7 37.8
323(10) 0.01044 292.7 36.2
300(9) 0.01211 292.7 34.4
299(9) 0.01246 292.6 32.7
288(9) 0.01256 292.6 30.9
320(10) 0.00998 292.6 29.2
303(9) 0.01176 292.6 27.6
334(9) 0.01119 292.6 26.1
307(9) 0.01211 292.6 24.7
313(9) 0.01133 292.6 23.4
325(10) 0.01007 292.6 22.3
324(10) 0.01082 292.6 21.4
316(9) 0.01169 292.6 20.5
294(9) 0.01271 292.6 19.8
334(10) 0.01000 292.6 19.3
308(10) 0.01067 292.6 18.8
322(10) 0.01075 292.6 18.4
313(9) 0.01189 292.5 18.2
297(9) 0.01257 292.5 18.0
326(10) 0.01006 292.5 17.8
313(10) 0.01047 292.5 17.8
278(9) 0.01262 292.5 17.7
305(9) 0.01228 292.5 17.8
286(9) 0.01296 292.5 17.9
325(10) 0.01031 292.5 18.0
339(10) 0.00942 292.5 18.1
319(10) 0.01099 292.5 18.3
288(9) 0.01284 292.5 18.5
305(9) 0.01161 292.5 18.7
283(9) 0.01284 292.5 18.9
318(10) 0.01023 292.4 19.2
323(10) 0.01058 292.4 19.5
313(9) 0.01185 292.4 19.7
287(9) 0.01219 292.4 20.0
290(9) 0.01142 292.4 20.4
285(9) 0.01159 292.4 20.7
317(10) 0.01074 292.4 21.0
304(9) 0.01229 292.4 21.4
332(10) 0.01065 292.4 21.7
319(10) 0.01088 292.4 22.1
326(10) 0.01059 292.4 22.4
310(9) 0.01166 292.4 22.8
293(9) 0.01269 292.4 23.2
320(10) 0.01083 292.4 23.6
329(10) 0.01040 292.3 24.0
326(10) 0.01105 292.3 24.4
336(10) 0.01084 292.3 24.8
311(9) 0.01189 292.3 25.2
283(9) 0.01226 292.3 25.7
313(10) 0.01050 292.3 26.1
324(10) 0.01048 292.3 26.5
325(9) 0.01130 292.3 27.0
308(9) 0.01171 292.3 27.4
313(9) 0.01125 292.3 27.9
319(10) 0.00989 292.3 28.3
320(10) 0.01065 292.3 28.8
327(9) 0.01115 292.3 29.3
322(9) 0.01140 292.2 29.8
317(10) 0.01107 292.2 30.3
335(10) 0.00962 292.2 30.7
333(10) 0.01036 292.2 31.2
326(10) 0.01102 292.2 31.7
339(10) 0.01086 292.2 32.2
307(9) 0.01138 292.2 32.6
347(10) 0.00918 292.2 33.1
323(10) 0.01070 292.2 33.5
301(9) 0.01234 292.2 34.0
327(9) 0.01110 292.2 34.4
316(10) 0.01082 292.2 34.8
297(9) 0.01117 292.2 35.1
328(10) 0.01060 292.2 35.5
331(9) 0.01110 292.1 35.8
336(10) 0.01082 292.1 36.0
325(10) 0.01071 292.1 36.3
338(10) 0.00941 292.1 36.5
300(9) 0.01178 292.1 36.6
335(9) 0.01117 292.1 36.7
314(9) 0.01175 292.1 36.8
314(10) 0.01047 292.1 36.9
314(10) 0.00999 292.1 36.8
283(9) 0.01272 292.1 36.8
323(9) 0.01165 292.1 36.7
330(10) 0.01088 292.1 36.6
338(10) 0.01027 292.1 36.4
344(10) 0.00978 292.0 36.2
339(10) 0.01026 292.0 36.0
335(9) 0.01116 292.0 35.7
324(10) 0.01105 292.0 35.4
326(10) 0.01011 292.0 35.2
326(10) 0.01047 292.0 34.9
329(10) 0.01080 292.0 34.6
326(9) 0.01145 292.0 34.3
342(10) 0.01049 292.0 34.0
342(10) 0.01003 292.0 33.7
344(10) 0.00987 292.0 33.4
313(9) 0.01135 292.0 33.2
327(9) 0.01142 292.0 32.9
323(10) 0.01029 292.0 32.7
297(9) 0.01114 291.9 32.4
318(10) 0.01082 291.9 32.2
335(10) 0.01089 291.9 31.9
324(9) 0.01162 291.9 31.7
309(10) 0.01092 291.9 31.4
327(10) 0.01024 291.9 31.2
345(10) 0.01003 291.9 30.9
323(9) 0.01113 291.9 30.7
308(9) 0.01228 291.9 30.4
307(9) 0.01152 291.9 30.1
325(10) 0.01024 291.9 29.8
332(10) 0.01071 291.9 29.6
299(9) 0.01249 291.9 29.3
318(9) 0.01181 291.8 28.9
317(9) 0.01123 291.8 28.6
309(10) 0.01040 291.8 28.3
334(10) 0.01018 291.8 28.0
326(9) 0.01125 291.8 27.6
319(9) 0.01144 291.8 27.3
308(9) 0.01141 291.8 27.0
319(10) 0.00981 291.8 26.6
287(9) 0.01248 291.8 26.3
303(9) 0.01234 291.8 25.9
317(9) 0.01163 291.8 25.6
315(9) 0.01125 291.8 25.3
317(10) 0.00991 291.8 25.0
301(9) 0.01144 291.8 24.8
320(9) 0.01146 291.7 24.6
304(9) 0.01224 291.7 24.4
316(10) 0.01090 291.7 24.3
310(10) 0.01066 291.7 24.3
329(10) 0.01043 291.7 24.3
306(9) 0.01223 291.7 24.4
314(9) 0.01162 291.7 24.6
315(10) 0.01087 291.7 24.9
331(10) 0.01018 291.7 25.3
317(10) 0.01101 291.7 25.7
332(9) 0.01126 291.7 26.2
307(9) 0.01149 291.7 26.7
305(9) 0.01126 291.7 27.3
291(9) 0.01188 291.6 27.8
302(9) 0.01149 291.6 28.2
290(9) 0.01279 291.6 28.5
324(10) 0.01078 291.6 28.7
315(10) 0.01075 291.6 28.7
323(10) 0.01083 291.6 28.5
318(9) 0.01118 291.6 28.1
314(9) 0.01182 291.6 27.7
322(10) 0.01052 291.6 27.1
323(10) 0.01036 291.6 26.5
345(10) 0.00985 291.6 25.8
312(9) 0.01148 291.6 25.2
321(9) 0.01166 291.6 24.6
316(10) 0.01078 291.6 24.1
305(10) 0.01098 291.5 23.7
293(9) 0.01201 291.5 23.4
323(9) 0.01145 291.5 23.1
350(10) 0.01064 291.5 23.0
319(9) 0.01121 291.5 22.9
331(10) 0.00971 291.5 22.9
326(10) 0.01070 291.5 23.0
322(9) 0.01136 291.5 23.2
304(9) 0.01245 291.5 23.4
302(9) 0.01119 291.5 23.6
298(10) 0.01087 291.5 23.8
319(10) 0.01107 291.5 24.0
278(9) 0.01357 291.5 24.3
312(9) 0.01160 291.4 24.5
292(9) 0.01183 291.4 24.6
321(10) 0.00982 291.4 24.7
304(9) 0.01134 291.4 24.7
310(9) 0.01180 291.4 24.7
318(9) 0.01179 291.4 24.6
311(10) 0.01082 291.4 24.4
305(10) 0.01023 291.4 24.1
300(9) 0.01188 291.4 23.8
315(9) 0.01196 291.4 23.4
322(9) 0.01136 291.4 23.0
335(10) 0.01094 291.4 22.6
340(10) 0.01002 291.4 22.2
325(10) 0.01091 291.4 21.8
314(9) 0.01188 291.3 21.4
308(9) 0.01195 291.3 21.0
319(10) 0.01075 291.3 20.7
322(10) 0.01057 291.3 20.4
357(10) 0.00971 291.3 20.2
323(9) 0.01148 291.3 20.0
283(9) 0.01252 291.3 19.8
293(9) 0.01192 291.3 19.6
326(10) 0.01047 291.3 19.6
315(9) 0.01142 291.3 19.5
322(9) 0.01141 291.3 19.5
328(10) 0.01074 291.3 19.5
315(9) 0.01134 291.3 19.5
310(10) 0.01107 291.2 19.6
315(10) 0.01085 291.2 19.7
308(9) 0.01197 291.2 19.9
290(9) 0.01240 291.2 20.0
313(10) 0.01075 291.2 20.2
297(9) 0.01197 291.2 20.4
338(10) 0.01068 291.2 20.7
302(9) 0.01219 291.2 20.9
338(10) 0.00961 291.2 21.2
294(9) 0.01200 291.2 21.5
338(10) 0.01016 291.2 21.8
313(9) 0.01172 291.2 22.1
332(9) 0.01128 291.2 22.5
325(10) 0.01068 291.2 22.8
302(9) 0.01139 291.1 23.2
298(9) 0.01203 291.1 23.6
301(9) 0.01219 291.1 23.9
338(10) 0.01102 291.1 24.2
324(10) 0.01097 291.1 24.5
317(10) 0.01024 291.1 24.8
314(9) 0.01131 291.1 25.0
292(9) 0.01277 291.1 25.2
322(9) 0.01154 291.1 25.3
315(10) 0.01096 291.1 25.3
300(10) 0.01100 291.1 25.2
325(10) 0.01059 291.1 25.0
322(9) 0.01156 291.1 24.8
346(10) 0.01071 291.0 24.6
304(9) 0.01180 291.0 24.3
294(9) 0.01118 291.0 24.0
308(9) 0.01121 291.0 23.7
335(10) 0.01099 291.0 23.4
289(9) 0.01291 291.0 23.1
304(9) 0.01159 291.0 22.9
328(10) 0.00983 291.0 22.6
326(10) 0.01033 291.0 22.3
323(9) 0.01147 291.0 22.1
340(10) 0.01076 291.0 21.9
352(10) 0.00941 291.0 21.6
297(9) 0.01181 291.0 21.4
310(9) 0.01145 291.0 21.1
335(10) 0.01099 290.9 20.9
308(9) 0.01165 290.9 20.7
327(10) 0.01083 290.9 20.4
314(9) 0.01110 290.9 20.2
309(10) 0.01105 290.9 20.0
332(9) 0.01120 290.9 19.7
308(9) 0.01165 290.9 19.5
308(9) 0.01136 290.9 19.3
312(9) 0.01133 290.9 19.0
334(10) 0.01066 290.9 18.8
313(9) 0.01198 290.9 18.6
287(9) 0.01255 290.9 18.4
320(10) 0.01028 290.9 18.2
314(10) 0.01104 290.8 18.0
339(10) 0.01037 290.8 17.8
288(9) 0.01294 290.8 17.7
310(9) 0.01112 290.8 17.5
325(10) 0.00991 290.8 17.4
283(9) 0.01199 290.8 17.3
319(10) 0.01101 290.8 17.2
285(9) 0.01305 290.8 17.1
291(9) 0.01228 290.8 17.0
317(10) 0.01053 290.8 16.9
305(9) 0.01174 290.8 16.8
311(9) 0.01159 290.8 16.7
293(9) 0.01274 290.8 16.6
278(9) 0.01225 290.8 16.5
296(10) 0.01074 290.7 16.4
281(9) 0.01228 290.7 16.2
308(9) 0.01203 290.7 16.1
307(9) 0.01198 290.7 15.9
314(10) 0.01095 290.7 15.7
310(10) 0.01053 290.7 15.5
304(9) 0.01166 290.7 15.3
318(9) 0.01161 290.7 15.0
296(9) 0.01252 290.7 14.8
320(10) 0.01075 290.7 14.6
310(10) 0.01056 290.7 14.3
322(10) 0.01059 290.7 14.1
287(9) 0.01295 290.7 13.8
303(9) 0.01222 290.6 13.6
298(9) 0.01197 290.6 13.4
297(10) 0.01100 290.6 13.1
321(10) 0.01106 290.6 12.9
311(9) 0.01209 290.6 12.7
308(9) 0.01206 290.6 12.4
304(9) 0.01123 290.6 12.2
306(10) 0.01071 290.6 12.0
288(9) 0.01212 290.6 11.8
317(9) 0.01170 290.6 11.5
276(9) 0.01333 290.6 11.3
284(9) 0.01271 290.6 11.1
301(9) 0.01131 290.6 10.9
283(9) 0.01238 290.6 10.6
301(9) 0.01224 290.5 10.4
294(9) 0.01248 290.5 10.2
292(9) 0.01195 290.5 10.0
314(10) 0.01081 290.5 9.7
334(10) 0.01043 290.5 9.5
330(9) 0.01127 290.5 9.3
318(9) 0.01113 290.5 9.0
305(10) 0.01105 290.5 8.8
311(10) 0.01081 290.5 8.6
294(9) 0.01231 290.5 8.4
305(9) 0.01229 290.5 8.2
280(9) 0.01213 290.5 8.0
280(9) 0.01169 290.5 7.8
293(9) 0.01177 290.5 7.6
286(9) 0.01285 290.4 7.4
283(9) 0.01315 290.4 7.3
282(9) 0.01264 290.4 7.1
288(9) 0.01204 290.4 6.9
284(9) 0.01195 290.4 6.8
266(8) 0.01402 290.4 6.7
295(9) 0.01260 290.4 6.5
305(9) 0.01168 290.4 6.4
300(10) 0.01103 290.4 6.3
308(9) 0.01117 290.4 6.2
295(9) 0.01252 290.4 6.0
290(9) 0.01286 290.4 5.9
308(9) 0.01125 290.4 5.8
288(9) 0.01137 290.3 5.8
316(10) 0.01102 290.3 5.7
298(9) 0.01199 290.3 5.6
314(9) 0.01200 290.3 5.5
274(9) 0.01291 290.3 5.4
298(10) 0.01106 290.3 5.4
323(10) 0.01049 290.3 5.3
325(9) 0.01156 290.3 5.2
329(9) 0.01131 290.3 5.2
306(9) 0.01109 290.3 5.1
314(10) 0.01037 290.3 5.1
303(9) 0.01168 290.3 5.0
307(9) 0.01201 290.3 5.0
303(9) 0.01235 290.3 5.0
281(9) 0.01277 290.2 4.9
288(9) 0.01189 290.2 4.9
286(9) 0.01233 290.2 4.9
266(9) 0.01384 290.2 4.8
274(9) 0.01316 290.2 4.8
275(9) 0.01289 290.2 4.8
297(9) 0.01126 290.2 4.8
299(9) 0.01153 290.2 4.8
304(9) 0.01221 290.2 4.8
308(9) 0.01165 290.2 4.7
298(9) 0.01167 290.2 4.7
303(9) 0.01134 290.2 4.7
281(9) 0.01262 290.2 4.7
288(9) 0.01290 290.2 4.7
280(9) 0.01329 290.2 4.7
316(10) 0.01074 290.2 4.7
293(9) 0.01169 290.2 4.7
286(9) 0.01218 290.2 4.8
296(9) 0.01253 290.2 4.8
326(10) 0.01096 290.2 4.8
281(9) 0.01259 290.2 4.8
291(9) 0.01195 290.2 4.8
306(9) 0.01178 290.2 4.9
325(9) 0.01134 290.2 4.9
268(9) 0.01311 290.2 4.9
297(9) 0.01136 290.2 4.9
304(9) 0.01167 290.2 5.0
291(9) 0.01241 290.2 5.0
319(9) 0.01173 290.2 5.1
294(9) 0.01205 290.2 5.1
312(10) 0.01051 290.2 5.2
312(10) 0.01087 290.2 5.2
305(9) 0.01197 290.2 5.3
289(9) 0.01279 290.2 5.3
304(9) 0.01141 290.2 5.4
314(10) 0.01067 290.2 5.4
293(9) 0.01158 290.2 5.5
280(9) 0.01311 290.2 5.6
291(9) 0.01276 290.2 5.6
311(10) 0.01094 290.2 5.7
293(10) 0.01057 290.2 5.8
306(9) 0.01142 290.2 5.9
302(9) 0.01229 290.2 6.0
301(9) 0.01255 290.2 6.1
281(9) 0.01247 290.2 6.1
286(9) 0.01142 290.2 6.2
312(10) 0.01061 290.2 6.3
286(9) 0.01305 290.2 6.4
284(9) 0.01278 290.2 6.5
278(9) 0.01259 290.2 6.6
280(9) 0.01120 290.2 6.7
287(9) 0.01228 290.2 6.8
307(9) 0.01230 290.3 6.9
315(9) 0.01147 290.3 7.0
303(9) 0.01173 290.3 7.0
276(9) 0.01236 290.3 7.1
297(9) 0.01150 290.3 7.2
317(9) 0.01178 290.3 7.3
283(9) 0.01229 290.3 7.3
297(9) 0.01145 290.3 7.4
299(9) 0.01119 290.3 7.5
316(9) 0.01114 290.3 7.5
313(9) 0.01187 290.3 7.6
313(9) 0.01119 290.3 7.6
317(10) 0.01102 290.3 7.7
294(9) 0.01185 290.3 7.8
281(9) 0.01301 290.3 7.8
330(9) 0.01122 290.3 7.9
286(9) 0.01178 290.3 8.0
291(9) 0.01154 290.3 8.0
310(10) 0.01107 290.3 8.1
301(9) 0.01212 290.3 8.2
284(9) 0.01297 290.3 8.3
294(9) 0.01169 290.3 8.4
299(10) 0.01091 290.3 8.5
309(10) 0.01093 290.3 8.6
290(9) 0.01234 290.3 8.8
312(9) 0.01196 290.3 8.9
287(9) 0.01180 290.3 9.0
282(9) 0.01153 290.3 9.2
291(9) 0.01171 290.3 9.4
309(9) 0.01191 290.3 9.6
283(9) 0.01332 290.3 9.8
286(9) 0.01270 290.3 10.0
297(10) 0.01097 290.3 10.2
317(10) 0.01105 290.3 10.4
294(9) 0.01235 290.3 10.7
302(9) 0.01255 290.3 11.0
312(9) 0.01113 290.3 11.2
280(9) 0.01216 290.3 11.5
306(10) 0.01092 290.3 11.9
297(9) 0.01250 290.3 12.2
297(9) 0.01236 290.3 12.5
313(10) 0.01078 290.3 12.9
296(10) 0.01092 290.3 13.3
291(9) 0.01204 290.3 13.6
300(9) 0.01251 290.3 14.0
320(9) 0.01133 290.3 14.4
308(9) 0.01163 290.3 14.8
277(9) 0.01212 290.3 15.3
286(9) 0.01200 290.3 15.7
299(9) 0.01263 290.3 16.1
297(9) 0.01251 290.3 16.5
317(9) 0.01108 290.3 16.9
310(10) 0.01062 290.3 17.3
315(10) 0.01065 290.3 17.6
306(9) 0.01216 290.3 18.0
318(9) 0.01162 290.3 18.3
307(9) 0.01113 290.3 18.6
303(10) 0.01093 290.3 18.8
298(9) 0.01160 290.3 19.0
291(9) 0.01255 290.3 19.2
323(9) 0.01127 290.3 19.3
324(10) 0.01069 290.3 19.3
341(10) 0.00977 290.3 19.3
320(9) 0.01108 290.3 19.3
309(9) 0.01211 290.3 19.2
311(9) 0.01135 290.3 19.1
332(10) 0.01020 290.3 19.0
316(10) 0.01073 290.3 18.8
295(9) 0.01220 290.3 18.6
311(9) 0.01206 290.3 18.3
301(10) 0.01105 290.3 18.1
317(10) 0.01021 290.3 17.8
303(9) 0.01186 290.3 17.6
316(9) 0.01163 290.3 17.3
305(9) 0.01219 290.3 17.0
302(9) 0.01176 290.4 16.8
308(9) 0.01114 290.4 16.5
293(9) 0.01180 290.4 16.3
317(9) 0.01125 290.4 16.0
303(9) 0.01239 290.4 15.8
291(9) 0.01178 290.4 15.6
281(9) 0.01149 290.4 15.4
296(9) 0.01133 290.4 15.2
281(9) 0.01315 290.4 15.0
295(9) 0.01264 290.4 14.8
303(9) 0.01143 290.4 14.6
313(10) 0.00999 290.4 14.5
305(9) 0.01168 290.4 14.4
298(9) 0.01259 290.4 14.3
319(9) 0.01177 290.4 14.2
291(9) 0.01168 290.4 14.1
303(10) 0.01064 290.4 14.0
293(9) 0.01209 290.4 13.9
289(9) 0.01267 290.4 13.9
313(9) 0.01177 290.4 13.8
309(9) 0.01139 290.4 13.8
290(9) 0.01160 290.4 13.7
303(9) 0.01196 290.4 13.7
306(9) 0.01225 290.4 13.7
325(9) 0.01144 290.4 13.7
325(10) 0.01105 290.4 13.7
289(9) 0.01174 290.4 13.7
273(9) 0.01256 290.4 13.7
292(9) 0.01266 290.4 13.8
287(9) 0.01255 290.4 13.8
303(9) 0.01148 290.4 13.8
305(10) 0.01106 290.4 13.9
278(9) 0.01284 290.4 13.9
287(9) 0.01295 290.4 13.9
284(9) 0.01290 290.4 14.0
307(10) 0.01092 290.4 14.1
292(9) 0.01203 290.4 14.1
303(9) 0.01146 290.4 14.2
303(9) 0.01215 290.4 14.3
316(10) 0.01098 290.4 14.4
311(10) 0.01106 290.4 14.5
304(10) 0.01098 290.4 14.7
297(9) 0.01191 290.4 14.8
289(9) 0.01300 290.4 15.0
316(10) 0.01080 290.4 15.2
325(10) 0.00966 290.4 15.5
306(9) 0.01125 290.4 15.7
301(9) 0.01237 290.4 16.0
303(9) 0.01221 290.4 16.3
309(9) 0.01117 290.4 16.7
284(9) 0.01160 290.4 17.1
279(9) 0.01254 290.4 17.5
298(9) 0.01189 290.4 17.9
329(9) 0.01138 290.4 18.4
305(9) 0.01161 290.4 18.8
312(10) 0.01084 290.4 19.3
314(10) 0.01068 290.4 19.7
302(9) 0.01205 290.4 20.2
294(9) 0.01266 290.4 20.5
322(10) 0.01095 290.4 20.9
310(10) 0.01063 290.4 21.1
310(9) 0.01155 290.4 21.3
337(10) 0.01084 290.4 21.4
303(9) 0.01221 290.4 21.4
304(9) 0.01147 290.4 21.4
298(10) 0.01062 290.4 21.3
311(10) 0.01012 290.4 21.2
287(9) 0.01252 290.4 21.0
324(9) 0.01149 290.4 20.8
278(9) 0.01312 290.4 20.5
303(10) 0.01063 290.4 20.3
313(9) 0.01123 290.4 20.0
318(9) 0.01174 290.4 19.8
303(9) 0.01201 290.4 19.5
315(10) 0.01052 290.5 19.2
286(9) 0.01164 290.5 18.9
292(9) 0.01209 290.5 18.7
302(9) 0.01235 290.5 18.4
312(9) 0.01166 290.5 18.1
298(9) 0.01192 290.5 17.9
312(10) 0.01076 290.5 17.7
302(9) 0.01122 290.5 17.5
312(9) 0.01184 290.5 17.3
289(9) 0.01204 290.5 17.1
307(9) 0.01155 290.5 17.0
314(10) 0.01107 290.5 16.9
317(10) 0.01103 290.5 16.8
327(9) 0.01136 290.5 16.7
303(9) 0.01147 290.5 16.7
284(9) 0.01166 290.5 16.7
270(9) 0.01257 290.5 16.7
302(9) 0.01171 290.5 16.8
298(9) 0.01253 290.5 16.8
313(10) 0.01092 290.5 16.9
301(9) 0.01157 290.5 16.9
309(9) 0.01140 290.5 17.0
329(10) 0.01092 290.5 17.0
309(9) 0.01211 290.5 17.0
291(9) 0.01222 290.5 17.0
303(10) 0.01090 290.5 16.9
300(9) 0.01143 290.5 16.8
322(9) 0.01115 290.5 16.6
305(9) 0.01218 290.5 16.4
279(9) 0.01237 290.5 16.1
314(10) 0.01013 290.5 15.8
302(9) 0.01149 290.5 15.5
294(9) 0.01246 290.5 15.1
319(9) 0.01176 290.5 14.6
293(9) 0.01229 290.5 14.2
305(10) 0.01050 290.5 13.7
305(9) 0.01117 290.5 13.3
317(9) 0.01163 290.5 12.8
298(9) 0.01253 290.5 12.4
286(9) 0.01215 290.5 12.0
282(9) 0.01157 290.5 11.5
292(9) 0.01233 290.5 11.1
320(9) 0.01150 290.5 10.8
285(9) 0.01332 290.5 10.4
297(9) 0.01159 290.5 10.1
283(9) 0.01134 290.5 9.8
294(9) 0.01127 290.5 9.5
283(9) 0.01310 290.5 9.2
312(9) 0.01202 290.5 9.0
285(9) 0.01275 290.5 8.7
301(10) 0.01066 290.5 8.5
293(9) 0.01199 290.5 8.3
307(9) 0.01211 290.5 8.2
292(9) 0.01241 290.5 8.0
286(9) 0.01235 290.5 7.9
289(9) 0.01174 290.5 7.8
286(9) 0.01207 290.5 7.7
306(9) 0.01215 290.5 7.6
278(9) 0.01323 290.5 7.5
301(9) 0.01147 290.5 7.4
293(9) 0.01167 290.5 7.4
293(9) 0.01172 290.5 7.3
306(9) 0.01204 290.5 7.3
298(9) 0.01177 290.5 7.3
294(9) 0.01170 290.5 7.2
293(9) 0.01148 290.5 7.2
309(9) 0.01136 290.5 7.2
287(9) 0.01298 290.5 7.2
290(9) 0.01208 290.5 7.3
296(9) 0.01116 290.5 7.3
294(9) 0.01162 290.5 7.3
276(9) 0.01313 290.5 7.4
290(9) 0.01282 290.5 7.4
295(9) 0.01167 290.5 7.5
297(9) 0.01121 290.5 7.5
285(9) 0.01272 290.6 7.6
311(9) 0.01154 290.6 7.7
280(9) 0.01327 290.6 7.8
284(9) 0.01238 290.6 7.9
298(9) 0.01123 290.6 8.1
304(9) 0.01134 290.6 8.2
276(9) 0.01330 290.6 8.4
284(9) 0.01315 290.6 8.6
290(9) 0.01168 290.6 8.8
282(9) 0.01199 290.6 9.0
308(10) 0.01106 290.6 9.3
290(9) 0.01275 290.6 9.5
280(9) 0.01318 290.6 9.8
278(9) 0.01266 290.6 10.1
308(10) 0.01013 290.6 10.4
307(9) 0.01158 290.6 10.7
326(9) 0.01120 290.6 11.1
298(9) 0.01254 290.6 11.4
305(9) 0.01164 290.6 11.8
316(10) 0.01049 290.6 12.2
329(10) 0.01047 290.6 12.5
304(9) 0.01217 290.6 12.8
298(9) 0.01232 290.6 13.1
306(10) 0.01101 290.6 13.4
271(9) 0.01280 290.6 13.6
274(9) 0.01253 290.6 13.8
298(9) 0.01261 290.6 14.0
316(9) 0.01163 290.6 14.1
334(10) 0.01028 290.6 14.1
294(9) 0.01159 290.6 14.1
302(9) 0.01168 290.6 14.1
300(9) 0.01239 290.6 14.1
300(9) 0.01185 290.6 14.0
290(9) 0.01177 290.6 14.0
323(10) 0.01023 290.6 13.9
316(10) 0.01061 290.6 13.9
285(9) 0.01305 290.6 13.8
292(9) 0.01221 290.6 13.8
302(10) 0.01085 290.6 13.8
285(9) 0.01216 290.6 13.8
317(9) 0.01111 290.6 13.9
331(9) 0.01117 290.6 13.9
315(9) 0.01114 290.6 14.0
300(9) 0.01136 290.6 14.1
298(9) 0.01187 290.6 14.2
315(9) 0.01120 290.6 14.3
307(9) 0.01218 290.6 14.4
317(9) 0.01132 290.6 14.5
289(9) 0.01160 290.6 14.7
309(10) 0.01076 290.6 14.8
315(9) 0.01136 290.6 15.0
276(9) 0.01351 290.6 15.1
312(10) 0.01102 290.6 15.2
316(10) 0.01059 290.6 15.3
284(9) 0.01208 290.6 15.4
306(9) 0.01197 290.6 15.6
318(9) 0.01176 290.6 15.7
304(9) 0.01140 290.6 15.8
314(10) 0.01051 290.6 15.9
304(9) 0.01170 290.6 15.9
313(9) 0.01132 290.6 16.0
303(9) 0.01231 290.6 16.1
309(10) 0.01082 290.6 16.2
290(9) 0.01134 290.6 16.3
300(9) 0.01161 290.6 16.4
294(9) 0.01260 290.6 16.5
296(9) 0.01253 290.6 16.6
296(9) 0.01132 290.6 16.7
302(10) 0.01050 290.6 16.8
311(9) 0.01108 290.6 16.9
294(9) 0.01266 290.6 17.0
324(9) 0.01148 290.6 17.2
312(9) 0.01131 290.6 17.3
304(10) 0.01101 290.6 17.4
317(10) 0.01081 290.7 17.5
311(9) 0.01204 290.7 17.6
310(9) 0.01145 290.7 17.7
308(9) 0.01112 290.7 17.8
297(9) 0.01121 290.7 17.9
305(9) 0.01163 290.7 18.0
299(9) 0.01240 290.7 18.1
304(9) 0.01227 290.7 18.2
305(9) 0.01165 290.7 18.3
327(10) 0.01018 290.7 18.4
331(10) 0.01057 290.7 18.4
336(10) 0.01108 290.7 18.5
314(9) 0.01125 290.7 18.5
308(10) 0.01089 290.7 18.6
306(10) 0.01084 290.7 18.6
286(9) 0.01221 290.7 18.7
278(9) 0.01334 290.7 18.7
297(9) 0.01227 290.7 18.7
299(9) 0.01153 290.7 18.7
308(10) 0.01085 290.7 18.7
285(9) 0.01275 290.7 18.7
337(10) 0.01102 290.7 18.6
314(9) 0.01120 290.7 18.6
304(9) 0.01141 290.7 18.5
317(10) 0.01071 290.7 18.5
315(9) 0.01112 290.7 18.4
298(9) 0.01255 290.7 18.3
301(10) 0.01081 290.7 18.2
317(10) 0.01038 290.7 18.1
305(9) 0.01119 290.7 18.0
291(9) 0.01244 290.7 17.9
327(9) 0.01137 290.7 17.7
335(10) 0.01020 290.7 17.6
302(10) 0.01086 290.7 17.4
307(9) 0.01110 290.7 17.2
316(9) 0.01161 290.7 17.1
315(9) 0.01170 290.7 16.9
279(9) 0.01220 290.7 16.7
290(9) 0.01148 290.7 16.5
289(9) 0.01244 290.7 16.3
283(9) 0.01301 290.7 16.1
307(9) 0.01216 290.7 15.9
309(9) 0.01170 290.7 15.7
306(10) 0.01069 290.7 15.5
301(9) 0.01184 290.7 15.3
302(9) 0.01225 290.7 15.1
302(9) 0.01212 290.7 14.9
296(9) 0.01173 290.7 14.7
305(10) 0.01093 290.7 14.5
307(9) 0.01163 290.7 14.3
292(9) 0.01272 290.7 14.1
280(9) 0.01339 290.7 13.9
306(9) 0.01125 290.7 13.7
295(10) 0.01106 290.7 13.5
315(10) 0.01102 290.7 13.3
326(9) 0.01143 290.7 13.2
327(10) 0.01069 290.7 13.0
316(10) 0.01071 290.7 12.8
314(10) 0.01034 290.7 12.6
306(10) 0.01108 290.7 12.5
314(9) 0.01182 290.7 12.3
318(9) 0.01147 290.7 12.2
289(9) 0.01207 290.7 12.0
294(9) 0.01139 290.7 11.8
334(10) 0.01037 290.7 11.7
318(9) 0.01175 290.7 11.5
292(9) 0.01250 290.7 11.4
303(9) 0.01160 290.7 11.2
300(9) 0.01168 290.7 11.1
304(9) 0.01161 290.7 10.9
314(9) 0.01189 290.7 10.8
318(10) 0.01065 290.7 10.6
298(9) 0.01169 290.7 10.5
316(9) 0.01120 290.7 10.3
288(9) 0.01292 290.8 10.2
313(9) 0.01196 290.8 10.0
281(9) 0.01220 290.8 9.9
278(9) 0.01217 290.8 9.7
293(9) 0.01194 290.8 9.6
306(9) 0.01173 290.8 9.4
303(9) 0.01229 290.8 9.3
293(9) 0.01185 290.8 9.1
290(9) 0.01196 290.8 9.0
318(9) 0.01121 290.8 8.9
286(9) 0.01288 290.8 8.7
281(9) 0.01346 290.8 8.6
304(9) 0.01166 290.8 8.5
305(10) 0.01054 290.8 8.3
291(9) 0.01154 290.8 8.2
295(9) 0.01257 290.8 8.1
324(9) 0.01138 290.8 8.0
309(9) 0.01138 290.8 7.9
297(9) 0.01119 290.8 7.7
307(9) 0.01134 290.8 7.6
294(9) 0.01256 290.8 7.5
319(9) 0.01155 290.8 7.4
290(9) 0.01196 290.8 7.3
295(10) 0.01085 290.8 7.2
300(9) 0.01143 290.8 7.1
321(9) 0.01131 290.8 7.1
299(9) 0.01232 290.8 7.0
280(9) 0.01261 290.8 6.9
291(9) 0.01167 290.8 6.8
279(9) 0.01266 290.8 6.7
291(9) 0.01287 290.8 6.7
278(9) 0.01302 290.8 6.6
277(9) 0.01256 290.8 6.5
304(10) 0.01076 290.8 6.5
282(9) 0.01216 290.8 6.4
313(9) 0.01173 290.8 6.3
302(9) 0.01193 290.8 6.3
325(10) 0.01051 290.8 6.2
303(9) 0.01133 290.8 6.2
291(9) 0.01204 290.8 6.2
305(9) 0.01220 290.8 6.1
309(9) 0.01155 290.8 6.1
313(10) 0.01079 290.8 6.0
315(10) 0.01051 290.8 6.0
302(9) 0.01163 290.8 6.0
291(9) 0.01286 290.8 5.9
277(9) 0.01291 290.8 5.9
301(9) 0.01142 290.8 5.9
287(9) 0.01175 290.8 5.9
293(9) 0.01237 290.8 5.9
298(9) 0.01254 290.8 5.9
295(9) 0.01213 290.8 5.8
293(9) 0.01209 290.8 5.8
296(9) 0.01158 290.8 5.8
286(9) 0.01275 290.8 5.8
290(9) 0.01280 290.8 5.8
313(10) 0.01105 290.8 5.8
301(9) 0.01118 290.8 5.8
299(9) 0.01171 290.8 5.8
303(9) 0.01243 290.8 5.8
299(9) 0.01226 290.8 5.8
283(9) 0.01217 290.8 5.8
300(10) 0.01082 290.8 5.9
305(10) 0.01097 290.8 5.9
321(9) 0.01163 290.8 5.9
264(8) 0.01393 290.8 5.9
289(9) 0.01171 290.8 5.9
330(10) 0.00968 290.8 6.0
295(9) 0.01226 290.8 6.0
312(9) 0.01185 290.8 6.0
312(9) 0.01197 290.8 6.0
305(9) 0.01166 290.8 6.1
288(9) 0.01121 290.8 6.1
284(9) 0.01216 290.8 6.2
302(9) 0.01233 290.8 6.2
301(9) 0.01219 290.9 6.2
314(9) 0.01137 290.9 6.3
294(9) 0.01133 290.9 6.3
321(10) 0.01058 290.9 6.4
302(9) 0.01234 290.9 6.4
279(9) 0.01330 290.9 6.5
283(9) 0.01225 290.9 6.6
281(9) 0.01215 290.9 6.6
306(9) 0.01150 290.9 6.7
310(9) 0.01191 290.9 6.8
299(9) 0.01192 290.9 6.8
284(9) 0.01238 290.9 6.9
292(9) 0.01160 290.9 7.0
308(10) 0.01065 290.9 7.1
290(9) 0.01285 290.9 7.2
312(9) 0.01138 290.9 7.3
293(9) 0.01222 290.9 7.4
298(9) 0.01158 290.9 7.5
304(9) 0.01146 290.9 7.6
289(9) 0.01281 290.9 7.7
305(9) 0.01162 290.9 7.8
297(9) 0.01189 290.9 7.9
306(10) 0.01105 290.9 8.0
302(9) 0.01190 290.9 8.1
307(9) 0.01227 290.9 8.3
284(9) 0.01224 290.9 8.4
285(9) 0.01209 290.9 8.5
296(9) 0.01139 290.9 8.7
274(9) 0.01327 290.9 8.8
311(9) 0.01197 290.9 8.9
306(10) 0.01094 290.9 9.1
322(10) 0.01052 290.9 9.2
332(10) 0.01067 290.9 9.4
315(9) 0.01123 290.9 9.5
282(9) 0.01299 290.9 9.6
300(9) 0.01118 290.9 9.7
315(10) 0.01001 290.9 9.9
288(9) 0.01215 290.9 10.0
290(9) 0.01239 290.9 10.1
287(9) 0.01283 290.9 10.2
326(10) 0.01013 290.9 10.2
283(9) 0.01161 290.9 10.3
301(9) 0.01128 290.9 10.4
290(9) 0.01245 290.9 10.5
283(9) 0.01299 290.9 10.5
297(9) 0.01169 290.9 10.6
319(10) 0.00984 290.9 10.7
312(10) 0.01099 290.9 10.7
305(9) 0.01219 290.9 10.8
301(9) 0.01200 290.9 10.9
315(9) 0.01116 290.9 10.9
287(9) 0.01166 290.9 11.0
268(9) 0.01342 290.9 11.1
281(9) 0.01316 290.9 11.2
322(9) 0.01112 290.9 11.3
283(9) 0.01251 290.9 11.4
287(9) 0.01168 290.9 11.5
302(9) 0.01129 290.9 11.6
320(9) 0.01159 290.9 11.8
297(9) 0.01183 290.9 11.9
286(9) 0.01193 290.9 12.1
328(10) 0.00972 290.9 12.2
286(9) 0.01246 290.9 12.4
293(9) 0.01265 290.9 12.6
283(9) 0.01242 290.9 12.7
285(9) 0.01209 290.9 12.9
302(9) 0.01143 290.9 13.1
319(10) 0.01078 290.9 13.3
308(9) 0.01207 290.9 13.5
299(9) 0.01189 290.9 13.7
282(9) 0.01263 290.9 13.9
281(9) 0.01228 290.9 14.1
318(9) 0.01120 290.9 14.3
300(9) 0.01233 290.9 14.6
293(9) 0.01192 291.0 14.8
309(9) 0.01118 291.0 15.0
312(10) 0.01087 291.0 15.2
290(9) 0.01253 291.0 15.4
306(9) 0.01215 291.0 15.6
310(10) 0.01081 291.0 15.7
290(9) 0.01156 291.0 15.9
301(9) 0.01156 291.0 16.1
295(9) 0.01233 291.0 16.2
298(9) 0.01236 291.0 16.4
312(9) 0.01120 291.0 16.5
317(10) 0.01034 291.0 16.6
301(9) 0.01147 291.0 16.7
312(9) 0.01176 291.0 16.8
325(9) 0.01132 291.0 16.9
306(9) 0.01124 291.0 16.9
309(10) 0.01043 291.0 17.0
304(9) 0.01159 291.0 17.0
315(9) 0.01164 291.0 17.1
301(9) 0.01254 291.0 17.1
264(9) 0.01355 291.0 17.1
303(10) 0.01059 291.0 17.1
299(9) 0.01216 291.0 17.1
288(9) 0.01295 291.0 17.1
308(9) 0.01183 291.0 17.1
287(9) 0.01223 291.0 17.1
326(10) 0.00995 291.0 17.0
299(9) 0.01170 291.0 17.0
279(9) 0.01338 291.0 17.0
303(9) 0.01202 291.0 16.9
293(9) 0.01187 291.0 16.8
284(9) 0.01174 291.0 16.8
299(9) 0.01170 291.0 16.7
308(9) 0.01208 291.0 16.6
297(9) 0.01234 291.0 16.4
293(9) 0.01155 291.0 16.3
324(10) 0.01047 291.0 16.2
307(9) 0.01146 291.0 16.1
288(9) 0.01290 291.0 16.0
268(9) 0.01375 291.0 15.9
303(9) 0.01169 291.0 15.8
306(9) 0.01114 291.0 15.7
320(10) 0.01068 291.0 15.6
326(9) 0.01144 291.0 15.6
287(9) 0.01255 291.0 15.5
286(9) 0.01155 291.0 15.5
319(10) 0.01004 291.0 15.5
307(9) 0.01145 291.0 15.5
308(9) 0.01199 291.0 15.5
278(9) 0.01302 291.0 15.6
310(9) 0.01114 291.0 15.6
307(10) 0.01096 291.0 15.7
301(9) 0.01182 291.0 15.8
314(9) 0.01177 291.0 15.8
271(9) 0.01251 291.0 15.9
301(10) 0.01091 291.0 15.9
318(10) 0.01085 291.0 16.0
305(9) 0.01181 291.0 16.0
302(9) 0.01234 291.0 16.0
308(9) 0.01134 291.0 16.0
309(10) 0.01056 291.0 15.9
295(9) 0.01197 291.0 15.9
285(9) 0.01294 291.0 15.8
329(9) 0.01144 291.0 15.7
313(10) 0.01101 291.0 15.5
307(10) 0.01040 291.0 15.4
267(9) 0.01311 291.0 15.3
289(9) 0.01238 291.0 15.1
284(9) 0.01308 291.0 15.0
309(9) 0.01130 291.0 14.9
314(10) 0.01009 291.0 14.8
304(9) 0.01143 291.0 14.6
311(9) 0.01185 291.0 14.5
306(9) 0.01202 291.0 14.4
297(9) 0.01206 291.0 14.4
309(10) 0.01022 291.1 14.3
296(9) 0.01162 291.1 14.2
293(9) 0.01293 291.1 14.2
270(9) 0.01343 291.1 14.2
287(9) 0.01171 291.1 14.2
301(10) 0.01089 291.1 14.2
275(9) 0.01298 291.1 14.2
283(9) 0.01325 291.1 14.2
310(9) 0.01191 291.1 14.3
296(9) 0.01186 291.1 14.4
291(9) 0.01142 291.1 14.4
303(10) 0.01094 291.1 14.5
288(9) 0.01281 291.1 14.6
281(9) 0.01274 291.1 14.7
287(9) 0.01249 291.1 14.8
286(9) 0.01176 291.1 14.9
284(9) 0.01190 291.1 15.0
306(9) 0.01211 291.1 15.1
290(9) 0.01244 291.1 15.2
288(9) 0.01183 291.1 15.3
290(9) 0.01169 291.1 15.4
290(9) 0.01190 291.1 15.5
290(9) 0.01284 291.1 15.6
303(9) 0.01142 291.1 15.7
286(9) 0.01169 291.1 15.8
294(9) 0.01165 291.1 15.9
316(9) 0.01175 291.1 16.0
296(9) 0.01242 291.1 16.0
313(10) 0.01094 291.1 16.1
305(9) 0.01135 291.1 16.1
314(9) 0.01118 291.1 16.1
315(9) 0.01156 291.1 16.1
305(9) 0.01224 291.1 16.1
296(9) 0.01140 291.1 16.1
303(10) 0.01078 291.1 16.0
310(10) 0.01089 291.1 16.0
284(9) 0.01268 291.1 15.9
298(9) 0.01251 291.1 15.9
287(9) 0.01206 291.1 15.8
317(10) 0.01060 291.1 15.8
324(10) 0.01095 291.1 15.7
309(9) 0.01202 291.1 15.6
306(9) 0.01211 291.1 15.6
289(9) 0.01257 291.1 15.5
308(10) 0.01064 291.1 15.4
296(9) 0.01185 291.1 15.4
283(9) 0.01294 291.1 15.3
305(9) 0.01237 291.1 15.2
293(9) 0.01193 291.1 15.2
285(9) 0.01151 291.1 15.1
302(9) 0.01150 291.1 15.1
285(9) 0.01279 291.1 15.0
288(9) 0.01290 291.1 15.0
289(9) 0.01203 291.1 15.0
305(9) 0.01111 291.1 14.9
304(9) 0.01154 291.1 14.9
275(9) 0.01354 291.1 14.8
303(9) 0.01200 291.1 14.8
292(9) 0.01203 291.1 14.8
287(9) 0.01143 291.1 14.7
278(9) 0.01283 291.1 14.7
298(9) 0.01255 291.1 14.7
302(9) 0.01208 291.1 14.7
277(9) 0.01254 291.1 14.7
270(9) 0.01257 291.1 14.7
300(9) . . .
302(9) . . .
295(9) . . .
312(10) . . .
283(9) . . .
299(9) . . .
279(9) . . .
275(9) . . .
307(9) . . .
313(9) . . .
287(9) . . .
295(9) . . .
324(10) . . .
308(10) . . .
296(9) . . .
286(9) . . .
307(9) . . .
309(9) . . .
303(10) . . .
310(10) . . .
293(9) . . .
311(9) . . .
291(9) . . .
305(9) . . .
313(9) . . .
322(9) . . .
313(9) . . .
304(9) . . .
287(10) . . .
291(9) . . .
311(9) . . .
294(9) . . .
306(10) . . .
295(10) . . .
290(9) . . .
325(9) . . .
288(9) . . .
305(9) . . .
317(10) . . .
307(9) . . .
297(9) . . .
326(10) . . .
312(10) . . .
292(10) . . .
260(9) . . .
291(9) . . .
298(9) . . .
305(9) . . .
298(9) . . .
298(9) . . .
293(9) . . .
296(9) . . .
278(9) . . .
312(10) . . .
300(9) . . .
299(9) . . .
305(9) . . .
301(9) . . .
298(9) . . .
281(9) . . .
307(9) . . .
272(9) . . .
288(9) . . .
308(9) . . .
320(9) . . .
301(9) . . .
302(10) . . .
287(9) . . .
306(9) . . .
325(9) . . .
307(9) . . .
304(9) . . .
259(9) . . .
307(9) . . .
318(9) . . .
299(9) . . .
293(9) . . .
305(10) . . .
295(9) . . .
296(9) . . .
297(9) . . .
307(9) . . .
316(10) . . .
305(9) . . .
310(9) . . .
276(9) . . .
312(9) . . .
314(10) . . .
302(9) . . .
309(9) . . .
317(9) . . .
285(9) . . .
305(10) . . .
273(9) . . .
302(9) . . .
283(9) . . .
268(9) . . .
267(9) . . .
296(9) . . .
313(9) . . .
308(9) . . .
275(9) . . .
296(9) . . .
283(9) . . .
304(9) . . .
299(9) . . .
290(9) . . .
290(9) . . .
277(9) . . .
272(8) . . .
246(8) . . .
277(9) . . .
292(9) . . .
282(9) . . .
269(9) . . .
266(9) . . .
300(10) . . .
296(9) . . .
298(9) . . .
275(9) . . .
287(9) . . .
283(9) . . .
292(9) . . .
276(9) . . .
293(9) . . .
282(9) . . .
272(9) . . .
279(9) . . .
301(9) . . .
286(9) . . .
308(9) . . .
302(10) . . .
305(9) . . .
299(9) . . .
273(9) . . .
278(9) . . .
264(9) . . .
290(9) . . .
294(9) . . .
297(9) . . .
296(9) . . .
298(10) . . .
279(9) . . .
286(9) . . .
297(9) . . .
290(9) . . .
288(9) . . .
282(9) . . .
294(9) . . .
271(9) . . .
281(9) . . .
284(9) . . .
294(9) . . .
289(9) . . .
289(9) . . .
284(9) . . .
254(8) . . .
289(9) . . .
247(8) . . .
298(9) . . .
291(9) . . .
297(9) . . .
286(9) . . .
286(9) . . .
275(9) . . .
284(9) . . .
313(10) . . .
282(9) . . .
267(9) . . .
278(9) . . .
262(9) . . .
260(9) . . .
261(8) . . .
261(8) . . .
267(9) . . .
280(9) . . .
259(9) . . .
285(9) . . .
292(9) . . .
303(9) . . .
306(10) . . .
272(9) . . .
277(9) . . .
268(9) . . .
283(9) . . .
262(9) . . .
285(9) . . .
267(8) . . .
267(8) . . .
264(9) . . .
272(9) . . .
292(9) . . .
271(8) . . .
262(8) . . .
293(9) . . .
286(9) . . .
284(9) . . .
287(9) . . .
300(9) . . .
283(9) . . .
303(10) . . .
259(9) . . .
291(9) . . .
279(9) . . .
270(9) . . .
268(9) . . .
285(9) . . .
284(9) . . .
254(8) . . .
300(9) . . .
315(10) . . .
256(9) . . .
266(8) . . .
322(10) . . .
298(9) . . .
276(9) . . .
273(9) . . .
279(9) . . .
263(9) . . .
270(9) . . .
272(9) . . .
288(9) . . .
282(9) . . .
271(9) . . .
265(9) . . .
278(9) . . .
260(8) . . .
280(9) . . .
287(9) . . .
282(9) . . .
298(10) . . .
284(9) . . .
267(9) . . .
285(9) . . .
294(10) . . .
282(9) . . .
269(9) . . .
276(9) . . .
279(9) . . .
245(9) . . .
266(9) . . .
287(9) . . .
289(9) . . .
272(9) . . .
273(9) . . .
270(9) . . .
263(8) . . .
285(9) . . .
276(9) . . .
263(9) . . .
244(8) . . .
274(9) . . .
291(9) . . .
288(9) . . .
289(9) . . .
269(9) . . .
275(9) . . .
258(8) . . .
284(9) . . .
282(9) . . .
275(9) . . .
285(9) . . .
280(9) . . .
268(9) . . .
251(8) . . .
280(9) . . .
278(9) . . .
309(10) . . .
290(9) . . .
307(9) . . .
297(9) . . .
291(9) . . .
283(9) . . .
294(10) . . .
286(9) . . .
305(9) . . .
283(9) . . .
261(9) . . .
309(10) . . .
261(9) . . .
276(9) . . .
300(9) . . .
276(9) . . .
298(10) . . .
297(9) . . .
295(9) . . .
284(9) . . .
293(9) . . .
294(9) . . .
300(9) . . .
281(9) . . .
292(9) . . .
258(9) . . .
285(9) . . .
286(9) . . .
302(9) . . .
273(9) . . .
271(9) . . .
276(9) . . .
271(9) . . .
261(8) . . .
275(9) . . .
279(9) . . .
275(9) . . .
274(9) . . .
284(9) . . .
276(9) . . .
268(9) . . .
293(9) . . .
273(9) . . .
291(9) . . .
262(8) . . .
273(9) . . .
287(9) . . .
281(9) . . .
285(9) . . .
281(9) . . .
280(9) . . .
307(9) . . .
277(9) . . .
285(9) . . .
296(9) . . .
267(9) . . .
279(9) . . .
280(9) . . .
298(9) . . .
301(9) . . .
289(9) . . .
320(10) . . .
283(9) . . .
282(9) . . .
288(9) . . .
292(9) . . .
298(9) . . .
282(9) . . .
284(9) . . .
278(9) . . .
309(10) . . .
305(9) . . .
316(9) . . .
293(9) . . .
291(9) . . .
278(9) . . .
276(9) . . .
278(9) . . .
306(9) . . .
286(9) . . .
303(10) . . .
287(9) . . .
305(9) . . .
292(9) . . .
294(9) . . .
278(9) . . .
297(9) . . .
268(9) . . .
299(9) . . .
265(9) . . .
273(9) . . .
282(9) . . .
285(9) . . .
260(9) . . .
263(9) . . .
285(9) . . .
288(9) . . .
295(9) . . .
280(9) . . .
286(9) . . .
268(9) . . .
300(9) . . .
297(9) . . .
269(9) . . .
268(9) . . .
280(9) . . .
317(9) . . .
306(9) . . .
273(9) . . .
295(10) . . .
297(9) . . .
266(8) . . .
287(9) . . .
281(9) . . .
296(10) . . .
303(9) . . .
293(9) . . .
286(9) . . .
281(9) . . .
290(9) . . .
283(9) . . .
282(9) . . .
286(9) . . .
310(9) . . .
325(10) . . .
286(9) . . .
289(9) . . .
312(9) . . .
291(9) . . .
295(9) . . .
307(9) . . .
298(9) . . .
283(9) . . .
282(9) . . .
299(9) . . .
311(9) . . .
284(9) . . .
270(9) . . .
288(9) . . .
299(9) . . .
298(9) . . .
276(9) . . .
308(9) . . .
301(9) . . .
274(9) . . .
285(9) . . .
289(9) . . .
296(9) . . .
308(10) . . .
303(9) . . .
280(9) . . .
276(9) . . .
286(9) . . .
269(9) . . .
275(9) . . .
290(9) . . .
313(9) . . .
259(9) . . .
287(9) . . .
276(9) . . .
284(9) . . .
291(9) . . .
276(9) . . .
302(10) . . .
301(9) . . .
291(9) . . .
263(8) . . .
284(9) . . .
293(10) . . .
291(9) . . .
290(9) . . .
285(9) . . .
300(9) . . .
269(9) . . .
301(10) . . .
288(9) . . .
310(9) . . .
276(9) . . .
280(9) . . .
266(9) . . .
272(9) . . .
273(9) . . .
300(9) . . .
290(9) . . .
285(9) . . .
268(8) . . .
283(9) . . .
284(9) . . .
270(9) . . .
290(9) . . .
278(9) . . .
278(9) . . .
287(9) . . .
271(9) . . .
271(9) . . .
268(9) . . .
279(9) . . .
248(8) . . .
265(9) . . .
264(9) . . .
281(9) . . .
278(9) . . .
270(9) . . .
230(8) . . .
261(9) . . .
293(9) . . .
281(9) . . .
273(9) . . .
270(9) . . .
269(9) . . .
278(9) . . .
286(9) . . .
283(9) . . .
274(9) . . .
267(9) . . .
274(9) . . .
276(9) . . .
278(9) . . .
281(9) . . .
271(9) . . .
252(8) . . .
257(9) . . .
275(9) . . .
278(9) . . .
271(9) . . .
274(9) . . .
275(9) . . .
299(10) . . .
276(9) . . .
271(9) . . .
270(9) . . .
253(8) . . .
288(10) . . .
277(9) . . .
263(8) . . .
289(9) . . .
270(9) . . .
276(9) . . .
247(8) . . .
274(9) . . .
269(8) . . .
280(9) . . .
245(8) . . .
276(9) . . .
275(9) . . .
272(9) . . .
293(9) . . .
288(9) . . .
254(8) . . .
242(8) . . .
254(9) . . .
252(9) . . .
260(9) . . .
252(8) . . .
249(8) . . .
266(9) . . .
278(9) . . .
226(8) . . .
251(8) . . .
264(8) . . .
292(9) . . .
290(9) . . .
261(9) . . .
237(8) . . .
257(8) . . .
292(9) . . .
266(9) . . .
253(9) . . .
243(8) . . .
261(8) . . .
271(9) . . .
253(9) . . .
250(8) . . .
251(8) . . .
277(9) . . .
255(9) . . .
232(8) . . .
234(8) . . .
276(9) . . .
277(9) . . .
255(9) . . .
275(9) . . .
259(9) . . .
257(8) . . .
281(9) . . .
274(9) . . .
254(9) . . .
260(9) . . .
260(8) . . .
249(8) . . .
242(8) . . .
263(9) . . .
275(9) . . .
247(8) . . .
265(9) . . .
278(9) . . .
265(9) . . .
260(9) . . .
252(8) . . .
242(8) . . .
273(9) . . .
269(9) . . .
270(9) . . .
261(8) . . .
271(9) . . .
254(9) . . .
277(9) . . .
234(8) . . .
279(9) . . .
272(9) . . .
267(9) . . .
261(9) . . .
256(8) . . .
255(8) . . .
235(8) . . .
240(9) . . .
276(9) . . .
250(8) . . .
267(8) . . .
241(8) . . .
245(9) . . .
259(9) . . .
256(8) . . .
242(8) . . .
273(9) . . .
265(9) . . .
250(9) . . .
266(8) . . .
266(9) . . .
247(8) . . .
260(9) . . .
240(8) . . .
252(8) . . .
257(8) . . .
257(9) . . .
255(9) . . .
252(9) . . .
267(8) . . .
269(9) . . .
261(9) . . .
256(9) . . .
253(9) . . .
242(8) . . .
273(9) . . .
252(9) . . .
254(9) . . .
259(9) . . .
273(9) . . .
250(8) . . .
245(9) . . .
250(9) . . .
245(8) . . .
250(8) . . .
249(8) . . .
275(9) . . .
250(9) . . .
260(8) . . .
277(9) . . .
271(9) . . .
260(9) . . .
261(9) . . .
276(9) . . .
272(9) . . .
258(9) . . .
266(9) . . .
251(8) . . .
246(8) . . .
261(8) . . .
240(8) . . .
248(9) . . .
262(9) . . .
267(8) . . .
255(8) . . .
243(8) . . .
252(9) . . .
284(9) . . .
255(8) . . .
265(8) . . .
249(8) . . .
263(9) . . .
260(9) . . .
271(9) . . .
247(8) . . .
238(8) . . .
274(9) . . .
231(8) . . .
257(8) . . .
254(8) . . .
255(8) . . .
259(9) . . .
239(8) . . .
244(8) . . .
245(8) . . .
263(9) . . .
267(9) . . .
249(8) . . .
261(8) . . .
255(9) . . .
253(9) . . .
277(9) . . .
271(9) . . .
250(8) . . .
244(8) . . .
256(9) . . .
248(8) . . .
262(8) . . .
262(8) . . .
237(8) . . .
276(9) . . .
270(9) . . .
253(8) . . .
261(8) . . .
268(9) . . .
264(9) . . .
270(9) . . .
253(8) . . .
250(8) . . .
246(9) . . .
272(9) . . .
242(8) . . .
260(8) . . .
269(8) . . .
244(8) . . .
256(9) . . .
254(8) . . .
248(8) . . .
265(9) . . .
260(9) . . .
263(9) . . .
305(10) . . .
268(8) . . .
272(9) . . .
263(9) . . .
267(9) . . .
262(9) . . .
277(9) . . .
256(8) . . .
246(8) . . .
264(9) . . .
260(9) . . .
265(8) . . .
269(9) . . .
250(9) . . .
255(9) . . .
258(9) . . .
235(8) . . .
249(8) . . .
236(8) . . .
252(9) . . .
261(9) . . .
252(8) . . .
251(9) . . .
244(8) . . .
249(8) . . .
241(8) . . .
263(8) . . .
234(8) . . .
248(9) . . .
258(9) . . .
241(8) . . .
251(8) . . .
267(9) . . .
267(9) . . .
280(9) . . .
263(8) . . .
258(8) . . .
257(9) . . .
249(9) . . .
241(8) . . .
253(8) . . .
251(8) . . .
268(9) . . .
236(8) . . .
264(9) . . .
261(8) . . .
281(9) . . .
264(9) . . .
254(9) . . .
271(9) . . .
242(8) . . .
263(9) . . .
263(9) . . .
275(9) . . .
265(9) . . .
275(9) . . .
247(8) . . .
261(9) . . .
248(8) . . .
276(9) . . .
239(8) . . .
249(8) . . .
250(8) . . .
259(9) . . .
234(8) . . .
228(8) . . .
237(8) . . .
261(9) . . .
251(9) . . .
264(9) . . .
243(8) . . .
277(9) . . .
244(8) . . .
243(9) . . .
248(8) . . .
250(8) . . .
247(8) . . .
268(9) . . .
234(8) . . .
236(8) . . .
255(8) . . .
250(9) . . .
245(9) . . .
238(8) . . .
232(8) . . .
252(8) . . .
251(8) . . .
252(9) . . .
242(8) . . .
236(8) . . .
260(8) . . .
246(8) . . .
238(9) . . .
246(9) . . .
234(8) . . .
245(8) . . .
236(8) . . .
237(9) . . .
248(9) . . .
244(8) . . .
257(8) . . .
252(9) . . .
246(9) . . .
237(8) . . .
234(8) . . .
243(8) . . .
239(8) . . .
241(9) . . .
224(8) . . .
241(8) . . .
239(8) . . .
255(9) . . .
280(9) . . .
242(8) . . .
270(8) . . .
247(8) . . .
260(8) . . .
260(9) . . .
249(9) . . .
236(8) . . .
233(8) . . .
247(8) . . .
227(8) . . .
245(8) . . .
247(8) . . .
216(8) . . .
241(8) . . .
259(9) . . .
286(9) . . .
233(8) . . .
247(9) . . .
238(8) . . .
262(9) . . .
219(8) . . .
244(8) . . .
250(9) . . .
261(9) . . .
230(8) . . .
219(8) . . .
214(8) . . .
250(8) . . .
237(9) . . .
236(8) . . .
243(8) . . .
227(8) . . .
234(8) . . .
233(9) . . .
227(8) . . .
223(8) . . .
230(8) . . .
238(8) . . .
238(9) . . .
257(9) . . .
234(8) . . .
239(8) . . .
224(8) . . .
239(8) . . .
239(8) . . .
245(8) . . .
251(8) . . .
257(9) . . .
231(8) . . .
230(8) . . .
232(8) . . .
229(8) . . .
206(8) . . .
231(8) . . .
250(8) . . .
214(8) . . .
210(8) . . .
228(8) . . .
240(8) . . .
248(8) . . .
240(8) . . .
231(8) . . .
220(8) . . .
216(8) . . .
238(8) . . .
234(8) . . .
229(8) . . .
235(8) . . .
243(8) . . .
235(8) . . .
233(8) . . .
220(8) . . .
213(8) . . .
232(8) . . .
238(8) . . .
214(8) . . .
216(8) . . .
220(8) . . .
249(9) . . .
223(8) . . .
233(8) . . .
230(8) . . .
225(8) . . .
214(8) . . .
195(7) . . .
222(8) . . .
222(8) . . .
232(8) . . .
199(8) . . .
214(8) . . .
218(8) . . .
240(8) . . .
239(8) . . .
245(9) . . .
223(8) . . .
223(8) . . .
224(8) . . .
206(8) . . .
224(8) . . .
239(8) . . .
236(8) . . .
230(9) . . .
222(8) . . .
251(8) . . .
240(8) . . .
220(8) . . .
235(8) . . .
215(8) . . .
240(8) . . .
222(8) . . .
218(8) . . .
214(8) . . .
221(8) . . .
210(8) . . .
220(8) . . .
224(8) . . .
223(8) . . .
213(8) . . .
241(8) . . .
228(8) . . .
238(8) . . .
230(8) . . .
227(8) . . .
219(8) . . .
223(8) . . .
219(8) . . .
242(9) . . .
233(8) . . .
242(8) . . .
220(8) . . .
227(8) . . .
223(8) . . .
220(8) . . .
224(8) . . .
227(8) . . .
213(8) . . .
208(8) . . .
237(8) . . .
239(8) . . .
233(8) . . .
234(8) . . .
226(8) . . .
223(8) . . .
208(8) . . .
210(8) . . .
215(8) . . .
250(9) . . .
216(8) . . .
230(8) . . .
209(8) . . .
211(8) . . .
215(8) . . .
226(8) . . .
220(8) . . .
227(8) . . .
212(8) . . .
218(8) . . .
219(8) . . .
214(8) . . .
219(8) . . .
218(8) . . .
213(8) . . .
231(8) . . .
240(8) . . .
207(8) . . .
228(8) . . .
226(8) . . .
222(8) . . .
225(8) . . .
207(8) . . .
203(8) . . .
208(8) . . .
233(8) . . .
216(8) . . .
220(8) . . .
216(8) . . .
223(8) . . .
241(8) . . .
213(8) . . .
223(8) . . .
214(8) . . .
203(7) . . .
215(8) . . .
223(8) . . .
239(8) . . .
222(8) . . .
241(8) . . .
232(8) . . .
210(8) . . .
229(8) . . .
223(8) . . .
224(8) . . .
219(8) . . .
232(8) . . .
223(8) . . .
231(8) . . .
218(8) . . .
231(8) . . .
213(8) . . .
247(9) . . .
215(8) . . .
213(8) . . .
254(8) . . .
223(8) . . .
225(8) . . .
231(8) . . .
216(8) . . .
204(7) . . .
228(8) . . .
209(8) . . .
237(8) . . .
222(8) . . .
238(8) . . .
221(8) . . .
219(8) . . .
217(8) . . .
235(8) . . .
213(8) . . .
224(8) . . .
228(8) . . .
205(7) . . .
208(8) . . .
246(8) . . .
223(8) . . .
242(9) . . .
243(8) . . .
244(8) . . .
204(7) . . .
236(8) . . .
237(8) . . .
212(8) . . .
205(7) . . .
240(8) . . .
218(8) . . .
222(8) . . .
222(8) . . .
220(8) . . .
222(8) . . .
216(8) . . .
248(9) . . .
231(8) . . .
226(8) . . .
223(8) . . .
226(8) . . .
226(8) . . .
195(7) . . .
215(8) . . .
213(8) . . .
224(8) . . .
222(8) . . .
201(8) . . .
215(8) . . .
229(8) . . .
223(8) . . .
214(8) . . .
222(8) . . .
228(8) . . .
208(8) . . .
234(8) . . .
222(8) . . .
204(8) . . .
222(8) . . .
227(8) . . .
221(8) . . .
205(8) . . .
191(7) . . .
205(7) . . .
216(8) . . .
197(8) . . .
208(8) . . .
212(8) . . .
201(7) . . .
205(8) . . .
220(8) . . .
220(8) . . .
223(8) . . .
225(8) . . .
229(8) . . .
200(8) . . .
229(8) . . .
208(7) . . .
212(8) . . .
229(8) . . .
219(8) . . .
196(7) . . .
198(7) . . .
205(7) . . .
216(8) . . .
184(7) . . .
207(8) . . .
233(8) . . .
216(8) . . .
211(8) . . .
231(9) . . .
217(8) . . .
225(8) . . .
196(7) . . .
217(8) . . .
224(8) . . .
223(8) . . .
215(8) . . .
191(7) . . .
224(8) . . .
198(8) . . .
208(8) . . .
222(8) . . .
207(8) . . .
232(8) . . .
201(8) . . .
231(8) . . .
219(8) . . .
217(8) . . .
227(8) . . .
198(7) . . .
194(7) . . .
211(8) . . .
214(8) . . .
213(8) . . .
231(8) . . .
214(8) . . .
206(7) . . .
209(8) . . .
209(8) . . .
207(8) . . .
206(8) . . .
218(8) . . .
221(8) . . .
200(8) . . .
210(8) . . .
222(8) . . .
216(8) . . .
220(8) . . .
212(8) . . .
214(8) . . .
217(8) . . .
226(8) . . .
215(8) . . .
240(9) . . .
224(8) . . .
221(8) . . .
222(8) . . .
222(8) . . .
208(8) . . .
212(8) . . .
225(8) . . .
211(8) . . .
225(8) . . .
198(8) . . .
207(8) . . .
192(7) . . .
193(7) . . .
221(8) . . .
201(8) . . .
223(8) . . .
205(7) . . .
207(7) . . .
204(8) . . .
212(8) . . .
204(8) . . .
193(7) . . .
218(8) . . .
182(7) . . .
209(8) . . .
216(8) . . .
223(8) . . .
218(8) . . .
189(7) . . .
196(7) . . .
203(7) . . .
207(7) . . .
187(7) . . .
221(8) . . .
209(8) . . .
190(7) . . .
205(7) . . .
227(8) . . .
209(8) . . .
216(8) . . .
211(8) . . .
193(7) . . .
228(8) . . .
214(8) . . .
216(8) . . .
215(8) . . .
205(7) . . .
206(8) . . .
202(8) . . .
236(8) . . .
200(7) . . .
202(7) . . .
186(7) . . .
186(8) . . .
208(8) . . .
209(8) . . .
196(7) . . .
199(8) . . .
210(8) . . .
203(8) . . .
215(8) . . .
211(8) . . .
189(7) . . .
203(8) . . .
214(8) . . .
184(7) . . .
219(8) . . .
227(8) . . .
202(8) . . .
202(7) . . .
197(7) . . .
213(8) . . .
208(8) . . .
195(8) . . .
208(8) . . .
209(7) . . .
207(8) . . .
199(8) . . .
223(8) . . .
218(8) . . .
204(7) . . .
211(8) . . .
195(8) . . .
227(8) . . .
196(7) . . .
237(8) . . .
191(7) . . .
192(8) . . .
211(8) . . .
208(7) . . .
208(8) . . .
203(8) . . .
202(8) . . .
204(8) . . .
194(7) . . .
213(8) . . .
224(8) . . .
213(8) . . .
206(7) . . .
206(7) . . .
192(7) . . .
185(7) . . .
198(8) . . .
200(8) . . .
201(7) . . .
195(7) . . .
214(8) . . .
205(8) . . .
204(8) . . .
205(7) . . .
192(7) . . .
195(7) . . .
216(8) . . .
212(8) . . .
213(8) . . .
190(7) . . .
197(8) . . .
194(7) . . .
207(8) . . .
199(7) . . .
193(7) . . .
226(8) . . .
199(8) . . .
210(8) . . .
213(8) . . .
210(8) . . .
215(8) . . .
203(7) . . .
194(7) . . .
203(7) . . .
215(8) . . .
194(8) . . .
221(8) . . .
221(8) . . .
176(7) . . .
210(8) . . .
231(8) . . .
211(8) . . .
224(8) . . .
215(8) . . .
213(8) . . .
217(8) . . .
214(8) . . .
223(8) . . .
210(8) . . .
205(8) . . .
213(8) . . .
222(8) . . .
214(8) . . .
215(8) . . .
227(8) . . .
196(7) . . .
191(7) . . .
211(8) . . .
218(8) . . .
221(8) . . .
215(8) . . .
224(8) . . .
237(8) . . .
213(8) . . .
201(8) . . .
205(8) . . .
220(8) . . .
224(8) . . .
200(7) . . .
218(8) . . .
215(8) . . .
200(7) . . .
215(8) . . .
220(8) . . .
210(8) . . .
218(8) . . .
208(8) . . .
212(8) . . .
230(8) . . .
210(8) . . .
220(8) . . .
209(8) . . .
181(7) . . .
206(8) . . .
206(8) . . .
226(8) . . .
188(7) . . .
199(7) . . .
200(8) . . .
219(8) . . .
218(8) . . .
222(8) . . .
214(8) . . .
180(7) . . .
203(8) . . .
198(7) . . .
199(7) . . .
196(7) . . .
225(8) . . .
234(9) . . .
213(8) . . .
227(8) . . .
205(8) . . .
194(7) . . .
211(8) . . .
193(7) . . .
220(8) . . .
218(8) . . .
208(8) . . .
207(8) . . .
227(8) . . .
221(8) . . .
186(7) . . .
206(8) . . .
209(8) . . .
185(7) . . .
214(8) . . .
201(7) . . .
182(7) . . .
203(8) . . .
187(7) . . .
238(8) . . .
209(8) . . .
212(8) . . .
193(7) . . .
195(7) . . .
208(7) . . .
194(7) . . .
198(8) . . .
201(8) . . .
206(8) . . .
207(7) . . .
206(8) . . .
190(7) . . .
209(8) . . .
207(8) . . .
226(8) . . .
202(8) . . .
175(7) . . .
192(8) . . .
203(8) . . .
189(7) . . .
208(8) . . .
192(8) . . .
208(8) . . .
204(7) . . .
208(8) . . .
206(8) . . .
201(8) . . .
203(8) . . .
186(7) . . .
221(8) . . .
196(8) . . .
187(8) . . .
216(8) . . .
190(7) . . .
180(7) . . .
205(8) . . .
210(8) . . .
222(8) . . .
201(7) . . .
210(8) . . .
191(7) . . .
200(8) . . .
200(8) . . .
178(7) . . .
218(8) . . .
210(8) . . .
211(8) . . .
196(8) . . .
196(7) . . .
204(8) . . .
196(7) . . .
211(8) . . .
198(7) . . .
208(7) . . .
200(8) . . .
188(7) . . .
186(7) . . .
197(7) . . .
210(8) . . .
198(8) . . .
184(7) . . .
223(8) . . .
198(7) . . .
211(8) . . .
200(8) . . .
201(8) . . .
205(8) . . .
218(8) . . .
195(7) . . .
203(8) . . .
204(8) . . .
165(7) . . .
192(7) . . .
180(7) . . .
191(8) . . .
234(9) . . .
215(8) . . .
211(8) . . .
195(7) . . .
193(7) . . .
196(8) . . .
192(7) . . .
204(7) . . .
205(8) . . .
214(8) . . .
235(9) . . .
211(8) . . .
203(7) . . .
214(8) . . .
212(8) . . .
226(8) . . .
215(8) . . .
208(7) . . .
206(8) . . .
196(7) . . .
209(8) . . .
198(7) . . .
200(7) . . .
197(7) . . .
218(8) . . .
199(8) . . .
181(7) . . .
189(7) . . .
197(8) . . .
182(7) . . .
193(8) . . .
200(8) . . .
192(7) . . .
195(7) . . .
205(8) . . .
209(8) . . .
217(8) . . .
201(7) . . .
201(8) . . .
195(8) . . .
210(8) . . .
217(8) . . .
194(7) . . .
194(7) . . .
192(8) . . .
205(8) . . .
183(7) . . .
176(7) . . .
172(7) . . .
193(8) . . .
202(8) . . .
194(7) . . .
181(7) . . .
201(8) . . .
199(8) . . .
207(8) . . .
214(8) . . .
197(7) . . .
175(7) . . .
204(8) . . .
199(8) . . .
190(7) . . .
206(8) . . .
176(7) . . .
190(7) . . .
192(7) . . .
176(7) . . .
179(7) . . .
187(8) . . .
182(7) . . .
178(7) . . .
216(8) . . .
193(7) . . .
175(7) . . .
183(7) . . .
197(7) . . .
177(7) . . .
179(7) . . .
182(7) . . .
199(8) . . .
197(8) . . .
178(7) . . .
187(7) . . .
208(8) . . .
183(7) . . .
175(7) . . .
173(7) . . .
194(8) . . .
181(7) . . .
187(7) . . .
190(7) . . .
171(7) . . .
198(8) . . .
178(7) . . .
179(7) . . .
185(7) . . .
177(7) . . .
180(7) . . .
196(8) . . .
194(7) . . .
190(7) . . .
217(8) . . .
198(8) . . .
179(7) . . .
195(7) . . .
181(7) . . .
183(7) . . .
192(7) . . .
188(7) . . .
198(8) . . .
183(7) . . .
196(7) . . .
185(7) . . .
200(8) . . .
185(7) . . .
185(7) . . .
188(7) . . .
191(7) . . .
184(7) . . .
209(8) . . .
191(7) . . .
200(7) . . .
191(7) . . .
190(8) . . .
206(8) . . .
172(7) . . .
180(7) . . .
191(7) . . .
170(7) . . .
182(7) . . .
196(7) . . .
189(7) . . .
190(7) . . .
181(7) . . .
171(7) . . .
181(7) . . .
179(7) . . .
197(8) . . .
194(7) . . .
211(8) . . .
184(7) . . .
178(7) . . .
197(8) . . .
198(8) . . .
187(7) . . .
187(7) . . .
194(7) . . .
199(8) . . .
192(8) . . .
180(7) . . .
178(7) . . .
166(7) . . .
187(8) . . .
187(7) . . .
200(7) . . .
190(7) . . .
175(7) . . .
198(8) . . .
208(8) . . .
197(7) . . .
213(8) . . .
192(7) . . .
197(8) . . .
190(8) . . .
193(7) . . .
174(7) . . .
203(8) . . .
190(8) . . .
183(7) . . .
194(7) . . .
184(7) . . .
204(8) . . .
185(7) . . .
179(7) . . .
196(7) . . .
193(7) . . .
185(7) . . .
203(8) . . .
187(7) . . .
198(7) . . .
195(7) . . .
182(7) . . .
184(7) . . .
175(7) . . .
191(7) . . .
191(8) . . .
184(7) . . .
180(7) . . .
164(7) . . .
202(7) . . .
187(7) . . .
211(8) . . .
198(7) . . .
194(7) . . .
185(7) . . .
199(8) . . .
190(8) . . .
189(7) . . .
203(8) . . .
186(7) . . .
179(7) . . .
194(8) . . .
187(7) . . .
175(7) . . .
177(7) . . .
184(7) . . .
187(8) . . .
178(7) . . .
187(7) . . .
191(7) . . .
192(7) . . .
210(8) . . .
199(8) . . .
188(7) . . .
189(7) . . .
197(7) . . .
202(8) . . .
207(8) . . .
186(7) . . .
168(7) . . .
195(7) . . .
206(8) . . .
183(7) . . .
183(7) . . .
212(8) . . .
205(8) . . .
188(7) . . .
196(7) . . .
186(7) . . .
195(7) . . .
206(8) . . .
182(7) . . .
176(7) . . .
186(7) . . .
192(7) . . .
198(8) . . .
179(7) . . .
205(7) . . .
180(7) . . .
181(7) . . .
184(7) . . .
200(8) . . .
192(7) . . .
194(7) . . .
208(8) . . .
210(8) . . .
185(7) . . .
191(7) . . .
212(8) . . .
184(7) . . .
185(8) . . .
193(7) . . .
195(7) . . .
192(7) . . .
197(8) . . .
193(8) . . .
195(7) . . .
199(7) . . .
189(7) . . .
202(8) . . .
201(8) . . .
183(7) . . .
201(7) . . .
200(7) . . .
195(8) . . .
191(8) . . .
194(7) . . .
184(7) . . .
176(7) . . .
195(8) . . .
211(8) . . .
204(8) . . .
189(7) . . .
191(7) . . .
185(7) . . .
176(7) . . .
204(8) . . .
196(7) . . .
181(7) . . .
167(7) . . .
171(7) . . .
197(7) . . .
186(7) . . .
170(7) . . .
191(7) . . .
184(7) . . .
203(7) . . .
202(7) . . .
196(8) . . .
184(7) . . .
178(7) . . .
179(7) . . .
182(7) . . .
178(7) . . .
162(7) . . .
170(7) . . .
178(7) . . .
184(7) . . .
189(7) . . .
201(8) . . .
198(7) . . .
172(7) . . .
167(7) . . .
187(7) . . .
187(8) . . .
199(8) . . .
201(7) . . .
198(7) . . .
198(7) . . .
190(8) . . .
188(7) . . .
165(7) . . .
178(7) . . .
183(7) . . .
191(8) . . .
195(7) . . .
176(7) . . .
159(7) . . .
179(7) . . .
179(7) . . .
180(7) . . .
191(7) . . .
170(7) . . .
167(7) . . .
178(7) . . .
192(7) . . .
188(7) . . .
171(7) . . .
176(7) . . .
179(7) . . .
174(7) . . .
192(7) . . .
188(7) . . .
206(8) . . .
183(7) . . .
190(7) . . .
174(7) . . .
198(8) . . .
188(7) . . .
187(7) . . .
201(7) . . .
190(7) . . .
184(7) . . .
191(8) . . .
199(8) . . .
187(7) . . .
183(7) . . .
176(7) . . .
192(8) . . .
190(7) . . .
186(7) . . .
194(7) . . .
185(7) . . .
184(7) . . .
175(7) . . .
186(7) . . .
187(7) . . .
191(7) . . .
185(7) . . .
192(7) . . .
200(7) . . .
175(7) . . .
179(7) . . .
191(8) . . .
187(7) . . .
177(7) . . .
189(7) . . .
197(8) . . .
193(8) . . .
184(7) . . .
173(7) . . .
189(7) . . .
190(7) . . .
192(8) . . .
162(7) . . .
185(7) . . .
181(7) . . .
187(7) . . .
184(7) . . .
183(7) . . .
200(7) . . .
201(8) . . .
199(8) . . .
194(7) . . .
180(7) . . .
191(7) . . .
169(7) . . .
177(7) . . .
193(7) . . .
181(7) . . .
165(7) . . .
189(7) . . .
205(8) . . .
176(7) . . .
174(7) . . .
176(7) . . .
199(8) . . .
190(8) . . .
185(7) . . .
189(7) . . .
191(7) . . .
166(7) . . .
175(7) . . .
199(8) . . .
180(7) . . .
163(7) . . .
190(7) . . .
175(7) . . .
200(8) . . .
194(7) . . .
179(7) . . .
187(7) . . .
190(8) . . .
185(7) . . .
179(7) . . .
174(7) . . .
185(7) . . .
189(8) . . .
191(8) . . .
182(7) . . .
187(7) . . .
189(8) . . .
185(8) . . .
168(7) . . .
175(7) . . .
178(7) . . .
161(7) . . .
182(7) . . .
187(7) . . .
165(7) . . .
180(7) . . .
182(7) . . .
185(7) . . .
194(7) . . .
186(7) . . .
159(7) . . .
190(7) . . .
182(7) . . .
188(7) . . .
186(7) . . .
194(8) . . .
199(8) . . .
186(7) . . .
183(7) . . .
161(7) . . .
163(7) . . .
183(8) . . .
194(8) . . .
174(7) . . .
183(7) . . .
174(7) . . .
185(8) . . .
174(7) . . .
183(7) . . .
192(7) . . .
179(7) . . .
169(7) . . .
188(7) . . .
173(7) . . .
173(7) . . .
182(7) . . .
191(8) . . .
187(7) . . .
174(7) . . .
178(7) . . .
181(7) . . .
163(7) . . .
173(7) . . .
184(7) . . .
157(7) . . .
164(7) . . .
179(7) . . .
171(7) . . .
172(7) . . .
199(7) . . .
186(7) . . .
185(7) . . .
157(7) . . .
157(7) . . .
203(8) . . .
174(7) . . .
177(7) . . .
163(7) . . .
175(7) . . .
174(7) . . .
172(7) . . .
173(7) . . .
176(7) . . .
191(7) . . .
184(7) . . .
174(7) . . .
177(7) . . .
176(7) . . .
172(7) . . .
181(7) . . .
199(8) . . .
179(7) . . .
204(8) . . .
199(7) . . .
185(7) . . .
177(7) . . .
179(7) . . .
181(7) . . .
176(7) . . .
198(8) . . .
168(7) . . .
182(7) . . .
174(7) . . .
189(7) . . .
172(7) . . .
168(7) . . .
170(7) . . .
191(7) . . .
217(8) . . .
201(8) . . .
201(8) . . .
191(7) . . .
167(7) . . .
171(7) . . .
187(7) . . .
192(8) . . .
168(7) . . .
176(7) . . .
183(7) . . .
182(7) . . .
179(7) . . .
199(8) . . .
185(7) . . .
196(7) . . .
179(7) . . .
187(7) . . .
173(7) . . .
189(7) . . .
200(8) . . .
200(8) . . .
179(7) . . .
184(7) . . .
199(7) . . .
169(7) . . .
169(7) . . .
182(7) . . .
166(7) . . .
176(7) . . .
183(7) . . .
165(7) . . .
177(7) . . .
181(7) . . .
188(7) . . .
155(7) . . .
177(8) . . .
178(7) . . .
179(7) . . .
194(7) . . .
178(7) . . .
170(7) . . .
171(7) . . .
178(7) . . .
158(7) . . .
179(7) . . .
179(7) . . .
191(7) . . .
185(7) . . .
181(7) . . .
200(8) . . .
200(8) . . .
163(7) . . .
166(7) . . .
182(7) . . .
176(7) . . .
179(7) . . .
173(7) . . .
191(7) . . .
179(7) . . .
161(7) . . .
177(7) . . .
159(7) . . .
161(7) . . .
196(8) . . .
172(7) . . .
169(7) . . .
183(7) . . .
187(7) . . .
173(7) . . .
161(7) . . .
173(7) . . .
183(7) . . .
197(7) . . .
169(7) . . .
179(7) . . .
183(7) . . .
181(7) . . .
165(7) . . .
168(7) . . .
172(7) . . .
192(7) . . .
182(7) . . .
172(7) . . .
175(7) . . .
174(7) . . .
172(7) . . .
167(7) . . .
182(7) . . .
179(7) . . .
164(7) . . .
158(7) . . .
163(7) . . .
176(7) . . .
182(7) . . .
157(7) . . .
178(7) . . .
176(7) . . .
167(7) . . .
170(7) . . .
183(8) . . .
171(7) . . .
195(7) . . .
184(7) . . .
177(7) . . .
175(7) . . .
183(7) . . .
180(7) . . .
185(7) . . .
174(7) . . .
174(7) . . .
197(8) . . .
177(7) . . .
188(7) . . .
187(8) . . .
191(8) . . .
179(7) . . .
168(7) . . .
179(7) . . .
173(7) . . .
176(7) . . .
154(7) . . .
167(7) . . .
171(7) . . .
169(7) . . .
171(7) . . .
192(7) . . .
185(7) . . .
179(7) . . .
173(7) . . .
183(7) . . .
186(7) . . .
169(7) . . .
186(8) . . .
183(8) . . .
182(7) . . .
181(7) . . .
172(7) . . .
167(7) . . .
166(7) . . .
164(7) . . .
166(7) . . .
155(6) . . .
182(7) . . .
170(7) . . .
170(7) . . .
175(7) . . .
160(7) . . .
156(7) . . .
170(7) . . .
185(7) . . .
191(7) . . .
145(6) . . .
186(7) . . .
184(7) . . .
172(7) . . .
191(7) . . .
182(7) . . .
188(7) . . .
179(7) . . .
149(6) . . .
185(7) . . .
178(7) . . .
189(8) . . .
191(8) . . .
184(7) . . .
178(7) . . .
170(7) . . .
179(7) . . .
155(7) . . .
182(7) . . .
171(7) . . .
173(7) . . .
166(7) . . .
161(7) . . .
171(7) . . .
186(7) . . .
161(7) . . .
173(7) . . .
178(7) . . .
167(7) . . .
186(7) . . .
163(7) . . .
171(7) . . .
173(7) . . .
177(7) . . .
167(7) . . .
166(7) . . .
174(7) . . .
181(7) . . .
179(7) . . .
185(7) . . .
182(7) . . .
196(8) . . .
166(7) . . .
167(7) . . .
195(7) . . .
186(7) . . .
179(7) . . .
162(7) . . .
186(7) . . .
188(7) . . .
167(7) . . .
171(7) . . .
178(7) . . .
188(7) . . .
175(7) . . .
166(7) . . .
162(7) . . .
197(8) . . .
195(7) . . .
178(7) . . .
164(7) . . .
169(7) . . .
194(7) . . .
177(7) . . .
183(7) . . .
180(8) . . .
179(7) . . .
175(7) . . .
176(7) . . .
194(7) . . .
198(8) . . .
186(7) . . .
191(7) . . .
186(7) . . .
183(7) . . .
171(7) . . .
179(7) . . .
162(7) . . .
173(7) . . .
182(7) . . .
196(8) . . .
181(7) . . .
180(7) . . .
156(6) . . .
177(7) . . .
177(7) . . .
152(7) . . .
158(6) . . .
177(7) . . .
172(7) . . .
176(7) . . .
170(7) . . .
185(7) . . .
175(7) . . .
171(7) . . .
182(7) . . .
196(8) . . .
167(7) . . .
200(7) . . .
158(7) . . .
175(7) . . .
178(7) . . .
188(7) . . .
173(7) . . .
184(7) . . .
184(7) . . .
193(8) . . .
175(7) . . .
168(7) . . .
177(7) . . .
182(7) . . .
172(7) . . .
169(7) . . .
163(7) . . .
181(7) . . .
170(7) . . .
193(7) . . .
189(7) . . .
190(7) . . .
186(7) . . .
187(8) . . .
172(7) . . .
194(7) . . .
175(7) . . .
199(8) . . .
169(7) . . .
187(7) . . .
182(7) . . .
191(8) . . .
196(8) . . .
178(7) . . .
175(7) . . .
173(7) . . .
149(6) . . .
185(8) . . .
167(7) . . .
165(7) . . .
164(7) . . .
166(7) . . .
161(7) . . .
174(7) . . .
185(7) . . .
169(7) . . .
173(7) . . .
169(7) . . .
183(7) . . .
189(7) . . .
186(7) . . .
155(7) . . .
192(8) . . .
169(7) . . .
182(7) . . .
193(7) . . .
179(7) . . .
165(7) . . .
189(7) . . .
186(7) . . .
184(7) . . .
164(7) . . .
163(7) . . .
171(7) . . .
172(7) . . .
170(7) . . .
172(7) . . .
167(7) . . .
198(8) . . .
182(7) . . .
171(7) . . .
185(8) . . .
181(7) . . .
151(7) . . .
158(6) . . .
189(7) . . .
169(7) . . .
171(7) . . .
204(8) . . .
172(7) . . .
173(7) . . .
173(7) . . .
174(7) . . .
172(7) . . .
175(7) . . .
202(8) . . .
175(7) . . .
192(7) . . .
188(7) . . .
186(7) . . .
174(7) . . .
193(8) . . .
183(7) . . .
180(7) . . .
169(7) . . .
174(7) . . .
178(7) . . .
194(7) . . .
194(7) . . .
189(7) . . .
199(8) . . .
194(8) . . .
194(8) . . .
183(7) . . .
197(7) . . .
189(8) . . .
173(7) . . .
195(8) . . .
176(7) . . .
179(7) . . .
180(7) . . .
190(8) . . .
189(7) . . .
196(7) . . .
177(7) . . .
208(8) . . .
179(7) . . .
175(7) . . .
175(7) . . .
189(7) . . .
179(7) . . .
166(7) . . .
178(7) . . .
182(7) . . .
167(7) . . .
168(7) . . .
180(7) . . .
172(7) . . .
191(7) . . .
176(7) . . .
179(7) . . .
182(7) . . .
180(7) . . .
195(7) . . .
187(7) . . .
186(8) . . .
170(7) . . .
184(7) . . .
192(7) . . .
187(7) . . .
169(7) . . .
196(8) . . .
191(7) . . .
186(7) . . .
191(7) . . .
174(7) . . .
166(7) . . .
150(6) . . .
164(7) . . .
162(7) . . .
168(7) . . .
171(7) . . .
182(7) . . .
165(7) . . .
178(7) . . .
183(7) . . .
192(7) . . .
194(7) . . .
170(7) . . .
171(7) . . .
165(7) . . .
171(7) . . .
181(7) . . .
184(7) . . .
183(7) . . .
191(8) . . .
194(7) . . .
183(7) . . .
179(7) . . .
185(7) . . .
182(7) . . .
176(7) . . .
184(7) . . .
194(7) . . .
166(7) . . .
178(7) . . .
182(7) . . .
166(7) . . .
192(8) . . .
176(7) . . .
182(7) . . .
189(7) . . .
192(7) . . .
174(7) . . .
176(7) . . .
167(7) . . .
164(7) . . .
176(7) . . .
178(7) . . .
174(7) . . .
165(7) . . .
186(7) . . .
193(7) . . .
174(7) . . .
186(8) . . .
184(7) . . .
190(7) . . .
198(7) . . .
184(7) . . .
182(7) . . .
200(8) . . .
192(7) . . .
179(7) . . .
202(8) . . .
191(8) . . .
198(8) . . .
204(7) . . .
198(7) . . .
191(7) . . .
182(7) . . .
185(7) . . .
191(7) . . .
170(7) . . .
183(7) . . .
196(8) . . .
176(7) . . .
195(7) . . .
167(7) . . .
177(7) . . .
186(7) . . .
184(7) . . .
187(7) . . .
194(7) . . .
152(6) . . .
184(7) . . .
186(7) . . .
179(7) . . .
199(8) . . .
170(7) . . .
175(7) . . .
193(7) . . .
182(7) . . .
185(8) . . .
178(7) . . .
192(8) . . .
177(7) . . .
175(7) . . .
171(7) . . .
166(7) . . .
180(7) . . .
182(7) . . .
173(7) . . .
184(7) . . .
193(8) . . .
160(7) . . .
175(7) . . .
186(7) . . .
180(7) . . .
178(7) . . .
170(7) . . .
183(7) . . .
175(7) . . .
173(7) . . .
177(7) . . .
173(7) . . .
171(7) . . .
182(7) . . .
167(7) . . .
172(7) . . .
178(7) . . .
194(7) . . .
162(7) . . .
164(7) . . .
166(7) . . .
195(8) . . .
163(7) . . .
167(7) . . .
184(7) . . .
198(8) . . .
173(7) . . .
179(7) . . .
166(7) . . .
178(7) . . .
175(7) . . .
177(7) . . .
163(7) . . .
195(8) . . .
187(7) . . .
177(7) . . .
175(7) . . .
169(7) . . .
150(7) . . .
170(7) . . .
180(7) . . .
182(7) . . .
166(7) . . .
168(7) . . .
174(7) . . .
163(7) . . .
166(7) . . .
184(7) . . .
177(7) . . .
172(7) . . .
180(7) . . .
165(7) . . .
171(7) . . .
163(7) . . .
175(8) . . .
178(7) . . .
182(7) . . .
187(7) . . .
189(7) . . .
182(8) . . .
185(7) . . .
154(6) . . .
187(7) . . .
182(7) . . .
177(7) . . .
170(7) . . .
157(7) . . .
184(7) . . .
182(7) . . .
191(8) . . .
192(7) . . .
171(7) . . .
151(6) . . .
172(7) . . .
170(7) . . .
160(7) . . .
172(7) . . .
157(7) . . .
187(7) . . .
192(7) . . .
176(7) . . .
179(7) . . .
162(7) . . .
173(7) . . .
161(7) . . .
159(7) . . .
180(7) . . .
184(7) . . .
181(7) . . .
176(7) . . .
166(7) . . .
167(7) . . .
169(7) . . .
177(7) . . .
193(7) . . .
165(7) . . .
177(7) . . .
175(7) . . .
180(7) . . .
174(7) . . .
188(7) . . .
173(7) . . .
187(7) . . .
164(7) . . .
168(7) . . .
179(7) . . .
186(7) . . .
161(7) . . .
166(7) . . .
171(7) . . .
172(7) . . .
192(7) . . .
188(8) . . .
190(8) . . .
199(8) . . .
176(7) . . .
187(7) . . .
171(7) . . .
185(8) . . .
176(7) . . .
187(7) . . .
170(7) . . .
152(6) . . .
168(7) . . .
165(7) . . .
173(7) . . .
168(7) . . .
152(7) . . .
171(7) . . .
177(7) . . .
184(7) . . .
168(7) . . .
173(7) . . .
172(7) . . .
178(7) . . .
172(7) . . .
196(8) . . .
168(7) . . .
176(7) . . .
185(7) . . .
177(7) . . .
194(8) . . .
169(7) . . .
174(7) . . .
182(7) . . .
154(6) . . .
200(8) . . .
174(7) . . .
167(7) . . .
158(6) . . .
169(7) . . .
177(7) . . .
179(7) . . .
192(7) . . .
197(7) . . .
182(7) . . .
169(7) . . .
189(8) . . .
203(8) . . .
170(7) . . .
174(7) . . .
198(8) . . .
170(7) . . .
180(7) . . .
173(7) . . .
177(7) . . .
170(7) . . .
155(7) . . .
176(7) . . .
174(7) . . .
182(7) . . .
189(7) . . .
160(7) . . .
168(7) . . .
172(7) . . .
184(7) . . .
174(7) . . .
180(7) . . .
166(7) . . .
167(7) . . .
162(7) . . .
159(7) . . .
170(7) . . .
179(7) . . .
157(6) . . .
180(7) . . .
192(8) . . .
173(7) . . .
150(6) . . .
172(7) . . .
162(7) . . .
166(7) . . .
170(7) . . .
157(6) . . .
168(7) . . .
167(7) . . .
180(7) . . .
173(7) . . .
164(7) . . .
184(7) . . .
162(7) . . .
177(7) . . .
193(7) . . .
179(7) . . .
169(7) . . .
165(7) . . .
159(7) . . .
177(7) . . .
178(7) . . .
174(7) . . .
180(7) . . .
176(7) . . .
178(7) . . .
169(7) . . .
188(7) . . .
171(7) . . .
156(7) . . .
172(7) . . .
176(7) . . .
177(7) . . .
186(7) . . .
173(7) . . .
184(7) . . .
171(7) . . .
170(7) . . .
180(7) . . .
168(7) . . .
183(7) . . .
187(7) . . .
178(7) . . .
166(7) . . .
180(7) . . .
153(7) . . .
157(7) . . .
155(7) . . .
173(7) . . .
179(7) . . .
180(7) . . .
180(7) . . .
149(6) . . .
168(7) . . .
176(7) . . .
182(7) . . .
172(7) . . .
174(7) . . .
177(7) . . .
169(7) . . .
186(7) . . .
184(7) . . .
180(7) . . .
169(7) . . .
158(7) . . .
177(7) . . .
158(6) . . .
164(7) . . .
179(7) . . .
160(7) . . .
155(6) . . .
179(7) . . .
158(7) . . .
161(7) . . .
177(7) . . .
162(7) . . .
175(7) . . .
186(7) . . .
169(7) . . .
206(8) . . .
193(7) . . .
164(7) . . .
182(7) . . .
170(7) . . .
188(8) . . .
178(7) . . .
181(7) . . .
165(7) . . .
190(7) . . .
186(7) . . .
181(7) . . .
183(7) . . .
188(7) . . .
186(7) . . .
174(7) . . .
174(7) . . .
176(7) . . .
197(8) . . .
171(7) . . .
190(7) . . .
161(7) . . .
167(7) . . .
183(8) . . .
159(7) . . .
189(7) . . .
187(7) . . .
192(8) . . .
163(7) . . .
155(7) . . .
146(6) . . .
172(7) . . .
178(7) . . .
173(8) . . .
173(7) . . .
179(7) . . .
205(7) . . .
189(7) . . .
185(7) . . .
180(7) . . .
184(7) . . .
173(7) . . .
166(7) . . .
197(8) . . .
194(7) . . .
200(7) . . .
172(7) . . .
178(7) . . .
183(7) . . .
180(7) . . .
187(7) . . .
172(7) . . .
198(8) . . .
166(7) . . .
166(7) . . .
177(7) . . .
178(7) . . .
188(7) . . .
183(7) . . .
208(8) . . .
172(7) . . .
174(7) . . .
162(7) . . .
180(7) . . .
169(7) . . .
177(7) . . .
181(7) . . .
193(8) . . .
191(8) . . .
179(7) . . .
178(7) . . .
186(7) . . .
185(7) . . .
214(8) . . .
185(7) . . .
191(7) . . .
190(7) . . .
194(8) . . .
187(7) . . .
197(7) . . .
190(7) . . .
196(7) . . .
188(8) . . .
187(7) . . .
183(7) . . .
176(7) . . .
196(7) . . .
193(8) . . .
189(7) . . .
173(7) . . .
188(7) . . .
177(7) . . .
177(7) . . .
178(7) . . .
182(7) . . .
185(7) . . .
171(7) . . .
158(7) . . .
181(7) . . .
185(7) . . .
185(7) . . .
176(7) . . .
164(7) . . .
173(7) . . .
165(7) . . .
179(7) . . .
180(7) . . .
181(7) . . .
190(7) . . .
191(7) . . .
185(7) . . .
167(7) . . .
173(7) . . .
172(7) . . .
175(7) . . .
176(7) . . .
186(7) . . .
167(7) . . .
167(7) . . .
178(7) . . .
159(7) . . .
179(7) . . .
181(7) . . .
180(7) . . .
178(7) . . .
193(7) . . .
178(7) . . .
170(7) . . .
165(7) . . .
180(7) . . .
175(7) . . .
186(8) . . .
172(7) . . .
165(7) . . .
182(7) . . .
172(7) . . .
166(7) . . .
189(7) . . .
178(7) . . .
162(7) . . .
170(7) . . .
190(8) . . .
167(7) . . .
176(7) . . .
183(7) . . .
172(7) . . .
172(7) . . .
195(8) . . .
196(7) . . .
168(7) . . .
170(7) . . .
165(7) . . .
182(7) . . .
176(7) . . .
180(7) . . .
170(7) . . .
175(7) . . .
176(7) . . .
200(7) . . .
190(7) . . .
193(8) . . .
167(7) . . .
168(7) . . .
151(6) . . .
172(7) . . .
172(7) . . .
168(7) . . .
167(7) . . .
176(7) . . .
190(7) . . .
187(8) . . .
184(7) . . .
165(7) . . .
151(6) . . .
160(7) . . .
174(7) . . .
179(7) . . .
180(7) . . .
168(7) . . .
171(7) . . .
177(7) . . .
184(7) . . .
173(7) . . .
193(7) . . .
167(7) . . .
177(7) . . .
163(7) . . .
175(7) . . .
182(7) . . .
180(7) . . .
180(7) . . .
169(7) . . .
189(7) . . .
170(7) . . .
146(6) . . .
164(7) . . .
174(7) . . .
163(7) . . .
164(7) . . .
172(7) . . .
155(7) . . .
165(7) . . .
178(7) . . .
167(7) . . .
163(7) . . .
189(7) . . .
168(7) . . .
164(7) . . .
188(7) . . .
178(7) . . .
207(8) . . .
175(7) . . .
183(7) . . .
183(7) . . .
177(7) . . .
186(7) . . .
180(7) . . .
175(7) . . .
177(7) . . .
193(8) . . .
195(8) . . .
174(7) . . .
176(7) . . .
192(7) . . .
177(7) . . .
173(7) . . .
173(7) . . .
173(7) . . .
166(7) . . .
174(7) . . .
173(7) . . .
184(7) . . .
172(7) . . .
174(7) . . .
154(7) . . .
179(7) . . .
143(6) . . .
180(7) . . .
181(7) . . .
156(7) . . .
157(7) . . .
171(7) . . .
176(7) . . .
181(7) . . .
143(6) . . .
164(7) . . .
180(7) . . .
191(7) . . .
156(7) . . .
167(7) . . .
157(7) . . .
181(7) . . .
183(7) . . .
160(7) . . .
179(7) . . .
180(7) . . .
179(7) . . .
184(7) . . .
186(7) . . .
169(7) . . .
178(7) . . .
152(6) . . .
182(7) . . .
169(7) . . .
169(7) . . .
156(6) . . .
168(7) . . .
155(7) . . .
169(7) . . .
176(7) . . .
183(7) . . .
176(7) . . .
160(7) . . .
167(7) . . .
168(7) . . .
177(7) . . .
183(7) . . .
167(7) . . .
165(7) . . .
168(7) . . .
193(7) . . .
181(7) . . .
182(7) . . .
177(8) . . .
168(7) . . .
181(7) . . .
175(7) . . .
173(7) . . .
180(7) . . .
165(7) . . .
158(6) . . .
186(7) . . .
182(7) . . .
163(7) . . .
182(7) . . .
167(7) . . .
159(7) . . .
162(7) . . .
204(8) . . .
162(7) . . .
187(7) . . .
160(7) . . .
189(8) . . .
185(7) . . .
171(7) . . .
159(7) . . .
174(7) . . .
165(7) . . .
194(8) . . .
191(7) . . .
172(7) . . .
172(7) . . .
178(7) . . .
175(7) . . .
189(7) . . .
189(7) . . .
180(7) . . .
160(7) . . .
167(7) . . .
174(7) . . .
172(7) . . .
192(7) . . .
191(8) . . .
183(7) . . .
181(7) . . .
164(7) . . .
186(7) . . .
153(7) . . .
176(7) . . .
194(7) . . .
173(7) . . .
170(7) . . .
162(7) . . .
185(7) . . .
158(7) . . .
158(7) . . .
168(7) . . .
167(7) . . .
159(7) . . .
174(7) . . .
167(7) . . .
190(7) . . .
193(8) . . .
184(7) . . .
175(7) . . .
163(7) . . .
157(7) . . .
163(7) . . .
161(7) . . .
180(7) . . .
166(7) . . .
168(7) . . .
158(7) . . .
167(7) . . .
169(7) . . .
183(7) . . .
187(7) . . .
198(8) . . .
190(7) . . .
176(7) . . .
181(7) . . .
171(7) . . .
192(8) . . .
176(7) . . .
184(7) . . .
182(7) . . .
183(7) . . .
188(8) . . .
170(7) . . .
180(7) . . .
177(7) . . .
180(7) . . .
174(7) . . .
179(7) . . .
158(7) . . .
175(7) . . .
190(7) . . .
181(7) . . .
158(7) . . .
195(7) . . .
178(7) . . .
167(7) . . .
153(7) . . .
170(7) . . .
188(7) . . .
180(7) . . .
179(7) . . .
174(7) . . .
165(7) . . .
176(7) . . .
176(7) . . .
170(7) . . .
162(7) . . .
167(7) . . .
174(7) . . .
167(7) . . .
160(7) . . .
175(7) . . .
194(7) . . .
176(7) . . .
167(7) . . .
165(7) . . .
162(7) . . .
167(7) . . .
173(7) . . .
176(7) . . .
180(7) . . .
180(7) . . .
164(7) . . .
174(7) . . .
175(7) . . .
159(7) . . .
170(7) . . .
181(7) . . .
180(7) . . .
151(7) . . .
160(7) . . .
173(7) . . .
170(7) . . .
164(7) . . .
151(7) . . .
169(7) . . .
185(7) . . .
174(7) . . .
168(7) . . .
153(7) . . .
181(7) . . .
163(7) . . .
161(7) . . .
160(7) . . .
175(7) . . .
162(7) . . .
166(7) . . .
164(7) . . .
168(7) . . .
213(8) . . .
167(7) . . .
162(7) . . .
158(6) . . .
166(7) . . .
192(8) . . .
180(7) . . .
164(7) . . .
177(7) . . .
167(7) . . .
163(7) . . .
179(7) . . .
175(7) . . .
164(7) . . .
182(7) . . .
168(7) . . .
165(7) . . .
172(7) . . .
192(7) . . .
167(7) . . .
164(7) . . .
178(7) . . .
176(7) . . .
166(7) . . .
147(6) . . .
169(7) . . .
177(7) . . .
175(7) . . .
168(7) . . .
163(7) . . .
170(7) . . .
162(7) . . .
164(7) . . .
168(7) . . .
161(7) . . .
157(7) . . .
170(7) . . .
171(7) . . .
169(7) . . .
151(7) . . .
166(7) . . .
179(7) . . .
166(7) . . .
165(7) . . .
174(7) . . .
159(7) . . .
169(7) . . .
168(7) . . .
169(7) . . .
188(8) . . .
148(6) . . .
172(7) . . .
161(7) . . .
176(7) . . .
170(7) . . .
170(7) . . .
165(7) . . .
176(7) . . .
158(7) . . .
173(7) . . .
163(7) . . .
168(7) . . .
159(7) . . .
163(7) . . .
160(7) . . .
168(7) . . .
147(6) . . .
166(7) . . .
180(7) . . .
163(7) . . .
174(7) . . .
163(7) . . .
156(7) . . .
171(7) . . .
153(7) . . .
157(7) . . .
151(6) . . .
166(7) . . .
175(7) . . .
188(8) . . .
178(7) . . .
176(7) . . .
154(6) . . .
159(7) . . .
168(7) . . .
151(7) . . .
162(7) . . .
159(7) . . .
163(7) . . .
156(7) . . .
161(7) . . .
149(6) . . .
174(7) . . .
166(7) . . .
165(7) . . .
161(7) . . .
164(7) . . .
160(7) . . .
164(7) . . .
165(7) . . .
171(7) . . .
172(7) . . .
175(7) . . .
160(7) . . .
156(7) . . .
177(7) . . .
165(7) . . .
170(7) . . .
160(7) . . .
158(7) . . .
158(7) . . .
163(7) . . .
167(7) . . .
167(7) . . .
188(7) . . .
173(7) . . .
155(6) . . .
178(7) . . .
185(8) . . .
171(7) . . .
166(7) . . .
178(7) . . .
166(7) . . .
166(7) . . .
145(6) . . .
153(6) . . .
172(7) . . .
181(7) . . .
165(7) . . .
190(7) . . .
184(7) . . .
168(7) . . .
179(7) . . .
163(7) . . .
156(7) . . .
159(7) . . .
173(7) . . .
190(8) . . .
176(7) . . .
165(7) . . .
176(7) . . .
178(7) . . .
168(7) . . .
176(7) . . .
174(7) . . .
173(7) . . .
175(7) . . .
158(7) . . .
173(7) . . .
170(7) . . .
204(7) . . .
196(7) . . .
158(7) . . .
190(7) . . .
176(7) . . .
180(7) . . .
182(7) . . .
175(7) . . .
165(7) . . .
184(7) . . .
184(7) . . .
171(7) . . .
197(8) . . .
186(7) . . .
175(7) . . .
156(7) . . .
178(7) . . .
165(7) . . .
168(7) . . .
186(7) . . .
186(7) . . .
176(7) . . .
170(7) . . .
173(7) . . .
170(7) . . .
170(7) . . .
170(7) . . .
162(7) . . .
168(7) . . .
211(8) . . .
172(7) . . .
172(7) . . .
174(7) . . .
169(7) . . .
163(7) . . .
177(7) . . .
176(7) . . .
176(7) . . .
159(6) . . .
175(7) . . .
155(7) . . .
182(7) . . .
176(7) . . .
175(7) . . .
199(7) . . .
159(7) . . .
162(7) . . .
163(7) . . .
181(7) . . .
175(7) . . .
171(7) . . .
170(7) . . .
159(7) . . .
184(7) . . .
167(7) . . .
160(7) . . .
182(8) . . .
170(7) . . .
171(7) . . .
172(7) . . .
167(7) . . .
175(8) . . .
175(7) . . .
173(7) . . .
169(7) . . .
160(7) . . .
170(7) . . .
174(7) . . .
158(7) . . .
158(7) . . .
166(7) . . .
166(7) . . .
172(7) . . .
164(7) . . .
174(7) . . .
185(7) . . .
156(7) . . .
169(7) . . .
169(7) . . .
171(7) . . .
168(7) . . .
175(7) . . .
172(7) . . .
167(7) . . .
171(7) . . .
169(7) . . .
155(7) . . .
157(7) . . .
168(7) . . .
171(7) . . .
161(7) . . .
155(7) . . .
179(7) . . .
185(7) . . .
176(7) . . .
166(7) . . .
179(7) . . .
189(7) . . .
176(7) . . .
158(7) . . .
155(7) . . .
172(7) . . .
164(7) . . .
171(7) . . .
181(7) . . .
165(7) . . .
180(7) . . .
181(7) . . .
195(7) . . .
172(7) . . .
185(8) . . .
152(7) . . .
167(7) . . .
184(7) . . .
160(7) . . .
169(7) . . .
173(7) . . .
152(6) . . .
163(7) . . .
190(8) . . .
162(7) . . .
174(7) . . .
168(7) . . .
153(6) . . .
167(7) . . .
162(7) . . .
175(7) . . .
168(7) . . .
169(7) . . .
171(7) . . .
188(7) . . .
171(7) . . .
174(7) . . .
166(7) . . .
174(7) . . .
151(7) . . .
156(7) . . .
167(7) . . .
167(7) . . .
185(7) . . .
185(7) . . .
189(7) . . .
166(7) . . .
168(7) . . .
166(7) . . .
143(6) . . .
153(7) . . .
155(6) . . .
201(8) . . .
192(8) . . .
170(7) . . .
184(7) . . .
172(7) . . .
166(7) . . .
166(7) . . .
181(7) . . .
167(7) . . .
174(7) . . .
177(7) . . .
159(7) . . .
173(7) . . .
168(7) . . .
185(7) . . .
174(7) . . .
168(7) . . .
158(7) . . .
175(7) . . .
164(7) . . .
168(7) . . .
161(7) . . .
162(7) . . .
161(7) . . .
163(7) . . .
157(7) . . .
158(7) . . .
168(7) . . .
171(7) . . .
167(7) . . .
187(7) . . .
164(7) . . .
171(7) . . .
150(6) . . .
149(6) . . .
152(7) . . .
162(7) . . .
162(7) . . .
176(7) . . .
161(7) . . .
161(7) . . .
154(7) . . .
161(7) . . .
177(7) . . .
174(7) . . .
162(7) . . .
178(7) . . .
170(7) . . .
144(6) . . .
168(7) . . .
173(7) . . .
178(7) . . .
156(6) . . .
174(7) . . .
161(7) . . .
179(7) . . .
177(7) . . .
162(7) . . .
172(7) . . .
167(7) . . .
164(7) . . .
153(7) . . .
138(6) . . .
164(7) . . .
162(7) . . .
147(7) . . .
164(7) . . .
161(7) . . .
195(7) . . .
163(7) . . .
163(7) . . .
169(7) . . .
161(7) . . .
183(7) . . .
169(7) . . .
165(7) . . .
158(7) . . .
176(7) . . .
175(7) . . .
178(7) . . .
176(7) . . .
167(7) . . .
166(7) . . .
179(7) . . .
167(7) . . .
183(7) . . .
165(7) . . .
166(7) . . .
156(7) . . .
154(7) . . .
165(7) . . .
156(7) . . .
174(7) . . .
170(7) . . .
156(7) . . .
159(7) . . .
163(7) . . .
158(7) . . .
157(7) . . .
165(7) . . .
157(7) . . .
172(7) . . .
159(7) . . .
176(7) . . .
148(7) . . .
163(7) . . .
168(7) . . .
152(6) . . .
162(7) . . .
159(7) . . .
154(7) . . .
156(7) . . .
165(7) . . .
160(7) . . .
166(7) . . .
165(7) . . .
167(7) . . .
156(6) . . .
162(7) . . .
157(7) . . .
164(7) . . .
179(7) . . .
170(7) . . .
176(7) . . .
162(7) . . .
158(7) . . .
170(7) . . .
155(7) . . .
152(7) . . .
163(7) . . .
168(7) . . .
171(7) . . .
154(7) . . .
164(7) . . .
156(7) . . .
163(7) . . .
158(6) . . .
157(7) . . .
167(7) . . .
161(7) . . .
175(7) . . .
175(7) . . .
171(7) . . .
140(6) . . .
170(7) . . .
150(7) . . .
167(7) . . .
157(7) . . .
174(7) . . .
162(7) . . .
176(7) . . .
156(6) . . .
154(7) . . .
177(7) . . .
154(7) . . .
162(7) . . .
157(7) . . .
157(7) . . .
170(7) . . .
181(7) . . .
170(7) . . .
143(6) . . .
175(7) . . .
156(7) . . .
158(7) . . .
155(6) . . .
154(6) . . .
162(7) . . .
170(7) . . .
159(7) . . .
146(6) . . .
164(7) . . .
162(7) . . .
151(7) . . .
150(7) . . .
147(6) . . .
157(7) . . .
151(6) . . .
161(7) . . .
171(7) . . .
166(7) . . .
169(7) . . .
153(7) . . .
160(7) . . .
182(7) . . .
152(6) . . .
165(7) . . .
150(7) . . .
147(7) . . .
164(7) . . .
157(6) . . .
166(7) . . .
152(7) . . .
166(7) . . .
163(7) . . .
152(6) . . .
156(7) . . .
162(7) . . .
169(7) . . .
182(7) . . .
166(7) . . .
152(7) . . .
151(7) . . .
162(7) . . .
162(7) . . .
159(7) . . .
161(7) . . .
175(7) . . .
173(7) . . .
155(6) . . .
151(6) . . .
167(7) . . .
167(7) . . .
154(7) . . .
160(7) . . .
152(6) . . .
180(7) . . .
182(8) . . .
162(7) . . .
183(7) . . .
169(7) . . .
165(7) . . .
152(7) . . .
157(7) . . .
159(7) . . .
148(6) . . .
165(7) . . .
158(7) . . .
177(7) . . .
164(7) . . .
163(7) . . .
177(7) . . .
161(7) . . .
166(7) . . .
152(6) . . .
153(7) . . .
130(6) . . .
171(7) . . .
151(6) . . .
167(7) . . .
162(7) . . .
159(7) . . .
147(7) . . .
172(7) . . .
173(7) . . .
169(7) . . .
162(7) . . .
166(7) . . .
160(7) . . .
184(7) . . .
175(7) . . .
170(7) . . .
169(7) . . .
165(7) . . .
157(7) . . .
173(7) . . .
189(8) . . .
168(7) . . .
186(7) . . .
168(7) . . .
168(7) . . .
169(7) . . .
158(7) . . .
177(7) . . .
166(7) . . .
163(7) . . .
161(7) . . .
173(7) . . .
156(6) . . .
151(6) . . .
170(7) . . .
162(7) . . .
173(7) . . .
188(7) . . .
169(7) . . .
175(7) . . .
146(7) . . .
154(7) . . .
151(6) . . .
160(7) . . .
163(7) . . .
157(7) . . .
159(7) . . .
181(7) . . .
167(7) . . .
149(7) . . .
170(7) . . .
185(7) . . .
166(7) . . .
165(7) . . .
170(7) . . .
164(7) . . .
159(7) . . .
168(7) . . .
161(7) . . .
179(7) . . .
173(7) . . .
166(7) . . .
171(7) . . .
163(7) . . .
166(7) . . .
157(7) . . .
180(7) . . .
164(7) . . .
170(7) . . .
149(7) . . .
164(7) . . .
160(7) . . .
161(7) . . .
173(7) . . .
154(7) . . .
144(6) . . .
158(7) . . .
174(7) . . .
164(7) . . .
160(7) . . .
154(7) . . .
148(6) . . .
176(7) . . .
158(7) . . .
151(7) . . .
163(7) . . .
158(7) . . .
172(7) . . .
160(7) . . .
155(7) . . .
155(7) . . .
180(7) . . .
164(7) . . .
160(7) . . .
155(7) . . .
146(6) . . .
162(7) . . .
154(7) . . .
158(7) . . .
175(7) . . .
152(7) . . .
130(6) . . .
137(6) . . .
136(6) . . .
148(7) . . .
135(6) . . .
170(7) . . .
169(7) . . .
163(7) . . .
163(7) . . .
141(6) . . .
159(7) . . .
160(7) . . .
171(7) . . .
153(7) . . .
152(6) . . .
159(7) . . .
148(6) . . .
172(7) . . .
181(7) . . .
159(7) . . .
157(7) . . .
153(7) . . .
144(7) . . .
142(6) . . .
174(7) . . .
150(6) . . .
170(7) . . .
172(8) . . .
166(7) . . .
162(7) . . .
155(6) . . .
157(7) . . .
163(7) . . .
147(6) . . .
165(7) . . .
152(6) . . .
163(7) . . .
165(7) . . .
166(7) . . .
167(7) . . .
168(7) . . .
160(7) . . .
149(7) . . .
167(7) . . .
172(7) . . .
160(7) . . .
155(7) . . .
130(6) . . .
162(7) . . .
161(7) . . .
170(7) . . .
170(7) . . .
167(7) . . .
158(7) . . .
161(7) . . .
159(7) . . .
161(7) . . .
179(7) . . .
167(7) . . .
164(7) . . .
160(7) . . .
194(8) . . .
153(6) . . .
160(7) . . .
159(7) . . .
145(6) . . .
155(7) . . .
151(7) . . .
172(7) . . .
168(7) . . .
164(7) . . .
149(7) . . .
162(7) . . .
164(7) . . .
175(7) . . .
162(7) . . .
178(8) . . .
164(7) . . .
150(6) . . .
150(6) . . .
165(7) . . .
161(7) . . .
164(7) . . .
155(6) . . .
152(6) . . .
164(7) . . .
162(7) . . .
161(7) . . .
177(7) . . .
152(6) . . .
165(7) . . .
153(7) . . .
172(7) . . .
174(7) . . .
167(7) . . .
164(7) . . .
156(7) . . .
155(7) . . .
159(7) . . .
155(7) . . .
161(7) . . .
152(7) . . .
164(7) . . .
172(7) . . .
157(7) . . .
173(7) . . .
159(7) . . .
158(7) . . .
144(6) . . .
163(7) . . .
165(7) . . .
148(6) . . .
165(7) . . .
176(7) . . .
157(7) . . .
154(7) . . .
161(7) . . .
157(7) . . .
160(7) . . .
154(7) . . .
159(7) . . .
153(7) . . .
165(7) . . .
149(6) . . .
146(7) . . .
150(7) . . .
165(7) . . .
152(6) . . .
163(7) . . .
148(7) . . .
159(7) . . .
148(6) . . .
170(7) . . .
173(7) . . .
140(6) . . .
159(7) . . .
161(7) . . .
171(7) . . .
165(7) . . .
164(7) . . .
178(7) . . .
173(7) . . .
165(7) . . .
154(7) . . .
156(7) . . .
161(7) . . .
165(7) . . .
155(6) . . .
162(7) . . .
163(7) . . .
174(8) . . .
147(6) . . .
160(7) . . .
162(7) . . .
176(7) . . .
173(7) . . .
161(7) . . .
158(7) . . .
149(6) . . .
173(7) . . .
158(7) . . .
170(7) . . .
168(7) . . .
164(7) . . .
156(7) . . .
148(6) . . .
164(7) . . .
165(7) . . .
163(7) . . .
172(7) . . .
163(7) . . .
163(7) . . .
145(6) . . .
159(7) . . .
180(8) . . .
155(7) . . .
146(6) . . .
166(7) . . .
158(7) . . .
181(8) . . .
161(7) . . .
167(7) . . .
169(7) . . .
162(7) . . .
159(7) . . .
156(7) . . .
156(6) . . .
159(7) . . .
161(7) . . .
156(7) . . .
147(7) . . .
158(7) . . .
148(6) . . .
160(7) . . .
146(7) . . .
147(6) . . .
161(7) . . .
149(6) . . .
172(7) . . .
158(7) . . .
162(7) . . .
155(6) . . .
152(7) . . .
137(6) . . .
161(7) . . .
167(7) . . .
172(7) . . .
170(7) . . .
151(7) . . .
161(7) . . .
157(7) . . .
181(7) . . .
165(7) . . .
159(7) . . .
147(7) . . .
156(7) . . .
158(7) . . .
158(7) . . .
160(7) . . .
158(7) . . .
171(7) . . .
177(7) . . .
167(7) . . .
173(7) . . .
152(6) . . .
167(7) . . .
152(6) . . .
170(7) . . .
165(7) . . .
157(7) . . .
173(7) . . .
153(6) . . .
153(7) . . .
167(7) . . .
174(7) . . .
158(7) . . .
146(6) . . .
147(7) . . .
172(7) . . .
161(7) . . .
156(6) . . .
132(6) . . .
158(7) . . .
161(7) . . .
168(7) . . .
167(7) . . .
153(7) . . .
165(7) . . .
160(7) . . .
156(7) . . .
158(7) . . .
165(7) . . .
154(7) . . .
158(7) . . .
157(7) . . .
183(7) . . .
166(7) . . .
148(6) . . .
165(7) . . .
170(7) . . .
164(7) . . .
157(7) . . .
162(7) . . .
144(6) . . .
152(7) . . .
157(6) . . .
182(7) . . .
169(7) . . .
140(6) . . .
158(7) . . .
147(6) . . .
150(7) . . .
146(7) . . .
150(7) . . .
155(6) . . .
169(7) . . .
164(7) . . .
164(7) . . .
173(7) . . .
160(7) . . .
174(7) . . .
179(7) . . .
160(7) . . .
164(7) . . .
178(7) . . .
174(7) . . .
158(7) . . .
155(7) . . .
167(7) . . .
163(7) . . .
154(6) . . .
147(7) . . .
152(7) . . .
163(7) . . .
155(6) . . .
162(7) . . .
166(7) . . .
155(7) . . .
148(6) . . .
166(7) . . .
168(7) . . .
172(7) . . .
152(7) . . .
139(6) . . .
150(6) . . .
153(6) . . .
157(7) . . .
155(7) . . .
160(7) . . .
157(6) . . .
165(7) . . .
138(6) . . .
141(6) . . .
159(7) . . .
167(7) . . .
149(7) . . .
153(7) . . .
143(6) . . .
158(7) . . .
175(7) . . .
170(7) . . .
153(7) . . .
157(7) . . .
160(7) . . .
146(6) . . .
138(6) . . .
154(7) . . .
150(7) . . .
164(7) . . .
165(7) . . .
164(7) . . .
163(7) . . .
147(6) . . .
151(6) . . .
159(7) . . .
149(6) . . .
165(7) . . .
154(7) . . .
146(6) . . .
166(7) . . .
172(7) . . .
153(7) . . .
164(7) . . .
162(7) . . .
164(7) . . .
154(7) . . .
160(7) . . .
174(7) . . .
140(6) . . .
176(7) . . .
157(7) . . .
168(7) . . .
160(7) . . .
164(7) . . .
144(6) . . .
149(7) . . .
146(6) . . .
148(6) . . .
156(6) . . .
165(7) . . .
152(7) . . .
150(7) . . .
164(7) . . .
169(7) . . .
151(7) . . .
164(7) . . .
163(7) . . .
168(7) . . .
185(7) . . .
163(7) . . .
167(7) . . .
163(7) . . .
149(6) . . .
136(6) . . .
161(7) . . .
151(7) . . .
151(7) . . .
150(6) . . .
129(6) . . .
157(7) . . .
135(7) . . .
139(6) . . .
156(6) . . .
153(7) . . .
135(6) . . .
150(7) . . .
132(6) . . .
138(6) . . .
170(7) . . .
153(6) . . .
170(7) . . .
183(7) . . .
171(7) . . .
144(6) . . .
157(7) . . .
156(7) . . .
168(7) . . .
163(7) . . .
171(7) . . .
169(7) . . .
170(7) . . .
166(7) . . .
150(6) . . .
158(7) . . .
149(7) . . .
149(7) . . .
155(7) . . .
154(6) . . .
160(7) . . .
159(7) . . .
166(7) . . .
146(6) . . .
150(6) . . .
147(6) . . .
136(6) . . .
145(7) . . .
172(7) . . .
139(6) . . .
149(7) . . .
144(7) . . .
153(7) . . .
147(6) . . .
165(7) . . .
171(7) . . .
172(7) . . .
158(7) . . .
146(6) . . .
160(7) . . .
147(7) . . .
142(7) . . .
155(7) . . .
149(6) . . .
138(6) . . .
158(7) . . .
165(7) . . .
169(7) . . .
149(6) . . .
155(6) . . .
150(7) . . .
152(7) . . .
163(7) . . .
151(6) . . .
139(6) . . .
148(7) . . .
143(7) . . .
152(7) . . .
165(7) . . .
151(6) . . .
167(7) . . .
149(7) . . .
148(7) . . .
155(6) . . .
156(7) . . .
148(6) . . .
145(6) . . .
159(7) . . .
168(7) . . .
150(6) . . .
168(7) . . .
154(7) . . .
158(7) . . .
155(7) . . .
151(7) . . .
163(7) . . .
161(7) . . .
143(6) . . .
150(6) . . .
151(7) . . .
149(7) . . .
154(7) . . .
150(7) . . .
148(6) . . .
154(7) . . .
161(7) . . .
156(7) . . .
160(7) . . .
171(7) . . .
144(6) . . .
158(7) . . .
147(6) . . .
147(6) . . .
152(6) . . .
147(7) . . .
140(6) . . .
171(7) . . .
147(6) . . .
135(6) . . .
139(6) . . .
125(6) . . .
129(6) . . .
144(6) . . .
143(6) . . .
159(7) . . .
158(7) . . .
166(7) . . .
158(6) . . .
160(7) . . .
157(7) . . .
154(7) . . .
164(7) . . .
155(6) . . .
158(7) . . .
154(7) . . .
144(7) . . .
139(6) . . .
144(6) . . .
141(6) . . .
147(7) . . .
147(7) . . .
131(6) . . .
154(6) . . .
139(6) . . .
155(7) . . .
131(6) . . .
160(7) . . .
142(6) . . .
149(7) . . .
161(7) . . .
173(7) . . .
162(7) . . .
167(7) . . .
169(7) . . .
141(7) . . .
136(6) . . .
146(6) . . .
136(6) . . .
143(6) . . .
149(7) . . .
165(7) . . .
152(6) . . .
175(7) . . .
153(7) . . .
140(7) . . .
158(7) . . .
165(7) . . .
159(7) . . .
155(7) . . .
147(7) . . .
163(7) . . .
139(6) . . .
133(6) . . .
131(6) . . .
154(7) . . .
156(7) . . .
151(6) . . .
155(6) . . .
141(6) . . .
151(7) . . .
161(7) . . .
160(7) . . .
152(7) . . .
155(7) . . .
140(6) . . .
157(7) . . .
146(6) . . .
142(6) . . .
145(6) . . .
146(7) . . .
147(7) . . .
148(6) . . .
152(7) . . .
155(7) . . .
155(7) . . .
144(6) . . .
156(7) . . .
157(7) . . .
149(7) . . .
154(7) . . .
160(7) . . .
149(6) . . .
136(6) . . .
141(6) . . .
167(7) . . .
146(6) . . .
152(6) . . .
158(7) . . .
137(6) . . .
165(7) . . .
148(6) . . .
147(6) . . .
158(7) . . .
158(7) . . .
149(6) . . .
159(7) . . .
157(6) . . .
150(6) . . .
161(7) . . .
147(6) . . .
142(6) . . .
176(7) . . .
147(6) . . .
156(7) . . .
152(6) . . .
141(6) . . .
143(6) . . .
144(7) . . .
143(7) . . .
149(7) . . .
141(6) . . .
174(7) . . .
156(7) . . .
149(7) . . .
158(7) . . .
161(7) . . .
147(6) . . .
157(7) . . .
156(7) . . .
153(7) . . .
129(6) . . .
137(6) . . .
152(7) . . .
136(6) . . .
127(6) . . .
152(6) . . .
138(6) . . .
143(7) . . .
154(7) . . .
166(7) . . .
147(6) . . .
138(6) . . .
130(6) . . .
146(6) . . .
164(7) . . .
141(6) . . .
154(7) . . .
162(7) . . .
146(6) . . .
141(6) . . .
125(6) . . .
167(7) . . .
150(7) . . .
152(7) . . .
166(7) . . .
164(7) . . .
142(6) . . .
149(7) . . .
162(7) . . .
147(6) . . .
151(6) . . .
142(6) . . .
160(7) . . .
154(7) . . .
153(6) . . .
151(7) . . .
154(7) . . .
134(6) . . .
148(7) . . .
144(6) . . .
152(7) . . .
139(6) . . .
153(7) . . .
155(7) . . .
142(6) . . .
142(6) . . .
144(6) . . .
153(7) . . .
157(7) . . .
143(6) . . .
136(6) . . .
142(6) . . .
148(6) . . .
143(6) . . .
168(7) . . .
155(7) . . .
156(7) . . .
151(7) . . .
148(6) . . .
138(6) . . .
131(6) . . .
145(7) . . .
163(7) . . .
137(6) . . .
165(7) . . .
156(7) . . .
149(7) . . .
141(7) . . .
143(7) . . .
161(7) . . .
160(7) . . .
173(7) . . .
138(6) . . .
166(7) . . .
138(6) . . .
149(7) . . .
170(8) . . .
148(7) . . .
150(6) . . .
168(7) . . .
178(7) . . .
153(7) . . .
163(7) . . .
142(6) . . .
166(7) . . .
165(7) . . .
156(7) . . .
153(7) . . .
157(6) . . .
162(7) . . .
155(7) . . .
146(7) . . .
149(7) . . .
184(7) . . .
146(6) . . .
155(7) . . .
142(6) . . .
166(7) . . .
149(6) . . .
151(6) . . .
137(6) . . .
165(7) . . .
146(6) . . .
145(6) . . .
176(7) . . .
153(7) . . .
152(7) . . .
147(6) . . .
157(7) . . .
147(7) . . .
135(6) . . .
156(7) . . .
138(6) . . .
157(7) . . .
146(6) . . .
139(6) . . .
166(7) . . .
159(7) . . .
142(6) . . .
141(7) . . .
149(7) . . .
149(7) . . .
155(6) . . .
147(6) . . .
170(7) . . .
162(7) . . .
160(7) . . .
167(7) . . .
177(7) . . .
168(7) . . .
172(7) . . .
166(7) . . .
151(6) . . .
154(6) . . .
147(6) . . .
168(7) . . .
171(7) . . .
146(6) . . .
150(7) . . .
147(6) . . .
154(7) . . .
149(6) . . .
160(7) . . .
168(7) . . .
146(7) . . .
144(7) . . .
170(7) . . .
156(6) . . .
160(7) . . .
152(7) . . .
156(7) . . .
163(7) . . .
154(6) . . .
146(6) . . .
146(7) . . .
160(7) . . .
146(6) . . .
148(6) . . .
164(7) . . .
155(7) . . .
157(7) . . .
165(7) . . .
156(6) . . .
145(7) . . .
145(7) . . .
151(7) . . .
134(6) . . .
143(6) . . .
152(7) . . .
148(7) . . .
142(6) . . .
163(7) . . .
149(6) . . .
162(7) . . .
142(7) . . .
137(6) . . .
148(6) . . .
152(6) . . .
156(7) . . .
143(7) . . .
165(7) . . .
155(6) . . .
158(7) . . .
147(6) . . .
161(7) . . .
145(6) . . .
146(6) . . .
163(7) . . .
146(6) . . .
138(6) . . .
161(7) . . .
147(6) . . .
146(6) . . .
145(7) . . .
155(7) . . .
147(6) . . .
167(7) . . .
163(7) . . .
155(7) . . .
144(7) . . .
149(6) . . .
172(7) . . .
146(6) . . .
149(7) . . .
140(7) . . .
140(6) . . .
160(7) . . .
154(7) . . .
148(7) . . .
153(7) . . .
141(6) . . .
154(6) . . .
154(7) . . .
159(7) . . .
158(7) . . .
155(7) . . .
146(6) . . .
147(6) . . .
149(7) . . .
151(7) . . .
161(7) . . .
153(7) . . .
170(7) . . .
142(6) . . .
146(6) . . .
163(7) . . .
144(6) . . .
141(6) . . .
152(7) . . .
161(7) . . .
155(6) . . .
159(7) . . .
168(7) . . .
139(6) . . .
153(7) . . .
142(6) . . .
164(7) . . .
161(7) . . .
167(7) . . .
167(7) . . .
148(6) . . .
136(6) . . .
159(7) . . .
148(6) . . .
151(7) . . .
138(6) . . .
148(6) . . .
148(7) . . .
167(7) . . .
149(7) . . .
150(6) . . .
175(7) . . .
158(7) . . .
158(7) . . .
143(6) . . .
139(6) . . .
134(6) . . .
152(7) . . .
166(7) . . .
155(7) . . .
159(7) . . .
151(7) . . .
161(7) . . .
157(7) . . .
161(7) . . .
149(6) . . .
169(7) . . .
154(7) . . .
150(7) . . .
157(7) . . .
153(6) . . .
155(7) . . .
142(7) . . .
141(6) . . .
145(6) . . .
152(6) . . .
140(6) . . .
156(7) . . .
138(6) . . .
138(6) . . .
141(6) . . .
149(7) . . .
144(7) . . .
151(7) . . .
170(7) . . .
158(7) . . .
142(7) . . .
147(7) . . .
152(7) . . .
175(7) . . .
168(7) . . .
150(7) . . .
144(7) . . .
150(6) . . .
160(7) . . .
132(6) . . .
134(6) . . .
154(7) . . .
157(7) . . .
161(7) . . .
152(7) . . .
152(7) . . .
143(6) . . .
154(6) . . .
146(6) . . .
140(6) . . .
133(6) . . .
154(7) . . .
147(6) . . .
154(6) . . .
163(7) . . .
151(7) . . .
135(6) . . .
135(6) . . .
128(6) . . .
149(6) . . .
138(6) . . .
146(6) . . .
149(6) . . .
146(6) . . .
132(6) . . .
146(7) . . .
152(7) . . .
160(7) . . .
134(6) . . .
146(7) . . .
132(6) . . .
153(7) . . .
150(6) . . .
158(7) . . .
163(7) . . .
159(7) . . .
146(6) . . .
152(6) . . .
164(7) . . .
159(7) . . .
164(7) . . .
152(7) . . .
153(6) . . .
154(7) . . .
137(6) . . .
163(7) . . .
170(7) . . .
161(7) . . .
166(7) . . .
145(7) . . .
138(7) . . .
142(6) . . .
167(7) . . .
140(6) . . .
151(7) . . .
142(6) . . .
150(6) . . .
144(6) . . .
146(6) . . .
150(7) . . .
145(7) . . .
143(6) . . .
153(6) . . .
137(6) . . .
151(7) . . .
140(6) . . .
167(7) . . .
147(6) . . .
155(7) . . .
146(7) . . .
148(7) . . .
143(6) . . .
142(6) . . .
157(7) . . .
149(7) . . .
147(6) . . .
163(7) . . .
154(6) . . .
146(7) . . .
128(6) . . .
144(6) . . .
162(7) . . .
140(6) . . .
162(7) . . .
149(7) . . .
148(7) . . .
128(6) . . .
133(6) . . .
158(7) . . .
128(6) . . .
139(6) . . .
144(6) . . .
149(6) . . .
148(6) . . .
150(7) . . .
147(7) . . .
143(6) . . .
131(6) . . .
130(6) . . .
155(7) . . .
126(6) . . .
143(6) . . .
136(6) . . .
140(7) . . .
151(7) . . .
144(6) . . .
165(7) . . .
144(6) . . .
142(6) . . .
139(6) . . .
150(7) . . .
130(6) . . .
143(7) . . .
142(6) . . .
146(6) . . .
137(6) . . .
141(6) . . .
127(6) . . .
144(7) . . .
138(6) . . .
148(6) . . .
155(6) . . .
143(6) . . .
145(7) . . .
133(6) . . .
146(6) . . .
156(6) . . .
156(7) . . .
161(7) . . .
139(6) . . .
142(6) . . .
139(6) . . .
130(6) . . .
137(6) . . .
152(7) . . .
146(6) . . .
150(6) . . .
153(7) . . .
129(6) . . .
131(6) . . .
133(6) . . .
143(6) . . .
130(6) . . .
131(6) . . .
145(7) . . .
129(6) . . .
155(6) . . .
144(7) . . .
123(6) . . .
140(6) . . .
115(6) . . .
132(6) . . .
134(6) . . .
137(6) . . .
127(6) . . .
136(6) . . .
140(6) . . .
147(7) . . .
134(6) . . .
161(7) . . .
143(6) . . .
158(7) . . .
147(7) . . .
140(6) . . .
154(7) . . .
135(6) . . .
133(6) . . .
146(7) . . .
139(6) . . .
138(6) . . .
134(6) . . .
150(7) . . .
139(6) . . .
146(6) . . .
151(6) . . .
151(6) . . .
135(6) . . .
137(6) . . .
136(6) . . .
152(7) . . .
119(6) . . .
131(6) . . .
131(6) . . .
133(6) . . .
138(6) . . .
138(6) . . .
138(6) . . .
146(7) . . .
141(6) . . .
130(6) . . .
146(6) . . .
141(6) . . .
152(7) . . .
133(6) . . .
145(6) . . .
127(6) . . .
136(6) . . .
133(6) . . .
145(7) . . .
137(6) . . .
137(6) . . .
132(6) . . .
145(7) . . .
137(6) . . .
138(6) . . .
158(7) . . .
142(6) . . .
133(6) . . .
147(6) . . .
148(6) . . .
135(6) . . .
142(6) . . .
130(6) . . .
147(6) . . .
154(6) . . .
146(7) . . .
149(7) . . .
144(6) . . .
142(6) . . .
135(6) . . .
130(6) . . .
138(6) . . .
153(7) . . .
127(6) . . .
140(6) . . .
148(6) . . .
140(6) . . .
147(7) . . .
139(6) . . .
150(6) . . .
138(6) . . .
136(7) . . .
136(6) . . .
148(6) . . .
149(6) . . .
154(7) . . .
148(7) . . .
127(6) . . .
121(6) . . .
128(6) . . .
135(6) . . .
139(6) . . .
152(7) . . .
123(6) . . .
148(6) . . .
129(6) . . .
132(6) . . .
138(6) . . .
138(6) . . .
133(6) . . .
158(7) . . .
152(7) . . .
149(6) . . .
141(6) . . .
137(6) . . .
148(6) . . .
155(7) . . .
149(6) . . .
139(6) . . .
137(6) . . .
156(7) . . .
134(6) . . .
152(7) . . .
133(6) . . .
137(6) . . .
122(6) . . .
131(6) . . .
147(6) . . .
134(6) . . .
135(6) . . .
132(6) . . .
139(6) . . .
150(7) . . .
148(6) . . .
163(7) . . .
156(7) . . .
150(6) . . .
143(6) . . .
158(7) . . .
140(6) . . .
145(7) . . .
159(7) . . .
143(6) . . .
148(6) . . .
123(6) . . .
128(6) . . .
145(7) . . .
154(6) . . .
132(6) . . .
158(7) . . .
139(6) . . .
127(6) . . .
128(6) . . .
137(6) . . .
151(7) . . .
138(6) . . .
132(6) . . .
138(6) . . .
142(6) . . .
142(6) . . .
130(6) . . .
136(6) . . .
132(6) . . .
142(6) . . .
142(7) . . .
148(7) . . .
135(6) . . .
138(6) . . .
146(6) . . .
140(6) . . .
143(6) . . .
148(6) . . .
144(6) . . .
153(7) . . .
139(6) . . .
139(6) . . .
137(6) . . .
139(6) . . .
154(7) . . .
134(6) . . .
122(6) . . .
121(6) . . .
127(6) . . .
149(6) . . .
152(7) . . .
124(6) . . .
131(6) . . .
145(6) . . .
128(6) . . .
129(6) . . .
146(7) . . .
138(6) . . .
122(6) . . .
140(7) . . .
138(6) . . .
155(7) . . .
133(6) . . .
136(6) . . .
148(7) . . .
161(7) . . .
131(6) . . .
160(7) . . .
150(7) . . .
132(6) . . .
143(7) . . .
149(7) . . .
153(6) . . .
121(6) . . .
140(6) . . .
131(6) . . .
144(6) . . .
152(6) . . .
148(6) . . .
128(6) . . .
130(6) . . .
146(7) . . .
138(6) . . .
139(6) . . .
137(6) . . .
141(6) . . .
139(6) . . .
130(6) . . .
139(6) . . .
169(7) . . .
127(6) . . .
140(6) . . .
126(6) . . .
138(7) . . .
132(6) . . .
125(6) . . .
149(7) . . .
123(6) . . .
135(6) . . .
166(7) . . .
152(7) . . .
136(6) . . .
126(6) . . .
128(6) . . .
156(7) . . .
132(6) . . .
138(6) . . .
144(6) . . .
149(7) . . .
134(6) . . .
148(6) . . .
156(6) . . .
138(6) . . .
146(6) . . .
156(7) . . .
134(6) . . .
136(6) . . .
146(6) . . .
149(7) . . .
142(7) . . .
131(6) . . .
143(6) . . .
147(6) . . .
150(7) . . .
135(6) . . .
128(6) . . .
120(6) . . .
118(6) . . .
139(7) . . .
139(6) . . .
134(6) . . .
138(6) . . .
145(6) . . .
127(6) . . .
135(6) . . .
136(6) . . .
153(6) . . .
144(6) . . .
145(7) . . .
146(7) . . .
136(6) . . .
136(6) . . .
133(6) . . .
135(6) . . .
145(6) . . .
143(6) . . .
135(6) . . .
149(7) . . .
150(7) . . .
143(7) . . .
135(6) . . .
142(6) . . .
123(6) . . .
132(6) . . .
144(6) . . .
123(6) . . .
135(6) . . .
144(7) . . .
145(7) . . .
141(6) . . .
160(7) . . .
134(6) . . .
142(6) . . .
130(6) . . .
148(7) . . .
138(6) . . .
125(6) . . .
126(6) . . .
141(7) . . .
154(7) . . .
148(6) . . .
138(6) . . .
139(6) . . .
137(6) . . .
133(6) . . .
145(6) . . .
138(6) . . .
128(6) . . .
139(7) . . .
140(6) . . .
135(6) . . .
141(6) . . .
133(6) . . .
130(6) . . .
127(6) . . .
135(6) . . .
140(6) . . .
141(6) . . .
138(6) . . .
148(7) . . .
156(6) . . .
144(6) . . .
129(6) . . .
152(7) . . .
149(6) . . .
151(6) . . .
158(7) . . .
129(6) . . .
140(6) . . .
140(6) . . .
119(6) . . .
124(6) . . .
140(7) . . .
134(6) . . .
132(6) . . .
136(6) . . .
133(6) . . .
138(7) . . .
129(6) . . .
134(6) . . .
139(6) . . .
145(6) . . .
150(7) . . .
145(6) . . .
134(6) . . .
131(6) . . .
137(6) . . .
124(6) . . .
142(6) . . .
146(6) . . .
144(6) . . .
136(6) . . .
131(6) . . .
143(6) . . .
148(6) . . .
132(6) . . .
150(7) . . .
140(7) . . .
135(6) . . .
157(7) . . .
149(6) . . .
145(6) . . .
136(6) . . .
139(6) . . .
152(6) . . .
147(6) . . .
147(7) . . .
140(6) . . .
135(6) . . .
127(6) . . .
155(7) . . .
142(6) . . .
150(7) . . .
132(6) . . .
134(6) . . .
146(7) . . .
147(7) . . .
136(6) . . .
124(6) . . .
150(6) . . .
140(6) . . .
151(7) . . .
135(6) . . .
150(6) . . .
133(6) . . .
131(6) . . .
131(6) . . .
132(6) . . .
132(6) . . .
135(6) . . .
139(6) . . .
147(7) . . .
138(6) . . .
147(6) . . .
136(6) . . .
124(6) . . .
134(6) . . .
135(7) . . .
118(6) . . .
142(6) . . .
128(6) . . .
111(6) . . .
134(6) . . .
123(6) . . .
140(6) . . .
136(6) . . .
131(6) . . .
123(6) . . .
127(6) . . .
139(6) . . .
140(6) . . .
130(6) . . .
129(6) . . .
140(6) . . .
149(6) . . .
129(6) . . .
123(6) . . .
145(6) . . .
127(6) . . .
140(6) . . .
125(6) . . .
129(6) . . .
138(6) . . .
137(6) . . .
133(6) . . .
136(6) . . .
141(6) . . .
142(6) . . .
138(6) . . .
130(6) . . .
128(6) . . .
130(6) . . .
137(6) . . .
138(6) . . .
146(7) . . .
126(6) . . .
134(6) . . .
130(6) . . .
140(6) . . .
151(7) . . .
135(6) . . .
151(7) . . .
145(6) . . .
122(6) . . .
135(6) . . .
143(6) . . .
140(6) . . .
141(6) . . .
145(6) . . .
137(6) . . .
127(6) . . .
129(6) . . .
136(6) . . .
133(6) . . .
149(7) . . .
163(7) . . .
153(7) . . .
135(6) . . .
140(6) . . .
129(6) . . .
133(6) . . .
144(6) . . .
139(6) . . .
150(6) . . .
138(6) . . .
143(7) . . .
141(6) . . .
147(6) . . .
148(6) . . .
130(6) . . .
139(7) . . .
127(6) . . .
128(6) . . .
134(6) . . .
139(6) . . .
142(6) . . .
147(6) . . .
135(6) . . .
142(6) . . .
157(7) . . .
131(6) . . .
125(6) . . .
125(6) . . .
148(7) . . .
131(6) . . .
135(6) . . .
132(6) . . .
135(6) . . .
143(6) . . .
144(7) . . .
145(6) . . .
133(6) . . .
130(6) . . .
131(6) . . .
138(7) . . .
133(6) . . .
134(6) . . .
141(6) . . .
123(6) . . .
137(7) . . .
145(7) . . .
120(6) . . .
146(6) . . .
133(6) . . .
145(7) . . .
140(6) . . .
151(6) . . .
134(6) . . .
130(6) . . .
140(6) . . .
153(7) . . .
146(6) . . .
147(7) . . .
136(6) . . .
149(7) . . .
141(6) . . .
113(6) . . .
130(6) . . .
121(6) . . .
132(6) . . .
115(6) . . .
135(6) . . .
139(6) . . .
137(6) . . .
141(7) . . .
148(7) . . .
125(6) . . .
126(6) . . .
130(6) . . .
149(7) . . .
134(6) . . .
133(6) . . .
139(7) . . .
131(6) . . .
132(6) . . .
141(6) . . .
145(6) . . .
153(7) . . .
136(6) . . .
125(6) . . .
139(6) . . .
134(6) . . .
153(7) . . .
151(7) . . .
153(7) . . .
137(6) . . .
128(6) . . .
130(6) . . .
121(6) . . .
114(6) . . .
138(6) . . .
137(6) . . .
156(7) . . .
141(6) . . .
140(6) . . .
134(6) . . .
132(6) . . .
141(6) . . .
138(7) . . .
126(6) . . .
141(6) . . .
137(6) . . .
130(6) . . .
134(6) . . .
146(7) . . .
123(6) . . .
135(6) . . .
145(7) . . .
146(7) . . .
122(6) . . .
127(6) . . .
156(7) . . .
139(6) . . .
138(7) . . .
130(6) . . .
150(6) . . .
144(6) . . .
158(7) . . .
144(7) . . .
116(6) . . .
153(6) . . .
141(7) . . .
143(7) . . .
139(6) . . .
135(6) . . .
145(6) . . .
149(7) . . .
120(6) . . .
144(6) . . .
145(6) . . .
136(6) . . .
122(6) . . .
134(6) . . .
149(6) . . .
136(6) . . .
121(6) . . .
148(6) . . .
138(7) . . .
131(6) . . .
139(6) . . .
123(6) . . .
129(6) . . .
141(7) . . .
126(6) . . .
121(6) . . .
133(6) . . .
138(6) . . .
143(6) . . .
131(6) . . .
142(6) . . .
144(6) . . .
136(6) . . .
135(6) . . .
121(6) . . .
126(6) . . .
128(6) . . .
150(7) . . .
129(6) . . .
118(6) . . .
127(6) . . .
124(6) . . .
129(6) . . .
133(6) . . .
132(6) . . .
120(6) . . .
123(6) . . .
150(7) . . .
151(7) . . .
147(6) . . .
145(6) . . .
139(6) . . .
155(7) . . .
136(6) . . .
142(6) . . .
140(6) . . .
132(6) . . .
139(7) . . .
129(6) . . .
128(6) . . .
147(6) . . .
125(6) . . .
122(6) . . .
119(6) . . .
143(6) . . .
143(6) . . .
130(6) . . .
124(6) . . .
133(6) . . .
139(6) . . .
156(7) . . .
128(6) . . .
135(6) . . .
138(6) . . .
151(6) . . .
141(6) . . .
138(6) . . .
138(6) . . .
119(6) . . .
149(6) . . .
143(7) . . .
132(6) . . .
132(6) . . .
139(6) . . .
126(6) . . .
124(6) . . .
118(6) . . .
143(7) . . .
132(6) . . .
147(6) . . .
152(7) . . .
165(7) . . .
147(7) . . .
118(6) . . .
134(6) . . .
145(6) . . .
135(6) . . .
141(7) . . .
147(6) . . .
136(6) . . .
146(6) . . .
139(7) . . .
144(7) . . .
126(6) . . .
128(6) . . .
123(6) . . .
125(6) . . .
136(6) . . .
148(6) . . .
120(6) . . .
125(6) . . .
124(6) . . .
141(6) . . .
136(6) . . .
143(6) . . .
137(6) . . .
138(6) . . .
133(6) . . .
129(6) . . .
138(6) . . .
122(6) . . .
132(6) . . .
131(6) . . .
131(6) . . .
138(6) . . .
137(6) . . .
128(6) . . .
135(6) . . .
150(6) . . .
124(6) . . .
134(6) . . .
127(6) . . .
147(7) . . .
138(6) . . .
136(6) . . .
136(6) . . .
137(6) . . .
133(6) . . .
120(6) . . .
131(6) . . .
143(6) . . .
128(6) . . .
143(6) . . .
135(6) . . .
129(6) . . .
121(6) . . .
126(6) . . .
128(6) . . .
137(6) . . .
119(6) . . .
127(6) . . .
127(6) . . .
133(6) . . .
140(6) . . .
148(7) . . .
138(7) . . .
123(6) . . .
131(6) . . .
127(6) . . .
149(6) . . .
161(7) . . .
145(6) . . .
134(6) . . .
135(6) . . .
122(6) . . .
116(6) . . .
129(6) . . .
144(6) . . .
130(6) . . .
137(6) . . .
123(6) . . .
116(6) . . .
123(6) . . .
137(6) . . .
149(7) . . .
136(6) . . .
134(6) . . .
121(6) . . .
144(6) . . .
129(6) . . .
144(7) . . .
143(6) . . .
141(6) . . .
144(6) . . .
115(6) . . .
138(6) . . .
121(6) . . .
131(6) . . .
121(6) . . .
142(7) . . .
137(6) . . .
129(6) . . .
134(6) . . .
135(6) . . .
126(6) . . .
128(6) . . .
120(6) . . .
132(6) . . .
140(6) . . .
114(6) . . .
136(7) . . .
128(6) . . .
113(5) . . .
123(6) . . .
135(6) . . .
125(6) . . .
143(6) . . .
139(6) . . .
128(6) . . .
143(7) . . .
143(6) . . .
123(6) . . .
125(6) . . .
140(6) . . .
140(6) . . .
136(6) . . .
132(6) . . .
124(6) . . .
141(6) . . .
119(6) . . .
140(7) . . .
145(6) . . .
136(6) . . .
140(6) . . .
137(6) . . .
144(6) . . .
137(6) . . .
139(6) . . .
127(6) . . .
115(6) . . .
143(6) . . .
138(6) . . .
130(6) . . .
138(6) . . .
141(6) . . .
144(6) . . .
128(6) . . .
144(6) . . .
134(6) . . .
137(6) . . .
124(6) . . .
142(6) . . .
136(6) . . .
129(6) . . .
128(6) . . .
136(6) . . .
136(6) . . .
146(6) . . .
128(6) . . .
115(6) . . .
139(6) . . .
123(6) . . .
146(6) . . .
144(6) . . .
140(6) . . .
146(6) . . .
135(6) . . .
148(7) . . .
143(7) . . .
136(6) . . .
132(6) . . .
124(6) . . .
131(6) . . .
132(6) . . .
124(6) . . .
127(6) . . .
137(6) . . .
126(6) . . .
133(6) . . .
145(7) . . .
130(6) . . .
136(6) . . .
123(6) . . .
118(6) . . .
128(6) . . .
122(6) . . .
130(6) . . .
129(6) . . .
134(6) . . .
140(7) . . .
126(6) . . .
124(6) . . .
139(6) . . .
120(6) . . .
133(6) . . .
121(6) . . .
136(6) . . .
140(6) . . .
134(6) . . .
125(6) . . .
139(6) . . .
155(7) . . .
124(6) . . .
137(6) . . .
134(6) . . .
138(6) . . .
135(7) . . .
134(6) . . .
142(6) . . .
145(6) . . .
132(6) . . .
120(6) . . .
131(6) . . .
130(6) . . .
130(6) . . .
129(6) . . .
138(6) . . .
133(6) . . .
134(6) . . .
144(6) . . .
151(6) . . .
144(6) . . .
154(7) . . .
147(6) . . .
118(6) . . .
121(6) . . .
149(7) . . .
128(6) . . .
125(6) . . .
130(6) . . .
126(6) . . .
138(6) . . .
134(6) . . .
108(5) . . .
124(6) . . .
127(6) . . .
149(7) . . .
138(6) . . .
131(6) . . .
138(6) . . .
140(6) . . .
127(6) . . .
134(6) . . .
126(6) . . .
118(6) . . .
132(6) . . .
137(6) . . .
134(6) . . .
131(6) . . .
119(6) . . .
137(6) . . .
141(6) . . .
143(6) . . .
128(6) . . .
137(6) . . .
123(6) . . .
130(6) . . .
132(6) . . .
122(6) . . .
127(6) . . .
126(6) . . .
126(6) . . .
131(6) . . .
129(6) . . .
143(6) . . .
135(6) . . .
124(6) . . .
130(6) . . .
147(6) . . .
152(6) . . .
147(7) . . .
132(6) . . .
125(6) . . .
115(6) . . .
135(6) . . .
126(6) . . .
129(6) . . .
141(7) . . .
138(6) . . .
132(6) . . .
141(6) . . .
120(6) . . .
130(6) . . .
132(6) . . .
120(6) . . .
126(6) . . .
136(6) . . .
119(6) . . .
130(6) . . .
135(6) . . .
135(6) . . .
124(6) . . .
115(6) . . .
123(6) . . .
140(6) . . .
133(6) . . .
146(7) . . .
130(6) . . .
122(6) . . .
128(6) . . .
127(6) . . .
142(6) . . .
139(6) . . .
128(6) . . .
140(6) . . .
135(6) . . .
131(6) . . .
149(6) . . .
140(6) . . .
134(6) . . .
129(6) . . .
123(6) . . .
126(6) . . .
119(6) . . .
135(6) . . .
144(7) . . .
140(6) . . .
121(6) . . .
122(6) . . .
124(6) . . .
137(7) . . .
124(6) . . .
126(6) . . .
136(6) . . .
128(6) . . .
126(6) . . .
140(6) . . .
139(6) . . .
130(6) . . .
120(6) . . .
125(6) . . .
125(6) . . .
142(6) . . .
134(6) . . .
138(6) . . .
129(6) . . .
122(6) . . .
128(6) . . .
124(6) . . .
136(6) . . .
140(6) . . .
129(6) . . .
121(6) . . .
124(6) . . .
128(6) . . .
131(6) . . .
117(6) . . .
107(5) . . .
129(6) . . .
152(7) . . .
135(6) . . .
138(6) . . .
130(6) . . .
119(6) . . .
130(6) . . .
132(6) . . .
126(6) . . .
121(6) . . .
121(6) . . .
134(6) . . .
146(6) . . .
140(6) . . .
147(6) . . .
138(7) . . .
108(6) . . .
132(6) . . .
142(6) . . .
125(6) . . .
127(6) . . .
128(6) . . .
147(6) . . .
126(6) . . .
142(6) . . .
134(6) . . .
122(6) . . .
106(6) . . .
122(6) . . .
136(6) . . .
134(6) . . .
134(6) . . .
134(6) . . .
123(6) . . .
126(6) . . .
122(6) . . .
131(6) . . .
138(6) . . .
148(6) . . .
140(6) . . .
128(6) . . .
138(7) . . .
124(6) . . .
138(6) . . .
129(6) . . .
138(6) . . .
132(6) . . .
139(6) . . .
155(6) . . .
123(6) . . .
140(7) . . .
123(6) . . .
124(6) . . .
113(5) . . .
130(6) . . .
134(7) . . .
130(6) . . .
125(6) . . .
129(6) . . .
131(6) . . .
121(6) . . .
114(6) . . .
133(6) . . .
119(6) . . .
122(6) . . .
112(6) . . .
137(6) . . .
134(6) . . .
122(6) . . .
115(6) . . .
137(6) . . .
140(7) . . .
132(6) . . .
119(6) . . .
140(7) . . .
133(6) . . .
126(6) . . .
129(6) . . .
138(6) . . .
128(6) . . .
135(7) . . .
128(6) . . .
129(6) . . .
119(6) . . .
142(7) . . .
117(6) . . .
131(6) . . .
148(6) . . .
122(6) . . .
125(6) . . .
134(6) . . .
116(6) . . .
131(6) . . .
119(6) . . .
121(6) . . .
126(6) . . .
117(6) . . .
129(6) . . .
134(6) . . .
134(6) . . .
130(6) . . .
113(6) . . .
123(6) . . .
116(6) . . .
111(6) . . .
134(6) . . .
126(6) . . .
118(6) . . .
141(7) . . .
144(7) . . .
128(6) . . .
111(6) . . .
119(6) . . .
126(6) . . .
125(6) . . .
125(6) . . .
125(6) . . .
134(6) . . .
136(6) . . .
144(7) . . .
133(6) . . .
137(6) . . .
128(6) . . .
129(6) . . .
146(7) . . .
143(6) . . .
134(6) . . .
120(6) . . .
121(6) . . .
125(6) . . .
140(7) . . .
128(6) . . .
126(6) . . .
124(6) . . .
120(6) . . .
148(7) . . .
135(6) . . .
123(6) . . .
146(7) . . .
139(6) . . .
116(6) . . .
135(6) . . .
132(6) . . .
122(6) . . .
133(6) . . .
131(6) . . .
134(6) . . .
120(6) . . .
125(6) . . .
123(6) . . .
130(6) . . .
115(6) . . .
129(6) . . .
129(6) . . .
121(6) . . .
123(6) . . .
133(6) . . .
115(6) . . .
134(6) . . .
133(6) . . .
109(6) . . .
147(6) . . .
145(6) . . .
150(7) . . .
131(6) . . .
123(6) . . .
123(6) . . .
115(6) . . .
117(6) . . .
123(6) . . .
124(6) . . .
127(6) . . .
125(6) . . .
129(6) . . .
122(6) . . .
128(6) . . .
112(6) . . .
127(6) . . .
132(6) . . .
139(6) . . .
112(5) . . .
102(5) . . .
139(6) . . .
121(6) . . .
129(6) . . .
118(6) . . .
110(5) . . .
120(6) . . .
137(7) . . .
132(6) . . .
134(6) . . .
140(6) . . .
137(6) . . .
127(6) . . .
152(7) . . .
126(6) . . .
135(6) . . .
125(6) . . .
134(6) . . .
125(6) . . .
133(6) . . .
147(7) . . .
138(7) . . .
133(6) . . .
133(6) . . .
138(6) . . .
138(6) . . .
137(7) . . .
139(6) . . .
136(6) . . .
142(6) . . .
142(6) . . .
125(6) . . .
123(6) . . .
115(6) . . .
138(6) . . .
125(6) . . .
119(6) . . .
130(6) . . .
116(6) . . .
122(6) . . .
122(6) . . .
129(6) . . .
128(6) . . .
145(6) . . .
155(6) . . .
145(6) . . .
137(6) . . .
129(6) . . .
139(6) . . .
143(6) . . .
135(6) . . .
117(6) . . .
112(6) . . .
144(6) . . .
122(6) . . .
131(6) . . .
127(6) . . .
165(7) . . .
130(6) . . .
142(6) . . .
126(6) . . .
140(7) . . .
132(6) . . .
130(6) . . .
131(6) . . .
141(6) . . .
140(7) . . .
136(6) . . .
132(6) . . .
139(6) . . .
142(7) . . .
155(7) . . .
145(6) . . .
139(6) . . .
129(6) . . .
138(6) . . .
135(6) . . .
132(6) . . .
138(6) . . .
143(6) . . .
154(7) . . .
148(7) . . .
147(6) . . .
146(6) . . .
141(6) . . .
125(6) . . .
126(6) . . .
122(6) . . .
142(6) . . .
128(6) . . .
126(6) . . .
119(6) . . .
128(6) . . .
126(6) . . .
135(6) . . .
137(7) . . .
124(6) . . .
126(6) . . .
127(6) . . .
134(6) . . .
135(6) . . .
145(6) . . .
145(6) . . .
126(6) . . .
127(6) . . .
138(7) . . .
119(6) . . .
128(6) . . .
137(6) . . .
160(7) . . .
154(7) . . .
118(6) . . .
121(6) . . .
126(6) . . .
135(6) . . .
128(6) . . .
134(6) . . .
133(6) . . .
131(6) . . .
138(6) . . .
126(6) . . .
133(6) . . .
139(6) . . .
158(7) . . .
139(6) . . .
134(6) . . .
125(6) . . .
147(6) . . .
142(6) . . .
145(7) . . .
131(6) . . .
118(6) . . .
147(6) . . .
163(7) . . .
142(7) . . .
148(7) . . .
147(6) . . .
135(6) . . .
147(7) . . .
144(7) . . .
121(6) . . .
117(6) . . .
127(6) . . .
121(6) . . .
142(7) . . .
147(7) . . .
127(6) . . .
141(6) . . .
152(7) . . .
144(7) . . .
130(6) . . .
145(6) . . .
143(6) . . .
124(6) . . .
131(6) . . .
128(6) . . .
125(6) . . .
124(6) . . .
139(6) . . .
115(6) . . .
126(6) . . .
139(6) . . .
132(6) . . .
133(6) . . .
119(6) . . .
123(6) . . .
136(6) . . .
136(6) . . .
134(6) . . .
144(6) . . .
145(7) . . .
116(6) . . .
140(7) . . .
116(6) . . .
139(6) . . .
148(7) . . .
135(6) . . .
123(6) . . .
126(6) . . .
138(6) . . .
137(6) . . .
119(6) . . .
126(6) . . .
121(6) . . .
123(6) . . .
120(6) . . .
136(6) . . .
143(6) . . .
136(6) . . .
136(6) . . .
136(6) . . .
124(6) . . .
133(6) . . .
119(6) . . .
117(6) . . .
129(6) . . .
145(6) . . .
126(6) . . .
129(6) . . .
139(7) . . .
146(6) . . .
141(6) . . .
143(6) . . .
136(6) . . .
120(6) . . .
122(6) . . .
124(6) . . .
149(7) . . .
134(6) . . .
126(6) . . .
122(6) . . .
144(6) . . .
141(6) . . .
145(7) . . .
129(6) . . .
146(6) . . .
125(6) . . .
125(6) . . .
137(6) . . .
140(6) . . .
120(6) . . .
140(6) . . .
133(6) . . .
159(7) . . .
129(6) . . .
127(6) . . .
135(7) . . .
128(6) . . .
148(7) . . .
141(6) . . .
127(6) . . .
145(7) . . .
158(7) . . .
152(7) . . .
138(6) . . .
144(6) . . .
155(7) . . .
125(6) . . .
149(7) . . .
142(6) . . .
140(6) . . .
134(6) . . .
132(6) . . .
136(6) . . .
115(5) . . .
143(6) . . .
139(6) . . .
143(7) . . .
137(6) . . .
148(6) . . .
143(6) . . .
128(6) . . .
121(6) . . .
140(7) . . .
120(6) . . .
119(6) . . .
137(6) . . .
128(6) . . .
129(6) . . .
141(6) . . .
130(6) . . .
141(7) . . .
114(6) . . .
149(7) . . .
130(6) . . .
124(6) . . .
133(6) . . .
137(7) . . .
106(5) . . .
146(6) . . .
145(6) . . .
143(6) . . .
133(6) . . .
132(6) . . .
127(6) . . .
128(6) . . .
133(6) . . .
124(6) . . .
148(7) . . .
152(6) . . .
139(6) . . .
139(6) . . .
132(6) . . .
145(6) . . .
152(6) . . .
144(7) . . .
135(6) . . .
121(6) . . .
144(6) . . .
135(6) . . .
130(6) . . .
124(6) . . .
140(7) . . .
158(7) . . .
131(6) . . .
132(6) . . .
144(7) . . .
144(7) . . .
127(6) . . .
144(6) . . .
145(6) . . .
144(6) . . .
132(6) . . .
134(6) . . .
137(6) . . .
127(6) . . .
142(7) . . .
140(6) . . .
154(6) . . .
144(6) . . .
131(6) . . .
142(7) . . .
136(6) . . .
114(6) . . .
127(6) . . .
138(6) . . .
136(6) . . .
133(6) . . .
140(6) . . .
147(6) . . .
122(6) . . .
138(6) . . .
135(6) . . .
138(6) . . .
141(6) . . .
120(6) . . .
126(6) . . .
117(6) . . .
128(6) . . .
153(7) . . .
138(7) . . .
119(6) . . .
137(6) . . .
120(6) . . .
117(6) . . .
115(6) . . .
132(6) . . .
140(6) . . .
124(6) . . .
133(6) . . .
140(7) . . .
143(7) . . .
142(6) . . .
147(6) . . .
124(6) . . .
132(6) . . .
135(6) . . .
125(6) . . .
115(6) . . .
134(6) . . .
124(6) . . .
134(6) . . .
137(6) . . .
119(6) . . .
119(6) . . .
137(7) . . .
136(6) . . .
123(6) . . .
130(6) . . .
134(6) . . .
112(6) . . .
130(6) . . .
129(6) . . .
133(6) . . .
139(6) . . .
139(6) . . .
137(6) . . .
135(6) . . .
124(6) . . .
136(7) . . .
121(6) . . .
130(6) . . .
132(6) . . .
128(6) . . .
130(6) . . .
116(6) . . .
126(6) . . .
129(6) . . .
138(6) . . .
126(6) . . .
135(6) . . .
118(6) . . .
104(5) . . .
123(6) . . .
129(6) . . .
126(6) . . .
128(6) . . .
140(6) . . .
122(6) . . .
138(7) . . .
136(6) . . .
128(6) . . .
130(6) . . .
128(6) . . .
114(6) . . .
131(6) . . .
158(7) . . .
130(6) . . .
132(6) . . .
124(6) . . .
118(6) . . .
138(6) . . .
150(6) . . .
129(6) . . .
120(6) . . .
149(6) . . .
122(6) . . .
124(6) . . .
131(6) . . .
122(6) . . .
123(6) . . .
129(6) . . .
132(6) . . .
141(6) . . .
152(7) . . .
136(6) . . .
137(6) . . .
128(6) . . .
131(6) . . .
133(6) . . .
143(6) . . .
151(6) . . .
128(6) . . .
130(6) . . .
154(7) . . .
137(6) . . .
127(6) . . .
140(6) . . .
136(6) . . .
129(6) . . .
138(6) . . .
129(6) . . .
137(6) . . .
150(7) . . .
126(6) . . .
114(6) . . .
140(6) . . .
121(6) . . .
122(6) . . .
139(6) . . .
138(6) . . .
142(6) . . .
130(6) . . .
142(7) . . .
124(6) . . .
120(6) . . .
129(6) . . .
131(6) . . .
138(7) . . .
128(6) . . .
141(6) . . .
128(6) . . .
138(7) . . .
127(6) . . .
133(6) . . .
122(6) . . .
127(6) . . .
136(7) . . .
125(6) . . .
126(6) . . .
120(6) . . .
140(6) . . .
137(6) . . .
132(7) . . .
128(6) . . .
127(6) . . .
118(6) . . .
125(6) . . .
134(6) . . .
134(6) . . .
122(6) . . .
137(6) . . .
139(6) . . .
127(6) . . .
121(6) . . .
114(6) . . .
137(6) . . .
133(6) . . .
128(6) . . .
147(6) . . .
143(6) . . .
143(7) . . .
118(6) . . .
120(6) . . .
132(6) . . .
127(6) . . .
126(6) . . .
136(6) . . .
130(6) . . .
135(6) . . .
137(6) . . .
120(6) . . .
124(6) . . .
110(6) . . .
139(6) . . .
118(6) . . .
127(6) . . .
138(7) . . .
129(6) . . .
140(6) . . .
137(6) . . .
125(6) . . .
135(6) . . .
132(6) . . .
144(6) . . .
128(6) . . .
130(6) . . .
128(6) . . .
117(6) . . .
138(6) . . .
147(6) . . .
136(6) . . .
144(7) . . .
124(6) . . .
130(6) . . .
120(6) . . .
136(6) . . .
133(6) . . .
125(6) . . .
128(6) . . .
112(5) . . .
110(6) . . .
126(6) . . .
127(6) . . .
137(6) . . .
144(6) . . .
139(6) . . .
147(6) . . .
152(7) . . .
144(6) . . .
125(6) . . .
135(6) . . .
131(6) . . .
132(6) . . .
146(6) . . .
143(6) . . .
121(6) . . .
142(7) . . .
132(6) . . .
131(6) . . .
130(6) . . .
128(6) . . .
132(6) . . .
142(6) . . .
127(6) . . .
115(6) . . .
123(6) . . .
130(6) . . .
124(6) . . .
131(6) . . .
131(6) . . .
123(6) . . .
131(6) . . .
126(6) . . .
134(6) . . .
113(6) . . .
129(6) . . .
122(6) . . .
127(6) . . .
118(6) . . .
137(6) . . .
132(6) . . .
115(6) . . .
115(6) . . .
131(6) . . .
139(6) . . .
127(6) . . .
128(6) . . .
144(6) . . .
135(6) . . .
132(6) . . .
127(6) . . .
129(6) . . .
127(6) . . .
144(6) . . .
126(6) . . .
116(6) . . .
124(6) . . .
110(5) . . .
125(6) . . .
122(6) . . .
125(6) . . .
120(6) . . .
122(6) . . .
129(6) . . .
130(6) . . .
140(6) . . .
123(6) . . .
130(6) . . .
134(6) . . .
121(6) . . .
129(6) . . .
112(6) . . .
129(6) . . .
129(6) . . .
124(6) . . .
136(6) . . .
128(6) . . .
122(6) . . .
126(6) . . .
118(6) . . .
126(6) . . .
129(6) . . .
130(6) . . .
140(6) . . .
135(6) . . .
122(6) . . .
150(6) . . .
125(6) . . .
128(6) . . .
122(6) . . .
118(6) . . .
116(6) . . .
141(6) . . .
126(6) . . .
140(7) . . .
134(6) . . .
130(6) . . .
124(6) . . .
135(6) . . .
124(6) . . .
135(6) . . .
142(6) . . .
139(6) . . .
132(6) . . .
129(6) . . .
143(6) . . .
131(6) . . .
126(6) . . .
137(6) . . .
123(6) . . .
132(6) . . .
120(6) . . .
142(6) . . .
141(7) . . .
126(6) . . .
141(6) . . .
130(6) . . .
142(6) . . .
131(6) . . .
124(6) . . .
119(6) . . .
121(6) . . .
113(6) . . .
131(6) . . .
127(6) . . .
122(6) . . .
145(6) . . .
137(6) . . .
105(5) . . .
133(6) . . .
131(6) . . .
128(6) . . .
128(6) . . .
113(6) . . .
127(6) . . .
128(6) . . .
121(6) . . .
120(6) . . .
114(6) . . .
125(6) . . .
109(6) . . .
90(5) . . .
123(6) . . .
120(6) . . .
129(6) . . .
134(6) . . .
117(6) . . .
122(6) . . .
106(5) . . .
117(6) . . .
131(6) . . .
117(6) . . .
117(6) . . .
117(6) . . .
124(6) . . .
124(6) . . .
113(6) . . .
137(6) . . .
123(6) . . .
129(6) . . .
123(6) . . .
121(6) . . .
136(6) . . .
127(6) . . .
116(6) . . .
124(6) . . .
129(6) . . .
134(6) . . .
135(6) . . .
116(6) . . .
120(6) . . .
118(6) . . .
116(6) . . .
131(6) . . .
132(6) . . .
116(6) . . .
116(6) . . .
123(6) . . .
108(6) . . .
135(7) . . .
128(6) . . .
120(6) . . .
122(6) . . .
122(6) . . .
114(6) . . .
130(6) . . .
123(6) . . .
106(5) . . .
117(6) . . .
115(6) . . .
120(6) . . .
113(6) . . .
135(6) . . .
123(6) . . .
115(6) . . .
127(6) . . .
115(6) . . .
115(6) . . .
127(6) . . .
118(6) . . .
122(6) . . .
122(6) . . .
137(6) . . .
123(6) . . .
126(6) . . .
134(6) . . .
116(6) . . .
129(6) . . .
126(6) . . .
121(6) . . .
118(6) . . .
119(6) . . .
109(5) . . .
129(6) . . .
133(6) . . .
134(6) . . .
124(6) . . .
127(6) . . .
126(6) . . .
124(6) . . .
133(6) . . .
134(6) . . .
123(6) . . .
124(6) . . .
118(6) . . .
127(6) . . .
119(6) . . .
126(6) . . .
127(6) . . .
109(6) . . .
122(6) . . .
122(6) . . .
132(6) . . .
125(6) . . .
138(7) . . .
127(6) . . .
109(5) . . .
132(6) . . .
123(6) . . .
137(6) . . .
122(6) . . .
136(6) . . .
121(6) . . .
123(6) . . .
125(6) . . .
125(6) . . .
117(6) . . .
133(6) . . .
123(6) . . .
115(6) . . .
123(6) . . .
104(5) . . .
118(6) . . .
117(6) . . .
112(6) . . .
131(6) . . .
127(6) . . .
132(6) . . .
109(6) . . .
117(6) . . .
109(5) . . .
122(6) . . .
131(6) . . .
114(6) . . .
116(6) . . .
116(6) . . .
134(6) . . .
130(6) . . .
111(6) . . .
126(6) . . .
132(6) . . .
119(6) . . .
105(6) . . .
130(6) . . .
125(6) . . .
127(6) . . .
116(6) . . .
122(6) . . .
120(6) . . .
117(6) . . .
119(6) . . .
140(6) . . .
119(6) . . .
118(6) . . .
111(5) . . .
123(6) . . .
122(6) . . .
126(6) . . .
123(6) . . .
109(6) . . .
127(6) . . .
130(6) . . .
113(6) . . .
109(6) . . .
106(5) . . .
112(6) . . .
118(6) . . .
132(6) . . .
125(6) . . .
130(6) . . .
118(6) . . .
120(6) . . .
120(6) . . .
105(5) . . .
121(6) . . .
113(6) . . .
131(6) . . .
147(7) . . .
121(6) . . .
113(6) . . .
113(6) . . .
123(6) . . .
115(6) . . .
124(6) . . .
117(6) . . .
125(6) . . .
126(6) . . .
126(6) . . .
114(6) . . .
120(6) . . .
130(6) . . .
109(6) . . .
130(6) . . .
112(6) . . .
114(6) . . .
136(6) . . .
123(6) . . .
125(6) . . .
120(6) . . .
129(6) . . .
107(5) . . .
116(6) . . .
107(6) . . .
124(6) . . .
130(6) . . .
132(6) . . .
118(6) . . .
129(6) . . .
123(6) . . .
135(6) . . .
136(6) . . .
125(6) . . .
126(6) . . .
121(6) . . .
110(6) . . .
113(6) . . .
125(6) . . .
128(6) . . .
128(6) . . .
134(6) . . .
131(6) . . .
127(6) . . .
112(6) . . .
114(6) . . .
122(6) . . .
124(6) . . .
123(6) . . .
131(6) . . .
138(6) . . .
136(6) . . .
119(6) . . .
134(6) . . .
132(6) . . .
121(6) . . .
125(6) . . .
124(6) . . .
128(6) . . .
123(6) . . .
122(6) . . .
122(6) . . .
128(6) . . .
114(6) . . .
122(6) . . .
140(6) . . .
122(6) . . .
133(6) . . .
121(6) . . .
112(6) . . .
122(6) . . .
121(6) . . .
126(6) . . .
128(6) . . .
118(6) . . .
116(6) . . .
113(6) . . .
120(6) . . .
121(6) . . .
110(5) . . .
119(6) . . .
133(6) . . .
133(6) . . .
118(6) . . .
135(6) . . .
117(6) . . .
132(6) . . .
128(6) . . .
129(6) . . .
122(6) . . .
112(6) . . .
125(6) . . .
129(6) . . .
140(6) . . .
123(6) . . .
116(6) . . .
112(6) . . .
125(6) . . .
116(6) . . .
123(6) . . .
118(6) . . .
116(6) . . .
128(6) . . .
115(6) . . .
118(6) . . .
122(6) . . .
119(6) . . .
145(7) . . .
125(6) . . .
111(5) . . .
115(6) . . .
113(6) . . .
120(6) . . .
124(6) . . .
121(6) . . .
114(6) . . .
128(6) . . .
132(6) . . .
111(6) . . .
131(6) . . .
137(6) . . .
115(6) . . .
119(6) . . .
115(6) . . .
121(6) . . .
126(6) . . .
127(6) . . .
120(6) . . .
125(6) . . .
136(6) . . .
131(6) . . .
125(6) . . .
126(6) . . .
118(6) . . .
122(6) . . .
123(6) . . .
122(6) . . .
135(6) . . .
113(6) . . .
113(6) . . .
116(6) . . .
124(6) . . .
116(6) . . .
127(6) . . .
124(6) . . .
121(6) . . .
127(6) . . .
129(6) . . .
116(6) . . .
116(6) . . .
124(6) . . .
124(6) . . .
139(6) . . .
124(6) . . .
129(6) . . .
123(6) . . .
131(6) . . .
124(6) . . .
125(6) . . .
121(6) . . .
126(6) . . .
106(5) . . .
133(6) . . .
116(6) . . .
132(6) . . .
120(6) . . .
112(6) . . .
122(6) . . .
123(6) . . .
137(6) . . .
139(7) . . .
134(6) . . .
118(6) . . .
116(6) . . .
123(6) . . .
124(6) . . .
134(6) . . .
121(6) . . .
121(6) . . .
129(6) . . .
125(6) . . .
125(6) . . .
135(6) . . .
131(6) . . .
125(6) . . .
128(6) . . .
110(6) . . .
110(5) . . .
120(6) . . .
130(6) . . .
138(7) . . .
114(6) . . .
126(6) . . .
120(6) . . .
131(6) . . .
113(6) . . .
126(6) . . .
140(6) . . .
116(6) . . .
116(6) . . .
128(6) . . .
127(6) . . .
116(6) . . .
119(6) . . .
128(6) . . .
139(7) . . .
123(6) . . .
130(6) . . .
125(6) . . .
111(6) . . .
116(6) . . .
114(6) . . .
121(6) . . .
122(6) . . .
122(6) . . .
111(6) . . .
119(6) . . .
130(6) . . .
117(6) . . .
122(6) . . .
134(6) . . .
115(6) . . .
123(6) . . .
122(6) . . .
131(7) . . .
119(6) . . .
122(6) . . .
129(6) . . .
121(6) . . .
128(6) . . .
130(6) . . .
151(6) . . .
125(6) . . .
131(6) . . .
115(6) . . .
136(6) . . .
144(6) . . .
130(6) . . .
124(6) . . .
120(6) . . .
123(6) . . .
116(6) . . .
119(6) . . .
115(6) . . .
133(6) . . .
133(6) . . .
112(6) . . .
135(6) . . .
113(6) . . .
119(6) . . .
114(6) . . .
117(6) . . .
110(6) . . .
114(6) . . .
110(6) . . .
124(6) . . .
117(6) . . .
122(6) . . .
140(7) . . .
115(6) . . .
121(6) . . .
113(6) . . .
116(6) . . .
127(6) . . .
110(6) . . .
125(6) . . .
122(6) . . .
133(6) . . .
132(6) . . .
120(6) . . .
125(6) . . .
131(6) . . .
125(6) . . .
121(6) . . .
132(6) . . .
128(6) . . .
128(6) . . .
116(6) . . .
121(6) . . .
134(6) . . .
122(6) . . .
116(6) . . .
130(6) . . .
118(6) . . .
134(6) . . .
108(5) . . .
116(6) . . .
128(6) . . .
143(7) . . .
149(7) . . .
131(6) . . .
128(6) . . .
122(6) . . .
138(6) . . .
123(6) . . .
108(5) . . .
124(6) . . .
109(6) . . .
121(6) . . .
120(6) . . .
122(6) . . .
126(6) . . .
119(6) . . .
108(6) . . .
102(5) . . .
109(5) . . .
104(6) . . .
119(6) . . .
119(6) . . .
101(5) . . .
120(6) . . .
112(6) . . .
122(6) . . .
138(6) . . .
129(6) . . .
126(6) . . .
120(6) . . .
97(5) . . .
104(5) . . .
110(5) . . .
119(6) . . .
107(5) . . .
120(6) . . .
126(6) . . .
113(6) . . .
118(6) . . .
120(6) . . .
123(6) . . .
114(6) . . .
111(5) . . .
107(5) . . .
122(6) . . .
124(6) . . .
132(6) . . .
119(6) . . .
116(6) . . .
111(6) . . .
127(6) . . .
132(6) . . .
125(6) . . .
132(6) . . .
132(6) . . .
121(6) . . .
107(6) . . .
122(6) . . .
114(6) . . .
116(6) . . .
123(6) . . .
120(6) . . .
122(6) . . .
131(6) . . .
128(6) . . .
133(6) . . .
128(6) . . .
122(6) . . .
130(6) . . .
121(6) . . .
123(6) . . .
117(6) . . .
128(6) . . .
116(6) . . .
119(6) . . .
133(6) . . .
119(6) . . .
126(6) . . .
129(6) . . .
136(6) . . .
135(6) . . .
121(6) . . .
119(6) . . .
117(6) . . .
128(6) . . .
135(6) . . .
127(6) . . .
110(5) . . .
133(6) . . .
106(6) . . .
120(6) . . .
120(6) . . .
108(6) . . .
103(5) . . .
115(6) . . .
129(6) . . .
122(6) . . .
134(6) . . .
129(6) . . .
138(7) . . .
107(5) . . .
104(5) . . .
129(6) . . .
123(6) . . .
127(6) . . .
120(6) . . .
112(6) . . .
113(5) . . .
133(6) . . .
118(6) . . .
111(6) . . .
112(5) . . .
122(6) . . .
127(6) . . .
114(6) . . .
107(6) . . .
130(6) . . .
122(6) . . .
124(6) . . .
120(6) . . .
142(6) . . .
125(6) . . .
111(6) . . .
121(6) . . .
118(6) . . .
119(6) . . .
121(6) . . .
117(6) . . .
117(6) . . .
117(6) . . .
118(6) . . .
114(6) . . .
127(6) . . .
120(6) . . .
139(6) . . .
131(6) . . .
118(6) . . .
122(6) . . .
121(6) . . .
122(6) . . .
136(6) . . .
129(6) . . .
112(6) . . .
124(6) . . .
139(6) . . .
134(6) . . .
142(6) . . .
138(6) . . .
121(6) . . .
119(6) . . .
115(6) . . .
135(6) . . .
123(6) . . .
125(6) . . .
119(6) . . .
133(6) . . .
126(6) . . .
118(6) . . .
118(6) . . .
126(6) . . .
121(6) . . .
138(6) . . .
125(6) . . .
108(6) . . .
129(6) . . .
129(6) . . .
131(6) . . .
124(6) . . .
130(6) . . .
139(6) . . .
124(6) . . .
128(6) . . .
124(6) . . .
128(6) . . .
134(6) . . .
115(6) . . .
125(6) . . .
146(7) . . .
130(6) . . .
129(6) . . .
119(6) . . .
130(6) . . .
133(6) . . .
134(6) . . .
127(6) . . .
126(6) . . .
117(6) . . .
131(6) . . .
113(6) . . .
127(6) . . .
137(6) . . .
131(6) . . .
117(6) . . .
119(6) . . .
133(6) . . .
116(6) . . .
125(6) . . .
125(6) . . .
123(6) . . .
112(6) . . .
118(6) . . .
124(6) . . .
134(6) . . .
127(6) . . .
129(6) . . .
130(6) . . .
118(6) . . .
122(6) . . .
131(6) . . .
131(6) . . .
123(6) . . .
112(6) . . .
124(6) . . .
107(6) . . .
120(6) . . .
129(6) . . .
125(6) . . .
129(6) . . .
138(6) . . .
136(6) . . .
118(6) . . .
127(6) . . .
124(6) . . .
126(6) . . .
127(6) . . .
114(6) . . .
110(6) . . .
137(6) . . .
129(6) . . .
115(6) . . .
118(6) . . .
139(7) . . .
135(6) . . .
137(6) . . .
128(6) . . .
126(6) . . .
131(6) . . .
127(6) . . .
118(6) . . .
137(6) . . .
137(6) . . .
124(6) . . .
118(6) . . .
127(6) . . .
126(6) . . .
123(6) . . .
116(6) . . .
138(6) . . .
132(6) . . .
120(6) . . .
113(6) . . .
126(6) . . .
117(6) . . .
127(6) . . .
121(6) . . .
135(6) . . .
149(7) . . .
149(6) . . .
125(6) . . .
130(6) . . .
125(6) . . .
117(6) . . .
129(6) . . .
130(6) . . .
131(6) . . .
125(6) . . .
124(6) . . .
136(6) . . .
128(6) . . .
125(6) . . .
117(6) . . .
130(6) . . .
129(6) . . .
127(6) . . .
144(7) . . .
132(6) . . .
153(7) . . .
128(6) . . .
137(6) . . .
130(6) . . .
130(6) . . .
129(6) . . .
138(6) . . .
140(6) . . .
126(6) . . .
122(6) . . .
126(6) . . .
124(6) . . .
130(6) . . .
132(6) . . .
123(6) . . .
139(6) . . .
119(6) . . .
124(6) . . .
142(6) . . .
147(7) . . .
132(6) . . .
141(6) . . .
118(6) . . .
115(6) . . .
131(6) . . .
133(6) . . .
133(6) . . .
136(6) . . .
120(6) . . .
130(6) . . .
126(6) . . .
122(6) . . .
130(6) . . .
135(6) . . .
125(6) . . .
131(6) . . .
138(6) . . .
142(7) . . .
138(7) . . .
121(6) . . .
131(6) . . .
126(6) . . .
134(6) . . .
123(6) . . .
144(7) . . .
133(6) . . .
136(6) . . .
131(6) . . .
141(7) . . .
132(6) . . .
121(6) . . .
127(6) . . .
128(6) . . .
110(6) . . .
131(6) . . .
126(6) . . .
139(6) . . .
132(6) . . .
138(7) . . .
144(7) . . .
127(6) . . .
128(6) . . .
153(7) . . .
133(6) . . .
142(6) . . .
125(6) . . .
123(6) . . .
133(6) . . .
138(7) . . .
110(6) . . .
148(6) . . .
128(6) . . .
145(7) . . .
138(7) . . .
130(6) . . .
137(6) . . .
140(6) . . .
124(6) . . .
149(7) . . .
121(6) . . .
133(6) . . .
118(6) . . .
121(6) . . .
142(7) . . .
130(6) . . .
117(6) . . .
130(6) . . .
157(7) . . .
136(6) . . .
139(6) . . .
121(6) . . .
125(6) . . .
132(6) . . .
127(6) . . .
141(6) . . .
144(6) . . .
133(6) . . .
128(6) . . .
125(6) . . .
135(6) . . .
124(6) . . .
130(6) . . .
130(6) . . .
124(6) . . .
123(6) . . .
120(6) . . .
133(6) . . .
137(7) . . .
136(6) . . .
126(6) . . .
132(6) . . .
138(6) . . .
124(6) . . .
107(5) . . .
128(6) . . .
145(6) . . .
125(6) . . .
131(6) . . .
136(6) . . .
124(6) . . .
138(6) . . .
138(6) . . .
137(6) . . .
121(6) . . .
121(6) . . .
136(6) . . .
128(6) . . .
123(6) . . .
134(6) . . .
113(6) . . .
143(6) . . .
133(6) . . .
125(6) . . .
123(6) . . .
128(6) . . .
130(6) . . .
135(6) . . .
117(6) . . .
129(6) . . .
137(6) . . .
124(6) . . .
124(6) . . .
134(6) . . .
120(6) . . .
136(6) . . .
140(6) . . .
142(7) . . .
122(6) . . .
118(6) . . .
117(6) . . .
124(6) . . .
127(6) . . .
137(6) . . .
128(6) . . .
134(6) . . .
118(6) . . .
143(6) . . .
141(6) . . .
146(6) . . .
135(6) . . .
133(6) . . .
121(6) . . .
131(6) . . .
132(6) . . .
121(6) . . .
145(7) . . .
123(6) . . .
116(6) . . .
131(6) . . .
115(6) . . .
126(6) . . .
139(7) . . .
129(6) . . .
108(5) . . .
105(5) . . .
133(6) . . .
139(7) . . .
129(6) . . .
115(6) . . .
129(6) . . .
140(7) . . .
125(6) . . .
124(6) . . .
127(6) . . .
133(6) . . .
128(6) . . .
111(6) . . .
122(6) . . .
120(6) . . .
130(6) . . .
136(6) . . .
137(6) . . .
136(6) . . .
141(6) . . .
130(6) . . .
139(6) . . .
121(6) . . .
131(6) . . .
134(6) . . .
127(6) . . .
135(7) . . .
116(6) . . .
142(6) . . .
129(6) . . .
136(6) . . .
128(6) . . .
124(6) . . .
126(6) . . .
140(6) . . .
127(6) . . .
138(7) . . .
133(6) . . .
134(6) . . .
133(6) . . .
141(6) . . .
142(7) . . .
129(6) . . .
124(6) . . .
123(6) . . .
142(6) . . .
124(6) . . .
126(6) . . .
116(6) . . .
130(6) . . .
130(6) . . .
137(6) . . .
130(6) . . .
123(6) . . .
124(6) . . .
129(6) . . .
119(6) . . .
131(6) . . .
114(6) . . .
106(5) . . .
122(6) . . .
126(6) . . .
132(6) . . .
131(6) . . .
104(5) . . .
117(6) . . .
127(6) . . .
138(6) . . .
117(6) . . .
109(6) . . .
119(6) . . .
113(6) . . .
120(6) . . .
132(6) . . .
124(6) . . .
130(6) . . .
136(6) . . .
136(6) . . .
119(6) . . .
130(6) . . .
129(6) . . .
132(6) . . .
128(6) . . .
143(6) . . .
124(6) . . .
127(6) . . .
119(6) . . .
134(6) . . .
118(6) . . .
130(6) . . .
127(6) . . .
116(6) . . .
126(6) . . .
124(6) . . .
123(6) . . .
119(6) . . .
134(6) . . .
128(6) . . .
123(6) . . .
129(6) . . .
122(6) . . .
114(6) . . .
124(6) . . .
140(6) . . .
121(6) . . .
115(6) . . .
123(6) . . .
119(6) . . .
113(6) . . .
121(6) . . .
119(6) . . .
125(6) . . .
126(6) . . .
128(6) . . .
134(6) . . .
131(6) . . .
124(6) . . .
129(6) . . .
128(6) . . .
127(6) . . .
109(5) . . .
145(6) . . .
124(6) . . .
108(6) . . .
125(6) . . .
124(6) . . .
123(6) . . .
119(6) . . .
132(6) . . .
118(6) . . .
131(6) . . .
126(6) . . .
129(6) . . .
120(6) . . .
128(6) . . .
161(7) . . .
139(6) . . .
137(6) . . .
133(6) . . .
125(6) . . .
146(7) . . .
127(6) . . .
131(6) . . .
133(6) . . .
119(6) . . .
125(6) . . .
148(6) . . .
125(6) . . .
129(6) . . .
125(6) . . .
113(6) . . .
126(6) . . .
114(6) . . .
111(6) . . .
113(6) . . .
134(6) . . .
126(6) . . .
122(6) . . .
143(7) . . .
135(6) . . .
150(7) . . .
109(5) . . .
124(6) . . .
130(6) . . .
117(6) . . .
115(6) . . .
136(6) . . .
114(6) . . .
115(6) . . .
122(6) . . .
130(6) . . .
137(6) . . .
138(6) . . .
129(6) . . .
126(6) . . .
124(6) . . .
131(6) . . .
146(7) . . .
131(6) . . .
125(6) . . .
137(6) . . .
145(6) . . .
109(6) . . .
121(6) . . .
121(6) . . .
131(6) . . .
116(6) . . .
123(6) . . .
119(6) . . .
126(6) . . .
116(6) . . .
135(6) . . .
110(6) . . .
137(7) . . .
132(6) . . .
115(6) . . .
130(6) . . .
125(6) . . .
134(6) . . .
141(6) . . .
111(6) . . .
113(6) . . .
108(6) . . .
142(7) . . .
116(6) . . .
123(6) . . .
114(6) . . .
132(6) . . .
132(6) . . .
127(6) . . .
140(6) . . .
116(6) . . .
121(6) . . .
123(6) . . .
132(6) . . .
136(6) . . .
130(6) . . .
121(6) . . .
116(6) . . .
122(6) . . .
117(6) . . .
135(6) . . .
129(6) . . .
128(6) . . .
137(6) . . .
124(6) . . .
117(6) . . .
125(6) . . .
119(6) . . .
122(6) . . .
123(6) . . .
129(6) . . .
141(7) . . .
109(6) . . .
121(6) . . .
136(6) . . .
130(6) . . .
138(7) . . .
130(6) . . .
122(6) . . .
135(6) . . .
115(6) . . .
127(6) . . .
136(6) . . .
124(6) . . .
104(5) . . .
134(6) . . .
137(7) . . .
119(6) . . .
121(6) . . .
138(6) . . .
138(6) . . .
131(6) . . .
124(6) . . .
130(6) . . .
134(6) . . .
127(6) . . .
129(6) . . .
137(6) . . .
111(5) . . .
125(6) . . .
138(6) . . .
117(6) . . .
117(6) . . .
133(6) . . .
137(6) . . .
136(6) . . .
135(6) . . .
110(6) . . .
118(6) . . .
136(6) . . .
139(6) . . .
130(6) . . .
128(6) . . .
109(5) . . .
127(6) . . .
123(6) . . .
122(6) . . .
131(6) . . .
119(6) . . .
142(6) . . .
126(6) . . .
126(6) . . .
130(6) . . .
129(6) . . .
112(6) . . .
125(6) . . .
138(6) . . .
121(6) . . .
107(5) . . .
108(5) . . .
129(7) . . .
127(6) . . .
129(6) . . .
119(6) . . .
150(7) . . .
145(7) . . .
117(6) . . .
120(6) . . .
114(6) . . .
130(6) . . .
125(6) . . .
133(6) . . .
140(6) . . .
124(6) . . .
115(6) . . .
111(6) . . .
129(6) . . .
132(6) . . .
112(6) . . .
124(6) . . .
125(6) . . .
128(6) . . .
137(6) . . .
139(6) . . .
116(6) . . .
149(7) . . .
132(6) . . .
122(6) . . .
135(6) . . .
119(6) . . .
117(6) . . .
130(6) . . .
131(6) . . .
124(6) . . .
117(6) . . .
114(6) . . .
123(6) . . .
126(6) . . .
121(6) . . .
125(6) . . .
119(6) . . .
113(5) . . .
146(6) . . .
121(6) . . .
140(7) . . .
131(6) . . .
116(6) . . .
132(6) . . .
119(6) . . .
129(6) . . .
116(6) . . .
127(6) . . .
118(6) . . .
123(6) . . .
122(6) . . .
121(6) . . .
128(6) . . .
136(6) . . .
148(7) . . .
134(6) . . .
125(6) . . .
120(6) . . .
132(6) . . .
116(6) . . .
140(7) . . .
126(6) . . .
132(6) . . .
114(6) . . .
114(6) . . .
122(6) . . .
132(6) . . .
120(6) . . .
111(6) . . .
128(6) . . .
124(6) . . .
134(6) . . .
126(6) . . .
138(6) . . .
128(6) . . .
119(6) . . .
115(6) . . .
120(6) . . .
128(6) . . .
133(6) . . .
142(6) . . .
133(6) . . .
118(6) . . .
132(6) . . .
142(7) . . .
117(6) . . .
116(6) . . .
130(6) . . .
114(6) . . .
121(6) . . .
120(6) . . .
150(6) . . .
119(6) . . .
121(6) . . .
105(6) . . .
125(6) . . .
122(6) . . .
122(6) . . .
127(6) . . .
117(6) . . .
121(6) . . .
129(6) . . .
126(6) . . .
121(6) . . .
123(6) . . .
122(6) . . .
112(5) . . .
119(6) . . .
129(6) . . .
113(6) . . .
117(6) . . .
118(6) . . .
140(6) . . .
112(6) . . .
120(6) . . .
112(6) . . .
126(6) . . .
121(6) . . .
118(6) . . .
128(6) . . .
115(6) . . .
115(6) . . .
112(6) . . .
128(6) . . .
127(6) . . .
126(6) . . .
128(6) . . .
114(6) . . .
120(6) . . .
123(6) . . .
133(6) . . .
125(6) . . .
118(6) . . .
128(7) . . .
113(6) . . .
113(6) . . .
106(5) . . .
115(6) . . .
118(6) . . .
131(6) . . .
123(6) . . .
106(5) . . .
117(6) . . .
116(6) . . .
122(6) . . .
118(6) . . .
140(6) . . .
126(6) . . .
117(6) . . .
112(6) . . .
137(6) . . .
142(6) . . .
134(6) . . .
97(5) . . .
110(6) . . .
120(6) . . .
127(6) . . .
135(6) . . .
146(7) . . .
126(6) . . .
126(6) . . .
115(6) . . .
123(6) . . .
116(6) . . .
129(6) . . .
136(6) . . .
145(6) . . .
132(6) . . .
113(6) . . .
125(6) . . .
118(6) . . .
119(6) . . .
121(6) . . .
105(6) . . .
142(6) . . .
124(6) . . .
126(6) . . .
121(6) . . .
117(6) . . .
116(6) . . .
124(6) . . .
118(6) . . .
113(6) . . .
125(6) . . .
121(6) . . .
116(6) . . .
127(6) . . .
133(6) . . .
115(6) . . .
119(6) . . .
120(6) . . .
148(7) . . .
142(7) . . .
132(6) . . .
127(6) . . .
131(6) . . .
131(6) . . .
106(6) . . .
123(6) . . .
130(6) . . .
131(6) . . .
131(6) . . .
125(6) . . .
116(6) . . .
136(6) . . .
126(6) . . .
124(6) . . .
119(6) . . .
119(6) . . .
119(6) . . .
118(6) . . .
120(6) . . .
124(6) . . .
123(6) . . .
123(6) . . .
132(6) . . .
141(6) . . .
120(6) . . .
131(6) . . .
125(6) . . .
132(6) . . .
127(6) . . .
121(6) . . .
119(6) . . .
133(6) . . .
123(6) . . .
116(6) . . .
116(6) . . .
117(6) . . .
126(6) . . .
121(6) . . .
119(6) . . .
114(6) . . .
134(6) . . .
120(6) . . .
125(6) . . .
126(6) . . .
120(6) . . .
133(6) . . .
142(6) . . .
112(6) . . .
114(6) . . .
116(6) . . .
114(6) . . .
119(6) . . .
114(6) . . .
120(6) . . .
127(6) . . .
118(6) . . .
135(6) . . .
124(6) . . .
129(6) . . .
123(6) . . .
136(6) . . .
123(6) . . .
116(6) . . .
128(6) . . .
124(6) . . .
132(6) . . .
118(6) . . .
129(6) . . .
126(6) . . .
135(6) . . .
126(6) . . .
117(6) . . .
135(6) . . .
108(5) . . .
121(6) . . .
118(6) . . .
123(6) . . .
110(6) . . .
119(6) . . .
132(6) . . .
119(6) . . .
119(6) . . .
132(6) . . .
120(6) . . .
111(6) . . .
126(6) . . .
127(6) . . .
135(7) . . .
131(6) . . .
131(6) . . .
115(6) . . .
131(6) . . .
115(6) . . .
123(6) . . .
123(6) . . .
128(6) . . .
114(6) . . .
113(6) . . .
110(5) . . .
113(6) . . .
118(6) . . .
131(6) . . .
126(6) . . .
131(6) . . .
124(6) . . .
124(6) . . .
129(6) . . .
130(6) . . .
119(6) . . .
131(6) . . .
122(6) . . .
138(6) . . .
137(6) . . .
132(6) . . .
132(6) . . .
119(6) . . .
108(6) . . .
127(6) . . .
114(6) . . .
128(6) . . .
113(6) . . .
126(6) . . .
119(6) . . .
123(6) . . .
115(6) . . .
125(6) . . .
135(6) . . .
120(6) . . .
114(6) . . .
118(6) . . .
125(6) . . .
114(6) . . .
137(7) . . .
134(6) . . .
121(6) . . .
115(6) . . .
114(6) . . .
108(5) . . .
137(6) . . .
126(6) . . .
117(6) . . .
119(6) . . .
124(6) . . .
108(5) . . .
113(5) . . .
118(6) . . .
117(6) . . .
128(6) . . .
125(6) . . .
116(6) . . .
118(6) . . .
126(6) . . .
120(6) . . .
117(6) . . .
122(6) . . .
109(6) . . .
127(6) . . .
125(6) . . .
114(6) . . .
135(6) . . .
149(7) . . .
118(6) . . .
128(6) . . .
128(6) . . .
123(6) . . .
128(6) . . .
129(6) . . .
115(6) . . .
124(6) . . .
126(6) . . .
139(6) . . .
132(6) . . .
110(6) . . .
123(6) . . .
134(6) . . .
120(6) . . .
117(6) . . .
118(6) . . .
128(6) . . .
126(6) . . .
119(6) . . .
135(6) . . .
112(6) . . .
104(5) . . .
110(6) . . .
121(6) . . .
119(6) . . .
123(6) . . .
125(6) . . .
112(6) . . .
121(6) . . .
128(6) . . .
125(6) . . .
132(6) . . .
111(6) . . .
119(6) . . .
132(6) . . .
120(6) . . .
118(6) . . .
134(6) . . .
127(6) . . .
124(6) . . .
126(6) . . .
128(6) . . .
134(6) . . .
113(6) . . .
135(6) . . .
129(6) . . .
122(6) . . .
117(6) . . .
122(6) . . .
146(6) . . .
131(6) . . .
138(6) . . .
123(6) . . .
122(6) . . .
127(6) . . .
130(6) . . .
138(6) . . .
122(6) . . .
127(6) . . .
132(6) . . .
106(5) . . .
109(6) . . .
119(6) . . .
112(6) . . .
105(5) . . .
124(6) . . .
118(6) . . .
120(6) . . .
111(6) . . .
131(6) . . .
126(6) . . .
110(6) . . .
107(5) . . .
119(6) . . .
126(6) . . .
114(6) . . .
131(6) . . .
115(6) . . .
120(6) . . .
113(6) . . .
126(6) . . .
114(6) . . .
132(6) . . .
114(6) . . .
132(6) . . .
110(5) . . .
112(6) . . .
124(6) . . .
123(6) . . .
112(6) . . .
123(6) . . .
127(6) . . .
126(6) . . .
118(6) . . .
136(6) . . .
124(6) . . .
135(6) . . .
127(6) . . .
123(6) . . .
118(6) . . .
113(6) . . .
124(6) . . .
125(6) . . .
118(6) . . .
120(6) . . .
118(6) . . .
129(6) . . .
110(5) . . .
112(6) . . .
121(6) . . .
107(5) . . .
113(6) . . .
123(6) . . .
122(6) . . .
126(6) . . .
125(6) . . .
113(6) . . .
117(6) . . .
105(5) . . .
116(6) . . .
127(6) . . .
116(6) . . .
111(6) . . .
132(6) . . .
131(6) . . .
122(6) . . .
111(6) . . .
117(6) . . .
131(6) . . .
134(6) . . .
132(6) . . .
120(6) . . .
126(6) . . .
103(5) . . .
137(6) . . .
114(6) . . .
133(7) . . .
125(6) . . .
122(6) . . .
121(6) . . .
126(6) . . .
133(6) . . .
127(6) . . .
132(6) . . .
115(6) . . .
117(6) . . .
118(6) . . .
134(6) . . .
128(6) . . .
111(5) . . .
121(6) . . .
134(6) . . .
116(6) . . .
116(6) . . .
138(6) . . .
123(6) . . .
117(6) . . .
119(6) . . .
113(6) . . .
127(6) . . .
129(6) . . .
110(6) . . .
119(6) . . .
130(6) . . .
135(6) . . .
133(6) . . .
128(6) . . .
118(6) . . .
115(6) . . .
127(6) . . .
126(6) . . .
122(6) . . .
128(6) . . .
139(6) . . .
125(6) . . .
114(6) . . .
132(6) . . .
122(6) . . .
138(6) . . .
115(6) . . .
137(7) . . .
122(6) . . .
115(6) . . .
127(6) . . .
108(6) . . .
112(6) . . .
117(6) . . .
136(6) . . .
121(6) . . .
129(6) . . .
129(6) . . .
132(6) . . .
136(6) . . .
117(6) . . .
118(6) . . .
127(6) . . .
117(6) . . .
123(6) . . .
130(6) . . .
116(6) . . .
124(6) . . .
125(6) . . .
123(6) . . .
130(6) . . .
106(5) . . .
120(6) . . .
136(6) . . .
123(6) . . .
121(6) . . .
127(6) . . .
118(6) . . .
134(6) . . .
132(6) . . .
117(6) . . .
127(6) . . .
117(6) . . .
118(6) . . .
117(6) . . .
111(6) . . .
121(6) . . .
120(6) . . .
109(6) . . .
133(6) . . .
125(6) . . .
133(6) . . .
123(6) . . .
112(5) . . .
131(6) . . .
132(6) . . .
131(6) . . .
134(6) . . .
128(6) . . .
111(5) . . .
123(6) . . .
126(6) . . .
123(6) . . .
121(6) . . .
116(6) . . .
126(6) . . .
109(6) . . .
114(6) . . .
128(6) . . .
133(6) . . .
117(6) . . .
139(7) . . .
122(6) . . .
122(6) . . .
120(6) . . .
120(6) . . .
115(6) . . .
124(6) . . .
128(6) . . .
117(6) . . .
111(5) . . .
104(5) . . .
127(6) . . .
131(6) . . .
132(6) . . .
124(6) . . .
119(6) . . .
121(6) . . .
123(6) . . .
110(5) . . .
116(6) . . .
137(7) . . .
125(6) . . .
122(6) . . .
117(6) . . .
128(6) . . .
145(7) . . .
141(6) . . .
118(6) . . .
113(6) . . .
126(6) . . .
106(5) . . .
116(6) . . .
115(6) . . .
124(6) . . .
121(6) . . .
123(6) . . .
107(5) . . .
108(5) . . .
122(6) . . .
116(6) . . .
116(6) . . .
126(6) . . .
135(6) . . .
119(6) . . .
122(6) . . .
132(6) . . .
117(6) . . .
106(5) . . .
108(5) . . .
122(6) . . .
138(6) . . .
122(6) . . .
125(6) . . .
117(6) . . .
128(6) . . .
124(6) . . .
114(6) . . .
118(6) . . .
107(6) . . .
117(6) . . .
113(6) . . .
113(6) . . .
122(6) . . .
115(6) . . .
116(6) . . .
121(6) . . .
119(6) . . .
122(6) . . .
122(6) . . .
108(6) . . .
112(6) . . .
144(6) . . .
115(6) . . .
116(6) . . .
129(6) . . .
109(5) . . .
99(5) . . .
110(5) . . .
129(6) . . .
146(7) . . .
123(6) . . .
119(6) . . .
127(6) . . .
110(6) . . .
125(6) . . .
129(6) . . .
120(6) . . .
116(6) . . .
132(6) . . .
124(6) . . .
125(6) . . .
126(6) . . .
138(7) . . .
114(6) . . .
125(6) . . .
123(6) . . .
114(6) . . .
120(6) . . .
126(6) . . .
126(6) . . .
138(6) . . .
132(6) . . .
130(6) . . .
112(6) . . .
126(6) . . .
122(6) . . .
130(6) . . .
115(6) . . .
117(6) . . .
137(6) . . .
130(6) . . .
120(6) . . .
111(6) . . .
121(6) . . .
128(6) . . .
121(6) . . .
116(6) . . .
115(6) . . .
105(6) . . .
122(6) . . .
121(6) . . .
123(6) . . .
128(6) . . .
127(6) . . .
132(6) . . .
137(6) . . .
128(6) . . .
137(6) . . .
123(6) . . .
136(6) . . .
124(6) . . .
115(6) . . .
116(6) . . .
120(6) . . .
132(6) . . .
122(6) . . .
119(6) . . .
115(6) . . .
122(6) . . .
133(6) . . .
129(6) . . .
115(6) . . .
127(6) . . .
133(6) . . .
128(6) . . .
121(6) . . .
125(6) . . .
125(6) . . .
132(6) . . .
115(6) . . .
114(6) . . .
115(6) . . .
110(6) . . .
119(6) . . .
126(6) . . .
118(6) . . .
135(6) . . .
128(6) . . .
125(6) . . .
116(6) . . .
127(6) . . .
121(6) . . .
116(6) . . .
106(5) . . .
99(5) . . .
116(6) . . .
124(6) . . .
121(6) . . .
114(6) . . .
113(5) . . .
117(6) . . .
106(5) . . .
107(5) . . .
118(6) . . .
129(6) . . .
117(6) . . .
126(6) . . .
122(6) . . .
124(6) . . .
121(6) . . .
124(6) . . .
124(6) . . .
138(6) . . .
119(6) . . .
133(6) . . .
117(6) . . .
129(6) . . .
127(6) . . .
120(6) . . .
123(6) . . .
120(6) . . .
126(6) . . .
125(6) . . .
127(6) . . .
121(6) . . .
123(6) . . .
114(6) . . .
114(6) . . .
127(6) . . .
117(6) . . .
123(6) . . .
140(7) . . .
134(6) . . .
125(6) . . .
126(6) . . .
113(6) . . .
116(6) . . .
117(6) . . .
118(6) . . .
108(5) . . .
127(6) . . .
112(6) . . .
106(6) . . .
105(5) . . .
109(6) . . .
113(6) . . .
120(6) . . .
111(6) . . .
123(6) . . .
112(5) . . .
132(6) . . .
127(6) . . .
131(6) . . .
110(5) . . .
123(6) . . .
116(6) . . .
123(6) . . .
120(6) . . .
122(6) . . .
124(6) . . .
119(6) . . .
119(6) . . .
118(6) . . .
111(5) . . .
114(6) . . .
114(6) . . .
118(6) . . .
110(5) . . .
132(6) . . .
125(6) . . .
112(6) . . .
109(6) . . .
110(5) . . .
129(6) . . .
129(6) . . .
128(7) . . .
118(6) . . .
131(6) . . .
115(6) . . .
123(6) . . .
114(6) . . .
127(6) . . .
125(6) . . .
115(6) . . .
119(6) . . .
122(6) . . .
129(6) . . .
118(6) . . .
101(5) . . .
113(6) . . .
119(6) . . .
130(6) . . .
146(6) . . .
135(6) . . .
117(6) . . .
134(7) . . .
111(6) . . .
114(6) . . .
122(6) . . .
136(6) . . .
118(6) . . .
120(6) . . .
131(6) . . .
140(6) . . .
134(6) . . .
137(7) . . .
118(6) . . .
124(6) . . .
113(6) . . .
106(6) . . .
120(6) . . .
128(6) . . .
130(6) . . .
126(6) . . .
102(5) . . .
109(6) . . .
121(6) . . .
131(6) . . .
119(6) . . .
109(6) . . .
138(6) . . .
129(6) . . .
127(6) . . .
128(6) . . .
112(6) . . .
129(6) . . .
116(6) . . .
115(6) . . .
138(6) . . .
130(6) . . .
110(5) . . .
130(6) . . .
122(6) . . .
125(6) . . .
124(6) . . .
129(6) . . .
105(5) . . .
117(6) . . .
115(6) . . .
135(7) . . .
123(6) . . .
127(6) . . .
109(5) . . .
119(6) . . .
104(6) . . .
129(6) . . .
125(6) . . .
111(6) . . .
130(6) . . .
129(6) . . .
124(6) . . .
118(6) . . .
124(6) . . .
129(6) . . .
113(6) . . .
110(6) . . .
123(6) . . .
117(6) . . .
126(6) . . .
134(7) . . .
120(6) . . .
122(6) . . .
118(6) . . .
142(7) . . .
127(6) . . .
103(5) . . .
116(6) . . .
122(6) . . .
122(6) . . .
119(6) . . .
123(6) . . .
106(5) . . .
104(5) . . .
120(6) . . .
115(6) . . .
120(6) . . .
121(6) . . .
125(6) . . .
121(6) . . .
121(6) . . .
111(5) . . .
109(5) . . .
121(6) . . .
117(6) . . .
119(6) . . .
122(6) . . .
114(6) . . .
121(6) . . .
110(6) . . .
130(6) . . .
130(6) . . .
110(5) . . .
103(6) . . .
99(6) . . .
107(6) . . .
125(6) . . .
117(6) . . .
119(6) . . .
120(6) . . .
120(6) . . .
122(6) . . .
107(5) . . .
120(6) . . .
117(6) . . .
134(6) . . .
128(6) . . .
134(6) . . .
111(6) . . .
117(6) . . .
127(6) . . .
126(6) . . .
106(5) . . .
119(6) . . .
105(5) . . .
129(6) . . .
123(6) . . .
118(6) . . .
118(6) . . .
117(6) . . .
119(6) . . .
116(6) . . .
124(6) . . .
123(6) . . .
120(6) . . .
124(6) . . .
108(5) . . .
119(6) . . .
116(6) . . .
119(6) . . .
121(6) . . .
106(5) . . .
107(6) . . .
122(6) . . .
118(6) . . .
117(6) . . .
123(6) . . .
128(6) . . .
127(7) . . .
116(6) . . .
117(6) . . .
104(5) . . .
120(6) . . .
110(6) . . .
128(6) . . .
100(5) . . .
100(5) . . .
133(6) . . .
121(6) . . .
117(6) . . .
120(6) . . .
121(6) . . .
120(6) . . .
121(6) . . .
116(6) . . .
112(5) . . .
120(6) . . .
109(5) . . .
113(6) . . .
115(6) . . .
108(5) . . .
113(6) . . .
115(6) . . .
109(6) . . .
125(6) . . .
115(6) . . .
117(6) . . .
120(6) . . .
115(6) . . .
125(6) . . .
113(6) . . .
111(6) . . .
114(6) . . .
107(6) . . .
102(5) . . .
120(6) . . .
124(6) . . .
123(6) . . .
118(6) . . .
130(6) . . .
122(6) . . .
108(5) . . .
94(5) . . .
116(6) . . .
116(6) . . .
110(5) . . .
119(6) . . .
115(6) . . .
106(5) . . .
113(6) . . .
115(6) . . .
118(6) . . .
128(6) . . .
125(6) . . .
129(6) . . .
111(6) . . .
113(6) . . .
113(6) . . .
105(5) . . .
132(6) . . .
111(6) . . .
109(5) . . .
122(6) . . .
133(6) . . .
123(6) . . .
96(5) . . .
112(6) . . .
114(6) . . .
105(6) . . .
112(6) . . .
112(6) . . .
114(6) . . .
122(6) . . .
129(6) . . .
122(6) . . .
134(6) . . .
129(6) . . .
130(6) . . .
118(6) . . .
118(6) . . .
128(6) . . .
119(6) . . .
121(6) . . .
121(6) . . .
109(5) . . .
112(6) . . .
127(6) . . .
105(5) . . .
110(5) . . .
126(6) . . .
116(6) . . .
125(6) . . .
129(6) . . .
118(6) . . .
120(6) . . .
131(6) . . .
115(6) . . .
99(5) . . .
112(5) . . .
114(6) . . .
116(6) . . .
128(6) . . .
121(6) . . .
121(6) . . .
126(6) . . .
121(6) . . .
125(6) . . .
123(6) . . .
104(5) . . .
116(6) . . .
112(6) . . .
104(5) . . .
106(6) . . .
103(5) . . .
110(5) . . .
107(6) . . .
124(6) . . .
109(6) . . .
113(6) . . .
111(6) . . .
126(6) . . .
126(6) . . .
109(5) . . .
116(6) . . .
109(5) . . .
132(6) . . .
124(6) . . .
100(5) . . .
101(5) . . .
105(6) . . .
116(6) . . .
121(6) . . .
99(5) . . .
122(6) . . .
116(6) . . .
130(6) . . .
114(6) . . .
105(5) . . .
108(5) . . .
116(6) . . .
110(6) . . .
113(6) . . .
121(6) . . .
98(5) . . .
114(6) . . .
119(6) . . .
110(6) . . .
110(5) . . .
108(5) . . .
115(6) . . .
111(6) . . .
118(6) . . .
123(6) . . .
114(6) . . .
107(6) . . .
103(6) . . .
111(6) . . .
116(6) . . .
101(5) . . .
111(6) . . .
123(6) . . .
108(6) . . .
105(5) . . .
117(6) . . .
117(6) . . .
117(6) . . .
110(6) . . .
105(5) . . .
122(6) . . .
121(6) . . .
108(6) . . .
109(6) . . .
120(6) . . .
119(6) . . .
128(6) . . .
115(6) . . .
130(6) . . .
127(6) . . .
127(6) . . .
112(6) . . .
127(6) . . .
122(6) . . .
119(6) . . .
103(5) . . .
106(6) . . .
123(6) . . .
118(6) . . .
120(6) . . .
97(5) . . .
99(6) . . .
119(6) . . .
116(6) . . .
107(5) . . .
118(6) . . .
100(5) . . .
128(6) . . .
122(6) . . .
111(6) . . .
106(5) . . .
117(6) . . .
114(6) . . .
118(6) . . .
121(6) . . .
121(6) . . .
118(6) . . .
117(6) . . .
113(6) . . .
112(6) . . .
108(5) . . .
120(6) . . .
117(6) . . .
118(6) . . .
107(6) . . .
100(5) . . .
108(6) . . .
116(6) . . .
129(6) . . .
103(5) . . .
117(6) . . .
103(5) . . .
116(6) . . .
121(6) . . .
118(6) . . .
107(6) . . .
99(5) . . .
102(5) . . .
121(6) . . .
123(6) . . .
111(6) . . .
106(5) . . .
112(6) . . .
114(6) . . .
98(5) . . .
111(6) . . .
115(6) . . .
125(6) . . .
99(5) . . .
128(6) . . .
119(6) . . .
116(6) . . .
113(6) . . .
112(5) . . .
114(6) . . .
106(6) . . .
112(6) . . .
112(5) . . .
104(5) . . .
93(5) . . .
115(6) . . .
118(6) . . .
121(6) . . .
121(6) . . .
106(5) . . .
115(6) . . .
120(6) . . .
116(6) . . .
112(5) . . .
126(6) . . .
112(6) . . .
116(6) . . .
110(5) . . .
111(5) . . .
111(6) . . .
130(6) . . .
121(6) . . .
119(6) . . .
107(5) . . .
108(6) . . .
116(6) . . .
119(6) . . .
102(5) . . .
109(5) . . .
116(6) . . .
100(5) . . .
119(6) . . .
125(6) . . .
109(6) . . .
112(6) . . .
113(6) . . .
121(6) . . .
128(6) . . .
121(6) . . .
105(6) . . .
103(5) . . .
114(6) . . .
117(6) . . .
132(6) . . .
111(6) . . .
115(6) . . .
131(6) . . .
123(6) . . .
103(5) . . .
112(6) . . .
109(6) . . .
111(6) . . .
111(5) . . .
101(5) . . .
125(6) . . .
127(6) . . .
105(5) . . .
118(6) . . .
99(5) . . .
111(6) . . .
117(6) . . .
100(5) . . .
116(6) . . .
126(6) . . .
119(6) . . .
119(6) . . .
117(6) . . .
114(6) . . .
110(6) . . .
110(6) . . .
121(6) . . .
111(5) . . .
101(5) . . .
104(5) . . .
104(6) . . .
114(6) . . .
110(5) . . .
99(5) . . .
100(5) . . .
98(5) . . .
112(6) . . .
119(6) . . .
105(5) . . .
113(6) . . .
106(5) . . .
108(5) . . .
108(5) . . .
109(6) . . .
109(6) . . .
108(5) . . .
112(6) . . .
109(5) . . .
104(6) . . .
113(6) . . .
115(6) . . .
113(6) . . .
115(6) . . .
99(5) . . .
103(5) . . .
113(6) . . .
114(6) . . .
124(6) . . .
113(6) . . .
108(6) . . .
113(6) . . .
117(6) . . .
115(6) . . .
111(6) . . .
119(6) . . .
121(6) . . .
105(5) . . .
123(6) . . .
118(6) . . .
123(6) . . .
126(6) . . .
129(6) . . .
111(5) . . .
120(6) . . .
110(6) . . .
119(6) . . .
119(6) . . .
105(5) . . .
113(6) . . .
117(6) . . .
110(6) . . .
117(6) . . .
101(5) . . .
95(5) . . .
109(6) . . .
133(6) . . .
126(6) . . .
107(5) . . .
114(6) . . .
121(6) . . .
100(5) . . .
108(5) . . .
107(6) . . .
109(6) . . .
103(5) . . .
110(6) . . .
109(5) . . .
103(5) . . .
110(6) . . .
103(5) . . .
107(5) . . .
115(6) . . .
111(6) . . .
112(6) . . .
112(6) . . .
102(5) . . .
116(6) . . .
96(5) . . .
112(6) . . .
107(6) . . .
119(6) . . .
120(6) . . .
98(5) . . .
105(6) . . .
108(6) . . .
102(5) . . .
124(6) . . .
148(7) . . .
118(6) . . .
112(6) . . .
109(5) . . .
108(5) . . .
110(6) . . .
102(5) . . .
120(6) . . .
98(5) . . .
110(6) . . .
110(6) . . .
125(6) . . .
115(6) . . .
104(5) . . .
120(6) . . .
115(6) . . .
113(6) . . .
118(6) . . .
122(6) . . .
125(6) . . .
114(6) . . .
118(6) . . .
107(6) . . .
114(6) . . .
120(6) . . .
117(6) . . .
119(6) . . .
122(6) . . .
114(6) . . .
115(6) . . .
117(6) . . .
113(6) . . .
121(6) . . .
119(6) . . .
115(6) . . .
110(6) . . .
111(6) . . .
115(6) . . .
101(5) . . .
114(6) . . .
120(6) . . .
103(5) . . .
115(6) . . .
107(5) . . .
100(6) . . .
101(6) . . .
102(6) . . .
108(5) . . .
119(6) . . .
108(5) . . .
116(6) . . .
119(6) . . .
122(6) . . .
107(5) . . .
123(6) . . .
116(6) . . .
98(5) . . .
120(6) . . .
98(5) . . .
112(6) . . .
124(6) . . .
120(6) . . .
118(6) . . .
113(6) . . .
110(5) . . .
114(6) . . .
125(6) . . .
117(6) . . .
127(6) . . .
117(6) . . .
126(6) . . .
125(6) . . .
109(5) . . .
116(6) . . .
110(6) . . .
110(6) . . .
126(6) . . .
112(6) . . .
106(6) . . .
113(6) . . .
126(6) . . .
111(5) . . .
98(5) . . .
114(6) . . .
97(5) . . .
108(6) . . .
112(5) . . .
116(6) . . .
107(6) . . .
112(6) . . .
102(5) . . .
106(5) . . .
110(5) . . .
107(5) . . .
121(6) . . .
114(6) . . .
112(5) . . .
111(6) . . .
106(6) . . .
98(6) . . .
114(6) . . .
109(5) . . .
120(6) . . .
122(6) . . .
113(6) . . .
112(6) . . .
114(5) . . .
130(6) . . .
129(6) . . .
110(6) . . .
123(6) . . .
105(5) . . .
102(5) . . .
112(6) . . .
109(6) . . .
114(6) . . .
118(6) . . .
137(6) . . .
119(6) . . .
110(6) . . .
124(6) . . .
114(6) . . .
105(5) . . .
119(6) . . .
102(5) . . .
111(6) . . .
105(5) . . .
109(6) . . .
119(6) . . .
117(6) . . .
118(6) . . .
119(6) . . .
106(5) . . .
105(6) . . .
114(6) . . .
124(6) . . .
122(6) . . .
127(6) . . .
124(6) . . .
125(6) . . .
124(6) . . .
130(6) . . .
119(6) . . .
118(6) . . .
115(6) . . .
120(6) . . .
116(6) . . .
110(6) . . .
114(6) . . .
104(5) . . .
137(6) . . .
126(6) . . .
119(6) . . .
106(6) . . .
116(6) . . .
114(6) . . .
102(5) . . .
117(6) . . .
110(6) . . .
104(6) . . .
115(6) . . .
106(5) . . .
107(6) . . .
109(6) . . .
116(6) . . .
98(5) . . .
122(6) . . .
112(6) . . .
115(6) . . .
111(6) . . .
112(6) . . .
128(6) . . .
118(6) . . .
107(6) . . .
114(6) . . .
128(6) . . .
111(6) . . .
114(6) . . .
115(6) . . .
109(6) . . .
123(6) . . .
117(6) . . .
112(6) . . .
118(6) . . .
119(6) . . .
96(5) . . .
116(6) . . .
125(6) . . .
127(6) . . .
113(6) . . .
125(6) . . .
114(6) . . .
131(7) . . .
126(6) . . .
119(6) . . .
119(6) . . .
114(6) . . .
108(6) . . .
112(6) . . .
111(5) . . .
122(6) . . .
116(6) . . .
115(6) . . .
106(5) . . .
117(6) . . .
114(6) . . .
109(6) . . .
106(6) . . .
111(6) . . .
116(6) . . .
111(6) . . .
128(6) . . .
110(6) . . .
96(5) . . .
100(5) . . .
105(5) . . .
109(6) . . .
116(6) . . .
112(6) . . .
122(6) . . .
116(6) . . .
108(6) . . .
102(5) . . .
119(6) . . .
112(5) . . .
119(6) . . .
96(5) . . .
115(6) . . .
121(6) . . .
118(6) . . .
110(6) . . .
121(6) . . .
109(6) . . .
111(6) . . .
109(5) . . .
117(6) . . .
100(5) . . .
113(6) . . .
121(6) . . .
105(5) . . .
114(6) . . .
114(6) . . .
127(6) . . .
114(6) . . .
111(6) . . .
105(6) . . .
114(6) . . .
111(6) . . .
114(6) . . .
99(5) . . .
90(5) . . .
112(6) . . .
105(5) . . .
109(5) . . .
125(6) . . .
114(6) . . .
108(6) . . .
116(6) . . .
97(5) . . .
108(5) . . .
103(5) . . .
91(5) . . .
116(6) . . .
112(6) . . .
108(5) . . .
112(6) . . .
108(6) . . .
110(6) . . .
119(6) . . .
116(6) . . .
122(6) . . .
111(6) . . .
118(6) . . .
117(6) . . .
99(5) . . .
111(6) . . .
108(6) . . .
101(5) . . .
123(6) . . .
110(6) . . .
121(6) . . .
106(5) . . .
110(5) . . .
99(5) . . .
105(6) . . .
113(6) . . .
118(6) . . .
116(6) . . .
118(6) . . .
114(6) . . .
111(6) . . .
114(6) . . .
87(5) . . .
113(5) . . .
123(6) . . .
117(6) . . .
110(6) . . .
112(5) . . .
117(6) . . .
110(6) . . .
121(6) . . .
106(5) . . .
116(6) . . .
109(5) . . .
107(6) . . .
115(6) . . .
105(5) . . .
114(6) . . .
118(6) . . .
114(6) . . .
101(5) . . .
108(6) . . .
94(5) . . .
106(6) . . .
114(6) . . .
112(6) . . .
102(5) . . .
97(5) . . .
118(6) . . .
117(6) . . .
114(6) . . .
110(6) . . .
122(6) . . .
106(5) . . .
101(5) . . .
98(5) . . .
110(6) . . .
100(5) . . .
111(6) . . .
110(6) . . .
114(6) . . .
112(6) . . .
115(6) . . .
106(6) . . .
97(5) . . .
99(5) . . .
111(5) . . .
126(6) . . .
114(6) . . .
113(6) . . .
118(6) . . .
119(6) . . .
98(5) . . .
104(6) . . .
100(6) . . .
96(5) . . .
109(5) . . .
109(5) . . .
97(5) . . .
116(6) . . .
112(6) . . .
105(5) . . .
113(5) . . .
115(6) . . .
91(5) . . .
117(6) . . .
107(5) . . .
100(5) . . .
114(6) . . .
109(6) . . .
109(6) . . .
119(6) . . .
124(6) . . .
116(6) . . .
126(6) . . .
112(6) . . .
114(6) . . .
97(5) . . .
107(6) . . .
106(5) . . .
103(5) . . .
119(6) . . .
138(6) . . .
107(6) . . .
101(5) . . .
108(6) . . .
116(6) . . .
114(6) . . .
119(6) . . .
118(6) . . .
109(5) . . .
107(5) . . .
99(6) . . .
115(6) . . .
123(6) . . .
108(5) . . .
105(5) . . .
101(5) . . .
110(6) . . .
110(6) . . .
120(6) . . .
108(5) . . .
112(6) . . .
108(6) . . .
111(6) . . .
116(6) . . .
117(6) . . .
105(5) . . .
109(6) . . .
114(6) . . .
111(5) . . .
105(5) . . .
115(6) . . .
104(6) . . .
110(6) . . .
101(5) . . .
105(5) . . .
98(5) . . .
106(6) . . .
103(5) . . .
101(5) . . .
94(5) . . .
120(6) . . .
116(6) . . .
108(6) . . .
113(5) . . .
110(5) . . .
115(6) . . .
123(6) . . .
97(5) . . .
105(5) . . .
109(6) . . .
96(5) . . .
119(6) . . .
108(5) . . .
93(5) . . .
108(5) . . .
121(6) . . .
116(6) . . .
112(6) . . .
119(6) . . .
110(6) . . .
113(6) . . .
92(5) . . .
107(5) . . .
96(5) . . .
107(5) . . .
121(6) . . .
116(6) . . .
104(5) . . .
92(5) . . .
91(5) . . .
112(6) . . .
106(6) . . .
105(5) . . .
97(5) . . .
88(5) . . .
114(6) . . .
114(6) . . .
102(5) . . .
100(5) . . .
108(6) . . .
114(6) . . .
126(6) . . .
112(5) . . .
106(5) . . .
108(6) . . .
105(5) . . .
103(5) . . .
107(5) . . .
114(5) . . .
104(5) . . .
108(6) . . .
107(6) . . .
124(6) . . .
95(5) . . .
103(6) . . .
96(5) . . .
110(6) . . .
117(6) . . .
119(6) . . .
120(6) . . .
109(6) . . .
111(6) . . .
118(6) . . .
107(5) . . .
117(6) . . .
102(5) . . .
101(5) . . .
103(5) . . .
110(6) . . .
118(6) . . .
110(6) . . .
116(6) . . .
112(5) . . .
116(6) . . .
100(6) . . .
107(6) . . .
100(5) . . .
96(5) . . .
94(5) . . .
114(6) . . .
102(5) . . .
113(6) . . .
109(5) . . .
109(6) . . .
109(6) . . .
103(5) . . .
107(5) . . .
99(5) . . .
106(5) . . .
119(6) . . .
98(5) . . .
103(5) . . .
101(5) . . .
107(5) . . .
113(6) . . .
107(6) . . .
122(6) . . .
113(6) . . .
108(5) . . .
103(5) . . .
100(5) . . .
119(6) . . .
103(5) . . .
109(6) . . .
119(6) . . .
111(6) . . .
92(5) . . .
101(5) . . .
107(6) . . .
119(6) . . .
107(5) . . .
111(5) . . .
111(6) . . .
115(6) . . .
110(6) . . .
127(6) . . .
133(6) . . .
110(6) . . .
112(6) . . .
112(6) . . .
117(6) . . .
104(5) . . .
96(5) . . .
101(5) . . .
110(6) . . .
121(6) . . .
108(5) . . .
121(6) . . .
117(6) . . .
109(6) . . .
105(5) . . .
107(5) . . .
107(5) . . .
109(6) . . .
97(5) . . .
109(5) . . .
104(5) . . .
101(5) . . .
108(6) . . .
115(6) . . .
108(5) . . .
103(5) . . .
109(6) . . .
109(6) . . .
105(5) . . .
108(5) . . .
106(5) . . .
114(6) . . .
115(6) . . .
116(6) . . .
107(5) . . .
100(5) . . .
105(5) . . .
96(5) . . .
102(5) . . .
101(5) . . .
115(6) . . .
104(6) . . .
100(5) . . .
115(6) . . .
103(5) . . .
99(5) . . .
110(6) . . .
97(5) . . .
118(6) . . .
109(5) . . .
114(6) . . .
106(6) . . .
104(5) . . .
96(5) . . .
113(6) . . .
108(6) . . .
114(6) . . .
102(5) . . .
107(5) . . .
118(6) . . .
103(5) . . .
108(6) . . .
97(5) . . .
94(5) . . .
104(5) . . .
107(5) . . .
101(5) . . .
117(6) . . .
104(5) . . .
108(5) . . .
106(5) . . .
101(6) . . .
103(5) . . .
108(5) . . .
112(6) . . .
110(6) . . .
100(6) . . .
99(5) . . .
113(6) . . .
108(5) . . .
113(6) . . .
104(5) . . .
103(5) . . .
116(6) . . .
107(5) . . .
118(6) . . .
106(6) . . .
99(5) . . .
120(6) . . .
100(5) . . .
112(6) . . .
103(6) . . .
100(5) . . .
134(6) . . .
102(5) . . .
113(6) . . .
117(6) . . .
108(6) . . .
112(5) . . .
116(6) . . .
110(6) . . .
98(5) . . .
98(5) . . .
101(5) . . .
111(6) . . .
105(6) . . .
96(5) . . .
116(6) . . .
110(5) . . .
111(6) . . .
110(6) . . .
91(5) . . .
100(5) . . .
111(6) . . .
119(6) . . .
116(6) . . .
113(6) . . .
103(5) . . .
122(6) . . .
112(6) . . .
121(6) . . .
104(5) . . .
107(5) . . .
99(5) . . .
104(5) . . .
115(6) . . .
107(6) . . .
98(5) . . .
105(5) . . .
107(5) . . .
109(6) . . .
116(6) . . .
101(5) . . .
105(5) . . .
97(5) . . .
103(6) . . .
114(6) . . .
126(6) . . .
124(6) . . .
103(5) . . .
114(6) . . .
104(5) . . .
102(5) . . .
116(6) . . .
98(5) . . .
92(5) . . .
107(6) . . .
103(5) . . .
102(5) . . .
106(5) . . .
111(6) . . .
90(5) . . .
108(5) . . .
109(6) . . .
97(5) . . .
105(5) . . .
106(5) . . .
118(6) . . .
108(6) . . .
122(6) . . .
113(6) . . .
102(5) . . .
112(6) . . .
124(6) . . .
101(5) . . .
104(6) . . .
112(6) . . .
99(5) . . .
110(6) . . .
101(6) . . .
106(6) . . .
100(5) . . .
106(5) . . .
106(5) . . .
116(6) . . .
119(6) . . .
92(5) . . .
108(5) . . .
97(5) . . .
114(6) . . .
119(6) . . .
114(6) . . .
118(6) . . .
104(6) . . .
103(6) . . .
84(5) . . .
107(5) . . .
111(6) . . .
109(6) . . .
101(5) . . .
98(5) . . .
103(5) . . .
121(6) . . .
108(5) . . .
97(5) . . .
119(6) . . .
110(5) . . .
107(6) . . .
92(5) . . .
95(5) . . .
100(5) . . .
110(5) . . .
124(6) . . .
109(6) . . .
103(5) . . .
120(6) . . .
112(6) . . .
101(5) . . .
98(5) . . .
107(6) . . .
113(6) . . .
101(5) . . .
113(6) . . .
112(6) . . .
102(5) . . .
110(5) . . .
106(5) . . .
101(5) . . .
114(6) . . .
94(5) . . .
103(5) . . .
101(5) . . .
103(6) . . .
102(6) . . .
107(6) . . .
95(5) . . .
106(5) . . .
101(5) . . .
101(6) . . .
111(6) . . .
104(5) . . .
98(5) . . .
82(5) . . .
106(6) . . .
104(6) . . .
96(5) . . .
100(5) . . .
100(5) . . .
109(6) . . .
105(5) . . .
113(5) . . .
103(5) . . .
87(5) . . .
108(6) . . .
118(6) . . .
116(6) . . .
100(5) . . .
107(6) . . .
99(5) . . .
94(5) . . .
100(5) . . .
100(5) . . .
116(6) . . .
106(6) . . .
100(5) . . .
108(5) . . .
83(5) . . .
107(6) . . .
110(6) . . .
107(5) . . .
96(5) . . .
107(6) . . .
106(5) . . .
124(6) . . .
107(5) . . .
99(5) . . .
89(5) . . .
96(6) . . .
97(5) . . .
100(5) . . .
113(5) . . .
108(6) . . .
103(6) . . .
115(6) . . .
120(6) . . .
110(5) . . .
102(5) . . .
112(6) . . .
110(6) . . .
90(5) . . .
106(5) . . .
104(5) . . .
110(6) . . .
101(5) . . .
105(5) . . .
95(5) . . .
101(5) . . .
108(6) . . .
121(6) . . .
95(5) . . .
103(5) . . .
97(5) . . .
104(6) . . .
106(6) . . .
102(5) . . .
116(6) . . .
108(6) . . .
105(6) . . .
110(6) . . .
108(5) . . .
105(6) . . .
93(6) . . .
106(6) . . .
113(6) . . .
109(5) . . .
94(5) . . .
93(5) . . .
96(5) . . .
102(5) . . .
109(5) . . .
112(6) . . .
110(6) . . .
97(5) . . .
104(5) . . .
108(5) . . .
108(5) . . .
104(6) . . .
100(6) . . .
109(5) . . .
89(5) . . .
91(5) . . .
108(6) . . .
121(6) . . .
115(6) . . .
111(5) . . .
96(5) . . .
105(6) . . .
104(5) . . .
112(5) . . .
101(5) . . .
118(6) . . .
114(6) . . .
109(6) . . .
89(5) . . .
113(6) . . .
105(5) . . .
113(6) . . .
106(5) . . .
99(5) . . .
99(5) . . .
113(6) . . .
101(5) . . .
97(5) . . .
101(5) . . .
104(5) . . .
95(5) . . .
98(5) . . .
111(5) . . .
101(5) . . .
101(5) . . .
84(5) . . .
111(6) . . .
113(6) . . .
100(5) . . .
114(6) . . .
96(5) . . .
100(6) . . .
101(5) . . .
100(5) . . .
105(6) . . .
97(5) . . .
98(5) . . .
116(6) . . .
111(6) . . .
99(5) . . .
99(5) . . .
96(5) . . .
94(5) . . .
104(5) . . .
122(6) . . .
96(5) . . .
106(6) . . .
98(5) . . .
101(5) . . .
107(6) . . .
109(6) . . .
101(5) . . .
103(5) . . .
113(6) . . .
104(5) . . .
109(6) . . .
90(5) . . .
108(5) . . .
107(6) . . .
102(5) . . .
84(5) . . .
83(5) . . .
115(6) . . .
104(5) . . .
108(6) . . .
108(6) . . .
104(5) . . .
98(5) . . .
102(5) . . .
109(6) . . .
120(6) . . .
106(5) . . .
103(5) . . .
101(5) . . .
96(5) . . .
104(6) . . .
98(5) . . .
98(5) . . .
107(6) . . .
106(6) . . .
94(5) . . .
100(5) . . .
98(5) . . .
94(5) . . .
105(6) . . .
97(5) . . .
107(5) . . .
116(6) . . .
108(6) . . .
115(6) . . .
94(5) . . .
95(5) . . .
103(5) . . .
99(5) . . .
111(6) . . .
105(5) . . .
116(6) . . .
100(5) . . .
106(6) . . .
95(5) . . .
121(6) . . .
105(5) . . .
112(6) . . .
100(5) . . .
100(6) . . .
101(5) . . .
95(5) . . .
101(5) . . .
123(6) . . .
107(6) . . .
108(6) . . .
95(5) . . .
116(6) . . .
93(5) . . .
104(6) . . .
106(5) . . .
103(5) . . .
101(5) . . .
109(6) . . .
104(6) . . .
99(5) . . .
101(5) . . .
126(6) . . .
101(5) . . .
110(6) . . .
125(6) . . .
113(5) . . .
116(6) . . .
98(5) . . .
104(6) . . .
94(5) . . .
103(5) . . .
103(6) . . .
112(6) . . .
108(6) . . .
104(5) . . .
96(5) . . .
97(5) . . .
102(6) . . .
98(5) . . .
88(5) . . .
96(5) . . .
106(6) . . .
131(7) . . .
117(6) . . .
104(5) . . .
103(5) . . .
110(5) . . .
115(6) . . .
97(5) . . .
104(5) . . .
108(5) . . .
95(5) . . .
111(6) . . .
112(6) . . .
105(5) . . .
106(5) . . .
109(6) . . .
106(6) . . .
127(6) . . .
101(5) . . .
108(5) . . .
108(6) . . .
116(6) . . .
100(5) . . .
103(5) . . .
109(6) . . .
107(6) . . .
101(5) . . .
102(6) . . .
108(5) . . .
99(5) . . .
96(5) . . .
119(6) . . .
108(5) . . .
107(5) . . .
99(5) . . .
95(5) . . .
105(5) . . .
100(5) . . .
117(6) . . .
101(5) . . .
101(6) . . .
106(6) . . .
101(5) . . .
125(6) . . .
108(5) . . .
106(6) . . .
112(6) . . .
91(5) . . .
96(5) . . .
117(6) . . .
96(5) . . .
92(5) . . .
99(5) . . .
107(5) . . .
107(6) . . .
91(5) . . .
99(5) . . .
113(5) . . .
111(5) . . .
107(5) . . .
100(6) . . .
100(5) . . .
110(5) . . .
95(5) . . .
103(6) . . .
104(6) . . .
100(5) . . .
98(5) . . .
103(5) . . .
100(5) . . .
101(5) . . .
106(5) . . .
93(5) . . .
92(5) . . .
94(5) . . .
88(5) . . .
99(6) . . .
109(5) . . .
103(5) . . .
102(6) . . .
102(6) . . .
102(5) . . .
116(6) . . .
84(5) . . .
105(6) . . .
98(5) . . .
89(5) . . .
107(5) . . .
107(5) . . .
98(5) . . .
104(5) . . .
107(5) . . .
102(5) . . .
105(6) . . .
93(5) . . .
93(5) . . .
94(5) . . .
101(5) . . .
89(5) . . .
109(6) . . .
97(5) . . .
96(5) . . .
108(5) . . .
107(5) . . .
103(6) . . .
96(5) . . .
106(5) . . .
102(5) . . .
113(6) . . .
91(5) . . .
104(6) . . .
99(5) . . .
105(5) . . .
105(5) . . .
89(5) . . .
95(5) . . .
118(6) . . .
85(5) . . .
92(5) . . .
99(5) . . .
97(5) . . .
101(5) . . .
100(5) . . .
107(6) . . .
105(6) . . .
89(5) . . .
110(5) . . .
107(6) . . .
90(5) . . .
100(5) . . .
101(5) . . .
99(5) . . .
97(5) . . .
92(5) . . .
94(5) . . .
102(5) . . .
99(5) . . .
112(6) . . .
111(6) . . .
106(6) . . .
97(5) . . .
99(5) . . .
94(5) . . .
104(6) . . .
112(6) . . .
110(6) . . .
109(5) . . .
110(6) . . .
114(6) . . .
113(6) . . .
114(6) . . .
105(5) . . .
115(6) . . .
97(5) . . .
105(6) . . .
93(5) . . .
100(5) . . .
90(5) . . .
105(6) . . .
93(5) . . .
102(5) . . .
103(5) . . .
93(5) . . .
102(6) . . .
89(5) . . .
98(5) . . .
109(5) . . .
101(5) . . .
111(6) . . .
111(6) . . .
106(5) . . .
93(5) . . .
114(6) . . .
101(5) . . .
109(6) . . .
96(5) . . .
112(6) . . .
104(5) . . .
83(5) . . .
95(5) . . .
109(5) . . .
104(5) . . .
86(5) . . .
100(6) . . .
100(5) . . .
114(6) . . .
102(5) . . .
101(5) . . .
93(5) . . .
100(5) . . .
99(5) . . .
96(5) . . .
95(5) . . .
99(5) . . .
103(5) . . .
105(5) . . .
101(6) . . .
111(6) . . .
107(5) . . .
108(5) . . .
101(5) . . .
92(5) . . .
95(5) . . .
102(5) . . .
116(6) . . .
99(5) . . .
98(5) . . .
97(6) . . .
98(5) . . .
108(5) . . .
101(5) . . .
110(6) . . .
100(5) . . .
99(5) . . .
107(5) . . .
106(5) . . .
111(6) . . .
110(6) . . .
87(5) . . .
101(5) . . .
92(5) . . .
89(5) . . .
86(5) . . .
90(5) . . .
93(5) . . .
88(5) . . .
93(5) . . .
98(5) . . .
110(6) . . .
96(5) . . .
105(5) . . .
98(5) . . .
95(5) . . .
102(5) . . .
93(5) . . .
104(5) . . .
116(6) . . .
115(6) . . .
99(5) . . .
112(5) . . .
97(5) . . .
109(6) . . .
104(5) . . .
94(5) . . .
100(5) . . .
104(5) . . .
101(5) . . .
85(5) . . .
101(5) . . .
101(5) . . .
94(5) . . .
103(5) . . .
105(5) . . .
110(6) . . .
97(5) . . .
104(5) . . .
99(6) . . .
99(5) . . .
96(5) . . .
92(5) . . .
101(5) . . .
99(5) . . .
91(5) . . .
106(5) . . .
100(5) . . .
112(6) . . .
122(6) . . .
116(6) . . .
98(5) . . .
104(5) . . .
96(5) . . .
93(5) . . .
108(6) . . .
88(5) . . .
103(5) . . .
92(5) . . .
92(5) . . .
92(5) . . .
97(5) . . .
98(5) . . .
95(5) . . .
90(5) . . .
94(5) . . .
100(5) . . .
100(5) . . .
100(5) . . .
99(5) . . .
109(6) . . .
102(5) . . .
82(5) . . .
100(6) . . .
92(5) . . .
99(5) . . .
101(5) . . .
102(5) . . .
96(5) . . .
101(6) . . .
99(5) . . .
96(5) . . .
91(5) . . .
116(6) . . .
107(6) . . .
86(5) . . .
104(5) . . .
104(5) . . .
99(5) . . .
107(5) . . .
101(5) . . .
101(5) . . .
95(5) . . .
88(5) . . .
111(6) . . .
100(5) . . .
105(5) . . .
108(6) . . .
95(5) . . .
101(5) . . .
93(5) . . .
113(6) . . .
101(5) . . .
103(6) . . .
85(5) . . .
89(5) . . .
100(5) . . .
95(5) . . .
101(6) . . .
88(5) . . .
99(5) . . .
92(5) . . .
89(5) . . .
105(6) . . .
94(5) . . .
96(5) . . .
95(5) . . .
101(6) . . .
101(5) . . .
101(5) . . .
91(5) . . .
101(5) . . .
109(6) . . .
95(5) . . .
97(5) . . .
102(5) . . .
100(5) . . .
100(5) . . .
105(5) . . .
113(6) . . .
100(5) . . .
95(6) . . .
94(5) . . .
90(5) . . .
90(5) . . .
101(5) . . .
92(5) . . .
98(6) . . .
111(6) . . .
102(5) . . .
97(5) . . .
93(5) . . .
110(6) . . .
87(5) . . .
110(6) . . .
93(5) . . .
88(5) . . .
106(6) . . .
93(5) . . .
110(5) . . .
101(5) . . .
93(5) . . .
102(6) . . .
96(5) . . .
95(5) . . .
90(5) . . .
91(5) . . .
109(6) . . .
95(5) . . .
96(5) . . .
106(5) . . .
88(5) . . .
104(6) . . .
110(6) . . .
99(5) . . .
113(6) . . .
97(5) . . .
91(5) . . .
98(5) . . .
100(5) . . .
95(5) . . .
114(6) . . .
106(6) . . .
103(5) . . .
93(5) . . .
112(6) . . .
106(6) . . .
110(6) . . .
92(5) . . .
111(5) . . .
104(6) . . .
91(5) . . .
88(5) . . .
100(5) . . .
101(5) . . .
110(6) . . .
110(6) . . .
104(6) . . .
95(5) . . .
97(5) . . .
114(6) . . .
106(6) . . .
104(5) . . .
94(5) . . .
107(5) . . .
103(6) . . .
101(6) . . .
112(6) . . .
104(5) . . .
107(5) . . .
105(5) . . .
89(5) . . .
97(5) . . .
93(5) . . .
95(5) . . .
98(5) . . .
114(6) . . .
116(6) . . .
108(5) . . .
115(6) . . .
113(6) . . .
119(6) . . .
105(5) . . .
102(5) . . .
93(5) . . .
94(5) . . .
94(6) . . .
93(5) . . .
91(5) . . .
106(5) . . .
112(6) . . .
104(6) . . .
96(5) . . .
118(6) . . .
106(6) . . .
101(6) . . .
82(5) . . .
86(5) . . .
97(5) . . .
109(6) . . .
110(6) . . .
83(5) . . .
99(5) . . .
95(5) . . .
109(6) . . .
94(5) . . .
88(5) . . .
98(5) . . .
83(5) . . .
91(5) . . .
95(5) . . .
105(5) . . .
98(5) . . .
102(5) . . .
91(5) . . .
91(5) . . .
101(5) . . .
89(5) . . .
94(5) . . .
98(5) . . .
101(5) . . .
104(6) . . .
89(5) . . .
112(6) . . .
113(6) . . .
105(6) . . .
96(5) . . .
97(5) . . .
95(5) . . .
91(5) . . .
100(6) . . .
86(5) . . .
98(5) . . .
89(5) . . .
81(5) . . .
95(5) . . .
93(5) . . .
100(5) . . .
101(5) . . .
93(5) . . .
91(5) . . .
94(5) . . .
110(5) . . .
100(5) . . .
91(5) . . .
95(5) . . .
90(5) . . .
111(5) . . .
95(5) . . .
91(5) . . .
93(5) . . .
85(5) . . .
108(5) . . .
84(5) . . .
100(6) . . .
102(5) . . .
105(5) . . .
90(5) . . .
95(5) . . .
88(5) . . .
110(6) . . .
98(5) . . .
99(5) . . .
98(5) . . .
91(5) . . .
95(5) . . .
103(5) . . .
92(5) . . .
95(5) . . .
103(6) . . .
94(5) . . .
97(5) . . .
105(5) . . .
90(5) . . .
95(5) . . .
88(5) . . .
101(5) . . .
100(5) . . .
84(5) . . .
93(5) . . .
83(5) . . .
100(5) . . .
96(5) . . .
99(5) . . .
102(5) . . .
102(5) . . .
111(6) . . .
104(6) . . .
90(5) . . .
84(5) . . .
102(5) . . .
94(5) . . .
87(5) . . .
99(6) . . .
100(5) . . .
97(5) . . .
85(5) . . .
109(6) . . .
103(5) . . .
98(5) . . .
94(5) . . .
94(5) . . .
94(5) . . .
105(6) . . .
102(6) . . .
98(5) . . .
100(5) . . .
99(5) . . .
102(6) . . .
97(5) . . .
106(5) . . .
109(5) . . .
94(5) . . .
101(6) . . .
94(5) . . .
113(6) . . .
97(5) . . .
90(5) . . .
92(5) . . .
95(5) . . .
100(5) . . .
99(5) . . .
106(6) . . .
86(5) . . .
94(5) . . .
94(5) . . .
93(5) . . .
82(5) . . .
93(5) . . .
104(6) . . .
96(5) . . .
82(5) . . .
95(5) . . .
102(5) . . .
89(5) . . .
96(5) . . .
99(5) . . .
97(5) . . .
100(5) . . .
85(5) . . .
91(5) . . .
88(5) . . .
94(5) . . .
101(5) . . .
103(5) . . .
98(5) . . .
101(5) . . .
88(5) . . .
93(5) . . .
102(5) . . .
105(5) . . .
90(5) . . .
97(6) . . .
86(5) . . .
95(5) . . .
102(5) . . .
107(6) . . .
107(6) . . .
95(5) . . .
96(5) . . .
106(5) . . .
98(5) . . .
110(6) . . .
93(5) . . .
95(5) . . .
98(5) . . .
97(5) . . .
90(5) . . .
106(6) . . .
91(5) . . .
91(5) . . .
95(5) . . .
87(5) . . .
89(5) . . .
98(5) . . .
97(5) . . .
92(5) . . .
102(6) . . .
101(5) . . .
110(5) . . .
105(5) . . .
112(6) . . .
94(5) . . .
89(5) . . .
97(5) . . .
93(5) . . .
94(5) . . .
95(5) . . .
95(5) . . .
94(5) . . .
93(5) . . .
106(6) . . .
90(5) . . .
96(5) . . .
93(5) . . .
103(5) . . .
93(5) . . .
99(5) . . .
95(5) . . .
83(5) . . .
107(5) . . .
100(5) . . .
89(5) . . .
104(5) . . .
99(5) . . .
98(5) . . .
101(6) . . .
100(5) . . .
99(5) . . .
106(5) . . .
95(5) . . .
91(5) . . .
99(5) . . .
107(5) . . .
100(5) . . .
101(5) . . .
103(6) . . .
100(5) . . .
97(5) . . .
92(5) . . .
96(5) . . .
95(5) . . .
98(5) . . .
96(5) . . .
90(5) . . .
105(6) . . .
104(6) . . .
92(5) . . .
97(5) . . .
112(6) . . .
92(5) . . .
97(5) . . .
99(5) . . .
97(5) . . .
104(5) . . .
95(5) . . .
96(5) . . .
91(5) . . .
94(5) . . .
110(6) . . .
97(5) . . .
104(6) . . .
101(5) . . .
98(5) . . .
94(5) . . .
104(6) . . .
86(5) . . .
102(5) . . .
111(6) . . .
104(5) . . .
81(5) . . .
104(6) . . .
94(5) . . .
91(5) . . .
98(5) . . .
104(6) . . .
101(5) . . .
92(5) . . .
98(5) . . .
103(5) . . .
95(5) . . .
106(5) . . .
88(5) . . .
97(5) . . .
91(5) . . .
95(5) . . .
104(5) . . .
97(5) . . .
97(5) . . .
99(5) . . .
105(6) . . .
108(6) . . .
88(5) . . .
97(5) . . .
99(5) . . .
99(5) . . .
99(5) . . .
102(5) . . .
96(5) . . .
96(5) . . .
95(5) . . .
97(5) . . .
82(5) . . .
93(5) . . .
104(5) . . .
108(6) . . .
91(5) . . .
86(5) . . .
97(5) . . .
94(5) . . .
96(5) . . .
98(5) . . .
97(5) . . .
83(5) . . .
94(5) . . .
92(5) . . .
109(6) . . .
96(5) . . .
89(5) . . .
95(5) . . .
99(6) . . .
91(5) . . .
89(5) . . .
94(5) . . .
97(6) . . .
83(5) . . .
86(5) . . .
95(5) . . .
106(5) . . .
101(6) . . .
90(5) . . .
99(5) . . .
92(5) . . .
87(5) . . .
88(5) . . .
106(6) . . .
91(5) . . .
106(5) . . .
96(5) . . .
99(5) . . .
107(5) . . .
100(5) . . .
96(5) . . .
99(5) . . .
114(6) . . .
104(5) . . .
83(5) . . .
94(5) . . .
97(5) . . .
87(5) . . .
92(5) . . .
93(5) . . .
92(5) . . .
106(6) . . .
96(5) . . .
96(5) . . .
99(5) . . .
89(5) . . .
98(5) . . .
93(5) . . .
89(5) . . .
101(5) . . .
99(5) . . .
93(5) . . .
93(5) . . .
104(5) . . .
106(5) . . .
94(5) . . .
108(6) . . .
110(6) . . .
100(5) . . .
112(5) . . .
107(6) . . .
99(6) . . .
95(5) . . .
95(5) . . .
96(5) . . .
101(5) . . .
97(5) . . .
104(5) . . .
108(6) . . .
100(5) . . .
99(5) . . .
110(6) . . .
102(5) . . .
107(5) . . .
102(5) . . .
90(5) . . .
93(5) . . .
90(5) . . .
104(5) . . .
98(5) . . .
90(5) . . .
88(5) . . .
92(5) . . .
83(5) . . .
101(5) . . .
99(5) . . .
103(6) . . .
90(5) . . .
110(5) . . .
93(5) . . .
96(5) . . .
99(5) . . .
105(5) . . .
84(5) . . .
92(5) . . .
86(5) . . .
87(5) . . .
88(5) . . .
90(5) . . .
95(5) . . .
79(5) . . .
80(5) . . .
103(5) . . .
99(5) . . .
100(5) . . .
103(6) . . .
104(6) . . .
108(5) . . .
89(5) . . .
104(6) . . .
89(5) . . .
92(5) . . .
87(5) . . .
91(5) . . .
93(5) . . .
95(5) . . .
102(6) . . .
89(5) . . .
91(5) . . .
76(5) . . .
93(5) . . .
107(6) . . .
95(5) . . .
103(5) . . .
94(5) . . .
85(5) . . .
99(5) . . .
86(5) . . .
100(5) . . .
107(6) . . .
91(5) . . .
92(5) . . .
75(5) . . .
90(5) . . .
93(5) . . .
88(5) . . .
82(5) . . .
98(5) . . .
91(5) . . .
90(5) . . .
89(5) . . .
81(5) . . .
104(5) . . .
93(5) . . .
93(5) . . .
99(5) . . .
104(5) . . .
86(5) . . .
80(5) . . .
99(5) . . .
95(5) . . .
101(5) . . .
85(5) . . .
95(5) . . .
90(5) . . .
99(5) . . .
102(5) . . .
106(5) . . .
96(5) . . .
85(5) . . .
95(5) . . .
96(5) . . .
109(5) . . .
93(5) . . .
97(6) . . .
78(5) . . .
99(5) . . .
91(5) . . .
91(5) . . .
92(5) . . .
83(5) . . .
90(5) . . .
95(5) . . .
101(5) . . .
91(5) . . .
89(5) . . .
90(5) . . .
88(5) . . .
95(5) . . .
102(6) . . .
96(5) . . .
86(5) . . .
112(6) . . .
97(5) . . .
96(5) . . .
75(5) . . .
95(5) . . .
97(5) . . .
96(5) . . .
86(5) . . .
98(6) . . .
93(5) . . .
94(5) . . .
86(5) . . .
87(5) . . .
79(5) . . .
104(5) . . .
96(5) . . .
93(5) . . .
87(5) . . .
84(5) . . .
109(5) . . .
95(5) . . .
89(5) . . .
91(5) . . .
103(5) . . .
98(5) . . .
89(5) . . .
88(5) . . .
84(5) . . .
93(5) . . .
93(5) . . .
91(5) . . .
87(5) . . .
92(5) . . .
89(5) . . .
90(5) . . .
93(5) . . .
85(5) . . .
97(5) . . .
98(5) . . .
94(5) . . .
101(5) . . .
91(5) . . .
94(5) . . .
90(5) . . .
89(5) . . .
93(5) . . .
84(5) . . .
101(6) . . .
80(5) . . .
94(5) . . .
96(5) . . .
93(6) . . .
90(5) . . .
103(5) . . .
105(5) . . .
108(6) . . .
95(5) . . .
99(5) . . .
92(5) . . .
85(5) . . .
93(5) . . .
87(5) . . .
100(5) . . .
89(5) . . .
93(5) . . .
93(5) . . .
79(5) . . .
80(5) . . .
91(5) . . .
90(5) . . .
89(5) . . .
101(5) . . .
94(5) . . .
87(5) . . .
92(5) . . .
76(4) . . .
89(5) . . .
91(5) . . .
102(5) . . .
98(5) . . .
94(5) . . .
83(5) . . .
84(5) . . .
104(5) . . .
98(5) . . .
86(5) . . .
84(5) . . .
95(5) . . .
100(5) . . .
98(5) . . .
95(5) . . .
93(5) . . .
100(5) . . .
104(5) . . .
96(5) . . .
96(5) . . .
91(5) . . .
92(5) . . .
88(5) . . .
99(5) . . .
83(5) . . .
89(5) . . .
95(5) . . .
113(6) . . .
95(5) . . .
96(6) . . .
79(5) . . .
99(5) . . .
104(5) . . .
101(6) . . .
98(5) . . .
105(6) . . .
82(5) . . .
91(5) . . .
96(5) . . .
87(5) . . .
88(5) . . .
99(5) . . .
85(5) . . .
98(5) . . .
91(5) . . .
85(5) . . .
90(5) . . .
84(5) . . .
105(6) . . .
100(5) . . .
88(5) . . .
82(5) . . .
111(6) . . .
87(5) . . .
89(5) . . .
82(5) . . .
101(5) . . .
89(5) . . .
95(5) . . .
90(5) . . .
83(5) . . .
100(5) . . .
91(5) . . .
95(5) . . .
98(5) . . .
97(5) . . .
107(5) . . .
90(5) . . .
103(6) . . .
102(5) . . .
89(5) . . .
90(5) . . .
83(5) . . .
79(5) . . .
95(5) . . .
92(5) . . .
97(5) . . .
84(5) . . .
97(6) . . .
111(6) . . .
91(5) . . .
78(5) . . .
89(5) . . .
98(6) . . .
95(5) . . .
91(5) . . .
90(5) . . .
85(5) . . .
91(5) . . .
98(5) . . .
81(5) . . .
101(5) . . .
100(5) . . .
97(5) . . .
102(5) . . .
86(5) . . .
79(5) . . .
88(5) . . .
102(6) . . .
87(5) . . .
87(5) . . .
95(5) . . .
96(5) . . .
101(5) . . .
89(5) . . .
98(5) . . .
94(5) . . .
98(5) . . .
94(5) . . .
88(5) . . .
98(5) . . .
88(5) . . .
89(5) . . .
109(6) . . .
85(5) . . .
91(5) . . .
87(5) . . .
80(5) . . .
93(5) . . .
82(5) . . .
95(5) . . .
94(5) . . .
83(5) . . .
78(5) . . .
92(5) . . .
104(6) . . .
86(5) . . .
83(5) . . .
99(5) . . .
95(5) . . .
92(5) . . .
97(5) . . .
103(6) . . .
98(5) . . .
81(5) . . .
88(5) . . .
79(5) . . .
88(5) . . .
75(5) . . .
73(4) . . .
92(5) . . .
81(5) . . .
83(5) . . .
96(5) . . .
87(5) . . .
89(5) . . .
91(5) . . .
93(5) . . .
87(5) . . .
85(5) . . .
95(5) . . .
95(5) . . .
89(5) . . .
89(5) . . .
93(5) . . .
101(5) . . .
82(5) . . .
99(5) . . .
91(5) . . .
82(5) . . .
82(5) . . .
91(5) . . .
82(5) . . .
90(5) . . .
72(4) . . .
89(5) . . .
95(5) . . .
91(5) . . .
81(5) . . .
100(5) . . .
89(5) . . .
81(5) . . .
81(5) . . .
87(5) . . .
95(5) . . .
83(5) . . .
94(5) . . .
102(5) . . .
101(5) . . .
92(5) . . .
96(5) . . .
90(5) . . .
88(5) . . .
89(5) . . .
92(5) . . .
93(5) . . .
89(5) . . .
92(5) . . .
82(5) . . .
94(5) . . .
101(5) . . .
90(5) . . .
84(5) . . .
96(5) . . .
85(5) . . .
92(5) . . .
99(5) . . .
107(5) . . .
99(5) . . .
86(5) . . .
74(5) . . .
75(5) . . .
101(5) . . .
87(5) . . .
90(5) . . .
88(5) . . .
78(5) . . .
90(5) . . .
86(5) . . .
93(5) . . .
85(5) . . .
89(5) . . .
92(5) . . .
95(5) . . .
100(5) . . .
94(5) . . .
93(5) . . .
94(5) . . .
93(5) . . .
88(5) . . .
95(5) . . .
90(5) . . .
87(5) . . .
71(4) . . .
83(5) . . .
85(5) . . .
106(5) . . .
86(5) . . .
91(5) . . .
95(5) . . .
88(5) . . .
84(5) . . .
96(5) . . .
104(6) . . .
82(5) . . .
99(5) . . .
78(5) . . .
96(5) . . .
94(5) . . .
94(5) . . .
103(6) . . .
91(5) . . .
79(5) . . .
91(5) . . .
80(5) . . .
88(5) . . .
80(5) . . .
85(5) . . .
88(5) . . .
101(5) . . .
96(5) . . .
80(5) . . .
82(5) . . .
87(5) . . .
86(5) . . .
82(5) . . .
78(5) . . .
72(4) . . .
89(5) . . .
74(4) . . .
88(5) . . .
102(5) . . .
88(5) . . .
92(5) . . .
91(5) . . .
95(5) . . .
88(5) . . .
74(4) . . .
91(5) . . .
86(5) . . .
102(5) . . .
89(5) . . .
90(5) . . .
85(5) . . .
80(5) . . .
96(5) . . .
91(5) . . .
82(5) . . .
86(5) . . .
82(5) . . .
92(5) . . .
94(5) . . .
110(6) . . .
91(5) . . .
93(5) . . .
80(5) . . .
93(5) . . .
77(5) . . .
75(5) . . .
97(5) . . .
92(5) . . .
81(5) . . .
79(5) . . .
76(5) . . .
97(6) . . .
86(5) . . .
84(5) . . .
85(5) . . .
94(5) . . .
85(5) . . .
85(5) . . .
95(5) . . .
94(5) . . .
84(5) . . .
87(5) . . .
96(5) . . .
96(5) . . .
91(5) . . .
80(5) . . .
101(5) . . .
91(5) . . .
96(5) . . .
75(5) . . .
85(5) . . .
79(5) . . .
86(5) . . .
93(5) . . .
87(5) . . .
98(6) . . .
85(5) . . .
92(5) . . .
76(5) . . .
85(5) . . .
97(6) . . .
95(5) . . .
93(5) . . .
90(5) . . .
68(4) . . .
91(5) . . .
88(5) . . .
103(5) . . .
95(5) . . .
90(5) . . .
80(5) . . .
85(5) . . .
86(5) . . .
84(5) . . .
82(5) . . .
95(5) . . .
97(5) . . .
89(5) . . .
92(5) . . .
77(5) . . .
93(5) . . .
82(5) . . .
83(5) . . .
99(5) . . .
95(5) . . .
90(5) . . .
99(5) . . .
83(5) . . .
83(5) . . .
98(6) . . .
84(5) . . .
95(5) . . .
81(5) . . .
84(5) . . .
78(5) . . .
87(5) . . .
99(5) . . .
87(5) . . .
87(5) . . .
93(5) . . .
89(5) . . .
96(5) . . .
82(5) . . .
70(4) . . .
79(5) . . .
93(5) . . .
80(5) . . .
77(4) . . .
95(5) . . .
96(5) . . .
88(5) . . .
70(4) . . .
94(5) . . .
99(5) . . .
102(6) . . .
98(5) . . .
84(5) . . .
92(5) . . .
86(5) . . .
95(5) . . .
90(5) . . .
93(5) . . .
90(5) . . .
82(5) . . .
95(5) . . .
83(5) . . .
102(5) . . .
91(5) . . .
82(5) . . .
94(5) . . .
82(5) . . .
93(5) . . .
87(5) . . .
79(5) . . .
78(5) . . .
79(5) . . .
92(5) . . .
87(5) . . .
95(5) . . .
91(5) . . .
73(5) . . .
88(5) . . .
103(6) . . .
82(5) . . .
85(5) . . .
88(5) . . .
91(5) . . .
95(5) . . .
100(5) . . .
98(5) . . .
80(5) . . .
80(5) . . .
89(5) . . .
81(5) . . .
85(5) . . .
71(4) . . .
96(5) . . .
90(5) . . .
86(5) . . .
89(5) . . .
81(5) . . .
93(5) . . .
82(5) . . .
83(5) . . .
93(5) . . .
86(5) . . .
93(5) . . .
80(5) . . .
89(5) . . .
88(5) . . .
94(5) . . .
88(5) . . .
101(5) . . .
99(6) . . .
84(5) . . .
96(5) . . .
85(5) . . .
85(5) . . .
98(5) . . .
94(5) . . .
98(5) . . .
88(5) . . .
88(5) . . .
80(5) . . .
90(5) . . .
76(5) . . .
82(5) . . .
83(5) . . .
84(5) . . .
94(5) . . .
96(5) . . .
83(5) . . .
87(5) . . .
80(5) . . .
79(5) . . .
101(5) . . .
93(5) . . .
69(4) . . .
85(5) . . .
89(5) . . .
99(5) . . .
93(5) . . .
85(5) . . .
87(5) . . .
87(5) . . .
88(5) . . .
84(5) . . .
88(5) . . .
73(4) . . .
88(5) . . .
89(5) . . .
93(5) . . .
95(5) . . .
93(5) . . .
93(5) . . .
91(5) . . .
90(5) . . .
90(5) . . .
88(5) . . .
105(5) . . .
91(5) . . .
100(6) . . .
92(6) . . .
86(5) . . .
104(5) . . .
91(5) . . .
92(5) . . .
82(5) . . .
88(5) . . .
69(4) . . .
89(5) . . .
81(5) . . .
94(5) . . .
93(5) . . .
87(5) . . .
89(5) . . .
93(5) . . .
91(5) . . .
87(5) . . .
83(5) . . .
77(5) . . .
77(5) . . .
85(5) . . .
91(5) . . .
94(5) . . .
90(5) . . .
77(5) . . .
86(5) . . .
84(5) . . .
86(5) . . .
84(5) . . .
91(5) . . .
87(5) . . .
81(5) . . .
89(5) . . .
87(5) . . .
90(5) . . .
82(5) . . .
94(5) . . .
73(4) . . .
89(5) . . .
89(5) . . .
87(5) . . .
88(5) . . .
92(5) . . .
88(5) . . .
92(5) . . .
96(5) . . .
82(5) . . .
84(5) . . .
91(5) . . .
96(5) . . .
98(5) . . .
86(5) . . .
84(5) . . .
74(5) . . .
91(5) . . .
81(5) . . .
78(5) . . .
76(5) . . .
100(5) . . .
91(5) . . .
87(5) . . .
90(5) . . .
94(5) . . .
82(5) . . .
77(5) . . .
84(5) . . .
91(5) . . .
84(5) . . .
80(5) . . .
82(5) . . .
83(5) . . .
95(5) . . .
104(6) . . .
81(5) . . .
77(5) . . .
77(5) . . .
84(5) . . .
91(5) . . .
93(5) . . .
84(5) . . .
86(5) . . .
81(5) . . .
83(5) . . .
90(5) . . .
80(5) . . .
85(5) . . .
87(5) . . .
90(5) . . .
83(5) . . .
92(5) . . .
87(5) . . .
85(5) . . .
90(5) . . .
87(5) . . .
83(5) . . .
90(5) . . .
83(5) . . .
106(6) . . .
86(5) . . .
81(5) . . .
87(5) . . .
98(5) . . .
88(5) . . .
87(5) . . .
99(5) . . .
93(5) . . .
83(5) . . .
89(5) . . .
96(5) . . .
85(5) . . .
87(5) . . .
87(5) . . .
69(4) . . .
77(5) . . .
94(5) . . .
84(5) . . .
91(5) . . .
89(5) . . .
82(5) . . .
88(5) . . .
88(5) . . .
90(5) . . .
93(5) . . .
86(5) . . .
78(5) . . .
76(5) . . .
75(5) . . .
87(5) . . .
86(5) . . .
83(5) . . .
91(5) . . .
84(5) . . .
73(5) . . .
78(5) . . .
72(4) . . .
84(5) . . .
80(5) . . .
96(5) . . .
87(5) . . .
89(5) . . .
78(5) . . .
76(5) . . .
89(5) . . .
98(6) . . .
72(4) . . .
94(5) . . .
72(5) . . .
81(5) . . .
83(5) . . .
73(4) . . .
82(5) . . .
85(5) . . .
75(5) . . .
83(5) . . .
80(5) . . .
89(5) . . .
75(5) . . .
70(4) . . .
76(5) . . .
84(5) . . .
85(5) . . .
87(5) . . .
87(5) . . .
82(5) . . .
97(5) . . .
90(5) . . .
93(5) . . .
93(5) . . .
82(5) . . .
88(5) . . .
92(5) . . .
92(5) . . .
80(5) . . .
86(5) . . .
85(5) . . .
85(5) . . .
87(5) . . .
81(5) . . .
72(4) . . .
95(5) . . .
95(5) . . .
86(5) . . .
83(5) . . .
89(5) . . .
89(5) . . .
74(5) . . .
85(5) . . .
81(5) . . .
80(5) . . .
84(5) . . .
80(5) . . .
97(6) . . .
81(5) . . .
76(4) . . .
97(5) . . .
86(5) . . .
85(5) . . .
76(5) . . .
77(5) . . .
87(5) . . .
99(5) . . .
78(5) . . .
72(5) . . .
77(5) . . .
86(5) . . .
88(5) . . .
86(5) . . .
76(5) . . .
89(5) . . .
98(5) . . .
102(5) . . .
86(5) . . .
80(5) . . .
85(5) . . .
81(5) . . .
86(5) . . .
90(5) . . .
83(5) . . .
77(5) . . .
83(5) . . .
94(5) . . .
88(5) . . .
92(5) . . .
99(5) . . .
86(5) . . .
96(5) . . .
82(5) . . .
89(5) . . .
88(5) . . .
91(5) . . .
78(5) . . .
70(4) . . .
85(5) . . .
88(5) . . .
88(5) . . .
82(5) . . .
72(5) . . .
81(5) . . .
90(5) . . .
83(5) . . .
90(5) . . .
76(5) . . .
90(5) . . .
93(5) . . .
87(5) . . .
70(4) . . .
70(5) . . .
95(5) . . .
89(5) . . .
80(5) . . .
87(5) . . .
90(5) . . .
79(5) . . .
81(5) . . .
84(5) . . .
86(5) . . .
79(5) . . .
78(5) . . .
77(5) . . .
81(5) . . .
87(5) . . .
91(5) . . .
89(5) . . .
82(5) . . .
68(4) . . .
89(5) . . .
67(4) . . .
82(5) . . .
83(5) . . .
87(5) . . .
93(5) . . .
77(5) . . .
84(5) . . .
87(5) . . .
79(5) . . .
74(5) . . .
77(4) . . .
98(5) . . .
78(5) . . .
82(5) . . .
74(5) . . .
97(5) . . .
86(5) . . .
80(5) . . .
75(5) . . .
95(5) . . .
79(5) . . .
91(5) . . .
88(5) . . .
83(5) . . .
82(5) . . .
82(5) . . .
85(5) . . .
94(5) . . .
89(5) . . .
89(5) . . .
86(5) . . .
89(5) . . .
87(5) . . .
97(5) . . .
88(5) . . .
90(5) . . .
91(5) . . .
91(5) . . .
89(5) . . .
105(6) . . .
89(5) . . .
79(5) . . .
87(5) . . .
77(5) . . .
79(5) . . .
94(5) . . .
80(5) . . .
77(5) . . .
80(5) . . .
78(5) . . .
80(5) . . .
86(5) . . .
70(5) . . .
80(5) . . .
81(5) . . .
82(5) . . .
83(5) . . .
83(5) . . .
87(5) . . .
76(5) . . .
78(5) . . .
83(5) . . .
78(5) . . .
88(5) . . .
108(5) . . .
81(5) . . .
82(5) . . .
76(5) . . .
88(5) . . .
88(5) . . .
83(5) . . .
93(5) . . .
85(5) . . .
89(5) . . .
86(5) . . .
89(5) . . .
89(5) . . .
84(5) . . .
80(5) . . .
86(5) . . .
89(5) . . .
78(5) . . .
94(5) . . .
89(5) . . .
82(5) . . .
83(5) . . .
84(5) . . .
83(5) . . .
91(5) . . .
85(5) . . .
78(5) . . .
80(5) . . .
83(5) . . .
81(5) . . .
84(5) . . .
72(5) . . .
84(5) . . .
79(5) . . .
85(5) . . .
78(5) . . .
83(5) . . .
92(5) . . .
82(5) . . .
87(5) . . .
87(5) . . .
81(5) . . .
84(5) . . .
82(5) . . .
97(5) . . .
91(5) . . .
95(5) . . .
84(5) . . .
83(5) . . .
80(5) . . .
97(5) . . .
79(5) . . .
81(5) . . .
101(6) . . .
75(5) . . .
81(5) . . .
75(5) . . .
71(5) . . .
87(5) . . .
90(5) . . .
92(5) . . .
98(5) . . .
77(5) . . .
93(5) . . .
93(5) . . .
85(5) . . .
73(4) . . .
77(5) . . .
94(5) . . .
89(5) . . .
88(5) . . .
77(5) . . .
83(5) . . .
75(5) . . .
90(5) . . .
90(5) . . .
87(5) . . .
80(5) . . .
82(5) . . .
96(5) . . .
92(5) . . .
77(5) . . .
85(5) . . .
80(5) . . .
75(5) . . .
90(5) . . .
97(5) . . .
94(5) . . .
91(5) . . .
92(5) . . .
80(5) . . .
79(5) . . .
108(6) . . .
81(5) . . .
85(5) . . .
81(5) . . .
73(5) . . .
72(5) . . .
93(5) . . .
90(5) . . .
81(5) . . .
88(5) . . .
88(5) . . .
76(4) . . .
72(4) . . .
74(5) . . .
73(5) . . .
73(5) . . .
86(5) . . .
79(5) . . .
89(5) . . .
90(5) . . .
84(5) . . .
83(5) . . .
72(4) . . .
79(5) . . .
83(5) . . .
80(5) . . .
79(5) . . .
97(5) . . .
85(5) . . .
87(5) . . .
84(5) . . .
87(5) . . .
92(5) . . .
90(5) . . .
84(5) . . .
80(5) . . .
85(5) . . .
70(4) . . .
86(5) . . .
79(5) . . .
82(5) . . .
88(5) . . .
83(5) . . .
76(5) . . .
63(4) . . .
82(5) . . .
76(5) . . .
92(5) . . .
96(6) . . .
80(5) . . .
91(5) . . .
80(5) . . .
84(5) . . .
92(5) . . .
105(6) . . .
93(5) . . .
84(5) . . .
84(5) . . .
91(5) . . .
86(5) . . .
82(5) . . .
71(4) . . .
80(5) . . .
75(5) . . .
81(5) . . .
78(5) . . .
82(5) . . .
85(5) . . .
77(5) . . .
96(5) . . .
76(4) . . .
91(5) . . .
88(5) . . .
83(5) . . .
65(4) . . .
74(4) . . .
80(5) . . .
93(5) . . .
86(5) . . .
85(5) . . .
80(5) . . .
95(5) . . .
80(5) . . .
85(5) . . .
89(5) . . .
69(4) . . .
72(4) . . .
73(5) . . .
83(5) . . .
90(5) . . .
86(5) . . .
79(5) . . .
78(5) . . .
86(5) . . .
86(5) . . .
76(5) . . .
72(5) . . .
69(5) . . .
84(5) . . .
92(5) . . .
96(5) . . .
74(5) . . .
82(5) . . .
89(5) . . .
84(5) . . .
81(5) . . .
78(5) . . .
97(5) . . .
85(5) . . .
76(5) . . .
82(5) . . .
88(5) . . .
76(5) . . .
85(5) . . .
86(5) . . .
72(4) . . .
74(5) . . .
70(5) . . .
73(5) . . .
80(5) . . .
82(5) . . .
90(5) . . .
85(5) . . .
86(5) . . .
82(5) . . .
86(5) . . .
89(5) . . .
96(5) . . .
81(5) . . .
72(4) . . .
74(4) . . .
86(5) . . .
83(5) . . .
82(5) . . .
86(5) . . .
85(5) . . .
82(5) . . .
80(5) . . .
71(4) . . .
73(4) . . .
82(5) . . .
76(5) . . .
85(5) . . .
80(5) . . .
85(5) . . .
82(5) . . .
86(5) . . .
90(5) . . .
77(5) . . .
72(4) . . .
69(4) . . .
80(5) . . .
78(5) . . .
83(5) . . .
81(5) . . .
85(5) . . .
90(5) . . .
78(5) . . .
91(5) . . .
83(5) . . .
87(5) . . .
81(5) . . .
92(5) . . .
86(5) . . .
90(5) . . .
87(5) . . .
84(5) . . .
86(5) . . .
72(4) . . .
71(4) . . .
79(5) . . .
95(5) . . .
77(5) . . .
73(4) . . .
78(5) . . .
76(5) . . .
76(5) . . .
78(5) . . .
81(5) . . .
84(5) . . .
91(5) . . .
78(5) . . .
90(5) . . .
83(5) . . .
88(5) . . .
73(4) . . .
84(5) . . .
82(5) . . .
77(5) . . .
79(5) . . .
85(5) . . .
84(5) . . .
69(4) . . .
66(4) . . .
76(5) . . .
77(5) . . .
83(5) . . .
74(5) . . .
78(5) . . .
87(5) . . .
92(5) . . .
77(5) . . .
77(5) . . .
78(5) . . .
86(5) . . .
78(5) . . .
82(5) . . .
68(4) . . .
78(5) . . .
83(5) . . .
85(5) . . .
93(5) . . .
81(5) . . .
72(4) . . .
80(5) . . .
83(5) . . .
71(5) . . .
84(5) . . .
89(5) . . .
78(5) . . .
85(5) . . .
88(5) . . .
76(5) . . .
82(5) . . .
76(5) . . .
69(5) . . .
84(5) . . .
68(4) . . .
86(5) . . .
83(5) . . .
76(5) . . .
74(4) . . .
87(5) . . .
79(5) . . .
77(5) . . .
74(5) . . .
79(5) . . .
86(5) . . .
79(5) . . .
76(5) . . .
72(5) . . .
77(5) . . .
69(4) . . .
78(5) . . .
82(5) . . .
80(5) . . .
85(5) . . .
72(4) . . .
77(5) . . .
70(4) . . .
60(4) . . .
76(5) . . .
66(4) . . .
91(5) . . .
81(5) . . .
77(5) . . .
75(4) . . .
67(4) . . .
70(5) . . .
76(5) . . .
78(5) . . .
85(5) . . .
83(5) . . .
73(4) . . .
82(5) . . .
91(5) . . .
78(5) . . .
75(4) . . .
85(5) . . .
80(5) . . .
82(5) . . .
71(4) . . .
87(5) . . .
84(5) . . .
83(5) . . .
84(5) . . .
86(5) . . .
72(4) . . .
73(5) . . .
74(5) . . .
73(5) . . .
73(4) . . .
83(5) . . .
83(5) . . .
76(5) . . .
71(5) . . .
80(5) . . .
75(5) . . .
91(5) . . .
83(5) . . .
71(4) . . .
91(5) . . .
75(5) . . .
84(5) . . .
81(5) . . .
79(5) . . .
88(5) . . .
78(5) . . .
88(5) . . .
93(5) . . .
69(4) . . .
72(4) . . .
84(5) . . .
74(5) . . .
70(4) . . .
82(5) . . .
83(5) . . .
93(5) . . .
76(5) . . .
74(5) . . .
93(5) . . .
79(5) . . .
64(4) . . .
82(5) . . .
73(5) . . .
79(5) . . .
90(5) . . .
87(5) . . .
88(5) . . .
73(5) . . .
91(5) . . .
75(5) . . .
83(5) . . .
74(5) . . .
83(5) . . .
85(5) . . .
74(4) . . .
72(5) . . .
75(5) . . .
86(5) . . .
78(5) . . .
84(5) . . .
77(5) . . .
61(4) . . .
78(5) . . .
88(5) . . .
71(4) . . .
83(5) . . .
87(5) . . .
82(5) . . .
85(5) . . .
77(5) . . .
77(5) . . .
92(5) . . .
76(5) . . .
63(4) . . .
76(5) . . .
71(5) . . .
76(5) . . .
76(5) . . .
67(4) . . .
88(5) . . .
83(5) . . .
75(5) . . .
81(5) . . .
80(5) . . .
93(5) . . .
70(5) . . .
75(5) . . .
85(5) . . .
75(4) . . .
77(5) . . .
73(5) . . .
86(5) . . .
81(5) . . .
93(5) . . .
80(5) . . .
89(5) . . .
79(5) . . .
81(5) . . .
74(4) . . .
87(5) . . .
85(5) . . .
97(5) . . .
80(5) . . .
79(5) . . .
76(5) . . .
66(4) . . .
72(5) . . .
70(4) . . .
69(4) . . .
73(5) . . .
77(5) . . .
89(5) . . .
83(5) . . .
77(5) . . .
67(4) . . .
84(5) . . .
87(5) . . .
84(5) . . .
77(5) . . .
78(5) . . .
78(5) . . .
68(4) . . .
79(5) . . .
76(5) . . .
71(5) . . .
79(5) . . .
87(5) . . .
77(5) . . .
77(5) . . .
83(5) . . .
77(5) . . .
87(5) . . .
74(5) . . .
83(5) . . .
81(5) . . .
88(5) . . .
84(5) . . .
77(5) . . .
83(5) . . .
89(5) . . .
83(5) . . .
76(5) . . .
75(5) . . .
81(5) . . .
84(5) . . .
82(5) . . .
76(4) . . .
76(5) . . .
80(5) . . .
78(5) . . .
84(5) . . .
74(4) . . .
102(5) . . .
81(5) . . .
85(5) . . .
73(5) . . .
79(5) . . .
85(5) . . .
76(5) . . .
68(5) . . .
80(5) . . .
79(5) . . .
97(5) . . .
78(5) . . .
72(4) . . .
87(5) . . .
78(5) . . .
86(5) . . .
83(5) . . .
69(4) . . .
81(5) . . .
83(5) . . .
74(4) . . .
78(5) . . .
89(5) . . .
73(5) . . .
76(5) . . .
66(4) . . .
90(5) . . .
82(5) . . .
69(4) . . .
70(4) . . .
82(5) . . .
79(5) . . .
88(5) . . .
72(4) . . .
84(5) . . .
66(4) . . .
71(5) . . .
78(5) . . .
81(5) . . .
76(5) . . .
82(5) . . .
66(5) . . .
85(5) . . .
68(4) . . .
82(5) . . .
78(5) . . .
76(5) . . .
79(5) . . .
89(5) . . .
74(4) . . .
78(5) . . .
72(5) . . .
84(5) . . .
81(5) . . .
79(5) . . .
68(4) . . .
66(4) . . .
72(4) . . .
63(4) . . .
89(5) . . .
90(5) . . .
81(5) . . .
71(5) . . .
71(4) . . .
95(5) . . .
82(5) . . .
82(5) . . .
74(5) . . .
70(4) . . .
74(5) . . .
69(5) . . .
85(5) . . .
77(5) . . .
86(5) . . .
83(5) . . .
69(5) . . .
85(5) . . .
86(5) . . .
74(4) . . .
87(5) . . .
86(5) . . .
72(5) . . .
75(5) . . .
72(4) . . .
82(5) . . .
74(5) . . .
81(5) . . .
72(4) . . .
84(5) . . .
76(5) . . .
73(5) . . .
80(5) . . .
75(4) . . .
89(5) . . .
81(5) . . .
77(5) . . .
77(5) . . .
77(5) . . .
77(5) . . .
81(5) . . .
79(5) . . .
68(5) . . .
75(4) . . .
78(5) . . .
77(5) . . .
77(5) . . .
77(5) . . .
82(5) . . .
77(5) . . .
77(5) . . .
65(4) . . .
76(5) . . .
80(5) . . .
66(4) . . .
76(5) . . .
85(5) . . .
81(5) . . .
74(4) . . .
72(5) . . .
79(5) . . .
80(5) . . .
81(5) . . .
82(5) . . .
78(5) . . .
69(4) . . .
78(5) . . .
72(4) . . .
81(5) . . .
83(5) . . .
91(5) . . .
83(5) . . .
78(5) . . .
73(4) . . .
83(5) . . .
78(5) . . .
93(5) . . .
86(5) . . .
82(5) . . .
72(4) . . .
78(5) . . .
83(5) . . .
70(4) . . .
81(5) . . .
85(5) . . .
76(5) . . .
69(5) . . .
82(5) . . .
72(4) . . .
78(5) . . .
84(5) . . .
75(5) . . .
73(4) . . .
64(4) . . .
76(5) . . .
76(5) . . .
71(5) . . .
73(4) . . .
84(5) . . .
77(5) . . .
74(5) . . .
85(5) . . .
66(4) . . .
75(5) . . .
67(4) . . .
66(4) . . .
82(5) . . .
84(5) . . .
67(4) . . .
74(5) . . .
76(5) . . .
91(5) . . .
67(4) . . .
79(5) . . .
88(5) . . .
80(5) . . .
75(5) . . .
74(4) . . .
77(5) . . .
77(5) . . .
66(4) . . .
81(5) . . .
80(5) . . .
84(5) . . .
83(5) . . .
84(5) . . .
77(5) . . .
82(5) . . .
84(5) . . .
77(5) . . .
79(5) . . .
82(5) . . .
75(5) . . .
76(5) . . .
71(5) . . .
72(5) . . .
82(5) . . .
77(4) . . .
89(5) . . .
77(5) . . .
94(5) . . .
71(4) . . .
69(4) . . .
67(4) . . .
81(5) . . .
80(5) . . .
77(5) . . .
87(5) . . .
66(5) . . .
78(5) . . .
79(5) . . .
76(5) . . .
74(4) . . .
75(5) . . .
73(5) . . .
89(5) . . .
80(5) . . .
76(5) . . .
78(5) . . .
80(5) . . .
73(5) . . .
87(5) . . .
84(5) . . .
86(5) . . .
77(5) . . .
88(5) . . .
71(4) . . .
83(5) . . .
87(5) . . .
79(5) . . .
75(5) . . .
77(5) . . .
74(5) . . .
74(5) . . .
87(5) . . .
73(4) . . .
69(4) . . .
76(5) . . .
79(5) . . .
81(5) . . .
74(4) . . .
84(5) . . .
79(5) . . .
71(5) . . .
92(5) . . .
90(5) . . .
87(5) . . .
71(5) . . .
67(5) . . .
79(5) . . .
78(5) . . .
80(5) . . .
74(5) . . .
80(5) . . .
79(5) . . .
82(5) . . .
78(5) . . .
78(5) . . .
88(5) . . .
76(5) . . .
81(5) . . .
72(4) . . .
87(5) . . .
77(5) . . .
75(5) . . .
80(5) . . .
86(5) . . .
81(5) . . .
77(5) . . .
69(4) . . .
84(5) . . .
84(5) . . .
77(5) . . .
66(4) . . .
76(5) . . .
75(5) . . .
79(5) . . .
71(4) . . .
75(5) . . .
75(5) . . .
79(5) . . .
74(5) . . .
79(5) . . .
72(5) . . .
74(5) . . .
64(4) . . .
65(4) . . .
78(5) . . .
77(5) . . .
70(4) . . .
61(4) . . .
62(4) . . .
67(5) . . .
69(5) . . .
75(5) . . .
77(5) . . .
84(5) . . .
71(5) . . .
71(5) . . .
67(4) . . .
74(4) . . .
71(4) . . .
72(5) . . .
73(5) . . .
71(4) . . .
72(4) . . .
77(5) . . .
79(5) . . .
85(5) . . .
75(4) . . .
70(4) . . .
89(5) . . .
67(4) . . .
78(5) . . .
84(5) . . .
82(5) . . .
73(5) . . .
73(5) . . .
82(5) . . .
77(5) . . .
73(4) . . .
82(5) . . .
84(5) . . .
75(4) . . .
70(4) . . .
71(4) . . .
73(5) . . .
72(4) . . .
73(5) . . .
74(4) . . .
76(5) . . .
85(5) . . .
81(5) . . .
81(5) . . .
75(5) . . .
74(5) . . .
71(5) . . .
80(5) . . .
67(4) . . .
77(5) . . .
64(4) . . .
75(5) . . .
77(5) . . .
86(5) . . .
72(4) . . .
71(4) . . .
76(5) . . .
76(5) . . .
78(5) . . .
81(5) . . .
87(5) . . .
77(5) . . .
65(4) . . .
84(5) . . .
78(5) . . .
85(5) . . .
82(5) . . .
71(4) . . .
79(5) . . .
76(5) . . .
67(4) . . .
81(5) . . .
86(5) . . .
69(4) . . .
79(5) . . .
76(5) . . .
96(5) . . .
78(5) . . .
82(5) . . .
72(5) . . .
76(5) . . .
80(5) . . .
59(4) . . .
71(4) . . .
70(4) . . .
80(5) . . .
73(5) . . .
73(4) . . .
71(4) . . .
83(5) . . .
81(5) . . .
77(5) . . .
74(5) . . .
71(4) . . .
73(5) . . .
91(5) . . .
77(5) . . .
80(5) . . .
80(5) . . .
74(5) . . .
86(5) . . .
85(5) . . .
85(5) . . .
86(5) . . .
82(5) . . .
85(5) . . .
77(5) . . .
81(5) . . .
83(5) . . .
80(5) . . .
80(5) . . .
80(5) . . .
77(5) . . .
79(5) . . .
80(5) . . .
84(5) . . .
81(5) . . .
73(4) . . .
70(4) . . .
63(4) . . .
90(5) . . .
85(5) . . .
74(4) . . .
71(4) . . .
63(4) . . .
75(5) . . .
85(5) . . .
70(4) . . .
75(5) . . .
75(5) . . .
82(5) . . .
79(5) . . .
83(5) . . .
102(5) . . .
81(5) . . .
90(5) . . .
84(5) . . .
79(5) . . .
86(5) . . .
91(5) . . .
79(5) . . .
75(5) . . .
77(5) . . .
87(5) . . .
82(5) . . .
81(5) . . .
74(5) . . .
76(5) . . .
70(5) . . .
72(5) . . .
62(4) . . .
72(4) . . .
80(5) . . .
76(5) . . .
78(5) . . .
63(4) . . .
76(5) . . .
73(4) . . .
73(5) . . .
80(5) . . .
74(5) . . .
81(5) . . .
86(5) . . .
78(5) . . .
81(5) . . .
81(5) . . .
71(4) . . .
73(5) . . .
90(5) . . .
66(4) . . .
75(5) . . .
69(4) . . .
86(5) . . .
76(5) . . .
67(4) . . .
89(5) . . .
81(5) . . .
87(5) . . .
84(5) . . .
76(5) . . .
75(5) . . .
72(4) . . .
75(5) . . .
67(4) . . .
64(4) . . .
83(5) . . .
79(5) . . .
73(5) . . .
74(5) . . .
84(5) . . .
70(4) . . .
74(5) . . .
81(5) . . .
84(5) . . .
79(5) . . .
85(5) . . .
81(5) . . .
81(5) . . .
88(5) . . .
67(4) . . .
83(5) . . .
79(5) . . .
89(5) . . .
71(5) . . .
73(5) . . .
81(5) . . .
63(4) . . .
70(4) . . .
78(5) . . .
71(4) . . .
82(5) . . .
76(5) . . .
80(5) . . .
85(5) . . .
71(5) . . .
85(5) . . .
75(5) . . .
75(5) . . .
83(5) . . .
82(5) . . .
78(5) . . .
74(4) . . .
72(4) . . .
81(5) . . .
81(5) . . .
89(5) . . .
76(5) . . .
65(4) . . .
69(4) . . .
75(5) . . .
71(4) . . .
76(5) . . .
81(5) . . .
78(5) . . .
75(5) . . .
79(5) . . .
84(5) . . .
80(5) . . .
76(5) . . .
71(5) . . .
66(4) . . .
78(5) . . .
76(5) . . .
76(5) . . .
95(5) . . .
78(5) . . .
81(5) . . .
79(5) . . .
72(5) . . .
73(5) . . .
74(4) . . .
71(5) . . .
74(5) . . .
79(5) . . .
79(5) . . .
81(5) . . .
74(5) . . .
93(6) . . .
72(4) . . .
76(5) . . .
76(5) . . .
84(5) . . .
70(5) . . .
75(5) . . .
65(4) . . .
73(4) . . .
75(5) . . .
78(5) . . .
78(5) . . .
76(5) . . .
76(5) . . .
76(5) . . .
76(5) . . .
68(4) . . .
79(5) . . .
74(5) . . .
80(5) . . .
84(5) . . .
84(5) . . .
74(4) . . .
68(4) . . .
75(5) . . .
87(5) . . .
101(5) . . .
77(5) . . .
79(5) . . .
63(4) . . .
86(5) . . .
75(4) . . .
84(5) . . .
70(5) . . .
64(5) . . .
74(5) . . .
71(4) . . .
73(4) . . .
85(5) . . .
82(5) . . .
70(4) . . .
79(5) . . .
82(5) . . .
77(5) . . .
77(5) . . .
81(5) . . .
73(4) . . .
81(5) . . .
73(5) . . .
74(5) . . .
82(5) . . .
76(5) . . .
73(4) . . .
81(5) . . .
82(5) . . .
59(4) . . .
71(4) . . .
68(4) . . .
67(4) . . .
78(5) . . .
70(4) . . .
75(5) . . .
71(4) . . .
78(5) . . .
78(5) . . .
77(5) . . .
99(5) . . .
76(5) . . .
71(5) . . .
82(5) . . .
81(5) . . .
78(5) . . .
74(4) . . .
81(5) . . .
72(5) . . .
77(5) . . .
78(5) . . .
78(5) . . .
77(5) . . .
84(5) . . .
90(5) . . .
87(5) . . .
72(5) . . .
75(5) . . .
62(4) . . .
74(4) . . .
69(4) . . .
78(5) . . .
80(5) . . .
58(4) . . .
65(4) . . .
82(5) . . .
78(5) . . .
77(5) . . .
78(5) . . .
67(4) . . .
67(4) . . .
74(5) . . .
73(5) . . .
75(5) . . .
68(4) . . .
76(4) . . .
64(4) . . .
67(5) . . .
72(4) . . .
78(5) . . .
63(4) . . .
79(5) . . .
74(5) . . .
67(4) . . .
76(5) . . .
73(4) . . .
77(5) . . .
74(5) . . .
87(5) . . .
83(5) . . .
71(4) . . .
96(5) . . .
73(5) . . .
76(5) . . .
78(5) . . .
77(5) . . .
77(5) . . .
78(5) . . .
89(5) . . .
77(5) . . .
71(5) . . .
82(5) . . .
81(5) . . .
71(4) . . .
72(4) . . .
74(5) . . .
77(5) . . .
65(4) . . .
69(4) . . .
86(5) . . .
73(5) . . .
77(5) . . .
66(4) . . .
57(4) . . .
66(4) . . .
72(4) . . .
73(5) . . .
68(5) . . .
69(4) . . .
86(5) . . .
72(5) . . .
76(5) . . .
78(5) . . .
76(5) . . .
73(4) . . .
74(5) . . .
78(5) . . .
72(4) . . .
74(4) . . .
76(5) . . .
78(5) . . .
77(5) . . .
83(5) . . .
97(5) . . .
69(5) . . .
85(5) . . .
71(5) . . .
59(4) . . .
72(4) . . .
79(5) . . .
76(5) . . .
85(5) . . .
73(5) . . .
80(5) . . .
67(4) . . .
74(5) . . .
72(5) . . .
71(5) . . .
67(4) . . .
78(5) . . .
92(5) . . .
71(5) . . .
79(5) . . .
68(4) . . .
71(4) . . .
80(5) . . .
63(4) . . .
75(5) . . .
74(4) . . .
74(5) . . .
84(5) . . .
77(5) . . .
86(5) . . .
75(5) . . .
73(5) . . .
71(5) . . .
78(5) . . .
63(4) . . .
76(5) . . .
81(5) . . .
85(5) . . .
75(5) . . .
75(4) . . .
59(4) . . .
67(4) . . .
75(5) . . .
66(4) . . .
76(5) . . .
71(4) . . .
78(5) . . .
80(5) . . .
83(5) . . .
86(5) . . .
73(4) . . .
79(5) . . .
84(5) . . .
82(5) . . .
78(5) . . .
62(4) . . .
71(4) . . .
75(5) . . .
79(5) . . .
62(4) . . .
57(4) . . .
64(4) . . .
77(5) . . .
67(4) . . .
71(4) . . .
73(5) . . .
69(4) . . .
79(5) . . .
75(5) . . .
64(4) . . .
82(5) . . .
83(5) . . .
83(5) . . .
72(5) . . .
66(4) . . .
73(4) . . .
72(5) . . .
77(5) . . .
74(4) . . .
62(4) . . .
78(5) . . .
67(4) . . .
72(5) . . .
62(4) . . .
59(4) . . .
67(4) . . .
69(5) . . .
71(5) . . .
67(4) . . .
80(5) . . .
72(5) . . .
77(5) . . .
66(4) . . .
65(4) . . .
73(5) . . .
66(4) . . .
67(5) . . .
81(5) . . .
88(5) . . .
73(4) . . .
67(4) . . .
78(5) . . .
71(4) . . .
82(5) . . .
78(5) . . .
72(5) . . .
71(5) . . .
85(5) . . .
71(4) . . .
76(5) . . .
70(4) . . .
76(5) . . .
78(5) . . .
62(4) . . .
71(4) . . .
69(4) . . .
80(5) . . .
74(4) . . .
93(5) . . .
66(4) . . .
59(4) . . .
75(5) . . .
80(5) . . .
82(5) . . .
79(5) . . .
74(5) . . .
68(4) . . .
76(5) . . .
83(5) . . .
75(5) . . .
75(5) . . .
79(5) . . .
73(5) . . .
62(4) . . .
71(4) . . .
89(5) . . .
74(5) . . .
72(4) . . .
78(5) . . .
76(5) . . .
68(5) . . .
89(5) . . .
77(5) . . .
79(5) . . .
77(5) . . .
79(5) . . .
81(5) . . .
84(5) . . .
76(5) . . .
75(5) . . .
67(5) . . .
64(4) . . .
74(4) . . .
75(4) . . .
70(5) . . .
81(5) . . .
72(4) . . .
72(4) . . .
81(5) . . .
66(4) . . .
67(4) . . .
78(5) . . .
69(4) . . .
73(5) . . .
71(5) . . .
71(5) . . .
83(5) . . .
91(5) . . .
71(4) . . .
69(5) . . .
70(5) . . .
63(4) . . .
74(4) . . .
78(5) . . .
75(4) . . .
80(5) . . .
69(4) . . .
70(5) . . .
65(4) . . .
72(5) . . .
67(4) . . .
67(4) . . .
68(4) . . .
70(5) . . .
64(4) . . .
77(5) . . .
87(5) . . .
72(4) . . .
77(5) . . .
75(5) . . .
79(5) . . .
78(5) . . .
74(4) . . .
65(4) . . .
63(5) . . .
66(4) . . .
79(5) . . .
86(5) . . .
82(5) . . .
67(5) . . .
60(4) . . .
70(4) . . .
65(4) . . .
75(5) . . .
71(5) . . .
66(4) . . .
71(4) . . .
82(5) . . .
71(4) . . .
74(5) . . .
79(5) . . .
72(4) . . .
58(4) . . .
69(5) . . .
81(5) . . .
67(4) . . .
57(4) . . .
65(4) . . .
78(5) . . .
66(4) . . .
59(4) . . .
65(4) . . .
69(4) . . .
83(5) . . .
86(5) . . .
73(5) . . .
80(5) . . .
71(4) . . .
73(5) . . .
73(5) . . .
78(5) . . .
83(5) . . .
74(5) . . .
72(5) . . .
68(4) . . .
57(4) . . .
60(4) . . .
69(4) . . .
80(5) . . .
67(4) . . .
72(5) . . .
73(4) . . .
71(5) . . .
76(5) . . .
76(5) . . .
84(5) . . .
81(5) . . .
63(4) . . .
67(5) . . .
64(4) . . .
65(4) . . .
69(4) . . .
76(5) . . .
79(5) . . .
66(4) . . .
74(5) . . .
74(4) . . .
65(4) . . .
74(5) . . .
74(5) . . .
67(4) . . .
67(4) . . .
67(4) . . .
64(4) . . .
63(4) . . .
67(4) . . .
81(5) . . .
64(4) . . .
73(5) . . .
77(5) . . .
66(4) . . .
69(4) . . .
72(5) . . .
67(5) . . .
65(4) . . .
70(4) . . .
75(5) . . .
75(5) . . .
70(5) . . .
72(5) . . .
77(5) . . .
76(5) . . .
76(5) . . .
84(5) . . .
72(4) . . .
72(4) . . .
72(5) . . .
70(5) . . .
65(4) . . .
54(4) . . .
83(5) . . .
73(4) . . .
78(5) . . .
75(5) . . .
73(5) . . .
71(4) . . .
65(4) . . .
72(5) . . .
84(5) . . .
88(5) . . .
77(5) . . .
81(5) . . .
91(5) . . .
76(5) . . .
77(5) . . .
75(5) . . .
79(5) . . .
75(5) . . .
82(5) . . .
63(4) . . .
68(4) . . .
70(4) . . .
59(4) . . .
73(5) . . .
78(5) . . .
70(5) . . .
67(4) . . .
68(4) . . .
87(5) . . .
67(4) . . .
66(4) . . .
75(5) . . .
75(5) . . .
71(5) . . .
71(4) . . .
75(5) . . .
83(5) . . .
84(5) . . .
68(4) . . .
67(4) . . .
67(4) . . .
76(5) . . .
70(5) . . .
64(4) . . .
72(4) . . .
70(4) . . .
74(5) . . .
63(4) . . .
65(4) . . .
74(4) . . .
68(4) . . .
63(4) . . .
76(5) . . .
72(5) . . .
67(4) . . .
68(5) . . .
73(5) . . .
74(5) . . .
72(4) . . .
76(5) . . .
70(4) . . .
71(5) . . .
66(4) . . .
67(4) . . .
75(5) . . .
78(5) . . .
82(5) . . .
70(4) . . .
69(4) . . .
69(4) . . .
70(5) . . .
63(4) . . .
69(4) . . .
74(5) . . .
65(4) . . .
63(4) . . .
69(5) . . .
64(4) . . .
82(5) . . .
76(5) . . .
77(5) . . .
71(4) . . .
67(4) . . .
66(4) . . .
74(5) . . .
71(4) . . .
80(5) . . .
71(4) . . .
66(4) . . .
69(4) . . .
64(4) . . .
73(5) . . .
70(4) . . .
55(4) . . .
58(4) . . .
70(5) . . .
70(4) . . .
68(4) . . .
80(5) . . .
66(4) . . .
70(5) . . .
70(5) . . .
63(4) . . .
72(4) . . .
68(4) . . .
73(5) . . .
85(5) . . .
70(4) . . .
71(4) . . .
89(5) . . .
80(5) . . .
79(5) . . .
66(4) . . .
75(4) . . .
73(5) . . .
76(5) . . .
76(5) . . .
65(4) . . .
69(4) . . .
68(4) . . .
66(4) . . .
78(5) . . .
92(5) . . .
75(5) . . .
70(4) . . .
67(4) . . .
80(5) . . .
70(4) . . .
78(5) . . .
63(4) . . .
73(5) . . .
69(4) . . .
75(4) . . .
71(4) . . .
75(5) . . .
67(4) . . .
74(5) . . .
83(5) . . .
75(5) . . .
79(5) . . .
68(4) . . .
68(4) . . .
75(4) . . .
69(4) . . .
69(5) . . .
76(5) . . .
63(4) . . .
73(4) . . .
65(4) . . .
69(5) . . .
85(5) . . .
78(5) . . .
67(4) . . .
65(4) . . .
80(5) . . .
80(5) . . .
70(4) . . .
60(4) . . .
74(5) . . .
83(5) . . .
61(4) . . .
68(4) . . .
66(4) . . .
79(5) . . .
85(5) . . .
70(5) . . .
68(4) . . .
76(5) . . .
81(5) . . .
73(5) . . .
77(5) . . .
68(4) . . .
70(4) . . .
68(4) . . .
75(5) . . .
84(5) . . .
63(4) . . .
79(5) . . .
81(5) . . .
63(4) . . .
70(5) . . .
75(4) . . .
64(4) . . .
73(5) . . .
78(5) . . .
85(5) . . .
76(5) . . .
74(5) . . .
68(5) . . .
69(5) . . .
74(5) . . .
79(5) . . .
73(5) . . .
78(5) . . .
83(5) . . .
82(5) . . .
68(4) . . .
65(4) . . .
71(5) . . .
63(4) . . .
65(4) . . .
74(4) . . .
74(5) . . .
75(5) . . .
78(5) . . .
69(4) . . .
79(5) . . .
74(5) . . .
63(4) . . .
75(5) . . .
77(5) . . .
58(4) . . .
60(4) . . .
67(5) . . .
79(5) . . .
67(4) . . .
72(4) . . .
61(4) . . .
72(5) . . .
71(5) . . .
69(4) . . .
65(4) . . .
71(5) . . .
66(4) . . .
80(5) . . .
68(4) . . .
66(4) . . .
71(5) . . .
76(5) . . .
70(4) . . .
76(4) . . .
77(5) . . .
76(5) . . .
80(5) . . .
74(4) . . .
64(4) . . .
66(5) . . .
72(5) . . .
71(4) . . .
76(5) . . .
63(4) . . .
65(4) . . .
73(5) . . .
64(5) . . .
58(4) . . .
68(4) . . .
64(4) . . .
56(4) . . .
66(4) . . .
58(4) . . .
64(4) . . .
72(5) . . .
80(5) . . .
60(4) . . .
73(5) . . .
71(4) . . .
84(5) . . .
74(5) . . .
68(4) . . .
72(4) . . .
61(4) . . .
73(5) . . .
63(4) . . .
79(5) . . .
70(4) . . .
61(4) . . .
65(4) . . .
74(5) . . .
76(5) . . .
64(4) . . .
69(4) . . .
73(5) . . .
75(5) . . .
69(4) . . .
66(4) . . .
77(5) . . .
63(4) . . .
61(4) . . .
66(4) . . .
71(4) . . .
80(5) . . .
82(5) . . .
71(5) . . .
70(5) . . .
75(4) . . .
63(4) . . .
63(4) . . .
66(4) . . .
66(4) . . .
76(5) . . .
68(4) . . .
81(5) . . .
66(4) . . .
70(4) . . .
72(4) . . .
81(5) . . .
73(5) . . .
71(4) . . .
80(5) . . .
71(5) . . .
67(4) . . .
64(4) . . .
69(4) . . .
64(4) . . .
70(4) . . .
65(4) . . .
76(5) . . .
60(4) . . .
73(4) . . .
68(4) . . .
70(4) . . .
67(4) . . .
71(5) . . .
68(4) . . .
70(4) . . .
66(4) . . .
85(5) . . .
74(5) . . .
72(4) . . .
68(4) . . .
75(5) . . .
77(5) . . .
77(5) . . .
71(4) . . .
70(4) . . .
67(4) . . .
73(4) . . .
65(4) . . .
57(4) . . .
63(4) . . .
65(4) . . .
72(5) . . .
63(4) . . .
76(5) . . .
64(4) . . .
57(4) . . .
67(5) . . .
57(4) . . .
84(5) . . .
76(5) . . .
72(5) . . .
71(5) . . .
62(4) . . .
77(5) . . .
64(4) . . .
58(4) . . .
77(5) . . .
66(4) . . .
72(4) . . .
66(4) . . .
61(4) . . .
56(4) . . .
73(4) . . .
86(5) . . .
70(4) . . .
76(5) . . .
71(5) . . .
66(4) . . .
60(4) . . .
68(4) . . .
65(4) . . .
76(5) . . .
67(4) . . .
74(4) . . .
76(5) . . .
62(4) . . .
73(5) . . .
76(5) . . .
73(4) . . .
71(4) . . .
68(4) . . .
61(4) . . .
64(4) . . .
70(4) . . .
78(5) . . .
75(5) . . .
66(4) . . .
62(4) . . .
64(4) . . .
79(5) . . .
79(5) . . .
68(4) . . .
59(4) . . .
77(5) . . .
76(5) . . .
82(5) . . .
67(4) . . .
66(4) . . .
73(5) . . .
63(4) . . .
69(5) . . .
82(5) . . .
70(4) . . .
68(4) . . .
77(5) . . .
72(4) . . .
64(4) . . .
77(5) . . .
72(4) . . .
69(5) . . .
57(4) . . .
59(4) . . .
63(4) . . .
72(5) . . .
68(5) . . .
72(5) . . .
80(5) . . .
74(5) . . .
63(4) . . .
79(5) . . .
65(4) . . .
65(4) . . .
72(4) . . .
61(4) . . .
61(4) . . .
69(4) . . .
65(4) . . .
67(4) . . .
86(5) . . .
82(5) . . .
70(4) . . .
78(5) . . .
67(4) . . .
68(4) . . .
52(4) . . .
71(5) . . .
74(5) . . .
69(4) . . .
84(5) . . .
72(5) . . .
60(4) . . .
65(4) . . .
72(5) . . .
67(5) . . .
62(4) . . .
86(5) . . .
89(5) . . .
64(4) . . .
69(5) . . .
71(5) . . .
60(4) . . .
69(4) . . .
69(4) . . .
82(5) . . .
82(5) . . .
70(4) . . .
65(4) . . .
66(4) . . .
74(5) . . .
60(4) . . .
74(4) . . .
69(4) . . .
68(4) . . .
73(5) . . .
75(5) . . .
58(4) . . .
58(4) . . .
71(5) . . .
74(5) . . .
68(4) . . .
65(4) . . .
75(4) . . .
59(4) . . .
78(5) . . .
67(4) . . .
68(4) . . .
79(5) . . .
75(5) . . .
60(4) . . .
67(4) . . .
57(4) . . .
60(4) . . .
70(5) . . .
65(4) . . .
70(4) . . .
68(4) . . .
77(5) . . .
65(4) . . .
74(5) . . .
73(5) . . .
59(4) . . .
60(4) . . .
66(4) . . .
76(5) . . .
79(5) . . .
73(4) . . .
66(4) . . .
72(5) . . .
59(4) . . .
62(4) . . .
72(4) . . .
72(4) . . .
70(5) . . .
70(4) . . .
64(4) . . .
74(4) . . .
65(4) . . .
65(5) . . .
64(4) . . .
78(5) . . .
65(4) . . .
74(5) . . .
72(5) . . .
68(4) . . .
73(4) . . .
65(4) . . .
72(5) . . .
69(5) . . .
71(5) . . .
66(4) . . .
74(5) . . .
60(4) . . .
66(5) . . .
63(4) . . .
68(4) . . .
77(5) . . .
73(5) . . .
56(4) . . .
70(5) . . .
61(4) . . .
58(4) . . .
71(5) . . .
65(5) . . .
58(4) . . .
75(4) . . .
65(4) . . .
65(4) . . .
65(4) . . .
72(5) . . .
55(4) . . .
68(4) . . .
67(4) . . .
71(4) . . .
71(4) . . .
70(4) . . .
62(4) . . .
79(5) . . .
71(4) . . .
72(4) . . .
71(4) . . .
64(4) . . .
63(4) . . .
72(5) . . .
64(4) . . .
67(4) . . .
80(5) . . .
64(4) . . .
64(4) . . .
82(5) . . .
68(4) . . .
63(4) . . .
65(4) . . .
66(4) . . .
59(4) . . .
60(4) . . .
63(4) . . .
83(5) . . .
67(4) . . .
70(4) . . .
74(4) . . .
70(4) . . .
81(5) . . .
61(4) . . .
68(4) . . .
75(5) . . .
63(4) . . .
65(5) . . .
54(4) . . .
61(4) . . .
65(4) . . .
74(5) . . .
71(5) . . .
69(4) . . .
71(4) . . .
73(4) . . .
70(5) . . .
62(4) . . .
78(5) . . .
61(4) . . .
69(4) . . .
76(5) . . .
64(4) . . .
73(5) . . .
77(5) . . .
70(4) . . .
77(5) . . .
63(4) . . .
60(4) . . .
67(4) . . .
74(5) . . .
63(4) . . .
71(5) . . .
81(5) . . .
75(5) . . .
67(4) . . .
69(5) . . .
79(5) . . .
62(4) . . .
71(4) . . .
64(4) . . .
60(4) . . .
63(4) . . .
75(5) . . .
66(4) . . .
66(4) . . .
69(5) . . .
63(4) . . .
74(5) . . .
60(4) . . .
63(4) . . .
67(5) . . .
69(4) . . .
64(4) . . .
69(4) . . .
64(4) . . .
65(4) . . .
70(5) . . .
69(4) . . .
69(4) . . .
70(5) . . .
66(4) . . .
78(5) . . .
74(4) . . .
62(4) . . .
65(4) . . .
70(5) . . .
74(5) . . .
74(5) . . .
69(4) . . .
70(4) . . .
64(4) . . .
65(4) . . .
68(4) . . .
69(4) . . .
67(4) . . .
68(4) . . .
66(4) . . .
67(4) . . .
55(4) . . .
64(4) . . .
73(5) . . .
75(5) . . .
68(4) . . .
59(4) . . .
64(4) . . .
76(5) . . .
67(4) . . .
55(4) . . .
74(5) . . .
65(4) . . .
64(4) . . .
73(5) . . .
60(4) . . .
68(4) . . .
65(4) . . .
60(4) . . .
59(4) . . .
67(4) . . .
59(4) . . .
67(5) . . .
81(5) . . .
77(5) . . .
68(4) . . .
63(4) . . .
64(4) . . .
68(4) . . .
71(4) . . .
58(4) . . .
65(4) . . .
63(4) . . .
58(4) . . .
70(4) . . .
72(4) . . .
72(5) . . .
68(5) . . .
59(4) . . .
72(4) . . .
68(4) . . .
72(5) . . .
74(5) . . .
64(4) . . .
69(4) . . .
69(4) . . .
63(4) . . .
58(4) . . .
61(4) . . .
64(4) . . .
71(5) . . .
57(4) . . .
67(4) . . .
63(4) . . .
68(4) . . .
61(4) . . .
75(5) . . .
66(4) . . .
63(4) . . .
66(4) . . .
66(5) . . .
70(5) . . .
70(4) . . .
62(4) . . .
65(4) . . .
67(5) . . .
62(4) . . .
69(4) . . .
74(5) . . .
67(4) . . .
76(5) . . .
60(4) . . .
62(4) . . .
66(4) . . .
67(4) . . .
68(5) . . .
65(5) . . .
69(4) . . .
55(4) . . .
66(4) . . .
62(4) . . .
50(4) . . .
66(5) . . .
61(4) . . .
73(5) . . .
69(5) . . .
77(5) . . .
60(4) . . .
81(5) . . .
70(4) . . .
74(5) . . .
68(4) . . .
63(4) . . .
68(4) . . .
72(5) . . .
63(4) . . .
51(4) . . .
73(5) . . .
63(4) . . .
58(4) . . .
65(4) . . .
63(4) . . .
73(5) . . .
70(4) . . .
60(4) . . .
61(4) . . .
58(4) . . .
66(4) . . .
68(4) . . .
67(4) . . .
65(4) . . .
66(4) . . .
73(4) . . .
62(4) . . .
55(4) . . .
55(4) . . .
49(4) . . .
71(5) . . .
63(4) . . .
64(4) . . .
59(4) . . .
60(4) . . .
65(4) . . .
61(4) . . .
65(4) . . .
76(5) . . .
76(5) . . .
63(4) . . .
72(4) . . .
70(5) . . .
57(4) . . .
58(4) . . .
59(4) . . .
66(4) . . .
64(5) . . .
69(5) . . .
67(4) . . .
79(5) . . .
62(4) . . .
62(4) . . .
65(4) . . .
77(5) . . .
60(4) . . .
72(4) . . .
62(4) . . .
57(4) . . .
67(4) . . .
77(5) . . .
70(4) . . .
61(4) . . .
60(4) . . .
73(5) . . .
63(4) . . .
61(4) . . .
64(4) . . .
60(4) . . .
67(4) . . .
65(4) . . .
65(4) . . .
68(4) . . .
72(5) . . .
70(4) . . .
63(4) . . .
64(4) . . .
62(4) . . .
73(5) . . .
75(5) . . .
73(5) . . .
59(4) . . .
66(4) . . .
59(4) . . .
67(4) . . .
65(4) . . .
71(5) . . .
75(5) . . .
65(4) . . .
74(5) . . .
69(4) . . .
61(4) . . .
62(4) . . .
72(4) . . .
67(4) . . .
70(4) . . .
66(4) . . .
72(5) . . .
60(4) . . .
58(4) . . .
73(5) . . .
73(5) . . .
70(4) . . .
68(4) . . .
81(5) . . .
82(5) . . .
74(5) . . .
67(5) . . .
64(4) . . .
61(4) . . .
76(5) . . .
68(4) . . .
74(5) . . .
69(4) . . .
58(4) . . .
64(4) . . .
66(4) . . .
58(4) . . .
61(4) . . .
76(5) . . .
68(5) . . .
62(4) . . .
65(4) . . .
67(4) . . .
68(4) . . .
67(4) . . .
72(5) . . .
71(5) . . .
68(4) . . .
60(4) . . .
67(4) . . .
60(4) . . .
78(5) . . .
74(5) . . .
62(4) . . .
56(4) . . .
63(4) . . .
65(4) . . .
61(4) . . .
69(4) . . .
67(4) . . .
67(5) . . .
66(5) . . .
61(4) . . .
67(4) . . .
70(4) . . .
66(4) . . .
73(5) . . .
69(4) . . .
74(4) . . .
73(5) . . .
78(5) . . .
66(4) . . .
61(4) . . .
68(4) . . .
75(5) . . .
61(4) . . .
69(4) . . .
78(5) . . .
53(4) . . .
67(4) . . .
65(4) . . .
61(4) . . .
57(4) . . .
66(4) . . .
59(4) . . .
58(4) . . .
66(4) . . .
60(4) . . .
58(4) . . .
65(4) . . .
74(5) . . .
70(4) . . .
68(4) . . .
69(4) . . .
68(5) . . .
73(5) . . .
75(5) . . .
61(4) . . .
62(4) . . .
59(4) . . .
61(4) . . .
71(4) . . .
63(4) . . .
56(4) . . .
69(5) . . .
62(4) . . .
71(4) . . .
61(4) . . .
64(4) . . .
62(4) . . .
66(4) . . .
68(4) . . .
58(4) . . .
60(4) . . .
77(5) . . .
75(5) . . .
71(4) . . .
66(4) . . .
66(4) . . .
71(5) . . .
68(4) . . .
59(4) . . .
53(4) . . .
57(4) . . .
61(4) . . .
64(4) . . .
60(4) . . .
67(5) . . .
65(4) . . .
71(5) . . .
69(4) . . .
64(4) . . .
72(5) . . .
65(4) . . .
68(4) . . .
65(4) . . .
80(5) . . .
63(4) . . .
63(4) . . .
76(5) . . .
72(5) . . .
68(4) . . .
67(5) . . .
64(4) . . .
76(5) . . .
65(4) . . .
60(4) . . .
61(4) . . .
63(4) . . .
79(5) . . .
67(4) . . .
67(4) . . .
75(5) . . .
67(4) . . .
65(4) . . .
63(4) . . .
49(4) . . .
75(5) . . .
58(4) . . .
63(4) . . .
56(4) . . .
59(4) . . .
62(4) . . .
62(4) . . .
73(5) . . .
65(4) . . .
62(4) . . .
49(4) . . .
66(5) . . .
71(4) . . .
66(4) . . .
68(4) . . .
56(4) . . .
65(5) . . .
62(4) . . .
59(4) . . .
55(4) . . .
67(4) . . .
71(5) . . .
68(4) . . .
66(4) . . .
66(4) . . .
71(5) . . .
55(4) . . .
66(4) . . .
62(4) . . .
66(4) . . .
71(5) . . .
70(5) . . .
63(4) . . .
69(4) . . .
67(5) . . .
67(5) . . .
66(4) . . .
67(4) . . .
63(4) . . .
70(4) . . .
72(5) . . .
74(5) . . .
63(4) . . .
79(5) . . .
63(4) . . .
74(5) . . .
66(4) . . .
63(4) . . .
73(5) . . .
64(4) . . .
61(4) . . .
67(5) . . .
60(4) . . .
62(4) . . .
67(4) . . .
71(5) . . .
68(4) . . .
73(5) . . .
61(4) . . .
69(4) . . .
58(4) . . .
67(5) . . .
67(4) . . .
60(4) . . .
53(4) . . .
62(4) . . .
56(4) . . .
72(4) . . .
56(4) . . .
63(4) . . .
67(4) . . .
69(4) . . .
72(4) . . .
61(4) . . .
62(4) . . .
63(4) . . .
68(4) . . .
63(4) . . .
64(4) . . .
63(4) . . .
65(4) . . .
65(4) . . .
64(4) . . .
61(4) . . .
70(5) . . .
60(4) . . .
64(4) . . .
70(4) . . .
60(4) . . .
56(4) . . .
60(4) . . .
85(5) . . .
65(4) . . .
72(4) . . .
79(5) . . .
74(5) . . .
64(4) . . .
67(4) . . .
52(4) . . .
62(5) . . .
66(4) . . .
62(4) . . .
61(4) . . .
63(4) . . .
63(4) . . .
60(4) . . .
66(4) . . .
64(4) . . .
61(4) . . .
70(5) . . .
60(4) . . .
62(4) . . .
67(4) . . .
77(5) . . .
68(4) . . .
77(5) . . .
73(4) . . .
65(4) . . .
61(4) . . .
72(5) . . .
73(5) . . .
62(4) . . .
64(4) . . .
67(5) . . .
55(4) . . .
65(4) . . .
61(4) . . .
66(4) . . .
60(4) . . .
64(4) . . .
72(5) . . .
64(4) . . .
73(5) . . .
65(4) . . .
60(4) . . .
62(4) . . .
56(4) . . .
62(4) . . .
70(5) . . .
53(4) . . .
59(4) . . .
59(4) . . .
62(4) . . .
72(5) . . .
75(5) . . .
66(4) . . .
63(4) . . .
55(4) . . .
62(5) . . .
63(4) . . .
63(4) . . .
62(4) . . .
63(4) . . .
63(4) . . .
64(4) . . .
70(4) . . .
69(4) . . .
70(4) . . .
65(5) . . .
59(4) . . .
58(4) . . .
72(5) . . .
72(5) . . .
63(4) . . .
55(4) . . .
70(4) . . .
63(4) . . .
61(4) . . .
64(4) . . .
62(4) . . .
63(4) . . .
71(4) . . .
63(4) . . .
63(4) . . .
66(4) . . .
73(5) . . .
58(4) . . .
58(4) . . .
73(5) . . .
68(4) . . .
66(4) . . .
65(5) . . .
67(5) . . .
67(4) . . .
73(5) . . .
65(4) . . .
61(4) . . .
63(5) . . .
59(4) . . .
60(4) . . .
64(4) . . .
71(5) . . .
65(4) . . .
60(4) . . .
64(4) . . .
63(4) . . .
59(4) . . .
70(5) . . .
54(4) . . .
68(4) . . .
74(5) . . .
64(4) . . .
59(4) . . .
66(5) . . .
69(4) . . .
64(4) . . .
53(4) . . .
74(5) . . .
80(5) . . .
73(4) . . .
61(4) . . .
61(4) . . .
68(5) . . .
64(4) . . .
69(4) . . .
73(4) . . .
67(4) . . .
60(4) . . .
56(4) . . .
79(5) . . .
66(4) . . .
68(4) . . .
66(4) . . .
64(4) . . .
66(4) . . .
69(4) . . .
61(4) . . .
69(5) . . .
55(4) . . .
74(5) . . .
63(4) . . .
65(4) . . .
62(4) . . .
61(4) . . .
65(4) . . .
60(4) . . .
53(4) . . .
58(4) . . .
64(4) . . .
65(4) . . .
62(4) . . .
69(5) . . .
63(4) . . .
67(4) . . .
75(4) . . .
66(4) . . .
63(4) . . .
60(4) . . .
67(4) . . .
65(4) . . .
77(5) . . .
70(5) . . .
58(4) . . .
68(4) . . .
66(4) . . .
53(4) . . .
59(4) . . .
52(4) . . .
62(4) . . .
58(4) . . .
52(4) . . .
62(4) . . .
56(4) . . .
60(4) . . .
65(4) . . .
62(4) . . .
59(4) . . .
66(5) . . .
67(4) . . .
70(4) . . .
65(4) . . .
61(4) . . .
73(5) . . .
61(4) . . .
67(4) . . .
52(4) . . .
68(4) . . .
63(4) . . .
56(4) . . .
53(4) . . .
64(5) . . .
73(5) . . .
57(4) . . .
55(4) . . .
59(4) . . .
59(4) . . .
63(4) . . .
56(4) . . .
68(4) . . .
58(4) . . .
61(4) . . .
74(5) . . .
64(4) . . .
68(4) . . .
65(5) . . .
59(4) . . .
73(5) . . .
52(4) . . .
65(4) . . .
61(4) . . .
65(4) . . .
61(4) . . .
65(4) . . .
54(4) . . .
60(4) . . .
69(5) . . .
69(4) . . .
75(5) . . .
74(5) . . .
69(5) . . .
57(4) . . .
66(4) . . .
60(4) . . .
63(4) . . .
58(4) . . .
64(4) . . .
62(4) . . .
56(4) . . .
54(4) . . .
76(5) . . .
77(5) . . .
66(5) . . .
63(4) . . .
58(4) . . .
63(4) . . .
63(4) . . .
67(4) . . .
60(4) . . .
69(4) . . .
59(4) . . .
63(4) . . .
56(4) . . .
56(4) . . .
59(4) . . .
60(4) . . .
65(4) . . .
67(4) . . .
69(4) . . .
77(5) . . .
66(4) . . .
67(4) . . .
62(4) . . .
64(4) . . .
62(4) . . .
55(4) . . .
69(5) . . .
70(4) . . .
62(4) . . .
56(4) . . .
56(4) . . .
59(4) . . .
64(4) . . .
48(4) . . .
59(4) . . .
62(4) . . .
62(4) . . .
76(5) . . .
60(4) . . .
64(4) . . .
64(5) . . .
63(4) . . .
66(4) . . .
70(5) . . .
60(4) . . .
58(4) . . .
61(4) . . .
61(4) . . .
76(5) . . .
58(4) . . .
60(4) . . .
56(4) . . .
63(4) . . .
52(4) . . .
59(4) . . .
62(4) . . .
89(5) . . .
71(4) . . .
59(4) . . .
55(4) . . .
56(4) . . .
65(4) . . .
63(4) . . .
58(4) . . .
56(4) . . .
68(5) . . .
54(4) . . .
66(4) . . .
59(4) . . .
65(5) . . .
65(4) . . .
71(4) . . .
59(4) . . .
60(4) . . .
64(4) . . .
56(4) . . .
67(4) . . .
65(4) . . .
60(4) . . .
70(5) . . .
58(4) . . .
62(4) . . .
56(4) . . .
62(4) . . .
59(4) . . .
58(4) . . .
74(4) . . .
66(4) . . .
69(4) . . .
67(5) . . .
62(4) . . .
71(4) . . .
66(4) . . .
69(4) . . .
72(5) . . .
63(4) . . .
55(4) . . .
65(4) . . .
54(4) . . .
58(4) . . .
63(4) . . .
61(4) . . .
63(4) . . .
70(5) . . .
65(5) . . .
61(4) . . .
55(4) . . .
56(4) . . .
71(5) . . .
67(4) . . .
65(4) . . .
59(4) . . .
64(4) . . .
68(5) . . .
56(4) . . .
56(4) . . .
47(4) . . .
53(4) . . .
63(5) . . .
61(4) . . .
72(4) . . .
63(4) . . .
57(4) . . .
59(4) . . .
66(4) . . .
62(4) . . .
68(4) . . .
65(4) . . .
73(5) . . .
66(4) . . .
66(4) . . .
62(4) . . .
57(4) . . .
67(5) . . .
74(5) . . .
60(4) . . .
65(4) . . .
67(4) . . .
61(4) . . .
58(4) . . .
55(4) . . .
71(4) . . .
55(4) . . .
59(4) . . .
68(5) . . .
55(4) . . .
66(4) . . .
73(5) . . .
54(4) . . .
62(4) . . .
60(4) . . .
61(4) . . .
63(4) . . .
60(4) . . .
57(4) . . .
60(4) . . .
67(4) . . .
70(5) . . .
70(4) . . .
70(5) . . .
69(4) . . .
69(4) . . .
67(4) . . .
64(4) . . .
60(4) . . .
66(4) . . .
68(4) . . .
64(4) . . .
64(4) . . .
55(4) . . .
67(4) . . .
68(5) . . .
69(5) . . .
51(4) . . .
61(4) . . .
61(4) . . .
57(4) . . .
57(4) . . .
66(4) . . .
72(5) . . .
55(4) . . .
58(4) . . .
56(4) . . .
62(4) . . .
69(4) . . .
69(4) . . .
59(4) . . .
73(5) . . .
61(4) . . .
66(4) . . .
69(4) . . .
67(4) . . .
55(4) . . .
66(5) . . .
62(4) . . .
70(4) . . .
67(4) . . .
71(5) . . .
60(4) . . .
69(4) . . .
57(4) . . .
62(4) . . .
61(4) . . .
52(4) . . .
66(4) . . .
58(4) . . .
70(5) . . .
61(4) . . .
61(4) . . .
60(4) . . .
68(4) . . .
68(5) . . .
64(4) . . .
56(4) . . .
70(4) . . .
72(4) . . .
56(4) . . .
56(4) . . .
55(4) . . .
59(4) . . .
65(4) . . .
59(4) . . .
60(4) . . .
64(4) . . .
70(4) . . .
70(5) . . .
61(4) . . .
63(5) . . .
56(4) . . .
67(4) . . .
58(4) . . .
64(4) . . .
62(4) . . .
63(4) . . .
62(4) . . .
62(4) . . .
62(4) . . .
60(4) . . .
55(4) . . .
69(4) . . .
60(4) . . .
67(4) . . .
70(5) . . .
55(4) . . .
67(4) . . .
72(5) . . .
63(4) . . .
56(4) . . .
57(4) . . .
60(4) . . .
59(4) . . .
54(4) . . .
59(4) . . .
51(4) . . .
62(4) . . .
69(5) . . .
62(4) . . .
55(4) . . .
57(4) . . .
70(4) . . .
57(4) . . .
56(4) . . .
58(4) . . .
71(4) . . .
60(4) . . .
51(4) . . .
62(4) . . .
61(4) . . .
71(4) . . .
65(4) . . .
70(5) . . .
57(4) . . .
58(4) . . .
61(4) . . .
66(4) . . .
69(4) . . .
65(4) . . .
59(4) . . .
65(4) . . .
68(4) . . .
68(5) . . .
56(4) . . .
65(4) . . .
63(4) . . .
68(4) . . .
63(4) . . .
60(4) . . .
69(4) . . .
57(4) . . .
66(5) . . .
72(5) . . .
58(4) . . .
69(4) . . .
50(4) . . .
57(4) . . .
69(5) . . .
75(5) . . .
54(4) . . .
62(4) . . .
59(4) . . .
56(4) . . .
58(4) . . .
63(4) . . .
76(5) . . .
55(4) . . .
65(4) . . .
55(4) . . .
56(4) . . .
65(4) . . .
56(4) . . .
64(4) . . .
62(4) . . .
58(4) . . .
59(4) . . .
58(4) . . .
68(5) . . .
63(4) . . .
70(4) . . .
65(4) . . .
61(4) . . .
58(4) . . .
67(4) . . .
62(4) . . .
59(4) . . .
62(4) . . .
60(4) . . .
59(4) . . .
51(4) . . .
73(5) . . .
61(4) . . .
57(4) . . .
53(4) . . .
58(4) . . .
74(5) . . .
62(4) . . .
64(4) . . .
57(4) . . .
61(4) . . .
67(4) . . .
69(5) . . .
56(4) . . .
63(4) . . .
64(4) . . .
70(5) . . .
58(4) . . .
60(4) . . .
62(4) . . .
66(4) . . .
67(4) . . .
60(4) . . .
61(4) . . .
66(4) . . .
57(4) . . .
61(4) . . .
69(4) . . .
64(4) . . .
61(4) . . .
59(4) . . .
62(4) . . .
63(4) . . .
54(4) . . .
55(4) . . .
57(4) . . .
60(4) . . .
63(4) . . .
59(4) . . .
60(4) . . .
64(4) . . .
69(4) . . .
64(4) . . .
62(4) . . .
62(4) . . .
61(4) . . .
53(4) . . .
53(4) . . .
52(4) . . .
58(4) . . .
65(4) . . .
56(4) . . .
55(4) . . .
63(4) . . .
62(4) . . .
65(4) . . .
61(4) . . .
58(4) . . .
50(4) . . .
74(5) . . .
57(4) . . .
58(4) . . .
69(4) . . .
68(4) . . .
52(4) . . .
62(4) . . .
65(5) . . .
69(4) . . .
68(4) . . .
60(4) . . .
61(4) . . .
64(4) . . .
61(4) . . .
60(4) . . .
65(4) . . .
66(4) . . .
62(4) . . .
65(4) . . .
53(4) . . .
63(4) . . .
61(4) . . .
67(4) . . .
67(4) . . .
62(4) . . .
56(4) . . .
55(4) . . .
63(4) . . .
62(4) . . .
66(4) . . .
57(4) . . .
52(4) . . .
57(4) . . .
63(4) . . .
57(4) . . .
68(4) . . .
66(4) . . .
62(4) . . .
63(4) . . .
55(4) . . .
56(4) . . .
56(4) . . .
66(4) . . .
62(4) . . .
74(4) . . .
62(4) . . .
63(4) . . .
67(4) . . .
70(4) . . .
68(4) . . .
52(4) . . .
54(4) . . .
57(4) . . .
65(4) . . .
66(4) . . .
55(4) . . .
60(4) . . .
57(4) . . .
63(4) . . .
54(4) . . .
66(4) . . .
77(5) . . .
66(4) . . .
57(4) . . .
59(4) . . .
59(4) . . .
54(4) . . .
50(4) . . .
59(4) . . .
61(4) . . .
64(5) . . .
67(5) . . .
60(4) . . .
56(4) . . .
59(4) . . .
57(4) . . .
66(4) . . .
65(4) . . .
61(4) . . .
66(4) . . .
72(5) . . .
65(4) . . .
68(4) . . .
54(4) . . .
61(4) . . .
57(4) . . .
70(5) . . .
63(4) . . .
72(4) . . .
64(4) . . .
66(4) . . .
74(5) . . .
55(4) . . .
56(4) . . .
55(4) . . .
60(4) . . .
74(5) . . .
60(4) . . .
62(4) . . .
68(5) . . .
62(5) . . .
60(4) . . .
55(4) . . .
70(4) . . .
66(4) . . .
59(4) . . .
61(4) . . .
68(4) . . .
60(4) . . .
59(4) . . .
57(4) . . .
56(4) . . .
69(4) . . .
60(4) . . .
57(4) . . .
62(4) . . .
58(4) . . .
53(4) . . .
57(4) . . .
72(5) . . .
64(4) . . .
53(4) . . .
62(4) . . .
60(4) . . .
49(4) . . .
48(4) . . .
70(4) . . .
53(4) . . .
59(4) . . .
65(4) . . .
57(4) . . .
59(4) . . .
66(4) . . .
64(4) . . .
59(4) . . .
60(4) . . .
56(4) . . .
63(4) . . .
61(4) . . .
58(4) . . .
59(4) . . .
59(4) . . .
68(4) . . .
57(4) . . .
67(5) . . .
72(4) . . .
63(4) . . .
62(4) . . .
53(4) . . .
60(4) . . .
65(4) . . .
79(5) . . .
64(4) . . .
66(5) . . .
58(4) . . .
61(4) . . .
58(4) . . .
50(4) . . .
62(4) . . .
57(4) . . .
62(4) . . .
67(4) . . .
59(4) . . .
64(4) . . .
52(4) . . .
61(4) . . .
64(4) . . .
63(4) . . .
66(4) . . .
57(4) . . .
57(4) . . .
57(4) . . .
56(4) . . .
59(4) . . .
60(4) . . .
58(4) . . .
61(4) . . .
56(4) . . .
67(4) . . .
65(4) . . .
66(4) . . .
61(4) . . .
60(4) . . .
54(4) . . .
60(4) . . .
66(4) . . .
62(4) . . .
64(4) . . .
66(5) . . .
52(4) . . .
56(4) . . .
62(4) . . .
62(4) . . .
64(4) . . .
53(4) . . .
59(4) . . .
66(4) . . .
58(4) . . .
66(5) . . .
62(4) . . .
54(4) . . .
56(4) . . .
69(4) . . .
53(4) . . .
56(4) . . .
63(4) . . .
50(4) . . .
61(4) . . .
62(5) . . .
59(4) . . .
57(4) . . .
62(4) . . .
62(4) . . .
66(4) . . .
65(4) . . .
67(4) . . .
70(4) . . .
70(5) . . .
60(4) . . .
61(4) . . .
61(4) . . .
64(4) . . .
61(4) . . .
63(4) . . .
61(4) . . .
60(4) . . .
67(4) . . .
60(4) . . .
63(4) . . .
64(4) . . .
62(4) . . .
59(4) . . .
61(4) . . .
54(4) . . .
67(4) . . .
76(5) . . .
55(4) . . .
53(4) . . .
61(4) . . .
57(4) . . .
62(4) . . .
52(4) . . .
60(4) . . .
71(5) . . .
51(4) . . .
58(4) . . .
58(4) . . .
70(5) . . .
60(4) . . .
53(4) . . .
60(4) . . .
62(4) . . .
62(4) . . .
74(5) . . .
56(4) . . .
60(4) . . .
56(4) . . .
53(4) . . .
64(4) . . .
62(4) . . .
66(4) . . .
60(4) . . .
63(4) . . .
55(4) . . .
63(4) . . .
58(4) . . .
63(4) . . .
57(4) . . .
56(4) . . .
61(4) . . .
58(4) . . .
57(4) . . .
56(4) . . .
62(4) . . .
66(4) . . .
63(4) . . .
56(4) . . .
63(4) . . .
56(4) . . .
50(4) . . .
69(5) . . .
56(4) . . .
48(4) . . .
55(4) . . .
59(4) . . .
55(4) . . .
59(4) . . .
67(4) . . .
73(5) . . .
56(4) . . .
57(4) . . .
55(4) . . .
58(4) . . .
73(5) . . .
60(4) . . .
58(4) . . .
71(5) . . .
61(4) . . .
66(4) . . .
68(4) . . .
56(4) . . .
59(4) . . .
69(5) . . .
58(4) . . .
62(4) . . .
55(4) . . .
57(4) . . .
58(4) . . .
63(4) . . .
59(4) . . .
52(4) . . .
64(5) . . .
63(4) . . .
59(4) . . .
67(4) . . .
56(4) . . .
65(5) . . .
60(4) . . .
54(4) . . .
64(4) . . .
62(4) . . .
61(4) . . .
63(4) . . .
62(4) . . .
69(4) . . .
69(4) . . .
44(4) . . .
52(4) . . .
62(4) . . .
67(4) . . .
60(4) . . .
58(4) . . .
56(4) . . .
55(4) . . .
68(5) . . .
61(5) . . .
54(4) . . .
58(4) . . .
62(4) . . .
57(4) . . .
65(4) . . .
58(4) . . .
68(4) . . .
55(4) . . .
57(4) . . .
70(5) . . .
64(4) . . .
58(4) . . .
63(4) . . .
69(4) . . .
53(4) . . .
54(4) . . .
65(4) . . .
61(4) . . .
61(4) . . .
70(5) . . .
63(4) . . .
75(4) . . .
77(5) . . .
68(4) . . .
65(4) . . .
56(4) . . .
62(4) . . .
68(4) . . .
60(4) . . .
59(4) . . .
52(4) . . .
63(4) . . .
54(4) . . .
61(4) . . .
62(4) . . .
58(4) . . .
57(4) . . .
58(4) . . .
68(4) . . .
64(4) . . .
50(4) . . .
74(4) . . .
75(5) . . .
62(4) . . .
59(4) . . .
57(4) . . .
52(4) . . .
53(4) . . .
67(4) . . .
65(4) . . .
48(4) . . .
62(4) . . .
57(4) . . .
62(4) . . .
58(4) . . .
59(4) . . .
55(4) . . .
49(4) . . .
57(4) . . .
54(4) . . .
60(4) . . .
55(4) . . .
65(4) . . .
55(4) . . .
66(4) . . .
63(4) . . .
62(4) . . .
59(4) . . .
57(4) . . .
60(4) . . .
69(4) . . .
72(4) . . .
60(4) . . .
57(4) . . .
60(4) . . .
51(4) . . .
70(4) . . .
75(5) . . .
62(4) . . .
65(4) . . .
60(4) . . .
53(4) . . .
62(4) . . .
67(4) . . .
64(4) . . .
56(4) . . .
57(4) . . .
60(4) . . .
56(4) . . .
62(4) . . .
57(4) . . .
63(4) . . .
65(4) . . .
57(4) . . .
61(4) . . .
57(4) . . .
58(4) . . .
65(5) . . .
62(4) . . .
53(4) . . .
53(4) . . .
56(4) . . .
58(4) . . .
65(4) . . .
53(4) . . .
66(4) . . .
68(4) . . .
65(4) . . .
64(4) . . .
62(4) . . .
62(4) . . .
57(4) . . .
59(4) . . .
65(4) . . .
64(4) . . .
72(4) . . .
62(4) . . .
59(4) . . .
55(4) . . .
62(4) . . .
59(4) . . .
53(4) . . .
57(4) . . .
55(4) . . .
60(4) . . .
57(4) . . .
58(4) . . .
56(4) . . .
68(5) . . .
67(4) . . .
67(4) . . .
69(5) . . .
61(4) . . .
54(4) . . .
56(4) . . .
58(4) . . .
59(4) . . .
48(4) . . .
54(4) . . .
62(4) . . .
58(4) . . .
57(4) . . .
58(4) . . .
60(4) . . .
55(4) . . .
62(4) . . .
57(4) . . .
66(5) . . .
71(5) . . .
63(4) . . .
62(4) . . .
65(5) . . .
63(4) . . .
56(4) . . .
57(4) . . .
66(4) . . .
62(4) . . .
60(4) . . .
60(4) . . .
69(4) . . .
70(5) . . .
62(4) . . .
63(4) . . .
63(4) . . .
54(4) . . .
57(4) . . .
54(4) . . .
66(4) . . .
53(4) . . .
64(4) . . .
61(4) . . .
58(4) . . .
66(4) . . .
65(4) . . .
63(4) . . .
62(4) . . .
63(4) . . .
74(5) . . .
50(4) . . .
51(4) . . .
60(4) . . .
55(4) . . .
56(4) . . .
57(4) . . .
55(4) . . .
51(4) . . .
58(4) . . .
67(4) . . .
58(4) . . .
73(4) . . .
63(4) . . .
57(4) . . .
57(4) . . .
58(4) . . .
66(4) . . .
63(4) . . .
68(4) . . .
68(4) . . .
67(4) . . .
61(4) . . .
59(4) . . .
54(4) . . .
61(4) . . .
60(4) . . .
68(4) . . .
68(5) . . .
64(4) . . .
55(4) . . .
60(4) . . .
57(4) . . .
65(5) . . .
57(4) . . .
68(4) . . .
58(4) . . .
72(5) . . .
55(4) . . .
59(4) . . .
57(4) . . .
71(4) . . .
55(4) . . .
61(4) . . .
61(4) . . .
61(4) . . .
65(4) . . .
55(4) . . .
60(4) . . .
67(4) . . .
58(4) . . .
70(4) . . .
53(4) . . .
59(4) . . .
49(4) . . .
57(4) . . .
56(4) . . .
61(4) . . .
54(4) . . .
65(4) . . .
65(4) . . .
57(4) . . .
69(5) . . .
67(4) . . .
60(4) . . .
59(4) . . .
63(4) . . .
59(4) . . .
63(4) . . .
59(4) . . .
64(4) . . .
62(4) . . .
63(4) . . .
57(4) . . .
65(4) . . .
58(4) . . .
53(4) . . .
61(4) . . .
59(4) . . .
56(4) . . .
60(4) . . .
67(4) . . .
52(4) . . .
58(4) . . .
57(4) . . .
60(4) . . .
65(4) . . .
69(5) . . .
74(5) . . .
69(4) . . .
60(4) . . .
59(4) . . .
58(4) . . .
62(4) . . .
54(4) . . .
58(4) . . .
69(4) . . .
69(5) . . .
56(4) . . .
64(4) . . .
58(4) . . .
58(4) . . .
64(4) . . .
67(4) . . .
60(4) . . .
60(4) . . .
58(4) . . .
54(4) . . .
59(4) . . .
66(4) . . .
71(4) . . .
68(4) . . .
60(4) . . .
59(4) . . .
56(4) . . .
54(4) . . .
58(4) . . .
68(4) . . .
68(4) . . .
59(4) . . .
62(4) . . .
64(4) . . .
62(4) . . .
57(4) . . .
57(4) . . .
61(4) . . .
61(4) . . .
54(4) . . .
54(4) . . .
67(4) . . .
64(4) . . .
67(4) . . .
55(4) . . .
53(4) . . .
56(4) . . .
62(4) . . .
74(5) . . .
56(4) . . .
54(4) . . .
51(4) . . .
57(4) . . .
55(4) . . .
62(4) . . .
58(4) . . .
56(4) . . .
53(4) . . .
61(5) . . .
62(4) . . .
54(4) . . .
58(4) . . .
58(4) . . .
65(4) . . .
70(4) . . .
59(4) . . .
58(4) . . .
66(4) . . .
58(4) . . .
57(4) . . .
56(4) . . .
59(4) . . .
62(4) . . .
55(4) . . .
57(4) . . .
59(4) . . .
56(4) . . .
57(4) . . .
49(4) . . .
55(4) . . .
47(4) . . .
64(4) . . .
53(4) . . .
56(4) . . .
56(4) . . .
51(4) . . .
61(4) . . .
61(4) . . .
60(4) . . .
64(4) . . .
61(4) . . .
60(4) . . .
64(4) . . .
61(4) . . .
57(4) . . .
67(4) . . .
67(4) . . .
63(4) . . .
48(4) . . .
65(4) . . .
69(4) . . .
57(4) . . .
65(5) . . .
52(4) . . .
48(4) . . .
70(4) . . .
59(4) . . .
50(4) . . .
67(4) . . .
60(4) . . .
65(4) . . .
60(4) . . .
63(4) . . .
69(4) . . .
62(4) . . .
74(4) . . .
70(5) . . .
61(4) . . .
68(4) . . .
55(4) . . .
61(4) . . .
56(4) . . .
62(4) . . .
60(4) . . .
54(4) . . .
49(4) . . .
65(4) . . .
58(4) . . .
48(4) . . .
60(4) . . .
62(4) . . .
64(4) . . .
64(4) . . .
68(4) . . .
49(4) . . .
56(4) . . .
68(5) . . .
65(4) . . .
69(4) . . .
65(4) . . .
65(4) . . .
57(4) . . .
48(4) . . .
70(4) . . .
64(4) . . .
58(4) . . .
59(4) . . .
65(4) . . .
61(4) . . .
55(4) . . .
64(4) . . .
70(5) . . .
60(4) . . .
54(4) . . .
59(4) . . .
59(4) . . .
65(4) . . .
64(4) . . .
55(4) . . .
62(4) . . .
69(4) . . .
76(5) . . .
72(5) . . .
56(4) . . .
56(4) . . .
66(4) . . .
62(4) . . .
65(4) . . .
61(4) . . .
64(4) . . .
62(4) . . .
58(4) . . .
55(4) . . .
61(4) . . .
65(4) . . .
60(4) . . .
52(4) . . .
68(4) . . .
59(4) . . .
52(4) . . .
57(4) . . .
63(4) . . .
58(4) . . .
53(4) . . .
60(4) . . .
56(4) . . .
63(4) . . .
67(4) . . .
54(4) . . .
59(4) . . .
54(4) . . .
56(4) . . .
51(4) . . .
58(4) . . .
55(4) . . .
60(4) . . .
61(4) . . .
78(5) . . .
62(4) . . .
61(4) . . .
63(4) . . .
57(4) . . .
65(4) . . .
58(4) . . .
51(4) . . .
56(4) . . .
63(4) . . .
61(4) . . .
61(4) . . .
50(4) . . .
58(4) . . .
60(4) . . .
57(4) . . .
66(4) . . .
58(4) . . .
65(4) . . .
58(4) . . .
59(4) . . .
53(4) . . .
65(5) . . .
57(4) . . .
57(4) . . .
54(4) . . .
50(4) . . .
61(4) . . .
54(4) . . .
60(4) . . .
54(4) . . .
61(4) . . .
49(4) . . .
56(4) . . .
60(4) . . .
74(4) . . .
52(4) . . .
52(4) . . .
60(4) . . .
65(4) . . .
54(4) . . .
66(4) . . .
57(4) . . .
55(4) . . .
56(4) . . .
52(4) . . .
57(4) . . .
71(5) . . .
62(4) . . .
58(4) . . .
68(4) . . .
64(4) . . .
64(5) . . .
53(4) . . .
52(4) . . .
49(4) . . .
67(5) . . .
55(4) . . .
52(4) . . .
57(4) . . .
55(4) . . .
64(5) . . .
49(4) . . .
63(4) . . .
51(4) . . .
60(4) . . .
62(4) . . .
63(4) . . .
65(4) . . .
52(4) . . .
63(4) . . .
54(4) . . .
60(4) . . .
62(4) . . .
62(4) . . .
69(4) . . .
62(4) . . .
65(4) . . .
48(4) . . .
57(4) . . .
67(4) . . .
58(4) . . .
68(5) . . .
55(4) . . .
58(4) . . .
67(5) . . .
57(4) . . .
51(4) . . .
60(4) . . .
67(4) . . .
61(4) . . .
63(4) . . .
60(4) . . .
60(4) . . .
50(4) . . .
60(4) . . .
54(4) . . .
56(4) . . .
60(4) . . .
78(5) . . .
54(4) . . .
55(4) . . .
68(4) . . .
64(4) . . .
58(4) . . .
61(4) . . .
59(4) . . .
68(4) . . .
64(4) . . .
58(4) . . .
71(5) . . .
66(4) . . .
64(4) . . .
62(4) . . .
57(4) . . .
55(4) . . .
67(5) . . .
63(4) . . .
63(4) . . .
63(4) . . .
59(4) . . .
57(4) . . .
48(4) . . .
63(4) . . .
53(4) . . .
65(4) . . .
66(5) . . .
59(4) . . .
54(4) . . .
54(4) . . .
69(5) . . .
68(5) . . .
55(4) . . .
59(4) . . .
56(4) . . .
61(4) . . .
69(5) . . .
59(4) . . .
74(4) . . .
54(4) . . .
55(4) . . .
68(4) . . .
61(4) . . .
65(4) . . .
62(5) . . .
54(4) . . .
51(4) . . .
53(4) . . .
54(4) . . .
64(4) . . .
63(4) . . .
63(4) . . .
62(4) . . .
64(4) . . .
64(4) . . .
63(4) . . .
54(4) . . .
53(4) . . .
64(4) . . .
58(4) . . .
48(4) . . .
58(4) . . .
71(4) . . .
61(4) . . .
56(4) . . .
51(4) . . .
60(4) . . .
57(4) . . .
64(4) . . .
72(5) . . .
64(4) . . .
61(4) . . .
61(4) . . .
65(4) . . .
55(4) . . .
60(4) . . .
60(4) . . .
59(4) . . .
71(4) . . .
52(4) . . .
66(5) . . .
52(4) . . .
44.5(35) . . .
61(4) . . .
71(5) . . .
53(4) . . .
69(4) . . .
62(4) . . .
58(4) . . .
69(5) . . .
71(5) . . .
55(4) . . .
57(4) . . .
55(4) . . .
57(4) . . .
58(4) . . .
58(4) . . .
64(4) . . .
67(5) . . .
64(4) . . .
63(4) . . .
61(4) . . .
60(4) . . .
67(5) . . .
66(5) . . .
52(4) . . .
53(4) . . .
64(4) . . .
60(4) . . .
66(4) . . .
61(4) . . .
56(4) . . .
56(4) . . .
59(4) . . .
61(4) . . .
65(4) . . .
73(5) . . .
57(4) . . .
55(4) . . .
57(4) . . .
70(5) . . .
60(4) . . .
57(4) . . .
62(4) . . .
59(4) . . .
63(4) . . .
48(4) . . .
54(4) . . .
57(4) . . .
57(4) . . .
67(5) . . .
66(4) . . .
61(4) . . .
66(4) . . .
55(4) . . .
58(4) . . .
66(4) . . .
73(5) . . .
65(4) . . .
74(5) . . .
64(4) . . .
67(4) . . .
61(4) . . .
65(5) . . .
63(4) . . .
56(4) . . .
64(4) . . .
59(4) . . .
57(4) . . .
58(4) . . .
65(4) . . .
60(4) . . .
59(4) . . .
39.1(34) . . .
48(4) . . .
54(4) . . .
56(4) . . .
63(4) . . .
55(4) . . .
65(4) . . .
57(4) . . .
62(4) . . .
54(4) . . .
53(4) . . .
60(4) . . .
55(4) . . .
61(4) . . .
50(4) . . .
49(4) . . .
57(4) . . .
63(4) . . .
72(5) . . .
55(4) . . .
48(4) . . .
55(4) . . .
62(4) . . .
49(4) . . .
50(4) . . .
68(4) . . .
59(4) . . .
66(4) . . .
58(4) . . .
60(4) . . .
66(4) . . .
68(5) . . .
57(4) . . .
55(4) . . .
52(4) . . .
61(4) . . .
60(4) . . .
56(4) . . .
55(4) . . .
56(4) . . .
61(4) . . .
59(4) . . .
64(4) . . .
61(4) . . .
67(4) . . .
65(4) . . .
61(4) . . .
69(4) . . .
54(4) . . .
56(4) . . .
57(4) . . .
56(4) . . .
52(4) . . .
62(4) . . .
48(4) . . .
55(4) . . .
63(4) . . .
45.1(35) . . .
58(4) . . .
62(5) . . .
64(4) . . .
62(4) . . .
60(4) . . .
71(5) . . .
53(4) . . .
53(4) . . .
49(4) . . .
57(4) . . .
52(4) . . .
55(4) . . .
52(4) . . .
57(4) . . .
56(4) . . .
56(4) . . .
58(4) . . .
49(4) . . .
73(4) . . .
67(4) . . .
53(4) . . .
64(4) . . .
61(4) . . .
64(4) . . .
62(4) . . .
53(4) . . .
63(4) . . .
55(4) . . .
51(4) . . .
44(4) . . .
56(4) . . .
58(4) . . .
64(4) . . .
61(4) . . .
56(4) . . .
58(4) . . .
47(4) . . .
55(4) . . .
53(4) . . .
63(4) . . .
56(4) . . .
47(4) . . .
61(4) . . .
53(4) . . .
57(4) . . .
61(5) . . .
48(4) . . .
58(4) . . .
62(4) . . .
52(4) . . .
49(4) . . .
44.1(35) . . .
43.6(34) . . .
78(5) . . .
56(4) . . .
63(5) . . .
55(4) . . .
68(4) . . .
65(4) . . .
50(4) . . .
56(4) . . .
55(4) . . .
57(4) . . .
66(4) . . .
56(4) . . .
43.8(35) . . .
45(4) . . .
51(4) . . .
40.3(33) . . .
47(4) . . .
64(5) . . .
55(4) . . .
62(4) . . .
66(4) . . .
45(4) . . .
45(4) . . .
54(4) . . .
51(4) . . .
55(4) . . .
62(4) . . .
60(4) . . .
58(4) . . .
57(4) . . .
54(4) . . .
59(4) . . .
68(4) . . .
72(4) . . .
45.3(34) . . .
61(5) . . .
54(4) . . .
60(4) . . .
52(4) . . .
43.5(34) . . .
64(4) . . .
59(4) . . .
50(4) . . .
56(4) . . .
62(4) . . .
55(4) . . .
64(4) . . .
56(4) . . .
65(4) . . .
50(4) . . .
50(4) . . .
51(4) . . .
59(4) . . .
71(4) . . .
61(4) . . .
55(4) . . .
55(4) . . .
49(4) . . .
57(4) . . .
53(4) . . .
56(4) . . .
60(4) . . .
61(4) . . .
60(4) . . .
67(4) . . .
57(4) . . .
57(4) . . .
59(4) . . .
58(4) . . .
67(4) . . .
57(4) . . .
66(4) . . .
61(4) . . .
60(4) . . .
62(4) . . .
68(5) . . .
58(4) . . .
55(4) . . .
53(4) . . .
51(4) . . .
64(4) . . .
55(4) . . .
70(4) . . .
63(4) . . .
55(4) . . .
61(4) . . .
56(4) . . .
59(4) . . .
54(4) . . .
62(4) . . .
53(4) . . .
58(4) . . .
59(4) . . .
60(4) . . .
61(4) . . .
73(5) . . .
52(4) . . .
57(4) . . .
64(4) . . .
56(4) . . .
74(5) . . .
64(4) . . .
62(4) . . .
57(4) . . .
61(4) . . .
65(4) . . .
63(4) . . .
60(4) . . .
64(4) . . .
57(4) . . .
62(5) . . .
47(4) . . .
49(4) . . .
63(4) . . .
59(4) . . .
58(4) . . .
61(4) . . .
66(4) . . .
54(4) . . .
51(4) . . .
56(4) . . .
51(4) . . .
67(4) . . .
62(4) . . .
43(4) . . .
47(4) . . .
57(4) . . .
52(4) . . .
53(4) . . .
51(4) . . .
49(4) . . .
60(4) . . .
64(4) . . .
57(4) . . .
55(4) . . .
52(4) . . .
68(4) . . .
67(4) . . .
50(4) . . .
57(4) . . .
60(4) . . .
57(4) . . .
58(4) . . .
55(4) . . .
49(4) . . .
55(4) . . .
50(4) . . .
59(4) . . .
62(4) . . .
51(4) . . .
59(4) . . .
63(4) . . .
69(4) . . .
58(4) . . .
57(4) . . .
61(4) . . .
55(4) . . .
63(4) . . .
53(4) . . .
51(4) . . .
53(4) . . .
59(4) . . .
61(4) . . .
59(4) . . .
61(4) . . .
56(4) . . .
54(4) . . .
64(4) . . .
59(4) . . .
56(4) . . .
55(4) . . .
61(4) . . .
59(4) . . .
56(4) . . .
53(4) . . .
50(4) . . .
60(4) . . .
53(4) . . .
59(4) . . .
48(4) . . .
60(4) . . .
46(4) . . .
61(4) . . .
75(5) . . .
54(4) . . .
58(4) . . .
56(4) . . .
56(4) . . .
58(4) . . .
62(4) . . .
68(4) . . .
58(4) . . .
55(4) . . .
56(4) . . .
60(4) . . .
52(4) . . .
54(4) . . .
57(4) . . .
62(4) . . .
66(4) . . .
64(4) . . .
55(4) . . .
49(4) . . .
54(4) . . .
53(4) . . .
57(4) . . .
55(4) . . .
59(4) . . .
59(4) . . .
63(4) . . .
69(4) . . .
59(4) . . .
60(4) . . .
57(4) . . .
58(4) . . .
61(4) . . .
73(4) . . .
59(4) . . .
61(4) . . .
63(4) . . .
63(4) . . .
61(4) . . .
63(4) . . .
55(4) . . .
58(4) . . .
59(4) . . .
70(5) . . .
62(4) . . .
70(4) . . .
62(4) . . .
65(5) . . .
62(4) . . .
67(4) . . .
58(4) . . .
64(5) . . .
58(4) . . .
67(4) . . .
51(4) . . .
60(4) . . .
59(4) . . .
59(4) . . .
64(4) . . .
64(4) . . .
63(4) . . .
58(4) . . .
58(4) . . .
68(4) . . .
61(4) . . .
62(4) . . .
62(4) . . .
58(4) . . .
67(4) . . .
51(4) . . .
65(4) . . .
64(4) . . .
61(4) . . .
51(4) . . .
47(4) . . .
52(4) . . .
59(4) . . .
59(4) . . .
61(4) . . .
50(4) . . .
54(4) . . .
71(5) . . .
66(4) . . .
57(4) . . .
67(4) . . .
68(4) . . .
59(4) . . .
54(4) . . .
56(4) . . .
56(4) . . .
58(4) . . .
58(4) . . .
45.4(35) . . .
59(4) . . .
64(4) . . .
61(4) . . .
60(4) . . .
52(4) . . .
55(4) . . .
64(4) . . .
55(4) . . .
50(4) . . .
62(4) . . .
46(4) . . .
64(4) . . .
70(5) . . .
79(5) . . .
64(4) . . .
54(4) . . .
55(4) . . .
54(4) . . .
62(5) . . .
60(4) . . .
58(4) . . .
51(4) . . .
76(5) . . .
67(4) . . .
56(4) . . .
50(4) . . .
53(4) . . .
62(4) . . .
57(4) . . .
67(4) . . .
57(4) . . .
59(4) . . .
53(4) . . .
51(4) . . .
56(4) . . .
54(4) . . .
60(4) . . .
51(4) . . .
59(4) . . .
53(4) . . .
54(4) . . .
68(4) . . .
61(4) . . .
54(4) . . .
63(4) . . .
64(4) . . .
63(4) . . .
65(4) . . .
65(4) . . .
60(4) . . .
65(4) . . .
60(4) . . .
62(4) . . .
59(4) . . .
55(4) . . .
62(4) . . .
52(4) . . .
59(4) . . .
57(4) . . .
61(4) . . .
56(4) . . .
59(4) . . .
59(4) . . .
55(4) . . .
70(5) . . .
50(4) . . .
47(4) . . .
57(4) . . .
60(4) . . .
58(4) . . .
52(4) . . .
65(4) . . .
59(4) . . .
47(4) . . .
43.1(34) . . .
51(4) . . .
49(4) . . .
54(4) . . .
57(4) . . .
52(4) . . .
47(4) . . .
57(4) . . .
57(4) . . .
65(5) . . .
52(4) . . .
60(4) . . .
56(4) . . .
51(4) . . .
48(4) . . .
56(4) . . .
54(4) . . .
48(4) . . .
54(4) . . .
50(4) . . .
48(4) . . .
54(4) . . .
62(4) . . .
63(4) . . .
62(4) . . .
59(4) . . .
61(4) . . .
56(4) . . .
61(4) . . .
50(4) . . .
57(4) . . .
47(4) . . .
58(4) . . .
63(4) . . .
58(4) . . .
66(4) . . .
51(4) . . .
59(4) . . .
58(4) . . .
53(4) . . .
56(4) . . .
60(4) . . .
55(4) . . .
62(4) . . .
64(4) . . .
56(4) . . .
67(4) . . .
64(4) . . .
67(4) . . .
61(4) . . .
51(4) . . .
53(4) . . .
59(4) . . .
58(4) . . .
47(4) . . .
58(4) . . .
48(4) . . .
56(4) . . .
49(4) . . .
56(4) . . .
56(4) . . .
72(5) . . .
58(4) . . .
53(4) . . .
50(4) . . .
68(4) . . .
63(4) . . .
62(4) . . .
52(4) . . .
70(4) . . .
57(4) . . .
64(4) . . .
50(4) . . .
55(4) . . .
70(4) . . .
59(4) . . .
50(4) . . .
61(4) . . .
63(4) . . .
52(4) . . .
50(4) . . .
52(4) . . .
58(4) . . .
54(4) . . .
57(4) . . .
54(4) . . .
50(4) . . .
57(4) . . .
60(4) . . .
52(4) . . .
52(4) . . .
48(4) . . .
47(4) . . .
48(4) . . .
54(4) . . .
55(4) . . .
50(4) . . .
56(4) . . .
68(4) . . .
50(4) . . .
57(4) . . .
68(5) . . .
64(4) . . .
61(4) . . .
65(4) . . .
52(4) . . .
53(4) . . .
43(4) . . .
56(4) . . .
53(4) . . .
57(4) . . .
54(4) . . .
46.6(35) . . .
58(4) . . .
65(4) . . .
54(4) . . .
60(4) . . .
55(4) . . .
68(4) . . .
59(4) . . .
57(4) . . .
52(4) . . .
61(4) . . .
51(4) . . .
60(4) . . .
52(4) . . .
52(4) . . .
53(4) . . .
53(4) . . .
62(4) . . .
55(4) . . .
60(4) . . .
49(4) . . .
47(4) . . .
48(4) . . .
60(4) . . .
59(4) . . .
55(4) . . .
51(4) . . .
55(4) . . .
55(4) . . .
55(4) . . .
57(4) . . .
50(4) . . .
59(4) . . .
45.4(35) . . .
50(4) . . .
59(4) . . .
57(4) . . .
59(4) . . .
53(4) . . .
63(4) . . .
67(4) . . .
70(4) . . .
54(4) . . .
53(4) . . .
50(4) . . .
49(4) . . .
56(4) . . .
60(4) . . .
52(4) . . .
55(4) . . .
57(4) . . .
51(4) . . .
55(4) . . .
55(4) . . .
57(4) . . .
55(4) . . .
56(4) . . .
59(4) . . .
58(4) . . .
63(4) . . .
55(4) . . .
51(4) . . .
57(4) . . .
55(4) . . .
59(4) . . .
50(4) . . .
58(4) . . .
68(4) . . .
62(4) . . .
57(4) . . .
58(4) . . .
59(4) . . .
56(4) . . .
50(4) . . .
58(4) . . .
53(4) . . .
50(4) . . .
53(4) . . .
58(4) . . .
62(4) . . .
65(4) . . .
61(4) . . .
51(4) . . .
55(4) . . .
54(4) . . .
59(4) . . .
54(4) . . .
52(4) . . .
53(4) . . .
58(4) . . .
52(4) . . .
70(5) . . .
56(4) . . .
54(4) . . .
60(4) . . .
56(4) . . .
58(4) . . .
63(4) . . .
58(4) . . .
71(4) . . .
57(4) . . .
54(4) . . .
54(4) . . .
64(4) . . .
59(4) . . .
45(4) . . .
52(4) . . .
61(4) . . .
59(4) . . .
57(4) . . .
61(4) . . .
47(4) . . .
52(4) . . .
57(4) . . .
57(4) . . .
54(4) . . .
59(4) . . .
54(4) . . .
63(4) . . .
63(4) . . .
73(5) . . .
50(4) . . .
51(4) . . .
53(4) . . .
50(4) . . .
57(4) . . .
51(4) . . .
52(4) . . .
57(4) . . .
60(4) . . .
55(4) . . .
54(4) . . .
56(4) . . .
60(4) . . .
63(4) . . .
59(4) . . .
60(4) . . .
53(4) . . .
58(4) . . .
63(4) . . .
62(4) . . .
61(4) . . .
56(4) . . .
67(4) . . .
53(4) . . .
69(4) . . .
71(5) . . .
57(4) . . .
60(4) . . .
51(4) . . .
61(4) . . .
58(4) . . .
48(4) . . .
49(4) . . .
61(4) . . .
57(4) . . .
67(5) . . .
56(4) . . .
67(4) . . .
62(4) . . .
56(4) . . .
66(5) . . .
51(4) . . .
55(4) . . .
54(4) . . .
54(4) . . .
53(4) . . .
51(4) . . .
59(4) . . .
66(5) . . .
57(4) . . .
50(4) . . .
58(4) . . .
57(4) . . .
46(4) . . .
54(4) . . .
52(4) . . .
54(4) . . .
46(4) . . .
62(4) . . .
59(4) . . .
49(4) . . .
59(4) . . .
53(4) . . .
47(4) . . .
58(4) . . .
58(4) . . .
59(4) . . .
66(4) . . .
52(4) . . .
55(4) . . .
64(4) . . .
59(4) . . .
53(4) . . .
62(4) . . .
66(5) . . .
65(4) . . .
53(4) . . .
67(4) . . .
60(4) . . .
46(4) . . .
55(4) . . .
50(4) . . .
54(4) . . .
47(4) . . .
52(4) . . .
56(4) . . .
51(4) . . .
57(4) . . .
61(4) . . .
52(4) . . .
53(4) . . .
63(4) . . .
59(4) . . .
63(4) . . .
62(4) . . .
60(4) . . .
58(4) . . .
57(4) . . .
53(4) . . .
50(4) . . .
57(4) . . .
61(4) . . .
59(4) . . .
55(4) . . .
55(4) . . .
51(4) . . .
56(4) . . .
56(4) . . .
42.4(34) . . .
55(4) . . .
54(4) . . .
42.1(34) . . .
60(4) . . .
39.2(34) . . .
52(4) . . .
55(4) . . .
54(4) . . .
59(4) . . .
55(4) . . .
43(4) . . .
58(4) . . .
61(4) . . .
54(4) . . .
51(4) . . .
57(4) . . .
58(4) . . .
53(4) . . .
47(4) . . .
60(4) . . .
69(5) . . .
55(4) . . .
49(4) . . .
60(4) . . .
54(4) . . .
58(4) . . .
59(4) . . .
56(4) . . .
56(4) . . .
58(4) . . .
51(4) . . .
57(4) . . .
46.8(35) . . .
53(4) . . .
54(4) . . .
58(4) . . .
57(4) . . .
59(4) . . .
56(4) . . .
65(4) . . .
62(4) . . .
57(4) . . .
54(4) . . .
57(4) . . .
55(4) . . .
51(4) . . .
62(4) . . .
53(4) . . .
56(4) . . .
51(4) . . .
53(4) . . .
56(4) . . .
58(4) . . .
50(4) . . .
56(4) . . .
53(4) . . .
69(4) . . .
60(4) . . .
72(5) . . .
52(4) . . .
49(4) . . .
61(4) . . .
56(4) . . .
57(4) . . .
50(4) . . .
52(4) . . .
52(4) . . .
55(4) . . .
54(4) . . .
55(4) . . .
55(4) . . .
47(4) . . .
54(4) . . .
50(4) . . .
52(4) . . .
61(4) . . .
56(4) . . .
54(4) . . .
62(4) . . .
55(4) . . .
51(4) . . .
55(4) . . .
60(4) . . .
50(4) . . .
43.7(35) . . .
60(4) . . .
64(4) . . .
59(4) . . .
42.7(34) . . .
53(4) . . .
52(4) . . .
39.0(33) . . .
58(5) . . .
51(4) . . .
50(4) . . .
59(4) . . .
62(4) . . .
58(4) . . .
66(4) . . .
56(4) . . .
39.7(33) . . .
58(4) . . .
53(4) . . .
51(4) . . .
53(4) . . .
51(4) . . .
58(4) . . .
50(4) . . .
48(4) . . .
57(4) . . .
58(4) . . .
48(4) . . .
52(4) . . .
57(4) . . .
59(4) . . .
51(4) . . .
54(4) . . .
50(4) . . .
44(4) . . .
51(4) . . .
55(4) . . .
55(4) . . .
58(4) . . .
53(4) . . .
59(4) . . .
60(4) . . .
62(4) . . .
52(4) . . .
57(4) . . .
56(4) . . .
62(4) . . .
59(4) . . .
65(5) . . .
56(4) . . .
71(4) . . .
57(4) . . .
59(4) . . .
64(5) . . .
53(4) . . .
65(4) . . .
62(4) . . .
54(4) . . .
59(4) . . .
56(4) . . .
55(4) . . .
56(4) . . .
56(4) . . .
55(4) . . .
66(4) . . .
47(4) . . .
64(4) . . .
54(4) . . .
54(4) . . .
52(4) . . .
53(4) . . .
47(4) . . .
51(4) . . .
64(4) . . .
61(4) . . .
53(4) . . .
49(4) . . .
68(5) . . .
60(4) . . .
61(4) . . .
53(4) . . .
60(4) . . .
64(4) . . .
56(4) . . .
50(4) . . .
72(4) . . .
61(4) . . .
69(5) . . .
51(4) . . .
53(4) . . .
58(4) . . .
49(4) . . .
59(4) . . .
60(4) . . .
57(4) . . .
56(4) . . .
62(4) . . .
61(4) . . .
56(4) . . .
54(4) . . .
49(4) . . .
62(4) . . .
64(4) . . .
69(4) . . .
56(4) . . .
59(4) . . .
63(4) . . .
56(4) . . .
65(4) . . .
61(4) . . .
61(4) . . .
51(4) . . .
51(4) . . .
47(4) . . .
52(4) . . .
52(4) . . .
45(4) . . .
58(4) . . .
59(4) . . .
58(4) . . .
60(4) . . .
57(4) . . .
62(4) . . .
66(4) . . .
55(4) . . .
51(4) . . .
52(4) . . .
54(4) . . .
54(4) . . .
57(4) . . .
59(4) . . .
59(4) . . .
54(4) . . .
60(4) . . .
55(4) . . .
47(4) . . .
52(4) . . .
48(4) . . .
47(4) . . .
49(4) . . .
52(4) . . .
59(4) . . .
47(4) . . .
61(4) . . .
56(4) . . .
53(4) . . .
55(4) . . .
50(4) . . .
60(4) . . .
59(4) . . .
49(4) . . .
52(4) . . .
56(4) . . .
54(4) . . .
49(4) . . .
50(4) . . .
59(4) . . .
51(4) . . .
53(4) . . .
56(4) . . .
57(4) . . .
69(5) . . .
53(4) . . .
50(4) . . .
47(4) . . .
48(4) . . .
55(4) . . .
55(4) . . .
54(4) . . .
51(4) . . .
63(4) . . .
63(4) . . .
55(4) . . .
54(4) . . .
41.4(33) . . .
54(4) . . .
55(4) . . .
51(4) . . .
57(4) . . .
48(4) . . .
64(5) . . .
52(4) . . .
66(4) . . .
53(4) . . .
60(4) . . .
62(4) . . .
54(4) . . .
62(4) . . .
51(4) . . .
64(5) . . .
47(4) . . .
49(4) . . .
67(4) . . .
55(4) . . .
50(4) . . .
53(4) . . .
54(4) . . .
47(4) . . .
61(4) . . .
53(4) . . .
63(4) . . .
60(4) . . .
51(4) . . .
54(4) . . .
63(4) . . .
63(4) . . .
51(4) . . .
57(4) . . .
53(4) . . .
55(4) . . .
47(4) . . .
70(4) . . .
61(4) . . .
45(4) . . .
50(4) . . .
53(4) . . .
48(4) . . .
55(4) . . .
52(4) . . .
48(4) . . .
49(4) . . .
49(4) . . .
44.6(35) . . .
53(4) . . .
53(4) . . .
52(4) . . .
51(4) . . .
54(4) . . .
57(4) . . .
50(4) . . .
54(4) . . .
55(4) . . .
45.5(35) . . .
52(4) . . .
58(4) . . .
65(4) . . .
65(4) . . .
66(4) . . .
51(4) . . .
52(4) . . .
66(4) . . .
59(4) . . .
53(4) . . .
62(4) . . .
55(4) . . .
55(4) . . .
64(4) . . .
58(4) . . .
65(4) . . .
50(4) . . .
57(4) . . .
52(4) . . .
50(4) . . .
49(4) . . .
54(4) . . .
70(4) . . .
48(4) . . .
61(4) . . .
69(5) . . .
50(4) . . .
50(4) . . .
54(4) . . .
57(4) . . .
54(4) . . .
68(4) . . .
63(4) . . .
49(4) . . .
57(4) . . .
60(4) . . .
48(4) . . .
55(4) . . .
54(4) . . .
56(4) . . .
53(4) . . .
45(4) . . .
41.6(34) . . .
61(4) . . .
63(4) . . .
53(4) . . .
58(4) . . .
51(4) . . .
55(4) . . .
55(4) . . .
59(4) . . .
62(4) . . .
51(4) . . .
53(4) . . .
47(4) . . .
66(5) . . .
60(4) . . .
59(4) . . .
57(4) . . .
57(4) . . .
54(4) . . .
48(4) . . .
46(4) . . .
41.0(33) . . .
52(4) . . .
59(4) . . .
48(4) . . .
56(4) . . .
56(4) . . .
55(4) . . .
50(4) . . .
58(4) . . .
54(4) . . .
41.2(34) . . .
62(4) . . .
55(4) . . .
46(4) . . .
51(4) . . .
55(4) . . .
51(4) . . .
51(4) . . .
49(4) . . .
55(4) . . .
47(4) . . .
59(4) . . .
50(4) . . .
45(4) . . .
51(4) . . .
55(4) . . .
61(4) . . .
57(4) . . .
56(4) . . .
52(4) . . .
57(4) . . .
48(4) . . .
50(4) . . .
60(4) . . .
68(4) . . .
64(4) . . .
56(4) . . .
58(4) . . .
47(4) . . .
54(4) . . .
61(4) . . .
57(4) . . .
51(4) . . .
56(4) . . .
63(4) . . .
57(4) . . .
51(4) . . .
49(4) . . .
51(4) . . .
63(4) . . .
42.8(33) . . .
52(4) . . .
55(4) . . .
43.5(35) . . .
41.7(34) . . .
49(4) . . .
60(4) . . .
62(4) . . .
57(4) . . .
65(4) . . .
54(4) . . .
49(4) . . .
50(4) . . .
54(4) . . .
55(4) . . .
62(4) . . .
57(4) . . .
46(4) . . .
51(4) . . .
45(4) . . .
55(4) . . .
60(4) . . .
59(4) . . .
58(4) . . .
59(4) . . .
56(4) . . .
49(4) . . .
58(4) . . .
62(4) . . .
46(4) . . .
62(5) . . .
51(4) . . .
48(4) . . .
44(4) . . .
48(4) . . .
64(5) . . .
47(4) . . .
51(4) . . .
45.3(35) . . .
56(4) . . .
68(5) . . .
48(4) . . .
56(4) . . .
57(4) . . .
52(4) . . .
57(4) . . .
54(4) . . .
59(4) . . .
47(4) . . .
52(4) . . .
55(4) . . .
51(4) . . .
62(4) . . .
54(4) . . .
56(4) . . .
54(4) . . .
60(4) . . .
50(4) . . .
61(4) . . .
61(4) . . .
54(4) . . .
46(4) . . .
60(4) . . .
51(4) . . .
54(4) . . .
57(4) . . .
52(4) . . .
63(4) . . .
45(4) . . .
53(4) . . .
54(4) . . .
58(4) . . .
50(4) . . .
52(4) . . .
49(4) . . .
41.2(33) . . .
62(4) . . .
49(4) . . .
46(4) . . .
60(4) . . .
56(4) . . .
53(4) . . .
53(4) . . .
57(4) . . .
52(4) . . .
48(4) . . .
47(4) . . .
56(4) . . .
61(4) . . .
54(4) . . .
46(4) . . .
52(4) . . .
53(4) . . .
59(4) . . .
56(4) . . .
49(4) . . .
47(4) . . .
57(4) . . .
49(4) . . .
43(4) . . .
51(4) . . .
52(4) . . .
49(4) . . .
56(4) . . .
62(4) . . .
59(4) . . .
51(4) . . .
54(4) . . .
52(4) . . .
49(4) . . .
44(4) . . .
48(4) . . .
58(4) . . .
58(4) . . .
54(4) . . .
57(4) . . .
50(4) . . .
53(4) . . .
49(4) . . .
41.5(34) . . .
53(4) . . .
64(4) . . .
57(4) . . .
56(4) . . .
51(4) . . .
45(4) . . .
58(4) . . .
63(4) . . .
57(4) . . .
52(4) . . .
51(4) . . .
51(4) . . .
57(4) . . .
53(4) . . .
52(4) . . .
61(4) . . .
55(4) . . .
50(4) . . .
53(4) . . .
61(4) . . .
53(4) . . .
47(4) . . .
57(4) . . .
67(5) . . .
53(4) . . .
57(4) . . .
47(4) . . .
53(4) . . .
61(4) . . .
64(4) . . .
53(4) . . .
55(4) . . .
54(4) . . .
56(4) . . .
58(4) . . .
57(4) . . .
55(4) . . .
46(4) . . .
58(4) . . .
44.0(34) . . .
53(4) . . .
63(4) . . .
66(5) . . .
60(4) . . .
61(4) . . .
49(4) . . .
53(4) . . .
52(4) . . .
59(4) . . .
63(4) . . .
59(4) . . .
65(5) . . .
54(4) . . .
42(4) . . .
56(4) . . .
55(4) . . .
51(4) . . .
52(4) . . .
45(4) . . .
49(4) . . .
51(4) . . .
60(4) . . .
47(4) . . .
50(4) . . .
55(4) . . .
55(4) . . .
55(4) . . .
55(4) . . .
56(4) . . .
55(4) . . .
56(4) . . .
51(4) . . .
47(4) . . .
55(4) . . .
48(4) . . .
53(4) . . .
51(4) . . .
53(4) . . .
55(4) . . .
58(4) . . .
62(4) . . .
63(4) . . .
63(4) . . .
53(4) . . .
50(4) . . .
55(4) . . .
59(4) . . .
42.5(34) . . .
53(4) . . .
47(4) . . .
57(4) . . .
48(4) . . .
53(4) . . .
53(4) . . .
52(4) . . .
58(4) . . .
57(4) . . .
50(4) . . .
51(4) . . .
55(4) . . .
53(4) . . .
55(4) . . .
53(4) . . .
58(4) . . .
49(4) . . .
45(4) . . .
58(4) . . .
60(4) . . .
63(4) . . .
47(4) . . .
62(4) . . .
55(4) . . .
56(4) . . .
37.5(32) . . .
44.0(34) . . .
60(4) . . .
51(4) . . .
55(4) . . .
67(4) . . .
49(4) . . .
54(4) . . .
53(4) . . .
54(4) . . .
55(4) . . .
59(4) . . .
53(4) . . .
55(4) . . .
48(4) . . .
44.0(35) . . .
58(4) . . .
54(4) . . .
47(4) . . .
42(4) . . .
49(4) . . .
50(4) . . .
54(4) . . .
49(4) . . .
52(4) . . .
49(4) . . .
48(4) . . .
55(4) . . .
56(4) . . .
48(4) . . .
53(4) . . .
51(4) . . .
64(4) . . .
53(4) . . .
53(4) . . .
45(4) . . .
61(4) . . .
61(4) . . .
58(4) . . .
70(4) . . .
44.4(35) . . .
44(4) . . .
51(4) . . .
53(4) . . .
53(4) . . .
56(4) . . .
47(4) . . .
50(4) . . .
56(4) . . .
49(4) . . .
57(4) . . .
55(4) . . .
45(4) . . .
54(4) . . .
56(4) . . .
54(4) . . .
51(4) . . .
53(4) . . .
57(4) . . .
53(4) . . .
47(4) . . .
55(4) . . .
63(4) . . .
57(4) . . .
47(4) . . .
51(4) . . .
45.2(34) . . .
49(4) . . .
43.1(35) . . .
52(4) . . .
60(4) . . .
66(5) . . .
54(4) . . .
59(4) . . .
54(4) . . .
55(4) . . .
62(5) . . .
55(4) . . .
51(4) . . .
60(4) . . .
57(4) . . .
54(4) . . .
58(4) . . .
47(4) . . .
52(4) . . .
49(4) . . .
57(4) . . .
52(4) . . .
51(4) . . .
61(4) . . .
57(4) . . .
39.1(34) . . .
55(4) . . .
64(4) . . .
51(4) . . .
49(4) . . .
50(4) . . .
56(4) . . .
47.0(35) . . .
59(4) . . .
51(4) . . .
61(5) . . .
62(4) . . .
54(4) . . .
45.8(35) . . .
49(4) . . .
44(4) . . .
55(4) . . .
44(4) . . .
52(4) . . .
49(4) . . .
44(4) . . .
50(4) . . .
42.2(35) . . .
50(4) . . .
64(4) . . .
57(4) . . .
63(4) . . .
56(4) . . .
39.0(33) . . .
55(4) . . .
51(4) . . .
61(4) . . .
61(4) . . .
48(4) . . .
47(4) . . .
48(4) . . .
50(4) . . .
44.9(35) . . .
53(4) . . .
47(4) . . .
43.1(35) . . .
47(4) . . .
50(4) . . .
44(4) . . .
51(4) . . .
55(4) . . .
46(4) . . .
39.8(33) . . .
47(4) . . .
63(4) . . .
52(4) . . .
55(4) . . .
53(4) . . .
50(4) . . .
53(4) . . .
60(4) . . .
62(4) . . .
53(4) . . .
37.8(34) . . .
42.5(35) . . .
58(4) . . .
58(4) . . .
55(4) . . .
51(4) . . .
49(4) . . .
47(4) . . .
57(4) . . .
59(4) . . .
49(4) . . .
56(4) . . .
57(4) . . .
46.6(35) . . .
59(4) . . .
48(4) . . .
54(4) . . .
55(4) . . .
58(4) . . .
52(4) . . .
49(4) . . .
53(4) . . .
57(4) . . .
60(4) . . .
51(4) . . .
56(4) . . .
54(4) . . .
61(4) . . .
60(4) . . .
50(4) . . .
47(4) . . .
44(4) . . .
53(4) . . .
61(4) . . .
57(4) . . .
54(4) . . .
45.3(35) . . .
56(4) . . .
57(4) . . .
51(4) . . .
48(4) . . .
52(4) . . .
46(4) . . .
55(4) . . .
51(4) . . .
57(4) . . .
51(4) . . .
55(4) . . .
48(4) . . .
46(4) . . .
45(4) . . .
48(4) . . .
47(4) . . .
54(4) . . .
51(4) . . .
49(4) . . .
45(4) . . .
48(4) . . .
49(4) . . .
55(4) . . .
53(4) . . .
51(4) . . .
46(4) . . .
52(4) . . .
55(4) . . .
49(4) . . .
56(4) . . .
48(4) . . .
52(4) . . .
50(4) . . .
54(4) . . .
53(4) . . .
43.7(34) . . .
50(4) . . .
51(4) . . .
45(4) . . .
41.7(35) . . .
52(4) . . .
65(4) . . .
43.9(35) . . .
49(4) . . .
60(4) . . .
53(4) . . .
50(4) . . .
59(4) . . .
51(4) . . .
48(4) . . .
59(4) . . .
47(4) . . .
39.2(33) . . .
46(4) . . .
49(4) . . .
54(4) . . .
49(4) . . .
47(4) . . .
57(4) . . .
63(4) . . .
51(4) . . .
53(4) . . .
51(4) . . .
52(4) . . .
50(4) . . .
48(4) . . .
46(4) . . .
51(4) . . .
51(4) . . .
49(4) . . .
61(4) . . .
53(4) . . .
47(4) . . .
64(4) . . .
54(4) . . .
50(4) . . .
51(4) . . .
60(4) . . .
51(4) . . .
55(4) . . .
53(4) . . .
46(4) . . .
35.5(32) . . .
61(4) . . .
60(4) . . .
49(4) . . .
46(4) . . .
44.2(35) . . .
50(4) . . .
62(4) . . .
45(4) . . .
43(4) . . .
48(4) . . .
49(4) . . .
47(4) . . .
47(4) . . .
49(4) . . .
56(4) . . .
57(4) . . .
49(4) . . .
51(4) . . .
51(4) . . .
55(4) . . .
59(4) . . .
56(4) . . .
46(4) . . .
39.2(34) . . .
51(4) . . .
51(4) . . .
55(4) . . .
50(4) . . .
58(4) . . .
59(4) . . .
50(4) . . .
53(4) . . .
51(4) . . .
50(4) . . .
53(4) . . .
48(4) . . .
47(4) . . .
46(4) . . .
45(4) . . .
48(4) . . .
62(4) . . .
49(4) . . .
54(4) . . .
50(4) . . .
61(4) . . .
55(4) . . .
46(4) . . .
39.6(32) . . .
53(4) . . .
52(4) . . .
61(4) . . .
47(4) . . .
60(4) . . .
60(4) . . .
47(4) . . .
58(4) . . .
43.1(34) . . .
43(4) . . .
51(4) . . .
54(4) . . .
55(4) . . .
53(4) . . .
49(4) . . .
55(4) . . .
53(4) . . .
53(4) . . .
49(4) . . .
47(4) . . .
49(4) . . .
53(4) . . .
46(4) . . .
51(4) . . .
57(4) . . .
48(4) . . .
54(4) . . .
49(4) . . .
56(4) . . .
47(4) . . .
50(4) . . .
51(4) . . .
53(4) . . .
51(4) . . .
55(4) . . .
57(4) . . .
51(4) . . .
50(4) . . .
56(4) . . .
57(4) . . .
57(4) . . .
49(4) . . .
65(4) . . .
52(4) . . .
48(4) . . .
60(4) . . .
56(4) . . .
63(4) . . .
54(4) . . .
46(4) . . .
59(4) . . .
40.7(33) . . .
47(4) . . .
46(4) . . .
56(4) . . .
63(4) . . .
48(4) . . .
55(4) . . .
62(4) . . .
53(4) . . .
47(4) . . .
46(4) . . .
42(4) . . .
49(4) . . .
51(4) . . .
50(4) . . .
66(4) . . .
46(4) . . .
51(4) . . .
44.8(35) . . .
53(4) . . .
44.3(35) . . .
56(4) . . .
51(4) . . .
54(4) . . .
49(4) . . .
43.9(35) . . .
53(4) . . .
55(4) . . .
66(4) . . .
56(4) . . .
51(4) . . .
49(4) . . .
50(4) . . .
50(4) . . .
53(4) . . .
50(4) . . .
56(4) . . .
60(4) . . .
57(4) . . .
58(4) . . .
57(4) . . .
54(4) . . .
57(4) . . .
43(4) . . .
51(4) . . .
49(4) . . .
47(4) . . .
48(4) . . .
47(4) . . .
50(4) . . .
49(4) . . .
53(4) . . .
52(4) . . .
57(4) . . .
53(4) . . .
49(4) . . .
53(4) . . .
50(4) . . .
50(4) . . .
56(4) . . .
43.4(35) . . .
49(4) . . .
46(4) . . .
55(4) . . .
50(4) . . .
59(4) . . .
47(4) . . .
57(4) . . .
55(4) . . .
55(4) . . .
52(4) . . .
43.6(35) . . .
48(4) . . .
51(4) . . .
44.0(35) . . .
55(4) . . .
63(4) . . .
55(4) . . .
63(4) . . .
51(4) . . .
60(4) . . .
57(4) . . .
56(4) . . .
62(4) . . .
56(4) . . .
47(4) . . .
49(4) . . .
57(4) . . .
56(4) . . .
51(4) . . .
50(4) . . .
51(4) . . .
51(4) . . .
59(4) . . .
52(4) . . .
63(5) . . .
45(4) . . .
52(4) . . .
50(4) . . .
60(4) . . .
49(4) . . .
47(4) . . .
48(4) . . .
52(4) . . .
59(4) . . .
49(4) . . .
47(4) . . .
49(4) . . .
41.8(33) . . .
46(4) . . .
52(4) . . .
59(4) . . .
51(4) . . .
53(4) . . .
49(4) . . .
51(4) . . .
51(4) . . .
53(4) . . .
54(4) . . .
42(4) . . .
50(4) . . .
62(4) . . .
55(4) . . .
52(4) . . .
48(4) . . .
51(4) . . .
43(4) . . .
42.9(34) . . .
51(4) . . .
47(4) . . .
51(4) . . .
49(4) . . .
42.5(34) . . .
43.3(34) . . .
62(4) . . .
61(4) . . .
50(4) . . .
46(4) . . .
40.6(34) . . .
59(4) . . .
51(4) . . .
51(4) . . .
48(4) . . .
64(4) . . .
56(4) . . .
50(4) . . .
54(4) . . .
56(4) . . .
51(4) . . .
41.1(34) . . .
49(4) . . .
52(4) . . .
53(4) . . .
51(4) . . .
54(4) . . .
48(4) . . .
62(4) . . .
52(4) . . .
53(4) . . .
61(4) . . .
44.7(34) . . .
51(4) . . .
54(4) . . .
53(4) . . .
43(4) . . .
52(4) . . .
51(4) . . .
55(4) . . .
49(4) . . .
61(4) . . .
52(4) . . .
51(4) . . .
44.7(35) . . .
48(4) . . .
43(4) . . .
51(4) . . .
46(4) . . .
42.9(34) . . .
56(4) . . .
56(4) . . .
50(4) . . .
61(4) . . .
55(4) . . .
47(4) . . .
58(4) . . .
51(4) . . .
45(4) . . .
54(4) . . .
52(4) . . .
55(4) . . .
59(4) . . .
60(4) . . .
52(4) . . .
48(4) . . .
51(4) . . .
46(4) . . .
48(4) . . .
58(4) . . .
55(4) . . .
42.7(33) . . .
50(4) . . .
49(4) . . .
51(4) . . .
63(4) . . .
59(4) . . .
58(4) . . .
49(4) . . .
46(4) . . .
49(4) . . .
47(4) . . .
48(4) . . .
53(4) . . .
63(4) . . .
48(4) . . .
54(4) . . .
43(4) . . .
51(4) . . .
58(4) . . .
47(4) . . .
48(4) . . .
44(4) . . .
56(4) . . .
49(4) . . .
46(4) . . .
45(4) . . .
47(4) . . .
62(4) . . .
54(4) . . .
49(4) . . .
54(4) . . .
52(4) . . .
48(4) . . .
48(4) . . .
50(4) . . .
50(4) . . .
52(4) . . .
52(4) . . .
46(4) . . .
44(4) . . .
48(4) . . .
43.7(34) . . .
53(4) . . .
59(4) . . .
44(4) . . .
43(4) . . .
53(4) . . .
47(4) . . .
58(4) . . .
50(4) . . .
51(4) . . .
56(4) . . .
44.0(34) . . .
52(4) . . .
53(4) . . .
58(4) . . .
53(4) . . .
48(4) . . .
52(4) . . .
50(4) . . .
56(4) . . .
55(4) . . .
45(4) . . .
49(4) . . .
53(4) . . .
47(4) . . .
51(4) . . .
51(4) . . .
49(4) . . .
35.7(31) . . .
45(4) . . .
47(4) . . .
49(4) . . .
51(4) . . .
51(4) . . .
52(4) . . .
49(4) . . .
46(4) . . .
46(4) . . .
61(4) . . .
55(4) . . .
49(4) . . .
60(4) . . .
44(4) . . .
48(4) . . .
42.9(34) . . .
46(4) . . .
51(4) . . .
47(4) . . .
51(4) . . .
54(4) . . .
54(4) . . .
56(4) . . .
47(4) . . .
55(4) . . .
37.5(32) . . .
39.7(32) . . .
49(4) . . .
56(4) . . .
56(4) . . .
50(4) . . .
52(4) . . .
44(4) . . .
60(5) . . .
51(4) . . .
53(4) . . .
55(4) . . .
43(4) . . .
50(4) . . .
47(4) . . .
55(4) . . .
48(4) . . .
46(4) . . .
52(4) . . .
57(4) . . .
53(4) . . .
49(4) . . .
43(4) . . .
44(4) . . .
59(4) . . .
53(4) . . .
57(4) . . .
53(4) . . .
46(4) . . .
55(4) . . .
51(4) . . .
48(4) . . .
49(4) . . .
44(4) . . .
50(4) . . .
49(4) . . .
57(4) . . .
48(4) . . .
51(4) . . .
45(4) . . .
43.3(34) . . .
48(4) . . .
36.9(33) . . .
41.7(35) . . .
39.3(32) . . .
37.9(32) . . .
49(4) . . .
42.8(35) . . .
53(4) . . .
57(4) . . .
51(4) . . .
47(4) . . .
44(4) . . .
50(4) . . .
49(4) . . .
43.5(35) . . .
50(4) . . .
48(4) . . .
47(4) . . .
48(4) . . .
49(4) . . .
41.8(34) . . .
45(4) . . .
43.3(34) . . .
54(4) . . .
57(4) . . .
44(4) . . .
54(4) . . .
56(4) . . .
54(4) . . .
54(4) . . .
54(4) . . .
30.7(28) . . .
46(4) . . .
56(4) . . .
61(4) . . .
58(4) . . .
47(4) . . .
58(4) . . .
49(4) . . .
49(4) . . .
58(4) . . .
48(4) . . .
52(4) . . .
50(4) . . .
45(4) . . .
54(4) . . .
54(4) . . .
53(4) . . .
58(4) . . .
38.5(34) . . .
44(4) . . .
33.0(30) . . .
54(4) . . .
50(4) . . .
46(4) . . .
39.9(34) . . .
57(4) . . .
49(4) . . .
45(4) . . .
49(4) . . .
54(4) . . .
48(4) . . .
41.5(34) . . .
49(4) . . .
47(4) . . .
50(4) . . .
52(4) . . .
49(4) . . .
51(4) . . .
55(4) . . .
45(4) . . .
46(4) . . .
46(4) . . .
44.3(34) . . .
44(4) . . .
48(4) . . .
62(4) . . .
52(4) . . .
49(4) . . .
46(4) . . .
58(4) . . .
54(4) . . .
46(4) . . .
48(4) . . .
54(4) . . .
48(4) . . .
44.1(35) . . .
40.0(33) . . .
39.7(33) . . .
53(4) . . .
51(4) . . .
50(4) . . .
48(4) . . .
59(4) . . .
43(4) . . .
42(4) . . .
66(4) . . .
51(4) . . .
52(4) . . .
53(4) . . .
52(4) . . .
62(4) . . .
57(4) . . .
43(4) . . .
40(4) . . .
48(4) . . .
49(4) . . .
49(4) . . .
49(4) . . .
55(4) . . .
55(4) . . .
44.0(34) . . .
56(4) . . .
53(4) . . .
51(4) . . .
52(4) . . .
56(4) . . .
45.3(35) . . .
50(4) . . .
49(4) . . .
60(4) . . .
54(4) . . .
58(4) . . .
44.8(35) . . .
51(4) . . .
55(4) . . .
51(4) . . .
58(4) . . .
52(4) . . .
54(4) . . .
56(4) . . .
52(4) . . .
49(4) . . .
45(4) . . .
44.7(35) . . .
44.4(34) . . .
55(4) . . .
56(4) . . .
48(4) . . .
45(4) . . .
62(4) . . .
51(4) . . .
48(4) . . .
59(4) . . .
44(4) . . .
50(4) . . .
42.2(34) . . .
41(4) . . .
51(4) . . .
53(4) . . .
49(4) . . .
46(4) . . .
59(4) . . .
47(4) . . .
50(4) . . .
47(4) . . .
46(4) . . .
51(4) . . .
45(4) . . .
55(4) . . .
50(4) . . .
43.4(35) . . .
50(4) . . .
47(4) . . .
56(4) . . .
51(4) . . .
60(4) . . .
48(4) . . .
56(4) . . .
49(4) . . .
48(4) . . .
44.1(34) . . .
57(4) . . .
57(4) . . .
54(4) . . .
46(4) . . .
61(4) . . .
59(4) . . .
55(4) . . .
42.4(35) . . .
48(4) . . .
52(4) . . .
62(4) . . .
58(4) . . .
55(4) . . .
52(4) . . .
50(4) . . .
50(4) . . .
48(4) . . .
45.6(35) . . .
47(4) . . .
56(4) . . .
59(4) . . .
49(4) . . .
48(4) . . .
51(4) . . .
47(4) . . .
52(4) . . .
47(4) . . .
49(4) . . .
53(4) . . .
50(4) . . .
52(4) . . .
63(4) . . .
46(4) . . .
60(4) . . .
46(4) . . .
45(4) . . .
49(4) . . .
38.2(32) . . .
42.0(35) . . .
51(4) . . .
54(4) . . .
57(4) . . .
54(4) . . .
48(4) . . .
56(4) . . .
59(4) . . .
47(4) . . .
49(4) . . .
40.9(34) . . .
44(4) . . .
53(4) . . .
52(4) . . .
55(4) . . .
51(4) . . .
47(4) . . .
60(4) . . .
45(4) . . .
54(4) . . .
47(4) . . .
49(4) . . .
48(4) . . .
48(4) . . .
48(4) . . .
55(4) . . .
48(4) . . .
47(4) . . .
44.0(34) . . .
52(4) . . .
37.6(33) . . .
46(4) . . .
52(4) . . .
52(4) . . .
52(4) . . .
53(4) . . .
48(4) . . .
49(4) . . .
48(4) . . .
43.2(34) . . .
48(4) . . .
43.0(35) . . .
54(4) . . .
57(4) . . .
44.2(35) . . .
46(4) . . .
45(4) . . .
53(4) . . .
49(4) . . .
50(4) . . .
51(4) . . .
50(4) . . .
46(4) . . .
51(4) . . .
50(4) . . .
43(4) . . .
48(4) . . .
53(4) . . .
46(4) . . .
45(4) . . .
51(4) . . .
54(4) . . .
56(4) . . .
43.5(34) . . .
51(4) . . .
50(4) . . .
49(4) . . .
50(4) . . .
43.8(34) . . .
51(4) . . .
58(4) . . .
55(4) . . .
52(4) . . .
47(4) . . .
58(4) . . .
47(4) . . .
39.1(34) . . .
50(4) . . .
47(4) . . .
60(4) . . .
46(4) . . .
56(4) . . .
50(4) . . .
54(4) . . .
65(4) . . .
48(4) . . .
40.5(34) . . .
48(4) . . .
50(4) . . .
53(4) . . .
50(4) . . .
48(4) . . .
51(4) . . .
57(4) . . .
39.5(33) . . .
46(4) . . .
56(4) . . .
47(4) . . .
50(4) . . .
51(4) . . .
38.3(33) . . .
41.3(34) . . .
43.1(35) . . .
40.8(33) . . .
42.0(34) . . .
46(4) . . .
48(4) . . .
41.6(34) . . .
50(4) . . .
48(4) . . .
52(4) . . .
50(4) . . .
55(4) . . .
44.8(35) . . .
62(4) . . .
53(4) . . .
42.2(34) . . .
52(4) . . .
47(4) . . .
39.3(32) . . .
54(4) . . .
54(4) . . .
50(4) . . .
52(4) . . .
54(4) . . .
48(4) . . .
42.5(35) . . .
43.2(34) . . .
50(4) . . .
48(4) . . .
59(4) . . .
46(4) . . .
40.2(33) . . .
38.0(33) . . .
52(4) . . .
49(4) . . .
53(4) . . .
54(4) . . .
50(4) . . .
57(4) . . .
59(4) . . .
51(4) . . .
51(4) . . .
49(4) . . .
49(4) . . .
46(4) . . .
47(4) . . .
55(4) . . .
58(4) . . .
51(4) . . .
56(4) . . .
59(4) . . .
51(4) . . .
43(4) . . .
51(4) . . .
44(4) . . .
49(4) . . .
44(4) . . .
53(4) . . .
50(4) . . .
54(4) . . .
52(4) . . .
50(4) . . .
48(4) . . .
44(4) . . .
47(4) . . .
53(4) . . .
62(4) . . .
46(4) . . .
50(4) . . .
46(4) . . .
40.5(33) . . .
47(4) . . .
47(4) . . .
45(4) . . .
38.7(34) . . .
46(4) . . .
44(4) . . .
53(4) . . .
46(4) . . .
44(4) . . .
51(4) . . .
46(4) . . .
45(4) . . .
46(4) . . .
56(4) . . .
37.8(32) . . .
48(4) . . .
51(4) . . .
47(4) . . .
50(4) . . .
55(4) . . .
49(4) . . .
50(4) . . .
42.6(35) . . .
51(4) . . .
53(4) . . .
51(4) . . .
50(4) . . .
57(4) . . .
47(4) . . .
52(4) . . .
55(4) . . .
54(4) . . .
45(4) . . .
44.7(34) . . .
57(4) . . .
53(4) . . .
53(4) . . .
52(4) . . .
54(4) . . .
41.4(35) . . .
45(4) . . .
47(4) . . .
53(4) . . .
48(4) . . .
43.9(34) . . .
48(4) . . .
53(4) . . .
56(4) . . .
53(4) . . .
48(4) . . .
48(4) . . .
42.1(34) . . .
45(4) . . .
47(4) . . .
53(4) . . .
48(4) . . .
45(4) . . .
54(4) . . .
49(4) . . .
46(4) . . .
45(4) . . .
51(4) . . .
45(4) . . .
33.0(30) . . .
47(4) . . .
59(4) . . .
54(4) . . .
47(4) . . .
46(4) . . .
53(4) . . .
37.1(35) . . .
42(4) . . .
50(4) . . .
51(4) . . .
59(4) . . .
53(4) . . .
44(4) . . .
51(4) . . .
52(4) . . .
46(4) . . .
46(4) . . .
45(4) . . .
55(4) . . .
50(4) . . .
50(4) . . .
53(4) . . .
49(4) . . .
56(4) . . .
47(4) . . .
49(4) . . .
48(4) . . .
48(4) . . .
53(4) . . .
52(4) . . .
51(4) . . .
56(4) . . .
50(4) . . .
55(4) . . .
53(4) . . .
56(4) . . .
57(4) . . .
43.9(35) . . .
54(4) . . .
50(4) . . .
54(4) . . .
45(4) . . .
46(4) . . .
41.8(34) . . .
59(4) . . .
50(4) . . .
45.1(35) . . .
49(4) . . .
38.3(32) . . .
46(4) . . .
53(4) . . .
49(4) . . .
52(4) . . .
53(4) . . .
41.2(33) . . .
57(4) . . .
49(4) . . .
50(4) . . .
55(4) . . .
50(4) . . .
57(4) . . .
51(4) . . .
54(4) . . .
44.0(34) . . .
54(4) . . .
57(4) . . .
49(4) . . .
50(4) . . .
49(4) . . .
45(4) . . .
48(4) . . .
49(4) . . .
46(4) . . .
55(4) . . .
46(4) . . .
43(4) . . .
53(4) . . .
51(4) . . .
54(4) . . .
44.0(35) . . .
45(4) . . .
53(4) . . .
48(4) . . .
44(4) . . .
47(4) . . .
55(4) . . .
52(4) . . .
51(4) . . .
59(4) . . .
55(4) . . .
45(4) . . .
47(4) . . .
49(4) . . .
51(4) . . .
48(4) . . .
44.1(35) . . .
57(4) . . .
47(4) . . .
48(4) . . .
42(4) . . .
45(4) . . .
55(4) . . .
50(4) . . .
44(4) . . .
42(4) . . .
41.9(34) . . .
44.7(35) . . .
49(4) . . .
55(4) . . .
49(4) . . .
55(4) . . .
53(4) . . .
48(4) . . .
49(4) . . .
47(4) . . .
44(4) . . .
49(4) . . .
57(4) . . .
55(4) . . .
57(4) . . .
53(4) . . .
53(4) . . .
49(4) . . .
50(4) . . .
53(4) . . .
59(4) . . .
46(4) . . .
39.7(33) . . .
51(4) . . .
48(4) . . .
56(4) . . .
48(4) . . .
36.3(31) . . .
48(4) . . .
49(4) . . .
53(4) . . .
39.4(33) . . .
58(4) . . .
46(4) . . .
58(4) . . .
53(4) . . .
50(4) . . .
45(4) . . .
58(4) . . .
57(4) . . .
49(4) . . .
44.3(35) . . .
57(4) . . .
52(4) . . .
52(4) . . .
49(4) . . .
40.7(33) . . .
54(4) . . .
53(4) . . .
37.1(32) . . .
58(4) . . .
47(4) . . .
49(4) . . .
52(4) . . .
52(4) . . .
44(4) . . .
34.6(31) . . .
33.1(32) . . .
39(4) . . .
48(4) . . .
55(4) . . .
37.8(33) . . .
56(4) . . .
45(4) . . .
51(4) . . .
51(4) . . .
53(4) . . .
52(4) . . .
44(4) . . .
44(4) . . .
41.4(33) . . .
54(4) . . .
38.2(32) . . .
45(4) . . .
52(4) . . .
55(4) . . .
56(4) . . .
40.7(33) . . .
49(4) . . .
44(4) . . .
44.2(35) . . .
49(4) . . .
51(4) . . .
49(4) . . .
48(4) . . .
53(4) . . .
55(4) . . .
42(4) . . .
46(4) . . .
48(4) . . .
54(4) . . .
45(4) . . .
50(4) . . .
46(4) . . .
45.1(35) . . .
44.4(35) . . .
42(4) . . .
55(4) . . .
40.5(33) . . .
47(4) . . .
62(4) . . .
52(4) . . .
43(4) . . .
47(4) . . .
49(4) . . .
55(4) . . .
40.4(33) . . .
54(4) . . .
48(4) . . .
41.8(33) . . .
46.2(35) . . .
51(4) . . .
47(4) . . .
48(4) . . .
48(4) . . .
53(4) . . .
39.7(34) . . .
48(4) . . .
42(4) . . .
40.0(33) . . .
50(4) . . .
45.6(34) . . .
54(4) . . .
54(4) . . .
43.4(34) . . .
44.2(34) . . .
50(4) . . .
53(4) . . .
50(4) . . .
49(4) . . .
44(4) . . .
44(4) . . .
53(4) . . .
48(4) . . .
55(4) . . .
52(4) . . .
50(4) . . .
50(4) . . .
45.8(35) . . .
49(4) . . .
50(4) . . .
54(4) . . .
38.7(33) . . .
51(4) . . .
48(4) . . .
50(4) . . .
58(4) . . .
52(4) . . .
49(4) . . .
45.6(35) . . .
48(4) . . .
46(4) . . .
47(4) . . .
43.8(34) . . .
57(4) . . .
49(4) . . .
47(4) . . .
48(4) . . .
45.9(35) . . .
47(4) . . .
48(4) . . .
50(4) . . .
46(4) . . .
43.8(34) . . .
42.7(34) . . .
48(4) . . .
40.0(34) . . .
40.0(35) . . .
51(4) . . .
39.7(34) . . .
47(4) . . .
46.5(35) . . .
60(4) . . .
50(4) . . .
54(4) . . .
44.7(35) . . .
48(4) . . .
43.0(35) . . .
48(4) . . .
45(4) . . .
51(4) . . .
46(4) . . .
35.9(32) . . .
49(4) . . .
45.2(35) . . .
41.0(34) . . .
39.0(34) . . .
47(4) . . .
38.5(32) . . .
50(4) . . .
44(4) . . .
54(4) . . .
52(4) . . .
52(4) . . .
55(4) . . .
47(4) . . .
54(4) . . .
43.3(34) . . .
52(4) . . .
47(4) . . .
49(4) . . .
54(4) . . .
44(4) . . .
42.8(34) . . .
41.6(34) . . .
54(4) . . .
53(4) . . .
47(4) . . .
56(4) . . .
55(4) . . .
45(4) . . .
50(4) . . .
49(4) . . .
49(4) . . .
52(4) . . .
49(4) . . .
48(4) . . .
48(4) . . .
44.5(35) . . .
46(4) . . .
47(4) . . .
53(4) . . .
48(4) . . .
54(4) . . .
54(4) . . .
53(4) . . .
51(4) . . .
50(4) . . .
55(4) . . .
40.5(33) . . .
48(4) . . .
41.8(34) . . .
53(4) . . .
47(4) . . .
48(4) . . .
47(4) . . .
43(4) . . .
53(4) . . .
47(4) . . .
51(4) . . .
49(4) . . .
44(4) . . .
41.1(34) . . .
47(4) . . .
42(4) . . .
51(4) . . .
49(4) . . .
45.0(35) . . .
54(4) . . .
59(4) . . .
52(4) . . .
44.6(35) . . .
43.7(34) . . .
53(4) . . .
52(4) . . .
51(4) . . .
45(4) . . .
49(4) . . .
60(4) . . .
53(4) . . .
48(4) . . .
51(4) . . .
52(4) . . .
41.7(35) . . .
42(4) . . .
50(4) . . .
51(4) . . .
42.9(34) . . .
39.9(34) . . .
44(4) . . .
42(4) . . .
51(4) . . .
47(4) . . .
47(4) . . .
52(4) . . .
55(4) . . .
46(4) . . .
47(4) . . .
59(4) . . .
52(4) . . .
49(4) . . .
50(4) . . .
52(4) . . .
53(4) . . .
49(4) . . .
38.5(32) . . .
52(4) . . .
45(4) . . .
56(4) . . .
59(4) . . .
47(4) . . .
48(4) . . .
54(4) . . .
54(4) . . .
52(4) . . .
54(4) . . .
47(4) . . .
57(4) . . .
51(4) . . .
45(4) . . .
49(4) . . .
47(4) . . .
44(4) . . .
49(4) . . .
42.5(35) . . .
52(4) . . .
59(4) . . .
59(4) . . .
61(4) . . .
51(4) . . .
48(4) . . .
42.3(34) . . .
48(4) . . .
52(4) . . .
40.3(34) . . .
47(4) . . .
49(4) . . .
51(4) . . .
53(4) . . .
53(4) . . .
57(4) . . .
50(4) . . .
50(4) . . .
52(4) . . .
47(4) . . .
53(4) . . .
47(4) . . .
50(4) . . .
56(4) . . .
49(4) . . .
43.4(34) . . .
52(4) . . .
50(4) . . .
52(4) . . .
47(4) . . .
47(4) . . .
49(4) . . .
45(4) . . .
44(4) . . .
54(4) . . .
50(4) . . .
53(4) . . .
49(4) . . .
48(4) . . .
45.8(35) . . .
42.5(34) . . .
41(4) . . .
35.0(32) . . .
52(4) . . .
57(4) . . .
50(4) . . .
43.8(34) . . .
50(4) . . .
41.4(34) . . .
56(4) . . .
59(4) . . .
47(4) . . .
50(4) . . .
46(4) . . .
53(4) . . .
68(4) . . .
50(4) . . .
50(4) . . .
50(4) . . .
42.0(33) . . .
52(4) . . .
42.3(34) . . .
50(4) . . .
51(4) . . .
44.7(35) . . .
52(4) . . .
59(4) . . .
47(4) . . .
39.1(33) . . .
50(4) . . .
49(4) . . .
45(4) . . .
41.7(34) . . .
41.2(34) . . .
44.4(35) . . .
46(4) . . .
57(4) . . .
52(4) . . .
48(4) . . .
49(4) . . .
40.3(34) . . .
49(4) . . .
41.5(34) . . .
42.3(35) . . .
51(4) . . .
48(4) . . .
50(4) . . .
47(4) . . .
54(4) . . .
48(4) . . .
49(4) . . .
49(4) . . .
34.8(32) . . .
39.3(33) . . .
51(4) . . .
53(4) . . .
51(4) . . .
45(4) . . .
48(4) . . .
47(4) . . .
41.7(35) . . .
50(4) . . .
55(4) . . .
38.9(32) . . .
44.8(35) . . .
51(4) . . .
43(4) . . .
43(4) . . .
45.0(35) . . .
43.2(34) . . .
53(4) . . .
49(4) . . .
53(4) . . .
55(4) . . .
52(4) . . .
53(4) . . .
52(4) . . .
50(4) . . .
46(4) . . .
50(4) . . .
50(4) . . .
36.1(30) . . .
45(4) . . .
50(4) . . .
44(4) . . .
54(4) . . .
50(4) . . .
41.5(33) . . .
56(4) . . .
62(4) . . .
58(4) . . .
57(4) . . .
52(4) . . .
36.9(31) . . .
41.1(35) . . .
60(4) . . .
46(4) . . .
48(4) . . .
50(4) . . .
42.8(35) . . .
45(4) . . .
43(4) . . .
45.4(35) . . .
41.0(34) . . .
45(4) . . .
54(4) . . .
43(4) . . .
50(4) . . .
44.7(34) . . .
44(4) . . .
48(4) . . .
45.2(34) . . .
52(4) . . .
55(4) . . .
47(4) . . .
51(4) . . .
48(4) . . .
42.5(34) . . .
46(4) . . .
53(4) . . .
45(4) . . .
41(4) . . .
47(4) . . .
49(4) . . .
55(4) . . .
42(4) . . .
55(4) . . .
54(4) . . .
44.3(35) . . .
49(4) . . .
44.2(35) . . .
43(4) . . .
42.3(34) . . .
44(4) . . .
47(4) . . .
46(4) . . .
52(4) . . .
46(4) . . .
46(4) . . .
43(4) . . .
50(4) . . .
51(4) . . .
46(4) . . .
47(4) . . .
50(4) . . .
52(4) . . .
51(4) . . .
37.3(32) . . .
49(4) . . .
43(4) . . .
45(4) . . .
43.1(35) . . .
40.0(33) . . .
57(4) . . .
63(4) . . .
46(4) . . .
56(4) . . .
47(4) . . .
37.7(32) . . .
40.3(35) . . .
38.8(34) . . .
42.8(34) . . .
45(4) . . .
49(4) . . .
47(4) . . .
44.1(35) . . .
50(4) . . .
49(4) . . .
52(4) . . .
49(4) . . .
49(4) . . .
41.5(34) . . .
45.2(35) . . .
45(4) . . .
50(4) . . .
53(4) . . .
48(4) . . .
44.4(35) . . .
47(4) . . .
44(4) . . .
45(4) . . .
42.7(34) . . .
53(4) . . .
51(4) . . .
49(4) . . .
51(4) . . .
51(4) . . .
45(4) . . .
48(4) . . .
54(4) . . .
62(4) . . .
50(4) . . .
37.4(33) . . .
52(4) . . .
52(4) . . .
47(4) . . .
60(4) . . .
45(4) . . .
50(4) . . .
48(4) . . .
47(4) . . .
55(4) . . .
57(4) . . .
47(4) . . .
40.4(34) . . .
44(4) . . .
47(4) . . .
48(4) . . .
55(4) . . .
48(4) . . .
45(4) . . .
40.9(33) . . .
38.7(34) . . .
41(4) . . .
41(4) . . .
39.8(34) . . .
48(4) . . .
45.1(35) . . .
60(5) . . .
48(4) . . .
39.1(33) . . .
50(4) . . .
54(4) . . .
55(4) . . .
44(4) . . .
37.8(32) . . .
45(4) . . .
47(4) . . .
43.1(35) . . .
50(4) . . .
43.0(34) . . .
50(4) . . .
55(4) . . .
51(4) . . .
50(4) . . .
55(4) . . .
54(4) . . .
48(4) . . .
48(4) . . .
50(4) . . .
43.1(34) . . .
53(4) . . .
49(4) . . .
52(4) . . .
49(4) . . .
55(4) . . .
42(4) . . .
49(4) . . .
49(4) . . .
50(4) . . .
49(4) . . .
57(4) . . .
43.9(34) . . .
50(4) . . .
48(4) . . .
51(4) . . .
63(4) . . .
46(4) . . .
50(4) . . .
47(4) . . .
47(4) . . .
50(4) . . .
37(4) . . .
42(4) . . .
47(4) . . .
45.5(35) . . .
39.3(32) . . .
54(4) . . .
47(4) . . .
49(4) . . .
44.9(34) . . .
37.1(31) . . .
48(4) . . .
42.4(34) . . .
44.0(35) . . .
48(4) . . .
58(4) . . .
47(4) . . .
49(4) . . .
58(4) . . .
48(4) . . .
59(4) . . .
53(4) . . .
40.8(33) . . .
47(4) . . .
49(4) . . .
50(4) . . .
45(4) . . .
47(4) . . .
37.3(32) . . .
33.0(29) . . .
43(4) . . .
47(4) . . .
49(4) . . .
48(4) . . .
50(4) . . .
48(4) . . .
44(4) . . .
45(4) . . .
44.8(34) . . .
39.8(34) . . .
56(4) . . .
56(4) . . .
45.8(35) . . .
42.0(34) . . .
50(4) . . .
44(4) . . .
38.7(32) . . .
39.9(33) . . .
50(4) . . .
52(4) . . .
51(4) . . .
47(4) . . .
57(4) . . .
49(4) . . .
45(4) . . .
49(4) . . .
52(4) . . .
46(4) . . .
46(4) . . .
41.0(33) . . .
62(4) . . .
47(4) . . .
41.3(33) . . .
60(4) . . .
54(4) . . .
46(4) . . .
46(4) . . .
45.7(35) . . .
45(4) . . .
48(4) . . .
55(4) . . .
44(4) . . .
49(4) . . .
49(4) . . .
46(4) . . .
51(4) . . .
48(4) . . .
50(4) . . .
52(4) . . .
56(4) . . .
46(4) . . .
53(4) . . .
50(4) . . .
53(4) . . .
52(4) . . .
47(4) . . .
49(4) . . .
54(4) . . .
50(4) . . .
58(4) . . .
57(4) . . .
48(4) . . .
45.3(35) . . .
49(4) . . .
49(4) . . .
44.5(35) . . .
51(4) . . .
48(4) . . .
50(4) . . .
44(4) . . .
45(4) . . .
52(4) . . .
57(4) . . .
48(4) . . .
51(4) . . .
58(4) . . .
47(4) . . .
40.8(33) . . .
47(4) . . .
47(4) . . .
41.1(34) . . .
38.3(32) . . .
49(4) . . .
55(4) . . .
47(4) . . .
44(4) . . .
54(4) . . .
51(4) . . .
63(4) . . .
52(4) . . .
49(4) . . .
50(4) . . .
41.7(34) . . .
49(4) . . .
46(4) . . .
47(4) . . .
38.3(32) . . .
33.0(31) . . .
44(4) . . .
41.2(33) . . .
52(4) . . .
47(4) . . .
44(4) . . .
50(4) . . .
48(4) . . .
45(4) . . .
43.8(35) . . .
47(4) . . .
47(4) . . .
39.5(32) . . .
48(4) . . .
43.6(34) . . .
44(4) . . .
48(4) . . .
43.8(35) . . .
45(4) . . .
48(4) . . .
42.7(34) . . .
43.5(34) . . .
50(4) . . .
34.5(31) . . .
44.6(35) . . .
48(4) . . .
37.6(34) . . .
44(4) . . .
43.4(35) . . .
50(4) . . .
45.8(35) . . .
51(4) . . .
54(4) . . .
43.8(35) . . .
40.3(33) . . .
52(4) . . .
42.3(34) . . .
48(4) . . .
53(4) . . .
51(4) . . .
43(4) . . .
55(4) . . .
54(4) . . .
47(4) . . .
46(4) . . .
51(4) . . .
55(4) . . .
54(4) . . .
48(4) . . .
50(4) . . .
56(4) . . .
53(4) . . .
57(4) . . .
54(4) . . .
45(4) . . .
43.3(35) . . .
53(4) . . .
59(4) . . .
49(4) . . .
47(4) . . .
50(4) . . .
41.6(35) . . .
43(4) . . .
39.7(33) . . .
53(4) . . .
45(4) . . .
47(4) . . .
43.2(34) . . .
49(4) . . .
40.8(34) . . .
46(4) . . .
47(4) . . .
49(4) . . .
53(4) . . .
43.3(34) . . .
39.5(35) . . .
53(4) . . .
44(4) . . .
51(4) . . .
42.1(35) . . .
42(4) . . .
48(4) . . .
57(4) . . .
43(4) . . .
43.3(35) . . .
46(4) . . .
48(4) . . .
41.8(34) . . .
49(4) . . .
45(4) . . .
44(4) . . .
51(4) . . .
47(4) . . .
56(4) . . .
43(4) . . .
47(4) . . .
52(4) . . .
36.9(32) . . .
50(4) . . .
49(4) . . .
51(4) . . .
47(4) . . .
42.7(34) . . .
44(4) . . .
47(4) . . .
54(4) . . .
51(4) . . .
47(4) . . .
38.3(33) . . .
37.3(34) . . .
50(4) . . .
49(4) . . .
41.1(34) . . .
44(4) . . .
46(4) . . .
51(4) . . .
59(4) . . .
48(4) . . .
43(4) . . .
62(4) . . .
45.4(35) . . .
46(4) . . .
61(4) . . .
52(4) . . .
57(4) . . .
49(4) . . .
49(4) . . .
47(4) . . .
50(4) . . .
47(4) . . .
43(4) . . .
40.4(33) . . .
48(4) . . .
47(4) . . .
45(4) . . .
51(4) . . .
46.3(35) . . .
49(4) . . .
50(4) . . .
47(4) . . .
50(4) . . .
39.3(33) . . .
43.5(34) . . .
44(4) . . .
56(4) . . .
47(4) . . .
47(4) . . .
49(4) . . .
44.2(34) . . .
46(4) . . .
49(4) . . .
58(4) . . .
46(4) . . .
48(4) . . .
47(4) . . .
42(4) . . .
34.5(31) . . .
48(4) . . .
44(4) . . .
41.3(34) . . .
51(4) . . .
46(4) . . .
47(4) . . .
48(4) . . .
42(4) . . .
45(4) . . .
40.8(33) . . .
46(4) . . .
52(4) . . .
45.2(34) . . .
55(4) . . .
49(4) . . .
56(4) . . .
49(4) . . .
48(4) . . .
48(4) . . .
48(4) . . .
38.4(34) . . .
43(4) . . .
52(4) . . .
43.5(34) . . .
53(4) . . .
47(4) . . .
50(4) . . .
49(4) . . .
45(4) . . .
39.5(33) . . .
45(4) . . .
46(4) . . .
36.2(31) . . .
40.5(33) . . .
39.4(33) . . .
42(4) . . .
46(4) . . .
44(4) . . .
34.2(30) . . .
49(4) . . .
48(4) . . .
52(4) . . .
37.0(33) . . .
46(4) . . .
45(4) . . .
54(4) . . .
50(4) . . .
42.1(34) . . .
51(4) . . .
50(4) . . .
47(4) . . .
41.2(34) . . .
44.0(34) . . .
46(4) . . .
48(4) . . .
48(4) . . .
51(4) . . .
51(4) . . .
45(4) . . .
40.2(33) . . .
49(4) . . .
41.3(34) . . .
47(4) . . .
47(4) . . .
42(4) . . .
44(4) . . .
44(4) . . .
45.3(35) . . .
48(4) . . .
50(4) . . .
61(5) . . .
48(4) . . .
48(4) . . .
51(4) . . .
49(4) . . .
54(4) . . .
36.3(33) . . .
43.5(34) . . .
41.8(34) . . .
47(4) . . .
45(4) . . .
43(4) . . .
49(4) . . .
47(4) . . .
54(4) . . .
50(4) . . .
45(4) . . .
50(4) . . .
38.9(33) . . .
45(4) . . .
48(4) . . .
39.7(35) . . .
53(4) . . .
53(4) . . .
57(4) . . .
48(4) . . .
42.6(35) . . .
48(4) . . .
49(4) . . .
51(4) . . .
45.0(34) . . .
42.1(34) . . .
38.6(33) . . .
41.5(34) . . .
51(4) . . .
52(4) . . .
44(4) . . .
44.9(35) . . .
38.5(33) . . .
43(4) . . .
45(4) . . .
41.3(33) . . .
46(4) . . .
51(4) . . .
47(4) . . .
43.9(35) . . .
49(4) . . .
47(4) . . .
35.7(34) . . .
42(4) . . .
46(4) . . .
47(4) . . .
41.2(34) . . .
49(4) . . .
44(4) . . .
47(4) . . .
51(4) . . .
45.7(35) . . .
46(4) . . .
39.4(32) . . .
48(4) . . .
48(4) . . .
51(4) . . .
60(4) . . .
41(4) . . .
44(4) . . .
36.2(31) . . .
46(4) . . .
33.2(29) . . .
49(4) . . .
47(4) . . .
47(4) . . .
50(4) . . .
49(4) . . .
49(4) . . .
43.3(35) . . .
33.0(30) . . .
47(4) . . .
44(4) . . .
48(4) . . .
49(4) . . .
43.4(34) . . .
51(4) . . .
42(4) . . .
47(4) . . .
50(4) . . .
54(4) . . .
49(4) . . .
45(4) . . .
44(4) . . .
41.6(33) . . .
50(4) . . .
41(4) . . .
46(4) . . .
45(4) . . .
51(4) . . .
53(4) . . .
47(4) . . .
42(4) . . .
48(4) . . .
56(4) . . .
39.0(33) . . .
49(4) . . .
47(4) . . .
53(4) . . .
47(4) . . .
38.0(32) . . .
47(4) . . .
41.1(34) . . .
45(4) . . .
48(4) . . .
44(4) . . .
48(4) . . .
52(4) . . .
50(4) . . .
42.4(34) . . .
50(4) . . .
52(4) . . .
39.4(33) . . .
46(4) . . .
42.7(34) . . .
51(4) . . .
47(4) . . .
47(4) . . .
42.4(34) . . .
50(4) . . .
33.6(30) . . .
45(4) . . .
41(4) . . .
49(4) . . .
49(4) . . .
54(4) . . .
47(4) . . .
52(4) . . .
53(4) . . .
54(4) . . .
47(4) . . .
43(4) . . .
49(4) . . .
47(4) . . .
42.7(34) . . .
52(4) . . .
44(4) . . .
43(4) . . .
44.9(34) . . .
41.7(34) . . .
52(4) . . .
48(4) . . .
42.9(34) . . .
44.1(35) . . .
54(4) . . .
49(4) . . .
41(4) . . .
42.5(35) . . .
53(4) . . .
48(4) . . .
53(4) . . .
54(4) . . .
46(4) . . .
55(4) . . .
39.8(33) . . .
49(4) . . .
40.5(35) . . .
40.5(35) . . .
44(4) . . .
54(4) . . .
47(4) . . .
47(4) . . .
49(4) . . .
45.3(35) . . .
45(4) . . .
54(4) . . .
43.8(35) . . .
51(4) . . .
41.7(34) . . .
40.1(33) . . .
37.6(33) . . .
34.9(33) . . .
32.3(30) . . .
44.3(35) . . .
49(4) . . .
54(4) . . .
41.0(33) . . .
43.8(35) . . .
50(4) . . .
40.5(35) . . .
39.2(35) . . .
42(4) . . .
44.3(34) . . .
54(4) . . .
47(4) . . .
55(4) . . .
47(4) . . .
39.1(32) . . .
47(4) . . .
44(4) . . .
42.1(35) . . .
39.0(33) . . .
51(4) . . .
43.5(35) . . .
50(4) . . .
46(4) . . .
42.9(34) . . .
54(4) . . .
55(4) . . .
47(4) . . .
51(4) . . .
44(4) . . .
43.5(34) . . .
50(4) . . .
43(4) . . .
45(4) . . .
40.6(34) . . .
43.9(34) . . .
46(4) . . .
47(4) . . .
38.4(33) . . .
41.5(34) . . .
48(4) . . .
42(4) . . .
43(4) . . .
52(4) . . .
37.7(32) . . .
38.3(33) . . .
45(4) . . .
47(4) . . .
44(4) . . .
39.6(34) . . .
42.2(34) . . .
45(4) . . .
44(4) . . .
50(4) . . .
48(4) . . .
40.5(33) . . .
44(4) . . .
45(4) . . .
48(4) . . .
40.3(34) . . .
59(4) . . .
49(4) . . .
46(4) . . .
53(4) . . .
37.1(32) . . .
48(4) . . .
49(4) . . .
44(4) . . .
45(4) . . .
50(4) . . .
42.0(34) . . .
55(4) . . .
55(4) . . .
37.2(31) . . .
50(4) . . .
44.3(35) . . .
46(4) . . .
42(4) . . .
48(4) . . .
44(4) . . .
51(4) . . .
46(4) . . .
50(4) . . .
42.4(35) . . .
39.1(32) . . .
52(4) . . .
45(4) . . .
47(4) . . .
59(4) . . .
47(4) . . .
43(4) . . .
37.4(33) . . .
42(4) . . .
45(4) . . .
44.6(35) . . .
41.5(34) . . .
37.4(33) . . .
31.8(30) . . .
44(4) . . .
46(4) . . .
43.9(35) . . .
54(4) . . .
48(4) . . .
47(4) . . .
45.4(35) . . .
40(4) . . .
50(4) . . .
42.5(35) . . .
45(4) . . .
47(4) . . .
45(4) . . .
49(4) . . .
62(4) . . .
48(4) . . .
50(4) . . .
48(4) . . .
50(4) . . .
43.9(35) . . .
39.7(33) . . .
44.1(34) . . .
42.1(34) . . .
45(4) . . .
40.8(33) . . .
49(4) . . .
45(4) . . .
50(4) . . .
43(4) . . .
43(4) . . .
55(4) . . .
53(4) . . .
48(4) . . .
47(4) . . .
53(4) . . .
46(4) . . .
48(4) . . .
43(4) . . .
47(4) . . .
55(4) . . .
49(4) . . .
49(4) . . .
51(4) . . .
50(4) . . .
46(4) . . .
38.8(33) . . .
51(4) . . .
47(4) . . .
45(4) . . .
47(4) . . .
43.9(34) . . .
54(4) . . .
43.1(34) . . .
44.5(35) . . .
36.4(31) . . .
42.6(34) . . .
49(4) . . .
48(4) . . .
42.9(34) . . .
49(4) . . .
35.5(31) . . .
38.5(33) . . .
39.4(34) . . .
43.3(35) . . .
58(4) . . .
50(4) . . .
48(4) . . .
44(4) . . .
44(4) . . .
45(4) . . .
43.5(34) . . .
54(4) . . .
49(4) . . .
44(4) . . .
39.2(32) . . .
40.5(33) . . .
45(4) . . .
42(4) . . .
46(4) . . .
44.8(34) . . .
47(4) . . .
38.7(33) . . .
51(4) . . .
54(4) . . .
39.0(32) . . .
52(4) . . .
36.7(32) . . .
42(4) . . .
42(4) . . .
52(4) . . .
54(4) . . .
50(4) . . .
49(4) . . .
50(4) . . .
55(4) . . .
44(4) . . .
35.9(31) . . .
35.4(31) . . .
56(4) . . .
52(4) . . .
52(4) . . .
45(4) . . .
41(4) . . .
46(4) . . .
45.1(35) . . .
46(4) . . .
58(4) . . .
48(4) . . .
47(4) . . .
48(4) . . .
49(4) . . .
50(4) . . .
43.2(35) . . .
45.5(35) . . .
49(4) . . .
39.8(34) . . .
48(4) . . .
48(4) . . .
52(4) . . .
44.8(34) . . .
41.4(33) . . .
62(5) . . .
54(4) . . .
35.9(32) . . .
53(4) . . .
46(4) . . .
47(4) . . .
46(4) . . .
48(4) . . .
38.7(32) . . .
44(4) . . .
44(4) . . .
42(4) . . .
49(4) . . .
58(4) . . .
52(4) . . .
40(4) . . .
50(4) . . .
52(4) . . .
38.9(33) . . .
38.7(34) . . .
49(4) . . .
48(4) . . .
43.6(34) . . .
38.7(33) . . .
49(4) . . .
44(4) . . .
39.4(33) . . .
37.4(31) . . .
45(4) . . .
41.7(35) . . .
48(4) . . .
41.1(34) . . .
47(4) . . .
45(4) . . .
47(4) . . .
43(4) . . .
47(4) . . .
41.9(34) . . .
47(4) . . .
39.7(34) . . .
44(4) . . .
49(4) . . .
48(4) . . .
46(4) . . .
43(4) . . .
51(4) . . .
54(4) . . .
44.0(34) . . .
51(4) . . .
57(4) . . .
46(4) . . .
56(4) . . .
49(4) . . .
51(4) . . .
42.3(35) . . .
39.5(33) . . .
40.8(33) . . .
51(4) . . .
46(4) . . .
46(4) . . .
50(4) . . .
51(4) . . .
57(4) . . .
47(4) . . .
50(4) . . .
42.1(34) . . .
45.3(35) . . .
50(4) . . .
57(4) . . .
51(4) . . .
46(4) . . .
50(4) . . .
48(4) . . .
40.0(34) . . .
45(4) . . .
45(4) . . .
47(4) . . .
39.1(34) . . .
43(4) . . .
40.2(35) . . .
50(4) . . .
47(4) . . .
43.5(35) . . .
50(4) . . .
52(4) . . .
50(4) . . .
44.7(35) . . .
37.0(31) . . .
42.3(35) . . .
45(4) . . .
43.3(34) . . .
42.7(34) . . .
43.4(34) . . .
53(4) . . .
45(4) . . .
40.2(33) . . .
51(4) . . .
46(4) . . .
39.4(35) . . .
45(4) . . .
46.1(35) . . .
43.9(35) . . .
47(4) . . .
46(4) . . .
43.3(34) . . .
49(4) . . .
51(4) . . .
47(4) . . .
47(4) . . .
45(4) . . .
48(4) . . .
50(4) . . .
45(4) . . .
49(4) . . .
47(4) . . .
41.7(33) . . .
42.7(34) . . .
46(4) . . .
44(4) . . .
49(4) . . .
49(4) . . .
34.2(31) . . .
39.9(33) . . .
47(4) . . .
42.0(35) . . .
47(4) . . .
51(4) . . .
55(4) . . .
46(4) . . .
38.5(33) . . .
51(4) . . .
46(4) . . .
41.3(34) . . .
49(4) . . .
42.4(34) . . .
46(4) . . .
43.8(34) . . .
34.7(31) . . .
47(4) . . .
52(4) . . .
45(4) . . .
52(4) . . .
45(4) . . .
50(4) . . .
60(4) . . .
48(4) . . .
42(4) . . .
48(4) . . .
51(4) . . .
39.4(32) . . .
42.1(34) . . .
48(4) . . .
48(4) . . .
47(4) . . .
40.1(33) . . .
45(4) . . .
50(4) . . .
46(4) . . .
47(4) . . .
45.5(35) . . .
41.5(34) . . .
47(4) . . .
52(4) . . .
48(4) . . .
50(4) . . .
45(4) . . .
33.7(30) . . .
50(4) . . .
42.6(35) . . .
44.3(35) . . .
37.2(32) . . .
45(4) . . .
47(4) . . .
50(4) . . .
54(4) . . .
52(4) . . .
42.8(35) . . .
42(4) . . .
38.4(34) . . .
44.7(35) . . .
41.2(34) . . .
50(4) . . .
43.5(34) . . .
50(4) . . .
38.9(33) . . .
46(4) . . .
40.2(34) . . .
40.9(35) . . .
43.8(35) . . .
39.4(32) . . .
56(4) . . .
50(4) . . .
47(4) . . .
47(4) . . .
44.9(35) . . .
45(4) . . .
39.9(34) . . .
49(4) . . .
51(4) . . .
53(4) . . .
39.5(33) . . .
44(4) . . .
47(4) . . .
50(4) . . .
47(4) . . .
41.0(34) . . .
50(4) . . .
48(4) . . .
40.4(33) . . .
45(4) . . .
38.1(32) . . .
52(4) . . .
42.0(34) . . .
50(4) . . .
55(4) . . .
52(4) . . .
51(4) . . .
40.7(34) . . .
48(4) . . .
40.9(33) . . .
51(4) . . .
49(4) . . .
56(4) . . .
42.0(34) . . .
48(4) . . .
43.4(34) . . .
53(4) . . .
47(4) . . .
51(4) . . .
38.4(33) . . .
42(4) . . .
37(4) . . .
44(4) . . .
38.3(32) . . .
36.5(32) . . .
50(4) . . .
52(4) . . .
46(4) . . .
45(4) . . .
53(4) . . .
50(4) . . .
38.8(32) . . .
52(4) . . .
49(4) . . .
54(4) . . .
34.8(32) . . .
44(4) . . .
45.2(35) . . .
51(4) . . .
45(4) . . .
44(4) . . .
39(4) . . .
43.3(34) . . .
43.0(34) . . .
49(4) . . .
40.5(35) . . .
46(4) . . .
45(4) . . .
55(4) . . .
47(4) . . .
52(4) . . .
42.2(35) . . .
50(4) . . .
37.3(32) . . .
36.4(32) . . .
47(4) . . .
51(4) . . .
50(4) . . .
49(4) . . .
42.0(35) . . .
50(4) . . .
52(4) . . .
56(4) . . .
53(4) . . .
45(4) . . .
48(4) . . .
40.4(34) . . .
50(4) . . .
50(4) . . .
48(4) . . .
39.8(33) . . .
47(4) . . .
51(4) . . .
46(4) . . .
44(4) . . .
46(4) . . .
52(4) . . .
49(4) . . .
40.5(34) . . .
48(4) . . .
49(4) . . .
48(4) . . .
38.2(32) . . .
48(4) . . .
47(4) . . .
54(4) . . .
52(4) . . .
38.9(33) . . .
47(4) . . .
50(4) . . .
49(4) . . .
48(4) . . .
44.0(35) . . .
46(4) . . .
39.2(33) . . .
38.1(34) . . .
42.1(34) . . .
44.2(34) . . .
48(4) . . .
44(4) . . .
48(4) . . .
42.3(34) . . .
39.5(32) . . .
42.2(35) . . .
48(4) . . .
47(4) . . .
45(4) . . .
46(4) . . .
42.4(34) . . .
49(4) . . .
48(4) . . .
54(4) . . .
41.2(33) . . .
52(4) . . .
43(4) . . .
44.3(35) . . .
43.0(34) . . .
51(4) . . .
39.8(32) . . .
46(4) . . .
46(4) . . .
47(4) . . .
50(4) . . .
42.6(34) . . .
50(4) . . .
41.2(33) . . .
47(4) . . .
49(4) . . .
51(4) . . .
53(4) . . .
37.9(33) . . .
42.0(34) . . .
42.2(34) . . .
43(4) . . .
40.8(35) . . .
54(4) . . .
60(4) . . .
56(4) . . .
45(4) . . .
46(4) . . .
45.2(34) . . .
48(4) . . .
43.7(35) . . .
39(4) . . .
44(4) . . .
35.3(31) . . .
47(4) . . .
40.5(33) . . .
50(4) . . .
40.4(34) . . .
53(4) . . .
52(4) . . .
52(4) . . .
56(4) . . .
53(4) . . .
50(4) . . .
55(4) . . .
48(4) . . .
43(4) . . .
49(4) . . .
47(4) . . .
52(4) . . .
50(4) . . .
48(4) . . .
50(4) . . .
47(4) . . .
58(4) . . .
46(4) . . .
45(4) . . .
46(4) . . .
45.3(34) . . .
39.5(34) . . .
44(4) . . .
50(4) . . .
41.5(34) . . .
48(4) . . .
50(4) . . .
50(4) . . .
44(4) . . .
42.7(34) . . .
44.4(35) . . .
47(4) . . .
33.5(32) . . .
47(4) . . .
41.6(34) . . .
47(4) . . .
41.0(34) . . .
48(4) . . .
42.5(34) . . .
50(4) . . .
55(4) . . .
53(4) . . .
45(4) . . .
44(4) . . .
46(4) . . .
42.3(33) . . .
47(4) . . .
44(4) . . .
51(4) . . .
42.5(35) . . .
45.5(35) . . .
46(4) . . .
39.7(34) . . .
42.4(34) . . .
50(4) . . .
49(4) . . .
51(4) . . .
39.1(33) . . .
52(4) . . .
56(4) . . .
49(4) . . .
46(4) . . .
48(4) . . .
45(4) . . .
59(4) . . .
46(4) . . .
39.7(33) . . .
34.2(32) . . .
39.4(33) . . .
40.3(33) . . .
41.8(34) . . .
52(4) . . .
47(4) . . .
50(4) . . .
49(4) . . .
43.7(35) . . .
49(4) . . .
54(4) . . .
50(4) . . .
48(4) . . .
37.7(32) . . .
37.5(34) . . .
41(4) . . .
43.2(34) . . .
39.7(33) . . .
44(4) . . .
49(4) . . .
49(4) . . .
54(4) . . .
47(4) . . .
47(4) . . .
56(4) . . .
47(4) . . .
44(4) . . .
52(4) . . .
44(4) . . .
45(4) . . .
55(4) . . .
37.1(33) . . .
51(4) . . .
51(4) . . .
58(4) . . .
37.7(31) . . .
47(4) . . .
49(4) . . .
56(4) . . .
48(4) . . .
53(4) . . .
35.6(31) . . .
44.5(35) . . .
45(4) . . .
41.5(35) . . .
44(4) . . .
53(4) . . .
56(4) . . .
50(4) . . .
52(4) . . .
52(4) . . .
56(4) . . .
44(4) . . .
41.7(35) . . .
54(4) . . .
46(4) . . .
53(4) . . .
48(4) . . .
44(4) . . .
49(4) . . .
43.1(34) . . .
54(4) . . .
41.3(34) . . .
47(4) . . .
46.5(35) . . .
45.9(35) . . .
46(4) . . .
52(4) . . .
42(4) . . .
39.1(32) . . .
49(4) . . .
46(4) . . .
52(4) . . .
58(4) . . .
53(4) . . .
56(4) . . .
49(4) . . .
56(4) . . .
41.9(34) . . .
44.3(34) . . .
43.7(35) . . .
37.3(32) . . .
51(4) . . .
49(4) . . .
55(4) . . .
40.5(33) . . .
50(4) . . .
47(4) . . .
45(4) . . .
35.8(31) . . .
57(4) . . .
61(4) . . .
43(4) . . .
55(4) . . .
50(4) . . .
41.5(33) . . .
56(4) . . .
39.5(33) . . .
52(4) . . .
38.1(34) . . .
41.9(34) . . .
51(4) . . .
56(4) . . .
51(4) . . .
53(4) . . .
42.7(34) . . .
52(4) . . .
49(4) . . .
50(4) . . .
43(4) . . .
40.8(33) . . .
47(4) . . .
43(4) . . .
39.5(35) . . .
39.5(33) . . .
47(4) . . .
46(4) . . .
44.5(34) . . .
45(4) . . .
49(4) . . .
52(4) . . .
38.9(34) . . .
44(4) . . .
47(4) . . .
52(4) . . .
52(4) . . .
47(4) . . .
34.7(31) . . .
48(4) . . .
48(4) . . .
46(4) . . .
50(4) . . .
46(4) . . .
44(4) . . .
51(4) . . .
52(4) . . .
51(4) . . .
40.8(33) . . .
47(4) . . .
51(4) . . .
55(4) . . .
58(4) . . .
53(4) . . .
47(4) . . .
46(4) . . .
49(4) . . .
46(4) . . .
49(4) . . .
46(4) . . .
49(4) . . .
46(4) . . .
41(4) . . .
46(4) . . .
55(4) . . .
44.2(35) . . .
49(4) . . .
52(4) . . .
51(4) . . .
53(4) . . .
48(4) . . .
48(4) . . .
48(4) . . .
50(4) . . .
53(4) . . .
51(4) . . .
37.2(34) . . .
44(4) . . .
49(4) . . .
42.1(34) . . .
50(4) . . .
44(4) . . .
42(4) . . .
53(4) . . .
49(4) . . .
45.3(35) . . .
42(4) . . .
43(4) . . .
44(4) . . .
44(4) . . .
42.4(33) . . .
48(4) . . .
44(4) . . .
48(4) . . .
42.8(34) . . .
51(4) . . .
52(4) . . .
41(4) . . .
40.5(34) . . .
48(4) . . .
43.2(34) . . .
38.7(33) . . .
33.0(29) . . .
40(4) . . .
33.7(30) . . .
45.0(35) . . .
43(4) . . .
46(4) . . .
45(4) . . .
48(4) . . .
47(4) . . .
49(4) . . .
62(4) . . .
57(4) . . .
48(4) . . .
38.7(35) . . .
45(4) . . .
47(4) . . .
39.9(34) . . .
47(4) . . .
43.5(34) . . .
49(4) . . .
39.1(33) . . .
40.1(33) . . .
48(4) . . .
45(4) . . .
55(4) . . .
51(4) . . .
52(4) . . .
43.3(34) . . .
50(4) . . .
46(4) . . .
48(4) . . .
42.2(35) . . .
41.5(34) . . .
40.6(34) . . .
48(4) . . .
52(4) . . .
52(4) . . .
47(4) . . .
46(4) . . .
52(4) . . .
52(4) . . .
41.1(33) . . .
51(4) . . .
43(4) . . .
45(4) . . .
41.2(34) . . .
52(4) . . .
51(4) . . .
52(4) . . .
44(4) . . .
57(4) . . .
45.7(35) . . .
48(4) . . .
51(4) . . .
46(4) . . .
47(4) . . .
46(4) . . .
39.7(33) . . .
58(4) . . .
44(4) . . .
50(4) . . .
42.9(35) . . .
48(4) . . .
53(4) . . .
48(4) . . .
59(4) . . .
45.2(35) . . .
45(4) . . .
46(4) . . .
38.1(35) . . .
42.8(34) . . .
53(4) . . .
50(4) . . .
52(4) . . .
60(4) . . .
45(4) . . .
50(4) . . .
46(4) . . .
47(4) . . .
45(4) . . .
37.9(32) . . .
54(4) . . .
51(4) . . .
43(4) . . .
46(4) . . .
39.9(33) . . .
45.0(34) . . .
53(4) . . .
47(4) . . .
49(4) . . .
42.8(34) . . .
42.3(34) . . .
38.1(33) . . .
47(4) . . .
45(4) . . .
50(4) . . .
46(4) . . .
45(4) . . .
47(4) . . .
46(4) . . .
45(4) . . .
50(4) . . .
50(4) . . .
44(4) . . .
46(4) . . .
43.4(34) . . .
47(4) . . .
49(4) . . .
53(4) . . .
40.7(35) . . .
43.1(34) . . .
52(4) . . .
41.4(35) . . .
47(4) . . .
55(4) . . .
41.9(34) . . .
50(4) . . .
45(4) . . .
47(4) . . .
45(4) . . .
41.0(33) . . .
44(4) . . .
43(4) . . .
54(4) . . .
49(4) . . .
41.3(34) . . .
49(4) . . .
49(4) . . .
46(4) . . .
52(4) . . .
43(4) . . .
54(4) . . .
44(4) . . .
49(4) . . .
52(4) . . .
45.2(35) . . .
51(4) . . .
42.7(35) . . .
42.4(33) . . .
37.0(31) . . .
44.8(34) . . .
50(4) . . .
39.7(34) . . .
44(4) . . .
43.2(34) . . .
53(4) . . .
53(4) . . .
48(4) . . .
47(4) . . .
45(4) . . .
38.1(32) . . .
42(4) . . .
49(4) . . .
44(4) . . .
44.0(34) . . .
45(4) . . .
50(4) . . .
41(4) . . .
39.3(33) . . .
45.0(35) . . .
47(4) . . .
46(4) . . .
48(4) . . .
55(4) . . .
48(4) . . .
39.7(35) . . .
42(4) . . .
45(4) . . .
43.2(35) . . .
45.5(35) . . .
51(4) . . .
48(4) . . .
47(4) . . .
47(4) . . .
53(4) . . .
39.7(32) . . .
58(4) . . .
50(4) . . .
47(4) . . .
49(4) . . .
45(4) . . .
52(4) . . .
53(4) . . .
43.3(35) . . .
49(4) . . .
48(4) . . .
53(4) . . .
45(4) . . .
44.2(34) . . .
53(4) . . .
52(4) . . .
53(4) . . .
52(4) . . .
39.4(33) . . .
46(4) . . .
49(4) . . .
37.5(33) . . .
35.5(31) . . .
45(4) . . .
56(4) . . .
49(4) . . .
47(4) . . .
45(4) . . .
50(4) . . .
43.8(35) . . .
39.5(33) . . .
42(4) . . .
51(4) . . .
51(4) . . .
39.0(34) . . .
54(4) . . .
44(4) . . .
50(4) . . .
50(4) . . .
41.1(35) . . .
43(4) . . .
47(4) . . .
50(4) . . .
49(4) . . .
46(4) . . .
44(4) . . .
43(4) . . .
51(4) . . .
40.7(33) . . .
39(4) . . .
41.5(35) . . .
43.0(34) . . .
47(4) . . .
55(4) . . .
46(4) . . .
51(4) . . .
56(4) . . .
46(4) . . .
48(4) . . .
39.2(33) . . .
44(4) . . .
47(4) . . .
35.9(31) . . .
54(4) . . .
48(4) . . .
52(4) . . .
47(4) . . .
58(4) . . .
56(4) . . .
41.0(34) . . .
42(4) . . .
51(4) . . .
47(4) . . .
43.5(34) . . .
40.3(33) . . .
48(4) . . .
45.5(35) . . .
47(4) . . .
42.6(35) . . .
46(4) . . .
39(4) . . .
45(4) . . .
52(4) . . .
48(4) . . .
44(4) . . .
45(4) . . .
45(4) . . .
54(4) . . .
51(4) . . .
42.5(33) . . .
40.5(33) . . .
45(4) . . .
47(4) . . .
46(4) . . .
55(4) . . .
48(4) . . .
42.8(34) . . .
49(4) . . .
48(4) . . .
50(4) . . .
51(4) . . .
47(4) . . .
41.0(33) . . .
47(4) . . .
45(4) . . .
45(4) . . .
41.3(34) . . .
43.0(34) . . .
49(4) . . .
42.3(34) . . .
43.1(35) . . .
44.0(35) . . .
47(4) . . .
47(4) . . .
52(4) . . .
48(4) . . .
39.6(33) . . .
46.0(35) . . .
52(4) . . .
51(4) . . .
46(4) . . .
50(4) . . .
46(4) . . .
48(4) . . .
39(4) . . .
34.9(33) . . .
38.7(33) . . .
48(4) . . .
47(4) . . .
45(4) . . .
38.7(35) . . .
35.3(32) . . .
41.8(33) . . .
53(4) . . .
40(4) . . .
44(4) . . .
42.1(34) . . .
48(4) . . .
40.1(34) . . .
44(4) . . .
51(4) . . .
53(4) . . .
50(4) . . .
42(4) . . .
42.2(34) . . .
44.6(35) . . .
48(4) . . .
38.5(34) . . .
50(4) . . .
49(4) . . .
54(4) . . .
47(4) . . .
36.2(32) . . .
49(4) . . .
51(4) . . .
56(4) . . .
52(4) . . .
45(4) . . .
45(4) . . .
49(4) . . .
43(4) . . .
41.3(34) . . .
51(4) . . .
49(4) . . .
41.0(34) . . .
45(4) . . .
54(4) . . .
35.9(32) . . .
40(4) . . .
48(4) . . .
47(4) . . .
42.1(33) . . .
38.6(32) . . .
56(4) . . .
40.8(35) . . .
40.8(34) . . .
48(4) . . .
51(4) . . .
39.1(34) . . .
44(4) . . .
52(4) . . .
42.0(33) . . .
49(4) . . .
51(4) . . .
36.2(33) . . .
39.5(33) . . .
41.9(35) . . .
40.0(33) . . .
48(4) . . .
53(4) . . .
47(4) . . .
45.5(35) . . .
45(4) . . .
46(4) . . .
46(4) . . .
49(4) . . .
47(4) . . .
44(4) . . .
43(4) . . .
47(4) . . .
47(4) . . .
45(4) . . .
53(4) . . .
50(4) . . .
50(4) . . .
49(4) . . .
45(4) . . .
58(4) . . .
50(4) . . .
51(4) . . .
46.3(35) . . .
39.4(34) . . .
47(4) . . .
39.7(33) . . .
47(4) . . .
44.3(34) . . .
53(4) . . .
52(4) . . .
44(4) . . .
53(4) . . .
47(4) . . .
41(4) . . .
35.7(33) . . .
48(4) . . .
43.0(34) . . .
37.0(32) . . .
38.0(33) . . .
48(4) . . .
42.9(35) . . .
47(4) . . .
46(4) . . .
49(4) . . .
47(4) . . .
48(4) . . .
52(4) . . .
43.6(34) . . .
47(4) . . .
45(4) . . .
43.2(35) . . .
50(4) . . .
48(4) . . .
44(4) . . .
38.5(34) . . .
54(4) . . .
49(4) . . .
49(4) . . .
56(4) . . .
47(4) . . .
48(4) . . .
48(4) . . .
55(4) . . .
49(4) . . .
48(4) . . .
48(4) . . .
55(4) . . .
54(4) . . .
54(4) . . .
39.1(33) . . .
40.6(32) . . .
39.9(34) . . .
39.8(33) . . .
49(4) . . .
50(4) . . .
49(4) . . .
44.1(35) . . .
50(4) . . .
60(4) . . .
51(4) . . .
50(4) . . .
47(4) . . .
47(4) . . .
43(4) . . .
39.0(33) . . .
43.4(35) . . .
36.5(31) . . .
38.0(33) . . .
52(4) . . .
46(4) . . .
44.0(34) . . .
46.5(35) . . .
47(4) . . .
51(4) . . .
41.7(35) . . .
48(4) . . .
46(4) . . .
52(4) . . .
37.0(31) . . .
51(4) . . .
52(4) . . .
46(4) . . .
54(4) . . .
44(4) . . .
48(4) . . .
46(4) . . .
48(4) . . .
45(4) . . .
46(4) . . .
49(4) . . .
35.9(31) . . .
51(4) . . .
47(4) . . .
52(4) . . .
47(4) . . .
49(4) . . .
38.5(34) . . .
51(4) . . .
42(4) . . .
42.2(35) . . .
52(4) . . .
42(4) . . .
49(4) . . .
41.3(34) . . .
52(4) . . .
43.0(34) . . .
41.3(35) . . .
43(4) . . .
45(4) . . .
42.0(34) . . .
43.9(35) . . .
52(4) . . .
49(4) . . .
41(4) . . .
40.9(33) . . .
53(4) . . .
54(4) . . .
45(4) . . .
54(4) . . .
42.3(34) . . .
45(4) . . .
47(4) . . .
52(4) . . .
50(4) . . .
45(4) . . .
48(4) . . .
48(4) . . .
41.4(35) . . .
60(4) . . .
49(4) . . .
46(4) . . .
54(4) . . .
37.3(33) . . .
47(4) . . .
52(4) . . .
56(4) . . .
49(4) . . .
44.8(35) . . .
53(4) . . .
53(4) . . .
46(4) . . .
48(4) . . .
41(4) . . .
42.6(34) . . .
54(4) . . .
44(4) . . .
50(4) . . .
52(4) . . .
52(4) . . .
49(4) . . .
40.5(34) . . .
51(4) . . .
37.1(33) . . .
44(4) . . .
32.6(30) . . .
42.4(34) . . .
49(4) . . .
50(4) . . .
56(4) . . .
50(4) . . .
47(4) . . .
47(4) . . .
53(4) . . .
47(4) . . .
46(4) . . .
40.7(35) . . .
40.0(35) . . .
51(4) . . .
39.2(33) . . .
44(4) . . .
48(4) . . .
54(4) . . .
48(4) . . .
48(4) . . .
49(4) . . .
47(4) . . .
48(4) . . .
40(4) . . .
42.3(34) . . .
32.6(30) . . .
41.9(34) . . .
51(4) . . .
46(4) . . .
49(4) . . .
48(4) . . .
42.8(35) . . .
51(4) . . .
47(4) . . .
44.6(35) . . .
40.5(33) . . .
41.0(35) . . .
46(4) . . .
52(4) . . .
45.3(35) . . .
41.9(34) . . .
38.1(35) . . .
38.3(32) . . .
35.5(31) . . .
40.5(33) . . .
45(4) . . .
48(4) . . .
40.7(33) . . .
43.4(34) . . .
44.0(35) . . .
44(4) . . .
45(4) . . .
35.6(31) . . .
36.7(31) . . .
46(4) . . .
46(4) . . .
45(4) . . .
47(4) . . .
41.4(33) . . .
44.0(34) . . .
43(4) . . .
50(4) . . .
50(4) . . .
40.2(34) . . .
49(4) . . .
51(4) . . .
43(4) . . .
38.1(34) . . .
47(4) . . .
41.9(34) . . .
58(4) . . .
44(4) . . .
42.1(35) . . .
61(4) . . .
47(4) . . .
46(4) . . .
42(4) . . .
46(4) . . .
38.2(33) . . .
44(4) . . .
44(4) . . .
41.4(35) . . .
46(4) . . .
52(4) . . .
55(4) . . .
44(4) . . .
45.3(34) . . .
50(4) . . .
46(4) . . .
40.3(33) . . .
47(4) . . .
45(4) . . .
47(4) . . .
46(4) . . .
50(4) . . .
47(4) . . .
36.7(32) . . .
36.0(31) . . .
49(4) . . .
53(4) . . .
52(4) . . .
52(4) . . .
43.8(34) . . .
50(4) . . .
47(4) . . .
40(4) . . .
46(4) . . .
47(4) . . .
46(4) . . .
44(4) . . .
44(4) . . .
46(4) . . .
56(4) . . .
50(4) . . .
50(4) . . .
43(4) . . .
53(4) . . .
43.4(35) . . .
49(4) . . .
36.6(31) . . .
44(4) . . .
49(4) . . .
53(4) . . .
56(4) . . .
45.5(35) . . .
45(4) . . .
45(4) . . .
48(4) . . .
49(4) . . .
56(4) . . .
58(4) . . .
53(4) . . .
47(4) . . .
48(4) . . .
49(4) . . .
48(4) . . .
46(4) . . .
55(4) . . .
51(4) . . .
51(4) . . .
52(4) . . .
43.8(34) . . .
45.2(35) . . .
53(4) . . .
48(4) . . .
52(4) . . .
52(4) . . .
42.5(34) . . .
56(4) . . .
50(4) . . .
39.0(33) . . .
48(4) . . .
40.6(33) . . .
45(4) . . .
40.1(34) . . .
46(4) . . .
50(4) . . .
45.1(35) . . .
54(4) . . .
52(4) . . .
47(4) . . .
47(4) . . .
55(4) . . .
46(4) . . .
46(4) . . .
45(4) . . .
44.7(35) . . .
52(4) . . .
43.5(34) . . .
57(4) . . .
47(4) . . .
40.5(33) . . .
51(4) . . .
38.9(33) . . .
40(4) . . .
54(4) . . .
46(4) . . .
43.5(35) . . .
50(4) . . .
51(4) . . .
46(4) . . .
53(4) . . .
44(4) . . .
46(4) . . .
44(4) . . .
40.8(34) . . .
42.4(35) . . .
47(4) . . .
46(4) . . .
46(4) . . .
41.4(34) . . .
36.9(32) . . .
45(4) . . .
45(4) . . .
40.2(33) . . .
44.8(34) . . .
53(4) . . .
42.6(35) . . .
40.8(34) . . .
51(4) . . .
45(4) . . .
45.0(35) . . .
46(4) . . .
48(4) . . .
45(4) . . .
43.7(34) . . .
49(4) . . .
46(4) . . .
38.7(34) . . .
47(4) . . .
51(4) . . .
40.6(33) . . .
53(4) . . .
47(4) . . .
48(4) . . .
56(4) . . .
42.1(33) . . .
46(4) . . .
43(4) . . .
47(4) . . .
49(4) . . .
47(4) . . .
62(4) . . .
44(4) . . .
37.4(33) . . .
40.0(33) . . .
45.0(35) . . .
50(4) . . .
39.7(34) . . .
50(4) . . .
35.2(31) . . .
46(4) . . .
49(4) . . .
33.9(33) . . .
40.6(33) . . .
49(4) . . .
40.3(34) . . .
46(4) . . .
48(4) . . .
47(4) . . .
50(4) . . .
46(4) . . .
53(4) . . .
59(4) . . .
44(4) . . .
51(4) . . .
43(4) . . .
54(4) . . .
53(4) . . .
42.9(34) . . .
45(4) . . .
47(4) . . .
58(4) . . .
47(4) . . .
47(4) . . .
45.5(35) . . .
44.4(35) . . .
51(4) . . .
47(4) . . .
43.7(35) . . .
49(4) . . .
45(4) . . .
50(4) . . .
50(4) . . .
51(4) . . .
56(4) . . .
41.6(34) . . .
52(4) . . .
47(4) . . .
46(4) . . .
44(4) . . .
44.5(35) . . .
44(4) . . .
43(4) . . .
41.3(33) . . .
44(4) . . .
44(4) . . .
47(4) . . .
42.3(34) . . .
48(4) . . .
51(4) . . .
38.8(33) . . .
40(4) . . .
46(4) . . .
58(4) . . .
41.4(34) . . .
45(4) . . .
55(4) . . .
47(4) . . .
40.8(33) . . .
48(4) . . .
46(4) . . .
44(4) . . .
55(4) . . .
51(4) . . .
49(4) . . .
45(4) . . .
50(4) . . .
46(4) . . .
44.6(35) . . .
45(4) . . .
53(4) . . .
45(4) . . .
45(4) . . .
56(4) . . .
50(4) . . .
48(4) . . .
38.4(32) . . .
56(4) . . .
51(4) . . .
39.8(35) . . .
50(4) . . .
42(4) . . .
49(4) . . .
52(4) . . .
50(4) . . .
45(4) . . .
58(4) . . .
42.6(34) . . .
47(4) . . .
44(4) . . .
46(4) . . .
39.3(33) . . .
48(4) . . .
45.3(35) . . .
50(4) . . .
46(4) . . .
43(4) . . .
46(4) . . .
51(4) . . .
42.0(34) . . .
45(4) . . .
38.5(34) . . .
45.1(35) . . .
51(4) . . .
43(4) . . .
50(4) . . .
49(4) . . .
42.6(33) . . .
36.4(32) . . .
41.7(33) . . .
53(4) . . .
37.9(33) . . .
49(4) . . .
42.6(35) . . .
41.3(34) . . .
51(4) . . .
49(4) . . .
39.4(33) . . .
53(4) . . .
49(4) . . .
48(4) . . .
49(4) . . .
50(4) . . .
59(4) . . .
47(4) . . .
47(4) . . .
40.2(33) . . .
44.4(34) . . .
47(4) . . .
42(4) . . .
50(4) . . .
47(4) . . .
39.1(32) . . .
46(4) . . .
51(4) . . .
52(4) . . .
41.4(33) . . .
40.0(34) . . .
44(4) . . .
47(4) . . .
48(4) . . .
39.7(33) . . .
47(4) . . .
48(4) . . .
42(4) . . .
50(4) . . .
55(4) . . .
45(4) . . .
46(4) . . .
44(4) . . .
43.4(35) . . .
56(4) . . .
44(4) . . .
48(4) . . .
50(4) . . .
52(4) . . .
43.8(34) . . .
46(4) . . .
47(4) . . .
42.8(34) . . .
44(4) . . .
40.0(33) . . .
45.7(35) . . .
47(4) . . .
39.4(34) . . .
47(4) . . .
39.6(33) . . .
40.2(34) . . .
37.8(33) . . .
39.7(33) . . .
48(4) . . .
49(4) . . .
54(4) . . .
50(4) . . .
37.7(35) . . .
47(4) . . .
44.9(34) . . .
48(4) . . .
54(4) . . .
43(4) . . .
45(4) . . .
49(4) . . .
65(4) . . .
48(4) . . .
50(4) . . .
45(4) . . .
41.3(33) . . .
47(4) . . .
41(4) . . .
47(4) . . .
54(4) . . .
48(4) . . .
46(4) . . .
38.3(35) . . .
38.7(34) . . .
44.4(34) . . .
43.7(35) . . .
48(4) . . .
54(4) . . .
55(4) . . .
36.7(32) . . .
54(4) . . .
47(4) . . .
45(4) . . .
49(4) . . .
34.3(31) . . .
52(4) . . .
43.3(34) . . .
48(4) . . .
52(4) . . .
46(4) . . .
43.4(34) . . .
41.9(34) . . .
54(4) . . .
48(4) . . .
46(4) . . .
49(4) . . .
46(4) . . .
46(4) . . .
45.0(35) . . .
47(4) . . .
39.9(33) . . .
46(4) . . .
46(4) . . .
40.5(35) . . .
42.7(35) . . .
42.5(35) . . .
55(4) . . .
53(4) . . .
45(4) . . .
51(4) . . .
43(4) . . .
43(4) . . .
57(4) . . .
47(4) . . .
39.0(32) . . .
53(4) . . .
45(4) . . .
36.9(33) . . .
46(4) . . .
45.2(34) . . .
55(4) . . .
48(4) . . .
44.1(35) . . .
59(4) . . .
51(4) . . .
47(4) . . .
48(4) . . .
45(4) . . .
54(4) . . .
50(4) . . .
42.0(34) . . .
48(4) . . .
51(4) . . .
40.5(33) . . .
44.2(34) . . .
47(4) . . .
51(4) . . .
46(4) . . .
41.9(34) . . .
47(4) . . .
46(4) . . .
42(4) . . .
40.3(34) . . .
37.3(33) . . .
44(4) . . .
50(4) . . .
53(4) . . .
49(4) . . .
48(4) . . .
40(4) . . .
31.2(31) . . .
42.1(35) . . .
48(4) . . .
41.4(34) . . .
52(4) . . .
48(4) . . .
46.0(35) . . .
57(4) . . .
50(4) . . .
52(4) . . .
42(4) . . .
40(4) . . .
46(4) . . .
42.7(34) . . .
53(4) . . .
44(4) . . .
42(4) . . .
45(4) . . .
44.9(35) . . .
45(4) . . .
44(4) . . .
40.9(35) . . .
46(4) . . .
41.6(34) . . .
42.8(35) . . .
51(4) . . .
47(4) . . .
47(4) . . .
43.4(34) . . .
53(4) . . .
47(4) . . .
38.0(33) . . .
44.5(35) . . .
47(4) . . .
42.3(34) . . .
37.1(33) . . .
43(4) . . .
42.6(34) . . .
45(4) . . .
39(4) . . .
42(4) . . .
52(4) . . .
51(4) . . .
40.8(34) . . .
49(4) . . .
48(4) . . .
44(4) . . .
48(4) . . .
46(4) . . .
42(4) . . .
42.9(34) . . .
47(4) . . .
45(4) . . .
43.8(35) . . .
37.7(34) . . .
40.3(35) . . .
52(4) . . .
41.8(34) . . .
46(4) . . .
46(4) . . .
48(4) . . .
41.1(33) . . .
53(4) . . .
44(4) . . .
48(4) . . .
44.3(35) . . .
52(4) . . .
37.5(31) . . .
42.6(34) . . .
48(4) . . .
45(4) . . .
50(4) . . .
43.8(34) . . .
50(4) . . .
52(4) . . .
47(4) . . .
49(4) . . .
50(4) . . .
44.3(35) . . .
60(4) . . .
56(4) . . .
39.4(32) . . .
38.0(33) . . .
45(4) . . .
37.9(33) . . .
36.6(33) . . .
47(4) . . .
42(4) . . .
41(4) . . .
44(4) . . .
57(4) . . .
50(4) . . .
44(4) . . .
46(4) . . .
47(4) . . .
49(4) . . .
51(4) . . .
45(4) . . .
37.5(32) . . .
48(4) . . .
46(4) . . .
47(4) . . .
42(4) . . .
46(4) . . .
37.4(31) . . .
50(4) . . .
48(4) . . .
51(4) . . .
49(4) . . .
45.6(35) . . .
40.0(33) . . .
40.5(33) . . .
45(4) . . .
41(4) . . .
45(4) . . .
49(4) . . .
49(4) . . .
40.0(35) . . .
40.5(35) . . .
53(4) . . .
49(4) . . .
39.5(34) . . .
47.1(35) . . .
51(4) . . .
43.0(35) . . .
48(4) . . .
55(4) . . .
51(4) . . .
43.4(35) . . .
48(4) . . .
47(4) . . .
49(4) . . .
42(4) . . .
43(4) . . .
46(4) . . .
38.6(32) . . .
36.0(32) . . .
47(4) . . .
51(4) . . .
50(4) . . .
47(4) . . .
46(4) . . .
44.9(34) . . .
48(4) . . .
50(4) . . .
47(4) . . .
50(4) . . .
47(4) . . .
41.7(34) . . .
49(4) . . .
38.2(33) . . .
45.9(35) . . .
47(4) . . .
44(4) . . .
46(4) . . .
53(4) . . .
43.1(34) . . .
38.3(34) . . .
42(4) . . .
49(4) . . .
47(4) . . .
44(4) . . .
38.1(33) . . .
39.6(32) . . .
39.8(33) . . .
45.7(35) . . .
39.8(33) . . .
44(4) . . .
51(4) . . .
57(4) . . .
58(4) . . .
42(4) . . .
36.7(33) . . .
53(4) . . .
52(4) . . .
50(4) . . .
40.6(35) . . .
43(4) . . .
46(4) . . .
43.4(34) . . .
45(4) . . .
45(4) . . .
43(4) . . .
41.3(35) . . .
41.9(34) . . .
46(4) . . .
35.8(32) . . .
47(4) . . .
67(4) . . .
44.3(35) . . .
41(4) . . .
39.0(34) . . .
41.0(35) . . .
56(4) . . .
57(4) . . .
45(4) . . .
45(4) . . .
44(4) . . .
44(4) . . .
47(4) . . .
45(4) . . .
48(4) . . .
45(4) . . .
33.3(30) . . .
45.0(35) . . .
54(4) . . .
44(4) . . .
51(4) . . .
42.9(34) . . .
52(4) . . .
47(4) . . .
47(4) . . .
48(4) . . .
49(4) . . .
55(4) . . .
47(4) . . .
47(4) . . .
50(4) . . .
47(4) . . .
44.9(35) . . .
40.5(34) . . .
44(4) . . .
56(4) . . .
48(4) . . .
49(4) . . .
43(4) . . .
45(4) . . .
51(4) . . .
43.9(35) . . .
37.1(32) . . .
56(4) . . .
44(4) . . .
50(4) . . .
43.3(34) . . .
33.7(31) . . .
41.1(34) . . .
46(4) . . .
40.1(34) . . .
49(4) . . .
47(4) . . .
41(4) . . .
52(4) . . .
51(4) . . .
51(4) . . .
50(4) . . .
47(4) . . .
39.5(34) . . .
46(4) . . .
41.7(34) . . .
39.2(35) . . .
42(4) . . .
42.2(34) . . .
38.2(32) . . .
48(4) . . .
52(4) . . .
50(4) . . .
49(4) . . .
50(4) . . .
55(4) . . .
53(4) . . .
49(4) . . .
46(4) . . .
52(4) . . .
46.2(35) . . .
47(4) . . .
45(4) . . .
54(4) . . .
40.6(33) . . .
36.8(31) . . .
39.1(34) . . .
50(4) . . .
52(4) . . .
47(4) . . .
52(4) . . .
49(4) . . .
52(4) . . .
41(4) . . .
41.4(33) . . .
46(4) . . .
56(4) . . .
48(4) . . .
50(4) . . .
43.6(34) . . .
46(4) . . .
48(4) . . .
40.3(33) . . .
52(4) . . .
47(4) . . .
45(4) . . .
37.0(32) . . .
48(4) . . .
51(4) . . .
47(4) . . .
48(4) . . .
44(4) . . .
52(4) . . .
43.5(35) . . .
53(4) . . .
39.5(33) . . .
49(4) . . .
38.7(34) . . .
49(4) . . .
51(4) . . .
37.0(33) . . .
51(4) . . .
48(4) . . .
53(4) . . .
46(4) . . .
51(4) . . .
35.6(33) . . .
37.7(33) . . .
45(4) . . .
53(4) . . .
48(4) . . .
49(4) . . .
54(4) . . .
38.0(32) . . .
39.5(33) . . .
40.2(35) . . .
43(4) . . .
46(4) . . .
53(4) . . .
44.7(35) . . .
49(4) . . .
45(4) . . .
38.0(33) . . .
59(4) . . .
40.6(32) . . .
49(4) . . .
42.8(35) . . .
45(4) . . .
55(4) . . .
52(4) . . .
48(4) . . .
39(4) . . .
50(4) . . .
44.7(35) . . .
43.4(35) . . .
40.0(35) . . .
41.5(34) . . .
46(4) . . .
49(4) . . .
56(4) . . .
49(4) . . .
41.2(34) . . .
40.0(33) . . .
53(4) . . .
35.2(32) . . .
53(4) . . .
51(4) . . .
45(4) . . .
42.3(34) . . .
43(4) . . .
43(4) . . .
47(4) . . .
46(4) . . .
42.1(34) . . .
44.6(35) . . .
46(4) . . .
44(4) . . .
44.5(35) . . .
58(4) . . .
49(4) . . .
45(4) . . .
46(4) . . .
45(4) . . .
58(4) . . .
49(4) . . .
57(4) . . .
52(4) . . .
45.2(35) . . .
47(4) . . .
50(4) . . .
42.7(34) . . .
57(4) . . .
41.6(33) . . .
40.0(33) . . .
47(4) . . .
56(4) . . .
40.2(34) . . .
50(4) . . .
47(4) . . .
45(4) . . .
49(4) . . .
50(4) . . .
43.5(35) . . .
50(4) . . .
51(4) . . .
43.1(35) . . .
50(4) . . .
45.2(35) . . .
50(4) . . .
56(4) . . .
43.2(34) . . .
55(4) . . .
53(4) . . .
49(4) . . .
46(4) . . .
48(4) . . .
50(4) . . .
45(4) . . .
47(4) . . .
40.1(35) . . .
44(4) . . .
42.0(34) . . .
54(4) . . .
54(4) . . .
48(4) . . .
44(4) . . .
42.3(34) . . .
49(4) . . .
46(4) . . .
45(4) . . .
56(4) . . .
56(4) . . .
47(4) . . .
45(4) . . .
46(4) . . .
46(4) . . .
43.2(34) . . .
39.4(33) . . .
34.7(34) . . .
40(4) . . .
50(4) . . .
44.5(34) . . .
50(4) . . .
49(4) . . .
50(4) . . .
48(4) . . .
50(4) . . .
44.3(35) . . .
56(4) . . .
43(4) . . .
43(4) . . .
48(4) . . .
44(4) . . .
42(4) . . .
35.8(31) . . .
47(4) . . .
38.8(32) . . .
43(4) . . .
40.6(34) . . .
42.3(34) . . .
56(4) . . .
42.5(34) . . .
51(4) . . .
57(4) . . .
49(4) . . .
42.2(34) . . .
45.0(35) . . .
52(4) . . .
56(4) . . .
52(4) . . .
48(4) . . .
38.9(32) . . .
42.1(34) . . .
48(4) . . .
46(4) . . .
42.9(35) . . .
41.0(33) . . .
42(4) . . .
48(4) . . .
39.8(34) . . .
46(4) . . .
39.5(32) . . .
49(4) . . .
50(4) . . .
46.1(34) . . .
48(4) . . .
51(4) . . .
41.9(34) . . .
50(4) . . .
41.2(34) . . .
49(4) . . .
38.5(33) . . .
50(4) . . .
49(4) . . .
55(4) . . .
46(4) . . .
54(4) . . .
44.6(34) . . .
49(4) . . .
47(4) . . .
53(4) . . .
48(4) . . .
46(4) . . .
46(4) . . .
51(4) . . .
43.7(34) . . .
51(4) . . .
40.4(33) . . .
49(4) . . .
51(4) . . .
53(4) . . .
46(4) . . .
53(4) . . .
52(4) . . .
40.0(35) . . .
41.8(33) . . .
42(4) . . .
49(4) . . .
49(4) . . .
45(4) . . .
42.6(34) . . .
43(4) . . .
41(4) . . .
44(4) . . .
44.7(34) . . .
49(4) . . .
52(4) . . .
46(4) . . .
47(4) . . .
45.4(35) . . .
34.7(30) . . .
43(4) . . .
42.1(35) . . .
44(4) . . .
45(4) . . .
49(4) . . .
47(4) . . .
52(4) . . .
40.3(33) . . .
46(4) . . .
47(4) . . .
45(4) . . .
53(4) . . .
45(4) . . .
45.7(35) . . .
52(4) . . .
45(4) . . .
45(4) . . .
43.9(34) . . .
45.2(34) . . .
44.1(35) . . .
43.7(35) . . .
44(4) . . .
49(4) . . .
42.8(34) . . .
37.3(33) . . .
43(4) . . .
44(4) . . .
46(4) . . .
49(4) . . .
45.3(35) . . .
48(4) . . .
40.3(33) . . .
50(4) . . .
52(4) . . .
37.3(32) . . .
46(4) . . .
47(4) . . .
53(4) . . .
47(4) . . .
46(4) . . .
40(4) . . .
52(4) . . .
39.0(33) . . .
51(4) . . .
45(4) . . .
58(4) . . .
59(4) . . .
53(4) . . .
52(4) . . .
47(4) . . .
47(4) . . .
49(4) . . .
48(4) . . .
44.5(35) . . .
50(4) . . .
52(4) . . .
47(4) . . .
49(4) . . .
50(4) . . .
40.5(33) . . .
46(4) . . .
59(4) . . .
48(4) . . .
36.9(32) . . .
43(4) . . .
42(4) . . .
41.1(34) . . .
47(4) . . .
46(4) . . .
50(4) . . .
43.0(34) . . .
46(4) . . .
43.6(34) . . .
40.4(33) . . .
47(4) . . .
45(4) . . .
47(4) . . .
45.3(35) . . .
53(4) . . .
49(4) . . .
52(4) . . .
52(4) . . .
54(4) . . .
47(4) . . .
50(4) . . .
46(4) . . .
47(4) . . .
53(4) . . .
48(4) . . .
35.2(32) . . .
41.5(34) . . .
42.9(34) . . .
49(4) . . .
46(4) . . .
53(4) . . .
51(4) . . .
41.7(34) . . .
51(4) . . .
47(4) . . .
40.6(35) . . .
42(4) . . .
47(4) . . .
45.7(35) . . .
43(4) . . .
45(4) . . .
54(4) . . .
56(4) . . .
57(4) . . .
49(4) . . .
66(5) . . .
53(4) . . .
43.2(34) . . .
54(4) . . .
46.0(35) . . .
55(4) . . .
46(4) . . .
44.6(35) . . .
40.3(33) . . .
52(4) . . .
51(4) . . .
43.3(34) . . .
49(4) . . .
41.5(34) . . .
50(4) . . .
38(4) . . .
36.7(32) . . .
43.3(34) . . .
44.2(35) . . .
52(4) . . .
50(4) . . .
45(4) . . .
49(4) . . .
50(4) . . .
50(4) . . .
51(4) . . .
44.7(35) . . .
35.7(31) . . .
48(4) . . .
41.8(35) . . .
47(4) . . .
52(4) . . .
45.1(35) . . .
47(4) . . .
52(4) . . .
50(4) . . .
41.7(34) . . .
47(4) . . .
50(4) . . .
45(4) . . .
52(4) . . .
52(4) . . .
43.7(34) . . .
33.9(30) . . .
47(4) . . .
52(4) . . .
48(4) . . .
50(4) . . .
40.9(34) . . .
50(4) . . .
46(4) . . .
43.9(34) . . .
47(4) . . .
42(4) . . .
39(4) . . .
41.3(35) . . .
39.2(33) . . .
53(4) . . .
49(4) . . .
49(4) . . .
43(4) . . .
44.2(35) . . .
52(4) . . .
54(4) . . .
49(4) . . .
36.7(33) . . .
53(4) . . .
53(4) . . .
50(4) . . .
47(4) . . .
41.6(34) . . .
38.7(33) . . .
48(4) . . .
49(4) . . .
38.9(32) . . .
43.5(35) . . .
41.4(34) . . .
55(4) . . .
41.5(34) . . .
44(4) . . .
36.8(32) . . .
41.6(35) . . .
48(4) . . .
36.3(34) . . .
48(4) . . .
46.2(35) . . .
44.1(35) . . .
50(4) . . .
40(4) . . .
50(4) . . .
53(4) . . .
47(4) . . .
47(4) . . .
43(4) . . .
45(4) . . .
43.1(34) . . .
41.1(35) . . .
53(4) . . .
49(4) . . .
51(4) . . .
43.0(35) . . .
48(4) . . .
38.6(32) . . .
47(4) . . .
47(4) . . .
48(4) . . .
40.3(33) . . .
39.8(33) . . .
43(4) . . .
41.6(34) . . .
51(4) . . .
56(4) . . .
46(4) . . .
48(4) . . .
53(4) . . .
53(4) . . .
58(4) . . .
43.8(35) . . .
50(4) . . .
45(4) . . .
56(4) . . .
47(4) . . .
47(4) . . .
51(4) . . .
50(4) . . .
41.8(34) . . .
45(4) . . .
47(4) . . .
49(4) . . .
50(4) . . .
36.9(31) . . .
48(4) . . .
53(4) . . .
49(4) . . .
50(4) . . .
47(4) . . .
48(4) . . .
42(4) . . .
47(4) . . .
55(4) . . .
49(4) . . .
42.8(35) . . .
51(4) . . .
47(4) . . .
49(4) . . .
45.6(35) . . .
41.2(35) . . .
43(4) . . .
34.3(32) . . .
43.3(35) . . .
42.5(34) . . .
51(4) . . .
43(4) . . .
47(4) . . .
53(4) . . .
48(4) . . .
40.6(34) . . .
47(4) . . .
39.6(34) . . .
35.8(31) . . .
52(4) . . .
59(4) . . .
47(4) . . .
47(4) . . .
46(4) . . .
48(4) . . .
46(4) . . .
40.3(33) . . .
48(4) . . .
43.2(34) . . .
41.4(34) . . .
38.8(33) . . .
42(4) . . .
42.4(34) . . .
46(4) . . .
46(4) . . .
41(4) . . .
35.8(32) . . .
41.2(33) . . .
36.7(33) . . .
45(4) . . .
51(4) . . .
50(4) . . .
44.1(34) . . .
50(4) . . .
40.3(34) . . .
40.6(33) . . .
51(4) . . .
45(4) . . .
45.3(35) . . .
45(4) . . .
46(4) . . .
53(4) . . .
49(4) . . .
47(4) . . .
47(4) . . .
46(4) . . .
47(4) . . .
42.9(34) . . .
45(4) . . .
38.2(32) . . .
52(4) . . .
53(4) . . .
46(4) . . .
48(4) . . .
37.2(34) . . .
35.1(33) . . .
46(4) . . .
51(4) . . .
46(4) . . .
47(4) . . .
46.7(35) . . .
47(4) . . .
42.9(34) . . .
49(4) . . .
46(4) . . .
49(4) . . .
45(4) . . .
39.7(33) . . .
47(4) . . .
45(4) . . .
45(4) . . .
44.2(35) . . .
54(4) . . .
51(4) . . .
46(4) . . .
35.8(32) . . .
39.3(33) . . .
43.9(35) . . .
39.1(34) . . .
43(4) . . .
48(4) . . .
51(4) . . .
51(4) . . .
35.1(32) . . .
45(4) . . .
44(4) . . .
50(4) . . .
52(4) . . .
52(4) . . .
40(4) . . .
48(4) . . .
52(4) . . .
58(4) . . .
47(4) . . .
53(4) . . .
54(4) . . .
52(4) . . .
51(4) . . .
40.7(34) . . .
45(4) . . .
49(4) . . .
40.8(33) . . .
46(4) . . .
59(4) . . .
49(4) . . .
46(4) . . .
48(4) . . .
55(4) . . .
38.4(32) . . .
49(4) . . .
47(4) . . .
55(4) . . .
42.3(35) . . .
53(4) . . .
45(4) . . .
37.3(33) . . .
40.2(34) . . .
39.1(34) . . .
40.5(35) . . .
43(4) . . .
44.3(34) . . .
41.8(34) . . .
40.5(34) . . .
49(4) . . .
42.0(34) . . .
47(4) . . .
50(4) . . .
45(4) . . .
41.3(34) . . .
46(4) . . .
52(4) . . .
51(4) . . .
50(4) . . .
45(4) . . .
50(4) . . .
38.6(32) . . .
41.6(33) . . .
52(4) . . .
35.8(33) . . .
47(4) . . .
50(4) . . .
52(4) . . .
52(4) . . .
42(4) . . .
53(4) . . .
45(4) . . .
40.9(33) . . .
40.2(35) . . .
47(4) . . .
51(4) . . .
50(4) . . .
50(4) . . .
50(4) . . .
58(4) . . .
40.8(34) . . .
50(4) . . .
53(4) . . .
51(4) . . .
49(4) . . .
50(4) . . .
47(4) . . .
37.8(32) . . .
49(4) . . .
52(4) . . .
43.4(35) . . .
43.0(34) . . .
48(4) . . .
37.0(33) . . .
46(4) . . .
47(4) . . .
47(4) . . .
57(4) . . .
42.1(35) . . .
40.6(34) . . .
46(4) . . .
36.8(32) . . .
44(4) . . .
46(4) . . .
43.2(35) . . .
34.9(30) . . .
42.9(34) . . .
46(4) . . .
52(4) . . .
50(4) . . .
41.2(33) . . .
53(4) . . .
48(4) . . .
49(4) . . .
44(4) . . .
46(4) . . .
38.5(33) . . .
55(4) . . .
55(4) . . .
47(4) . . .
51(4) . . .
58(4) . . .
45.4(35) . . .
49(4) . . .
40.6(34) . . .
45.0(34) . . .
47(4) . . .
52(4) . . .
50(4) . . .
52(4) . . .
41.6(34) . . .
46(4) . . .
47(4) . . .
56(4) . . .
51(4) . . .
39.7(32) . . .
49(4) . . .
45(4) . . .
47(4) . . .
49(4) . . .
42.6(34) . . .
41.4(33) . . .
42.5(35) . . .
44(4) . . .
47(4) . . .
41.8(34) . . .
47(4) . . .
43(4) . . .
43(4) . . .
43(4) . . .
43.4(35) . . .
43(4) . . .
50(4) . . .
52(4) . . .
46(4) . . .
46(4) . . .
53(4) . . .
51(4) . . .
50(4) . . .
47(4) . . .
48(4) . . .
45(4) . . .
53(4) . . .
54(4) . . .
53(4) . . .
43.0(34) . . .
46(4) . . .
48(4) . . .
50(4) . . .
40.8(33) . . .
48(4) . . .
50(4) . . .
48(4) . . .
58(4) . . .
51(4) . . .
49(4) . . .
39.2(33) . . .
48(4) . . .
46(4) . . .
57(4) . . .
55(4) . . .
44.9(35) . . .
54(4) . . .
50(4) . . .
39.2(33) . . .
45(4) . . .
49(4) . . .
42(4) . . .
53(4) . . .
52(4) . . .
42.0(35) . . .
42.9(34) . . .
46(4) . . .
44(4) . . .
47(4) . . .
44.6(35) . . .
43(4) . . .
52(4) . . .
50(4) . . .
50(4) . . .
47(4) . . .
41.3(33) . . .
47.3(35) . . .
47(4) . . .
59(4) . . .
53(4) . . .
50(4) . . .
42.9(35) . . .
50(4) . . .
36.9(31) . . .
50(4) . . .
36.1(33) . . .
45(4) . . .
41.2(33) . . .
46(4) . . .
51(4) . . .
46(4) . . .
40.9(35) . . .
38.6(32) . . .
53(4) . . .
47(4) . . .
37.5(34) . . .
49(4) . . .
49(4) . . .
56(4) . . .
43.2(34) . . .
56(4) . . .
51(4) . . .
41.9(34) . . .
44.4(35) . . .
41.9(35) . . .
42(4) . . .
42(4) . . .
46(4) . . .
48(4) . . .
53(4) . . .
47(4) . . .
41(4) . . .
40.5(33) . . .
37.1(32) . . .
43(4) . . .
44(4) . . .
45.3(35) . . .
39.0(33) . . .
50(4) . . .
47(4) . . .
43.7(35) . . .
46(4) . . .
52(4) . . .
47(4) . . .
46(4) . . .
44(4) . . .
47(4) . . .
38.0(33) . . .
45(4) . . .
43(4) . . .
47(4) . . .
41.3(34) . . .
41.3(33) . . .
47(4) . . .
46(4) . . .
50(4) . . .
46(4) . . .
47(4) . . .
57(4) . . .
54(4) . . .
37.8(31) . . .
51(4) . . .
41.0(34) . . .
48(4) . . .
43(4) . . .
42(4) . . .
41.8(33) . . .
56(4) . . .
47(4) . . .
50(4) . . .
40.3(33) . . .
40.7(34) . . .
53(4) . . .
45(4) . . .
36(4) . . .
53(4) . . .
49(4) . . .
43.6(34) . . .
47(4) . . .
44(4) . . .
43(4) . . .
52(4) . . .
49(4) . . .
49(4) . . .
55(4) . . .
35.7(31) . . .
47(4) . . .
47(4) . . .
35.1(31) . . .
45(4) . . .
42.9(34) . . .
42.1(34) . . .
48(4) . . .
42.8(33) . . .
43(4) . . .
49(4) . . .
47(4) . . .
44(4) . . .
51(4) . . .
45(4) . . .
50(4) . . .
45.5(35) . . .
30.8(29) . . .
41(4) . . .
44(4) . . .
47(4) . . .
47(4) . . .
50(4) . . .
47(4) . . .
48(4) . . .
43.9(34) . . .
49(4) . . .
50(4) . . .
43.7(35) . . .
50(4) . . .
40.3(33) . . .
50(4) . . .
43.2(35) . . .
46(4) . . .
42.9(35) . . .
43.9(35) . . .
42.5(34) . . .
42.8(35) . . .
50(4) . . .
47(4) . . .
46(4) . . .
53(4) . . .
53(4) . . .
58(4) . . .
57(4) . . .
49(4) . . .
47(4) . . .
50(4) . . .
46(4) . . .
45(4) . . .
57(4) . . .
49(4) . . .
44.6(34) . . .
35.2(31) . . .
39.4(34) . . .
45.1(35) . . .
42.0(34) . . .
47(4) . . .
53(4) . . .
49(4) . . .
48(4) . . .
53(4) . . .
45(4) . . .
49(4) . . .
57(4) . . .
49(4) . . .
43.8(35) . . .
43(4) . . .
47(4) . . .
39.0(32) . . .
48(4) . . .
45(4) . . .
37.8(34) . . .
44(4) . . .
44.4(34) . . .
47(4) . . .
45(4) . . .
46(4) . . .
43.4(35) . . .
50(4) . . .
47(4) . . .
51(4) . . .
50(4) . . .
38.0(32) . . .
42.2(34) . . .
43.1(35) . . .
43.4(34) . . .
52(4) . . .
46(4) . . .
39.9(33) . . .
49(4) . . .
47(4) . . .
45(4) . . .
38.2(34) . . .
53(4) . . .
52(4) . . .
46(4) . . .
53(4) . . .
53(4) . . .
43.9(35) . . .
56(4) . . .
49(4) . . .
49(4) . . .
40.7(34) . . .
46(4) . . .
42.5(34) . . .
55(4) . . .
44.7(35) . . .
44(4) . . .
39.8(33) . . .
46(4) . . .
45(4) . . .
43(4) . . .
48(4) . . .
47(4) . . .
38.5(33) . . .
53(4) . . .
48(4) . . .
39.8(32) . . .
45(4) . . .
43(4) . . .
47(4) . . .
54(4) . . .
43.0(34) . . .
45(4) . . .
47(4) . . .
39(4) . . .
49(4) . . .
39.4(32) . . .
39.0(32) . . .
53(4) . . .
50(4) . . .
53(4) . . .
36.8(32) . . .
36.1(33) . . .
43.5(34) . . .
42.0(34) . . .
40.9(33) . . .
50(4) . . .
44.2(35) . . .
39.6(33) . . .
41(4) . . .
42(4) . . .
40.6(33) . . .
41.2(35) . . .
36.9(33) . . .
37(4) . . .
36.8(32) . . .
50(4) . . .
46(4) . . .
43(4) . . .
42(4) . . .
37.8(34) . . .
43.5(34) . . .
44(4) . . .
45(4) . . .
54(4) . . .
51(4) . . .
44.0(35) . . .
36.5(33) . . .
41(4) . . .
47(4) . . .
55(4) . . .
44.4(34) . . .
50(4) . . .
44(4) . . .
39.8(33) . . .
49(4) . . .
42.7(34) . . .
39.4(33) . . .
42(4) . . .
37.1(34) . . .
41.5(33) . . .
42.3(34) . . .
49(4) . . .
46(4) . . .
42.6(34) . . .
40.5(33) . . .
48(4) . . .
53(4) . . .
54(4) . . .
43.4(35) . . .
53(4) . . .
45.7(35) . . .
53(4) . . .
45(4) . . .
48(4) . . .
40.3(33) . . .
44(4) . . .
42(4) . . .
40(4) . . .
33.0(30) . . .
51(4) . . .
49(4) . . .
45(4) . . .
35.7(31) . . .
45(4) . . .
34.5(31) . . .
45.4(35) . . .
45.6(35) . . .
50(4) . . .
49(4) . . .
44.3(34) . . .
41.4(35) . . .
52(4) . . .
39.8(33) . . .
40.6(33) . . .
41.1(33) . . .
45(4) . . .
39(4) . . .
39.3(34) . . .
38.5(33) . . .
44(4) . . .
46(4) . . .
48(4) . . .
50(4) . . .
41.8(33) . . .
41.5(34) . . .
36.6(32) . . .
42(4) . . .
44.7(34) . . .
49(4) . . .
48(4) . . .
39.5(32) . . .
51(4) . . .
51(4) . . .
43.7(34) . . .
51(4) . . .
50(4) . . .
49(4) . . .
35.6(32) . . .
47(4) . . .
51(4) . . .
49(4) . . .
49(4) . . .
39.6(34) . . .
49(4) . . .
50(4) . . .
51(4) . . .
48(4) . . .
49(4) . . .
34.9(31) . . .
46(4) . . .
45.0(35) . . .
44(4) . . .
43(4) . . .
44.7(35) . . .
55(4) . . .
47(4) . . .
41(4) . . .
46(4) . . .
51(4) . . .
53(4) . . .
36.8(32) . . .
44(4) . . .
52(4) . . .
50(4) . . .
50(4) . . .
47(4) . . .
47(4) . . .
52(4) . . .
46(4) . . .
45(4) . . .
40.2(34) . . .
50(4) . . .
43.9(34) . . .
46(4) . . .
45(4) . . .
42(4) . . .
53(4) . . .
47(4) . . .
49(4) . . .
39.4(33) . . .
42.1(35) . . .
48(4) . . .
55(4) . . .
47(4) . . .
53(4) . . .
55(4) . . .
45.0(35) . . .
46(4) . . .
43.6(34) . . .
56(4) . . .
42(4) . . .
44(4) . . .
47(4) . . .
51(4) . . .
53(4) . . .
42.1(34) . . .
40.5(34) . . .
42.5(35) . . .
47(4) . . .
49(4) . . .
45(4) . . .
43.8(35) . . .
41.7(33) . . .
43(4) . . .
42.6(35) . . .
50(4) . . .
46(4) . . .
50(4) . . .
42.3(35) . . .
59(4) . . .
55(4) . . .
50(4) . . .
38.8(33) . . .
49(4) . . .
39.4(33) . . .
51(4) . . .
41.7(34) . . .
41.6(34) . . .
44.1(34) . . .
59(4) . . .
40.6(33) . . .
40.6(33) . . .
52(4) . . .
54(4) . . .
33.8(31) . . .
43(4) . . .
44(4) . . .
39.4(32) . . .
43(4) . . .
52(4) . . .
52(4) . . .
49(4) . . .
41.5(34) . . .
37.2(32) . . .
39.2(35) . . .
46(4) . . .
41.0(34) . . .
43.2(34) . . .
50(4) . . .
42(4) . . .
41.5(33) . . .
44.9(35) . . .
42.6(34) . . .
51(4) . . .
47(4) . . .
42.9(35) . . .
39.5(33) . . .
45(4) . . .
40.1(34) . . .
50(4) . . .
49(4) . . .
43.5(34) . . .
52(4) . . .
46(4) . . .
43(4) . . .
50(4) . . .
44.2(34) . . .
37.2(33) . . .
53(4) . . .
59(4) . . .
45(4) . . .
39.0(33) . . .
38.1(34) . . .
41.8(34) . . .
42.3(34) . . .
44.6(35) . . .
39.8(33) . . .
37.9(33) . . .
42(4) . . .
41.3(33) . . .
48(4) . . .
43.0(34) . . .
51(4) . . .
43(4) . . .
48(4) . . .
49(4) . . .
40.5(34) . . .
40.5(33) . . .
53(4) . . .
50(4) . . .
44.9(35) . . .
48(4) . . .
53(4) . . .
42(4) . . .
39.9(33) . . .
43.1(34) . . .
53(4) . . .
60(4) . . .
49(4) . . .
46(4) . . .
41.5(33) . . .
42.3(34) . . .
36.1(32) . . .
44(4) . . .
39.1(33) . . .
44.8(34) . . .
47(4) . . .
49(4) . . .
40(4) . . .
50(4) . . .
43.9(34) . . .
40.8(34) . . .
52(4) . . .
48(4) . . .
41.1(34) . . .
50(4) . . .
40.4(35) . . .
51(4) . . .
38.8(33) . . .
51(4) . . .
46(4) . . .
50(4) . . .
48(4) . . .
46(4) . . .
45(4) . . .
54(4) . . .
41.4(33) . . .
49(4) . . .
56(4) . . .
43.3(35) . . .
41.5(34) . . .
53(4) . . .
44(4) . . .
51(4) . . .
56(4) . . .
47(4) . . .
39.1(33) . . .
52(4) . . .
46(4) . . .
50(4) . . .
40.0(33) . . .
44(4) . . .
43(4) . . .
40.9(33) . . .
39.1(34) . . .
45(4) . . .
41(4) . . .
47(4) . . .
50(4) . . .
55(4) . . .
49(4) . . .
45(4) . . .
48(4) . . .
58(4) . . .
46(4) . . .
46(4) . . .
44(4) . . .
43(4) . . .
42.7(35) . . .
42.5(34) . . .
47(4) . . .
49(4) . . .
43(4) . . .
30.9(29) . . .
43.1(35) . . .
48(4) . . .
55(4) . . .
36.2(32) . . .
35.7(31) . . .
50(4) . . .
50(4) . . .
51(4) . . .
49(4) . . .
51(4) . . .
52(4) . . .
41.6(35) . . .
54(4) . . .
44(4) . . .
46(4) . . .
40.1(33) . . .
40.4(34) . . .
45(4) . . .
53(4) . . .
44(4) . . .
51(4) . . .
46(4) . . .
44.2(35) . . .
48(4) . . .
40.9(34) . . .
44.6(35) . . .
60(4) . . .
48(4) . . .
52(4) . . .
42.3(35) . . .
46(4) . . .
44(4) . . .
42(4) . . .
51(4) . . .
52(4) . . .
44(4) . . .
40.3(34) . . .
30.3(30) . . .
40.1(33) . . .
49(4) . . .
49(4) . . .
40.3(34) . . .
42(4) . . .
44(4) . . .
43.3(34) . . .
49(4) . . .
41.8(35) . . .
44(4) . . .
43(4) . . .
44.0(34) . . .
42(4) . . .
41(4) . . .
38.7(33) . . .
32.6(31) . . .
44.8(35) . . .
47(4) . . .
46(4) . . .
37.1(34) . . .
42.5(34) . . .
48(4) . . .
49(4) . . .
54(4) . . .
55(4) . . .
55(4) . . .
55(4) . . .
42(4) . . .
50(4) . . .
47(4) . . .
33.6(30) . . .
56(4) . . .
53(4) . . .
50(4) . . .
45(4) . . .
39.1(34) . . .
50(4) . . .
40.5(35) . . .
41.7(35) . . .
43.7(35) . . .
53(4) . . .
45(4) . . .
52(4) . . .
39.8(34) . . .
49(4) . . .
48(4) . . .
39.8(33) . . .
47(4) . . .
49(4) . . .
44(4) . . .
55(4) . . .
45(4) . . .
46(4) . . .
37.5(33) . . .
42(4) . . .
42.3(34) . . .
48(4) . . .
45(4) . . .
47(4) . . .
43.3(35) . . .
40.5(33) . . .
47(4) . . .
47(4) . . .
40.7(33) . . .
47(4) . . .
40.4(33) . . .
42(4) . . .
42(4) . . .
41.7(35) . . .
36.1(32) . . .
48(4) . . .
46(4) . . .
54(4) . . .
41(4) . . .
46(4) . . .
49(4) . . .
44(4) . . .
36.2(33) . . .
50(4) . . .
36.0(31) . . .
49(4) . . .
48(4) . . .
54(4) . . .
49(4) . . .
42.3(33) . . .
53(4) . . .
51(4) . . .
49(4) . . .
45(4) . . .
53(4) . . .
58(4) . . .
56(4) . . .
40.8(35) . . .
46(4) . . .
42.3(33) . . .
46(4) . . .
42.6(35) . . .
43(4) . . .
44(4) . . .
49(4) . . .
44.3(34) . . .
49(4) . . .
50(4) . . .
44.5(35) . . .
48(4) . . .
44(4) . . .
49(4) . . .
43(4) . . .
48(4) . . .
59(4) . . .
45.0(35) . . .
41.9(35) . . .
39.2(34) . . .
48(4) . . .
48(4) . . .
41.8(34) . . .
43(4) . . .
44(4) . . .
42.8(34) . . .
49(4) . . .
39.9(33) . . .
43(4) . . .
41.8(35) . . .
49(4) . . .
42.1(34) . . .
43(4) . . .
44(4) . . .
41.8(33) . . .
49(4) . . .
58(4) . . .
48(4) . . .
42.7(34) . . .
46(4) . . .
42.5(34) . . .
49(4) . . .
46(4) . . .
42(4) . . .
41.5(35) . . .
45(4) . . .
45.0(35) . . .
45(4) . . .
30.7(31) . . .
40(4) . . .
42.9(34) . . .
48(4) . . .
33.8(31) . . .
42(4) . . .
49(4) . . .
48(4) . . .
35.2(31) . . .
42(4) . . .
48(4) . . .
45(4) . . .
40.7(33) . . .
42.2(34) . . .
43(4) . . .
46(4) . . .
47(4) . . .
48(4) . . .
39.2(32) . . .
51(4) . . .
52(4) . . .
52(4) . . .
39.7(33) . . .
41.0(33) . . .
44(4) . . .
40.0(34) . . .
44(4) . . .
50(4) . . .
43.2(34) . . .
52(4) . . .
46(4) . . .
45(4) . . .
52(4) . . .
47(4) . . .
43(4) . . .
40.2(34) . . .
41.0(33) . . .
45(4) . . .
42(4) . . .
45(4) . . .
49(4) . . .
49(4) . . .
57(4) . . .
56(4) . . .
45(4) . . .
45(4) . . .
37.1(32) . . .
44.8(35) . . .
50(4) . . .
52(4) . . .
42(4) . . .
43.8(35) . . .
41.9(34) . . .
49(4) . . .
48(4) . . .
39.2(35) . . .
48(4) . . .
53(4) . . .
45(4) . . .
45(4) . . .
51(4) . . .
37.9(32) . . .
40.8(33) . . .
34.1(31) . . .
44(4) . . .
51(4) . . .
43.9(34) . . .
46(4) . . .
43.0(33) . . .
56(4) . . .
45(4) . . .
42.4(34) . . .
44.7(34) . . .
48(4) . . .
38.1(34) . . .
44(4) . . .
44.0(34) . . .
42(4) . . .
37.6(32) . . .
43.8(35) . . .
39.0(34) . . .
47(4) . . .
46(4) . . .
40.4(34) . . .
43.3(34) . . .
53(4) . . .
45.1(35) . . .
52(4) . . .
47(4) . . .
35.4(32) . . .
49(4) . . .
42.8(34) . . .
52(4) . . .
46(4) . . .
45(4) . . .
39.9(32) . . .
41.8(34) . . .
38.4(33) . . .
46(4) . . .
49(4) . . .
44.1(34) . . .
50(4) . . .
47(4) . . .
35.2(33) . . .
42(4) . . .
32.5(29) . . .
48(4) . . .
40.4(33) . . .
48(4) . . .
44.5(35) . . .
46(4) . . .
50(4) . . .
50(4) . . .
44(4) . . .
48(4) . . .
49(4) . . .
47(4) . . .
37.5(33) . . .
42(4) . . .
39.4(33) . . .
42.7(34) . . .
40.9(34) . . .
46(4) . . .
42(4) . . .
40.4(34) . . .
49(4) . . .
36.2(32) . . .
48(4) . . .
45(4) . . .
40.2(35) . . .
37.5(31) . . .
36.9(32) . . .
43.9(35) . . .
46(4) . . .
40.8(34) . . .
43.6(34) . . .
38.3(35) . . .
49(4) . . .
44(4) . . .
41.0(34) . . .
35.6(31) . . .
42.7(34) . . .
48(4) . . .
43(4) . . .
47(4) . . .
50(4) . . .
47(4) . . .
47(4) . . .
44(4) . . .
47(4) . . .
47(4) . . .
55(4) . . .
47(4) . . .
46(4) . . .
42.6(34) . . .
38.3(32) . . .
44(4) . . .
47(4) . . .
49(4) . . .
48(4) . . .
42.6(33) . . .
47(4) . . .
48(4) . . .
49(4) . . .
52(4) . . .
52(4) . . .
47(4) . . .
44(4) . . .
44.0(35) . . .
39.8(33) . . .
48(4) . . .
48(4) . . .
54(4) . . .
49(4) . . .
44.5(35) . . .
42.2(35) . . .
40.0(34) . . .
57(4) . . .
56(4) . . .
49(4) . . .
47(4) . . .
38.7(33) . . .
53(4) . . .
48(4) . . .
43.0(34) . . .
42.9(34) . . .
47(4) . . .
52(4) . . .
50(4) . . .
53(4) . . .
40.0(33) . . .
40.4(35) . . .
28.4(27) . . .
43.5(35) . . .
42.3(34) . . .
38.4(32) . . .
49(4) . . .
49(4) . . .
48(4) . . .
36.7(32) . . .
46(4) . . .
57(4) . . .
50(4) . . .
42.1(33) . . .
47(4) . . .
48(4) . . .
48(4) . . .
49(4) . . .
45(4) . . .
58(4) . . .
45(4) . . .
37.1(35) . . .
39.7(33) . . .
53(4) . . .
50(4) . . .
51(4) . . .
36.5(32) . . .
40.6(33) . . .
45.9(35) . . .
45(4) . . .
51(4) . . .
51(4) . . .
44.1(35) . . .
47(4) . . .
43.7(34) . . .
38.9(34) . . .
49(4) . . .
45(4) . . .
34.9(30) . . .
35.6(32) . . .
50(4) . . .
38.8(33) . . .
34.8(31) . . .
46(4) . . .
48(4) . . .
46(4) . . .
40.5(34) . . .
37.8(31) . . .
50(4) . . .
42(4) . . .
40.5(35) . . .
48(4) . . .
53(4) . . .
36.5(31) . . .
44(4) . . .
43(4) . . .
45(4) . . .
48(4) . . .
52(4) . . .
40.2(34) . . .
51(4) . . .
39.9(33) . . .
43.1(34) . . .
49(4) . . .
39(4) . . .
44(4) . . .
52(4) . . .
60(4) . . .
44.0(34) . . .
35.4(31) . . .
44(4) . . .
44(4) . . .
53(4) . . .
46(4) . . .
48(4) . . .
43.1(34) . . .
40.0(33) . . .
47(4) . . .
46(4) . . .
42.0(35) . . .
49(4) . . .
50(4) . . .
46(4) . . .
43(4) . . .
43(4) . . .
38.2(32) . . .
37.3(32) . . .
44(4) . . .
45.3(35) . . .
42.4(34) . . .
42(4) . . .
39.6(33) . . .
40.7(33) . . .
42(4) . . .
47(4) . . .
48(4) . . .
45(4) . . .
44.6(35) . . .
53(4) . . .
39.3(34) . . .
45(4) . . .
47(4) . . .
48(4) . . .
49(4) . . .
36.0(35) . . .
45(4) . . .
49(4) . . .
44.0(35) . . .
45(4) . . .
43(4) . . .
44(4) . . .
43.3(34) . . .
44(4) . . .
41.7(33) . . .
50(4) . . .
40.3(33) . . .
49(4) . . .
45.7(35) . . .
47(4) . . .
46(4) . . .
40.1(35) . . .
42.7(35) . . .
40.4(35) . . .
45(4) . . .
50(4) . . .
49(4) . . .
42.2(34) . . .
55(4) . . .
48(4) . . .
43(4) . . .
49(4) . . .
38.5(32) . . .
37.8(34) . . .
43(4) . . .
38.7(33) . . .
48(4) . . .
37.7(33) . . .
43.1(35) . . .
42(4) . . .
43(4) . . .
45(4) . . .
48(4) . . .
48(4) . . .
46(4) . . .
34.6(31) . . .
42.4(34) . . .
50(4) . . .
47(4) . . .
45(4) . . .
48(4) . . .
35.5(31) . . .
37.0(32) . . .
41(4) . . .
48(4) . . .
48(4) . . .
38.0(32) . . .
34.3(31) . . .
47(4) . . .
53(4) . . .
49(4) . . .
49(4) . . .
41.4(34) . . .
44(4) . . .
43.5(35) . . .
45.7(35) . . .
45.3(35) . . .
46(4) . . .
48(4) . . .
39(4) . . .
43(4) . . .
47(4) . . .
50(4) . . .
43(4) . . .
31.0(29) . . .
50(4) . . .
46.2(35) . . .
41.2(33) . . .
47(4) . . .
41.2(34) . . .
45(4) . . .
45(4) . . .
43.5(34) . . .
46(4) . . .
38.9(34) . . .
48(4) . . .
46(4) . . .
50(4) . . .
42(4) . . .
40(4) . . .
53(4) . . .
35.8(32) . . .
46(4) . . .
40.2(34) . . .
48(4) . . .
44.0(34) . . .
43.1(34) . . .
54(4) . . .
52(4) . . .
46(4) . . .
46.1(35) . . .
56(4) . . .
44(4) . . .
48(4) . . .
44.0(35) . . .
39.8(33) . . .
39.6(33) . . .
44(4) . . .
41.4(35) . . .
44(4) . . .
44.6(35) . . .
47(4) . . .
42(4) . . .
41(4) . . .
47(4) . . .
52(4) . . .
39.7(32) . . .
51(4) . . .
44(4) . . .
51(4) . . .
45.0(35) . . .
45.6(35) . . .
44.5(34) . . .
57(4) . . .
41.2(33) . . .
39.3(34) . . .
35.3(31) . . .
42.6(35) . . .
44(4) . . .
43(4) . . .
40.1(32) . . .
45(4) . . .
46(4) . . .
46(4) . . .
45(4) . . .
48(4) . . .
42.5(35) . . .
45(4) . . .
42(4) . . .
40.3(33) . . .
41.4(33) . . .
52(4) . . .
50(4) . . .
47(4) . . .
40.3(34) . . .
35.8(31) . . .
45(4) . . .
48(4) . . .
52(4) . . .
46(4) . . .
42.9(34) . . .
39.5(34) . . .
48(4) . . .
53(4) . . .
52(4) . . .
45.4(35) . . .
45(4) . . .
37.9(34) . . .
42.1(35) . . .
43.6(35) . . .
44.0(35) . . .
38.7(34) . . .
34.2(31) . . .
49(4) . . .
45.7(35) . . .
40.8(33) . . .
45(4) . . .
42(4) . . .
44(4) . . .
40.9(34) . . .
51(4) . . .
52(4) . . .
46(4) . . .
50(4) . . .
44.3(35) . . .
52(4) . . .
48(4) . . .
44(4) . . .
46(4) . . .
43.6(34) . . .
44(4) . . .
45(4) . . .
37.2(35) . . .
41.9(35) . . .
46(4) . . .
46.0(35) . . .
39.8(33) . . .
45(4) . . .
46(4) . . .
50(4) . . .
35.6(33) . . .
44(4) . . .
36.2(31) . . .
42(4) . . .
42.0(33) . . .
47(4) . . .
46(4) . . .
44(4) . . .
48(4) . . .
48(4) . . .
46(4) . . .
42(4) . . .
39.9(33) . . .
54(4) . . .
38.1(33) . . .
44(4) . . .
41.9(35) . . .
38.3(34) . . .
39(4) . . .
47(4) . . .
47(4) . . .
41.2(35) . . .
42.7(34) . . .
42.1(35) . . .
44.1(35) . . .
38.9(34) . . .
47(4) . . .
48(4) . . .
49(4) . . .
42.3(33) . . .
37.8(32) . . .
37.1(34) . . .
43(4) . . .
40.8(33) . . .
52(4) . . .
46(4) . . .
45(4) . . .
52(4) . . .
51(4) . . .
43.9(34) . . .
46(4) . . .
40.4(33) . . .
49(4) . . .
44.9(34) . . .
40.1(33) . . .
47(4) . . .
46(4) . . .
43(4) . . .
36.3(31) . . .
39.8(33) . . .
44(4) . . .
41.0(35) . . .
41.9(34) . . .
35.2(31) . . .
40(4) . . .
42(4) . . .
40(4) . . .
40.7(34) . . .
45.3(35) . . .
42.1(34) . . .
33.5(31) . . .
36.5(34) . . .
35.8(31) . . .
43.4(34) . . .
48(4) . . .
41.0(33) . . .
38.6(32) . . .
37.0(32) . . .
59(4) . . .
46(4) . . .
43(4) . . .
42(4) . . .
39.9(34) . . .
45(4) . . .
44(4) . . .
51(4) . . .
55(4) . . .
41.9(34) . . .
60(4) . . .
47(4) . . .
46(4) . . .
43(4) . . .
43.8(35) . . .
44.8(35) . . .
44.6(35) . . .
46(4) . . .
49(4) . . .
47(4) . . .
36.6(32) . . .
41.0(34) . . .
45(4) . . .
49(4) . . .
40.6(33) . . .
50(4) . . .
39.5(33) . . .
40.7(35) . . .
49(4) . . .
59(4) . . .
43.0(35) . . .
42(4) . . .
46(4) . . .
39.0(33) . . .
45.4(35) . . .
43(4) . . .
45(4) . . .
44(4) . . .
46(4) . . .
50(4) . . .
45(4) . . .
39.1(34) . . .
41(4) . . .
46(4) . . .
48(4) . . .
36.6(32) . . .
45(4) . . .
36.1(32) . . .
44.4(35) . . .
49(4) . . .
45(4) . . .
39.7(33) . . .
56(4) . . .
44.7(34) . . .
50(4) . . .
40.3(35) . . .
43(4) . . .
46(4) . . .
43(4) . . .
38.5(33) . . .
49(4) . . .
51(4) . . .
41.9(34) . . .
51(4) . . .
47(4) . . .
36.2(32) . . .
43(4) . . .
54(4) . . .
42.2(34) . . .
35.5(31) . . .
46(4) . . .
42.5(34) . . .
43(4) . . .
36.1(32) . . .
46(4) . . .
45(4) . . .
40.4(35) . . .
47(4) . . .
59(4) . . .
54(4) . . .
38.9(33) . . .
41(4) . . .
43(4) . . .
52(4) . . .
50(4) . . .
37.5(30) . . .
50(4) . . .
45(4) . . .
44.6(35) . . .
42.3(34) . . .
44(4) . . .
45(4) . . .
53(4) . . .
48(4) . . .
37.5(33) . . .
41(4) . . .
46(4) . . .
54(4) . . .
46(4) . . .
46(4) . . .
51(4) . . .
46(4) . . .
45(4) . . .
41.9(34) . . .
36.7(31) . . .
48(4) . . .
42.5(34) . . .
40.7(33) . . .
41.8(33) . . .
49(4) . . .
40.9(34) . . .
47(4) . . .
48(4) . . .
38.7(33) . . .
38.6(33) . . .
41(4) . . .
35.2(32) . . .
45(4) . . .
42.9(34) . . .
45(4) . . .
52(4) . . .
41.3(35) . . .
42.9(34) . . .
47(4) . . .
40.8(34) . . .
34.7(31) . . .
44(4) . . .
41.3(33) . . .
42.1(34) . . .
46(4) . . .
50(4) . . .
43(4) . . .
42.0(34) . . .
38.7(32) . . .
42(4) . . .
29.9(30) . . .
36.5(33) . . .
47(4) . . .
45(4) . . .
45(4) . . .
36.0(31) . . .
42.0(35) . . .
44.1(34) . . .
50(4) . . .
43.6(34) . . .
54(4) . . .
36.2(32) . . .
41.5(34) . . .
44(4) . . .
47(4) . . .
45(4) . . .
45.3(35) . . .
49(4) . . .
51(4) . . .
37.5(33) . . .
47(4) . . .
45.5(35) . . .
41.7(33) . . .
40.7(33) . . .
41.9(35) . . .
45(4) . . .
39.3(32) . . .
45.8(35) . . .
43(4) . . .
35.7(33) . . .
49(4) . . .
40.7(33) . . .
41.2(34) . . .
39.2(33) . . .
50(4) . . .
38.6(33) . . .
39.2(33) . . .
47(4) . . .
43(4) . . .
40(4) . . .
36.9(33) . . .
51(4) . . .
48(4) . . .
42.7(34) . . .
44(4) . . .
38.2(32) . . .
36.6(33) . . .
37.1(31) . . .
49(4) . . .
38.5(33) . . .
32.9(32) . . .
38.1(32) . . .
40.1(33) . . .
43(4) . . .
49(4) . . .
48(4) . . .
41.2(33) . . .
41.8(35) . . .
38(4) . . .
41(4) . . .
47(4) . . .
52(4) . . .
46(4) . . .
46(4) . . .
36.6(32) . . .
39.0(33) . . .
38.8(32) . . .
41.2(34) . . .
45(4) . . .
46(4) . . .
43.4(34) . . .
41.9(34) . . .
40.8(35) . . .
32.9(30) . . .
48(4) . . .
43.7(34) . . .
47(4) . . .
40.6(34) . . .
41(4) . . .
37.4(33) . . .
46(4) . . .
41.7(34) . . .
38.3(33) . . .
43(4) . . .
40.9(34) . . .
55(4) . . .
46.3(35) . . .
45(4) . . .
32.7(33) . . .
42(4) . . .
45(4) . . .
50(4) . . .
46(4) . . .
45(4) . . .
50(4) . . .
41.5(34) . . .
43.2(34) . . .
47(4) . . .
43.6(35) . . .
42(4) . . .
47(4) . . .
55(4) . . .
44.7(35) . . .
37.8(33) . . .
50(4) . . .
56(4) . . .
45(4) . . .
46(4) . . .
43(4) . . .
36.9(32) . . .
48(4) . . .
45.2(35) . . .
51(4) . . .
44(4) . . .
44.0(34) . . .
41.2(34) . . .
51(4) . . .
44(4) . . .
42(4) . . .
40.7(34) . . .
39.0(33) . . .
51(4) . . .
41.4(34) . . .
50(4) . . .
49(4) . . .
50(4) . . .
47(4) . . .
32.5(31) . . .
41(4) . . .
37.2(31) . . .
45.1(35) . . .
37.7(33) . . .
47(4) . . .
43.8(34) . . .
50(4) . . .
35.2(31) . . .
37.4(32) . . .
47(4) . . .
47(4) . . .
44.1(34) . . .
37.8(32) . . .
48(4) . . .
42(4) . . .
40.6(34) . . .
45.8(35) . . .
35.1(32) . . .
50(4) . . .
37.2(33) . . .
45(4) . . .
41.9(34) . . .
38.9(33) . . .
41.6(34) . . .
42.0(34) . . .
47(4) . . .
46(4) . . .
46(4) . . .
38.9(34) . . .
46(4) . . .
56(4) . . .
37.6(32) . . .
43(4) . . .
40.2(34) . . .
53(4) . . .
52(4) . . .
45(4) . . .
41.6(34) . . .
36.8(32) . . .
46(4) . . .
48(4) . . .
51(4) . . .
39.4(33) . . .
35.2(32) . . .
43(4) . . .
38.7(32) . . .
44.4(34) . . .
40(4) . . .
40.0(34) . . .
40.6(33) . . .
38.5(32) . . .
47(4) . . .
40.9(33) . . .
49(4) . . .
44(4) . . .
45.1(35) . . .
50(4) . . .
46(4) . . .
42(4) . . .
38.0(33) . . .
51(4) . . .
43.4(34) . . .
40.7(35) . . .
42(4) . . .
35.5(32) . . .
49(4) . . .
40.4(34) . . .
43.0(34) . . .
38.2(35) . . .
44(4) . . .
41.5(33) . . .
37.0(33) . . .
36.8(33) . . .
42(4) . . .
44(4) . . .
37.3(32) . . .
44.1(35) . . .
43.9(34) . . .
51(4) . . .
37.5(32) . . .
34.5(31) . . .
44(4) . . .
49(4) . . .
48(4) . . .
49(4) . . .
49(4) . . .
40.9(33) . . .
46(4) . . .
39.5(33) . . .
42.8(34) . . .
46(4) . . .
36.0(32) . . .
38(4) . . .
49(4) . . .
54(4) . . .
47(4) . . .
45(4) . . .
46(4) . . .
38.9(33) . . .
45(4) . . .
50(4) . . .
46.0(35) . . .
52(4) . . .
48(4) . . .
39.5(33) . . .
43.5(35) . . .
46(4) . . .
39.7(35) . . .
38.8(33) . . .
45(4) . . .
44.8(35) . . .
44(4) . . .
41(4) . . .
32.5(33) . . .
43(4) . . .
35.4(30) . . .
46(4) . . .
44(4) . . .
48(4) . . .
34.8(30) . . .
44(4) . . .
35.8(33) . . .
43(4) . . .
43(4) . . .
44.7(35) . . .
44(4) . . .
39.9(34) . . .
41(4) . . .
47(4) . . .
33.3(30) . . .
41.9(35) . . .
48(4) . . .
44(4) . . .
41.8(35) . . .
47(4) . . .
39.2(35) . . .
48(4) . . .
44.1(35) . . .
42(4) . . .
43.7(34) . . .
45(4) . . .
36.3(33) . . .
33.2(31) . . .
30.9(28) . . .
42.0(34) . . .
35.7(34) . . .
50(4) . . .
46(4) . . .
43.5(34) . . .
34.6(31) . . .
35.3(33) . . .
41(4) . . .
52(4) . . .
47(4) . . .
54(4) . . .
41.9(34) . . .
40(4) . . .
40.4(33) . . .
39.7(33) . . .
40.8(34) . . .
44(4) . . .
43(4) . . .
38.4(33) . . .
43.3(34) . . .
47(4) . . .
49(4) . . .
43(4) . . .
47(4) . . .
43.8(34) . . .
50(4) . . .
39.7(32) . . .
40.3(34) . . .
45(4) . . .
45.6(35) . . .
42(4) . . .
33.8(30) . . .
53(4) . . .
50(4) . . .
42.3(34) . . .
35.4(31) . . .
49(4) . . .
40.4(34) . . .
42.1(35) . . .
40.5(33) . . .
36.7(32) . . .
34.0(31) . . .
44(4) . . .
40.2(34) . . .
38.2(33) . . .
42.5(34) . . .
50(4) . . .
45(4) . . .
28.8(29) . . .
40.5(33) . . .
46(4) . . .
54(4) . . .
43(4) . . .
41.0(34) . . .
54(4) . . .
51(4) . . .
43(4) . . .
36.3(33) . . .
42.5(34) . . .
37.2(32) . . .
40.4(33) . . .
41.2(33) . . .
44.5(34) . . .
44.6(34) . . .
45(4) . . .
38.1(32) . . .
44(4) . . .
52(4) . . .
52(4) . . .
38.2(32) . . .
35.8(32) . . .
44(4) . . .
45(4) . . .
35.2(31) . . .
40.5(33) . . .
46(4) . . .
52(4) . . .
51(4) . . .
42.5(34) . . .
35.1(31) . . .
42(4) . . .
44(4) . . .
37.4(32) . . .
50(4) . . .
44(4) . . .
43(4) . . .
45(4) . . .
43(4) . . .
44.9(35) . . .
39.6(33) . . .
45(4) . . .
46(4) . . .
37.2(34) . . .
34.5(30) . . .
40.0(34) . . .
51(4) . . .
42.1(34) . . .
43(4) . . .
50(4) . . .
45(4) . . .
49(4) . . .
44(4) . . .
44(4) . . .
49(4) . . .
45(4) . . .
45(4) . . .
49(4) . . .
34.8(32) . . .
44.2(34) . . .
42.5(35) . . .
37.7(35) . . .
37.6(34) . . .
44.5(35) . . .
39.6(33) . . .
49(4) . . .
46(4) . . .
39.7(33) . . .
42.4(34) . . .
50(4) . . .
39.7(34) . . .
36.2(33) . . .
41(4) . . .
47(4) . . .
37.4(32) . . .
32.6(30) . . .
41(4) . . .
39.3(34) . . .
37.0(32) . . .
48(4) . . .
42.2(34) . . .
48(4) . . .
40.6(34) . . .
45(4) . . .
43.5(35) . . .
44(4) . . .
39.5(33) . . .
41.3(33) . . .
47(4) . . .
41.3(35) . . .
39.3(34) . . .
34.9(32) . . .
34.6(32) . . .
45.3(35) . . .
46(4) . . .
46(4) . . .
49(4) . . .
47(4) . . .
53(4) . . .
45(4) . . .
39.1(34) . . .
42(4) . . .
42(4) . . .
44.4(35) . . .
36.2(32) . . .
38.4(35) . . .
34.5(31) . . .
42.3(33) . . .
51(4) . . .
45(4) . . .
44(4) . . .
46(4) . . .
39.9(33) . . .
33.9(30) . . .
44(4) . . .
45(4) . . .
49(4) . . .
39.4(33) . . .
42.7(34) . . .
47(4) . . .
44(4) . . .
44(4) . . .
32.9(30) . . .
46(4) . . .
49(4) . . .
39.4(34) . . .
32.0(30) . . .
42.7(34) . . .
40.5(33) . . .
38.4(34) . . .
39(4) . . .
31.7(30) . . .
39.0(33) . . .
37.5(32) . . .
40.8(35) . . .
44(4) . . .
43.1(35) . . .
34.2(31) . . .
36.1(32) . . .
45(4) . . .
40(4) . . .
33.7(31) . . .
40.9(34) . . .
33.8(33) . . .
39(4) . . .
37.5(32) . . .
55(4) . . .
48(4) . . .
44(4) . . .
35.3(32) . . .
40.4(33) . . .
41.0(34) . . .
35.9(31) . . .
40.6(34) . . .
40.0(35) . . .
40.8(35) . . .
41.8(35) . . .
46(4) . . .
46(4) . . .
44(4) . . .
40.8(34) . . .
43.8(35) . . .
55(4) . . .
48(4) . . .
47(4) . . .
49(4) . . .
40.5(33) . . .
36.0(31) . . .
42(4) . . .
44(4) . . .
38.7(33) . . .
42.1(34) . . .
36.8(31) . . .
45(4) . . .
38.0(34) . . .
44(4) . . .
44.6(35) . . .
44(4) . . .
35.9(30) . . .
46(4) . . .
44(4) . . .
40.8(33) . . .
38.3(32) . . .
42.1(35) . . .
38.6(35) . . .
38.0(33) . . .
35.0(31) . . .
35.8(32) . . .
39(4) . . .
52(4) . . .
39.6(34) . . .
51(4) . . .
39.8(33) . . .
33.7(30) . . .
41(4) . . .
37.7(33) . . .
36.5(31) . . .
38.1(34) . . .
42(4) . . .
44(4) . . .
50(4) . . .
43.3(34) . . .
46(4) . . .
45(4) . . .
44.3(34) . . .
40.2(33) . . .
50(4) . . .
41.3(35) . . .
41(4) . . .
38.2(33) . . .
33.5(30) . . .
44(4) . . .
46(4) . . .
42(4) . . .
33.7(32) . . .
48(4) . . .
37.3(32) . . .
35.2(30) . . .
37.4(33) . . .
44.4(35) . . .
50(4) . . .
40.6(33) . . .
51(4) . . .
45(4) . . .
46(4) . . .
42.4(34) . . .
38.9(34) . . .
47(4) . . .
44(4) . . .
43(4) . . .
41.3(33) . . .
39.1(33) . . .
39.0(33) . . .
47(4) . . .
41.2(34) . . .
33.4(30) . . .
42(4) . . .
44(4) . . .
40.0(34) . . .
44(4) . . .
38.0(32) . . .
39.8(34) . . .
45(4) . . .
39(4) . . .
37.9(33) . . .
28.0(27) . . .
43.3(35) . . .
50(4) . . .
40.1(35) . . .
38.5(33) . . .
38.7(33) . . .
38.6(34) . . .
46(4) . . .
43.0(34) . . .
49(4) . . .
41.8(33) . . .
42.0(35) . . .
40(4) . . .
35.5(30) . . .
51(4) . . .
36.3(31) . . .
37.6(32) . . .
47(4) . . .
49(4) . . .
44.2(34) . . .
31.2(28) . . .
44(4) . . .
42(4) . . .
44(4) . . .
43.8(34) . . .
35.6(31) . . .
51(4) . . .
38.0(32) . . .
40.4(33) . . .
43.7(35) . . .
38.3(32) . . .
45(4) . . .
48(4) . . .
47(4) . . .
40.4(34) . . .
43.1(34) . . .
34.8(32) . . .
37.0(34) . . .
36.2(32) . . .
36.1(31) . . .
38.4(32) . . .
46(4) . . .
37.5(33) . . .
34.7(31) . . .
36.1(31) . . .
42.5(35) . . .
40.6(34) . . .
42.2(34) . . .
51(4) . . .
41.4(34) . . .
41.3(34) . . .
32.5(30) . . .
41(4) . . .
50(4) . . .
37.8(32) . . .
35.8(31) . . .
34.2(31) . . .
35.8(32) . . .
40.8(34) . . .
40.5(33) . . .
46(4) . . .
47(4) . . .
36.0(32) . . .
48(4) . . .
35.5(33) . . .
44(4) . . .
46(4) . . .
37.5(33) . . .
41.6(33) . . .
37.1(31) . . .
40.9(34) . . .
41(4) . . .
33.6(32) . . .
39.8(32) . . .
49(4) . . .
42.0(34) . . .
49(4) . . .
43.5(35) . . .
40.8(33) . . .
44(4) . . .
44.8(34) . . .
45(4) . . .
50(4) . . .
34.2(31) . . .
33.1(30) . . .
38.9(35) . . .
41(4) . . .
37.8(35) . . .
36.2(31) . . .
46(4) . . .
39.7(33) . . .
48(4) . . .
51(4) . . .
41.9(34) . . .
45(4) . . .
39.8(34) . . .
42(4) . . .
37.0(31) . . .
44.2(34) . . .
42.8(35) . . .
43.8(35) . . .
38.9(33) . . .
46(4) . . .
43.3(34) . . .
38.4(34) . . .
40.7(35) . . .
37.1(32) . . .
37.3(33) . . .
36.9(31) . . .
38.4(34) . . .
36.5(35) . . .
40.7(35) . . .
44.4(35) . . .
48(4) . . .
41.2(34) . . .
38.9(34) . . .
43(4) . . .
39.1(34) . . .
41.7(33) . . .
45(4) . . .
49(4) . . .
48(4) . . .
37.1(32) . . .
31.2(29) . . .
42(4) . . .
44(4) . . .
35.8(31) . . .
34.3(31) . . .
38.0(32) . . .
45(4) . . .
48(4) . . .
44.5(34) . . .
43.6(35) . . .
43.2(35) . . .
41.8(35) . . .
42(4) . . .
42(4) . . .
41.8(33) . . .
38.1(33) . . .
49(4) . . .
44(4) . . .
38.2(33) . . .
41.1(34) . . .
42.8(35) . . .
52(4) . . .
45(4) . . .
55(4) . . .
48(4) . . .
46(4) . . .
37.2(31) . . .
47(4) . . .
38.4(34) . . .
34.8(31) . . .
37.6(32) . . .
40.1(34) . . .
45(4) . . .
38.1(33) . . .
45(4) . . .
47(4) . . .
37.0(33) . . .
43.4(35) . . .
49(4) . . .
46(4) . . .
39.7(33) . . .
34.4(30) . . .
38.4(34) . . .
36.6(33) . . .
44.9(35) . . .
37.1(33) . . .
47(4) . . .
34.8(31) . . .
39.7(33) . . .
46.3(35) . . .
46(4) . . .
36.9(33) . . .
43(4) . . .
42.7(34) . . .
38.2(33) . . .
38.3(34) . . .
45(4) . . .
53(4) . . .
44.9(34) . . .
39.2(32) . . .
47(4) . . .
40.8(34) . . .
44.6(35) . . .
31.7(29) . . .
43(4) . . .
40.5(34) . . .
46(4) . . .
38.7(34) . . .
46(4) . . .
42.7(34) . . .
45(4) . . .
36.2(32) . . .
38.9(33) . . .
32.4(29) . . .
42(4) . . .
45(4) . . .
37.0(35) . . .
38.0(33) . . .
36.1(31) . . .
42(4) . . .
45(4) . . .
43.0(34) . . .
40.4(34) . . .
43.8(35) . . .
38.0(34) . . .
40.3(35) . . .
38.6(34) . . .
38.2(32) . . .
43.9(34) . . .
45(4) . . .
42(4) . . .
38.8(33) . . .
37.7(32) . . .
40.9(33) . . .
42.8(34) . . .
38.8(35) . . .
34.2(31) . . .
40.2(34) . . .
40.2(33) . . .
43(4) . . .
40(4) . . .
40.8(34) . . .
37.8(32) . . .
37.1(32) . . .
33.6(30) . . .
43(4) . . .
44.5(35) . . .
50(4) . . .
41.8(33) . . .
43(4) . . .
38.1(34) . . .
45(4) . . .
49(4) . . .
37.8(32) . . .
39.4(34) . . .
29.6(29) . . .
36.6(34) . . .
46(4) . . .
49(4) . . .
38.2(32) . . .
46(4) . . .
42.6(34) . . .
42.8(34) . . .
47(4) . . .
47(4) . . .
38.3(33) . . .
45(4) . . .
50(4) . . .
53(4) . . .
47(4) . . .
40(4) . . .
45(4) . . .
38.2(32) . . .
48(4) . . .
33.7(31) . . .
36.8(32) . . .
52(4) . . .
42.9(34) . . .
45(4) . . .
29.3(29) . . .
36.1(32) . . .
42.5(34) . . .
38.9(33) . . .
38.1(34) . . .
37.3(33) . . .
38.9(33) . . .
38.8(33) . . .
44.3(35) . . .
37.3(33) . . .
41(4) . . .
47(4) . . .
43.8(34) . . .
40.0(33) . . .
45.0(35) . . .
42(4) . . .
37.7(33) . . .
34.2(30) . . .
47(4) . . .
42.6(35) . . .
34.3(32) . . .
42(4) . . .
48(4) . . .
46(4) . . .
49(4) . . .
45(4) . . .
46(4) . . .
40.8(34) . . .
47(4) . . .
41(4) . . .
40.0(34) . . .
47(4) . . .
48(4) . . .
42(4) . . .
33.5(32) . . .
37.5(32) . . .
40.2(34) . . .
44.8(35) . . .
37.5(32) . . .
44(4) . . .
40.1(34) . . .
40.0(33) . . .
38.3(32) . . .
39.2(34) . . .
38.9(34) . . .
34.8(31) . . .
47(4) . . .
40.8(33) . . .
34.7(33) . . .
35.8(33) . . .
48(4) . . .
46(4) . . .
36.2(31) . . .
36.0(31) . . .
37.2(34) . . .
39.9(34) . . .
37.7(32) . . .
47(4) . . .
41.0(34) . . .
43(4) . . .
41.4(35) . . .
50(4) . . .
55(4) . . .
45(4) . . .
40.1(34) . . .
38.4(33) . . .
48(4) . . .
42.7(34) . . .
32.4(30) . . .
39.0(35) . . .
37.2(35) . . .
45(4) . . .
35.4(31) . . .
43.4(34) . . .
32.2(31) . . .
36.3(33) . . .
45.3(35) . . .
42(4) . . .
47(4) . . .
47(4) . . .
41(4) . . .
39.6(32) . . .
32.2(30) . . .
40.5(33) . . .
40.4(33) . . .
44(4) . . .
49(4) . . .
36.1(31) . . .
38.6(34) . . .
41.2(35) . . .
41.5(34) . . .
28.7(28) . . .
35.9(32) . . .
44(4) . . .
34.8(33) . . .
33.0(31) . . .
41.3(34) . . .
36.9(33) . . .
39(4) . . .
38.3(34) . . .
36.5(31) . . .
42.2(33) . . .
34.8(33) . . .
44(4) . . .
49(4) . . .
44(4) . . .
36.7(32) . . .
34.7(33) . . .
34.5(34) . . .
45(4) . . .
43.0(34) . . .
42.1(34) . . .
36.7(33) . . .
37(4) . . .
35.3(32) . . .
31.2(29) . . .
40.5(34) . . .
48(4) . . .
31.0(31) . . .
43.7(35) . . .
40.8(33) . . .
37.6(32) . . .
37.6(33) . . .
39.5(35) . . .
35.9(32) . . .
49(4) . . .
42(4) . . .
43(4) . . .
39.9(35) . . .
34.9(34) . . .
32.9(30) . . .
41.3(34) . . .
45(4) . . .
32.5(32) . . .
33.7(31) . . .
39.1(33) . . .
35.2(31) . . .
50(4) . . .
44(4) . . .
41(4) . . .
37.3(32) . . .
44(4) . . .
46(4) . . .
44(4) . . .
40.8(33) . . .
40.8(33) . . .
38.3(33) . . .
46(4) . . .
46(4) . . .
44.1(35) . . .
44(4) . . .
43(4) . . .
38.1(34) . . .
45(4) . . .
40.3(33) . . .
31.0(29) . . .
41(4) . . .
37.0(32) . . .
46.5(35) . . .
41.2(34) . . .
34.5(30) . . .
43.5(35) . . .
42(4) . . .
35.5(31) . . .
40.6(34) . . .
37.2(32) . . .
45(4) . . .
41(4) . . .
39.7(35) . . .
42.9(34) . . .
36.4(31) . . .
45(4) . . .
49(4) . . .
49(4) . . .
30.8(29) . . .
32.3(30) . . .
47(4) . . .
46(4) . . .
48(4) . . .
45.5(35) . . .
39.3(33) . . .
44(4) . . .
40.6(35) . . .
43(4) . . .
43.7(34) . . .
36.8(31) . . .
43.3(34) . . .
40.1(34) . . .
34.7(31) . . .
36.0(32) . . .
45(4) . . .
42(4) . . .
45(4) . . .
36.8(31) . . .
36.2(31) . . .
40.9(34) . . .
42(4) . . .
37.9(34) . . .
37.7(32) . . .
43.6(34) . . .
40.8(34) . . .
41(4) . . .
45(4) . . .
39.5(33) . . .
35.8(32) . . .
34.4(31) . . .
34.1(32) . . .
42.5(35) . . .
49(4) . . .
42.8(34) . . .
47(4) . . .
37.8(34) . . .
40(4) . . .
41.6(34) . . .
41.0(34) . . .
46(4) . . .
37.8(33) . . .
44.0(34) . . .
48(4) . . .
45(4) . . .
36.8(32) . . .
42.3(35) . . .
53(4) . . .
46(4) . . .
34.8(31) . . .
39.8(33) . . .
42.2(34) . . .
48(4) . . .
38.4(32) . . .
46(4) . . .
49(4) . . .
42(4) . . .
39.1(34) . . .
50(4) . . .
36.8(32) . . .
35.5(32) . . .
38.1(32) . . .
43.9(35) . . .
40.6(33) . . .
33.7(31) . . .
37.4(34) . . .
38.7(34) . . .
41(4) . . .
37.1(32) . . .
37.2(31) . . .
46(4) . . .
34.9(31) . . .
29.9(29) . . .
44.0(35) . . .
40.3(34) . . .
47(4) . . .
38.4(34) . . .
30.0(30) . . .
32.7(29) . . .
39.9(34) . . .
42(4) . . .
39(4) . . .
38.0(33) . . .
42.5(34) . . .
46(4) . . .
41(4) . . .
47(4) . . .
44(4) . . .
46(4) . . .
40(4) . . .
36(4) . . .
33.5(32) . . .
47(4) . . .
48(4) . . .
41.1(34) . . .
44(4) . . .
32.5(31) . . .
42.0(34) . . .
46(4) . . .
42(4) . . .
45(4) . . .
37.4(32) . . .
41.2(33) . . .
40.1(34) . . .
40.3(34) . . .
42(4) . . .
41(4) . . .
37.9(32) . . .
37.3(32) . . .
42.5(35) . . .
40.3(34) . . .
41.5(33) . . .
38.5(33) . . .
40.3(34) . . .
46(4) . . .
35.0(32) . . .
38.1(35) . . .
43.9(35) . . .
37.8(32) . . .
40.7(34) . . .
60(4) . . .
29.9(29) . . .
35.6(31) . . .
37.2(33) . . .
45(4) . . .
37.0(33) . . .
32.6(31) . . .
43.1(34) . . .
37.5(34) . . .
39.6(35) . . .
45(4) . . .
41.2(33) . . .
30.3(29) . . .
37.5(33) . . .
42(4) . . .
45(4) . . .
45(4) . . .
41.3(33) . . .
50(4) . . .
37.1(32) . . .
39.8(35) . . .
41.8(34) . . .
31.8(29) . . .
47(4) . . .
43(4) . . .
34.0(32) . . .
41.1(34) . . .
38.6(34) . . .
38.5(33) . . .
33.2(31) . . .
37.3(34) . . .
46(4) . . .
40.9(33) . . .
39.1(33) . . .
41(4) . . .
36.4(32) . . .
47(4) . . .
43(4) . . .
39.1(33) . . .
43(4) . . .
41.1(34) . . .
43.8(35) . . .
42.2(35) . . .
36.0(33) . . .
38.5(33) . . .
39.3(33) . . .
37.1(32) . . .
33.3(34) . . .
48(4) . . .
41.7(34) . . .
45(4) . . .
41.8(34) . . .
37.5(33) . . .
45(4) . . .
40.6(34) . . .
42.1(35) . . .
39.0(32) . . .
50(4) . . .
44(4) . . .
32.9(31) . . .
40.2(33) . . .
40.9(33) . . .
40.2(33) . . .
43(4) . . .
38.8(33) . . .
43.4(35) . . .
36.5(31) . . .
43.3(35) . . .
38.7(33) . . .
40.1(35) . . .
38.5(32) . . .
32.3(30) . . .
33.1(33) . . .
37.2(34) . . .
32.1(30) . . .
34.5(30) . . .
37.5(32) . . .
32.4(33) . . .
35.0(33) . . .
44(4) . . .
36.9(32) . . .
45.7(35) . . .
40.6(32) . . .
40.4(34) . . .
33.5(30) . . .
39.2(32) . . .
45(4) . . .
33.9(31) . . .
46(4) . . .
42(4) . . .
36.5(32) . . .
39.7(33) . . .
40.1(35) . . .
35.6(31) . . .
38.5(33) . . .
34.5(30) . . .
40.5(34) . . .
43(4) . . .
41(4) . . .
47(4) . . .
43.0(34) . . .
35.3(30) . . .
38.4(33) . . .
32.6(30) . . .
38.3(33) . . .
38.4(32) . . .
39.8(34) . . .
39.9(35) . . .
42(4) . . .
40.3(33) . . .
45.2(35) . . .
40(4) . . .
41(4) . . .
37.2(33) . . .
33.5(30) . . .
35.9(32) . . .
47(4) . . .
40.1(34) . . .
46(4) . . .
39.4(32) . . .
51(4) . . .
44.9(35) . . .
39.0(35) . . .
39.3(34) . . .
44.9(35) . . .
46(4) . . .
38.2(33) . . .
39(4) . . .
43(4) . . .
32.1(30) . . .
34.4(30) . . .
35.7(31) . . .
46(4) . . .
34.7(32) . . .
46(4) . . .
40.6(33) . . .
46(4) . . .
41.5(34) . . .
41.8(35) . . .
35.3(31) . . .
31.4(30) . . .
42.5(35) . . .
29.8(27) . . .
41.1(34) . . .
46(4) . . .
43(4) . . .
41(4) . . .
36.3(33) . . .
41.2(34) . . .
43.7(34) . . .
36.1(32) . . .
32.3(31) . . .
37.5(34) . . .
37.2(32) . . .
36.1(32) . . .
37.9(33) . . .
40(4) . . .
37.3(33) . . .
46(4) . . .
36.1(31) . . .
35.6(31) . . .
41(4) . . .
39.0(34) . . .
39.1(33) . . .
41.3(34) . . .
43.1(35) . . .
43(4) . . .
45(4) . . .
50(4) . . .
43.4(34) . . .
37.0(34) . . .
37(4) . . .
40(4) . . .
35.5(31) . . .
33.3(31) . . .
39.3(34) . . .
52(4) . . .
39.7(33) . . .
37.7(33) . . .
44.8(35) . . .
42(4) . . .
38.7(34) . . .
47(4) . . .
43.2(35) . . .
34.2(30) . . .
43(4) . . .
36.5(34) . . .
41.0(33) . . .
45(4) . . .
34.7(33) . . .
38(4) . . .
41(4) . . .
43(4) . . .
47(4) . . .
39.1(32) . . .
37.3(34) . . .
31.5(31) . . .
37.0(31) . . .
39.6(34) . . .
29.8(29) . . .
42(4) . . .
36.4(32) . . .
37.6(32) . . .
39.4(33) . . .
36.1(33) . . .
42(4) . . .
31.2(30) . . .
35.2(30) . . .
36.4(31) . . .
38.5(33) . . .
45(4) . . .
38(4) . . .
41.4(34) . . .
42.0(33) . . .
40.4(34) . . .
40(4) . . .
36.2(32) . . .
38.4(32) . . .
41.2(33) . . .
49(4) . . .
35.2(33) . . .
35.0(30) . . .
45(4) . . .
46(4) . . .
39.8(34) . . .
27.1(29) . . .
39.1(35) . . .
40.8(33) . . .
40.5(34) . . .
34.9(33) . . .
31.2(31) . . .
37.8(35) . . .
36.7(32) . . .
42.0(33) . . .
37.4(33) . . .
33.8(32) . . .
30.5(29) . . .
38.8(33) . . .
43.4(35) . . .
43(4) . . .
40(4) . . .
31.5(31) . . .
38.2(32) . . .
44.7(35) . . .
37.2(31) . . .
40.5(35) . . .
39.4(33) . . .
34.9(31) . . .
45(4) . . .
39.8(34) . . .
40.4(34) . . .
37.9(34) . . .
29.2(28) . . .
34.8(31) . . .
32.5(31) . . .
42.5(35) . . .
46(4) . . .
40.1(33) . . .
34.8(32) . . .
45(4) . . .
45(4) . . .
43.2(35) . . .
44.1(35) . . .
47(4) . . .
44(4) . . .
35.5(33) . . .
37.7(33) . . .
40.0(33) . . .
35.5(30) . . .
43(4) . . .
42(4) . . .
33.4(30) . . .
41.8(35) . . .
39.7(35) . . .
28.3(28) . . .
40.1(35) . . .
32.4(29) . . .
41.2(34) . . .
33.0(31) . . .
42(4) . . .
37.7(32) . . .
42.2(34) . . .
39.4(32) . . .
37.4(33) . . .
41.8(35) . . .
35.9(31) . . .
36.7(32) . . .
46(4) . . .
45(4) . . .
40.3(33) . . .
38.9(32) . . .
46(4) . . .
44.8(35) . . .
40(4) . . .
33.7(31) . . .
44.2(34) . . .
31.5(29) . . .
30.7(30) . . .
39.9(34) . . .
46(4) . . .
40.5(34) . . .
36.0(31) . . .
36.4(32) . . .
39.8(35) . . .
38.7(33) . . .
38.9(33) . . .
36.7(32) . . .
31.9(30) . . .
40.6(34) . . .
37.2(31) . . .
41.5(33) . . .
45(4) . . .
32.3(30) . . .
35.0(35) . . .
37.5(34) . . .
38.2(32) . . .
38.0(32) . . .
45(4) . . .
42.4(35) . . .
43.3(35) . . .
40.3(34) . . .
45.9(35) . . .
38.1(33) . . .
34.8(34) . . .
31.0(30) . . .
39.0(33) . . .
38.8(32) . . .
49(4) . . .
40.4(34) . . .
41(4) . . .
44.1(35) . . .
46(4) . . .
54(4) . . .
34.2(31) . . .
39.0(35) . . .
41.6(34) . . .
35.3(31) . . .
38.9(34) . . .
40(4) . . .
47(4) . . .
35.5(31) . . .
38.3(35) . . .
48(4) . . .
37.8(33) . . .
35.4(31) . . .
46(4) . . .
37.5(32) . . .
42(4) . . .
43(4) . . .
38.9(34) . . .
35.4(31) . . .
46(4) . . .
44.5(35) . . .
39.8(33) . . .
37.7(33) . . .
34.5(31) . . .
35.4(31) . . .
41(4) . . .
32.6(29) . . .
40.9(33) . . .
41.6(33) . . .
48(4) . . .
45(4) . . .
37.4(33) . . .
31.4(29) . . .
31.5(29) . . .
35.9(32) . . .
41(4) . . .
31.3(29) . . .
30.4(29) . . .
38.0(33) . . .
41.8(35) . . .
34.1(33) . . .
30.2(29) . . .
38.9(32) . . .
38.7(32) . . .
36.4(33) . . .
37.5(34) . . .
36.8(33) . . .
40.1(33) . . .
40.5(33) . . .
36.2(32) . . .
35.6(32) . . .
32.2(31) . . .
28.5(28) . . .
34.1(30) . . .
34.9(32) . . .
46(4) . . .
38.3(32) . . .
40.1(33) . . .
43.6(34) . . .
39.8(34) . . .
42(4) . . .
48(4) . . .
38.3(32) . . .
36.4(32) . . .
41(4) . . .
37.9(35) . . .
28.8(28) . . .
37.0(32) . . .
34.5(31) . . .
45(4) . . .
35.6(30) . . .
36.6(33) . . .
39.6(33) . . .
42.2(35) . . .
35.9(32) . . .
35.3(31) . . .
43.2(34) . . .
45.0(35) . . .
47(4) . . .
37.2(32) . . .
41(4) . . .
40.6(33) . . .
45(4) . . .
41.9(34) . . .
40(4) . . .
42(4) . . .
31.2(29) . . .
37.3(32) . . .
37.3(32) . . .
39(4) . . .
31.0(31) . . .
32.5(29) . . .
39.5(33) . . .
41.3(35) . . .
42(4) . . .
35.1(30) . . .
46(4) . . .
40.1(33) . . .
34.9(34) . . .
34.5(32) . . .
34.9(31) . . .
31.3(29) . . .
45(4) . . .
45(4) . . .
41(4) . . .
33.7(30) . . .
40.9(33) . . .
46(4) . . .
39.6(34) . . .
40.5(34) . . .
42.5(33) . . .
36.3(32) . . .
44(4) . . .
48(4) . . .
34.6(32) . . .
34.0(31) . . .
39.0(33) . . .
34.2(31) . . .
41(4) . . .
41.0(35) . . .
39.1(33) . . .
36.1(31) . . .
35.4(31) . . .
40(4) . . .
42(4) . . .
47(4) . . .
39.3(32) . . .
31.8(31) . . .
36.9(32) . . .
43(4) . . .
41.4(33) . . .
43.1(34) . . .
47(4) . . .
36.5(34) . . .
33.4(33) . . .
33.5(32) . . .
46(4) . . .
41.4(35) . . .
36.8(33) . . .
37.5(33) . . .
44(4) . . .
45.1(35) . . .
37.5(31) . . .
41.2(34) . . .
31.1(29) . . .
33.4(30) . . .
38.1(32) . . .
36.9(31) . . .
44(4) . . .
37.3(35) . . .
37.8(33) . . .
35.1(32) . . .
43(4) . . .
47(4) . . .
39.1(33) . . .
39.5(33) . . .
33.4(30) . . .
51(4) . . .
35.5(33) . . .
50(4) . . .
51(4) . . .
50(4) . . .
51(4) . . .
35.3(31) . . .
34.8(31) . . .
43.5(35) . . .
42(4) . . .
40(4) . . .
34.5(33) . . .
35.7(31) . . .
38.0(32) . . .
37.2(32) . . .
28.7(28) . . .
38.9(34) . . .
40.8(34) . . .
47(4) . . .
41(4) . . .
39(4) . . .
45(4) . . .
44(4) . . .
39.0(32) . . .
33.5(31) . . .
37.8(34) . . .
31.7(30) . . .
38.5(34) . . .
34.9(30) . . .
41(4) . . .
38.2(35) . . .
33.2(31) . . .
44.8(35) . . .
33.4(30) . . .
46(4) . . .
32.8(30) . . .
36.6(32) . . .
40.3(33) . . .
35.1(31) . . .
33.5(31) . . .
46(4) . . .
45(4) . . .
35.0(31) . . .
55(4) . . .
43(4) . . .
38.4(34) . . .
39.3(34) . . .
35.9(31) . . .
35.8(31) . . .
32.8(31) . . .
39.8(35) . . .
41.2(35) . . .
37.3(32) . . .
35.9(34) . . .
38(4) . . .
34.5(33) . . .
40.4(33) . . .
36.9(32) . . .
37.4(32) . . .
44(4) . . .
32.7(30) . . .
37.7(32) . . .
37.0(32) . . .
44(4) . . .
45(4) . . .
49(4) . . .
41.6(33) . . .
39.7(34) . . .
37.7(34) . . .
32.0(32) . . .
32.3(31) . . .
44(4) . . .
36.9(32) . . .
43(4) . . .
41(4) . . .
33.5(31) . . .
38.2(33) . . .
40.6(34) . . .
37.0(32) . . .
32.0(30) . . .
40.3(33) . . .
41.8(35) . . .
36.2(33) . . .
35.8(34) . . .
42(4) . . .
36.7(32) . . .
44(4) . . .
39.1(34) . . .
33.2(32) . . .
41.0(35) . . .
44(4) . . .
37.8(32) . . .
34.5(30) . . .
35.5(30) . . .
46(4) . . .
42(4) . . .
32.3(30) . . .
35.2(32) . . .
34.4(31) . . .
34.3(33) . . .
44(4) . . .
50(4) . . .
37.9(33) . . .
37.6(33) . . .
27.9(29) . . .
34.3(33) . . .
44.0(34) . . .
47(4) . . .
41(4) . . .
38.0(33) . . .
44(4) . . .
38.7(33) . . .
36.4(31) . . .
36.5(32) . . .
38.3(33) . . .
43.8(34) . . .
49(4) . . .
38.6(34) . . .
32.7(30) . . .
44(4) . . .
39.5(33) . . .
35.2(33) . . .
27.4(29) . . .
40(4) . . .
38.8(33) . . .
32.6(30) . . .
48(4) . . .
48(4) . . .
30.8(28) . . .
29.5(28) . . .
34.9(32) . . .
33.9(31) . . .
34.5(32) . . .
40(4) . . .
40(4) . . .
46(4) . . .
45.3(35) . . .
40.0(35) . . .
40(4) . . .
45(4) . . .
39.9(33) . . .
37.3(32) . . .
36.4(32) . . .
37.8(33) . . .
35.3(33) . . .
38.3(33) . . .
35.0(30) . . .
32.7(30) . . .
36.3(33) . . .
46(4) . . .
41.8(35) . . .
48(4) . . .
42(4) . . .
38.6(34) . . .
37.1(34) . . .
44.2(34) . . .
37.1(32) . . .
39(4) . . .
39.1(34) . . .
42.8(35) . . .
37.9(32) . . .
29.8(30) . . .
33.5(32) . . .
37.9(32) . . .
39.1(33) . . .
40.7(33) . . .
44(4) . . .
38(4) . . .
31.1(29) . . .
37.5(32) . . .
29.8(28) . . .
40.8(35) . . .
44(4) . . .
39.7(33) . . .
37.6(33) . . .
40.7(33) . . .
42.1(34) . . .
46(4) . . .
34.8(30) . . .
48(4) . . .
30.6(29) . . .
33.0(31) . . .
34.9(34) . . .
39.3(33) . . .
46(4) . . .
36.4(32) . . .
39.8(34) . . .
40(4) . . .
35.2(32) . . .
41.6(34) . . .
43.8(35) . . .
29.2(28) . . .
35.2(33) . . .
40.9(34) . . .
31.1(29) . . .
33.4(31) . . .
41.5(35) . . .
43(4) . . .
35.8(34) . . .
38.1(33) . . .
34.4(31) . . .
41(4) . . .
43(4) . . .
40.6(35) . . .
45.0(35) . . .
32.6(31) . . .
37.5(32) . . .
38.6(34) . . .
35.5(31) . . .
38.3(32) . . .
34.5(32) . . .
39.1(35) . . .
40(4) . . .
43.4(34) . . .
38.3(32) . . .
36.5(32) . . .
38.9(34) . . .
37.8(33) . . .
31.3(30) . . .
43.2(34) . . .
41(4) . . .
37.4(35) . . .
44(4) . . .
33.7(30) . . .
38.3(33) . . .
35.2(33) . . .
31.0(33) . . .
31.2(31) . . .
34.3(31) . . .
44.8(35) . . .
46(4) . . .
38.8(34) . . .
39.5(34) . . .
31.1(30) . . .
33.1(31) . . .
33.3(31) . . .
43(4) . . .
40.2(34) . . .
40.2(33) . . .
42.6(35) . . .
41(4) . . .
42(4) . . .
40(4) . . .
44.3(35) . . .
49(4) . . .
46(4) . . .
39.7(33) . . .
38.2(34) . . .
48(4) . . .
37.4(33) . . .
39.8(35) . . .
27.8(27) . . .
44(4) . . .
42.8(34) . . .
35.8(32) . . .
39.0(35) . . .
45(4) . . .
47(4) . . .
38.8(32) . . .
44(4) . . .
38(4) . . .
37.1(34) . . .
33.7(31) . . .
40.0(33) . . .
41.8(34) . . .
39.4(33) . . .
40(4) . . .
31.8(31) . . .
37.5(32) . . .
32.7(30) . . .
35.2(33) . . .
39.2(33) . . .
35.2(31) . . .
41.0(34) . . .
33.5(31) . . .
31.5(32) . . .
29.9(29) . . .
33.3(31) . . .
46(4) . . .
38.3(32) . . .
30.4(31) . . .
36.0(33) . . .
41.1(34) . . .
39.9(33) . . .
37.3(33) . . .
43(4) . . .
41.0(34) . . .
37.2(32) . . .
45(4) . . .
32.9(31) . . .
38.4(35) . . .
46(4) . . .
35.5(31) . . .
37.4(32) . . .
34.9(30) . . .
40(4) . . .
36.9(34) . . .
31.5(29) . . .
41.7(34) . . .
40(4) . . .
34.1(31) . . .
46(4) . . .
44.6(35) . . .
31.1(29) . . .
36.7(33) . . .
36.8(33) . . .
33.2(30) . . .
40.3(33) . . .
37.1(32) . . .
40(4) . . .
37.6(33) . . .
38.3(33) . . .
44.3(35) . . .
46(4) . . .
39.4(34) . . .
39.6(34) . . .
41.5(34) . . .
43.9(35) . . .
44(4) . . .
40.4(33) . . .
48(4) . . .
43(4) . . .
42.5(34) . . .
45(4) . . .
42(4) . . .
39.0(32) . . .
40.6(33) . . .
46(4) . . .
39.3(33) . . .
42(4) . . .
42(4) . . .
41.3(33) . . .
32.4(30) . . .
32.3(30) . . .
40(4) . . .
38.1(33) . . .
40.2(33) . . .
35.7(31) . . .
31.6(31) . . .
34.9(32) . . .
40.5(33) . . .
38.0(32) . . .
39.8(32) . . .
35.2(31) . . .
40.7(34) . . .
37.9(32) . . .
43.9(35) . . .
45(4) . . .
47(4) . . .
41.2(35) . . .
46(4) . . .
34.8(31) . . .
37.3(32) . . .
43.5(34) . . .
51(4) . . .
45(4) . . .
38.2(33) . . .
35.9(31) . . .
37.3(35) . . .
30.0(30) . . .
38.6(34) . . .
42.5(34) . . .
36.2(32) . . .
39.7(34) . . .
39.9(33) . . .
38.8(32) . . .
50(4) . . .
38.7(34) . . .
39.0(35) . . .
42.0(34) . . .
43.3(34) . . .
44.0(35) . . .
41(4) . . .
41(4) . . .
33.7(32) . . .
42.9(34) . . .
34.5(31) . . .
36.2(31) . . .
45(4) . . .
39.2(34) . . .
42.0(35) . . .
45(4) . . .
32.6(31) . . .
34.0(33) . . .
39.9(34) . . .
45(4) . . .
31.6(29) . . .
34.3(33) . . .
36.8(34) . . .
34.3(31) . . .
38.6(32) . . .
47(4) . . .
45(4) . . .
36.2(33) . . .
45(4) . . .
38.1(32) . . .
42(4) . . .
45(4) . . .
42(4) . . .
39.4(33) . . .
35.6(31) . . .
42.6(34) . . .
45(4) . . .
40(4) . . .
33.6(30) . . .
33.8(31) . . .
30.0(29) . . .
37.7(33) . . .
39.6(34) . . .
35.4(31) . . .
41.8(34) . . .
39.8(33) . . .
36.2(32) . . .
36.8(35) . . .
40.7(34) . . .
39.9(33) . . .
36.1(31) . . .
42(4) . . .
36.8(32) . . .
33.1(30) . . .
41.4(33) . . .
35.8(33) . . .
38(4) . . .
41.0(33) . . .
38.9(32) . . .
30.8(29) . . .
35.8(32) . . .
34.5(34) . . .
27.9(29) . . .
27.5(27) . . .
43.3(35) . . .
35.7(31) . . .
30.7(29) . . .
37.2(33) . . .
37.1(33) . . .
48(4) . . .
39.4(32) . . .
37.6(34) . . .
41.6(35) . . .
37.4(32) . . .
38.5(33) . . .
34.5(31) . . .
48(4) . . .
49(4) . . .
37.4(32) . . .
35.5(31) . . .
36.5(33) . . .
43(4) . . .
44.6(35) . . .
49(4) . . .
46(4) . . .
40.1(34) . . .
40.3(34) . . .
35.5(31) . . .
36.5(32) . . .
38.1(33) . . .
38.9(33) . . .
37.1(32) . . .
37.1(33) . . .
37.9(32) . . .
36.9(32) . . .
30.3(31) . . .
32.4(31) . . .
33.9(32) . . .
33.6(31) . . .
37.0(33) . . .
41(4) . . .
36.8(34) . . .
32.4(32) . . .
41.0(33) . . .
35.4(32) . . .
36.5(35) . . .
29.5(29) . . .
36.7(34) . . .
39.0(32) . . .
47(4) . . .
44(4) . . .
34.9(32) . . .
37.8(32) . . .
37.1(32) . . .
37.8(34) . . .
36(4) . . .
27.4(28) . . .
34.9(31) . . .
35.8(31) . . .
39.8(34) . . .
31.1(30) . . .
43(4) . . .
32.0(29) . . .
38.5(33) . . .
35.0(32) . . .
32.2(31) . . .
34.3(33) . . .
34.5(30) . . .
52(4) . . .
40.7(35) . . .
28.9(29) . . .
37.7(34) . . .
36.8(32) . . .
39.5(33) . . .
33.6(32) . . .
40(4) . . .
40.5(34) . . .
37.2(32) . . .
39.6(33) . . .
37.4(31) . . .
40.8(35) . . .
34.4(31) . . .
33.7(30) . . .
40.2(34) . . .
45(4) . . .
37.5(32) . . .
41.4(33) . . .
38.7(33) . . .
47(4) . . .
49(4) . . .
28.5(29) . . .
29.4(28) . . .
40.3(33) . . .
47(4) . . .
45(4) . . .
33.8(31) . . .
42.1(34) . . .
50(4) . . .
31.1(30) . . .
36.2(33) . . .
39.2(33) . . .
37.6(32) . . .
36.9(31) . . .
36.5(32) . . .
33.2(32) . . .
37.4(32) . . .
37.4(31) . . .
34.8(31) . . .
35.0(32) . . .
35.8(34) . . .
31.4(31) . . .
34.6(30) . . .
32.9(31) . . .
34.9(31) . . .
39.5(34) . . .
39(4) . . .
38.0(32) . . .
31.5(30) . . .
44(4) . . .
43(4) . . .
42.0(34) . . .
46(4) . . .
34.7(31) . . .
35.7(32) . . .
34.2(31) . . .
33.8(31) . . .
34.5(30) . . .
33.9(31) . . .
29.0(31) . . .
32.8(32) . . .
33.5(30) . . .
39.2(32) . . .
29.6(29) . . .
42(4) . . .
44(4) . . .
38.9(33) . . .
38.2(33) . . .
37.8(32) . . .
40.6(35) . . .
44(4) . . .
38.9(33) . . .
42.0(34) . . .
38.0(32) . . .
37.1(33) . . .
37.6(33) . . .
31.1(29) . . .
37.5(32) . . .
40.2(33) . . .
39.7(33) . . .
34.8(31) . . .
33.7(30) . . .
37.0(31) . . .
41.1(34) . . .
39.4(34) . . .
39.3(35) . . .
38.6(33) . . .
36.6(31) . . .
46(4) . . .
37.2(33) . . .
42(4) . . .
34.4(30) . . .
36.5(31) . . .
33.4(31) . . .
34.0(31) . . .
44(4) . . .
44.0(35) . . .
49(4) . . .
39.3(34) . . .
33.8(31) . . .
36.8(34) . . .
48(4) . . .
36.8(32) . . .
37.3(33) . . .
37.5(33) . . .
36.5(34) . . .
36.7(32) . . .
38.5(33) . . .
30.3(29) . . .
32.2(30) . . .
47(4) . . .
36.9(32) . . .
43(4) . . .
32.0(30) . . .
31.8(31) . . .
34.0(32) . . .
35.5(30) . . .
34.8(31) . . .
46(4) . . .
40.3(33) . . .
54(4) . . .
32.4(32) . . .
41.3(35) . . .
39.6(34) . . .
34.0(30) . . .
38.1(32) . . .
42.4(34) . . .
32.9(30) . . .
26.7(27) . . .
31.5(30) . . .
38.8(33) . . .
32.8(30) . . .
51(4) . . .
44(4) . . .
45(4) . . .
36.1(32) . . .
41.5(33) . . .
44(4) . . .
36.1(34) . . .
33.9(33) . . .
43.8(35) . . .
40.7(33) . . .
36.0(33) . . .
38(4) . . .
34.5(32) . . .
35.2(31) . . .
34.6(31) . . .
28.0(28) . . .
35.2(33) . . .
37.9(34) . . .
32.2(29) . . .
38.7(34) . . .
37.6(33) . . .
32.3(31) . . .
42(4) . . .
45(4) . . .
37.8(32) . . .
37.2(33) . . .
37.3(35) . . .
40.2(34) . . .
34.7(31) . . .
28.3(27) . . .
41(4) . . .
33.0(32) . . .
30.6(29) . . .
31.8(29) . . .
37.5(34) . . .
40(4) . . .
38.3(34) . . .
38.4(33) . . .
33.5(30) . . .
37.7(33) . . .
30.4(30) . . .
27.7(29) . . .
37.9(34) . . .
36.5(32) . . .
31.6(31) . . .
36.7(33) . . .
38.8(33) . . .
37.1(32) . . .
36.4(31) . . .
37(4) . . .
32.0(30) . . .
34.1(31) . . .
45(4) . . .
40.1(33) . . .
36.0(31) . . .
41(4) . . .
39.7(34) . . .
28.7(27) . . .
38.3(32) . . .
35.9(32) . . .
35.5(35) . . .
33.5(33) . . .
40.7(33) . . .
33.5(31) . . .
26.1(26) . . .
39.0(35) . . .
34.5(33) . . .
36.6(32) . . .
31.2(30) . . .
42(4) . . .
37.0(33) . . .
29.5(28) . . .
43.3(34) . . .
30.7(29) . . .
40(4) . . .
37.5(33) . . .
42.0(34) . . .
38.1(32) . . .
41.0(35) . . .
33.6(31) . . .
42(4) . . .
40.9(34) . . .
37.3(32) . . .
39.5(34) . . .
36.7(32) . . .
39.6(34) . . .
36.3(32) . . .
40.4(33) . . .
33.0(31) . . .
35.5(31) . . .
35.6(30) . . .
34.8(31) . . .
29.9(29) . . .
31.3(29) . . .
32.9(31) . . .
39(4) . . .
40.3(34) . . .
40.3(33) . . .
37.6(34) . . .
33.8(32) . . .
44(4) . . .
43.5(34) . . .
40.3(33) . . .
32.3(30) . . .
38.2(32) . . .
36.0(31) . . .
34.4(30) . . .
33.5(30) . . .
25.9(28) . . .
43(4) . . .
35.9(32) . . .
38.6(32) . . .
31.4(30) . . .
33.8(33) . . .
36.1(34) . . .
35.1(32) . . .
43.6(34) . . .
31.6(29) . . .
35.5(30) . . .
37.8(33) . . .
43(4) . . .
36.5(32) . . .
33.1(30) . . .
34.1(31) . . .
37.1(34) . . .
30.8(31) . . .
42.7(35) . . .
43.5(34) . . .
42(4) . . .
38.4(35) . . .
45(4) . . .
46.5(35) . . .
41.4(34) . . .
34.6(32) . . .
34.0(31) . . .
32.9(30) . . .
38.5(32) . . .
46(4) . . .
35.7(34) . . .
28.5(29) . . .
37.7(33) . . .
28.7(28) . . .
34.3(31) . . .
40.3(35) . . .
37.3(34) . . .
28.4(27) . . .
33.1(30) . . .
35.5(32) . . .
41(4) . . .
34.3(33) . . .
33.6(31) . . .
34.0(30) . . .
33.0(31) . . .
31.1(30) . . .
33.4(32) . . .
41.5(33) . . .
40.2(33) . . .
41.0(34) . . .
48(4) . . .
36.6(33) . . .
35.5(31) . . .
37.2(31) . . .
36.7(31) . . .
37.6(34) . . .
31.1(32) . . .
35.7(31) . . .
36.6(32) . . .
39.1(35) . . .
33.4(32) . . .
38.5(33) . . .
40.6(33) . . .
36.1(31) . . .
38.2(32) . . .
36.0(33) . . .
31.1(32) . . .
36.5(31) . . .
52(4) . . .
45(4) . . .
37.6(33) . . .
46(4) . . .
37.0(32) . . .
33.7(30) . . .
31.6(29) . . .
41.1(35) . . .
43.7(34) . . .
36.6(32) . . .
37.3(34) . . .
41.9(34) . . .
43(4) . . .
36.9(32) . . .
45.3(35) . . .
34.8(32) . . .
40.8(35) . . .
44(4) . . .
27.9(27) . . .
35.6(31) . . .
31.8(33) . . .
30.9(31) . . .
37.8(34) . . .
37.5(32) . . .
35.1(32) . . .
39.1(33) . . .
34.2(32) . . .
34.5(30) . . .
37.6(32) . . .
38.5(32) . . .
29.3(28) . . .
43(4) . . .
29.9(31) . . .
30.0(29) . . .
40.0(33) . . .
37.1(32) . . .
41(4) . . .
36.5(32) . . .
38.0(32) . . .
34.1(31) . . .
33.8(30) . . .
38.5(34) . . .
36.9(34) . . .
47(4) . . .
42.6(34) . . .
40.8(35) . . .
36.8(34) . . .
36.7(32) . . .
35.3(30) . . .
36.8(32) . . .
42.4(35) . . .
40(4) . . .
41.2(34) . . .
36.5(31) . . .
36.0(32) . . .
41(4) . . .
42.1(35) . . .
32.1(30) . . .
30.4(29) . . .
38.1(33) . . .
33.6(30) . . .
35.2(32) . . .
26.7(27) . . .
30.5(29) . . .
32.7(30) . . .
40.0(32) . . .
34.6(31) . . .
32.3(29) . . .
37.9(32) . . .
38.1(33) . . .
31.6(31) . . .
32.3(33) . . .
37.7(32) . . .
36.9(32) . . .
35.3(32) . . .
31.8(31) . . .
29.0(28) . . .
33.4(30) . . .
35.5(31) . . .
38.4(33) . . .
28.7(29) . . .
36.2(34) . . .
27.4(27) . . .
32.5(31) . . .
39.5(34) . . .
33.5(33) . . .
37.2(33) . . .
36.6(32) . . .
25.0(26) . . .
27.8(28) . . .
31.2(31) . . .
29.8(29) . . .
31.6(29) . . .
44(4) . . .
40.2(35) . . .
46(4) . . .
43.0(35) . . .
34.0(31) . . .
37.8(33) . . .
39.0(35) . . .
29.3(29) . . .
34.7(32) . . .
36.4(31) . . .
41.0(35) . . .
32.1(29) . . .
33.4(33) . . .
32.3(31) . . .
32.7(30) . . .
33.8(32) . . .
32.5(30) . . .
39(4) . . .
42(4) . . .
29.2(29) . . .
40(4) . . .
34.1(32) . . .
32.7(31) . . .
32.3(29) . . .
33.7(30) . . .
34.8(33) . . .
37.7(34) . . .
35.2(31) . . .
31.2(30) . . .
39.6(33) . . .
29.8(27) . . .
35.8(33) . . .
34.1(31) . . .
35.4(31) . . .
39.9(33) . . .
44.7(35) . . .
39.2(34) . . .
37.2(33) . . .
25.5(26) . . .
27.0(28) . . .
44(4) . . .
44(4) . . .
44(4) . . .
46(4) . . .
34.1(31) . . .
25.9(27) . . .
35.3(34) . . .
44.7(34) . . .
41.3(34) . . .
28.9(29) . . .
34.8(32) . . .
47(4) . . .
44(4) . . .
36.7(31) . . .
36.8(31) . . .
33.9(30) . . .
43(4) . . .
37.5(33) . . .
46(4) . . .
36.3(31) . . .
27.8(28) . . .
37.1(35) . . .
32.0(32) . . .
37.4(31) . . .
43(4) . . .
31.3(31) . . .
47(4) . . .
38.7(33) . . .
39.7(33) . . .
38(4) . . .
37.8(34) . . .
40.0(33) . . .
37.5(32) . . .
38.8(33) . . .
37.3(33) . . .
32.9(32) . . .
38.3(33) . . .
42.5(34) . . .
40.0(33) . . .
31.4(33) . . .
35.4(34) . . .
38(4) . . .
33.4(30) . . .
43.8(34) . . .
43(4) . . .
40(4) . . .
32.5(30) . . .
31.8(30) . . .
28.5(28) . . .
32.8(30) . . .
36.4(33) . . .
38.1(34) . . .
29.0(28) . . .
34.5(31) . . .
35.2(35) . . .
30.2(33) . . .
31.7(31) . . .
29.7(28) . . .
42.7(34) . . .
39(4) . . .
27.0(27) . . .
36.3(33) . . .
39.1(33) . . .
35.9(32) . . .
40(4) . . .
37(4) . . .
29.9(31) . . .
32.0(30) . . .
37.7(32) . . .
26.0(27) . . .
29.7(29) . . .
38.5(33) . . .
33.0(30) . . .
39.8(33) . . .
38.9(34) . . .
35.3(33) . . .
40(4) . . .
36.8(31) . . .
34.5(32) . . .
35.3(32) . . .
32.5(31) . . .
35.1(33) . . .
38.4(32) . . .
37.5(33) . . .
41(4) . . .
35.1(32) . . .
32.4(30) . . .
33.4(30) . . .
41.8(34) . . .
40.2(35) . . .
43(4) . . .
39.5(34) . . .
33.7(30) . . .
35.3(33) . . .
38.9(35) . . .
40.2(33) . . .
36.6(31) . . .
34.8(30) . . .
38.0(34) . . .
41(4) . . .
30.3(30) . . .
30.1(29) . . .
33.1(30) . . .
27.7(27) . . .
37.8(34) . . .
37.0(35) . . .
40.5(33) . . .
36.6(32) . . .
39.7(34) . . .
34.4(34) . . .
31.2(30) . . .
35.1(32) . . .
36.7(31) . . .
37.4(33) . . .
34.6(32) . . .
32.0(31) . . .
32.8(29) . . .
32.6(30) . . .
35.9(32) . . .
38.4(33) . . .
38.7(34) . . .
35.3(31) . . .
38.8(34) . . .
36.1(33) . . .
48(4) . . .
35.5(31) . . .
37.7(32) . . .
34.2(32) . . .
30.2(30) . . .
34.5(32) . . .
39.1(35) . . .
38.5(32) . . .
32.8(30) . . .
37.7(33) . . .
45(4) . . .
34.9(33) . . .
29.5(28) . . .
34.1(31) . . .
26.5(29) . . .
35.8(33) . . .
39.1(33) . . .
34.1(30) . . .
36.2(33) . . .
26.6(27) . . .
33.9(32) . . .
39.1(33) . . .
37.9(31) . . .
32.0(30) . . .
30.2(29) . . .
32.6(31) . . .
32.4(29) . . .
23.9(26) . . .
27.6(29) . . .
25.6(27) . . .
42(4) . . .
36.1(31) . . .
42.8(35) . . .
44(4) . . .
43(4) . . .
36.3(32) . . .
32.5(30) . . .
34.8(31) . . .
37.8(33) . . .
45(4) . . .
39.3(34) . . .
29.8(29) . . .
30.7(30) . . .
40.2(35) . . .
36.1(33) . . .
40.1(34) . . .
37.8(32) . . .
39.5(34) . . .
34.8(33) . . .
30.1(30) . . .
31.1(29) . . .
38.6(32) . . .
40.9(34) . . .
44(4) . . .
33.4(34) . . .
34.0(30) . . .
33.3(31) . . .
40.2(35) . . .
41(4) . . .
47(4) . . .
41.0(34) . . .
32.7(30) . . .
38.8(34) . . .
34.2(34) . . .
32.3(31) . . .
33.8(31) . . .
30.5(29) . . .
36.7(33) . . .
37.3(33) . . .
28.7(29) . . .
32.7(30) . . .
46(4) . . .
32.0(30) . . .
36.5(35) . . .
29.6(29) . . .
33.6(31) . . .
34.4(30) . . .
38.3(34) . . .
36.8(33) . . .
39.8(33) . . .
39.8(32) . . .
35.5(32) . . .
33.8(31) . . .
30.1(32) . . .
32.1(32) . . .
37.0(32) . . .
29.8(29) . . .
33.6(30) . . .
42(4) . . .
35.9(32) . . .
37.3(32) . . .
37.3(33) . . .
34.1(30) . . .
34.6(31) . . .
34.5(32) . . .
37.6(32) . . .
39.4(33) . . .
49(4) . . .
41.2(35) . . .
38.1(32) . . .
33.6(31) . . .
34.2(31) . . .
35.5(32) . . .
36.8(34) . . .
28.8(28) . . .
29.6(28) . . .
28.6(29) . . .
34.7(32) . . .
37.5(33) . . .
32.5(31) . . .
37.9(33) . . .
39.2(33) . . .
35.5(32) . . .
33.2(33) . . .
36.9(33) . . .
35.6(31) . . .
39.4(33) . . .
33.1(32) . . .
24.5(26) . . .
39.4(33) . . .
34.5(30) . . .
34.1(32) . . .
34.8(32) . . .
34.8(32) . . .
33.0(30) . . .
40.1(33) . . .
36.0(31) . . .
37.7(33) . . .
36.5(31) . . .
35.1(30) . . .
30.2(29) . . .
33.6(33) . . .
37.6(34) . . .
48(4) . . .
38.3(32) . . .
40.9(33) . . .
38.5(34) . . .
41(4) . . .
39.1(33) . . .
40.5(33) . . .
36.1(31) . . .
47(4) . . .
38(4) . . .
36.2(32) . . .
36.7(32) . . .
32.9(31) . . .
32.3(29) . . .
33.3(30) . . .
29.2(30) . . .
32.5(29) . . .
35.7(31) . . .
40(4) . . .
28.0(30) . . .
28.3(31) . . .
31.7(30) . . .
28.8(28) . . .
35.8(33) . . .
28.3(29) . . .
28.6(28) . . .
34.8(31) . . .
37.3(32) . . .
37.7(34) . . .
34.1(31) . . .
35.8(32) . . .
41.2(33) . . .
44(4) . . .
35.7(33) . . .
35.2(33) . . .
35.3(31) . . .
30.6(29) . . .
34.4(31) . . .
32.6(32) . . .
36.5(34) . . .
42.2(35) . . .
34.6(30) . . .
45(4) . . .
29.4(30) . . .
30.2(30) . . .
31.9(29) . . .
33.4(30) . . .
37.5(33) . . .
46(4) . . .
36.9(33) . . .
32.0(30) . . .
46(4) . . .
40.0(35) . . .
35.4(31) . . .
39.4(34) . . .
39.6(33) . . .
32.7(30) . . .
36.4(33) . . .
36(4) . . .
40(4) . . .
43.4(34) . . .
38.9(32) . . .
35.2(33) . . .
37.4(33) . . .
41(4) . . .
33.9(31) . . .
31.3(29) . . .
34(4) . . .
27.4(31) . . .
30.8(30) . . .
31.5(29) . . .
31.4(30) . . .
42.9(35) . . .
37.4(33) . . .
46(4) . . .
35.6(31) . . .
35.0(31) . . .
37.3(34) . . .
30.4(30) . . .
36.3(31) . . .
35.2(30) . . .
37.0(33) . . .
36.7(32) . . .
29.0(28) . . .
32.5(31) . . .
33.8(31) . . .
29.5(28) . . .
35.9(33) . . .
33.0(31) . . .
28.6(28) . . .
30.7(28) . . .
28.6(28) . . .
40(4) . . .
35.9(31) . . .
40.3(33) . . .
40.1(34) . . .
39.1(35) . . .
41(4) . . .
38.0(33) . . .
41.4(33) . . .
40.7(34) . . .
36.3(33) . . .
28.3(29) . . .
32.6(31) . . .
40.5(33) . . .
42.4(34) . . .
43(4) . . .
36.3(33) . . .
37.6(34) . . .
33.6(30) . . .
34.1(32) . . .
36.3(34) . . .
36.9(33) . . .
37.2(33) . . .
30.6(30) . . .
41.5(35) . . .
35.2(31) . . .
31.8(31) . . .
32.9(31) . . .
38.6(33) . . .
37.8(33) . . .
29.2(30) . . .
27.3(29) . . .
32.6(30) . . .
34.7(31) . . .
40.9(34) . . .
35.5(32) . . .
33.8(31) . . .
35.9(31) . . .
37.0(31) . . .
34.8(32) . . .
38.5(34) . . .
41.9(34) . . .
34.0(30) . . .
44.3(34) . . .
39.3(33) . . .
47(4) . . .
29.3(28) . . .
32.5(30) . . .
36.1(31) . . .
36.6(34) . . .
32.9(32) . . .
30.5(28) . . .
36.8(32) . . .
39.0(34) . . .
36.8(33) . . .
35(4) . . .
35.0(32) . . .
38.0(32) . . .
21.1(24) . . .
28.3(31) . . .
35(4) . . .
36.8(33) . . .
38.4(32) . . .
42.1(34) . . .
33.3(31) . . .
26.4(28) . . .
32.9(30) . . .
34.0(30) . . .
32.5(31) . . .
34.5(33) . . .
34.9(33) . . .
31.6(30) . . .
27.9(27) . . .
35.0(33) . . .
42(4) . . .
35.1(31) . . .
32.0(29) . . .
35.4(31) . . .
42.9(34) . . .
34.9(32) . . .
33.8(31) . . .
35.1(30) . . .
34.4(31) . . .
32.7(30) . . .
41(4) . . .
41.7(34) . . .
42.4(33) . . .
41.3(34) . . .
39.4(35) . . .
36.1(32) . . .
41.9(34) . . .
35.9(32) . . .
38.4(32) . . .
31.1(31) . . .
31.4(31) . . .
32.5(31) . . .
37.3(32) . . .
33.4(31) . . .
33.5(31) . . .
38.0(35) . . .
29.8(29) . . .
30.0(29) . . .
45(4) . . .
38.1(33) . . .
35.0(32) . . .
32.3(30) . . .
33.4(30) . . .
29.9(28) . . .
28.8(30) . . .
39(4) . . .
37.2(33) . . .
36.4(31) . . .
34.9(31) . . .
43.6(33) . . .
37.5(34) . . .
43(4) . . .
43.4(34) . . .
32.9(31) . . .
34.2(31) . . .
49(4) . . .
31.1(31) . . .
34.3(31) . . .
33.4(30) . . .
35.7(35) . . .
36.1(33) . . .
47(4) . . .
36.3(32) . . .
29.3(28) . . .
44(4) . . .
43(4) . . .
33.5(30) . . .
35.1(31) . . .
34.8(32) . . .
37.0(33) . . .
32.0(31) . . .
42(4) . . .
39.1(32) . . .
37.2(33) . . .
38.4(34) . . .
40(4) . . .
39.6(34) . . .
38.3(32) . . .
33.6(30) . . .
41(4) . . .
40.0(33) . . .
31.6(29) . . .
36.4(32) . . .
26.7(29) . . .
29.5(28) . . .
41(4) . . .
31.9(29) . . .
39.0(33) . . .
33.0(29) . . .
32.2(32) . . .
30.1(29) . . .
36.1(32) . . .
34.1(31) . . .
36.2(32) . . .
36.1(34) . . .
36.3(31) . . .
31.1(29) . . .
33.3(32) . . .
24.7(26) . . .
31.0(30) . . .
38.7(33) . . .
37.8(32) . . .
36.9(32) . . .
34.7(33) . . .
35.2(33) . . .
31.1(29) . . .
37.0(32) . . .
35.6(33) . . .
33.5(31) . . .
41(4) . . .
36.7(34) . . .
35.5(31) . . .
33.2(30) . . .
30.6(31) . . .
26.3(29) . . .
31.5(30) . . .
33.7(31) . . .
39.3(35) . . .
41(4) . . .
27.5(28) . . .
32.3(30) . . .
36.3(32) . . .
32.0(30) . . .
34.4(33) . . .
26.6(29) . . .
40.8(35) . . .
36.1(32) . . .
41(4) . . .
35.4(32) . . .
34.5(32) . . .
37.2(31) . . .
32.2(30) . . .
33.7(31) . . .
30.8(29) . . .
41.0(34) . . .
35.0(30) . . .
28.8(28) . . .
41.8(35) . . .
30.2(31) . . .
33.8(32) . . .
32.2(30) . . .
36.0(32) . . .
39(4) . . .
28.5(28) . . .
45(4) . . .
47(4) . . .
38.3(32) . . .
39.3(33) . . .
44(4) . . .
32.0(30) . . .
40.6(33) . . .
37.4(34) . . .
27.7(27) . . .
30.0(30) . . .
39.3(35) . . .
29.5(28) . . .
28.5(28) . . .
34.8(33) . . .
39(4) . . .
33.7(31) . . .
35.0(31) . . .
38.0(32) . . .
34.2(32) . . .
45(4) . . .
37.2(33) . . .
31.2(29) . . .
42(4) . . .
34.3(31) . . .
27.0(27) . . .
28.0(28) . . .
37.7(32) . . .
30.8(29) . . .
32.4(31) . . .
46(4) . . .
35.8(31) . . .
27.2(28) . . .
37.0(32) . . .
40.8(33) . . .
37.0(32) . . .
37.3(32) . . .
47(4) . . .
34.1(31) . . .
39(4) . . .
30.9(30) . . .
38.1(32) . . .
33.0(30) . . .
35.3(34) . . .
39.0(35) . . .
31.8(30) . . .
35.3(32) . . .
39.0(32) . . .
34.3(32) . . .
35.5(32) . . .
41(4) . . .
37.1(32) . . .
35.4(31) . . .
39.0(34) . . .
33.6(32) . . .
33.9(33) . . .
32.7(31) . . .
31.5(29) . . .
31.8(30) . . .
42(4) . . .
41.2(34) . . .
30.6(29) . . .
36.9(32) . . .
35.8(32) . . .
39.6(33) . . .
50(4) . . .
30.1(29) . . .
33.2(30) . . .
30.2(30) . . .
41(4) . . .
30.0(29) . . .
38.9(32) . . .
34.9(31) . . .
46(4) . . .
34.1(32) . . .
28.9(28) . . .
37.6(32) . . .
27.4(27) . . .
30.8(30) . . .
38.1(34) . . .
37(4) . . .
42.9(34) . . .
31.0(30) . . .
40.4(34) . . .
43(4) . . .
40.6(34) . . .
42.0(34) . . .
31.1(29) . . .
33.6(33) . . .
43(4) . . .
40.3(33) . . .
29.5(28) . . .
33.0(30) . . .
29.1(29) . . .
39.3(34) . . .
29.4(28) . . .
30.4(29) . . .
38.0(32) . . .
33.4(30) . . .
36.7(34) . . .
36.1(31) . . .
28.4(28) . . .
29.5(28) . . .
27.2(27) . . .
37.8(34) . . .
33.7(30) . . .
28.0(28) . . .
35.0(31) . . .
34.0(31) . . .
37.2(34) . . .
30.7(30) . . .
31.0(30) . . .
33.2(32) . . .
41(4) . . .
33.6(31) . . .
32.2(30) . . .
38.6(32) . . .
41(4) . . .
34.8(32) . . .
32.3(30) . . .
38.8(32) . . .
30.4(31) . . .
44(4) . . .
30.4(30) . . .
24.2(27) . . .
33.1(30) . . .
39.5(34) . . .
36.2(33) . . .
35.0(32) . . .
38.5(32) . . .
35.7(32) . . .
35.7(32) . . .
35.3(34) . . .
37(4) . . .
31.0(29) . . .
27.0(28) . . .
39.7(34) . . .
42(4) . . .
38.5(33) . . .
31.2(28) . . .
38.9(33) . . .
39.6(34) . . .
36.0(33) . . .
38.4(33) . . .
31.1(29) . . .
32.2(29) . . .
42(4) . . .
30.8(29) . . .
39.3(34) . . .
33.8(30) . . .
35.0(31) . . .
33.4(30) . . .
35.0(33) . . .
34.3(33) . . .
36.2(31) . . .
32.1(30) . . .
34.5(32) . . .
34.8(32) . . .
31.3(33) . . .
27.7(27) . . .
44(4) . . .
34.0(31) . . .
30.3(30) . . .
39.2(34) . . .
43.6(34) . . .
33.8(31) . . .
33.7(31) . . .
30.2(29) . . .
33.2(31) . . .
42.4(34) . . .
29.8(28) . . .
31.3(31) . . .
25.6(28) . . .
29.3(29) . . .
38.0(32) . . .
34.9(32) . . .
33.9(31) . . .
36.4(34) . . .
35.3(31) . . .
34.7(31) . . .
38.3(32) . . .
36.0(33) . . .
35.1(31) . . .
37.1(32) . . .
32.5(30) . . .
27.5(28) . . .
39(4) . . .
29.5(29) . . .
31.9(29) . . .
39.2(33) . . .
36.1(33) . . .
31.8(32) . . .
34.7(33) . . .
34.8(31) . . .
28.9(28) . . .
31.7(30) . . .
35.7(34) . . .
30.9(29) . . .
27.7(28) . . .
35.5(31) . . .
36.0(32) . . .
35.0(34) . . .
23.6(27) . . .
32.6(30) . . .
38.9(33) . . .
33.1(30) . . .
33.1(31) . . .
31.3(30) . . .
42.4(34) . . .
37.3(32) . . .
33.8(32) . . .
32.6(33) . . .
29.7(30) . . .
32.4(30) . . .
30.8(29) . . .
29.0(29) . . .
34.9(33) . . .
37.7(34) . . .
30.8(30) . . .
32.3(30) . . .
38.1(34) . . .
34.9(32) . . .
38.1(33) . . .
37.6(32) . . .
30.3(29) . . .
37.2(32) . . .
33.4(30) . . .
38.4(33) . . .
36.3(31) . . .
42(4) . . .
35.8(34) . . .
38(4) . . .
35.7(32) . . .
31.0(29) . . .
45(4) . . .
34.8(32) . . .
36.1(32) . . .
30.9(29) . . .
28.7(28) . . .
36.3(32) . . .
32.5(30) . . .
36.0(32) . . .
37.1(33) . . .
34.2(30) . . .
34.8(31) . . .
29.8(28) . . .
32.5(31) . . .
37.8(32) . . .
33.7(30) . . .
31.0(30) . . .
29.7(32) . . .
31.8(30) . . .
37.1(31) . . .
34.0(30) . . .
41(4) . . .
37(4) . . .
28.7(28) . . .
37.4(32) . . .
34.1(31) . . .
43(4) . . .
29.0(30) . . .
33.0(31) . . .
38.6(33) . . .
44(4) . . .
31.6(30) . . .
23.7(26) . . .
38(4) . . .
29.5(29) . . .
29.0(31) . . .
31.8(33) . . .
37.1(34) . . .
37.8(34) . . .
36.5(31) . . .
39.3(33) . . .
34.6(32) . . .
36.9(33) . . .
38.1(34) . . .
22.9(26) . . .
28.2(28) . . .
32.7(31) . . .
34.6(32) . . .
41.3(34) . . .
33.1(30) . . .
33.5(31) . . .
34.5(31) . . .
30.9(29) . . .
38.7(34) . . .
40.1(32) . . .
41.1(35) . . .
35.8(33) . . .
29.8(31) . . .
30.0(28) . . .
30.4(29) . . .
32.0(31) . . .
39(4) . . .
36.6(34) . . .
29.2(28) . . .
41.2(34) . . .
38.1(33) . . .
34.5(31) . . .
34.3(32) . . .
32.6(29) . . .
35.3(30) . . .
39.1(34) . . .
36.5(34) . . .
37.3(33) . . .
34.6(31) . . .
39.2(33) . . .
39.0(34) . . .
36(4) . . .
39(4) . . .
36.5(31) . . .
40.7(34) . . .
35.7(33) . . .
34.0(33) . . .
30.2(29) . . .
38.7(32) . . .
35.0(32) . . .
32.4(30) . . .
30.7(29) . . .
35.6(32) . . .
34.8(31) . . .
35.7(31) . . .
32.0(31) . . .
34.4(31) . . .
31.4(29) . . .
36.6(32) . . .
31.9(30) . . .
33.5(34) . . .
34.7(33) . . .
38.9(32) . . .
35.8(31) . . .
35.9(34) . . .
29.6(30) . . .
28.6(28) . . .
34.7(32) . . .
33.3(31) . . .
40(4) . . .
35.2(32) . . .
34.2(33) . . .
26.7(27) . . .
36.5(32) . . .
25.7(28) . . .
42(4) . . .
37.9(32) . . .
32.9(29) . . .
35.2(33) . . .
36.2(33) . . .
34.0(33) . . .
27.4(26) . . .
35.3(31) . . .
29.4(29) . . .
34.6(32) . . .
32.3(32) . . .
29.1(29) . . .
38.6(33) . . .
33.0(30) . . .
42(4) . . .
35.5(33) . . .
32.1(29) . . .
35.3(31) . . .
32.7(31) . . .
32.6(32) . . .
27.8(29) . . .
38.3(33) . . .
31.4(30) . . .
28.1(27) . . .
35.1(30) . . .
41.8(34) . . .
30.5(28) . . .
28.5(27) . . .
36.7(33) . . .
37.0(33) . . .
42(4) . . .
38.1(33) . . .
33.4(30) . . .
30.7(30) . . .
31.8(30) . . .
37.1(33) . . .
35.7(32) . . .
24.9(26) . . .
28.6(29) . . .
42(4) . . .
33.0(31) . . .
27.4(27) . . .
34.2(30) . . .
39(4) . . .
28.7(30) . . .
25.5(28) . . .
34.1(31) . . .
29.5(29) . . .
33.8(30) . . .
34.1(31) . . .
33.0(30) . . .
37.7(31) . . .
37.0(32) . . .
39.7(34) . . .
38(4) . . .
36.7(33) . . .
36.8(32) . . .
31.7(29) . . .
40.0(35) . . .
31.1(31) . . .
35.6(31) . . .
30.7(30) . . .
26.6(26) . . .
42(4) . . .
35.6(34) . . .
30.4(29) . . .
35.5(31) . . .
36.2(32) . . .
29.4(29) . . .
38(4) . . .
34.3(35) . . .
34.2(31) . . .
37.7(32) . . .
33.0(32) . . .
33.4(33) . . .
32.6(30) . . .
33.9(31) . . .
35.0(31) . . .
40(4) . . .
29.7(30) . . .
34.2(33) . . .
30.5(29) . . .
29.6(29) . . .
43(4) . . .
36.6(33) . . .
35.8(34) . . .
29.6(28) . . .
40.2(34) . . .
29.5(28) . . .
34.8(31) . . .
29.9(28) . . .
35.2(31) . . .
35.2(32) . . .
36.8(32) . . .
37.6(35) . . .
42.2(34) . . .
41.7(34) . . .
32.9(31) . . .
36.1(33) . . .
33.1(30) . . .
36.4(31) . . .
32.8(30) . . .
31.9(31) . . .
32.7(33) . . .
43(4) . . .
40.0(35) . . .
29.7(28) . . .
37.9(32) . . .
25.4(28) . . .
30.5(29) . . .
35.0(31) . . .
32.4(30) . . .
32.2(29) . . .
35.0(33) . . .
29.6(28) . . .
36.9(32) . . .
34.8(32) . . .
30.4(29) . . .
35.4(32) . . .
44(4) . . .
38.2(32) . . .
31.0(29) . . .
26.6(27) . . .
32.0(33) . . .
36.3(34) . . .
29.6(28) . . .
38.5(32) . . .
42.5(34) . . .
36.7(33) . . .
31.6(30) . . .
23.9(25) . . .
31.7(31) . . .
30.8(30) . . .
38.8(34) . . .
33.2(30) . . .
27.6(28) . . .
36.6(33) . . .
37.4(34) . . .
30.2(29) . . .
37.4(32) . . .
48(4) . . .
30.4(29) . . .
34.2(31) . . .
39.0(33) . . .
36.7(31) . . .
31.8(30) . . .
38.1(34) . . .
24.9(28) . . .
31.8(31) . . .
28.7(29) . . .
21.7(24) . . .
32.9(31) . . .
39(4) . . .
33.3(31) . . .
31.6(29) . . .
30.1(29) . . .
38.1(33) . . .
33.7(34) . . .
41(4) . . .
26.6(29) . . .
32.9(30) . . .
37.9(33) . . .
27.9(29) . . .
29.0(31) . . .
39.7(33) . . .
33.7(32) . . .
33.2(31) . . .
32.5(31) . . .
27.4(28) . . .
39.3(33) . . .
31.4(29) . . .
45(4) . . .
33.1(31) . . .
37.3(32) . . .
35.5(32) . . .
41.1(33) . . .
33.0(30) . . .
33.5(32) . . .
29.6(30) . . .
39.6(32) . . .
38.2(33) . . .
48(4) . . .
34.0(30) . . .
31.5(29) . . .
46(4) . . .
31.9(30) . . .
41(4) . . .
37.2(33) . . .
29.2(28) . . .
35.9(31) . . .
26.8(28) . . .
28.5(29) . . .
35.5(32) . . .
32.2(30) . . .
29.9(28) . . .
35.2(33) . . .
34.4(33) . . .
35.1(31) . . .
38.9(34) . . .
35.7(31) . . .
33.2(31) . . .
36(4) . . .
28.5(28) . . .
34.5(31) . . .
38.5(32) . . .
33.1(31) . . .
39(4) . . .
35.4(31) . . .
32.7(29) . . .
38.9(33) . . .
32.5(30) . . .
36.5(34) . . .
30.9(30) . . .
30.1(29) . . .
32.0(29) . . .
31.3(29) . . .
39.8(35) . . .
33.4(30) . . .
41.1(33) . . .
33.8(33) . . .
38.6(34) . . .
36.6(32) . . .
36.7(32) . . .
30.3(28) . . .
32.0(30) . . .
28.4(28) . . .
41(4) . . .
32.8(30) . . .
32.8(30) . . .
42.7(34) . . .
34.0(30) . . .
34.3(31) . . .
30.0(29) . . .
32.3(30) . . .
43.2(34) . . .
40.3(34) . . .
38.5(34) . . .
34.4(30) . . .
27.7(28) . . .
26.9(27) . . .
29.6(31) . . .
38.5(34) . . .
30.0(28) . . .
33.2(30) . . .
36.5(33) . . .
26.5(29) . . .
36.2(34) . . .
31.5(30) . . .
33.2(30) . . .
34.3(31) . . .
31.1(30) . . .
29.5(28) . . .
29.4(28) . . .
41.5(33) . . .
39.0(33) . . .
40(4) . . .
21.6(25) . . .
28.0(28) . . .
29.5(29) . . .
31.8(29) . . .
35.2(32) . . .
27.2(28) . . .
32.8(31) . . .
26.7(27) . . .
32.8(30) . . .
34.1(34) . . .
36(4) . . .
34.6(30) . . .
30.9(29) . . .
39.3(33) . . .
36.3(33) . . .
37.0(35) . . .
30.5(29) . . .
27.8(28) . . .
34.1(31) . . .
31.8(29) . . .
31.4(30) . . .
36.6(31) . . .
32.0(29) . . .
38(4) . . .
30.7(32) . . .
39.0(34) . . .
38.8(32) . . .
36.7(31) . . .
30.8(28) . . .
31.1(28) . . .
36.4(33) . . .
34.1(31) . . .
34.0(30) . . .
28.1(27) . . .
36.2(34) . . .
36.1(33) . . .
33.6(30) . . .
34.2(32) . . .
31.6(29) . . .
41(4) . . .
30.5(29) . . .
30.7(29) . . .
32.3(31) . . .
34.4(32) . . .
34.7(31) . . .
37.4(32) . . .
39.5(33) . . .
39.3(32) . . .
36.3(34) . . .
37.5(33) . . .
33.9(30) . . .
33.8(30) . . .
33.8(31) . . .
30.9(32) . . .
30.3(30) . . .
30.4(29) . . .
34.8(32) . . .
31.2(30) . . .
41(4) . . .
36.2(34) . . .
33.4(30) . . .
32.9(31) . . .
28.4(29) . . .
28.8(30) . . .
33.3(31) . . .
31.7(29) . . .
33.1(31) . . .
29.2(29) . . .
32.2(34) . . .
31.7(32) . . .
38.0(32) . . .
27.1(28) . . .
30.6(30) . . .
31.6(30) . . .
43.1(35) . . .
38.9(33) . . .
33.0(31) . . .
32.5(30) . . .
35.0(31) . . .
39.5(33) . . .
32.4(30) . . .
31.3(30) . . .
33.9(30) . . .
30.9(30) . . .
32.1(31) . . .
27.6(27) . . .
31.7(30) . . .
33.9(33) . . .
41.7(34) . . .
37.1(31) . . .
30.6(29) . . .
31.4(30) . . .
39.3(34) . . .
32.8(30) . . .
35.3(31) . . .
32.3(30) . . .
29.2(28) . . .
30.3(30) . . .
32.9(33) . . .
26.5(29) . . .
37.5(32) . . .
36.6(32) . . .
31.8(31) . . .
40(4) . . .
39.0(34) . . .
29.1(29) . . .
36(4) . . .
36(4) . . .
19.3(24) . . .
34.8(31) . . .
31.8(29) . . .
41(4) . . .
33.3(30) . . .
35.3(33) . . .
35.4(31) . . .
38.7(33) . . .
29.2(28) . . .
35.7(32) . . .
40.9(35) . . .
43.5(34) . . .
34.8(34) . . .
37.8(34) . . .
31.3(30) . . .
34.1(31) . . .
31.8(29) . . .
31.5(30) . . .
30.0(30) . . .
37.4(32) . . .
28.3(28) . . .
37.3(32) . . .
38.0(32) . . .
38.1(34) . . .
32.3(30) . . .
39.9(34) . . .
23.8(25) . . .
27.1(28) . . .
34.8(34) . . .
38.2(35) . . .
29.4(29) . . .
30.5(29) . . .
26.4(27) . . .
24.6(27) . . .
34.4(32) . . .
32.3(29) . . .
33.8(30) . . .
28.1(29) . . .
31.3(31) . . .
34.7(35) . . .
34.0(32) . . .
25.3(26) . . .
39.9(35) . . .
28.2(28) . . .
34.0(32) . . .
28.9(28) . . .
22.7(25) . . .
39.7(34) . . .
30.1(30) . . .
38.7(33) . . .
45(4) . . .
45(4) . . .
33.9(31) . . .
41.4(34) . . .
41(4) . . .
39.4(33) . . .
26.1(27) . . .
35.0(32) . . .
30.3(31) . . .
33.1(31) . . .
35.0(31) . . .
25.6(26) . . .
32.1(30) . . .
33.7(31) . . .
34.7(32) . . .
34.0(31) . . .
34.1(32) . . .
25.5(29) . . .
33.7(35) . . .
28.1(31) . . .
35.0(31) . . .
32.8(30) . . .
31.1(32) . . .
29.5(31) . . .
32.5(31) . . .
35.5(31) . . .
36.2(31) . . .
23.9(25) . . .
27.7(28) . . .
29.9(28) . . .
29.7(29) . . .
29.6(28) . . .
33.9(31) . . .
34.6(33) . . .
39.7(33) . . .
30.8(28) . . .
24.6(25) . . .
37.9(34) . . .
38.0(33) . . .
34.7(31) . . .
30.0(28) . . .
40(4) . . .
38.2(34) . . .
36.4(31) . . .
36.8(33) . . .
35.5(32) . . .
26.7(28) . . .
33.7(34) . . .
31.4(30) . . .
33.3(30) . . .
36.1(31) . . .
33.9(31) . . .
31.4(32) . . .
33.5(33) . . .
31.0(29) . . .
29.7(28) . . .
36.7(33) . . .
29.3(29) . . .
26.6(27) . . .
32.0(30) . . .
31.9(30) . . .
34.0(32) . . .
29.4(29) . . .
33.3(32) . . .
33.8(30) . . .
33.4(31) . . .
34.5(33) . . .
35.4(32) . . .
35.1(31) . . .
28.4(28) . . .
34.3(30) . . .
34.5(32) . . .
32.9(31) . . .
30.6(29) . . .
34.0(30) . . .
31.3(29) . . .
35.1(32) . . .
32.2(29) . . .
38.8(33) . . .
29.9(29) . . .
34.6(32) . . .
35.0(35) . . .
32.9(31) . . .
38.5(32) . . .
26.7(27) . . .
37.5(35) . . .
43(4) . . .
32.8(30) . . .
26.5(27) . . .
33.5(30) . . .
32.2(30) . . .
36.2(34) . . .
34.8(32) . . .
31.5(30) . . .
34.5(31) . . .
24.9(29) . . .
43(4) . . .
37.8(32) . . .
31.0(29) . . .
25.3(27) . . .
35.3(33) . . .
24.7(26) . . .
29.1(28) . . .
36.8(32) . . .
27.9(28) . . .
27.4(27) . . .
25.1(28) . . .
29.0(28) . . .
34.4(30) . . .
35.5(31) . . .
36.2(33) . . .
34.5(33) . . .
29.0(30) . . .
35.0(31) . . .
25.6(27) . . .
25.4(27) . . .
30.6(29) . . .
38.8(35) . . .
36.3(32) . . .
36.0(32) . . .
45(4) . . .
38.0(32) . . .
29.9(28) . . .
32.4(30) . . .
26.3(27) . . .
26.4(27) . . .
27.4(28) . . .
35.0(31) . . .
33.5(31) . . .
25.4(27) . . .
33.8(31) . . .
25.8(29) . . .
34.7(32) . . .
31.1(29) . . .
29.9(29) . . .
35.7(34) . . .
43(4) . . .
34.0(30) . . .
38.2(33) . . .
27.4(30) . . .
32.7(31) . . .
36.3(32) . . .
28.9(28) . . .
28.8(28) . . .
37.1(33) . . .
25.9(30) . . .
29.6(29) . . .
27.5(28) . . .
27.5(27) . . .
29.7(29) . . .
30.4(30) . . .
39.8(34) . . .
33.9(30) . . .
35.5(32) . . .
28.6(29) . . .
38(4) . . .
32.5(30) . . .
39.9(33) . . .
43(4) . . .
31.4(30) . . .
30.6(31) . . .
33.1(33) . . .
35.0(30) . . .
35.9(32) . . .
35.9(33) . . .
43(4) . . .
31.5(30) . . .
36.0(31) . . .
31.2(31) . . .
27.2(28) . . .
32.7(33) . . .
36.0(33) . . .
28.2(28) . . .
35.5(31) . . .
37.0(33) . . .
34.0(31) . . .
30.9(31) . . .
35.5(31) . . .
36.7(33) . . .
34.0(34) . . .
34.3(31) . . .
29.1(28) . . .
39.3(33) . . .
26.5(28) . . .
26.2(28) . . .
34.2(35) . . .
32.0(29) . . .
42.3(34) . . .
37.4(34) . . .
38(4) . . .
45(4) . . .
36.8(32) . . .
28.9(28) . . .
41(4) . . .
42(4) . . .
40.1(35) . . .
31.0(29) . . .
36.8(32) . . .
30.2(30) . . .
38.3(35) . . .
33.6(31) . . .
30.4(29) . . .
34.2(31) . . .
36.4(32) . . .
30.4(30) . . .
31.4(29) . . .
38.9(32) . . .
35.3(31) . . .
35.8(32) . . .
31.6(30) . . .
37.1(33) . . .
38.5(32) . . .
36.2(32) . . .
30.0(28) . . .
37.7(34) . . .
30.6(30) . . .
29.7(28) . . .
24.1(26) . . .
31.5(32) . . .
31.4(32) . . .
34.1(32) . . .
36.2(31) . . .
31.9(31) . . .
36.6(35) . . .
28.4(29) . . .
33.5(30) . . .
31.8(30) . . .
28.1(28) . . .
32.4(31) . . .
31.0(31) . . .
27.6(27) . . .
33.4(31) . . .
26.6(27) . . .
26.7(28) . . .
31.4(30) . . .
37.0(32) . . .
26.6(27) . . .
36.4(33) . . .
28.3(30) . . .
25.2(28) . . .
32.7(31) . . .
33.3(29) . . .
33.6(30) . . .
42(4) . . .
31.3(29) . . .
23.3(26) . . .
25.7(27) . . .
32.2(29) . . .
34.3(33) . . .
35.6(33) . . .
33.7(30) . . .
28.9(28) . . .
38.6(33) . . .
35.0(32) . . .
32.5(30) . . .
26.9(27) . . .
43.2(34) . . .
36.4(32) . . .
29.1(30) . . .
28.8(29) . . .
37.1(31) . . .
38.4(34) . . .
36.7(33) . . .
30.5(29) . . .
33.4(31) . . .
29.3(28) . . .
36.5(32) . . .
30.0(29) . . .
30.7(30) . . .
35.6(32) . . .
36.4(31) . . .
34.5(32) . . .
40(4) . . .
34.3(33) . . .
32.2(31) . . .
31.5(29) . . .
36.5(33) . . .
39.3(33) . . .
36.2(32) . . .
38.1(33) . . .
31.1(29) . . .
37.9(34) . . .
35.8(32) . . .
41(4) . . .
36.7(32) . . .
27.6(28) . . .
43(4) . . .
32.3(29) . . .
35.2(32) . . .
30.3(30) . . .
33.3(30) . . .
27.4(27) . . .
32.0(31) . . .
32.6(30) . . .
32.8(31) . . .
31.7(29) . . .
30.2(31) . . .
34.7(34) . . .
30.0(29) . . .
36.6(31) . . .
32.8(31) . . .
36.8(34) . . .
31.3(32) . . .
29.0(28) . . .
34.5(31) . . .
34.9(31) . . .
40(4) . . .
36(4) . . .
31.7(30) . . .
35.0(31) . . .
31.1(30) . . .
27.5(29) . . .
28.0(29) . . .
31.7(30) . . .
34.0(31) . . .
28.4(28) . . .
32.9(31) . . .
28.4(28) . . .
34.1(30) . . .
36.5(32) . . .
30.1(28) . . .
34.3(31) . . .
34.8(33) . . .
36.0(32) . . .
25.1(27) . . .
35.2(34) . . .
18.9(22) . . .
35.1(33) . . .
25.5(26) . . .
27.2(27) . . .
26.6(29) . . .
29.7(30) . . .
33.1(31) . . .
31.5(29) . . .
28.8(28) . . .
36.7(33) . . .
32.5(32) . . .
24.8(28) . . .
41.0(34) . . .
34.4(30) . . .
33.0(30) . . .
46(4) . . .
31.9(29) . . .
24.6(26) . . .
31.3(30) . . .
32.0(30) . . .
37.2(35) . . .
35.5(32) . . .
27.9(28) . . .
37.2(32) . . .
36.3(32) . . .
36.4(35) . . .
42(4) . . .
30.8(29) . . .
31.5(29) . . .
33.3(31) . . .
28.3(30) . . .
30.4(29) . . .
37.8(33) . . .
36.1(32) . . .
34.4(30) . . .
29.4(29) . . .
26.8(28) . . .
30.7(29) . . .
34.6(31) . . .
31.6(30) . . .
28.5(29) . . .
29.9(31) . . .
25.4(27) . . .
35.5(31) . . .
33.2(31) . . .
36.5(34) . . .
31.2(30) . . .
30.1(29) . . .
35.7(32) . . .
45.1(35) . . .
37.3(33) . . .
31.5(30) . . .
24.9(26) . . .
29.0(28) . . .
33.6(33) . . .
34.1(33) . . .
27.0(27) . . .
30.4(30) . . .
33.6(31) . . .
38.8(35) . . .
27.0(28) . . .
30.6(30) . . .
35.4(31) . . .
33.7(33) . . .
34.9(32) . . .
33.8(31) . . .
30.9(29) . . .
36.7(32) . . .
37.7(33) . . .
28.9(30) . . .
25.5(27) . . .
31.4(30) . . .
33.0(29) . . .
30.7(29) . . .
31.0(29) . . .
44(4) . . .
28.2(28) . . .
29.1(28) . . .
28.1(27) . . .
28.2(28) . . .
31.6(31) . . .
23.0(25) . . .
33.1(30) . . .
33.4(32) . . .
29.8(28) . . .
32.2(30) . . .
34.7(30) . . .
30.9(29) . . .
31.2(30) . . .
31.4(30) . . .
33.3(32) . . .
28.3(28) . . .
34.7(31) . . .
32.6(31) . . .
37.3(33) . . .
31.0(31) . . .
28.0(28) . . .
37(4) . . .
32.0(30) . . .
37.5(33) . . .
35.0(31) . . .
34.2(30) . . .
40.6(34) . . .
36.1(32) . . .
41.2(35) . . .
32.6(30) . . .
31.4(30) . . .
28.4(29) . . .
34.3(33) . . .
32.5(32) . . .
30.8(32) . . .
31.3(29) . . .
28.2(29) . . .
32.5(32) . . .
31.8(31) . . .
39.2(34) . . .
41.8(33) . . .
36.5(32) . . .
42(4) . . .
36.5(32) . . .
29.0(28) . . .
24.5(26) . . .
24.7(28) . . .
34.4(34) . . .
34.4(31) . . .
32.6(30) . . .
25.8(27) . . .
25.3(26) . . .
26.8(28) . . .
33.0(30) . . .
33.5(30) . . .
26.9(28) . . .
33.7(31) . . .
36.7(33) . . .
29.6(28) . . .
37.2(32) . . .
30.8(29) . . .
22.7(24) . . .
30.3(30) . . .
32.6(29) . . .
34.3(31) . . .
36.0(32) . . .
29.4(28) . . .
29.5(28) . . .
33.8(31) . . .
31.7(30) . . .
28.2(30) . . .
29.0(28) . . .
27.2(28) . . .
23.0(25) . . .
40.9(34) . . .
26.0(26) . . .
28.3(29) . . .
26.8(27) . . .
37.9(32) . . .
30.9(29) . . .
36(4) . . .
35.8(32) . . .
31.3(29) . . .
30.5(28) . . .
29.9(28) . . .
28.1(29) . . .
33.2(32) . . .
41.1(34) . . .
30.7(28) . . .
34.2(31) . . .
29.6(30) . . .
26.7(29) . . .
32.7(32) . . .
35.8(31) . . .
38.7(34) . . .
35.0(35) . . .
27.4(28) . . .
27.8(27) . . .
33.8(30) . . .
29.6(28) . . .
33.5(30) . . .
27.2(29) . . .
36.8(34) . . .
34.9(31) . . .
38.5(33) . . .
37.4(32) . . .
35.1(32) . . .
32.0(30) . . .
28.6(28) . . .
31.4(29) . . .
35.6(31) . . .
30.7(30) . . .
32.8(30) . . .
30.3(29) . . .
34.5(32) . . .
29.8(31) . . .
31.1(30) . . .
39(4) . . .
30.6(29) . . .
34.3(31) . . .
39(4) . . .
29.7(29) . . .
33.5(31) . . .
28.0(28) . . .
24.4(27) . . .
40.4(35) . . .
35.2(31) . . .
34.1(30) . . .
44.2(35) . . .
36.6(32) . . .
35.5(32) . . .
29.2(30) . . .
37.6(33) . . .
30.8(29) . . .
38.8(34) . . .
36(4) . . .
42.3(35) . . .
36.0(31) . . .
35.7(31) . . .
31.1(29) . . .
35.8(33) . . .
32.2(31) . . .
27.7(28) . . .
30.7(29) . . .
33.8(32) . . .
36.7(33) . . .
37.5(33) . . .
30.8(29) . . .
32.8(30) . . .
30.8(29) . . .
30.1(31) . . .
36(4) . . .
34.1(30) . . .
38.9(33) . . .
29.0(30) . . .
28.5(31) . . .
39(4) . . .
34.4(30) . . .
38.0(34) . . .
37.2(33) . . .
27.2(28) . . .
33.3(31) . . .
33.3(30) . . .
29.5(28) . . .
31.9(31) . . .
33.8(32) . . .
33.7(32) . . .
32.9(31) . . .
32.8(30) . . .
34.4(31) . . .
34.6(32) . . .
35.8(33) . . .
34.5(31) . . .
30.3(29) . . .
28.3(30) . . .
38(4) . . .
28.8(27) . . .
34.8(31) . . .
37.2(33) . . .
35.2(32) . . .
32.6(29) . . .
33.0(29) . . .
29.8(28) . . .
34.6(31) . . .
27.2(29) . . .
29.0(29) . . .
34.5(31) . . .
35.6(33) . . .
25.1(27) . . .
35(4) . . .
32.4(30) . . .
34.5(31) . . .
26.8(28) . . .
26.5(27) . . .
30.3(32) . . .
32.3(30) . . .
40.3(33) . . .
38.0(32) . . .
36.6(32) . . .
36.0(32) . . .
40.3(33) . . .
33.1(30) . . .
30.0(29) . . .
23.1(28) . . .
37(4) . . .
37.0(33) . . .
42.0(34) . . .
32.9(29) . . .
41(4) . . .
30.3(31) . . .
27.1(28) . . .
32.2(29) . . .
28.1(28) . . .
31.6(32) . . .
39(4) . . .
38.3(33) . . .
37.1(32) . . .
36.8(32) . . .
41(4) . . .
46(4) . . .
29.0(28) . . .
32.0(30) . . .
37.0(32) . . .
34.6(30) . . .
35.0(30) . . .
33.3(30) . . .
27.5(27) . . .
33.0(31) . . .
27.2(28) . . .
30.6(30) . . .
38.5(32) . . .
34.7(31) . . .
40(4) . . .
37.0(33) . . .
33.7(31) . . .
42.5(34) . . .
33.1(29) . . .
36.6(32) . . .
40(4) . . .
38(4) . . .
31.3(29) . . .
45(4) . . .
36.8(32) . . .
31.3(30) . . .
22.6(25) . . .
24.7(26) . . .
36.0(31) . . .
36.9(33) . . .
35.2(32) . . .
34.9(32) . . .
33.9(30) . . .
37.0(32) . . .
30.9(30) . . .
30.2(32) . . .
29.0(29) . . .
29.2(28) . . .
37.9(33) . . .
36.4(32) . . .
32.8(31) . . .
38.0(33) . . .
47(4) . . .
42.2(35) . . .
35.9(34) . . .
34.2(31) . . .
30.9(29) . . .
36.2(31) . . .
38.5(34) . . .
23.3(25) . . .
28.6(29) . . .
37.2(33) . . .
31.4(29) . . .
21.7(24) . . .
27.5(28) . . .
37.4(33) . . .
35.8(32) . . .
34.3(30) . . .
29.1(29) . . .
34.4(32) . . .
31.3(30) . . .
30.6(28) . . .
30.9(29) . . .
32.5(31) . . .
37.1(33) . . .
35.6(31) . . .
35.2(31) . . .
33.5(30) . . .
33.8(31) . . .
29.9(30) . . .
28.5(30) . . .
35.4(32) . . .
36.7(32) . . .
28.5(29) . . .
31.9(32) . . .
23.1(25) . . .
27.7(27) . . .
34.8(31) . . .
33.1(32) . . .
33.3(32) . . .
34.7(32) . . .
27.8(27) . . .
28.6(27) . . .
25.8(29) . . .
28.5(30) . . .
32.6(30) . . .
32.8(30) . . .
29.4(29) . . .
29.3(28) . . .
29.5(30) . . .
30.8(31) . . .
24.1(25) . . .
34.0(31) . . .
40.3(35) . . .
39.0(34) . . .
37.3(32) . . .
33.5(30) . . .
37.8(32) . . .
29.5(28) . . .
36(4) . . .
29.3(29) . . .
33.5(31) . . .
32.8(31) . . .
31.0(30) . . .
27.4(28) . . .
30.5(29) . . .
34.9(31) . . .
30.8(30) . . .
32.0(31) . . .
36.8(33) . . .
36.4(34) . . .
36.2(31) . . .
33.6(32) . . .
27.8(27) . . .
25.1(27) . . .
33.2(30) . . .
34.2(30) . . .
36.2(33) . . .
31.9(31) . . .
39.8(34) . . .
39.5(33) . . .
34.4(31) . . .
32.6(31) . . .
35.2(34) . . .
43(4) . . .
34.7(31) . . .
30.8(28) . . .
35.1(32) . . .
36.1(34) . . .
27.7(29) . . .
25.9(27) . . .
28.0(28) . . .
30.8(29) . . .
30.6(30) . . .
32.0(31) . . .
30.3(30) . . .
34.0(31) . . .
30.2(31) . . .
35.3(33) . . .
35.3(31) . . .
29.3(28) . . .
31.2(29) . . .
33.0(32) . . .
34.5(33) . . .
37.4(33) . . .
33.5(30) . . .
32.7(29) . . .
40.9(34) . . .
33.4(32) . . .
32.0(32) . . .
30.9(29) . . .
29.4(29) . . .
28.7(29) . . .
28.3(29) . . .
35.9(33) . . .
37.2(32) . . .
38.4(34) . . .
37.8(34) . . .
31.3(29) . . .
36.3(33) . . .
31.6(29) . . .
29.6(28) . . .
31.0(31) . . .
33.3(31) . . .
29.6(29) . . .
31.3(30) . . .
28.6(29) . . .
32.3(32) . . .
26.8(28) . . .
43(4) . . .
36.0(32) . . .
38.7(34) . . .
29.9(31) . . .
31.0(30) . . .
32.3(30) . . .
31.6(30) . . .
37.7(32) . . .
40(4) . . .
34.3(31) . . .
34.0(30) . . .
35.8(31) . . .
33.7(31) . . .
34.9(32) . . .
35.6(32) . . .
29.6(28) . . .
34.9(31) . . .
32.5(29) . . .
37.5(35) . . .
30.4(28) . . .
37.5(32) . . .
39.6(33) . . .
41.2(35) . . .
31.0(32) . . .
29.3(30) . . .
37.9(33) . . .
32.2(30) . . .
32.9(31) . . .
30.9(30) . . .
31.5(32) . . .
32.4(30) . . .
38.4(32) . . .
35.2(32) . . .
40(4) . . .
28.6(28) . . .
32.0(29) . . .
29.3(28) . . .
30.4(29) . . .
36.5(34) . . .
35.1(31) . . .
33.3(30) . . .
30.0(29) . . .
33.3(31) . . .
32.2(29) . . .
31.3(30) . . .
34.3(31) . . .
33.8(32) . . .
28.4(28) . . .
37.9(34) . . .
33.0(31) . . .
32.1(29) . . .
27.0(30) . . .
21.6(26) . . .
30.6(31) . . .
26.3(27) . . .
37.0(31) . . .
29.9(28) . . .
31.9(29) . . .
34.5(31) . . .
36.5(32) . . .
28.4(28) . . .
36.5(32) . . .
37.3(35) . . .
37.7(33) . . .
39.2(33) . . .
33.0(30) . . .
28.4(30) . . .
26.1(28) . . .
33.4(32) . . .
28.6(27) . . .
35.4(33) . . .
40.7(35) . . .
36.7(35) . . .
42(4) . . .
33.2(31) . . .
34.7(31) . . .
33.2(32) . . .
33.1(30) . . .
37.4(34) . . .
31.5(29) . . .
36.4(33) . . .
26.5(28) . . .
27.4(28) . . .
34.6(31) . . .
33.5(31) . . .
31.0(31) . . .
25.3(27) . . .
28.9(28) . . .
28.7(28) . . .
23.8(25) . . .
26.0(30) . . .
28.7(30) . . .
32.2(32) . . .
35.5(32) . . .
34.3(31) . . .
27.8(28) . . .
29.8(31) . . .
34.8(32) . . .
38.1(33) . . .
38.9(33) . . .
27.0(28) . . .
26.3(28) . . .
31.3(29) . . .
45(4) . . .
33.4(30) . . .
39.0(32) . . .
31.3(31) . . .
32.5(32) . . .
28.9(29) . . .
39.6(33) . . .
38.3(32) . . .
32.4(33) . . .
32.9(31) . . .
32.0(30) . . .
29.7(29) . . .
35.5(31) . . .
34.8(34) . . .
30.1(29) . . .
29.6(30) . . .
32.9(30) . . .
30.1(30) . . .
31.9(32) . . .
25.9(27) . . .
35.2(31) . . .
40.7(33) . . .
30.5(29) . . .
33.3(33) . . .
30.7(30) . . .
37.3(32) . . .
32.3(30) . . .
36.0(32) . . .
34.4(31) . . .
35.5(33) . . .
31.0(29) . . .
21.9(24) . . .
30.2(30) . . .
32.4(31) . . .
25.9(26) . . .
30.2(28) . . .
32.8(31) . . .
29.0(29) . . .
36.4(33) . . .
35.9(33) . . .
32.8(30) . . .
24.1(26) . . .
26.4(30) . . .
31.5(32) . . .
32.3(29) . . .
29.0(28) . . .
38.9(35) . . .
38(4) . . .
40.8(35) . . .
29.0(27) . . .
35.8(31) . . .
34.4(34) . . .
35.1(34) . . .
33.4(31) . . .
33.9(30) . . .
29.0(28) . . .
37.0(34) . . .
37.3(34) . . .
33.0(33) . . .
35.5(31) . . .
37.1(32) . . .
27.1(27) . . .
37(4) . . .
29.8(28) . . .
23.0(25) . . .
31.4(30) . . .
35.7(33) . . .
29.7(29) . . .
28.8(28) . . .
36.0(31) . . .
32.1(30) . . .
36.0(33) . . .
31.3(30) . . .
27.4(28) . . .
26.8(27) . . .
39.3(34) . . .
40(4) . . .
31.5(33) . . .
26.6(28) . . .
26.2(27) . . .
39.3(35) . . .
27.4(29) . . .
30.4(30) . . .
32.3(31) . . .
27.7(28) . . .
30.5(28) . . .
28.0(28) . . .
30.0(30) . . .
26.2(27) . . .
34.8(31) . . .
32.4(31) . . .
40(4) . . .
29.7(27) . . .
39.2(33) . . .
31.1(30) . . .
37.5(33) . . .
28.8(30) . . .
40(4) . . .
31.4(30) . . .
29.6(29) . . .
30.0(30) . . .
31.9(32) . . .
34.7(32) . . .
35.0(31) . . .
33.5(30) . . .
28.8(27) . . .
29.7(30) . . .
26.7(27) . . .
35.8(31) . . .
34.8(30) . . .
30.1(30) . . .
39(4) . . .
31.9(31) . . .
38.2(33) . . .
32.8(30) . . .
34.9(32) . . .
37.6(35) . . .
33.8(31) . . .
37.3(31) . . .
33.7(30) . . .
29.8(30) . . .
30.5(30) . . .
26.5(28) . . .
33.3(30) . . .
26.7(27) . . .
36.2(32) . . .
42(4) . . .
34.0(31) . . .
34.3(31) . . .
35.7(31) . . .
37.1(32) . . .
32.5(30) . . .
26.6(29) . . .
29.3(29) . . .
34.2(31) . . .
37.0(33) . . .
37.5(32) . . .
35.6(31) . . .
31.3(30) . . .
24.7(26) . . .
33.1(31) . . .
39.5(34) . . .
45(4) . . .
28.3(28) . . .
34.7(31) . . .
34.1(34) . . .
35.5(33) . . .
38.3(33) . . .
26.9(27) . . .
32.7(31) . . .
30.8(31) . . .
29.5(28) . . .
26.1(27) . . .
34.7(31) . . .
33.5(30) . . .
32.6(30) . . .
38.0(32) . . .
33.7(30) . . .
31.5(29) . . .
32.6(31) . . .
28.1(28) . . .
35.3(30) . . .
29.4(28) . . .
32.5(30) . . .
36.4(33) . . .
31.4(32) . . .
23.4(25) . . .
34.8(31) . . .
24.0(26) . . .
29.8(29) . . .
25.7(27) . . .
32.2(30) . . .
33.0(30) . . .
32.0(29) . . .
32.6(31) . . .
40(4) . . .
30.2(29) . . .
33.4(30) . . .
33.8(32) . . .
33.7(32) . . .
25.6(28) . . .
30.5(29) . . .
32.2(30) . . .
32.6(31) . . .
35.3(32) . . .
40.0(34) . . .
29.4(28) . . .
37.3(32) . . .
34.9(33) . . .
28.9(30) . . .
32.3(32) . . .
34.3(30) . . .
35.5(31) . . .
35.4(32) . . .
38.3(33) . . .
33.3(31) . . .
29.8(29) . . .
31.4(29) . . .
35.2(33) . . .
31.5(30) . . .
39(4) . . .
32.2(30) . . .
36.4(32) . . .
30.6(30) . . .
43(4) . . .
32.3(31) . . .
29.6(28) . . .
31.0(29) . . .
35.5(32) . . .
26.0(28) . . .
25.7(27) . . .
27.9(27) . . .
37.3(35) . . .
23.8(26) . . .
37.3(34) . . .
36.5(33) . . .
30.6(29) . . .
29.5(28) . . .
28.9(30) . . .
30.1(30) . . .
33.3(31) . . .
35.2(31) . . .
40.9(34) . . .
31.7(31) . . .
38(4) . . .
33.3(32) . . .
35.2(31) . . .
28.4(27) . . .
32.8(32) . . .
30.8(31) . . .
34.7(32) . . .
31.6(29) . . .
32.2(32) . . .
30.2(28) . . .
28.5(28) . . .
32.9(30) . . .
34.0(30) . . .
31.6(31) . . .
33.7(32) . . .
25.7(27) . . .
29.7(29) . . .
34.7(31) . . .
35.0(33) . . .
31.3(30) . . .
25.1(26) . . .
31.3(29) . . .
29.4(28) . . .
33.9(31) . . .
35.0(31) . . .
34.8(32) . . .
30.9(28) . . .
32.5(30) . . .
39.2(35) . . .
34.4(32) . . .
35.8(31) . . .
35.9(31) . . .
35.0(31) . . .
32.7(31) . . .
33.3(31) . . .
33.0(29) . . .
30.4(29) . . .
33.4(30) . . .
33.6(31) . . .
33.4(29) . . .
29.9(29) . . .
27.8(27) . . .
40.3(33) . . .
35.0(32) . . .
30.9(29) . . .
41.8(33) . . .
39.8(34) . . .
37.7(32) . . .
37.4(34) . . .
38.1(35) . . .
32.8(30) . . .
23.1(25) . . .
32.0(31) . . .
32.5(33) . . .
35.1(33) . . .
30.7(29) . . .
33.5(30) . . .
32.9(30) . . .
40.6(35) . . .
38.1(35) . . .
37.9(32) . . .
34.3(31) . . .
34.4(32) . . .
36.1(32) . . .
32.8(30) . . .
21.1(24) . . .
27.4(27) . . .
26.5(28) . . .
29.3(30) . . .
36(4) . . .
28.0(27) . . .
28.4(28) . . .
26.1(27) . . .
35.6(33) . . .
26.9(27) . . .
29.7(30) . . .
31.6(29) . . .
29.1(28) . . .
38(4) . . .
32.3(33) . . .
31.0(29) . . .
32.3(31) . . .
36.5(34) . . .
29.5(30) . . .
34.9(32) . . .
25.8(27) . . .
34.0(30) . . .
36.1(33) . . .
40(4) . . .
36.7(34) . . .
35.4(31) . . .
36.5(32) . . .
32.0(31) . . .
35.2(35) . . .
35.5(34) . . .
30.8(29) . . .
32.8(30) . . .
32.2(30) . . .
28.5(31) . . .
24.3(27) . . .
37.4(32) . . .
39.6(33) . . .
36.2(32) . . .
28.5(27) . . .
32.4(31) . . .
31.0(29) . . .
37.3(32) . . .
27.0(27) . . .
35.2(33) . . .
36.6(32) . . .
26.4(27) . . .
24.9(26) . . .
26.6(27) . . .
31.8(32) . . .
36.2(31) . . .
31.2(30) . . .
28.5(29) . . .
37.1(34) . . .
27.6(27) . . .
23.2(27) . . .
31.2(29) . . .
34.7(32) . . .
34.3(32) . . .
32.8(30) . . .
34.3(30) . . .
35.7(31) . . .
36.2(32) . . .
36.8(33) . . .
35.8(33) . . .
34.8(32) . . .
35.4(31) . . .
37.9(34) . . .
33.8(31) . . .
32.5(31) . . .
24.3(26) . . .
39.7(33) . . .
27.5(28) . . .
34.6(34) . . .
28.1(27) . . .
37.0(32) . . .
32.0(30) . . .
34.0(32) . . .
32.9(32) . . .
43(4) . . .
27.1(27) . . .
36.5(31) . . .
28.6(28) . . .
36.7(34) . . .
34.5(33) . . .
36.3(31) . . .
38.3(34) . . .
34.5(32) . . .
25.4(27) . . .
30.5(32) . . .
31.8(29) . . .
31.9(30) . . .
41(4) . . .
31.9(31) . . .
29.1(30) . . .
27.5(27) . . .
29.4(28) . . .
32.8(31) . . .
34.4(33) . . .
30.1(30) . . .
26.2(27) . . .
36.5(33) . . .
31.7(31) . . .
41(4) . . .
32.8(30) . . .
40.5(33) . . .
31.9(30) . . .
42.0(35) . . .
37.8(34) . . .
34.3(31) . . .
38.5(32) . . .
35.5(33) . . .
32.9(32) . . .
28.8(28) . . .
31.6(29) . . .
38.2(32) . . .
34.6(32) . . .
40(4) . . .
35.3(31) . . .
31.5(29) . . .
35.2(31) . . .
25.4(28) . . .
23.7(27) . . .
31.2(30) . . .
30.1(29) . . .
39.6(35) . . .
37.3(34) . . .
37(4) . . .
40.0(33) . . .
41.3(35) . . .
37.9(31) . . .
32.8(30) . . .
32.3(30) . . .
35.9(34) . . .
30.5(29) . . .
33.0(32) . . .
32.2(31) . . .
31.1(32) . . .
34.9(32) . . .
32.7(30) . . .
31.5(31) . . .
26.1(28) . . .
33.8(30) . . .
45(4) . . .
37.3(32) . . .
28.4(27) . . .
27.8(27) . . .
33.8(32) . . .
26.3(26) . . .
43.6(34) . . .
33.8(30) . . .
34.3(32) . . .
32.1(30) . . .
37.4(32) . . .
28.6(28) . . .
31.7(30) . . .
33.0(30) . . .
33.4(31) . . .
22.9(25) . . .
32.4(30) . . .
34.7(32) . . .
31.2(31) . . .
29.9(30) . . .
28.0(28) . . .
32.6(29) . . .
31.5(31) . . .
26.5(26) . . .
37.7(33) . . .
38.2(32) . . .
28.9(28) . . .
35.0(32) . . .
31.1(32) . . .
36.5(32) . . .
39.2(32) . . .
27.6(28) . . .
22.3(25) . . .
34.7(34) . . .
34.0(31) . . .
34.5(32) . . .
30.2(28) . . .
29.5(31) . . .
25.5(29) . . .
32.1(32) . . .
36.9(32) . . .
33.5(30) . . .
31.1(30) . . .
38(4) . . .
31.5(30) . . .
26.2(26) . . .
30.4(29) . . .
28.8(28) . . .
27.6(28) . . .
30.9(31) . . .
33.1(30) . . .
34.5(31) . . .
35.7(33) . . .
37(4) . . .
27.8(29) . . .
33.4(30) . . .
40.4(34) . . .
31.1(29) . . .
28.5(28) . . .
28.8(29) . . .
37.0(31) . . .
30.5(29) . . .
32.5(30) . . .
34.9(31) . . .
33.0(30) . . .
33.6(30) . . .
28.8(27) . . .
37.0(31) . . .
37.9(32) . . .
34.3(30) . . .
38.2(32) . . .
27.0(28) . . .
28.0(31) . . .
29.7(30) . . .
28.6(28) . . .
32.9(31) . . .
34.4(34) . . .
26.0(30) . . .
33.0(31) . . .
28.8(28) . . .
34.4(30) . . .
31.5(29) . . .
34.0(34) . . .
32.7(32) . . .
32.8(29) . . .
26.7(27) . . .
34.2(31) . . .
34.5(31) . . .
39.2(33) . . .
31.7(29) . . .
32.3(30) . . .
40.3(33) . . .
37.0(34) . . .
27.7(28) . . .
33.6(30) . . .
34.8(31) . . .
33.3(31) . . .
29.2(28) . . .
43(4) . . .
25.1(26) . . .
29.9(29) . . .
26.7(28) . . .
29.8(29) . . .
35.0(32) . . .
30.4(28) . . .
35.4(32) . . .
34.9(33) . . .
27.3(28) . . .
33.0(31) . . .
35.6(31) . . .
33.8(30) . . .
32.3(32) . . .
38.1(35) . . .
32.0(29) . . .
34.5(30) . . .
32.2(31) . . .
35.5(33) . . .
28.6(29) . . .
30.4(28) . . .
25.9(27) . . .
37.9(35) . . .
35.4(32) . . .
29.5(28) . . .
30.4(28) . . .
31.5(29) . . .
33.3(33) . . .
25.0(28) . . .
25.9(26) . . .
34.6(31) . . .
28.0(28) . . .
33.6(32) . . .
27.3(29) . . .
31.9(32) . . .
31.4(29) . . .
34.2(31) . . .
31.5(30) . . .
31.5(29) . . .
31.8(29) . . .
27.6(27) . . .
30.6(29) . . .
33.3(31) . . .
31.7(32) . . .
33.2(30) . . .
30.4(29) . . .
39.0(33) . . .
33.3(30) . . .
32.7(30) . . .
35.3(31) . . .
30.2(29) . . .
36.4(33) . . .
32.9(30) . . .
36.7(35) . . .
30.2(29) . . .
34.9(30) . . .
31.4(29) . . .
30.6(31) . . .
33.9(32) . . .
32.1(30) . . .
33.7(30) . . .
34.0(30) . . .
36.1(33) . . .
27.8(27) . . .
29.3(28) . . .
43.9(35) . . .
31.5(30) . . .
38.4(33) . . .
32.3(29) . . .
23.8(25) . . .
36.2(31) . . .
35.1(31) . . .
31.1(32) . . .
23.4(26) . . .
33.5(31) . . .
25.0(26) . . .
34.3(33) . . .
32.8(34) . . .
26.6(28) . . .
28.0(27) . . .
30.4(30) . . .
33(4) . . .
24.5(26) . . .
33.6(33) . . .
32.9(31) . . .
36.7(32) . . .
35.7(33) . . .
27.0(31) . . .
27.9(30) . . .
37.5(31) . . .
39.4(32) . . .
33.7(31) . . .
36(4) . . .
31.9(32) . . .
31.1(30) . . .
31.1(31) . . .
35.6(31) . . .
31.9(30) . . .
37(4) . . .
31.4(30) . . .
26.4(28) . . .
27.9(28) . . .
38.1(34) . . .
25.1(29) . . .
29.3(28) . . .
38.6(33) . . .
30.5(30) . . .
31.0(30) . . .
30.0(30) . . .
24.2(25) . . .
30.9(30) . . .
32.5(33) . . .
25.9(26) . . .
35.8(32) . . .
30.9(29) . . .
25.0(26) . . .
33.9(32) . . .
33.2(32) . . .
34.3(32) . . .
26.2(27) . . .
33.5(30) . . .
38.0(34) . . .
24.9(26) . . .
28.3(28) . . .
33.0(30) . . .
38.6(33) . . .
31.3(32) . . .
25.4(28) . . .
34.3(30) . . .
30.4(29) . . .
39(4) . . .
28.9(29) . . .
35.3(33) . . .
28.1(28) . . .
35.9(31) . . .
33.2(30) . . .
28.9(28) . . .
40.4(33) . . .
32.2(29) . . .
29.5(29) . . .
36.5(32) . . .
34.3(33) . . .
27.3(28) . . .
28.9(28) . . .
27.0(27) . . .
28.0(29) . . .
29.4(31) . . .
25.7(27) . . .
27.1(27) . . .
30.7(30) . . .
32.8(31) . . .
30.6(29) . . .
33.4(31) . . .
27.1(27) . . .
39.1(35) . . .
31.0(30) . . .
33.5(31) . . .
28.5(28) . . .
35.3(31) . . .
36.5(32) . . .
28.8(28) . . .
35.6(32) . . .
34.0(30) . . .
36.4(32) . . .
35.0(31) . . .
30.1(30) . . .
29.7(31) . . .
30.8(29) . . .
34.4(31) . . .
34.1(30) . . .
31.3(29) . . .
34.7(33) . . .
36.4(33) . . .
34.6(30) . . .
25.3(26) . . .
32.8(31) . . .
32.0(29) . . .
33.7(31) . . .
42.5(34) . . .
35.6(34) . . .
27.6(31) . . .
28.5(30) . . .
28.4(28) . . .
32.6(30) . . .
32.2(30) . . .
26.5(29) . . .
37.8(33) . . .
34.4(31) . . .
20.7(25) . . .
37(4) . . .
32.7(32) . . .
34.4(31) . . .
24.3(25) . . .
25.2(26) . . .
32.1(30) . . .
31.4(30) . . .
30.9(30) . . .
30.9(29) . . .
33.8(31) . . .
28.7(29) . . .
28.3(28) . . .
36.5(32) . . .
34.6(30) . . .
33.1(31) . . .
30.9(32) . . .
21.4(24) . . .
32.5(30) . . .
29.6(29) . . .
30.9(29) . . .
25.0(28) . . .
30.4(31) . . .
30.1(30) . . .
28.2(28) . . .
31.5(32) . . .
26.8(28) . . .
34.6(32) . . .
38.0(34) . . .
37.5(32) . . .
28.2(30) . . .
34.7(32) . . .
42(4) . . .
32.4(30) . . .
34.7(32) . . .
23.3(27) . . .
31.8(33) . . .
30.6(32) . . .
27.0(27) . . .
27.9(27) . . .
29.8(30) . . .
33.6(31) . . .
33.9(31) . . .
29.4(28) . . .
32.2(30) . . .
35.5(32) . . .
34.8(35) . . .
26.7(27) . . .
31.5(29) . . .
32.3(30) . . .
30.1(29) . . .
28.6(28) . . .
32.6(31) . . .
28.9(28) . . .
37.3(31) . . .
32.3(31) . . .
37.9(35) . . .
36.8(32) . . .
38.2(32) . . .
34.1(31) . . .
25.2(28) . . .
31.7(33) . . .
34.2(31) . . .
34.7(31) . . .
24.9(27) . . .
36.1(34) . . .
31.1(31) . . .
33.7(31) . . .
36.2(32) . . .
34.6(32) . . .
37.2(34) . . .
33.8(32) . . .
30.4(30) . . .
33.2(31) . . .
35.1(33) . . .
34.1(32) . . .
35.8(31) . . .
33.2(31) . . .
29.5(28) . . .
30.7(29) . . .
25.9(27) . . .
29.5(30) . . .
30.0(29) . . .
23.3(25) . . .
27.5(27) . . .
34.2(34) . . .
30.4(30) . . .
28.6(27) . . .
39.3(33) . . .
28.6(28) . . .
34.0(33) . . .
25.2(26) . . .
24.6(26) . . .
34.0(30) . . .
32.8(32) . . .
31.3(34) . . .
31.0(30) . . .
30.0(29) . . .
36.6(31) . . .
34.6(33) . . .
28.8(27) . . .
25.1(26) . . .
27.5(28) . . .
37.4(32) . . .
23.6(27) . . .
30.5(32) . . .
35.6(32) . . .
37.2(33) . . .
29.5(29) . . .
31.0(30) . . .
34.0(33) . . .
27.8(29) . . .
35.0(31) . . .
36.1(33) . . .
34.6(32) . . .
27.8(27) . . .
33.1(31) . . .
27.9(27) . . .
28.6(30) . . .
36.7(34) . . .
29.1(28) . . .
40.9(34) . . .
31.3(28) . . .
30.6(30) . . .
36.3(32) . . .
36.1(31) . . .
38.3(32) . . .
40.3(33) . . .
34.2(31) . . .
29.6(29) . . .
33.6(32) . . .
33.3(31) . . .
25.6(26) . . .
32.2(31) . . .
34.8(31) . . .
25.3(26) . . .
31.7(31) . . .
32.4(30) . . .
32.4(31) . . .
40(4) . . .
29.0(29) . . .
32.0(31) . . .
29.2(29) . . .
27.9(29) . . .
34.7(34) . . .
31.0(30) . . .
35.5(31) . . .
33.6(30) . . .
33.4(32) . . .
32.3(34) . . .
24.8(26) . . .
28.0(28) . . .
29.1(29) . . .
33.9(31) . . .
34.6(32) . . .
31.2(29) . . .
38.0(32) . . .
33.0(30) . . .
25.9(28) . . .
34.9(34) . . .
33.8(31) . . .
35.3(31) . . .
22.9(26) . . .
27.4(31) . . .
33.3(32) . . .
37.4(32) . . .
26.4(27) . . .
27.6(27) . . .
30.6(29) . . .
27.4(28) . . .
31.2(30) . . .
32.4(29) . . .
29.4(29) . . .
30.3(30) . . .
30.5(32) . . .
28.0(27) . . .
42.1(34) . . .
42.0(35) . . .
29.2(29) . . .
29.3(30) . . .
28.5(28) . . .
30.4(29) . . .
29.0(28) . . .
32.8(31) . . .
29.2(28) . . .
26.5(27) . . .
23.3(25) . . .
26.2(28) . . .
30.3(31) . . .
31.7(29) . . .
38.0(33) . . .
38.7(32) . . .
33.3(32) . . .
26.7(27) . . .
32.8(32) . . .
24.1(27) . . .
37.3(32) . . .
25.7(26) . . .
31.3(32) . . .
33.1(31) . . .
29.8(28) . . .
34.9(31) . . .
29.3(28) . . .
32.0(31) . . .
34.9(32) . . .
33.9(31) . . .
31.6(30) . . .
28.0(29) . . .
26.1(27) . . .
27.1(28) . . .
33.4(30) . . .
37.5(34) . . .
31.9(32) . . .
25.6(28) . . .
29.9(30) . . .
24.0(26) . . .
23.0(26) . . .
33.9(31) . . .
22.9(26) . . .
29.4(30) . . .
37.1(32) . . .
33.4(30) . . .
30.7(31) . . .
34.5(33) . . .
30.3(30) . . .
29.3(28) . . .
28.0(29) . . .
30.0(29) . . .
37.6(35) . . .
36.8(32) . . .
32.5(30) . . .
34.2(32) . . .
27.4(30) . . .
35.0(33) . . .
26.3(27) . . .
30.8(29) . . .
34.4(31) . . .
41(4) . . .
30.5(29) . . .
34.7(32) . . .
33.3(30) . . .
32.3(30) . . .
33.0(31) . . .
39.8(34) . . .
33.3(31) . . .
29.8(28) . . .
30.7(30) . . .
34.9(33) . . .
38.8(33) . . .
25.6(26) . . .
30.9(29) . . .
33.7(31) . . .
31.0(33) . . .
31.4(31) . . .
41.9(34) . . .
27.6(27) . . .
28.0(27) . . .
30.4(30) . . .
27.6(28) . . .
30.6(29) . . .
25.9(27) . . .
36.3(34) . . .
27.9(29) . . .
31.8(32) . . .
33.8(31) . . .
31.1(29) . . .
28.6(28) . . .
31.4(32) . . .
29.0(29) . . .
27.8(27) . . .
25.8(27) . . .
35.3(31) . . .
36.1(34) . . .
36.6(33) . . .
28.9(28) . . .
28.4(30) . . .
29.7(31) . . .
30.5(31) . . .
34.5(32) . . .
35.9(30) . . .
30.9(29) . . .
32.4(33) . . .
28.3(30) . . .
35.5(31) . . .
31.5(29) . . .
31.9(30) . . .
34.2(32) . . .
37.2(31) . . .
42.3(34) . . .
27.5(27) . . .
31.0(30) . . .
35(4) . . .
25.8(29) . . .
23.6(26) . . .
32.8(30) . . .
30.1(29) . . .
27.5(29) . . .
34.7(33) . . .
41.7(33) . . .
28.2(27) . . .
33.9(32) . . .
35(4) . . .
30.7(30) . . .
36.5(32) . . .
40.8(33) . . .
32.5(30) . . .
34.8(33) . . .
37.5(34) . . .
26.0(27) . . .
33.0(30) . . .
33.8(31) . . .
28.3(28) . . .
29.7(30) . . .
34.7(30) . . .
29.5(30) . . .
28.5(28) . . .
30.6(30) . . .
27.2(28) . . .
30.8(29) . . .
38.4(33) . . .
27.9(27) . . .
30.5(30) . . .
36.7(35) . . .
31.5(29) . . .
41.0(33) . . .
46(4) . . .
32.9(30) . . .
41.3(34) . . .
38.7(34) . . .
27.8(27) . . .
30.4(29) . . .
30.2(28) . . .
29.6(29) . . .
26.3(27) . . .
28.8(29) . . .
26.3(27) . . .
32.2(31) . . .
24.6(27) . . .
27.5(28) . . .
34.9(34) . . .
23.5(25) . . .
32.2(31) . . .
35.3(31) . . .
34.1(30) . . .
36.5(33) . . .
25.1(28) . . .
38.5(34) . . .
33.4(31) . . .
40.5(33) . . .
29.4(29) . . .
30.6(32) . . .
34.6(32) . . .
30.2(29) . . .
28.5(27) . . .
34.9(33) . . .
32.8(32) . . .
32.4(30) . . .
33.4(32) . . .
40.2(33) . . .
27.4(27) . . .
36.7(34) . . .
31.5(31) . . .
26.5(27) . . .
21.6(24) . . .
22.6(26) . . .
34.1(33) . . .
28.6(30) . . .
27.9(28) . . .
29.5(29) . . .
39.0(34) . . .
31.2(30) . . .
31.4(30) . . .
34.7(31) . . .
28.2(28) . . .
39.2(35) . . .
33.2(31) . . .
42(4) . . .
23.2(26) . . .
29.1(29) . . .
27.9(29) . . .
34.3(32) . . .
31.2(30) . . .
30.3(29) . . .
28.8(29) . . .
24.3(27) . . .
29.8(30) . . .
33.1(30) . . .
28.3(28) . . .
28.5(28) . . .
32.8(30) . . .
40(4) . . .
32.8(29) . . .
36.0(32) . . .
28.0(28) . . .
36.0(33) . . .
36.6(33) . . .
30.5(30) . . .
33.5(30) . . .
33.5(31) . . .
27.5(29) . . .
31.2(30) . . .
37.6(32) . . .
38.3(33) . . .
33.1(31) . . .
35(4) . . .
25.8(30) . . .
27.1(27) . . .
35.8(33) . . .
34.2(31) . . .
39.8(34) . . .
32.5(30) . . .
29.2(29) . . .
37.7(32) . . .
30.3(29) . . .
29.6(29) . . .
40(4) . . .
30.1(29) . . .
35.3(31) . . .
36.1(34) . . .
34.2(33) . . .
37.1(32) . . .
31.1(29) . . .
36.6(32) . . .
28.9(28) . . .
40(4) . . .
31.4(31) . . .
25.0(27) . . .
35.2(32) . . .
31.0(31) . . .
35.5(31) . . .
29.4(29) . . .
26.3(27) . . .
36.9(33) . . .
30.5(31) . . .
29.7(30) . . .
28.2(28) . . .
30.6(30) . . .
28.2(29) . . .
30.7(29) . . .
40(4) . . .
28.2(27) . . .
34.5(31) . . .
29.2(29) . . .
33.5(31) . . .
31.3(29) . . .
27.9(27) . . .
32.3(30) . . .
32.3(30) . . .
34.8(34) . . .
32.1(31) . . .
31.6(29) . . .
31.7(29) . . .
34.5(31) . . .
40.2(34) . . .
35.4(33) . . .
31.8(30) . . .
25.6(26) . . .
27.8(28) . . .
33.3(33) . . .
30.0(29) . . .
31.5(29) . . .
32.7(31) . . .
32.2(31) . . .
24.4(26) . . .
32.1(30) . . .
31.1(30) . . .
23.8(26) . . .
32.5(31) . . .
29.1(29) . . .
23.3(26) . . .
39.0(33) . . .
33.1(31) . . .
27.1(28) . . .
28.3(29) . . .
32.6(31) . . .
34.3(31) . . .
29.9(29) . . .
30.5(30) . . .
24.1(25) . . .
34.3(32) . . .
31.5(29) . . .
25.3(27) . . .
28.2(29) . . .
25.5(28) . . .
32.1(30) . . .
32.1(30) . . .
33.6(32) . . .
38.9(33) . . .
31.4(30) . . .
35.5(30) . . .
33.4(31) . . .
21.4(24) . . .
31.2(34) . . .
26.0(27) . . .
34.6(31) . . .
31.0(29) . . .
36.3(33) . . .
30.1(31) . . .
27.8(28) . . .
36.3(31) . . .
28.1(27) . . .
32.9(31) . . .
25.4(27) . . .
42(4) . . .
36.9(32) . . .
34.3(31) . . .
26.4(28) . . .
32.0(33) . . .
36(4) . . .
26.3(27) . . .
31.7(30) . . .
45(4) . . .
42(4) . . .
34.4(33) . . .
30.0(29) . . .
47(4) . . .
31.7(29) . . .
25.4(27) . . .
37.0(34) . . .
31.5(29) . . .
26.4(28) . . .
31.9(30) . . .
34.7(32) . . .
29.1(29) . . .
32.0(30) . . .
29.1(28) . . .
34.5(32) . . .
36.3(33) . . .
31.8(32) . . .
32.6(30) . . .
36.5(33) . . .
31.1(32) . . .
33.8(31) . . .
36.4(31) . . .
33.6(30) . . .
30.8(30) . . .
27.7(30) . . .
30.9(30) . . .
27.8(28) . . .
28.2(28) . . .
26.0(26) . . .
38.6(35) . . .
32.2(31) . . .
30.3(29) . . .
35.4(31) . . .
30.0(29) . . .
32.7(31) . . .
37.5(32) . . .
28.7(28) . . .
30.4(29) . . .
35.0(32) . . .
38(4) . . .
26.1(26) . . .
32.0(30) . . .
35.4(31) . . .
32.5(32) . . .
31.0(31) . . .
24.0(26) . . .
30.0(28) . . .
37.2(31) . . .
25.3(26) . . .
24.5(26) . . .
28.0(27) . . .
31.6(29) . . .
26.5(26) . . .
27.0(27) . . .
38(4) . . .
29.8(30) . . .
33.7(30) . . .
25.8(27) . . .
40.0(34) . . .
42(4) . . .
34.7(35) . . .
26.0(27) . . .
31.3(32) . . .
24.5(29) . . .
31.9(31) . . .
34.6(31) . . .
27.6(28) . . .
30.0(32) . . .
29.2(31) . . .
26.7(28) . . .
23.1(26) . . .
31.7(29) . . .
34.4(31) . . .
34.0(32) . . .
30.4(30) . . .
26.5(27) . . .
29.7(29) . . .
29.8(29) . . .
29.8(29) . . .
30.0(30) . . .
27.9(28) . . .
33.6(30) . . .
32.3(32) . . .
25.3(26) . . .
33.2(30) . . .
34.9(31) . . .
31.5(29) . . .
33.7(32) . . .
37.0(33) . . .
35.8(30) . . .
37.2(32) . . .
30.4(29) . . .
26.0(27) . . .
30.9(32) . . .
38.0(34) . . .
30.7(29) . . .
32.3(31) . . .
22.8(25) . . .
26.4(29) . . .
28.4(30) . . .
30.3(29) . . .
31.9(30) . . .
36.8(33) . . .
30.9(30) . . .
35.3(32) . . .
35.1(31) . . .
29.5(31) . . .
25.0(30) . . .
22.6(26) . . .
31.5(30) . . .
30.3(28) . . .
28.4(30) . . .
38.3(34) . . .
35.0(31) . . .
34.1(30) . . .
29.4(29) . . .
27.7(27) . . .
31.0(30) . . .
32.7(32) . . .
23.1(27) . . .
29.5(28) . . .
27.6(27) . . .
35.3(34) . . .
43(4) . . .
28.3(29) . . .
35.6(31) . . .
24.5(26) . . .
32.0(30) . . .
36.8(32) . . .
27.6(27) . . .
27.3(27) . . .
22.4(27) . . .
33.6(35) . . .
29.8(30) . . .
29.6(28) . . .
32.7(30) . . .
28.2(29) . . .
31.2(32) . . .
33.3(31) . . .
37.9(33) . . .
26.7(27) . . .
31.7(30) . . .
38.3(35) . . .
37.6(33) . . .
26.0(27) . . .
29.9(28) . . .
28.2(28) . . .
31.2(31) . . .
32.5(31) . . .
37.5(32) . . .
31.1(29) . . .
32.8(30) . . .
36.4(34) . . .
29.4(28) . . .
36.6(31) . . .
34.5(32) . . .
31.8(30) . . .
33.2(31) . . .
38.7(33) . . .
36.9(32) . . .
26.0(26) . . .
34.5(32) . . .
33.8(31) . . .
30.8(30) . . .
24.3(26) . . .
33.6(32) . . .
28.0(29) . . .
31.9(31) . . .
32.0(31) . . .
30.7(29) . . .
28.3(28) . . .
36.3(31) . . .
32.2(30) . . .
31.7(29) . . .
31.3(30) . . .
32.1(31) . . .
24.5(26) . . .
27.7(28) . . .
29.3(28) . . .
32.4(30) . . .
31.8(30) . . .
35.1(34) . . .
29.3(30) . . .
33.1(30) . . .
27.4(28) . . .
39.8(33) . . .
32.6(30) . . .
24.8(26) . . .
29.9(29) . . .
29.6(28) . . .
34.3(32) . . .
29.3(31) . . .
27.6(28) . . .
33.3(32) . . .
33.7(30) . . .
26.6(27) . . .
26.2(28) . . .
23.5(25) . . .
31.2(29) . . .
26.8(27) . . .
28.3(29) . . .
27.5(28) . . .
32.8(32) . . .
32.2(30) . . .
34.8(31) . . .
38.4(33) . . .
30.4(30) . . .
36.6(32) . . .
33.6(30) . . .
25.5(28) . . .
36.0(33) . . .
27.8(28) . . .
30.0(28) . . .
24.9(26) . . .
35.8(33) . . .
29.8(29) . . .
32.4(33) . . .
24.6(26) . . .
32.7(30) . . .
34.8(32) . . .
29.6(29) . . .
25.0(28) . . .
26.2(27) . . .
28.9(28) . . .
31.9(30) . . .
32.5(31) . . .
36.8(33) . . .
27.1(28) . . .
30.4(29) . . .
40.5(35) . . .
34.1(32) . . .
27.0(27) . . .
38.7(33) . . .
26.9(27) . . .
25.5(26) . . .
34.6(34) . . .
27.9(28) . . .
30.6(29) . . .
34.0(30) . . .
32.2(31) . . .
36(4) . . .
26.6(29) . . .
30.7(29) . . .
25.6(26) . . .
26.4(26) . . .
34.3(34) . . .
26.7(27) . . .
33.7(30) . . .
30.4(30) . . .
32.0(32) . . .
34.9(35) . . .
25.9(29) . . .
26.6(27) . . .
22.2(25) . . .
28.4(29) . . .
29.5(30) . . .
32.1(33) . . .
30.8(29) . . .
29.4(29) . . .
25.6(27) . . .
32.1(33) . . .
28.6(30) . . .
23.1(25) . . .
28.4(29) . . .
26.4(27) . . .
30.3(30) . . .
33.9(32) . . .
27.9(28) . . .
23.3(26) . . .
32.7(32) . . .
31.3(31) . . .
39.9(34) . . .
24.3(26) . . .
40.8(34) . . .
33.5(33) . . .
28.5(28) . . .
26.3(26) . . .
28.8(28) . . .
28.7(28) . . .
30.2(32) . . .
37(4) . . .
33.6(30) . . .
31.6(30) . . .
29.8(30) . . .
38(4) . . .
35.6(34) . . .
33.4(30) . . .
25.8(26) . . .
36.4(33) . . .
29.7(30) . . .
32.8(31) . . .
29.5(29) . . .
35.6(32) . . .
31.9(32) . . .
28.8(33) . . .
30.0(28) . . .
33.9(30) . . .
31.2(29) . . .
32.8(30) . . .
32.8(32) . . .
35.7(32) . . .
34.5(30) . . .
29.0(28) . . .
21.8(24) . . .
28.8(28) . . .
32.7(30) . . .
30.8(30) . . .
31.7(29) . . .
22.3(24) . . .
40.4(34) . . .
32.9(30) . . .
30.7(29) . . .
30.1(29) . . .
26.4(28) . . .
25.0(27) . . .
26.5(28) . . .
34.3(30) . . .
37.0(32) . . .
32.1(30) . . .
28.4(29) . . .
30.4(29) . . .
30.3(29) . . .
37.8(34) . . .
31.4(30) . . .
26.5(28) . . .
32.6(30) . . .
32.9(30) . . .
30.0(29) . . .
33.7(32) . . .
31.8(30) . . .
40.0(34) . . .
26.0(27) . . .
28.2(28) . . .
33.3(33) . . .
29.9(29) . . .
26.8(27) . . .
28.6(28) . . .
30.0(29) . . .
30.8(31) . . .
20.7(23) . . .
25.3(26) . . .
34.0(31) . . .
28.3(30) . . .
29.9(31) . . .
34.1(31) . . .
35.2(31) . . .
36.2(33) . . .
30.7(29) . . .
27.9(29) . . .
33.2(31) . . .
36.8(32) . . .
30.3(29) . . .
29.5(27) . . .
37.3(34) . . .
33.8(31) . . .
27.1(28) . . .
30.1(30) . . .
40.9(35) . . .
30.2(29) . . .
32.6(31) . . .
31.5(29) . . .
33.3(31) . . .
43(4) . . .
28.9(29) . . .
30.6(29) . . .
34.0(31) . . .
34.6(31) . . .
40(4) . . .
33.6(30) . . .
37.1(32) . . .
33.6(31) . . .
29.4(28) . . .
32.3(32) . . .
33.2(33) . . .
28.8(28) . . .
28.7(28) . . .
32.2(32) . . .
25.5(27) . . .
32.4(31) . . .
34.4(31) . . .
29.6(29) . . .
35.9(33) . . .
27.8(30) . . .
35.4(33) . . .
26.7(27) . . .
28.0(28) . . .
39(4) . . .
30.8(31) . . .
35(4) . . .
37.2(32) . . .
25.3(27) . . .
33.9(31) . . .
33.3(33) . . .
28.6(28) . . .
34.2(31) . . .
33.3(30) . . .
31.8(30) . . .
30.6(31) . . .
26.1(29) . . .
21.7(25) . . .
30.6(30) . . .
35.1(34) . . .
29.3(31) . . .
30.8(31) . . .
28.6(27) . . .
30.2(29) . . .
33.0(30) . . .
29.3(28) . . .
42(4) . . .
39.0(33) . . .
32.8(30) . . .
34.4(32) . . .
32.7(33) . . .
26.1(28) . . .
36.7(31) . . .
31.5(30) . . .
30.7(30) . . .
37.2(34) . . .
33.2(31) . . .
29.7(28) . . .
33.3(30) . . .
34.3(34) . . .
32.8(32) . . .
29.3(29) . . .
34.6(30) . . .
20.0(24) . . .
29.2(30) . . .
22.1(25) . . .
36.0(33) . . .
38.3(32) . . .
30.9(31) . . .
29.1(30) . . .
35.0(30) . . .
29.8(29) . . .
29.9(29) . . .
30.0(29) . . .
38(4) . . .
28.8(29) . . .
22.2(24) . . .
22.1(25) . . .
39.5(34) . . .
31.1(30) . . .
28.4(28) . . .
30.0(29) . . .
30.5(29) . . .
30.0(32) . . .
27.3(29) . . .
22.9(26) . . .
28.9(28) . . .
28.1(28) . . .
41.1(35) . . .
36.9(34) . . .
30.7(31) . . .
27.7(28) . . .
33.5(30) . . .
32.8(31) . . .
29.0(29) . . .
25.4(27) . . .
35.9(32) . . .
29.4(29) . . .
40.6(34) . . .
37.7(33) . . .
26.3(26) . . .
29.3(29) . . .
32.9(31) . . .
32.3(32) . . .
42(4) . . .
30.9(30) . . .
31.4(30) . . .
34.2(32) . . .
20.5(26) . . .
30.7(32) . . .
38(4) . . .
25.5(27) . . .
33.9(35) . . .
34.8(32) . . .
38.5(35) . . .
28.5(30) . . .
26.1(27) . . .
27.4(27) . . .
28.4(28) . . .
18.5(22) . . .
37.6(34) . . .
30.5(29) . . .
25.7(26) . . .
30.7(32) . . .
27.1(28) . . .
31.3(29) . . .
44(4) . . .
27.4(27) . . .
30.9(30) . . .
34.7(30) . . .
32.6(30) . . .
30.8(29) . . .
32.8(31) . . .
30.7(31) . . .
26.5(27) . . .
30.5(29) . . .
27.5(28) . . .
32.3(34) . . .
25.4(27) . . .
21.5(25) . . .
25.6(26) . . .
31.1(31) . . .
27.7(29) . . .
34.9(33) . . .
32.0(30) . . .
37.7(32) . . .
32.1(29) . . .
36.8(35) . . .
34.9(32) . . .
40.4(35) . . .
30.2(29) . . .
33.5(31) . . .
42(4) . . .
37.7(34) . . .
25.6(27) . . .
27.3(27) . . .
27.7(28) . . .
30.4(30) . . .
36.3(33) . . .
30.9(29) . . .
23.6(26) . . .
30.3(32) . . .
32.8(31) . . .
30.3(30) . . .
29.5(30) . . .
29.9(28) . . .
27.1(28) . . .
29.5(31) . . .
25.7(26) . . .
35.2(31) . . .
35.5(31) . . .
30.4(28) . . .
28.3(28) . . .
35.7(33) . . .
32.2(30) . . .
23.8(26) . . .
27.2(31) . . .
29.2(30) . . .
37.9(33) . . .
31.3(29) . . .
31.7(29) . . .
31.8(30) . . .
29.7(30) . . .
28.3(29) . . .
32.6(29) . . .
30.0(30) . . .
32.5(29) . . .
36.8(35) . . .
33.3(32) . . .
32.8(31) . . .
29.3(30) . . .
31.3(31) . . .
31.2(30) . . .
23.8(26) . . .
35.4(31) . . .
27.2(29) . . .
27.5(28) . . .
26.9(28) . . .
30.3(31) . . .
32.4(29) . . .
35.5(32) . . .
23.8(26) . . .
28.7(29) . . .
37.0(32) . . .
35.5(30) . . .
33.8(33) . . .
30.1(32) . . .
37.6(33) . . .
33.8(31) . . .
34.6(31) . . .
31.3(31) . . .
40(4) . . .
26.5(28) . . .
30.9(30) . . .
26.3(28) . . .
27.8(27) . . .
34.1(33) . . .
38(4) . . .
34.8(33) . . .
34.1(30) . . .
32.2(31) . . .
32.6(30) . . .
31.7(29) . . .
26.2(27) . . .
29.7(29) . . .
28.4(30) . . .
35.2(34) . . .
34.7(32) . . .
29.3(28) . . .
33.0(30) . . .
33.4(30) . . .
37.7(35) . . .
33.6(32) . . .
30.3(29) . . .
29.8(28) . . .
39.0(33) . . .
30.3(30) . . .
25.1(27) . . .
28.1(29) . . .
33.0(30) . . .
29.6(29) . . .
34.9(33) . . .
28.0(27) . . .
32.0(30) . . .
31.4(30) . . .
31.6(31) . . .
27.2(28) . . .
34.5(31) . . .
30.1(30) . . .
35.0(31) . . .
28.2(28) . . .
31.6(30) . . .
25.5(27) . . .
28.6(28) . . .
32.3(32) . . .
32.3(32) . . .
30.6(30) . . .
42.3(34) . . .
37.7(32) . . .
37.1(32) . . .
30.4(29) . . .
30.3(29) . . .
30.1(29) . . .
21.9(25) . . .
28.7(29) . . .
34.5(33) . . .
29.1(30) . . .
27.2(28) . . .
29.3(28) . . .
26.3(28) . . .
36(4) . . .
31.0(31) . . .
26.0(27) . . .
30.5(29) . . .
35.8(33) . . .
35.8(33) . . .
40.6(34) . . .
38.4(33) . . .
37.4(32) . . .
36.2(33) . . .
30.9(32) . . .
48(4) . . .
35.5(31) . . .
34.3(30) . . .
31.8(32) . . .
31.0(30) . . .
31.1(29) . . .
32.9(31) . . .
30.2(29) . . .
37.3(34) . . .
34.9(33) . . .
36.0(32) . . .
28.8(28) . . .
26.6(27) . . .
29.1(31) . . .
33.1(32) . . .
33.3(30) . . .
24.4(26) . . .
28.5(28) . . .
26.3(27) . . .
27.2(29) . . .
35.8(32) . . .
34.3(31) . . .
29.7(29) . . .
35.7(34) . . .
33.3(32) . . .
25.9(28) . . .
30.2(29) . . .
25.6(27) . . .
36.5(32) . . .
38.2(32) . . .
31.9(29) . . .
24.4(26) . . .
27.2(28) . . .
23.5(28) . . .
34.2(33) . . .
34.7(31) . . .
27.2(28) . . .
29.2(32) . . .
27.0(27) . . .
32.5(31) . . .
32.2(30) . . .
36.9(31) . . .
35.3(32) . . .
37.5(34) . . .
32.8(31) . . .
28.7(28) . . .
36.0(32) . . .
32.8(30) . . .
31.3(31) . . .
38.8(34) . . .
32.7(31) . . .
32.8(30) . . .
32.3(30) . . .
23.6(26) . . .
32.1(30) . . .
37.6(32) . . .
25.6(26) . . .
31.9(30) . . .
34.6(33) . . .
30.5(29) . . .
27.5(28) . . .
35.0(34) . . .
31.3(31) . . .
34.1(32) . . .
39.6(32) . . .
28.7(28) . . .
28.2(28) . . .
28.6(29) . . .
29.9(29) . . .
38.8(34) . . .
36.5(32) . . .
32.0(29) . . .
39(4) . . .
32.5(32) . . .
34.5(32) . . .
39.2(33) . . .
40(4) . . .
37.2(33) . . .
32.4(30) . . .
25.5(26) . . .
26.5(27) . . .
29.1(32) . . .
29.0(30) . . .
29.3(30) . . .
36.4(32) . . .
30.1(28) . . .
31.6(30) . . .
29.9(31) . . .
29.9(30) . . .
30.7(30) . . .
26.8(27) . . .
28.7(29) . . .
23.4(26) . . .
28.3(28) . . .
32.4(29) . . .
28.5(28) . . .
26.6(28) . . .
24.5(26) . . .
31.3(30) . . .
40.1(33) . . .
35.5(31) . . .
29.0(32) . . .
30.3(31) . . .
36.7(33) . . .
30.1(28) . . .
28.9(28) . . .
26.7(28) . . .
31.3(33) . . .
31.3(30) . . .
28.7(28) . . .
31.1(30) . . .
31.6(30) . . .
29.9(29) . . .
32.6(32) . . .
35.3(31) . . .
28.7(29) . . .
31.4(29) . . .
34.3(33) . . .
31.3(29) . . .
27.7(27) . . .
26.6(27) . . .
26.7(28) . . .
37.6(33) . . .
33.8(31) . . .
30.7(29) . . .
37.0(33) . . .
37.2(33) . . .
36.3(32) . . .
35.3(31) . . .
35.4(31) . . .
33.3(31) . . .
28.9(29) . . .
26.7(28) . . .
30.1(30) . . .
33.3(31) . . .
34.8(32) . . .
34.1(35) . . .
28.8(29) . . .
31.0(29) . . .
29.1(28) . . .
24.9(26) . . .
29.4(30) . . .
34(4) . . .
38.9(32) . . .
34.5(30) . . .
38.2(35) . . .
32.2(31) . . .
31.8(30) . . .
26.9(27) . . .
23.6(26) . . .
41(4) . . .
32.6(32) . . .
29.8(28) . . .
29.0(29) . . .
23.3(24) . . .
26.0(30) . . .
32.5(32) . . .
37.0(33) . . .
34.8(32) . . .
40.9(35) . . .
31.7(29) . . .
33.0(32) . . .
27.3(29) . . .
36.2(31) . . .
36.3(33) . . .
37.4(34) . . .
30.8(30) . . .
31.8(31) . . .
29.9(29) . . .
31.1(29) . . .
31.8(30) . . .
28.2(29) . . .
21.3(25) . . .
31.2(29) . . .
34.4(31) . . .
33.4(32) . . .
30.1(30) . . .
30.5(29) . . .
28.1(28) . . .
32.0(32) . . .
29.5(30) . . .
34.5(35) . . .
31.2(30) . . .
27.5(28) . . .
24.8(26) . . .
29.2(29) . . .
30.0(30) . . .
28.9(28) . . .
31.5(29) . . .
33.4(31) . . .
30.7(32) . . .
25.0(26) . . .
28.7(28) . . .
31.9(30) . . .
27.6(30) . . .
21.9(26) . . .
32.8(31) . . .
32.4(29) . . .
29.8(28) . . .
30.0(30) . . .
19.0(22) . . .
25.0(27) . . .
23.1(25) . . .
25.8(26) . . .
23.8(28) . . .
32.5(33) . . .
28.8(27) . . .
35.4(31) . . .
35.5(31) . . .
33.1(31) . . .
26.7(29) . . .
26.8(29) . . .
28.1(27) . . .
29.3(29) . . .
31.1(30) . . .
27.0(27) . . .
33.7(32) . . .
33.4(30) . . .
26.9(27) . . .
35.6(34) . . .
32.9(30) . . .
23.2(26) . . .
26.3(27) . . .
30.5(29) . . .
31.8(30) . . .
24.6(26) . . .
26.2(27) . . .
27.6(28) . . .
32.3(30) . . .
23.5(24) . . .
32.5(31) . . .
33.6(30) . . .
33.7(30) . . .
33.2(31) . . .
35.3(32) . . .
28.2(29) . . .
28.9(29) . . .
23.6(25) . . .
27.8(28) . . .
28.9(29) . . .
29.7(30) . . .
32.2(31) . . .
35.5(31) . . .
23.9(26) . . .
24.9(27) . . .
30.1(30) . . .
29.9(28) . . .
33.8(30) . . .
27.8(31) . . .
37(4) . . .
23.4(25) . . .
32.3(31) . . .
32.4(31) . . .
24.5(26) . . .
33.0(32) . . .
35.5(34) . . .
27.9(28) . . .
31.1(30) . . .
22.3(24) . . .
27.7(30) . . .
28.3(28) . . .
29.1(28) . . .
28.4(28) . . .
23.4(26) . . .
28.8(30) . . .
22.1(25) . . .
27.1(27) . . .
33.0(31) . . .
30.8(30) . . .
22.9(24) . . .
33.6(31) . . .
28.6(28) . . .
22.3(25) . . .
30.8(30) . . .
30.0(29) . . .
35.7(32) . . .
31.8(29) . . .
38.3(32) . . .
29.9(33) . . .
24.8(27) . . .
32.4(32) . . .
33.3(30) . . .
36.7(34) . . .
30.0(29) . . .
33.1(31) . . .
31.9(31) . . .
25.9(27) . . .
37.8(34) . . .
32.9(32) . . .
28.9(29) . . .
27.2(27) . . .
22.4(26) . . .
35.5(32) . . .
30.3(30) . . .
32.5(32) . . .
26.8(27) . . .
29.5(28) . . .
34.3(32) . . .
32.2(33) . . .
21.2(26) . . .
26.8(27) . . .
31.9(29) . . .
35.1(32) . . .
34.2(33) . . .
28.3(28) . . .
38.9(32) . . .
30.2(29) . . .
31.2(29) . . .
28.0(28) . . .
33.7(33) . . .
31.4(29) . . .
41.7(33) . . .
45(4) . . .
25.4(29) . . .
30.5(30) . . .
29.0(28) . . .
32.8(32) . . .
27.4(27) . . .
29.1(29) . . .
26.7(30) . . .
27.6(27) . . .
28.7(28) . . .
27.0(28) . . .
32.0(32) . . .
26.0(28) . . .
31.3(29) . . .
36.5(32) . . .
35.4(33) . . .
33.0(31) . . .
30.2(29) . . .
29.3(28) . . .
30.8(31) . . .
30.8(32) . . .
32.7(33) . . .
32.0(31) . . .
27.7(28) . . .
29.8(29) . . .
39(4) . . .
27.7(28) . . .
26.0(27) . . .
32.1(29) . . .
29.4(29) . . .
32.8(32) . . .
27.2(27) . . .
24.2(26) . . .
33.6(30) . . .
31.0(31) . . .
30.5(30) . . .
26.3(26) . . .
25.1(26) . . .
38.4(33) . . .
29.9(29) . . .
30.9(30) . . .
33.0(30) . . .
33.8(33) . . .
32.8(29) . . .
33.2(31) . . .
27.6(28) . . .
22.3(24) . . .
30.5(29) . . .
30.9(28) . . .
34.0(34) . . .
35.1(35) . . .
34.6(33) . . .
30.9(30) . . .
35.5(30) . . .
33.5(33) . . .
36.0(35) . . .
30.9(31) . . .
27.5(27) . . .
20.2(24) . . .
36.4(34) . . .
37.3(34) . . .
30.7(29) . . .
29.2(28) . . .
32.9(31) . . .
30.6(29) . . .
38.5(33) . . .
34.0(31) . . .
27.8(28) . . .
29.2(28) . . .
31.2(30) . . .
27.4(28) . . .
31.1(30) . . .
32.3(30) . . .
35.6(32) . . .
27.9(29) . . .
28.4(29) . . .
29.6(28) . . .
26.9(28) . . .
28.1(28) . . .
38.9(35) . . .
35.7(31) . . .
24.8(26) . . .
25.1(26) . . .
32.9(33) . . .
29.9(30) . . .
34.7(31) . . .
29.8(29) . . .
29.7(28) . . .
38(4) . . .
37.6(32) . . .
37.5(33) . . .
36.4(31) . . .
28.8(28) . . .
24.2(28) . . .
25.2(28) . . .
36.8(33) . . .
33.9(31) . . .
30.0(29) . . .
29.4(30) . . .
32.6(33) . . .
32.8(31) . . .
31.5(29) . . .
32.3(31) . . .
27.5(28) . . .
30.5(31) . . .
31.6(30) . . .
32.8(30) . . .
32.2(30) . . .
29.8(29) . . .
30.6(30) . . .
32.7(30) . . .
35.8(31) . . .
42.3(35) . . .
32.3(31) . . .
29.1(29) . . .
27.6(30) . . .
35.9(31) . . .
24.5(28) . . .
32.2(31) . . .
24.8(25) . . .
23.9(26) . . .
29.2(29) . . .
28.1(28) . . .
31.3(30) . . .
24.1(26) . . .
29.7(28) . . .
35.6(32) . . .
36.3(31) . . .
35.8(32) . . .
37.4(35) . . .
23.9(27) . . .
28.1(28) . . .
35.5(33) . . .
35.8(33) . . .
32.9(30) . . .
40.8(33) . . .
38.1(34) . . .
32.0(32) . . .
32.7(32) . . .
25.0(28) . . .
22.0(25) . . .
34.7(31) . . .
30.0(29) . . .
23.0(25) . . .
30.5(30) . . .
30.6(29) . . .
30.0(29) . . .
34.2(32) . . .
35.9(33) . . .
34.1(31) . . .
31.2(29) . . .
29.1(29) . . .
24.9(27) . . .
28.2(29) . . .
26.1(29) . . .
24.6(26) . . .
33.4(31) . . .
35.2(33) . . .
30.6(30) . . .
32.6(30) . . .
27.3(27) . . .
26.3(26) . . .
35.3(32) . . .
30.5(31) . . .
28.8(30) . . .
39.1(33) . . .
25.5(26) . . .
36.5(33) . . .
38.1(34) . . .
29.8(28) . . .
28.0(27) . . .
34.2(32) . . .
27.8(29) . . .
26.9(28) . . .
40.8(34) . . .
33.0(30) . . .
32.6(31) . . .
33.0(33) . . .
34.6(33) . . .
28.6(28) . . .
33.9(30) . . .
27.9(28) . . .
36.7(33) . . .
38.1(33) . . .
29.8(28) . . .
26.4(26) . . .
36.4(33) . . .
33.4(32) . . .
37.0(33) . . .
29.8(28) . . .
28.8(29) . . .
34.2(32) . . .
26.7(29) . . .
26.5(27) . . .
28.9(27) . . .
24.3(26) . . .
23.4(25) . . .
28.7(31) . . .
29.7(29) . . .
33.6(30) . . .
31.2(29) . . .
26.3(27) . . .
31.7(30) . . .
34.1(31) . . .
27.7(27) . . .
28.3(28) . . .
35.3(32) . . .
32.7(30) . . .
30.9(29) . . .
29.6(28) . . .
32.3(30) . . .
33.6(31) . . .
32.4(31) . . .
21.3(24) . . .
30.8(29) . . .
34.6(30) . . .
34.6(32) . . .
42(4) . . .
35.7(32) . . .
27.4(27) . . .
30.8(33) . . .
27.7(30) . . .
24.5(26) . . .
32.5(30) . . .
30.4(29) . . .
27.4(29) . . .
32.8(30) . . .
36.6(31) . . .
31.2(29) . . .
29.8(28) . . .
25.3(28) . . .
25.6(29) . . .
34.5(33) . . .
32.1(29) . . .
30.6(29) . . .
27.7(28) . . .
30.9(32) . . .
26.3(29) . . .
30.1(30) . . .
35.3(31) . . .
40.7(34) . . .
33.3(32) . . .
31.8(31) . . .
27.4(27) . . .
38.0(32) . . .
40.3(34) . . .
23.7(26) . . .
24.2(26) . . .
25.9(27) . . .
24.9(26) . . .
31.9(31) . . .
30.6(30) . . .
27.6(28) . . .
34.5(31) . . .
29.5(28) . . .
35.9(32) . . .
34.9(31) . . .
37.1(33) . . .
26.2(29) . . .
30.5(30) . . .
26.1(29) . . .
27.0(29) . . .
31.4(30) . . .
25.6(27) . . .
23.7(25) . . .
31.3(29) . . .
33.1(30) . . .
37.7(32) . . .
32.1(30) . . .
26.7(31) . . .
26.2(30) . . .
32.7(33) . . .
26.1(27) . . .
28.7(28) . . .
32.2(29) . . .
26.8(28) . . .
36.3(35) . . .
29.9(28) . . .
37.8(32) . . .
36.8(33) . . .
33.8(32) . . .
33.9(30) . . .
32.3(30) . . .
33.2(30) . . .
34.2(31) . . .
24.8(27) . . .
33.9(32) . . .
30.0(29) . . .
33.9(31) . . .
30.7(31) . . .
29.7(29) . . .
30.0(30) . . .
25.1(26) . . .
35.1(31) . . .
28.0(29) . . .
30.9(32) . . .
25.7(27) . . .
26.5(27) . . .
32.8(31) . . .
29.3(28) . . .
31.6(31) . . .
34.7(32) . . .
35.6(31) . . .
30.8(30) . . .
30.5(29) . . .
28.3(30) . . .
28.8(29) . . .
24.3(26) . . .
26.4(27) . . .
27.0(28) . . .
28.4(30) . . .
30.8(32) . . .
32.2(30) . . .
31.1(30) . . .
29.1(30) . . .
36.8(33) . . .
35.8(32) . . .
22.9(25) . . .
25.0(26) . . .
27.1(28) . . .
27.8(29) . . .
24.2(25) . . .
33.3(31) . . .
29.8(30) . . .
24.0(26) . . .
28.6(30) . . .
29.8(29) . . .
28.4(28) . . .
30.8(29) . . .
30.4(30) . . .
32.7(32) . . .
30.5(29) . . .
22.9(25) . . .
28.8(29) . . .
20.2(23) . . .
26.0(30) . . .
29.6(28) . . .
36.0(32) . . .
28.4(29) . . .
28.7(30) . . .
30.1(30) . . .
24.4(26) . . .
32.0(29) . . .
34.9(32) . . .
27.0(28) . . .
29.1(28) . . .
27.0(28) . . .
29.7(29) . . .
34.2(31) . . .
32.5(32) . . .
27.8(28) . . .
25.1(26) . . .
24.6(26) . . .
33.9(32) . . .
38(4) . . .
35.4(33) . . .
30.8(28) . . .
30.2(29) . . .
29.4(29) . . .
37.0(35) . . .
39.7(34) . . .
35.0(31) . . .
34.6(31) . . .
27.9(29) . . .
29.2(30) . . .
36.3(34) . . .
37.2(32) . . .
31.6(31) . . .
26.8(28) . . .
27.0(28) . . .
32.8(30) . . .
34.5(31) . . .
33.4(31) . . .
29.9(29) . . .
35.5(32) . . .
31.1(29) . . .
29.8(29) . . .
25.3(27) . . .
29.6(30) . . .
30.8(31) . . .
27.6(28) . . .
29.0(29) . . .
35.2(32) . . .
34.9(34) . . .
28.9(28) . . .
27.7(28) . . .
27.1(27) . . .
28.9(28) . . .
37(4) . . .
42(4) . . .
33.0(32) . . .
33.2(31) . . .
31.2(30) . . .
28.0(28) . . .
30.6(29) . . .
28.3(28) . . .
27.5(28) . . .
21.3(24) . . .
22.8(27) . . .
26.0(27) . . .
21.1(24) . . .
30.6(30) . . .
31.2(31) . . .
21.7(25) . . .
27.3(28) . . .
26.1(27) . . .
30.4(30) . . .
31.9(31) . . .
24.6(27) . . .
22.9(27) . . .
27.8(27) . . .
36.4(34) . . .
27.7(29) . . .
25.5(28) . . .
37.1(33) . . .
28.0(28) . . .
28.5(28) . . .
25.4(28) . . .
30.1(31) . . .
33.5(31) . . .
36.4(32) . . .
32.3(30) . . .
30.9(31) . . .
26.8(28) . . .
27.0(26) . . .
39.4(33) . . .
32.4(31) . . .
32.8(32) . . .
33.4(30) . . .
32.9(30) . . .
29.0(28) . . .
33.8(32) . . .
28.3(29) . . .
29.5(31) . . .
30.2(31) . . .
24.9(26) . . .
33.4(34) . . .
28.0(28) . . .
29.6(29) . . .
32.4(30) . . .
27.7(27) . . .
25.4(27) . . .
30.1(31) . . .
25.0(26) . . .
29.4(28) . . .
28.6(27) . . .
27.0(28) . . .
30.5(33) . . .
25.0(26) . . .
29.5(28) . . .
27.0(27) . . .
28.5(29) . . .
27.2(30) . . .
34.0(31) . . .
33.7(32) . . .
39.8(34) . . .
33.6(32) . . .
27.5(29) . . .
21.3(25) . . .
30.9(29) . . .
37.3(32) . . .
37.4(33) . . .
30.5(32) . . .
36.7(33) . . .
39.1(32) . . .
28.7(29) . . .
32.7(33) . . .
23.9(27) . . .
28.0(29) . . .
25.2(26) . . .
29.4(29) . . .
32.0(31) . . .
30.4(29) . . .
32.6(30) . . .
31.6(29) . . .
27.2(28) . . .
26.7(30) . . .
32.8(32) . . .
29.8(29) . . .
25.6(27) . . .
26.2(27) . . .
27.5(31) . . .
26.9(29) . . .
28.0(29) . . .
26.0(27) . . .
29.5(29) . . .
29.1(29) . . .
30.9(31) . . .
36.0(31) . . .
31.8(31) . . .
32.9(32) . . .
33.6(34) . . .
36.2(33) . . .
32.0(30) . . .
30.5(29) . . .
34.2(33) . . .
29.2(32) . . .
20.2(25) . . .
31.0(29) . . .
27.9(28) . . .
38.3(35) . . .
38.2(34) . . .
34.1(31) . . .
36.2(31) . . .
31.2(29) . . .
26.3(27) . . .
34.2(34) . . .
25.3(27) . . .
30.3(29) . . .
31.5(29) . . .
28.1(32) . . .
27.0(28) . . .
28.4(33) . . .
22.8(25) . . .
29.9(29) . . .
39.1(34) . . .
27.5(27) . . .
21.3(24) . . .
30.5(28) . . .
29.0(30) . . .
23.6(26) . . .
30.4(30) . . .
31.1(29) . . .
38.8(32) . . .
32.3(30) . . .
34.1(31) . . .
32.8(31) . . .
36.6(32) . . .
34.9(31) . . .
32.7(34) . . .
32.7(32) . . .
26.5(26) . . .
34.9(31) . . .
27.2(27) . . .
29.6(31) . . .
23.0(27) . . .
28.5(29) . . .
29.7(28) . . .
28.0(27) . . .
32.5(33) . . .
33.5(34) . . .
19.8(25) . . .
43(4) . . .
33.3(30) . . .
30.8(29) . . .
29.4(30) . . .
32.7(32) . . .
28.0(29) . . .
33.6(31) . . .
27.4(29) . . .
33.0(32) . . .
30.3(30) . . .
29.7(28) . . .
30.4(29) . . .
38(4) . . .
34.3(31) . . .
34.2(31) . . .
28.5(27) . . .
28.5(28) . . .
26.4(27) . . .
28.9(28) . . .
29.1(28) . . .
34.9(31) . . .
33.2(30) . . .
38.9(34) . . .
31.6(31) . . .
30.7(29) . . .
27.1(28) . . .
29.0(29) . . .
26.7(28) . . .
37.4(35) . . .
28.2(28) . . .
27.1(28) . . .
26.6(27) . . .
32.5(33) . . .
31.3(31) . . .
28.7(28) . . .
33.7(30) . . .
26.8(28) . . .
29.2(30) . . .
27.2(28) . . .
29.0(28) . . .
29.2(28) . . .
26.9(27) . . .
31.7(32) . . .
33.8(33) . . .
21.9(25) . . .
26.1(26) . . .
32.2(32) . . .
26.0(27) . . .
30.2(29) . . .
29.5(28) . . .
32.2(30) . . .
28.6(29) . . .
28.3(29) . . .
30.0(29) . . .
38.7(32) . . .
36.9(32) . . .
27.8(28) . . .
28.8(29) . . .
34.1(33) . . .
26.0(27) . . .
24.9(26) . . .
32.6(31) . . .
28.9(28) . . .
30.3(31) . . .
28.6(28) . . .
22.4(25) . . .
23.6(26) . . .
34.2(32) . . .
29.8(30) . . .
23.6(25) . . .
28.7(29) . . .
28.2(29) . . .
26.4(28) . . .
26.8(28) . . .
28.9(28) . . .
35.8(31) . . .
33.0(30) . . .
35.4(33) . . .
31.8(30) . . .
35.3(30) . . .
33.1(32) . . .
31.7(31) . . .
25.9(26) . . .
33.1(32) . . .
35.2(31) . . .
41(4) . . .
36.3(34) . . .
35.1(33) . . .
26.6(27) . . .
22.3(25) . . .
25.7(27) . . .
38(4) . . .
28.4(29) . . .
25.8(27) . . .
25.5(26) . . .
27.1(28) . . .
32.3(31) . . .
34.2(33) . . .
23.7(26) . . .
31.0(29) . . .
30.0(30) . . .
33.5(32) . . .
30.8(29) . . .
29.7(29) . . .
26.7(27) . . .
32.1(31) . . .
21.2(26) . . .
28.4(29) . . .
34.0(30) . . .
23.5(26) . . .
34.5(35) . . .
30.8(32) . . .
27.5(28) . . .
29.3(28) . . .
30.9(29) . . .
37.2(32) . . .
37.8(33) . . .
29.1(30) . . .
24.4(26) . . .
32.8(30) . . .
35.9(33) . . .
28.8(28) . . .
37.0(31) . . .
33.8(30) . . .
27.0(27) . . .
31.2(30) . . .
33.1(32) . . .
30.0(30) . . .
30.0(29) . . .
30.6(30) . . .
26.9(29) . . .
31.3(33) . . .
25.2(27) . . .
26.1(27) . . .
26.6(29) . . .
28.8(31) . . .
26.3(29) . . .
29.4(29) . . .
30.2(29) . . .
42(4) . . .
43(4) . . .
34.3(33) . . .
31.9(31) . . .
31.4(29) . . .
18.5(22) . . .
23.4(26) . . .
25.4(27) . . .
28.9(30) . . .
28.7(28) . . .
24.3(25) . . .
30.4(31) . . .
40(4) . . .
35.7(31) . . .
31.7(31) . . .
26.0(28) . . .
36.8(35) . . .
23.9(26) . . .
20.6(23) . . .
32.9(30) . . .
30.6(30) . . .
30.8(30) . . .
31.3(29) . . .
28.8(28) . . .
32.2(31) . . .
25.1(26) . . .
33.2(31) . . .
32.7(30) . . .
33.5(30) . . .
27.3(28) . . .
29.1(31) . . .
27.3(32) . . .
25.1(27) . . .
27.7(28) . . .
35.0(31) . . .
35.1(33) . . .
31.5(31) . . .
32.4(32) . . .
24.6(26) . . .
31.5(30) . . .
30.9(29) . . .
35.3(33) . . .
28.1(27) . . .
29.4(28) . . .
26.5(27) . . .
23.3(27) . . .
26.8(27) . . .
36.1(32) . . .
27.8(27) . . .
30.7(28) . . .
29.1(29) . . .
33.5(31) . . .
34.0(30) . . .
29.3(28) . . .
24.4(25) . . .
25.2(28) . . .
26.1(28) . . .
30.8(29) . . .
32.5(30) . . .
29.9(28) . . .
35.2(32) . . .
31.4(31) . . .
27.0(29) . . .
31.7(31) . . .
30.8(30) . . .
28.5(28) . . .
34.1(31) . . .
38.1(33) . . .
32.5(29) . . .
31.3(29) . . .
27.7(30) . . .
29.8(31) . . .
30.3(29) . . .
26.5(28) . . .
34.3(31) . . .
28.4(30) . . .
28.2(31) . . .
23.7(26) . . .
27.8(28) . . .
34.2(32) . . .
29.4(30) . . .
36.9(34) . . .
37.2(31) . . .
32.8(31) . . .
30.1(30) . . .
26.8(29) . . .
20.4(24) . . .
28.7(28) . . .
29.3(29) . . .
34.8(34) . . .
31.0(32) . . .
20.6(23) . . .
23.6(26) . . .
27.3(28) . . .
30.2(29) . . .
28.4(29) . . .
28.9(29) . . .
28.6(28) . . .
23.8(26) . . .
31.8(32) . . .
26.1(28) . . .
33.9(32) . . .
30.3(28) . . .
30.1(29) . . .
33.2(33) . . .
26.9(28) . . .
30.2(29) . . .
33.5(31) . . .
36.2(33) . . .
26.1(28) . . .
25.4(27) . . .
33.8(31) . . .
31.3(30) . . .
24.5(26) . . .
36(4) . . .
29.8(31) . . .
28.6(28) . . .
29.7(28) . . .
31.1(29) . . .
26.4(30) . . .
28.4(30) . . .
33.0(30) . . .
34.5(32) . . .
39.3(34) . . .
30.0(29) . . .
27.3(27) . . .
33.8(30) . . .
35.9(32) . . .
30.4(32) . . .
32.0(32) . . .
27.9(29) . . .
26.7(27) . . .
40(4) . . .
34.4(32) . . .
23.7(25) . . .
28.7(30) . . .
25.5(26) . . .
29.0(29) . . .
29.0(29) . . .
27.9(28) . . .
29.6(31) . . .
25.3(26) . . .
29.3(28) . . .
31.6(32) . . .
32.5(33) . . .
27.7(28) . . .
25.2(26) . . .
28.3(29) . . .
28.8(30) . . .
33.1(32) . . .
27.3(27) . . .
26.9(27) . . .
29.2(31) . . .
28.2(31) . . .
28.5(28) . . .
33.9(31) . . .
34.5(31) . . .
34.7(31) . . .
34.3(31) . . .
28.9(29) . . .
24.8(27) . . .
31.7(29) . . .
25.9(27) . . .
31.8(31) . . .
33.7(30) . . .
34.5(30) . . .
32.8(30) . . .
35.6(33) . . .
30.0(31) . . .
24.0(27) . . .
37.1(33) . . .
25.9(27) . . .
33.9(32) . . .
27.0(29) . . .
36.4(33) . . .
29.5(29) . . .
33.8(30) . . .
31.4(30) . . .
27.3(29) . . .
24.0(26) . . .
23.6(26) . . .
30.2(28) . . .
32.1(30) . . .
31.5(30) . . .
30.2(30) . . .
30.1(29) . . .
26.9(27) . . .
34.0(31) . . .
31.0(29) . . .
38(4) . . .
29.2(28) . . .
29.6(28) . . .
30.3(29) . . .
35.8(34) . . .
28.8(29) . . .
28.0(28) . . .
27.8(28) . . .
29.0(29) . . .
28.6(28) . . .
24.5(26) . . .
36.5(31) . . .
25.2(26) . . .
22.7(25) . . .
35.0(34) . . .
34.5(31) . . .
34.0(31) . . .
24.5(26) . . .
25.4(26) . . .
23.6(25) . . .
31.6(30) . . .
27.8(27) . . .
30.1(29) . . .
29.8(30) . . .
36.4(35) . . .
27.7(27) . . .
27.7(27) . . .
29.1(30) . . .
28.1(30) . . .
29.7(28) . . .
26.6(27) . . .
22.6(24) . . .
29.6(28) . . .
37(4) . . .
34.6(33) . . .
29.8(28) . . .
27.5(27) . . .
28.0(28) . . .
36(4) . . .
29.8(29) . . .
26.9(28) . . .
24.8(26) . . .
29.3(29) . . .
43(4) . . .
25.9(26) . . .
28.2(28) . . .
28.0(28) . . .
28.6(28) . . .
33.1(32) . . .
29.0(29) . . .
29.7(28) . . .
26.6(27) . . .
30.9(31) . . .
30.0(30) . . .
30.4(29) . . .
23.8(25) . . .
35.5(32) . . .
24.1(26) . . .
27.3(28) . . .
28.3(27) . . .
23.7(26) . . .
30.2(30) . . .
30.2(28) . . .
33.7(31) . . .
36.4(31) . . .
31.1(29) . . .
30.4(30) . . .
27.8(29) . . .
26.7(27) . . .
33.2(30) . . .
32.9(30) . . .
42(4) . . .
28.8(32) . . .
26.5(30) . . .
36.7(32) . . .
24.6(26) . . .
44(4) . . .
32.1(32) . . .
35.6(34) . . .
24.5(26) . . .
28.9(28) . . .
30.1(29) . . .
37.7(33) . . .
31.8(30) . . .
33.0(30) . . .
34.3(31) . . .
31.1(29) . . .
30.4(31) . . .
38.7(33) . . .
35.1(31) . . .
40.3(33) . . .
32.7(31) . . .
23.8(26) . . .
37.0(33) . . .
31.1(29) . . .
42(4) . . .
36.9(34) . . .
28.7(29) . . .
29.3(28) . . .
27.0(27) . . .
27.3(27) . . .
36.0(32) . . .
33.1(31) . . .
30.8(30) . . .
31.0(29) . . .
24.2(27) . . .
32.7(31) . . .
33.3(29) . . .
27.2(27) . . .
37.7(32) . . .
35.0(32) . . .
33.7(32) . . .
32.8(32) . . .
29.3(28) . . .
28.0(28) . . .
30.1(29) . . .
27.8(31) . . .
23.7(26) . . .
31.3(29) . . .
28.6(28) . . .
26.3(28) . . .
29.3(29) . . .
36.1(35) . . .
29.8(28) . . .
26.4(27) . . .
29.9(29) . . .
32.9(34) . . .
32.0(30) . . .
32.0(29) . . .
30.4(28) . . .
35.0(32) . . .
33(4) . . .
28.3(28) . . .
31.8(30) . . .
30.1(29) . . .
28.6(31) . . .
29.7(29) . . .
20.9(25) . . .
34.6(31) . . .
28.5(28) . . .
23.8(26) . . .
32.2(31) . . .
27.9(27) . . .
36.5(31) . . .
28.4(28) . . .
30.4(29) . . .
27.5(30) . . .
31.3(30) . . .
29.5(28) . . .
31.4(30) . . .
34.3(32) . . .
28.9(30) . . .
29.4(30) . . .
32.1(29) . . .
29.0(28) . . .
26.4(27) . . .
22.9(24) . . .
37.3(33) . . .
28.8(28) . . .
31.8(30) . . .
34.5(32) . . .
29.4(29) . . .
24.0(26) . . .
27.0(28) . . .
26.6(27) . . .
37.6(33) . . .
31.0(30) . . .
28.5(29) . . .
26.6(28) . . .
31.2(30) . . .
26.4(28) . . .
32.4(30) . . .
30.6(28) . . .
33.8(32) . . .
32.5(31) . . .
28.7(31) . . .
28.9(30) . . .
27.6(27) . . .
28.7(28) . . .
33.7(32) . . .
31.8(29) . . .
36.0(32) . . .
37.7(32) . . .
25.0(26) . . .
36.5(34) . . .
30.3(31) . . .
28.1(28) . . .
29.4(29) . . .
25.0(26) . . .
27.1(27) . . .
29.2(30) . . .
33.3(31) . . .
27.1(28) . . .
39.9(34) . . .
28.1(28) . . .
25.9(27) . . .
27.9(27) . . .
31.0(29) . . .
28.8(28) . . .
35.9(35) . . .
30.2(29) . . .
30.4(30) . . .
29.5(28) . . .
35.8(31) . . .
29.9(28) . . .
29.4(30) . . .
23.9(27) . . .
25.2(26) . . .
32.5(33) . . .
32.1(32) . . .
30.7(31) . . .
36.8(32) . . .
31.5(29) . . .
28.7(29) . . .
32.4(33) . . .
33.6(33) . . .
30.9(30) . . .
23.7(25) . . .
28.1(29) . . .
33.3(34) . . .
27.4(27) . . .
25.9(27) . . .
29.6(29) . . .
23.6(26) . . .
28.9(31) . . .
28.0(27) . . .
32.2(29) . . .
38.3(33) . . .
34.5(32) . . .
23.8(27) . . .
26.1(27) . . .
33.3(30) . . .
23.8(25) . . .
28.3(28) . . .
31.8(30) . . .
28.4(27) . . .
27.5(28) . . .
31.3(29) . . .
35(4) . . .
35(4) . . .
28.3(29) . . .
32.1(30) . . .
32.9(31) . . .
33.9(31) . . .
37.6(35) . . .
25.0(26) . . .
34.6(30) . . .
21.3(24) . . .
26.0(29) . . .
31.4(31) . . .
31.1(29) . . .
30.6(29) . . .
33.1(30) . . .
28.4(27) . . .
33.7(31) . . .
32.8(31) . . .
35.2(31) . . .
34.8(31) . . .
33.4(32) . . .
30.5(29) . . .
33.6(30) . . .
43.1(35) . . .
29.7(29) . . .
23.0(26) . . .
29.1(29) . . .
25.6(26) . . .
26.6(27) . . .
33.1(31) . . .
31.6(33) . . .
30.1(32) . . .
35.5(32) . . .
32.5(30) . . .
27.9(28) . . .
29.8(31) . . .
28.8(29) . . .
31.6(30) . . .
24.8(26) . . .
28.3(29) . . .
31.8(31) . . .
27.8(28) . . .
30.7(29) . . .
27.6(28) . . .
26.0(29) . . .
29.6(31) . . .
35.3(32) . . .
33.7(31) . . .
37.4(31) . . .
26.5(27) . . .
26.0(28) . . .
29.7(29) . . .
33.8(30) . . .
28.9(28) . . .
26.5(27) . . .
31.3(30) . . .
33.3(31) . . .
41.3(33) . . .
32.7(30) . . .
35.2(32) . . .
23.6(26) . . .
40(4) . . .
37.4(33) . . .
35.1(32) . . .
33.8(31) . . .
30.9(31) . . .
32.9(31) . . .
25.7(26) . . .
29.0(32) . . .
25.3(28) . . .
29.5(29) . . .
29.7(28) . . .
32.0(29) . . .
27.6(28) . . .
30.6(32) . . .
29.8(33) . . .
31.1(29) . . .
30.7(29) . . .
32.5(30) . . .
32.5(30) . . .
31.8(30) . . .
28.6(28) . . .
35.4(31) . . .
25.8(27) . . .
32.3(34) . . .
23.4(27) . . .
32.0(30) . . .
25.9(26) . . .
37.4(33) . . .
29.7(31) . . .
25.8(27) . . .
31.3(30) . . .
34.6(31) . . .
25.7(29) . . .
24.2(30) . . .
25.8(27) . . .
27.5(28) . . .
29.0(28) . . .
28.0(28) . . .
27.2(29) . . .
29.4(29) . . .
25.5(27) . . .
38.3(32) . . .
25.5(28) . . .
22.6(27) . . .
25.7(26) . . .
37.2(32) . . .
38.6(33) . . .
27.6(28) . . .
25.3(27) . . .
37.3(34) . . .
32.8(30) . . .
28.3(28) . . .
34.7(33) . . .
28.4(29) . . .
30.0(28) . . .
30.2(29) . . .
26.2(27) . . .
33.9(32) . . .
31.8(30) . . .
28.0(27) . . .
29.9(28) . . .
45(4) . . .
32.5(30) . . .
28.9(29) . . .
33.5(31) . . .
28.4(28) . . .
28.5(31) . . .
27.0(28) . . .
29.3(28) . . .
33.1(30) . . .
39.4(33) . . .
33.3(33) . . .
31.4(32) . . .
32.5(30) . . .
26.0(26) . . .
31.4(29) . . .
26.8(27) . . .
30.3(32) . . .
29.2(30) . . .
30.0(29) . . .
31.6(29) . . .
26.1(27) . . .
35.3(33) . . .
30.2(32) . . .
30.3(29) . . .
22.1(24) . . .
25.5(26) . . .
31.9(32) . . .
26.3(28) . . .
32.9(30) . . .
26.1(28) . . .
26.7(28) . . .
35.4(35) . . .
23.3(26) . . .
30.6(29) . . .
22.2(25) . . .
32.9(31) . . .
23.5(26) . . .
30.4(30) . . .
23.9(26) . . .
34.5(31) . . .
29.3(29) . . .
38(4) . . .
25.6(26) . . .
32.6(30) . . .
28.7(29) . . .
25.2(29) . . .
28.2(31) . . .
29.3(28) . . .
29.5(29) . . .
31.9(30) . . .
33.8(32) . . .
34.2(32) . . .
37.2(34) . . .
26.4(27) . . .
35.2(32) . . .
28.9(30) . . .
27.4(28) . . .
26.2(26) . . .
38.1(33) . . .
28.5(28) . . .
26.3(28) . . .
29.5(29) . . .
28.6(29) . . .
29.3(28) . . .
25.9(27) . . .
35.8(33) . . .
29.1(27) . . .
39.7(33) . . .
34.8(30) . . .
22.0(25) . . .
22.3(27) . . .
28.9(28) . . .
33.6(30) . . .
30.1(29) . . .
30.3(29) . . .
29.3(31) . . .
30.6(29) . . .
30.7(29) . . .
22.7(25) . . .
33.0(33) . . .
27.3(31) . . .
30.9(32) . . .
28.3(29) . . .
24.3(25) . . .
28.7(29) . . .
32.2(32) . . .
25.3(26) . . .
34.5(31) . . .
34.6(31) . . .
25.6(27) . . .
29.0(29) . . .
32.6(30) . . .
29.7(29) . . .
25.0(27) . . .
33.3(32) . . .
33.0(33) . . .
29.3(28) . . .
27.6(27) . . .
32.9(32) . . .
27.9(29) . . .
31.6(31) . . .
31.5(30) . . .
27.6(28) . . .
35.0(34) . . .
33.5(33) . . .
35.5(32) . . .
25.4(26) . . .
30.4(29) . . .
29.7(29) . . .
29.4(30) . . .
25.5(26) . . .
33.9(30) . . .
34.1(30) . . .
32.4(32) . . .
31.3(32) . . .
35.1(32) . . .
29.2(28) . . .
30.9(29) . . .
25.4(26) . . .
32.8(34) . . .
28.8(29) . . .
35.2(32) . . .
34.8(31) . . .
31.4(31) . . .
28.5(30) . . .
31.3(31) . . .
25.0(26) . . .
30.1(29) . . .
22.0(25) . . .
34.7(34) . . .
37.0(33) . . .
28.5(28) . . .
33.1(30) . . .
25.9(26) . . .
22.4(28) . . .
27.7(30) . . .
28.0(27) . . .
32.1(31) . . .
24.0(25) . . .
31.8(32) . . .
22.5(24) . . .
30.0(28) . . .
28.2(29) . . .
35.4(33) . . .
34.6(32) . . .
27.9(30) . . .
28.8(28) . . .
29.3(30) . . .
31.1(31) . . .
29.5(30) . . .
23.2(26) . . .
26.2(27) . . .
29.4(30) . . .
25.6(28) . . .
28.8(31) . . .
30.9(30) . . .
24.5(26) . . .
32.8(33) . . .
38(4) . . .
32.2(31) . . .
24.8(25) . . .
29.9(29) . . .
27.3(27) . . .
33.4(34) . . .
34.8(33) . . .
26.5(27) . . .
21.7(24) . . .
20.5(23) . . .
26.3(29) . . .
28.2(28) . . .
40.6(34) . . .
30.3(29) . . .
28.1(29) . . .
34(4) . . .
33.4(31) . . .
31.7(29) . . .
30.1(29) . . .
33.5(32) . . .
36.9(33) . . .
35.8(32) . . .
20.9(24) . . .
30.7(29) . . .
40.3(35) . . .
36.2(33) . . .
23.4(26) . . .
33.6(30) . . .
31.8(29) . . .
28.9(29) . . .
30.3(31) . . .
32.0(31) . . .
30.7(29) . . .
30.6(30) . . .
26.4(29) . . .
28.4(28) . . .
21.4(24) . . .
26.5(27) . . .
30.0(30) . . .
33.9(33) . . .
22.5(26) . . .
29.4(28) . . .
32.2(30) . . .
34.2(32) . . .
29.1(28) . . .
28.6(30) . . .
30.0(29) . . .
28.9(28) . . .
28.5(27) . . .
42(4) . . .
35.8(31) . . .
33.9(31) . . .
28.9(28) . . .
30.0(30) . . .
18.2(21) . . .
27.3(29) . . .
27.5(28) . . .
31.9(30) . . .
26.7(27) . . .
29.3(31) . . .
27.3(29) . . .
29.9(30) . . .
27.9(28) . . .
27.9(29) . . .
31.0(29) . . .
25.8(27) . . .
27.3(27) . . .
34.5(31) . . .
35.4(33) . . .
30.0(31) . . .
31.0(32) . . .
24.4(26) . . .
38.5(32) . . .
29.4(30) . . .
25.1(27) . . .
27.8(28) . . .
32.5(30) . . .
40.8(34) . . .
28.7(29) . . .
31.1(28) . . .
31.4(30) . . .
29.7(28) . . .
35.5(31) . . .
29.6(29) . . .
26.4(27) . . .
25.2(26) . . .
27.7(28) . . .
29.7(30) . . .
27.6(27) . . .
25.6(26) . . .
27.4(30) . . .
36.2(31) . . .
27.7(27) . . .
24.0(25) . . .
24.8(29) . . .
31.1(31) . . .
41.0(33) . . .
35.7(32) . . .
28.6(29) . . .
31.2(30) . . .
32.6(29) . . .
33.8(31) . . .
30.9(30) . . .
30.3(31) . . .
32.0(31) . . .
29.2(29) . . .
29.9(30) . . .
22.4(29) . . .
27.3(30) . . .
33.2(32) . . .
29.6(28) . . .
29.6(28) . . .
26.4(28) . . .
31.5(34) . . .
27.5(28) . . .
23.4(25) . . .
25.6(28) . . .
29.4(29) . . .
37.0(34) . . .
27.5(27) . . .
31.9(29) . . .
26.6(27) . . .
25.8(28) . . .
32.8(35) . . .
29.7(31) . . .
32.0(29) . . .
25.2(26) . . .
27.0(28) . . .
24.8(27) . . .
30.0(29) . . .
18.2(22) . . .
29.4(28) . . .
25.9(27) . . .
23.2(26) . . .
34.2(31) . . .
32.8(30) . . .
23.3(25) . . .
32.8(31) . . .
40.5(35) . . .
37.5(33) . . .
26.1(27) . . .
23.5(25) . . .
31.4(32) . . .
32.4(32) . . .
34.0(30) . . .
31.2(29) . . .
27.1(28) . . .
31.4(31) . . .
25.2(25) . . .
31.9(30) . . .
30.0(29) . . .
33.3(32) . . .
28.5(28) . . .
29.7(29) . . .
29.3(28) . . .
33.3(30) . . .
26.2(28) . . .
30.0(30) . . .
34.5(31) . . .
31.2(29) . . .
31.1(30) . . .
25.6(30) . . .
27.0(30) . . .
28.6(30) . . .
36.8(32) . . .
36.3(32) . . .
32.5(31) . . .
26.9(29) . . .
28.3(29) . . .
27.2(27) . . .
27.4(27) . . .
27.4(27) . . .
30.0(31) . . .
29.8(30) . . .
33.4(30) . . .
33.2(33) . . .
26.0(27) . . .
31.9(31) . . .
31.3(29) . . .
28.0(28) . . .
31.4(29) . . .
29.5(28) . . .
32.7(31) . . .
33.6(32) . . .
28.7(28) . . .
31.3(31) . . .
31.4(30) . . .
28.1(27) . . .
27.8(29) . . .
30.0(28) . . .
28.5(28) . . .
26.9(29) . . .
38.8(34) . . .
31.0(30) . . .
32.8(30) . . .
28.5(33) . . .
33.6(32) . . .
31.4(31) . . .
29.3(29) . . .
30.9(29) . . .
34.5(31) . . .
27.8(29) . . .
22.1(25) . . .
23.7(27) . . .
26.9(27) . . .
28.2(29) . . .
35.2(34) . . .
34.6(31) . . .
22.7(26) . . .
29.6(28) . . .
39(4) . . .
34.9(32) . . .
26.4(27) . . .
28.5(28) . . .
27.0(27) . . .
31.7(31) . . .
21.4(25) . . .
35.2(34) . . .
25.7(26) . . .
30.6(29) . . .
25.9(25) . . .
36.9(33) . . .
27.8(28) . . .
23.4(25) . . .
27.1(28) . . .
23.1(26) . . .
28.6(32) . . .
30.2(31) . . .
31.0(29) . . .
29.9(28) . . .
28.9(30) . . .
30.8(33) . . .
27.2(27) . . .
35.1(31) . . .
31.6(29) . . .
25.4(27) . . .
29.8(31) . . .
27.4(29) . . .
29.4(29) . . .
24.0(25) . . .
30.6(30) . . .
30.3(30) . . .
36.6(32) . . .
31.8(29) . . .
34.2(32) . . .
36.1(34) . . .
32.5(31) . . .
48(4) . . .
23.9(25) . . .
37.8(34) . . .
28.2(29) . . .
30.3(31) . . .
32.4(30) . . .
39.7(34) . . .
28.4(29) . . .
30.9(33) . . .
27.6(30) . . .
27.4(27) . . .
31.7(30) . . .
32.4(33) . . .
24.6(28) . . .
24.7(27) . . .
27.1(28) . . .
29.4(30) . . .
28.2(29) . . .
25.1(29) . . .
28.5(29) . . .
26.6(27) . . .
26.3(28) . . .
30.6(30) . . .
26.0(29) . . .
35.0(32) . . .
38.5(32) . . .
29.8(28) . . .
24.3(26) . . .
40(4) . . .
26.1(27) . . .
26.7(27) . . .
28.7(28) . . .
32.5(31) . . .
28.4(30) . . .
29.8(31) . . .
32.3(29) . . .
32.5(30) . . .
33.9(31) . . .
26.6(27) . . .
26.1(27) . . .
32.8(30) . . .
30.8(28) . . .
37.5(34) . . .
32.6(33) . . .
32.2(32) . . .
22.5(24) . . .
28.4(28) . . .
24.0(26) . . .
30.2(31) . . .
26.5(27) . . .
23.5(25) . . .
31.9(30) . . .
26.0(27) . . .
31.1(30) . . .
25.7(27) . . .
29.6(29) . . .
28.9(29) . . .
34.9(32) . . .
37.2(32) . . .
19.6(23) . . .
29.0(28) . . .
33.6(31) . . .
30.9(32) . . .
25.7(27) . . .
29.3(28) . . .
28.4(27) . . .
26.4(28) . . .
34.9(35) . . .
39.1(35) . . .
35.1(31) . . .
31.9(29) . . .
28.2(28) . . .
36.7(34) . . .
36.2(32) . . .
27.4(27) . . .
33.8(31) . . .
35.3(31) . . .
24.3(25) . . .
40.2(35) . . .
27.5(27) . . .
25.1(26) . . .
25.0(28) . . .
17.4(22) . . .
32.0(31) . . .
28.2(27) . . .
28.8(30) . . .
28.2(28) . . .
25.0(26) . . .
36.1(34) . . .
31.7(29) . . .
30.5(29) . . .
26.4(26) . . .
23.5(26) . . .
28.7(29) . . .
29.0(28) . . .
26.3(26) . . .
41(4) . . .
26.9(29) . . .
32.4(31) . . .
27.4(27) . . .
31.7(31) . . .
24.9(27) . . .
30.0(29) . . .
33.6(30) . . .
33.1(30) . . .
27.7(29) . . .
22.4(26) . . .
30.4(30) . . .
25.7(28) . . .
25.5(27) . . .
30.1(31) . . .
27.2(29) . . .
25.7(27) . . .
31.4(30) . . .
30.6(29) . . .
32.8(31) . . .
26.2(30) . . .
32.2(30) . . .
35.1(31) . . .
33.3(31) . . .
27.9(28) . . .
27.3(30) . . .
25.3(28) . . .
37.2(32) . . .
39.4(33) . . .
27.6(28) . . .
24.7(28) . . .
30.8(29) . . .
26.9(27) . . .
23.4(25) . . .
29.8(30) . . .
25.7(28) . . .
32.9(31) . . .
30.7(29) . . .
22.9(24) . . .
28.0(28) . . .
31.2(31) . . .
27.6(27) . . .
26.3(27) . . .
37.1(33) . . .
31.5(30) . . .
31.1(31) . . .
34.3(31) . . .
29.0(29) . . .
25.5(27) . . .
31.3(31) . . .
27.2(28) . . .
21.9(25) . . .
36.3(30) . . .
32.0(30) . . .
32.1(31) . . .
30.5(30) . . .
27.6(27) . . .
31.2(29) . . .
28.0(28) . . .
30.6(30) . . .
25.5(26) . . .
30.0(29) . . .
31.0(29) . . .
21.5(25) . . .
28.0(29) . . .
23.3(26) . . .
32.9(32) . . .
27.3(27) . . .
32.5(30) . . .
25.3(27) . . .
31.0(30) . . .
27.9(28) . . .
27.8(27) . . .
26.8(28) . . .
22.5(25) . . .
32.3(32) . . .
29.3(28) . . .
24.4(26) . . .
31.0(29) . . .
35.8(33) . . .
28.6(30) . . .
30.2(29) . . .
30.9(30) . . .
26.7(28) . . .
35.8(34) . . .
30.3(30) . . .
28.4(29) . . .
31.2(29) . . .
23.4(27) . . .
30.5(31) . . .
23.2(25) . . .
24.5(26) . . .
35.7(32) . . .
23.5(26) . . .
30.3(32) . . .
23.7(28) . . .
22.0(25) . . .
28.9(28) . . .
29.9(29) . . .
38.6(34) . . .
26.2(27) . . .
26.2(27) . . .
30.5(29) . . .
31.5(30) . . .
32.2(32) . . .
27.8(28) . . .
36.2(31) . . .
33.0(30) . . .
22.7(26) . . .
31.8(32) . . .
33.5(31) . . .
31.3(29) . . .
25.5(27) . . .
33.1(35) . . .
25.8(27) . . .
27.7(28) . . .
31.9(30) . . .
26.7(29) . . .
32.3(32) . . .
30.4(30) . . .
32.3(33) . . .
25.2(27) . . .
36.5(32) . . .
28.3(28) . . .
34.3(33) . . .
37.5(32) . . .
27.8(27) . . .
37.5(32) . . .
32.0(30) . . .
28.9(29) . . .
28.8(28) . . .
27.8(28) . . .
34.1(31) . . .
25.2(28) . . .
21.1(25) . . .
30.6(29) . . .
27.0(27) . . .
24.6(25) . . .
32.8(32) . . .
24.1(28) . . .
27.5(28) . . .
26.7(27) . . .
24.1(26) . . .
27.3(29) . . .
31.8(32) . . .
29.5(29) . . .
34.6(32) . . .
28.2(29) . . .
25.6(28) . . .
29.2(29) . . .
30.8(29) . . .
31.0(29) . . .
32.6(32) . . .
27.1(29) . . .
32.8(31) . . .
28.4(28) . . .
34.1(31) . . .
32.5(32) . . .
29.6(30) . . .
25.2(26) . . .
27.4(27) . . .
26.7(28) . . .
26.9(29) . . .
22.6(25) . . .
28.3(28) . . .
35.8(31) . . .
33.8(31) . . .
28.4(30) . . .
23.9(26) . . .
28.7(27) . . .
26.8(28) . . .
23.6(25) . . .
29.6(28) . . .
33.5(30) . . .
30.9(29) . . .
34.7(31) . . .
29.2(28) . . .
31.1(30) . . .
30.3(29) . . .
28.9(28) . . .
29.3(28) . . .
27.1(28) . . .
31.0(32) . . .
34.2(31) . . .
28.3(28) . . .
32.7(30) . . .
24.9(26) . . .
35.4(34) . . .
29.5(30) . . .
35.2(31) . . .
35.6(31) . . .
28.7(32) . . .
27.6(29) . . .
30.1(31) . . .
27.0(27) . . .
29.6(28) . . .
32.3(31) . . .
24.1(26) . . .
36.4(33) . . .
29.4(28) . . .
36.5(32) . . .
30.2(30) . . .
25.9(28) . . .
21.5(27) . . .
25.1(27) . . .
31.3(30) . . .
26.1(29) . . .
32.2(31) . . .
37.0(32) . . .
34.5(31) . . .
34.8(32) . . .
25.6(27) . . .
30.8(30) . . .
20.4(23) . . .
30.7(29) . . .
34.0(34) . . .
32.0(32) . . .
30.0(31) . . .
28.1(28) . . .
29.0(28) . . .
27.8(28) . . .
28.8(31) . . .
33.8(31) . . .
25.1(27) . . .
28.4(27) . . .
25.9(27) . . .
22.1(27) . . .
27.8(28) . . .
28.1(28) . . .
27.2(27) . . .
36.8(34) . . .
24.8(29) . . .
27.0(27) . . .
26.8(27) . . .
31.0(29) . . .
25.6(27) . . .
23.4(25) . . .
28.3(29) . . .
30.0(29) . . .
35.5(31) . . .
32.1(30) . . .
34.8(34) . . .
31.6(32) . . .
34.9(31) . . .
27.2(28) . . .
31.5(31) . . .
34.6(33) . . .
26.3(26) . . .
26.6(27) . . .
32.1(32) . . .
31.4(31) . . .
29.8(30) . . .
23.5(28) . . .
30.6(29) . . .
30.6(29) . . .
32.2(31) . . .
21.4(25) . . .
28.5(28) . . .
28.6(27) . . .
31.4(31) . . .
25.8(27) . . .
28.8(29) . . .
35.7(31) . . .
28.2(28) . . .
30.4(31) . . .
29.6(32) . . .
28.2(28) . . .
31.7(30) . . .
29.9(29) . . .
30.2(32) . . .
20.2(24) . . .
34.5(31) . . .
26.2(26) . . .
27.9(28) . . .
39.4(34) . . .
36.6(33) . . .
33.8(31) . . .
27.5(28) . . .
27.3(27) . . .
34.0(32) . . .
29.0(29) . . .
26.1(30) . . .
34.2(31) . . .
32.6(30) . . .
30.7(31) . . .
26.3(27) . . .
27.9(29) . . .
24.6(26) . . .
35.5(32) . . .
36.0(31) . . .
28.8(28) . . .
22.4(26) . . .
27.6(27) . . .
27.5(28) . . .
31.2(29) . . .
38.1(33) . . .
36.0(32) . . .
32.4(30) . . .
26.3(27) . . .
27.8(27) . . .
28.7(28) . . .
33.6(32) . . .
32.4(30) . . .
29.1(30) . . .
31.2(30) . . .
25.9(27) . . .
27.2(29) . . .
33.0(30) . . .
30.8(31) . . .
19.1(23) . . .
28.4(30) . . .
28.3(28) . . .
32.9(30) . . .
29.5(29) . . .
26.3(27) . . .
31.9(30) . . .
36.6(31) . . .
33.3(30) . . .
32.7(31) . . .
24.4(27) . . .
28.7(29) . . .
27.7(28) . . .
28.7(28) . . .
42.9(35) . . .
31.1(28) . . .
35.1(32) . . .
30.5(29) . . .
34.1(31) . . .
31.4(30) . . .
32.7(32) . . .
27.4(27) . . .
29.8(28) . . .
19.4(23) . . .
24.5(26) . . .
27.9(29) . . .
30.7(29) . . .
32.1(29) . . .
30.5(28) . . .
35.1(33) . . .
30.2(29) . . .
30.6(29) . . .
33.5(30) . . .
25.1(27) . . .
26.8(29) . . .
29.6(29) . . .
32.2(30) . . .
25.1(27) . . .
22.9(25) . . .
31.1(31) . . .
35.3(33) . . .
25.3(26) . . .
29.6(28) . . .
38.5(33) . . .
37.5(34) . . .
28.3(29) . . .
27.4(28) . . .
31.8(29) . . .
29.2(29) . . .
24.9(28) . . .
28.3(31) . . .
25.9(29) . . .
26.4(28) . . .
29.4(31) . . .
35.0(33) . . .
31.7(31) . . .
26.2(28) . . .
18.5(24) . . .
33.1(31) . . .
33.1(33) . . .
26.0(27) . . .
24.3(26) . . .
26.1(27) . . .
33.6(30) . . .
36.8(33) . . .
34.8(33) . . .
24.3(26) . . .
32.8(31) . . .
35.3(34) . . .
31.2(31) . . .
29.6(30) . . .
26.8(27) . . .
30.9(29) . . .
36.0(32) . . .
34.1(31) . . .
26.3(30) . . .
25.7(27) . . .
32.0(30) . . .
27.0(27) . . .
27.1(29) . . .
25.8(30) . . .
28.8(28) . . .
36.1(31) . . .
29.0(29) . . .
24.2(27) . . .
24.4(26) . . .
24.3(26) . . .
33.4(33) . . .
28.8(29) . . .
35.0(34) . . .
30.6(32) . . .
22.9(25) . . .
17.0(22) . . .
31.0(32) . . .
30.8(31) . . .
31.4(30) . . .
33.6(30) . . .
28.6(31) . . .
25.1(28) . . .
27.1(27) . . .
24.1(26) . . .
33.4(30) . . .
32.1(31) . . .
37.9(35) . . .
37.2(32) . . .
30.5(30) . . .
31.1(29) . . .
29.2(30) . . .
28.5(30) . . .
27.4(28) . . .
30.8(29) . . .
26.9(27) . . .
36.1(32) . . .
27.0(28) . . .
21.0(24) . . .
29.9(28) . . .
30.2(29) . . .
28.9(29) . . .
27.9(31) . . .
30.5(31) . . .
35.3(31) . . .
25.2(26) . . .
32.9(31) . . .
30.5(29) . . .
25.0(26) . . .
29.0(29) . . .
33.8(31) . . .
27.7(28) . . .
33.5(32) . . .
28.8(28) . . .
32.9(30) . . .
27.2(27) . . .
32.6(31) . . .
32.0(31) . . .
28.4(29) . . .
32.7(30) . . .
25.5(26) . . .
32.6(32) . . .
35.0(30) . . .
31.4(29) . . .
30.2(29) . . .
28.9(29) . . .
34.9(33) . . .
28.9(28) . . .
27.8(28) . . .
30.3(28) . . .
33.6(32) . . .
28.2(30) . . .
34.2(32) . . .
35.7(32) . . .
29.7(28) . . .
33.3(30) . . .
33.2(32) . . .
27.9(27) . . .
25.5(26) . . .
33.9(30) . . .
24.6(28) . . .
25.4(29) . . .
31.6(30) . . .
30.2(28) . . .
36.3(32) . . .
33.8(31) . . .
30.6(29) . . .
26.9(29) . . .
30.1(28) . . .
34.2(30) . . .
32.1(31) . . .
25.3(27) . . .
34.6(32) . . .
34.3(30) . . .
23.7(25) . . .
26.0(27) . . .
31.1(31) . . .
31.1(29) . . .
28.8(29) . . .
27.4(27) . . .
34.6(32) . . .
35.4(33) . . .
31.9(31) . . .
32.8(30) . . .
29.5(29) . . .
33.6(31) . . .
26.6(29) . . .
27.6(31) . . .
23.8(25) . . .
25.5(26) . . .
30.3(31) . . .
26.4(29) . . .
35.3(32) . . .
25.3(26) . . .
29.6(29) . . .
25.4(27) . . .
32.0(31) . . .
35.6(32) . . .
24.9(27) . . .
35.4(32) . . .
33.8(32) . . .
27.2(29) . . .
35.0(32) . . .
25.3(26) . . .
36.2(34) . . .
29.9(29) . . .
35.4(32) . . .
32.9(30) . . .
31.5(29) . . .
34.2(31) . . .
34.7(32) . . .
26.8(29) . . .
27.2(27) . . .
25.8(28) . . .
30.3(29) . . .
34.0(31) . . .
35.2(33) . . .
28.5(28) . . .
32.3(30) . . .
28.3(28) . . .
31.8(30) . . .
31.0(30) . . .
25.3(27) . . .
31.5(30) . . .
26.8(27) . . .
35(4) . . .
25.7(27) . . .
27.4(27) . . .
30.8(31) . . .
29.9(29) . . .
36.5(33) . . .
31.5(32) . . .
24.4(26) . . .
28.5(28) . . .
35.1(33) . . .
31.9(31) . . .
28.4(29) . . .
19.9(24) . . .
23.3(25) . . .
20.1(25) . . .
30.7(32) . . .
28.6(30) . . .
25.8(27) . . .
30.3(30) . . .
36.5(34) . . .
29.2(29) . . .
32.5(31) . . .
19.5(23) . . .
27.3(28) . . .
34.8(32) . . .
29.9(29) . . .
34.5(31) . . .
31.4(29) . . .
25.2(28) . . .
32.0(32) . . .
28.2(29) . . .
31.3(30) . . .
23.4(25) . . .
28.1(28) . . .
31.0(31) . . .
25.5(27) . . .
29.9(30) . . .
29.1(29) . . .
33.1(31) . . .
32.1(31) . . .
28.9(29) . . .
27.7(30) . . .
29.6(28) . . .
34.6(33) . . .
29.1(29) . . .
26.8(27) . . .
24.8(25) . . .
33.6(30) . . .
20.8(24) . . .
28.0(32) . . .
30.4(30) . . .
29.0(28) . . .
28.8(28) . . .
27.4(29) . . .
31.7(33) . . .
24.2(25) . . .
30.4(29) . . .
31.7(31) . . .
29.0(30) . . .
38(4) . . .
27.9(28) . . .
27.9(28) . . .
27.5(27) . . .
26.8(27) . . .
27.4(28) . . .
26.1(27) . . .
22.0(24) . . .
27.8(30) . . .
28.5(30) . . .
27.8(30) . . .
26.2(29) . . .
31.7(29) . . .
32.6(31) . . .
26.0(28) . . .
35.3(34) . . .
36.9(32) . . .
28.4(27) . . .
27.2(28) . . .
28.5(30) . . .
25.4(29) . . .
25.6(28) . . .
26.4(26) . . .
32.6(31) . . .
23.0(25) . . .
29.2(29) . . .
21.5(24) . . .
22.6(25) . . .
30.8(30) . . .
33.7(32) . . .
31.1(29) . . .
37.7(32) . . .
31.3(30) . . .
34.6(32) . . .
30.9(31) . . .
33.3(33) . . .
28.1(27) . . .
29.3(30) . . .
27.8(28) . . .
31.7(31) . . .
37.2(33) . . .
33.0(30) . . .
24.1(25) . . .
36.2(32) . . .
28.3(29) . . .
37.2(33) . . .
34.8(30) . . .
35.7(31) . . .
34.5(33) . . .
24.5(27) . . .
25.4(27) . . .
31.1(29) . . .
28.9(28) . . .
28.8(30) . . .
31.4(32) . . .
29.9(30) . . .
23.9(26) . . .
31.4(30) . . .
26.3(26) . . .
28.5(29) . . .
30.2(32) . . .
32.2(29) . . .
24.6(27) . . .
28.0(27) . . .
35.9(33) . . .
17.7(23) . . .
23.1(26) . . .
31.5(30) . . .
23.7(26) . . .
37.7(34) . . .
31.0(32) . . .
21.8(25) . . .
28.4(29) . . .
30.6(29) . . .
31.4(32) . . .
26.1(26) . . .
31.5(29) . . .
26.3(28) . . .
33.7(34) . . .
28.3(28) . . .
33.7(30) . . .
30.7(28) . . .
33.0(31) . . .
31.7(32) . . .
25.3(26) . . .
24.1(25) . . .
31.2(29) . . .
33.8(31) . . .
29.4(31) . . .
27.3(27) . . .
26.6(28) . . .
25.1(25) . . .
24.7(27) . . .
23.7(28) . . .
28.5(29) . . .
28.6(28) . . .
21.0(24) . . .
31.0(30) . . .
26.8(29) . . .
26.4(27) . . .
28.7(28) . . .
32.6(30) . . .
31.4(30) . . .
31.3(33) . . .
21.2(25) . . .
31.4(30) . . .
23.2(25) . . .
34.4(33) . . .
28.8(30) . . .
29.5(28) . . .
35.0(31) . . .
25.8(27) . . .
32.8(32) . . .
30.0(29) . . .
26.5(27) . . .
31.6(29) . . .
24.0(25) . . .
36.3(34) . . .
36.5(32) . . .
33.9(31) . . .
26.3(27) . . .
26.3(27) . . .
23.9(25) . . .
31.5(32) . . .
26.8(27) . . .
27.0(27) . . .
27.9(28) . . .
26.9(29) . . .
33.5(35) . . .
19.7(24) . . .
25.0(27) . . .
33.4(31) . . .
33.4(33) . . .
29.6(30) . . .
25.0(26) . . .
25.9(26) . . .
25.3(27) . . .
31.8(31) . . .
29.7(29) . . .
30.5(29) . . .
26.3(27) . . .
31.7(31) . . .
32.1(32) . . .
31.4(31) . . .
32.8(30) . . .
28.8(29) . . .
25.6(27) . . .
29.5(32) . . .
30.7(31) . . .
26.5(27) . . .
36.7(33) . . .
28.3(27) . . .
29.8(31) . . .
31.5(30) . . .
30.5(29) . . .
23.5(25) . . .
33.9(32) . . .
28.2(28) . . .
28.8(29) . . .
36.3(31) . . .
31.5(32) . . .
29.3(30) . . .
26.2(27) . . .
36.0(33) . . .
38.5(32) . . .
25.8(27) . . .
25.7(29) . . .
31.0(31) . . .
24.1(25) . . .
25.5(26) . . .
35.5(33) . . .
28.0(29) . . .
26.0(27) . . .
35.1(32) . . .
32.3(30) . . .
33.0(30) . . .
34.1(32) . . .
38.0(34) . . .
25.0(26) . . .
27.8(28) . . .
29.6(29) . . .
30.2(34) . . .
26.9(28) . . .
32.3(30) . . .
35.8(31) . . .
41.7(35) . . .
42(4) . . .
31.4(29) . . .
33.0(31) . . .
28.2(28) . . .
34.0(32) . . .
28.8(30) . . .
26.0(27) . . .
24.8(26) . . .
31.9(31) . . .
32.3(31) . . .
34.3(33) . . .
29.6(29) . . .
26.4(27) . . .
32.9(32) . . .
31.1(32) . . .
28.5(27) . . .
27.8(28) . . .
25.5(27) . . .
35.6(32) . . .
40.0(34) . . .
35.5(32) . . .
27.1(27) . . .
28.1(28) . . .
33.7(34) . . .
33.4(33) . . .
37.0(34) . . .
33.8(32) . . .
34.5(31) . . .
24.1(26) . . .
20.1(24) . . .
28.0(28) . . .
32.6(31) . . .
29.1(28) . . .
34.6(31) . . .
33.3(33) . . .
20.4(24) . . .
34.7(33) . . .
30.0(29) . . .
32.6(30) . . .
27.4(29) . . .
35.5(33) . . .
32.8(31) . . .
38.7(33) . . .
27.0(28) . . .
34.0(32) . . .
26.1(26) . . .
32.4(30) . . .
34.7(31) . . .
24.2(29) . . .
32.9(34) . . .
29.1(27) . . .
30.4(29) . . .
27.0(27) . . .
25.3(27) . . .
23.3(27) . . .
30.3(31) . . .
24.9(26) . . .
31.6(31) . . .
30.9(30) . . .
29.9(30) . . .
20.7(24) . . .
29.0(29) . . .
33.1(30) . . .
27.2(29) . . .
36(4) . . .
23.7(27) . . .
27.0(27) . . .
32.7(31) . . .
27.1(28) . . .
23.4(27) . . .
30.4(31) . . .
30.5(29) . . .
20.3(24) . . .
25.8(26) . . .
32.5(33) . . .
23.6(27) . . .
29.8(28) . . .
25.5(27) . . .
30.0(30) . . .
25.9(26) . . .
22.8(25) . . .
21.5(24) . . .
30.1(31) . . .
26.2(26) . . .
31.2(29) . . .
37.0(32) . . .
19.9(24) . . .
35.1(33) . . .
32.9(32) . . .
28.5(29) . . .
30.3(29) . . .
33.7(30) . . .
34.2(31) . . .
28.1(30) . . .
25.6(26) . . .
29.9(29) . . .
31.9(29) . . .
33.5(31) . . .
26.7(29) . . .
30.8(30) . . .
34.3(31) . . .
32.9(30) . . .
34.0(32) . . .
27.3(28) . . .
30.1(29) . . .
31.3(29) . . .
29.8(28) . . .
33.1(32) . . .
33.8(34) . . .
36.1(33) . . .
35.2(31) . . .
38.6(34) . . .
28.3(28) . . .
32.2(33) . . .
35.2(32) . . .
33.6(30) . . .
34.8(32) . . .
30.0(30) . . .
32.9(34) . . .
30.9(30) . . .
30.5(30) . . .
32.8(29) . . .
28.8(28) . . .
25.5(27) . . .
27.3(27) . . .
28.7(28) . . .
32.3(30) . . .
34.0(33) . . .
24.4(27) . . .
31.4(30) . . .
29.5(29) . . .
26.9(28) . . .
30.2(31) . . .
31.6(30) . . .
22.6(26) . . .
31.1(29) . . .
26.8(28) . . .
33.4(33) . . .
30.0(30) . . .
25.6(28) . . .
24.4(26) . . .
29.1(28) . . .
27.5(29) . . .
30.9(31) . . .
35.8(33) . . .
30.3(28) . . .
33.7(32) . . .
36(4) . . .
30.4(32) . . .
36.5(32) . . .
34.5(31) . . .
26.7(28) . . .
34.4(32) . . .
29.5(30) . . .
18.9(24) . . .
27.4(28) . . .
32.8(30) . . .
33.1(31) . . .
29.5(29) . . .
25.2(27) . . .
26.4(27) . . .
32.2(29) . . .
37.4(34) . . .
24.0(26) . . .
23.8(26) . . .
23.9(26) . . .
32.6(31) . . .
30.8(29) . . .
32.6(32) . . .
27.4(27) . . .
31.2(32) . . .
32.3(31) . . .
32.6(31) . . .
31.0(31) . . .
37.5(32) . . .
26.8(27) . . .
33.4(30) . . .
37.4(35) . . .
33.6(30) . . .
31.2(29) . . .
35.6(33) . . .
27.1(27) . . .
26.2(27) . . .
26.3(27) . . .
34.0(30) . . .
27.4(28) . . .
28.9(31) . . .
26.2(28) . . .
27.0(27) . . .
27.8(28) . . .
28.4(29) . . .
28.6(30) . . .
28.8(31) . . .
26.1(26) . . .
33.7(31) . . .
34.4(31) . . .
28.5(30) . . .
23.2(25) . . .
26.1(28) . . .
27.3(27) . . .
30.1(30) . . .
31.4(32) . . .
33.1(30) . . .
33.5(30) . . .
20.7(24) . . .
28.7(29) . . .
33.3(33) . . .
18.5(23) . . .
22.4(25) . . .
32.6(30) . . .
34.1(32) . . .
22.2(25) . . .
33.4(30) . . .
32.1(29) . . .
34.2(32) . . .
25.6(27) . . .
24.1(27) . . .
30.2(33) . . .
23.9(26) . . .
28.2(27) . . .
26.9(27) . . .
29.5(29) . . .
28.6(29) . . .
27.3(27) . . .
31.4(30) . . .
32.3(30) . . .
30.6(30) . . .
34.5(31) . . .
25.9(27) . . .
29.8(31) . . .
27.9(29) . . .
32.4(32) . . .
33.0(30) . . .
27.6(27) . . .
33.2(31) . . .
28.4(28) . . .
25.6(27) . . .
33.0(31) . . .
31.5(30) . . .
31.8(29) . . .
28.7(29) . . .
37.6(35) . . .
33.8(30) . . .
23.6(26) . . .
27.5(29) . . .
29.5(30) . . .
26.6(26) . . .
32.2(29) . . .
37.1(32) . . .
31.3(31) . . .
21.7(26) . . .
28.6(30) . . .
28.6(28) . . .
29.0(29) . . .
33.0(31) . . .
36(4) . . .
19.0(23) . . .
23.3(26) . . .
31.9(30) . . .
36.0(32) . . .
28.3(29) . . .
28.2(28) . . .
22.2(24) . . .
28.8(30) . . .
32.4(32) . . .
29.3(31) . . .
27.9(28) . . .
20.3(23) . . .
23.6(25) . . .
25.8(28) . . .
25.8(29) . . .
27.2(30) . . .
32.5(31) . . .
24.3(26) . . .
27.6(28) . . .
26.9(27) . . .
25.7(27) . . .
27.3(27) . . .
28.1(28) . . .
26.2(27) . . .
23.5(26) . . .
27.9(28) . . .
29.9(28) . . .
27.3(28) . . .
21.1(25) . . .
25.1(26) . . .
31.5(30) . . .
34.0(30) . . .
30.4(31) . . .
20.6(24) . . .
33.0(32) . . .
27.6(28) . . .
23.0(25) . . .
23.1(25) . . .
29.7(30) . . .
24.0(26) . . .
29.6(28) . . .
32.7(30) . . .
31.8(30) . . .
23.6(26) . . .
24.7(26) . . .
32.6(30) . . .
24.6(27) . . .
27.8(27) . . .
27.0(28) . . .
22.6(24) . . .
27.2(27) . . .
21.3(25) . . .
27.4(27) . . .
30.1(29) . . .
28.8(28) . . .
30.2(29) . . .
29.1(28) . . .
27.7(27) . . .
23.4(25) . . .
23.8(25) . . .
31.3(29) . . .
29.6(29) . . .
27.4(29) . . .
30.6(32) . . .
28.5(29) . . .
30.4(28) . . .
31.9(30) . . .
26.7(27) . . .
33.3(32) . . .
32.3(31) . . .
32.9(30) . . .
29.0(29) . . .
28.8(29) . . .
22.0(25) . . .
27.6(28) . . .
30.9(28) . . .
26.0(28) . . .
26.3(29) . . .
31.8(30) . . .
21.0(24) . . .
32.4(30) . . .
25.9(28) . . .
24.4(28) . . .
26.5(29) . . .
28.6(28) . . .
27.2(27) . . .
28.8(29) . . .
28.8(31) . . .
28.7(29) . . .
34.1(32) . . .
34.1(30) . . .
37.3(33) . . .
30.0(29) . . .
38.8(34) . . .
28.2(28) . . .
29.2(28) . . .
31.8(30) . . .
35.7(34) . . .
33.3(32) . . .
37.8(32) . . .
36.0(33) . . .
25.7(27) . . .
37(4) . . .
32.9(33) . . .
27.9(28) . . .
32.4(29) . . .
51(4) . . .
31.9(29) . . .
36.2(32) . . .
30.2(29) . . .
25.2(26) . . .
30.4(31) . . .
19.1(24) . . .
24.6(26) . . .
36.1(31) . . .
33.6(30) . . .
29.8(30) . . .
24.7(27) . . .
30.9(30) . . .
25.3(27) . . .
28.9(30) . . .
22.7(26) . . .
29.0(29) . . .
27.2(30) . . .
25.7(27) . . .
30.7(30) . . .
35.2(32) . . .
37.5(33) . . .
29.7(29) . . .
27.1(27) . . .
24.2(25) . . .
30.4(31) . . .
27.2(27) . . .
32.2(30) . . .
26.3(27) . . .
22.9(25) . . .
25.3(28) . . .
32.8(32) . . .
26.4(27) . . .
27.7(27) . . .
33.4(30) . . .
28.4(29) . . .
25.0(27) . . .
29.6(29) . . .
18.8(23) . . .
26.8(28) . . .
21.8(28) . . .
27.9(28) . . .
32.5(30) . . .
26.5(26) . . .
28.2(30) . . .
34.1(35) . . .
31.5(30) . . .
31.3(29) . . .
32.1(29) . . .
35.0(32) . . .
28.2(29) . . .
31.4(31) . . .
30.8(29) . . .
30.6(29) . . .
31.7(29) . . .
25.5(27) . . .
26.9(28) . . .
19.8(24) . . .
26.6(27) . . .
34.8(33) . . .
28.5(27) . . .
26.1(26) . . .
35.5(31) . . .
33.5(30) . . .
32.7(31) . . .
38.3(34) . . .
27.0(28) . . .
24.1(25) . . .
24.6(27) . . .
30.5(31) . . .
29.7(30) . . .
28.6(28) . . .
25.9(27) . . .
24.5(28) . . .
22.7(27) . . .
26.8(29) . . .
30.1(29) . . .
29.2(29) . . .
28.3(29) . . .
29.6(32) . . .
28.8(31) . . .
20.0(23) . . .
24.0(26) . . .
29.6(29) . . .
29.9(32) . . .
29.5(29) . . .
38.0(34) . . .
20.6(24) . . .
29.6(31) . . .
26.5(29) . . .
28.8(29) . . .
32.3(30) . . .
32.8(29) . . .
32.4(30) . . .
29.0(29) . . .
29.8(30) . . .
24.9(26) . . .
27.8(28) . . .
25.0(26) . . .
35.8(35) . . .
25.2(27) . . .
28.8(28) . . .
23.2(25) . . .
35.7(33) . . .
29.5(28) . . .
40(4) . . .
31.7(29) . . .
29.7(28) . . .
29.6(30) . . .
26.7(30) . . .
36.4(33) . . .
33.5(31) . . .
29.5(29) . . .
30.1(31) . . .
24.3(27) . . .
25.3(27) . . .
34.7(31) . . .
36.8(33) . . .
33.5(31) . . .
23.7(26) . . .
20.5(25) . . .
35.5(31) . . .
33.8(32) . . .
28.3(30) . . .
33.3(32) . . .
30.8(29) . . .
31.3(29) . . .
29.8(30) . . .
25.9(28) . . .
20.9(24) . . .
32.0(29) . . .
32.6(30) . . .
25.6(26) . . .
25.6(29) . . .
21.5(24) . . .
24.0(25) . . .
29.5(29) . . .
28.6(28) . . .
27.4(28) . . .
29.0(29) . . .
28.5(28) . . .
30.1(28) . . .
39(4) . . .
30.0(31) . . .
29.0(28) . . .
31.7(30) . . .
20.3(25) . . .
24.7(27) . . .
25.5(27) . . .
26.5(27) . . .
31.1(30) . . .
24.5(25) . . .
27.0(29) . . .
27.6(30) . . .
32.2(33) . . .
31.0(29) . . .
27.4(28) . . .
34.3(32) . . .
28.0(28) . . .
34.3(33) . . .
30.1(29) . . .
27.3(29) . . .
29.9(31) . . .
25.4(26) . . .
24.5(26) . . .
33.4(30) . . .
34.4(31) . . .
30.9(30) . . .
24.4(26) . . .
30.4(29) . . .
22.4(25) . . .
32.6(32) . . .
21.9(25) . . .
22.6(26) . . .
23.1(25) . . .
24.1(26) . . .
29.0(29) . . .
29.9(31) . . .
27.6(28) . . .
35.4(31) . . .
27.4(27) . . .
25.5(26) . . .
32.7(31) . . .
30.3(29) . . .
37.7(32) . . .
27.5(28) . . .
27.5(27) . . .
40(4) . . .
32.4(30) . . .
33.7(30) . . .
30.0(28) . . .
21.1(24) . . .
27.7(28) . . .
29.3(28) . . .
29.7(29) . . .
24.8(26) . . .
30.0(30) . . .
31.7(33) . . .
21.5(25) . . .
29.5(30) . . .
32.2(29) . . .
31.7(30) . . .
32.3(32) . . .
31.5(29) . . .
32.2(29) . . .
27.9(28) . . .
23.5(25) . . .
25.7(30) . . .
24.3(27) . . .
25.3(26) . . .
35.2(31) . . .
31.3(30) . . .
32.5(32) . . .
31.1(30) . . .
23.9(25) . . .
30.4(29) . . .
27.2(28) . . .
26.7(29) . . .
28.8(30) . . .
27.7(28) . . .
35.4(31) . . .
33.7(32) . . .
27.2(27) . . .
34.8(32) . . .
27.8(27) . . .
25.7(28) . . .
35.2(33) . . .
29.1(28) . . .
32.9(31) . . .
30.8(29) . . .
34.6(33) . . .
23.6(26) . . .
22.4(26) . . .
23.0(25) . . .
34.3(31) . . .
31.3(29) . . .
23.3(25) . . .
30.1(29) . . .
31.0(30) . . .
26.4(27) . . .
24.8(25) . . .
33.1(32) . . .
40.1(35) . . .
39.7(34) . . .
35.8(31) . . .
36.4(33) . . .
30.2(32) . . .
32.8(32) . . .
27.8(28) . . .
29.5(29) . . .
25.5(27) . . .
37(4) . . .
29.8(30) . . .
28.9(28) . . .
28.2(28) . . .
26.8(27) . . .
25.1(28) . . .
31.3(33) . . .
32.2(30) . . .
27.2(27) . . .
26.9(26) . . .
33.9(32) . . .
36.5(33) . . .
26.3(27) . . .
31.1(30) . . .
32.6(30) . . .
29.3(30) . . .
31.6(30) . . .
37.4(32) . . .
25.9(27) . . .
28.0(28) . . .
26.3(26) . . .
27.0(28) . . .
26.2(27) . . .
21.8(24) . . .
19.7(24) . . .
25.7(26) . . .
32.5(30) . . .
32.1(29) . . .
34.9(32) . . .
23.1(26) . . .
31.3(32) . . .
21.4(24) . . .
28.9(29) . . .
30.2(29) . . .
32.8(33) . . .
30.6(30) . . .
26.4(27) . . .
28.3(28) . . .
40(4) . . .
36(4) . . .
22.5(27) . . .
30.7(29) . . .
25.8(26) . . .
29.5(28) . . .
22.7(26) . . .
29.0(31) . . .
26.5(27) . . .
27.4(28) . . .
34.6(31) . . .
24.0(27) . . .
24.1(26) . . .
25.9(27) . . .
26.4(27) . . .
27.3(29) . . .
32.9(33) . . .
29.9(29) . . .
35.1(31) . . .
26.5(27) . . .
31.1(30) . . .
31.2(30) . . .
32.8(33) . . .
27.8(27) . . .
33.2(34) . . .
30.7(30) . . .
27.5(29) . . .
27.3(30) . . .
27.1(28) . . .
34.0(31) . . .
24.6(26) . . .
27.5(27) . . .
34.1(30) . . .
28.1(28) . . .
23.6(28) . . .
32.8(32) . . .
31.2(30) . . .
30.6(29) . . .
27.5(27) . . .
32.2(30) . . .
32.2(30) . . .
24.3(28) . . .
29.1(30) . . .
30.5(29) . . .
37(4) . . .
33.9(34) . . .
32.9(32) . . .
26.1(26) . . .
35.0(31) . . .
27.1(29) . . .
28.1(31) . . .
24.0(27) . . .
32.9(30) . . .
33.8(30) . . .
32.2(30) . . .
31.7(32) . . .
34.8(33) . . .
24.9(25) . . .
25.6(27) . . .
27.2(28) . . .
32.0(31) . . .
29.1(32) . . .
24.4(25) . . .
32.1(30) . . .
31.3(31) . . .
22.9(25) . . .
28.8(29) . . .
23.2(25) . . .
28.7(29) . . .
26.6(26) . . .
28.6(29) . . .
29.9(29) . . .
31.0(29) . . .
30.8(30) . . .
31.9(30) . . .
30.6(30) . . .
35.3(32) . . .
23.6(25) . . .
26.4(27) . . .
30.5(30) . . .
31.0(28) . . .
31.1(29) . . .
34.8(31) . . .
26.0(28) . . .
31.4(30) . . .
29.8(28) . . .
32.5(30) . . .
36.0(31) . . .
27.4(29) . . .
34.1(33) . . .
30.9(30) . . .
24.5(27) . . .
32.2(30) . . .
36.7(32) . . .
32.8(33) . . .
34.4(33) . . .
29.1(29) . . .
26.3(26) . . .
28.6(29) . . .
26.1(28) . . .
22.3(24) . . .
24.1(25) . . .
31.5(30) . . .
31.4(31) . . .
29.8(30) . . .
30.7(29) . . .
23.3(25) . . .
21.5(24) . . .
34.0(35) . . .
27.1(30) . . .
30.5(29) . . .
32.8(30) . . .
28.4(28) . . .
28.1(29) . . .
29.9(29) . . .
32.5(30) . . .
28.0(29) . . .
24.6(26) . . .
33.1(30) . . .
33.8(31) . . .
34.2(32) . . .
30.3(29) . . .
24.2(27) . . .
22.3(27) . . .
27.1(29) . . .
24.8(27) . . .
24.6(27) . . .
28.5(30) . . .
24.7(29) . . .
32.1(33) . . .
27.6(28) . . .
32.2(29) . . .
28.6(29) . . .
25.5(26) . . .
34.0(33) . . .
22.1(24) . . .
28.4(28) . . .
30.6(33) . . .
30.4(32) . . .
32.3(30) . . .
30.4(29) . . .
35.5(31) . . .
28.8(29) . . .
26.6(28) . . .
31.6(30) . . .
33.5(31) . . .
25.2(26) . . .
25.8(28) . . .
23.4(26) . . .
31.2(29) . . .
31.0(29) . . .
33.1(30) . . .
27.2(27) . . .
26.0(26) . . .
31.3(31) . . .
32.3(30) . . .
35.6(31) . . .
30.4(31) . . .
28.5(32) . . .
27.9(29) . . .
33.2(30) . . .
29.8(28) . . .
30.4(28) . . .
30.1(31) . . .
24.5(29) . . .
32.9(31) . . .
27.2(30) . . .
29.9(30) . . .
32.7(34) . . .
30.2(30) . . .
24.6(26) . . .
29.2(29) . . .
34.9(33) . . .
29.3(30) . . .
32.6(30) . . .
34.0(30) . . .
30.1(28) . . .
28.6(27) . . .
31.3(30) . . .
27.2(28) . . .
29.0(28) . . .
34.5(31) . . .
35.4(33) . . .
25.5(27) . . .
33.1(31) . . .
31.0(29) . . .
28.9(28) . . .
31.0(31) . . .
26.8(28) . . .
32.5(30) . . .
36.4(31) . . .
31.8(30) . . .
27.9(30) . . .
29.5(29) . . .
24.3(26) . . .
25.4(26) . . .
23.6(26) . . .
30.4(30) . . .
28.1(28) . . .
30.2(29) . . .
34.0(30) . . .
24.5(28) . . .
31.2(32) . . .
35.5(32) . . .
26.6(27) . . .
24.8(25) . . .
28.3(29) . . .
32.0(31) . . .
36(4) . . .
29.5(29) . . .
30.3(28) . . .
27.9(31) . . .
20.8(26) . . .
26.3(27) . . .
33.3(30) . . .
24.3(27) . . .
27.1(28) . . .
30.7(31) . . .
21.9(24) . . .
29.2(28) . . .
29.6(28) . . .
29.8(30) . . .
36.2(34) . . .
29.1(28) . . .
25.3(27) . . .
29.5(29) . . .
35.3(32) . . .
31.0(31) . . .
31.6(34) . . .
44.0(35) . . .
34.8(33) . . .
32.3(34) . . .
41(4) . . .
31.2(30) . . .
27.8(27) . . .
35.1(34) . . .
33.2(32) . . .
28.8(29) . . .
32.2(30) . . .
18.5(22) . . .
26.8(28) . . .
32.4(31) . . .
29.2(29) . . .
35.2(31) . . .
34.0(30) . . .
26.9(28) . . .
23.7(27) . . .
28.7(31) . . .
33.1(30) . . .
34.0(30) . . .
33.0(31) . . .
32.5(31) . . .
25.6(26) . . .
28.6(28) . . .
25.5(26) . . .
28.6(28) . . .
27.9(30) . . .
22.0(25) . . .
22.5(26) . . .
26.9(27) . . .
36.0(35) . . .
30.0(30) . . .
29.8(29) . . .
30.2(29) . . .
23.0(25) . . .
35.1(35) . . .
19.4(24) . . .
30.4(30) . . .
32.9(29) . . .
31.9(30) . . .
25.9(27) . . .
28.2(28) . . .
31.6(30) . . .
36.8(32) . . .
34.2(30) . . .
26.5(29) . . .
23.8(26) . . .
27.4(27) . . .
27.3(27) . . .
28.2(28) . . .
33.3(32) . . .
24.6(26) . . .
27.6(27) . . .
27.7(28) . . .
38.2(34) . . .
28.9(28) . . .
29.4(29) . . .
21.5(24) . . .
28.8(28) . . .
27.5(29) . . .
27.3(27) . . .
27.3(28) . . .
30.7(29) . . .
27.2(27) . . .
30.0(30) . . .
37(4) . . .
24.3(27) . . .
25.6(27) . . .
33.4(30) . . .
19.6(24) . . .
23.0(27) . . .
27.1(27) . . .
32.7(29) . . .
29.3(28) . . .
32.1(31) . . .
28.9(31) . . .
26.8(28) . . .
29.2(29) . . .
28.8(28) . . .
27.3(28) . . .
27.0(30) . . .
24.9(29) . . .
28.9(29) . . .
26.6(27) . . .
29.0(29) . . .
25.0(26) . . .
33.1(31) . . .
28.6(28) . . .
31.4(29) . . .
29.7(30) . . .
32.0(32) . . .
27.5(29) . . .
26.1(27) . . .
31.4(29) . . .
28.0(30) . . .
27.7(29) . . .
25.6(27) . . .
28.4(28) . . .
31.0(29) . . .
25.5(26) . . .
30.5(28) . . .
26.9(27) . . .
27.6(28) . . .
36.0(32) . . .
30.6(29) . . .
32.8(30) . . .
29.8(29) . . .
28.0(27) . . .
41(4) . . .
27.0(29) . . .
24.1(27) . . .
29.3(28) . . .
25.7(26) . . .
34.0(32) . . .
31.2(32) . . .
25.4(28) . . .
28.4(29) . . .
36.0(31) . . .
32.6(32) . . .
26.0(32) . . .
28.6(29) . . .
36.7(32) . . .
36.8(31) . . .
23.3(26) . . .
30.5(34) . . .
18.4(22) . . .
39.3(34) . . .
34.3(30) . . .
23.2(27) . . .
26.9(31) . . .
31.1(32) . . .
32.5(30) . . .
22.6(24) . . .
24.1(25) . . .
26.0(28) . . .
26.8(30) . . .
20.7(24) . . .
24.6(26) . . .
26.2(27) . . .
28.9(29) . . .
37.6(33) . . .
28.0(28) . . .
28.4(28) . . .
36.4(32) . . .
35.6(35) . . .
32.5(32) . . .
27.8(28) . . .
32.7(31) . . .
37.8(34) . . .
34.4(32) . . .
30.5(30) . . .
27.8(28) . . .
23.0(26) . . .
25.2(28) . . .
24.2(27) . . .
27.8(29) . . .
33.9(30) . . .
34.2(31) . . .
33.0(31) . . .
31.6(30) . . .
34.2(31) . . .
27.0(27) . . .
29.1(29) . . .
34.5(33) . . .
31.9(30) . . .
31.0(29) . . .
28.5(28) . . .
27.2(30) . . .
31.0(33) . . .
30.2(31) . . .
31.7(30) . . .
32.1(29) . . .
31.5(31) . . .
35.7(34) . . .
28.2(27) . . .
29.9(28) . . .
32.0(31) . . .
28.2(28) . . .
31.5(30) . . .
31.6(29) . . .
31.0(29) . . .
30.5(29) . . .
32.7(31) . . .
26.4(27) . . .
22.2(24) . . .
31.3(30) . . .
30.7(29) . . .
27.9(29) . . .
28.7(30) . . .
28.5(30) . . .
28.2(28) . . .
19.8(24) . . .
36.4(34) . . .
25.6(27) . . .
29.8(30) . . .
23.0(26) . . .
20.7(24) . . .
24.0(26) . . .
28.1(28) . . .
29.7(30) . . .
28.5(28) . . .
31.2(29) . . .
25.9(28) . . .
27.2(28) . . .
25.9(27) . . .
33.8(31) . . .
23.8(26) . . .
26.3(29) . . .
27.6(28) . . .
28.4(28) . . .
31.4(30) . . .
25.8(27) . . .
20.1(23) . . .
30.6(32) . . .
27.6(27) . . .
23.3(25) . . .
40(4) . . .
30.8(33) . . .
29.5(30) . . .
24.1(26) . . .
33.0(30) . . .
25.9(26) . . .
32.7(32) . . .
33.2(30) . . .
31.2(29) . . .
28.8(28) . . .
19.1(22) . . .
31.9(33) . . .
31.2(30) . . .
24.6(27) . . .
24.1(26) . . .
31.7(30) . . .
28.5(30) . . .
32.1(30) . . .
34.9(32) . . .
36.2(31) . . .
23.6(26) . . .
33.5(32) . . .
27.5(28) . . .
28.3(27) . . .
31.5(29) . . .
27.6(27) . . .
28.2(29) . . .
24.0(27) . . .
22.5(25) . . .
33.2(31) . . .
30.5(30) . . .
28.2(28) . . .
29.9(29) . . .
35.4(31) . . .
25.6(29) . . .
28.0(29) . . .
29.1(29) . . .
26.5(28) . . .
28.2(29) . . .
28.6(29) . . .
30.4(30) . . .
32.7(31) . . .
24.5(26) . . .
28.0(28) . . .
40(4) . . .
31.0(33) . . .
23.0(26) . . .
35.8(35) . . .
28.3(28) . . .
35.7(33) . . .
21.0(26) . . .
33.0(34) . . .
37.8(34) . . .
31.6(29) . . .
34.3(30) . . .
33.8(31) . . .
32.4(31) . . .
26.9(28) . . .
27.2(27) . . .
30.7(29) . . .
34(4) . . .
22.9(27) . . .
17.5(22) . . .
21.3(25) . . .
35.3(33) . . .
27.8(30) . . .
28.2(29) . . .
34.7(31) . . .
28.6(28) . . .
29.5(28) . . .
42(4) . . .
32.3(30) . . .
23.5(25) . . .
30.9(30) . . .
30.5(30) . . .
26.4(29) . . .
27.0(28) . . .
25.4(26) . . .
26.2(26) . . .
36.9(33) . . .
34.7(32) . . .
28.7(28) . . .
37.4(32) . . .
32.2(30) . . .
28.2(28) . . .
30.2(29) . . .
34.9(31) . . .
33.5(30) . . .
24.0(25) . . .
18.8(21) . . .
28.4(30) . . .
31.7(30) . . .
36.8(31) . . .
27.1(27) . . .
26.7(28) . . .
24.2(27) . . .
19.3(23) . . .
31.7(30) . . .
28.9(29) . . .
30.1(30) . . .
31.7(30) . . .
30.0(28) . . .
23.3(25) . . .
27.7(30) . . .
28.2(28) . . .
31.7(29) . . .
25.0(26) . . .
31.2(29) . . .
28.2(28) . . .
31.6(31) . . .
26.0(28) . . .
25.7(26) . . .
25.1(26) . . .
23.9(28) . . .
30.0(32) . . .
23.5(26) . . .
29.0(28) . . .
33.0(29) . . .
29.3(28) . . .
25.7(27) . . .
30.9(30) . . .
35.4(31) . . .
31.2(29) . . .
28.6(28) . . .
24.8(28) . . .
24.8(29) . . .
34.3(31) . . .
28.4(28) . . .
28.6(29) . . .
23.0(26) . . .
34.6(32) . . .
27.1(27) . . .
27.0(28) . . .
34.3(33) . . .
28.9(29) . . .
27.0(28) . . .
30.5(30) . . .
30.8(29) . . .
32.5(32) . . .
29.1(28) . . .
28.5(28) . . .
26.8(27) . . .
22.5(25) . . .
30.4(29) . . .
31.6(29) . . .
33.5(30) . . .
33.3(31) . . .
34.8(32) . . .
16.4(21) . . .
26.2(28) . . .
31.7(29) . . .
30.1(29) . . .
30.1(29) . . .
23.1(26) . . .
25.9(28) . . .
31.6(29) . . .
29.2(29) . . .
22.3(25) . . .
29.9(31) . . .
32.1(32) . . .
37.4(31) . . .
29.6(29) . . .
23.6(26) . . .
27.3(30) . . .
25.9(27) . . .
33.4(30) . . .
25.9(26) . . .
27.4(28) . . .
29.5(29) . . .
28.4(29) . . .
26.0(27) . . .
28.3(28) . . .
32.8(32) . . .
29.2(30) . . .
29.8(29) . . .
34.6(32) . . .
33.5(30) . . .
28.1(28) . . .
32.8(32) . . .
32.5(30) . . .
33.6(31) . . .
28.4(29) . . .
26.9(29) . . .
28.0(30) . . .
32.7(31) . . .
30.3(30) . . .
30.0(29) . . .
24.6(27) . . .
30.8(31) . . .
28.1(28) . . .
24.1(26) . . .
29.8(30) . . .
34.8(32) . . .
27.5(29) . . .
30.4(30) . . .
33.2(30) . . .
30.2(29) . . .
28.7(29) . . .
30.6(31) . . .
28.2(29) . . .
27.9(28) . . .
26.1(27) . . .
24.8(28) . . .
21.9(26) . . .
33.6(30) . . .
33.7(31) . . .
37.4(33) . . .
27.0(29) . . .
35(4) . . .
35.3(31) . . .
31.0(30) . . .
26.1(28) . . .
35(4) . . .
26.0(26) . . .
29.5(28) . . .
26.1(26) . . .
26.3(29) . . .
32.3(31) . . .
32.9(31) . . .
26.1(27) . . .
29.3(29) . . .
35.6(32) . . .
33.7(31) . . .
32.9(33) . . .
24.8(26) . . .
28.3(28) . . .
24.3(27) . . .
33.0(33) . . .
32.8(31) . . .
24.8(26) . . .
38.0(32) . . .
27.6(27) . . .
27.0(27) . . .
26.5(28) . . .
27.4(27) . . .
23.3(26) . . .
27.4(29) . . .
33.8(34) . . .
35.3(33) . . .
31.7(30) . . .
26.6(27) . . .
33.3(32) . . .
38.0(33) . . .
36.8(32) . . .
36.8(32) . . .
31.6(30) . . .
29.9(31) . . .
32.4(32) . . .
27.0(27) . . .
34.7(31) . . .
31.8(30) . . .
27.1(29) . . .
26.6(27) . . .
34.3(31) . . .
24.5(26) . . .
31.1(31) . . .
29.6(29) . . .
42(4) . . .
27.5(27) . . .
25.2(26) . . .
42(4) . . .
28.6(31) . . .
27.2(28) . . .
26.7(27) . . .
31.9(29) . . .
31.5(30) . . .
28.2(28) . . .
31.0(32) . . .
34.6(31) . . .
31.3(31) . . .
30.6(30) . . .
35.0(33) . . .
31.9(30) . . .
29.7(29) . . .
26.3(27) . . .
22.5(26) . . .
27.0(31) . . .
25.4(28) . . .
33.0(30) . . .
24.8(26) . . .
27.1(30) . . .
22.5(26) . . .
23.2(26) . . .
32.7(30) . . .
30.6(30) . . .
26.7(27) . . .
28.2(28) . . .
26.1(27) . . .
27.6(28) . . .
24.9(27) . . .
33.5(34) . . .
30.7(32) . . .
32.4(30) . . .
31.0(29) . . .
27.5(30) . . .
31.4(33) . . .
21.0(24) . . .
24.0(26) . . .
28.6(28) . . .
27.0(27) . . .
34.0(30) . . .
29.9(27) . . .
32.2(30) . . .
37.7(32) . . .
27.4(27) . . .
33.9(32) . . .
21.7(23) . . .
35.2(31) . . .
32.6(31) . . .
30.8(28) . . .
28.1(28) . . .
28.8(28) . . .
26.0(26) . . .
30.3(30) . . .
37.6(32) . . .
30.3(30) . . .
26.6(27) . . .
32.3(29) . . .
32.2(30) . . .
26.1(29) . . .
23.4(28) . . .
33.7(32) . . .
24.9(26) . . .
26.6(28) . . .
24.1(26) . . .
25.7(27) . . .
30.7(31) . . .
27.8(27) . . .
23.3(25) . . .
24.4(26) . . .
28.0(29) . . .
34.5(31) . . .
28.3(28) . . .
33.1(31) . . .
36.6(34) . . .
25.4(27) . . .
23.9(27) . . .
25.8(26) . . .
32.3(30) . . .
31.5(30) . . .
25.8(25) . . .
39.6(34) . . .
38.2(32) . . .
26.5(27) . . .
24.1(25) . . .
33.0(33) . . .
23.5(27) . . .
37.4(31) . . .
36.8(32) . . .
24.1(27) . . .
35(4) . . .
25.5(27) . . .
23.8(26) . . .
34.7(35) . . .
27.7(30) . . .
23.0(24) . . .
38.6(34) . . .
34.2(31) . . .
27.6(28) . . .
33.6(32) . . .
33.1(32) . . .
28.9(29) . . .
27.9(27) . . .
29.9(30) . . .
27.1(28) . . .
24.7(27) . . .
28.9(28) . . .
24.4(28) . . .
34.5(33) . . .
24.4(26) . . .
25.8(28) . . .
34.2(31) . . .
29.7(28) . . .
29.1(28) . . .
35.7(34) . . .
32.1(32) . . .
29.3(28) . . .
23.8(26) . . .
33.0(33) . . .
33.3(31) . . .
27.7(28) . . .
26.2(27) . . .
31.0(31) . . .
29.0(31) . . .
23.7(26) . . .
20.8(24) . . .
26.8(27) . . .
30.0(30) . . .
30.3(31) . . .
30.6(30) . . .
28.7(28) . . .
28.0(28) . . .
29.1(31) . . .
28.5(28) . . .
29.2(30) . . .
24.6(27) . . .
26.4(27) . . .
30.0(29) . . .
30.3(30) . . .
30.3(28) . . .
27.4(27) . . .
24.8(27) . . .
30.3(29) . . .
30.3(28) . . .
32.0(29) . . .
35.2(32) . . .
29.1(28) . . .
34.1(32) . . .
22.8(25) . . .
22.8(26) . . .
27.6(28) . . .
28.8(28) . . .
37.2(33) . . .
38(4) . . .
22.6(26) . . .
29.1(28) . . .
21.2(24) . . .
28.8(29) . . .
23.9(28) . . .
25.3(27) . . .
26.4(27) . . .
27.5(27) . . .
29.3(29) . . .
26.9(31) . . .
23.8(26) . . .
30.7(29) . . .
26.1(26) . . .
26.3(28) . . .
26.7(28) . . .
21.5(25) . . .
23.5(26) . . .
25.1(26) . . .
28.6(29) . . .
33.2(31) . . .
29.2(30) . . .
39.0(32) . . .
29.0(29) . . .
33.5(32) . . .
27.3(27) . . .
30.2(29) . . .
27.6(27) . . .
30.1(29) . . .
30.1(30) . . .
29.0(31) . . .
33.2(31) . . .
34.0(30) . . .
34.7(34) . . .
29.7(30) . . .
35.9(34) . . .
26.7(28) . . .
31.3(29) . . .
30.3(29) . . .
37.4(34) . . .
26.2(29) . . .
31.5(29) . . .
27.4(28) . . .
24.7(26) . . .
37(4) . . .
41.6(35) . . .
35.3(32) . . .
37.1(33) . . .
24.8(29) . . .
23.6(27) . . .
28.7(29) . . .
28.5(30) . . .
35.6(32) . . .
25.0(27) . . .
31.1(33) . . .
27.3(28) . . .
25.3(27) . . .
26.1(26) . . .
30.7(31) . . .
28.1(30) . . .
20.2(24) . . .
26.8(27) . . .
24.8(26) . . .
29.8(29) . . .
34.0(31) . . .
33.2(32) . . .
30.7(29) . . .
29.8(30) . . .
29.3(30) . . .
30.0(31) . . .
26.9(30) . . .
25.0(26) . . .
28.5(28) . . .
36.2(33) . . .
29.8(30) . . .
21.6(24) . . .
26.6(27) . . .
25.8(27) . . .
29.0(30) . . .
27.7(27) . . .
29.3(28) . . .
23.4(25) . . .
28.5(30) . . .
26.9(31) . . .
22.9(26) . . .
24.6(26) . . .
38.0(32) . . .
27.2(27) . . .
26.6(28) . . .
29.9(28) . . .
31.3(29) . . .
25.9(26) . . .
31.1(30) . . .
21.2(24) . . .
30.2(30) . . .
27.7(27) . . .
30.2(29) . . .
32.7(30) . . .
30.0(30) . . .
36.5(33) . . .
34.4(31) . . .
33.6(30) . . .
30.0(30) . . .
30.5(31) . . .
29.0(29) . . .
34.7(31) . . .
29.3(29) . . .
23.8(27) . . .
31.0(32) . . .
30.3(31) . . .
22.4(25) . . .
31.5(30) . . .
30.4(31) . . .
34.4(34) . . .
28.5(29) . . .
29.7(28) . . .
25.7(27) . . .
26.0(28) . . .
32.6(33) . . .
32.2(33) . . .
26.7(27) . . .
23.3(25) . . .
39.6(35) . . .
30.0(29) . . .
30.7(29) . . .
20.4(24) . . .
18.8(22) . . .
29.9(30) . . .
31.8(30) . . .
28.4(28) . . .
28.4(28) . . .
32.8(31) . . .
25.1(28) . . .
30.2(29) . . .
34.0(30) . . .
22.9(25) . . .
31.4(29) . . .
35.5(32) . . .
34.5(32) . . .
24.8(26) . . .
26.0(26) . . .
30.5(31) . . .
27.6(31) . . .
30.1(31) . . .
28.0(28) . . .
34.7(31) . . .
26.0(27) . . .
31.2(32) . . .
28.5(29) . . .
22.8(26) . . .
29.0(28) . . .
35.7(31) . . .
29.3(29) . . .
28.2(29) . . .
25.6(26) . . .
29.0(28) . . .
21.5(24) . . .
26.9(28) . . .
26.9(28) . . .
29.7(28) . . .
29.8(29) . . .
30.3(30) . . .
28.7(30) . . .
28.8(28) . . .
26.3(26) . . .
30.3(29) . . .
35.6(32) . . .
37(4) . . .
27.4(28) . . .
37.0(32) . . .
40.3(33) . . .
24.6(26) . . .
24.1(26) . . .
28.9(29) . . .
34.6(30) . . .
34.3(31) . . .
30.5(29) . . .
25.8(25) . . .
27.8(29) . . .
29.4(29) . . .
23.2(27) . . .
36.9(35) . . .
30.1(31) . . .
31.3(29) . . .
30.9(30) . . .
29.5(32) . . .
23.9(26) . . .
23.6(26) . . .
27.2(31) . . .
24.1(26) . . .
23.3(25) . . .
32.0(30) . . .
34.6(32) . . .
31.4(29) . . .
31.1(30) . . .
28.9(28) . . .
31.4(32) . . .
33.5(32) . . .
30.4(30) . . .
28.0(27) . . .
22.4(25) . . .
35(4) . . .
31.7(30) . . .
29.4(29) . . .
35.4(32) . . .
29.4(28) . . .
38.0(33) . . .
28.8(28) . . .
30.6(30) . . .
28.5(27) . . .
31.8(31) . . .
30.2(31) . . .
27.9(28) . . .
32.0(30) . . .
31.3(29) . . .
27.7(29) . . .
30.0(31) . . .
31.0(29) . . .
29.4(29) . . .
33.5(31) . . .
30.5(31) . . .
29.0(28) . . .
28.0(28) . . .
30.5(28) . . .
25.7(26) . . .
31.8(32) . . .
31.9(32) . . .
30.5(30) . . .
31.0(29) . . .
31.5(32) . . .
33.0(32) . . .
28.4(29) . . .
27.6(27) . . .
24.4(26) . . .
26.0(28) . . .
30.3(31) . . .
30.1(31) . . .
28.8(29) . . .
24.8(26) . . .
28.5(30) . . .
28.3(30) . . .
25.3(27) . . .
28.3(27) . . .
34.6(31) . . .
25.9(28) . . .
33.1(33) . . .
30.5(29) . . .
27.7(27) . . .
27.1(28) . . .
28.2(29) . . .
26.1(29) . . .
25.7(28) . . .
26.5(27) . . .
31.4(31) . . .
27.3(27) . . .
28.8(28) . . .
30.0(30) . . .
27.6(27) . . .
22.0(24) . . .
25.8(29) . . .
32.4(32) . . .
35.7(32) . . .
31.8(29) . . .
25.0(28) . . .
22.0(25) . . .
26.2(28) . . .
30.5(29) . . .
24.4(26) . . .
28.5(29) . . .
29.3(32) . . .
27.4(27) . . .
32.6(31) . . .
23.6(26) . . .
29.0(28) . . .
40(4) . . .
29.7(30) . . .
25.2(26) . . .
26.0(27) . . .
31.3(29) . . .
34.7(33) . . .
22.3(25) . . .
27.2(28) . . .
29.0(28) . . .
27.9(27) . . .
28.1(29) . . .
24.5(26) . . .
25.1(26) . . .
31.5(30) . . .
31.8(31) . . .
28.5(28) . . .
24.1(25) . . .
30.4(29) . . .
23.4(25) . . .
31.0(30) . . .
34.2(32) . . .
29.1(31) . . .
30.0(29) . . .
27.7(28) . . .
25.4(27) . . .
34.2(32) . . .
27.7(27) . . .
35.4(31) . . .
23.5(27) . . .
31.0(30) . . .
32.5(33) . . .
28.6(31) . . .
33.4(30) . . .
36.1(31) . . .
32.0(30) . . .
39(4) . . .
25.4(28) . . .
32.1(30) . . .
35.7(31) . . .
28.2(28) . . .
32.6(32) . . .
31.6(30) . . .
28.3(29) . . .
34.7(30) . . .
24.6(25) . . .
29.3(29) . . .
31.4(30) . . .
25.9(27) . . .
27.1(29) . . .
25.6(28) . . .
27.3(27) . . .
33.5(31) . . .
36.0(31) . . .
33.4(31) . . .
21.9(27) . . .
26.4(29) . . .
30.5(29) . . .
23.9(26) . . .
38.6(34) . . .
32.3(31) . . .
32.6(32) . . .
36.8(32) . . .
39.9(32) . . .
32.1(29) . . .
32.4(30) . . .
32.7(32) . . .
30.2(29) . . .
31.2(30) . . .
24.1(26) . . .
27.9(31) . . .
25.8(28) . . .
30.3(30) . . .
29.8(28) . . .
25.4(27) . . .
23.3(27) . . .
27.8(30) . . .
37.1(31) . . .
32.8(31) . . .
37.0(33) . . .
24.0(25) . . .
28.0(29) . . .
28.4(28) . . .
28.0(28) . . .
27.1(29) . . .
27.8(29) . . .
32.4(31) . . .
33.8(30) . . .
30.0(29) . . .
31.8(31) . . .
28.1(30) . . .
31.6(30) . . .
29.0(28) . . .
34.2(32) . . .
23.6(25) . . .
31.1(32) . . .
22.3(25) . . .
26.0(27) . . .
29.8(28) . . .
29.8(28) . . .
26.5(26) . . .
28.3(28) . . .
26.1(27) . . .
33.2(31) . . .
27.1(28) . . .
28.7(29) . . .
37.8(34) . . .
25.8(27) . . .
27.5(28) . . .
34.4(33) . . .
34.2(33) . . .
28.4(28) . . .
32.7(30) . . .
24.0(26) . . .
32.8(32) . . .
27.7(28) . . .
35.8(31) . . .
31.6(29) . . .
28.3(28) . . .
30.0(31) . . .
32.2(31) . . .
29.9(28) . . .
35.2(31) . . .
26.7(27) . . .
31.2(33) . . .
29.1(29) . . .
28.7(28) . . .
25.2(26) . . .
26.1(27) . . .
27.9(32) . . .
28.6(28) . . .
31.0(29) . . .
27.4(27) . . .
26.0(26) . . .
29.9(29) . . .
33.5(31) . . .
28.8(28) . . .
28.7(28) . . .
22.5(27) . . .
33.8(32) . . .
30.1(28) . . .
35.6(31) . . .
19.1(23) . . .
29.3(31) . . .
31.1(31) . . .
29.6(28) . . .
32.1(29) . . .
25.6(28) . . .
27.3(28) . . .
31.2(31) . . .
31.0(30) . . .
25.2(26) . . .
30.2(29) . . .
32.9(31) . . .
29.2(30) . . .
31.1(30) . . .
26.8(27) . . .
28.0(28) . . .
27.0(28) . . .
29.6(28) . . .
34.5(31) . . .
29.7(29) . . .
30.1(30) . . .
25.0(26) . . .
33.9(32) . . .
30.0(31) . . .
25.4(27) . . .
31.4(32) . . .
30.9(30) . . .
37.3(32) . . .
36.2(32) . . .
26.5(27) . . .
27.2(29) . . .
25.7(27) . . .
26.6(27) . . .
29.3(28) . . .
30.7(29) . . .
30.4(29) . . .
24.7(27) . . .
32.7(30) . . .
29.0(29) . . .
30.9(29) . . .
24.7(27) . . .
31.2(32) . . .
29.0(31) . . .
23.1(26) . . .
28.8(28) . . .
29.7(29) . . .
26.4(27) . . .
28.1(28) . . .
26.4(27) . . .
34.3(31) . . .
33.3(31) . . .
37.5(35) . . .
32.8(33) . . .
23.5(25) . . .
24.7(26) . . .
27.9(28) . . .
29.3(28) . . .
31.6(29) . . .
34.2(30) . . .
25.7(27) . . .
35.0(33) . . .
30.8(31) . . .
34.5(31) . . .
27.1(27) . . .
25.1(27) . . .
30.0(29) . . .
30.3(29) . . .
35.2(33) . . .
28.7(28) . . .
32.5(33) . . .
37.9(34) . . .
27.0(26) . . .
32.5(32) . . .
32.2(30) . . .
27.9(30) . . .
24.0(26) . . .
30.2(31) . . .
27.2(29) . . .
29.3(29) . . .
31.0(31) . . .
31.8(31) . . .
33.2(31) . . .
28.1(27) . . .
33.7(31) . . .
29.2(30) . . .
32.0(33) . . .
25.8(27) . . .
35.0(30) . . .
27.9(28) . . .
22.3(27) . . .
40(4) . . .
34.6(31) . . .
31.8(29) . . .
27.4(27) . . .
23.6(25) . . .
32.7(33) . . .
25.8(28) . . .
28.1(28) . . .
37.6(32) . . .
33.2(32) . . .
23.4(27) . . .
28.2(29) . . .
27.8(27) . . .
28.2(29) . . .
36(4) . . .
26.1(29) . . .
32.8(31) . . .
39.3(33) . . .
23.0(26) . . .
34(4) . . .
34.1(34) . . .
30.8(30) . . .
22.4(25) . . .
24.2(25) . . .
23.3(25) . . .
22.5(24) . . .
25.7(26) . . .
33.3(30) . . .
29.9(29) . . .
25.6(27) . . .
26.8(29) . . .
21.6(25) . . .
22.2(25) . . .
27.8(30) . . .
32.7(34) . . .
29.0(30) . . .
23.2(25) . . .
35.7(31) . . .
25.9(27) . . .
29.8(29) . . .
31.8(31) . . .
26.8(27) . . .
31.6(29) . . .
30.5(29) . . .
34.8(34) . . .
32.8(32) . . .
30.5(29) . . .
31.9(30) . . .
29.6(29) . . .
26.6(28) . . .
24.2(27) . . .
35.4(31) . . .
23.9(26) . . .
28.9(28) . . .
26.4(29) . . .
24.9(26) . . .
31.5(30) . . .
26.6(27) . . .
30.5(29) . . .
27.7(30) . . .
27.4(28) . . .
29.3(28) . . .
24.4(26) . . .
33.0(32) . . .
29.2(30) . . .
24.9(27) . . .
30.0(29) . . .
26.0(26) . . .
26.5(29) . . .
24.7(28) . . .
30.8(29) . . .
38.2(33) . . .
23.5(27) . . .
30.1(29) . . .
32.0(32) . . .
37(4) . . .
26.1(27) . . .
21.6(26) . . .
21.3(25) . . .
22.6(26) . . .
27.0(31) . . .
21.5(24) . . .
29.5(29) . . .
29.0(30) . . .
29.6(30) . . .
29.1(28) . . .
27.9(28) . . .
26.5(28) . . .
23.5(28) . . .
23.9(26) . . .
31.7(29) . . .
30.3(29) . . .
32.1(33) . . .
26.8(30) . . .
23.8(28) . . .
26.1(27) . . .
38.0(32) . . .
28.8(30) . . .
26.0(27) . . .
26.7(28) . . .
25.7(26) . . .
27.0(27) . . .
27.2(28) . . .
27.4(28) . . .
27.9(28) . . .
30.3(29) . . .
26.8(27) . . .
29.7(31) . . .
28.1(29) . . .
33.3(31) . . .
27.9(27) . . .
34.4(31) . . .
32.5(30) . . .
26.9(27) . . .
26.3(27) . . .
25.5(27) . . .
27.0(30) . . .
27.2(27) . . .
27.2(28) . . .
23.9(27) . . .
23.0(25) . . .
27.3(28) . . .
30.9(32) . . .
30.3(32) . . .
29.8(29) . . .
31.9(29) . . .
28.8(29) . . .
28.3(30) . . .
29.6(29) . . .
30.1(29) . . .
28.1(28) . . .
35.1(33) . . .
29.8(30) . . .
26.6(27) . . .
26.2(27) . . .
22.1(25) . . .
28.2(27) . . .
27.7(29) . . .
25.6(27) . . .
24.5(26) . . .
28.7(28) . . .
27.4(29) . . .
28.7(29) . . .
29.8(30) . . .
32.6(30) . . .
25.4(27) . . .
22.8(26) . . .
28.1(30) . . .
32.6(32) . . .
24.0(25) . . .
26.8(27) . . .
28.7(28) . . .
25.6(26) . . .
25.2(27) . . .
30.4(29) . . .
27.3(27) . . .
34.1(31) . . .
32.2(31) . . .
27.7(29) . . .
30.5(28) . . .
31.0(29) . . .
26.6(27) . . .
29.1(31) . . .
27.2(29) . . .
31.4(29) . . .
25.8(29) . . .
20.2(24) . . .
27.6(30) . . .
29.7(29) . . .
28.4(27) . . .
31.8(30) . . .
34.7(32) . . .
32.6(31) . . .
23.8(26) . . .
26.0(26) . . .
26.6(27) . . .
29.3(28) . . .
31.6(32) . . .
25.5(27) . . .
30.6(29) . . .
19.9(25) . . .
24.1(28) . . .
24.5(28) . . .
24.3(26) . . .
32.9(30) . . .
34.7(31) . . .
38(4) . . .
29.5(31) . . .
28.5(28) . . .
30.0(28) . . .
30.3(29) . . .
28.1(29) . . .
26.0(26) . . .
21.9(25) . . .
22.9(26) . . .
39(4) . . .
31.0(32) . . .
27.9(27) . . .
34.1(30) . . .
31.9(30) . . .
37(4) . . .
35.1(33) . . .
28.2(27) . . .
35.1(31) . . .
26.7(28) . . .
23.0(26) . . .
22.4(28) . . .
26.6(29) . . .
28.5(29) . . .
34.1(31) . . .
26.8(27) . . .
37(4) . . .
23.2(27) . . .
26.3(26) . . .
34.5(30) . . .
28.1(28) . . .
23.7(27) . . .
30.9(29) . . .
35.4(31) . . .
23.0(25) . . .
24.4(26) . . .
29.0(29) . . .
27.4(28) . . .
21.8(24) . . .
26.0(27) . . .
29.3(31) . . .
27.2(27) . . .
26.6(30) . . .
35.5(31) . . .
31.5(30) . . .
29.6(28) . . .
31.8(30) . . .
27.3(28) . . .
24.2(26) . . .
31.5(30) . . .
29.4(28) . . .
30.8(29) . . .
27.9(29) . . .
24.7(26) . . .
24.9(27) . . .
27.1(30) . . .
25.5(27) . . .
34.4(32) . . .
24.5(26) . . .
28.5(29) . . .
24.0(27) . . .
26.1(27) . . .
25.9(26) . . .
27.0(28) . . .
32.3(30) . . .
30.2(31) . . .
33.0(32) . . .
30.6(30) . . .
35.3(31) . . .
28.0(28) . . .
29.5(31) . . .
30.2(31) . . .
30.7(29) . . .
31.9(29) . . .
36.9(34) . . .
26.8(26) . . .
30.2(31) . . .
24.0(26) . . .
28.6(28) . . .
35.1(32) . . .
31.9(31) . . .
25.8(28) . . .
24.6(26) . . .
25.3(26) . . .
22.2(24) . . .
34.6(34) . . .
22.9(26) . . .
27.9(28) . . .
30.6(30) . . .
26.2(30) . . .
24.9(29) . . .
29.9(31) . . .
31.2(29) . . .
21.1(25) . . .
28.9(29) . . .
29.0(31) . . .
32.6(31) . . .
31.3(29) . . .
37.0(33) . . .
33.7(33) . . .
21.7(24) . . .
34.7(30) . . .
32.2(30) . . .
29.7(30) . . .
23.2(25) . . .
23.9(26) . . .
29.7(30) . . .
29.4(29) . . .
24.4(26) . . .
27.0(30) . . .
28.2(29) . . .
29.3(29) . . .
36.2(32) . . .
34.9(31) . . .
24.0(27) . . .
27.3(29) . . .
21.2(24) . . .
27.5(27) . . .
32.8(30) . . .
23.5(26) . . .
30.8(30) . . .
30.0(28) . . .
25.2(26) . . .
32.9(31) . . .
27.5(29) . . .
32.6(32) . . .
24.8(27) . . .
25.3(26) . . .
25.1(27) . . .
29.9(30) . . .
36.1(32) . . .
27.7(28) . . .
33.2(31) . . .
28.4(29) . . .
28.2(29) . . .
25.6(26) . . .
30.7(29) . . .
32.0(33) . . .
21.1(24) . . .
28.2(29) . . .
28.8(29) . . .
26.4(26) . . .
27.5(29) . . .
27.8(30) . . .
25.6(27) . . .
27.5(29) . . .
23.6(25) . . .
26.7(30) . . .
24.4(26) . . .
28.0(30) . . .
30.1(31) . . .
25.0(26) . . .
29.1(32) . . .
25.0(25) . . .
32.7(33) . . .
29.2(29) . . .
23.9(27) . . .
29.3(31) . . .
28.5(31) . . .
31.8(30) . . .
24.1(25) . . .
24.7(26) . . .
30.7(29) . . .
34.6(34) . . .
25.0(26) . . .
27.2(28) . . .
37.2(33) . . .
33.6(31) . . .
31.3(31) . . .
36.8(35) . . .
23.8(26) . . .
30.5(29) . . .
23.8(25) . . .
30.9(33) . . .
27.5(30) . . .
29.4(29) . . .
28.7(28) . . .
33.1(32) . . .
34.1(33) . . .
38.8(33) . . .
29.4(28) . . .
36.2(32) . . .
29.6(30) . . .
32.7(33) . . .
34.8(31) . . .
34.1(31) . . .
30.7(30) . . .
36.0(33) . . .
22.0(26) . . .
28.5(28) . . .
30.8(29) . . .
25.6(27) . . .
27.5(28) . . .
30.4(29) . . .
26.8(27) . . .
23.2(25) . . .
33.7(30) . . .
25.8(26) . . .
24.5(25) . . .
25.4(26) . . .
25.2(27) . . .
20.5(25) . . .
25.2(28) . . .
28.4(30) . . .
32.0(30) . . .
29.5(28) . . .
27.1(31) . . .
21.2(25) . . .
27.7(28) . . .
27.2(27) . . .
27.5(27) . . .
28.0(30) . . .
23.6(27) . . .
31.5(31) . . .
29.3(28) . . .
31.4(29) . . .
26.7(27) . . .
30.4(32) . . .
30.5(30) . . .
37.4(32) . . .
24.7(26) . . .
30.6(30) . . .
29.7(31) . . .
30.2(29) . . .
32.7(30) . . .
25.7(27) . . .
23.0(27) . . .
20.7(26) . . .
25.8(27) . . .
27.6(28) . . .
32.5(30) . . .
22.6(26) . . .
23.7(29) . . .
30.6(30) . . .
35.1(31) . . .
35.5(31) . . .
20.5(23) . . .
32.5(32) . . .
30.1(29) . . .
26.4(27) . . .
26.9(28) . . .
35.1(33) . . .
29.8(29) . . .
27.3(28) . . .
27.9(28) . . .
27.6(27) . . .
37.9(33) . . .
39.8(34) . . .
31.2(29) . . .
29.5(28) . . .
25.9(26) . . .
27.6(27) . . .
33.0(34) . . .
27.6(27) . . .
28.5(28) . . .
29.6(28) . . .
31.5(31) . . .
24.5(27) . . .
31.5(31) . . .
29.6(29) . . .
23.0(27) . . .
23.5(27) . . .
22.1(25) . . .
28.7(28) . . .
22.3(26) . . .
23.7(26) . . .
21.5(27) . . .
27.3(29) . . .
29.6(28) . . .
37.6(32) . . .
30.9(30) . . .
28.8(30) . . .
29.8(32) . . .
28.1(27) . . .
24.1(25) . . .
24.3(26) . . .
27.1(28) . . .
28.0(28) . . .
33.0(30) . . .
24.0(26) . . .
24.5(31) . . .
26.4(28) . . .
33.7(31) . . .
38.3(33) . . .
34.7(32) . . .
35.0(32) . . .
26.3(27) . . .
30.6(29) . . .
28.2(28) . . .
18.6(24) . . .
29.0(29) . . .
28.1(28) . . .
34.2(31) . . .
25.6(26) . . .
22.1(26) . . .
21.7(26) . . .
33.8(34) . . .
23.7(27) . . .
21.0(24) . . .
35.6(31) . . .
42(4) . . .
22.0(25) . . .
25.6(26) . . .
29.9(29) . . .
31.3(33) . . .
22.6(25) . . .
33.2(32) . . .
25.7(26) . . .
25.5(26) . . .
24.9(27) . . .
19.0(23) . . .
26.5(29) . . .
26.8(26) . . .
31.7(30) . . .
33.4(34) . . .
26.3(28) . . .
18.8(22) . . .
29.8(28) . . .
28.9(28) . . .
33.2(32) . . .
35.9(34) . . .
26.3(26) . . .
37.5(32) . . .
36.6(32) . . .
33.5(32) . . .
31.9(32) . . .
29.5(29) . . .
34.8(30) . . .
34.3(30) . . .
30.2(29) . . .
35.6(33) . . .
24.3(26) . . .
22.4(25) . . .
32.4(29) . . .
38.2(35) . . .
33.8(31) . . .
25.9(26) . . .
25.6(27) . . .
29.0(28) . . .
32.1(30) . . .
32.2(31) . . .
32.3(30) . . .
31.4(30) . . .
31.7(30) . . .
31.9(31) . . .
29.3(29) . . .
33.7(30) . . .
28.0(27) . . .
29.9(29) . . .
21.5(24) . . .
27.1(28) . . .
33.5(31) . . .
23.0(25) . . .
30.3(32) . . .
26.9(30) . . .
29.4(33) . . .
22.1(25) . . .
23.8(25) . . .
30.0(29) . . .
24.9(27) . . .
27.4(29) . . .
34.8(31) . . .
27.2(27) . . .
26.0(27) . . .
26.6(30) . . .
31.0(29) . . .
29.3(28) . . .
22.0(25) . . .
28.8(29) . . .
30.9(32) . . .
31.8(30) . . .
30.9(29) . . .
29.9(29) . . .
32.6(33) . . .
37.4(35) . . .
31.9(30) . . .
26.6(27) . . .
29.3(28) . . .
32.8(32) . . .
28.8(29) . . .
31.7(31) . . .
29.7(28) . . .
29.2(29) . . .
23.2(27) . . .
36.8(34) . . .
30.2(30) . . .
26.7(27) . . .
31.8(30) . . .
28.4(30) . . .
34.5(33) . . .
24.3(26) . . .
33.6(31) . . .
29.9(29) . . .
33.3(33) . . .
24.5(27) . . .
31.0(29) . . .
30.9(29) . . .
29.9(31) . . .
33.1(31) . . .
33.0(30) . . .
32.8(30) . . .
33.0(30) . . .
26.9(27) . . .
24.2(27) . . .
26.1(30) . . .
26.8(27) . . .
38.8(32) . . .
26.6(27) . . .
26.9(29) . . .
27.7(29) . . .
25.3(27) . . .
32.1(29) . . .
33.2(32) . . .
30.7(31) . . .
25.1(26) . . .
33.3(30) . . .
29.5(28) . . .
23.4(25) . . .
27.4(28) . . .
32.0(31) . . .
30.3(30) . . .
35.0(30) . . .
31.0(29) . . .
28.0(27) . . .
31.5(31) . . .
33.1(31) . . .
28.1(27) . . .
30.4(32) . . .
34.1(31) . . .
28.6(28) . . .
28.0(27) . . .
26.1(28) . . .
28.6(28) . . .
30.5(33) . . .
35.5(33) . . .
27.8(28) . . .
35.6(33) . . .
31.2(31) . . .
24.6(27) . . .
26.2(27) . . .
32.8(30) . . .
35.2(32) . . .
30.4(30) . . .
28.9(30) . . .
24.5(25) . . .
24.7(27) . . .
23.6(26) . . .
24.5(26) . . .
30.2(31) . . .
26.0(27) . . .
35.5(31) . . .
21.8(25) . . .
29.5(29) . . .
36.2(33) . . .
28.3(29) . . .
24.3(26) . . .
32.9(32) . . .
24.0(27) . . .
30.1(29) . . .
34.7(31) . . .
26.8(29) . . .
33.4(31) . . .
30.1(30) . . .
29.2(28) . . .
25.0(26) . . .
26.5(26) . . .
28.6(29) . . .
29.6(32) . . .
27.2(28) . . .
26.7(27) . . .
31.0(29) . . .
33.7(31) . . .
36.2(33) . . .
29.7(29) . . .
26.1(27) . . .
38.3(32) . . .
33.2(32) . . .
17.8(23) . . .
29.3(32) . . .
28.8(28) . . .
33.2(32) . . .
23.4(26) . . .
29.3(28) . . .
35.4(31) . . .
37.2(32) . . .
26.1(26) . . .
27.5(28) . . .
25.5(28) . . .
27.9(29) . . .
31.7(29) . . .
36.4(35) . . .
25.7(27) . . .
33.4(34) . . .
28.5(28) . . .
23.3(26) . . .
27.9(27) . . .
24.7(26) . . .
29.3(29) . . .
29.7(29) . . .
28.4(28) . . .
22.9(25) . . .
29.4(31) . . .
26.7(28) . . .
34.2(30) . . .
27.0(27) . . .
35.0(33) . . .
36(4) . . .
loop_
_refln_index_h
_refln_index_k
_refln_index_l
_refln_observed_status
_refln_F_squared_meas
_refln_F_squared_calc
_refln_phase_calc
_refln_d_spacing
_gsas_i100_meas
0 0 10 o 5703.878 6299.704 180.00 1.31717 0.60
0 2 10 o 9.983 10.788 0.00 1.30053 0.00
-1 1 10 o 120.219 119.435 180.00 1.28757 0.02
1 1 10 o 581.068 575.804 0.00 1.28729 0.12
0 1 9 o 1453.384 1474.306 0.00 1.45774 0.37
1 0 9 o 995.632 994.094 180.00 1.42842 0.24
0 0 8 o 217.849 205.827 180.00 1.64646 0.04
1 3 10 o 65.291 79.649 180.00 1.25650 0.01
1 2 9 o 445.741 367.830 180.00 1.40692 0.11
2 0 10 o 1559.402 1836.460 0.00 1.22234 0.28
-1 3 10 o 7.160 8.652 0.00 1.25727 0.00
2 2 10 o 415.755 814.309 180.00 1.20856 0.07
0 3 9 o 70.975 61.175 0.00 1.41383 0.02
0 2 8 o 1046.025 810.891 180.00 1.61431 0.33
-1 2 9 o 0.964 0.800 0.00 1.40763 0.00
0 1 7 o 1364.123 1044.749 0.00 1.86943 0.57
-1 1 8 o 789.233 785.080 0.00 1.58972 0.24
1 1 8 o 1401.439 1420.935 0.00 1.58920 0.42
1 0 7 o 964.428 1047.863 0.00 1.80877 0.38
-2 2 10 o 926.271 1787.510 180.00 1.20947 0.17
0 4 10 o 35.827 45.055 180.00 1.25416 0.01
0 0 6 o 3138.382 3037.172 0.00 2.19528 0.90
-2 1 9 o 2353.408 2347.072 180.00 1.33247 0.51
2 1 9 o 678.595 686.218 180.00 1.33186 0.15
0 1 5 o 1791.878 1644.777 180.00 2.60106 1.43
-1 1 6 o 425.389 460.287 180.00 2.06589 0.22
1 1 6 o 1666.229 1787.035 180.00 2.06476 0.84
-1 2 7 o 482.345 467.829 180.00 1.76711 0.18
1 2 7 o 2560.227 2476.514 180.00 1.76568 0.95
2 0 8 o 780.932 769.337 180.00 1.47156 0.20
-1 3 8 o 92.715 102.298 0.00 1.53371 0.03
1 3 8 o 61.655 68.108 0.00 1.53232 0.02
2 3 9 o 478.654 512.307 0.00 1.29756 0.10
0 0 4 o 72.353 106.914 180.00 3.29293 0.05
1 4 9 o 0.697 0.605 0.00 1.34842 0.00
0 2 6 o 437.687 489.390 180.00 2.12075 0.23
1 0 5 o 1140.534 685.772 180.00 2.44469 0.81
0 3 7 o 1404.942 1465.501 0.00 1.77941 0.53
-2 3 9 o 2130.853 2299.626 0.00 1.29925 0.44
-1 4 9 o 55.056 47.412 0.00 1.34969 0.01
-2 2 8 o 2569.205 2445.299 0.00 1.44925 0.65
2 2 8 o 340.488 312.346 0.00 1.44768 0.09
2 1 7 o 154.397 132.991 0.00 1.62371 0.05
0 1 3 o 95.734 31.950 180.00 4.24150 0.20
3 0 9 o 1189.649 1803.369 0.00 1.21635 0.21
0 0 2 o 0.000 314.996 180.00 6.58585 0.00
0 4 8 o 23.339 26.862 180.00 1.52809 0.01
0 5 9 o 33.790 31.767 0.00 1.33674 0.01
-2 1 7 o 680.897 593.441 0.00 1.62482 0.22
1 2 5 o 1043.491 934.277 0.00 2.34132 0.68
-1 1 4 o 298.355 89.721 0.00 2.89851 0.30
1 1 4 o 238.921 73.181 0.00 2.89537 0.24
0 2 4 o 1866.902 997.625 0.00 3.05617 2.06
1 3 6 o 2352.848 1874.225 0.00 1.94438 1.06
-1 2 5 o 180.593 167.340 0.00 2.34464 0.12
2 0 6 o 0.639 0.794 180.00 1.82453 0.00
1 0 3 o 682.223 268.809 180.00 3.64906 1.07
0 2 0 o 1023.447 1409.445 180.00 8.20834 4.04
-1 3 6 o 422.825 338.052 0.00 1.94724 0.19
2 3 7 o 1477.994 1931.552 180.00 1.56269 0.43
2 4 8 o 2414.841 1979.726 180.00 1.38384 0.56
2 5 9 o 1999.380 2143.923 180.00 1.23671 0.37
0 4 0 o 2725.581 1296.887 0.00 4.10417 2.70
0 12 0 o 4296.943 3840.375 0.00 1.36806 0.49
-1 4 7 o 356.725 337.613 180.00 1.65633 0.12
1 4 7 o 129.262 125.100 180.00 1.65399 0.04
0 3 5 o 121.938 128.849 0.00 2.37362 0.08
0 8 0 o 317.335 321.010 0.00 2.05208 0.08
-3 1 8 o 882.022 990.460 180.00 1.31167 0.18
3 1 8 o 1045.985 1174.429 180.00 1.31079 0.22
0 10 0 o 10914.474 10844.866 180.00 1.64167 1.76
0 6 0 o 1843.729 1649.117 0.00 2.73611 0.81
2 2 6 o 1421.394 1481.214 180.00 1.77960 0.54
0 13 1 o 2505.065 3099.990 0.00 1.25706 0.48
-2 3 7 o 2562.232 3507.349 180.00 1.56566 0.75
-1 12 1 o 0.345 0.330 180.00 1.33422 0.00
1 5 8 o 10.583 11.984 180.00 1.43514 0.00
0 11 1 o 7050.045 5857.903 180.00 1.48294 1.87
0 9 1 o 4215.281 4542.168 0.00 1.80683 1.64
2 1 5 o 650.017 675.154 180.00 2.03715 0.32
-1 10 1 o 520.480 696.569 180.00 1.58362 0.16
-2 2 6 o 1270.967 1390.565 180.00 1.78252 0.48
-1 8 1 o 797.148 632.662 180.00 1.94101 0.36
-2 12 0 o 204.734 204.449 180.00 1.26581 0.02
0 4 6 o 3254.094 2586.529 180.00 1.93576 1.45
0 7 1 o 176.822 99.535 0.00 2.30893 0.11
-2 4 8 o 4260.796 3409.986 180.00 1.38659 0.99
-1 5 8 o 223.806 229.067 180.00 1.43706 0.06
0 5 1 o 44.231 34.182 180.00 3.18585 0.05
3 0 7 o 494.211 473.623 180.00 1.42646 0.12
-2 5 9 o 3882.606 4321.686 180.00 1.23916 0.73
1 1 2 o 3393.479 2802.367 0.00 4.46678 7.96
-2 1 5 o 157.260 158.340 180.00 2.03934 0.08
0 3 1 o 1143.701 1345.627 180.00 5.05346 3.43
3 3 8 o 154.221 149.354 180.00 1.27779 0.03
-2 10 0 o 0.918 0.906 180.00 1.47224 0.00
-1 6 9 o 78.818 75.008 180.00 1.26704 0.02
1 6 9 o 150.312 152.100 180.00 1.26547 0.03
-2 11 1 o 88.305 74.506 0.00 1.35483 0.02
-1 13 2 o 6.707 8.860 0.00 1.22017 0.00
-1 1 2 o 5986.980 5247.073 0.00 4.47833 14.11
-1 6 1 o 1943.935 1642.491 0.00 2.48612 1.42
1 2 3 o 201.790 249.837 0.00 3.32964 0.26
0 12 2 o 4595.314 4230.304 180.00 1.33946 1.00
2 0 4 o 3542.112 2678.416 180.00 2.32419 2.27
0 2 2 o 32268.725 33210.090 0.00 5.13682 100.00
1 12 1 o 15.447 16.242 180.00 1.33056 0.00
-1 11 2 o 468.147 414.215 180.00 1.42302 0.11
-1 4 1 o 781.777 925.323 180.00 3.37407 1.05
-3 3 8 o 0.310 0.301 0.00 1.28022 0.00
1 10 1 o 58.029 109.685 180.00 1.57852 0.02
1 0 1 o 11951.536 13066.789 0.00 5.87335 48.40
-1 2 3 o 1502.786 1629.667 0.00 3.33921 1.97
0 5 7 o 7.968 8.152 180.00 1.63257 0.00
1 3 4 o 191.170 178.603 180.00 2.58865 0.15
3 2 7 o 5.097 4.084 0.00 1.40432 0.00
-2 8 0 o 21.865 20.338 180.00 1.74527 0.00
1 13 2 o 397.797 596.358 180.00 1.21714 0.07
1 8 1 o 650.465 517.072 180.00 1.93350 0.29
0 10 2 o 1692.410 1490.965 0.00 1.59292 0.51
-2 9 1 o 33.794 37.798 180.00 1.58732 0.01
-1 3 4 o 628.034 593.012 0.00 2.59540 0.50
1 6 1 o 177.136 155.244 0.00 2.47431 0.13
-2 12 2 o 574.773 698.651 0.00 1.24306 0.11
-1 9 2 o 66.881 65.772 0.00 1.70087 0.02
0 6 8 o 113.600 97.289 180.00 1.41074 0.03
2 2 4 o 90.270 88.591 0.00 2.23339 0.05
1 4 1 o 1102.251 1231.688 180.00 3.35441 1.46
1 2 1 o 1267.869 1348.139 0.00 4.76251 3.38
-3 2 7 o 9.220 7.582 0.00 1.40647 0.00
0 8 2 o 2860.035 2287.544 180.00 1.95918 1.31
2 4 6 o 2522.787 2250.395 0.00 1.66482 0.84
-1 7 2 o 4291.137 4319.085 0.00 2.09800 2.24
2 12 0 o 978.828 1164.974 180.00 1.25958 0.09
1 4 5 o 1079.871 1090.677 180.00 2.09793 0.56
-1 2 1 o 2257.162 2228.863 0.00 4.79065 6.09
3 1 6 o 222.022 259.233 180.00 1.54189 0.06
2 3 5 o 1397.875 1111.716 0.00 1.92036 0.61
1 11 2 o 9.685 8.600 180.00 1.41895 0.00
-2 7 1 o 208.348 166.242 180.00 1.89433 0.09
0 3 3 o 14142.796 12998.042 0.00 3.42455 19.53
2 5 7 o 2516.302 2657.069 0.00 1.45961 0.65
2 1 3 o 1436.624 1361.339 0.00 2.59288 1.14
-2 6 0 o 1613.680 1597.587 180.00 2.10853 0.43
-1 4 5 o 95.177 89.027 0.00 2.10271 0.05
-3 1 6 o 168.047 198.656 180.00 1.54332 0.05
-2 2 4 o 0.218 0.196 180.00 2.23916 0.00
-2 10 2 o 404.197 421.675 180.00 1.43677 0.10
0 6 2 o 471.567 399.983 0.00 2.52673 0.36
0 13 3 o 477.181 848.625 180.00 1.21362 0.09
1 9 2 o 14.659 13.683 180.00 1.69518 0.01
1 5 6 o 234.715 229.869 0.00 1.75646 0.09
2 10 0 o 472.637 502.789 0.00 1.46407 0.06
-1 12 3 o 404.473 383.062 180.00 1.28262 0.08
0 7 9 o 275.346 318.801 0.00 1.24160 0.05
2 8 0 o 56.345 59.716 0.00 1.73439 0.01
-2 4 6 o 3364.633 2917.385 0.00 1.66960 1.12
-2 3 5 o 1150.379 934.880 0.00 1.92587 0.51
-3 10 1 o 30.059 34.104 0.00 1.31085 0.01
-2 1 3 o 1765.232 1674.291 0.00 2.59739 1.41
3 3 6 o 7.043 5.506 0.00 1.48893 0.00
2 11 1 o 934.141 809.385 0.00 1.34782 0.21
-1 5 2 o 3949.106 3538.731 180.00 2.68805 3.37
-2 5 1 o 24.928 8.693 180.00 2.29335 0.02
3 4 7 o 407.664 349.991 0.00 1.34550 0.09
-2 4 0 o 2937.652 2888.692 180.00 2.57143 1.15
1 3 2 o 3110.162 3303.210 0.00 3.53417 4.57
3 5 8 o 315.711 437.710 0.00 1.21932 0.06
2 9 1 o 47.104 98.676 180.00 1.57811 0.01
2 6 8 o 3182.072 3402.151 0.00 1.29433 0.65
-2 8 2 o 2.796 2.359 180.00 1.68703 0.00
2 6 0 o 4288.559 4852.413 180.00 2.09415 1.12
3 0 5 o 4795.461 4094.805 180.00 1.68282 1.62
1 7 2 o 684.141 909.629 0.00 2.08970 0.35
-2 5 7 o 3201.997 3419.954 0.00 1.46364 0.83
0 11 3 o 1309.455 1121.938 0.00 1.41302 0.32
-1 10 3 o 14.853 15.091 0.00 1.49930 0.00
0 4 4 o 12313.691 12276.317 0.00 2.56841 9.60
0 4 2 o 10.111 26.726 0.00 3.48317 0.01
2 12 2 o 1881.429 2030.795 0.00 1.23715 0.35
2 4 0 o 2083.487 1752.707 180.00 2.55405 0.80
3 2 5 o 270.033 243.674 0.00 1.64680 0.09
-1 3 2 o 5481.586 5511.675 0.00 3.55138 8.14
-1 5 6 o 2205.058 2166.629 0.00 1.75997 0.82
2 0 2 o 528.137 289.998 0.00 2.93667 0.54
2 7 1 o 1600.185 1366.061 180.00 1.88216 0.67
-2 11 3 o 1584.820 1740.423 180.00 1.30089 0.33
1 5 2 o 2813.583 2585.042 180.00 2.67560 2.38
2 2 2 o 3645.365 3235.964 180.00 2.75960 3.28
-3 11 2 o 157.442 251.869 0.00 1.21555 0.03
1 6 7 o 58.321 50.155 0.00 1.50754 0.02
2 5 1 o 165.335 118.647 0.00 2.27794 0.10
2 2 0 o 70.142 26.537 0.00 3.03929 0.04
1 12 3 o 250.689 246.572 0.00 1.27937 0.05
-3 3 6 o 9.532 8.375 0.00 1.49278 0.00
-2 6 2 o 825.444 821.535 180.00 2.00812 0.40
-4 1 7 o 773.345 762.883 180.00 1.23351 0.14
4 1 7 o 279.106 275.035 180.00 1.23255 0.05
-3 4 7 o 64.908 56.066 0.00 1.34929 0.01
2 3 1 o 607.394 586.212 0.00 2.74378 0.54
0 9 3 o 245.486 205.542 180.00 1.68449 0.08
2 10 2 o 338.010 354.403 180.00 1.42918 0.08
2 1 1 o 1448.168 1142.585 180.00 3.12147 1.66
2 3 3 o 419.819 437.228 180.00 2.36397 0.28
0 5 5 o 22642.604 22951.492 0.00 2.05473 11.35
-1 8 3 o 522.349 732.071 0.00 1.79161 0.20
-3 5 8 o 229.110 260.470 0.00 1.22285 0.04
-2 6 8 o 4543.300 4884.942 0.00 1.29770 0.93
-1 6 7 o 1840.528 1638.702 0.00 1.51020 0.50
-2 3 1 o 983.344 881.960 0.00 2.75992 0.88
2 4 4 o 2324.992 2458.111 180.00 2.01816 1.12
-3 2 5 o 322.292 305.728 0.00 1.65027 0.11
1 10 3 o 91.041 85.913 180.00 1.49497 0.02
-3 8 1 o 0.892 0.765 0.00 1.49211 0.00
1 7 8 o 138.615 154.366 0.00 1.31895 0.03
3 1 4 o 3777.598 3986.712 0.00 1.80970 1.47
-2 2 0 o 39.450 23.010 0.00 3.05388 0.02
2 8 2 o 253.785 221.368 180.00 1.67721 0.09
1 4 3 o 4665.336 4377.791 0.00 2.72182 4.08
2 4 2 o 402.877 446.754 180.00 2.38126 0.27
-3 9 2 o 74.897 64.261 180.00 1.37472 0.02
-2 2 2 o 2063.317 1780.437 180.00 2.77052 1.87
0 7 3 o 5616.042 6029.651 0.00 2.06862 2.85
-2 9 3 o 307.555 299.492 0.00 1.50244 0.08
2 0 0 o 2279.328 2202.480 180.00 3.28091 1.44
-3 1 4 o 4633.948 4803.913 0.00 1.81200 1.81
2 6 2 o 560.101 507.334 180.00 1.99569 0.27
-1 7 8 o 1009.007 1168.753 0.00 1.32103 0.21
-2 4 2 o 500.499 422.491 180.00 2.39532 0.34
2 5 5 o 4427.718 4405.456 180.00 1.73802 1.60
-2 1 1 o 620.170 523.823 180.00 3.12935 0.72
4 0 6 o 1258.238 1412.128 180.00 1.31409 0.26
-2 3 3 o 94.158 109.130 0.00 2.37427 0.06
-1 4 3 o 7841.720 7763.015 0.00 2.73229 6.91
0 6 6 o 6921.168 7065.375 0.00 1.71227 2.42
3 10 1 o 88.911 99.225 0.00 1.30221 0.02
-1 6 3 o 6122.428 5915.383 180.00 2.19316 3.49
0 12 4 o 0.236 0.259 180.00 1.26336 0.00
3 4 5 o 7.714 10.359 0.00 1.55411 0.00
4 2 6 o 307.019 327.672 0.00 1.29644 0.06
2 11 3 o 1376.884 1476.358 180.00 1.29469 0.28
-1 11 4 o 29.136 27.861 0.00 1.33275 0.01
1 8 3 o 2.665 3.230 180.00 1.78571 0.00
3 3 4 o 68.804 76.946 180.00 1.72567 0.02
3 5 6 o 212.403 150.051 180.00 1.39861 0.05
3 8 1 o 0.355 0.288 0.00 1.48192 0.00
-2 7 3 o 1579.167 1523.889 180.00 1.75471 0.58
-3 6 1 o 2661.834 2656.365 180.00 1.69995 0.92
-2 4 4 o 267.792 291.985 180.00 2.02670 0.13
3 6 7 o 227.323 250.804 180.00 1.26254 0.04
-3 10 3 o 342.649 380.637 180.00 1.26181 0.07
3 2 3 o 4690.565 3676.310 180.00 1.90170 2.02
3 0 3 o 3884.937 3243.545 0.00 1.95778 1.77
1 5 4 o 5303.170 5165.619 0.00 2.18816 3.01
1 6 3 o 4404.243 4304.647 180.00 2.18503 2.49
2 5 3 o 160.498 154.040 0.00 2.04625 0.08
2 6 6 o 4702.984 4908.258 180.00 1.51528 1.30
-3 7 2 o 2042.962 2612.014 180.00 1.55949 0.60
3 11 2 o 266.070 687.569 0.00 1.20798 0.05
-4 3 7 o 291.609 783.309 0.00 1.20747 0.05
0 7 7 o 5132.066 5474.001 0.00 1.46766 1.33
3 6 1 o 2293.544 1937.783 180.00 1.68865 0.78
2 9 3 o 13.094 12.209 180.00 1.49463 0.00
-4 2 6 o 507.869 549.764 0.00 1.29869 0.10
0 5 3 o 439.975 421.721 180.00 2.62942 0.36
3 9 2 o 164.704 148.638 180.00 1.36575 0.04
-1 5 4 o 9239.787 9018.762 0.00 2.19495 5.28
-4 9 1 o 1441.708 2081.785 0.00 1.21873 0.26
3 4 1 o 635.537 511.528 180.00 1.90449 0.27
4 4 6 o 0.261 0.395 0.00 1.24948 0.00
2 7 3 o 2098.562 1927.327 180.00 1.74503 0.76
-2 5 5 o 1318.352 1213.703 180.00 1.74483 0.48
3 1 2 o 2597.593 2575.482 180.00 2.05770 1.31
-2 5 3 o 106.406 105.418 0.00 2.05740 0.05
0 10 4 o 173.142 181.500 180.00 1.46921 0.04
-1 9 4 o 639.785 871.103 0.00 1.55261 0.19
4 1 5 o 1923.445 1557.706 0.00 1.38686 0.45
3 7 2 o 1439.800 1728.493 180.00 1.54931 0.41
3 3 2 o 1020.930 804.947 0.00 1.93661 0.46
-2 10 4 o 2069.965 1749.675 0.00 1.34402 0.45
3 2 1 o 27.967 54.968 0.00 2.08332 0.01
2 7 7 o 6582.917 6150.383 180.00 1.33756 1.43
3 4 3 o 327.864 312.668 180.00 1.76278 0.12
3 5 2 o 642.941 564.516 0.00 1.74934 0.23
1 11 4 o 408.939 460.298 180.00 1.32940 0.09
-3 4 5 o 72.015 91.737 180.00 1.55995 0.02
-4 8 0 o 3139.297 2947.490 0.00 1.28572 0.32
-3 3 4 o 473.426 537.345 180.00 1.73167 0.17
0 8 8 o 1063.141 998.040 0.00 1.28421 0.21
1 6 5 o 223.347 281.948 0.00 1.82067 0.09
-4 1 5 o 1568.064 1210.684 0.00 1.38824 0.37
-3 4 1 o 1937.371 1645.089 180.00 1.91528 0.85
4 3 5 o 72.462 62.971 180.00 1.34762 0.02
-3 8 3 o 1660.413 1390.774 180.00 1.42095 0.40
-3 2 3 o 7398.284 6152.593 180.00 1.90704 3.20
-3 5 2 o 115.164 114.906 0.00 1.75980 0.04
-3 5 6 o 267.479 214.337 180.00 1.40393 0.06
-2 6 6 o 1511.465 1655.071 180.00 1.52070 0.42
-3 1 2 o 3131.366 3228.317 180.00 2.06108 1.58
2 6 4 o 1290.968 1182.441 0.00 1.76708 0.48
3 5 4 o 405.333 409.374 180.00 1.58922 0.12
3 10 3 o 576.256 743.277 180.00 1.25410 0.11
0 8 4 o 1163.393 1077.876 0.00 1.74159 0.42
3 0 1 o 2795.556 2538.724 180.00 2.15773 1.54
-1 6 5 o 1275.647 1866.800 0.00 1.82536 0.51
4 2 4 o 1091.919 840.523 180.00 1.44384 0.27
-3 6 7 o 522.761 485.362 180.00 1.26724 0.10
1 7 6 o 152.356 206.441 0.00 1.55522 0.04
1 9 4 o 0.071 0.083 180.00 1.54828 0.00
3 6 3 o 494.704 591.410 0.00 1.58750 0.15
4 0 4 o 1126.515 1203.016 0.00 1.46834 0.29
3 6 5 o 0.686 0.744 0.00 1.43000 0.00
-1 7 4 o 915.316 950.901 180.00 1.83693 0.37
-2 8 4 o 2211.351 2594.666 180.00 1.54207 0.63
-2 6 4 o 831.662 766.583 0.00 1.77569 0.31
-3 3 2 o 1748.846 1382.664 0.00 1.94510 0.79
4 8 0 o 1625.792 1601.591 0.00 1.27703 0.16
3 8 3 o 551.960 483.629 180.00 1.41214 0.13
-2 7 7 o 3253.286 2864.870 180.00 1.34191 0.71
-4 7 1 o 4794.429 4259.104 180.00 1.34164 1.04
-3 6 3 o 198.897 165.796 0.00 1.59688 0.06
4 9 1 o 805.696 1784.593 0.00 1.21041 0.14
2 10 4 o 349.130 326.872 0.00 1.33780 0.08
4 6 0 o 4171.398 3290.737 180.00 1.40266 0.50
-3 2 1 o 17.444 24.201 0.00 2.09036 0.01
4 7 1 o 2156.554 1999.185 180.00 1.33299 0.46
-4 8 2 o 2843.579 3126.460 180.00 1.26189 0.55
-3 9 4 o 435.622 477.436 180.00 1.29282 0.09
-3 4 3 o 248.196 246.865 180.00 1.77132 0.09
-4 4 6 o 161.606 210.157 180.00 1.25353 0.03
4 4 4 o 2956.528 2281.136 0.00 1.37980 0.68
-1 7 6 o 1133.743 1452.876 0.00 1.55863 0.33
4 5 5 o 1609.472 1635.363 0.00 1.27928 0.32
-4 6 0 o 6841.425 6068.284 180.00 1.41129 0.82
1 7 4 o 392.950 526.929 180.00 1.83135 0.16
4 3 3 o 4892.181 4498.836 0.00 1.47697 1.28
2 7 5 o 1545.271 1808.685 0.00 1.54190 0.44
2 8 4 o 2627.554 2721.334 180.00 1.53455 0.74
4 1 3 o 494.489 556.339 180.00 1.52908 0.14
1 8 7 o 37.790 31.296 0.00 1.35562 0.01
3 7 6 o 144.366 148.745 0.00 1.28987 0.03
4 5 1 o 2893.927 2885.119 0.00 1.45447 0.74
-3 5 4 o 578.886 485.033 180.00 1.59705 0.18
-4 3 5 o 225.223 178.559 180.00 1.35143 0.05
4 3 1 o 756.894 962.479 180.00 1.55737 0.22
4 4 0 o 2097.786 2327.466 0.00 1.51964 0.29
4 8 2 o 1289.136 1673.949 180.00 1.25368 0.25
-4 2 4 o 824.309 670.831 180.00 1.44695 0.21
4 4 2 o 1716.347 1390.733 180.00 1.48073 0.45
0 6 4 o 7304.145 6741.745 180.00 2.10445 3.84
4 6 2 o 1610.851 1484.257 0.00 1.37189 0.37
3 7 4 o 12.759 20.230 0.00 1.43478 0.00
-2 11 5 o 1.069 2.352 180.00 1.20990 0.00
0 11 5 o 355.799 385.868 0.00 1.29852 0.07
4 2 2 o 2824.865 3542.922 0.00 1.56074 0.83
4 5 3 o 506.111 388.603 180.00 1.38833 0.12
3 9 4 o 18.188 16.924 180.00 1.28535 0.00
-3 7 4 o 0.016 0.012 180.00 1.44285 0.00
4 7 3 o 1251.915 1155.436 0.00 1.28153 0.25
4 2 0 o 402.579 206.246 180.00 1.60650 0.06
-4 1 3 o 483.775 502.543 180.00 1.53093 0.14
-4 5 1 o 2655.612 2920.962 0.00 1.46248 0.68
-1 10 5 o 751.100 701.596 0.00 1.36452 0.17
-1 8 7 o 1164.357 1070.351 0.00 1.35820 0.26
-2 7 5 o 1391.273 1551.823 0.00 1.54857 0.40
4 6 4 o 193.651 202.543 180.00 1.29046 0.04
-4 6 2 o 1809.696 1387.596 0.00 1.37996 0.42
-3 6 5 o 118.876 116.658 180.00 1.43684 0.03
4 0 2 o 131.686 104.878 180.00 1.59182 0.04
-2 9 5 o 5422.831 4747.306 180.00 1.36689 1.23
4 1 1 o 1838.559 1736.724 0.00 1.61884 0.58
2 8 6 o 3548.595 3286.711 0.00 1.36091 0.79
-4 7 3 o 676.280 692.060 0.00 1.28920 0.14
0 7 5 o 1284.297 1095.452 180.00 1.75166 0.47
-4 4 0 o 1128.499 1508.625 0.00 1.52694 0.16
1 10 5 o 13.224 12.313 0.00 1.36126 0.00
-1 8 5 o 310.490 873.458 180.00 1.57376 0.09
3 8 5 o 81.535 88.631 180.00 1.29784 0.02
-3 7 6 o 2.128 2.240 0.00 1.29573 0.00
-4 5 5 o 403.102 376.689 0.00 1.28472 0.08
-4 3 3 o 2521.390 1919.896 0.00 1.48198 0.67
1 8 5 o 300.843 523.766 180.00 1.56975 0.09
2 9 5 o 5160.515 4785.545 180.00 1.36099 1.16
-3 8 5 o 166.770 188.145 180.00 1.30466 0.03
-4 4 4 o 759.256 660.315 0.00 1.38526 0.18
0 9 5 o 852.067 887.867 0.00 1.49966 0.23
4 0 0 o 3564.150 4020.796 0.00 1.64045 0.57
5 1 4 o 19.946 31.897 0.00 1.21518 0.00
-4 4 2 o 2267.331 1621.413 180.00 1.48748 0.60
-4 2 2 o 1299.422 1692.638 0.00 1.56468 0.38
-4 5 3 o 938.240 664.961 180.00 1.39529 0.22
-2 8 6 o 3691.489 3249.301 0.00 1.36614 0.83
0 8 6 o 990.843 1067.203 180.00 1.49911 0.27
-4 1 1 o 1276.092 1109.113 0.00 1.62103 0.40
5 4 1 o 39.899 44.257 180.00 1.24194 0.01
-4 3 1 o 604.361 780.140 180.00 1.56325 0.18
2 9 7 o 12.343 20.802 0.00 1.21428 0.00
5 3 2 o 1155.893 1576.127 0.00 1.25097 0.22
-4 6 4 o 361.621 389.032 180.00 1.29717 0.07
5 2 3 o 338.901 376.947 0.00 1.24166 0.06
-5 1 4 o 16.719 27.203 0.00 1.21634 0.00
5 2 1 o 1317.048 1323.736 0.00 1.28830 0.27
-1 11 6 o 321.499 538.243 0.00 1.21422 0.06
0 9 7 o 8.023 9.704 0.00 1.30970 0.00
-4 2 0 o 340.227 218.199 180.00 1.61080 0.05
5 0 3 o 26.785 37.557 0.00 1.25739 0.01
-2 10 6 o 208.391 233.202 180.00 1.22273 0.04
-2 9 7 o 0.114 0.167 0.00 1.21847 0.00
5 1 2 o 550.172 481.817 0.00 1.28244 0.11
-1 9 6 o 601.755 618.179 180.00 1.37346 0.14
1 9 6 o 472.018 417.018 180.00 1.37046 0.11
2 10 6 o 135.372 204.396 180.00 1.21804 0.02
1 11 6 o 21.565 67.394 180.00 1.21169 0.00
-5 2 3 o 592.773 721.159 0.00 1.24414 0.11
5 0 1 o 2982.611 3315.610 0.00 1.30590 0.62
-5 1 2 o 782.167 744.778 0.00 1.28380 0.16
0 10 6 o 47.365 52.875 180.00 1.31471 0.01
1 10 7 o 80.560 125.575 180.00 1.21447 0.01
-5 4 1 o 4.030 9.501 0.00 1.24692 0.00
-5 3 2 o 437.200 545.175 0.00 1.25478 0.08
-1 10 7 o 133.748 237.047 180.00 1.21679 0.02
-5 2 1 o 673.137 753.163 0.00 1.29106 0.14
