#------------------------------------------------------------------------------
#$Date: 2019-10-29 22:51:18 +0200 (Tue, 29 Oct 2019) $
#$Revision: 220367 $
#$URL: file:///home/coder/svn-repositories/cod/cif/4/00/29/4002942.cif $
#------------------------------------------------------------------------------
#
# This file is available in the Crystallography Open Database (COD),
# http://www.crystallography.net/
#
# All data on this site have been placed in the public domain by the
# contributors.
#
data_4002942
loop_
_publ_author_name
'McGuire, Michael A.'
'Pandey, Tribhuwan'
'Mu, Sai'
'Parker, David S.'
_publ_section_title
;
 Ferromagnetic Spin-1/2 Dimers with Strong Anisotropy in MoCl5
;
_journal_issue                   8
_journal_name_full               'Chemistry of Materials'
_journal_page_first              2952
_journal_paper_doi               10.1021/acs.chemmater.9b00416
_journal_volume                  31
_journal_year                    2019
_chemical_formula_moiety         'Cl10 Mo2'
_chemical_formula_sum            'Cl5 Mo'
_chemical_formula_weight         273.19
_chemical_name_common            'molybdenum pentachloride'
_space_group_crystal_system      monoclinic
_space_group_IT_number           12
_space_group_name_Hall           '-C 2y'
_space_group_name_H-M_alt        'C 1 2/m 1'
_symmetry_space_group_name_Hall  '-C 2y'
_symmetry_space_group_name_H-M   'C 1 2/m 1'
_audit_creation_method           SHELXL-2018/1
_cell_angle_alpha                90
_cell_angle_beta                 90.212(2)
_cell_angle_gamma                90
_cell_formula_units_Z            12
_cell_length_a                   17.9067(14)
_cell_length_b                   17.6050(14)
_cell_length_c                   5.7065(5)
_cell_measurement_reflns_used    3929
_cell_measurement_temperature    175(5)
_cell_measurement_theta_max      28.2240
_cell_measurement_theta_min      2.3142
_cell_volume                     1798.9(3)
_computing_structure_refinement  'SHELXL-2018/1 (Sheldrick, 2018)'
_diffrn_ambient_temperature      175(5)
_diffrn_measured_fraction_theta_full 0.975
_diffrn_measured_fraction_theta_max 0.974
_diffrn_measurement_device_type  'Bruker Apex'
_diffrn_radiation_type           MoK\a
_diffrn_radiation_wavelength     0.71073
_diffrn_reflns_av_R_equivalents  0.0416
_diffrn_reflns_av_unetI/netI     0.0506
_diffrn_reflns_Laue_measured_fraction_full 0.975
_diffrn_reflns_Laue_measured_fraction_max 0.974
_diffrn_reflns_limit_h_max       23
_diffrn_reflns_limit_h_min       -23
_diffrn_reflns_limit_k_max       23
_diffrn_reflns_limit_k_min       -23
_diffrn_reflns_limit_l_max       7
_diffrn_reflns_limit_l_min       -7
_diffrn_reflns_number            10552
_diffrn_reflns_point_group_measured_fraction_full 0.975
_diffrn_reflns_point_group_measured_fraction_max 0.974
_diffrn_reflns_theta_full        25.242
_diffrn_reflns_theta_max         28.319
_diffrn_reflns_theta_min         2.275
_exptl_absorpt_coefficient_mu    4.262
_exptl_absorpt_correction_T_max  .7457
_exptl_absorpt_correction_T_min  .5664
_exptl_absorpt_correction_type   empirical
_exptl_absorpt_process_details   sadabs
_exptl_crystal_colour            black
_exptl_crystal_density_diffrn    3.026
_exptl_crystal_description       prism
_exptl_crystal_F_000             1524
_exptl_crystal_size_max          0.130
_exptl_crystal_size_mid          0.065
_exptl_crystal_size_min          0.020
_refine_diff_density_max         5.838
_refine_diff_density_min         -1.118
_refine_diff_density_rms         0.308
_refine_ls_extinction_method     none
_refine_ls_goodness_of_fit_ref   0.995
_refine_ls_hydrogen_treatment    undef
_refine_ls_matrix_type           full
_refine_ls_number_parameters     89
_refine_ls_number_reflns         2065
_refine_ls_number_restraints     0
_refine_ls_restrained_S_all      0.995
_refine_ls_R_factor_all          0.0511
_refine_ls_R_factor_gt           0.0402
_refine_ls_shift/su_max          0.001
_refine_ls_shift/su_mean         0.000
_refine_ls_structure_factor_coef Fsqd
_refine_ls_weighting_details
'w=1/[\s^2^(Fo^2^)+(0.0445P)^2^] where P=(Fo^2^+2Fc^2^)/3'
_refine_ls_weighting_scheme      calc
_refine_ls_wR_factor_gt          0.0907
_refine_ls_wR_factor_ref         0.0965
_reflns_Friedel_coverage         0.000
_reflns_number_gt                1589
_reflns_number_total             2065
_reflns_threshold_expression     'I > 2\s(I)'
_cod_data_source_file            cm9b00416_si_001.cif
_cod_data_source_block           alpha-MoCl5
_cod_database_code               4002942
_shelx_shelxl_version_number     2018/1
_shelx_space_group_comment
;
The symmetry employed for this shelxl refinement is uniquely defined
by the following loop, which should always be used as a source of
symmetry information in preference to the above space-group names.
They are only intended as comments.
;
_shelx_res_file
;
TITL SIR92 run in space group C 2/m
    shelx.res
    created by SHELXL-2018/1 at 15:58:25 on 25-Apr-2018
CELL  0.71073  17.9067  17.6050   5.7065   90.000   90.212   90.000
ZERR  12   0.0014   0.0014   0.0005    0.000    0.002    0.000
LATT   7
SYMM  - X,   Y, - Z
SFAC  CL Mo
UNIT  60 12
twin 1 0 0 0 -1 0 -0.002 0 -1
acta
MERG   2
FMAP   2
PLAN   20
BOND
list 4
L.S.  10
WGHT    0.044500
BASF   0.91026
FVAR       0.03863   0.27315
MO1   2    0.166655    0.391549    0.019877    11.00000    0.01378    0.01307 =
         0.01619    0.00035    0.00012   -0.00024
MO2   2    0.000000    0.108411    0.500000    10.50000    0.01358    0.01205 =
         0.01487    0.00000   -0.00041    0.00000
CL1   1    0.053883    0.194535    0.262060    11.00000    0.02425    0.01777 =
         0.02692    0.00525    0.00204   -0.00415
CL2   1    0.065166    0.405771    0.250347    11.00000    0.01609    0.01938 =
         0.02324    0.00137    0.00394    0.00054
CL3   1    0.220507    0.305461    0.257089    11.00000    0.02410    0.01727 =
         0.02351    0.00460   -0.00249    0.00435
CL4   1    0.231695    0.094128    0.210274    11.00000    0.01719    0.01924 =
         0.02387   -0.00140    0.00489    0.00010
CL5   1    0.387167    0.194196    0.219040    11.00000    0.02402    0.01776 =
         0.02436   -0.00405   -0.00197   -0.00435
CL6   1    0.398407    0.405900    0.273092    11.00000    0.01743    0.01913 =
         0.02611   -0.00096   -0.00554   -0.00040
CL7   1    0.054017    0.000000    0.263653    10.50000    0.01487    0.01315 =
         0.01654    0.00000    0.00257    0.00000
CL8   1    0.387287    0.000000    0.214392    10.50000    0.01512    0.01381 =
         0.01690    0.00000   -0.00237    0.00000
CL9   1    0.720764    0.000000    0.254572    10.50000    0.01528    0.01256 =
         0.01643    0.00000   -0.00170    0.00000
HKLF    4




REM  SIR92 run in space group C 2/m
REM R1 =  0.0402 for    1589 Fo > 4sig(Fo)  and  0.0511 for all    2065 data
REM     89 parameters refined using      0 restraints

END

WGHT      0.0445      0.0000

REM Highest difference peak  5.838,  deepest hole -1.118,  1-sigma level  0.308
Q1    1   0.0000  0.1085  0.0000  10.50000  0.05    5.84
Q2    1   0.1666  0.3901  0.5047  11.00000  0.05    3.82
Q3    1   0.5000  0.2096  0.0000  10.50000  0.05    1.22
Q4    1   0.1643  0.1885  0.0024  11.00000  0.05    1.11
Q5    1   0.5000  0.0000  0.0000  10.25000  0.05    1.03
Q6    1   0.1671  0.0000  0.0148  10.50000  0.05    0.88
Q7    1   0.0000  0.3271  0.5000  10.50000  0.05    0.86
Q8    1   0.3773  0.2026  0.5051  11.00000  0.05    0.83
Q9    1   0.4419  0.3107  0.2984  11.00000  0.05    0.82
Q10   1   0.2140  0.3002  0.5415  11.00000  0.05    0.81
Q11   1   0.1163  0.3029  0.2685  11.00000  0.05    0.74
Q12   1   0.1020  0.0909  0.3020  11.00000  0.05    0.72
Q13   1   0.7565 -0.0941  0.2596  11.00000  0.05    0.71
Q14   1   0.1153  0.5000  0.2654  10.50000  0.05    0.68
Q15   1   0.3788  0.0000  0.4992  10.50000  0.05    0.66
Q16   1   0.0000  0.0000  0.0000  10.25000  0.05    0.63
Q17   1   0.3274  0.0000  0.3893  10.50000  0.05    0.63
Q18   1   0.2087  0.3827  0.1806  11.00000  0.05    0.59
Q19   1   0.0507  0.0000  0.5002  10.50000  0.05    0.59
Q20   1   0.4073  0.0483  0.3789  11.00000  0.05    0.58
;
_shelx_res_checksum              37761
_shelx_hkl_file
;
   2  -2   0   -0.15    0.13
   2  -2   0   -0.10    0.11
  -2   2   0    0.19    0.15
   3  -3   0   90.47    7.97
  -3   3   0  100.48    7.84
   3  -3   0   98.10    7.68
   3  -3   0   95.70    7.70
   4  -4   0   -0.10    0.18
   4  -4   0   -0.01    0.14
   4  -4   0   -0.03    0.16
  -4   4   0   -0.23    0.18
   5  -5   0    0.10    0.18
  -5   5   0   -0.01    0.21
   5  -5   0    0.02    0.16
   5  -5   0    0.18    0.21
   6  -6   0   28.11    2.35
  -6   6   0   26.91    2.58
  -6   6   0   28.32    2.58
   6  -6   0   28.94    2.52
   7  -7   0   -0.06    0.16
  -7   7   0    0.08    0.21
  -7   7   0   -0.23    0.22
   7  -7   0    0.09    0.24
  -8   8   0    0.02    0.28
  -8   8   0   -0.08    0.29
   8  -8   0    0.10    0.29
   8  -8   0    0.03    0.14
   9  -9   0  105.75    8.45
  -9   9   0  107.35    8.98
   9  -9   0  102.90    8.65
  -9   9   0  100.98    8.83
  10 -10   0   -0.14    0.33
 -10  10   0    0.08    0.40
 -10  10   0   -0.07    0.31
 -11  11   0   -0.23    0.31
 -11  11   0    0.14    0.45
  11 -11   0   -0.06    0.33
 -12  12   0    3.15    0.95
  12 -12   0    2.44    0.75
 -12  12   0    2.71    0.79
  13 -13   0    0.16    0.37
 -13  13   0    0.22    0.50
 -13  13   0    0.08    0.40
  14 -14   0    0.12    0.32
 -14  14   0    0.11    0.47
 -14  14   0    0.07    0.47
  15 -15   0    0.36    0.40
 -15  15   0    0.33    0.50
 -15  15   0    0.49    0.57
  16 -16   0   -0.01    0.36
 -16  16   0    0.42    0.41
   0   0  -1   47.69    3.99
   0   0   1   46.64    3.87
   1  -1  -1   87.48    6.91
   1  -1  -1   84.28    6.60
  -1   1   1   78.11    6.75
  -2   2  -1    6.78    0.78
   2  -2  -1    7.85    0.69
   2  -2  -1    7.79    0.77
  -2   2  -1    5.92    0.70
   2  -2   1    6.19    0.67
  -2   2   1    8.07    0.75
   2  -2   1    5.76    0.70
  -2   2   1    7.44    0.64
  -3   3  -1   12.17    1.24
  -3   3  -1   13.79    1.22
   3  -3   1   12.69    1.16
   3  -3   1   11.90    1.16
  -4   4  -1   61.04    5.09
   4  -4   1   60.09    5.02
   4  -4   1   62.15    4.98
  -5   5  -1   69.03    6.01
   5  -5  -1   87.88    5.84
  -5   5  -1   66.84    5.90
   5  -5   1   67.05    5.77
   5  -5   1   63.65    5.78
   7  -7  -1   -0.07    0.25
  -7   7  -1    0.31    0.28
  -7   7  -1   -0.11    0.22
   7  -7  -1    0.02    0.24
   7  -7   1   -0.06    0.22
  -7   7   1    0.06    0.30
   7  -7   1    0.20    0.15
   8  -8  -1   24.45    2.02
  -8   8  -1   16.68    1.92
  -8   8  -1   18.65    1.97
   8  -8   1   18.64    1.78
   8  -8   1   19.27    1.93
  10 -10  -1   18.69    2.46
 -10  10  -1   28.57    2.58
 -10  10  -1   27.53    2.56
  10 -10  -1   19.75    2.38
 -10  10   1   20.66    2.53
  10 -10   1   28.90    2.57
  10 -10   1   28.74    2.31
  11 -11  -1    7.81    1.09
 -11  11  -1    3.74    0.97
 -11  11  -1    5.42    1.01
  11 -11  -1    6.40    1.12
 -11  11   1    6.57    1.19
  11 -11   1    5.64    1.04
  12 -12  -1    9.25    1.37
 -12  12   1   11.88    1.49
 -12  12   1    9.35    1.48
 -13  13  -1   17.67    1.94
 -13  13  -1   17.96    2.01
  13 -13  -1   12.29    1.78
  13 -13   1   15.77    1.87
 -13  13   1   12.46    1.86
 -13  13   1   12.17    1.77
 -14  14  -1   11.40    1.74
 -14  14  -1   12.90    1.75
  14 -14  -1   18.58    2.00
  14 -14   1   12.67    1.73
  15 -15  -1   18.90    2.30
 -15  15   1   20.59    2.42
 -15  15   1   17.52    2.23
 -16  16  -1   -0.03    0.31
  16 -16  -1    0.40    0.34
  16 -16   1    0.14    0.32
 -16  16   1    0.60    0.52
   0   0  -2  194.56   16.28
   0   0  -2  197.87   15.94
   0   0   2  197.43   15.86
   1  -1  -2    1.52    0.35
   1  -1  -2    1.37    0.37
   1  -1  -2    1.47    0.25
  -1   1  -2    2.06    0.35
  -1   1  -2    1.80    0.37
  -1   1   2    1.20    0.31
   1  -1   2    2.11    0.38
   2  -2  -2    2.14    0.30
  -2   2  -2    1.78    0.38
   2  -2  -2    1.87    0.41
  -2   2  -2    1.37    0.33
   2  -2   2    1.26    0.24
  -2   2   2    2.14    0.33
  -2   2   2    1.68    0.35
   2  -2   2    1.12    0.34
   3  -3  -2   25.85    2.09
  -3   3  -2   21.95    2.21
  -3   3  -2   25.24    2.16
   3  -3  -2   23.66    2.26
   3  -3   2   24.71    2.20
   3  -3   2   24.31    2.04
  -3   3   2   24.04    2.19
  -3   3   2   23.57    2.07
   4  -4  -2    3.20    0.58
   4  -4  -2    2.49    0.43
  -4   4   2    2.54    0.37
  -4   4   2    2.83    0.52
  -5   5  -2   14.74    1.51
   5  -5  -2   15.36    1.47
   5  -5  -2   14.97    1.63
  -5   5  -2   14.93    1.61
   5  -5   2   14.78    1.53
  -5   5   2   17.40    1.62
   5  -5   2   15.14    1.45
  -5   5   2   16.12    1.36
  -6   6  -2   79.38    6.44
  -6   6  -2   71.12    6.56
   6  -6  -2   72.48    6.61
   6  -6  -2   74.70    6.29
   6  -6   2   78.32    6.40
  -6   6   2   78.97    6.51
   6  -6   2   78.57    6.29
  -6   6   2   76.82    6.14
  -7   7  -2    0.55    0.36
  -7   7  -2    0.32    0.33
   7  -7  -2   -0.05    0.29
   7  -7  -2    0.67    0.34
   7  -7   2    0.97    0.37
   7  -7   2    0.63    0.32
  -7   7   2    0.17    0.37
  -8   8  -2    0.30    0.34
   8  -8  -2    0.01    0.34
  -8   8  -2    0.53    0.39
   8  -8  -2    0.07    0.29
   8  -8   2    0.54    0.31
   8  -8   2    0.49    0.37
  -8   8   2    0.47    0.42
  -9   9  -2   89.26    7.81
  -9   9  -2   90.61    7.92
   9  -9  -2   86.06    7.63
   9  -9  -2   91.52    8.03
   9  -9   2   93.58    7.66
  -9   9   2   91.50    7.88
   9  -9   2   96.35    7.66
 -10  10  -2    0.23    0.42
  10 -10  -2    1.00    0.49
 -10  10  -2    0.37    0.42
  10 -10  -2    1.11    0.60
  10 -10   2    0.37    0.41
  10 -10   2    0.49    0.35
 -10  10   2    0.93    0.57
  11 -11  -2    2.16    0.71
 -11  11  -2    2.65    0.82
  11 -11  -2    3.10    0.84
 -11  11  -2    1.77    0.68
  11 -11   2    1.81    0.64
  11 -11   2    2.37    0.62
 -11  11   2    2.90    0.87
 -12  12  -2    9.53    1.40
  12 -12  -2    7.86    1.39
  12 -12  -2    6.91    1.27
 -12  12  -2    9.71    1.33
  12 -12   2    8.11    1.22
 -12  12   2    7.81    1.43
  13 -13  -2    0.34    0.48
 -13  13  -2    0.63    0.56
  13 -13  -2    0.10    0.40
 -13  13  -2    0.78    0.57
  13 -13   2    0.23    0.40
 -13  13   2    0.72    0.66
 -14  14  -2    0.68    0.60
 -14  14  -2    0.23    0.58
  14 -14  -2    0.68    0.43
  14 -14  -2    0.28    0.50
 -14  14   2    0.58    0.51
  14 -14   2    0.53    0.41
  15 -15  -2   63.42    6.07
 -15  15  -2   74.05    6.28
 -15  15   2   62.16    6.19
 -15  15   2   58.60    6.08
  15 -15   2   70.78    6.02
  16 -16  -2    2.57    0.86
 -16  16   2    1.22    0.80
  16 -16   2    1.63    0.65
   0   0  -3    1.67    0.48
   0   0  -3    2.51    0.49
   0   0   3    2.56    0.52
   1  -1  -3    6.14    0.83
   1  -1  -3    6.65    0.66
   1  -1  -3    6.94    0.91
  -1   1   3    6.68    0.82
   2  -2  -3    1.32    0.27
   2  -2  -3    1.65    0.52
  -2   2   3    1.14    0.31
  -2   2   3    0.89    0.35
   3  -3  -3    5.42    0.86
  -3   3   3    4.42    0.68
   4  -4  -3   54.73    4.63
   4  -4  -3   52.30    4.24
  -4   4   3   52.54    4.48
  -4   4   3   46.39    4.28
   5  -5  -3   68.30    5.72
   5  -5  -3   68.10    6.14
  -5   5   3   70.43    5.99
  -5   5   3   70.96    5.73
  -7   7  -3    1.01    0.42
   7  -7  -3    0.53    0.44
  -7   7  -3    0.37    0.42
   7  -7  -3    0.65    0.35
   7  -7   3    0.58    0.32
  -7   7   3    0.60    0.40
   7  -7   3    0.80    0.42
  -8   8  -3    6.08    0.91
  -8   8  -3    6.94    1.04
   8  -8   3    5.33    0.82
   8  -8   3    5.01    0.92
 -10  10  -3   34.11    3.29
 -10  10  -3   35.78    3.43
  10 -10   3   30.92    3.12
  10 -10   3   35.02    3.28
 -11  11  -3    0.10    0.47
  11 -11  -3    0.25    0.49
 -11  11  -3    0.13    0.43
  11 -11  -3    0.52    0.44
 -11  11   3    0.43    0.50
  11 -11   3   -0.04    0.34
  11 -11   3    0.26    0.41
  12 -12  -3   10.09    1.39
 -12  12  -3    5.14    1.17
 -12  12  -3    6.58    1.29
  12 -12   3    5.74    1.09
 -12  12   3   10.78    1.49
  12 -12   3    5.65    1.06
  13 -13  -3    6.36    1.30
  13 -13  -3    6.68    1.24
 -13  13   3    5.70    1.26
  14 -14  -3   23.40    2.76
  14 -14  -3   22.10    2.64
 -14  14   3   26.94    2.92
  15 -15  -3   31.55    3.12
  15 -15  -3   23.41    2.92
 -15  15   3   26.94    3.23
   0   0  -4  562.19   45.57
   0   0  -4  557.33   46.52
   0   0   4  581.09   45.39
   1  -1  -4   29.80    2.79
  -1   1  -4   24.89    2.56
   1  -1  -4   30.16    2.65
  -1   1  -4   23.74    2.64
   1  -1   4   25.39    2.60
  -1   1   4   29.19    2.58
  -2   2  -4    0.00    0.29
  -2   2  -4    0.08    0.26
   2  -2  -4    0.80    0.47
  -2   2   4    0.75    0.37
   2  -2   4    0.54    0.38
  -2   2   4    0.67    0.37
   3  -3  -4   22.13    2.34
  -3   3  -4   23.96    2.17
   3  -3  -4   20.37    1.88
  -3   3  -4   22.26    2.29
   3  -3   4   22.97    2.27
  -3   3   4   19.91    2.17
  -3   3   4   21.73    2.10
   4  -4  -4    6.28    1.07
   4  -4  -4    5.90    0.66
  -4   4   4    6.40    0.86
  -4   4   4    4.91    0.91
  -5   5  -4    0.42    0.37
   5  -5  -4    1.51    0.35
   5  -5  -4    1.68    0.64
  -5   5  -4    0.82    0.52
  -5   5   4    1.36    0.51
   5  -5   4    0.22    0.39
  -5   5   4    1.80    0.44
   6  -6  -4   12.02    1.33
   6  -6  -4   13.63    1.69
  -6   6  -4   12.87    1.46
  -6   6  -4   11.57    1.55
  -6   6   4   12.85    1.58
   6  -6   4   14.16    1.62
   7  -7  -4    1.04    0.41
   7  -7  -4    0.94    0.59
  -7   7  -4    2.94    0.66
  -7   7  -4    2.04    0.70
   7  -7   4    2.64    0.75
  -7   7   4    0.69    0.50
   8  -8  -4    3.31    0.97
   8  -8  -4    2.85    0.66
  -8   8  -4    3.49    0.78
  -8   8  -4    3.61    0.91
   8  -8   4    3.71    0.88
  -8   8   4    2.70    0.83
  -9   9  -4   37.86    3.67
   9  -9  -4   40.04    3.59
   9  -9  -4   41.13    4.02
  -9   9  -4   39.09    3.86
  -9   9   4   41.26    3.92
   9  -9   4   35.26    3.71
 -10  10  -4    4.22    0.88
  10 -10  -4    1.59    0.65
  10 -10  -4    2.22    0.82
 -10  10  -4    4.27    1.00
  10 -10   4    2.45    0.76
 -10  10   4    2.17    0.81
  11 -11  -4    3.27    0.83
  11 -11  -4    2.09    0.85
 -11  11   4    3.42    0.98
 -12  12  -4    1.15    0.67
  12 -12  -4    1.99    0.75
  12 -12  -4    2.20    0.77
  12 -12   4    1.22    0.60
 -12  12   4    2.08    0.80
  13 -13  -4    1.34    0.61
 -13  13  -4    1.38    0.67
  13 -13  -4    2.38    0.73
  13 -13   4    1.16    0.52
 -13  13   4    1.18    0.65
  14 -14  -4    2.91    0.78
  14 -14  -4    1.26    0.64
 -14  14   4    1.31    0.85
   0   0  -5    6.17    1.16
   0   0  -5    7.45    1.10
   0   0   5    5.52    1.04
  -1   1  -5   81.82    6.90
  -1   1  -5   75.91    7.10
   1  -1   5   80.42    6.89
   2  -2  -5    5.83    1.14
  -2   2   5    5.35    0.97
  -2   2   5    4.36    0.90
  -3   3  -5    0.76    0.59
   3  -3  -5    0.05    0.41
  -3   3  -5    0.86    0.47
  -3   3   5    0.02    0.37
   3  -3   5    1.31    0.57
  -3   3   5   -0.15    0.29
  -4   4  -5    7.89    1.13
  -4   4  -5    7.85    1.35
   4  -4   5    8.91    1.36
  -5   5  -5   14.26    1.61
  -5   5  -5   15.28    1.83
   5  -5   5   11.30    1.63
  -6   6  -5    1.39    0.55
  -6   6  -5    1.06    0.59
  -6   6   5    4.93    1.01
   6  -6   5    1.07    0.63
  -7   7  -5    0.05    0.44
  -7   7  -5   -0.16    0.34
   7  -7  -5   -0.02    0.41
  -7   7   5    0.06    0.41
   7  -7   5    0.04    0.37
  -9   9  -5    5.47    1.06
  -9   9  -5    4.39    1.17
   9  -9   5    5.20    1.09
 -11  11  -5    4.23    1.07
  11 -11  -5    7.87    1.48
 -11  11   5    7.30    1.39
  11 -11   5    4.22    1.06
  12 -12  -5    1.45    0.70
 -12  12  -5    3.91    0.99
  12 -12   5    4.72    1.06
 -12  12   5    1.90    0.86
   0   0  -6    2.21    0.85
   0   0   6    1.69    0.70
   0   0   6    1.90    0.68
  -1   1  -6    0.53    0.48
  -1   1  -6    0.31    0.50
   1  -1  -6   -0.02    0.43
  -1   1   6   -0.14    0.30
  -1   1   6    0.26    0.40
   1  -1   6    1.13    0.61
  -2   2  -6    0.77    0.57
  -2   2  -6    1.08    0.54
   2  -2  -6    3.30    0.97
  -2   2   6    1.69    0.67
   2  -2   6    0.27    0.45
  -2   2   6    2.62    0.76
   3  -3  -6    3.42    1.02
  -3   3  -6    4.55    0.96
  -3   3  -6    3.09    0.97
   3  -3   6    3.00    0.93
  -3   3   6    4.33    0.97
  -3   3   6    4.62    0.99
   4  -4  -6   11.09    1.67
   5  -5  -6   23.30    2.51
  -5   5  -6   17.65    2.11
  -5   5  -6   16.75    2.30
  -5   5   6   21.84    2.34
   5  -5   6   17.82    2.22
  -6   6  -6    7.75    1.31
  -6   6  -6    9.47    1.66
   6  -6  -6   10.11    1.74
  -6   6   6    9.86    1.45
   6  -6   6    9.92    1.43
  -7   7  -6    1.45    0.62
   7  -7  -6    0.14    0.41
   7  -7   6    1.67    0.62
  -7   7   6    0.29    0.41
   8  -8  -6    0.47    0.38
  -8   8  -6    1.33    0.62
   8  -8   6    1.26    0.58
  -8   8   6    0.22    0.30
   9  -9  -6   24.11    2.85
  -9   9  -6   21.15    2.59
   9  -9   6   21.90    2.57
  -9   9   6   20.29    2.58
  10 -10  -6    7.16    1.70
 -10  10   6    7.88    1.62
   0   0  -7    0.11    0.28
   0   0   7   -0.29    0.18
   0   0   7    0.04    0.28
  -1   1  -7    0.88    0.49
   1  -1  -7   -0.12    0.34
   1  -1   7    0.79    0.42
   1  -1   7    1.30    0.55
  -1   1   7    0.05    0.23
  -1   1   7    0.07    0.33
  -2   2  -7    0.06    0.27
   2  -2  -7   -0.10    0.34
   2  -2   7    0.56    0.37
  -2   2   7   -0.05    0.31
  -2   2   7    0.40    0.44
  -3   3  -7   -0.04    0.33
   3  -3  -7    0.16    0.30
  -3   3  -7   -0.46    0.25
   3  -3   7    0.23    0.31
  -3   3   7    0.38    0.60
  -3   3   7    0.20    0.30
  -6   6  -7    2.04    0.71
   6  -6  -7    0.67    0.71
  -6   6   7    0.89    0.53
   6  -6   7    1.93    0.96
  17 -15   0    0.43    0.48
 -17  15   0    0.56    0.41
 -16  14   0   -0.22    0.32
  16 -14   0    0.30    0.37
 -15  13   0   47.90    4.43
  15 -13   0   47.42    4.44
 -15  13   0   41.60    4.42
 -14  12   0    0.06    0.37
 -14  12   0    0.08    0.47
  14 -12   0   -0.05    0.37
 -13  11   0    0.29    0.39
 -13  11   0    0.20    0.52
  13 -11   0    0.00    0.35
 -12  10   0   11.97    1.59
 -12  10   0   11.48    1.40
  12 -10   0   10.38    1.41
 -11   9   0    0.13    0.46
 -11   9   0   -0.12    0.28
  11  -9   0   -0.10    0.26
 -10   8   0    0.00    0.28
  10  -8   0    0.18    0.13
  10  -8   0    0.28    0.32
 -10   8   0   -0.21    0.33
   9  -7   0    3.21    0.68
  -9   7   0    4.23    0.71
   9  -7   0    4.66    0.52
  -9   7   0    4.44    0.83
  -8   6   0    0.25    0.33
   8  -6   0   -0.15    0.13
   8  -6   0    0.01    0.24
  -8   6   0    0.17    0.20
  -7   5   0    0.08    0.20
  -7   5   0   -0.28    0.21
   7  -5   0    0.25    0.19
   7  -5   0    0.08    0.24
   6  -4   0  102.26    8.95
   6  -4   0  107.94    8.66
  -6   4   0  107.77    8.88
   6  -4   0  112.34    8.70
   5  -3   0    0.11    0.19
   5  -3   0   -0.04    0.13
   5  -3   0   -0.04    0.13
  -5   3   0   -0.06    0.20
  -4   2   0   -0.08    0.22
   4  -2   0    0.12    0.21
  -4   2   0   -0.10    0.14
   4  -2   0    0.18    0.20
  -3   1   0  285.22   22.19
  -3   1   0  289.98   22.34
   3  -1   0  269.94   22.73
   3  -1   0  269.06   21.90
   2   0   0   -0.04    0.05
  -2   0   0    0.03    0.08
  -2   0   0   -0.01    0.11
   0  -2   0   37.59    2.90
   0  -2   0   33.41    3.01
   1  -3   0   -0.04    0.13
   1  -3   0   -0.08    0.17
  -1   3   0    0.04    0.14
   1  -3   0    0.04    0.15
   2  -4   0    0.16    0.21
   2  -4   0   -0.10    0.23
  -2   4   0    0.09    0.20
   2  -4   0   -0.05    0.14
   3  -5   0    1.31    0.35
   3  -5   0    1.17    0.22
   3  -5   0    1.42    0.33
  -3   5   0    1.37    0.31
  -4   6   0    0.07    0.18
   4  -6   0    0.01    0.16
   4  -6   0    0.28    0.19
  -5   7   0   -0.03    0.22
  -5   7   0    0.12    0.24
   5  -7   0   -0.03    0.17
   5  -7   0    0.06    0.23
  -6   8   0   97.47    8.55
   6  -8   0   95.33    8.07
   6  -8   0  105.88    8.27
  -6   8   0  103.39    8.38
  -7   9   0    0.05    0.30
   7  -9   0   -0.12    0.15
   7  -9   0   -0.05    0.22
  -7   9   0   -0.03    0.32
   8 -10   0   -0.20    0.25
  -8  10   0    0.21    0.36
  -8  10   0    0.10    0.31
  -9  11   0    1.98    0.64
  -9  11   0    1.81    0.65
   9 -11   0    1.46    0.61
 -10  12   0   -0.02    0.46
  10 -12   0    0.27    0.40
 -10  12   0    0.35    0.42
 -11  13   0    0.17    0.45
 -11  13   0   -0.10    0.47
  11 -13   0    0.12    0.39
 -12  14   0   82.73    7.35
 -12  14   0   85.40    7.34
  12 -14   0   76.32    7.12
 -13  15   0    0.09    0.42
  13 -15   0    0.16    0.32
 -13  15   0    0.23    0.54
 -14  16   0   -0.13    0.46
 -14  16   0   -0.22    0.43
  14 -16   0   -0.09    0.24
 -15  17   0   41.29    4.26
  15 -17   0   40.96    4.23
 -15  17   0   45.82    4.36
  17 -15  -1    3.47    0.98
 -17  15  -1    1.77    0.71
 -17  15   1    4.25    1.15
  17 -15   1    2.04    0.76
 -16  14  -1   15.89    1.94
  16 -14  -1   10.88    1.68
 -16  14   1   11.27    1.96
  16 -14   1   15.42    1.87
  15 -13  -1    9.53    1.44
 -15  13   1    8.74    1.64
 -15  13   1   10.83    1.49
  14 -12  -1    1.21    0.60
 -14  12  -1    1.96    0.80
 -14  12  -1    2.10    0.70
 -14  12   1    2.42    0.76
  14 -12   1    2.76    0.81
 -14  12   1    1.86    0.82
 -13  11  -1    0.61    0.48
  13 -11  -1    0.05    0.38
 -13  11  -1    0.48    0.54
 -13  11   1    0.37    0.38
  13 -11   1    0.79    0.49
 -13  11   1    0.48    0.56
 -12  10  -1  100.54    8.72
 -12  10  -1  103.72    8.74
  12 -10   1   98.00    8.47
  11  -9  -1   40.40    3.29
 -11   9  -1   32.68    3.21
 -11   9  -1   29.15    3.22
  11  -9   1   30.35    3.13
  11  -9   1   31.63    2.99
 -11   9   1   42.85    3.50
  10  -8  -1   14.98    1.88
 -10   8  -1   22.46    2.05
 -10   8  -1   23.45    2.15
  10  -8  -1   16.15    1.99
 -10   8   1   16.17    2.06
  10  -8   1   20.46    2.00
  10  -8   1   21.63    1.83
   9  -7  -1    5.52    0.88
  -9   7  -1    5.25    0.90
  -9   7  -1    4.66    0.76
   9  -7  -1    5.57    0.60
   9  -7  -1    5.90    0.83
   9  -7   1    5.35    0.81
   9  -7   1    4.80    0.65
  -9   7   1    6.03    0.96
   8  -6  -1   26.19    2.20
   8  -6  -1   26.69    1.90
  -8   6  -1   18.89    2.11
  -8   6  -1   18.26    2.16
   8  -6  -1   26.84    2.26
  -8   6   1   26.62    2.28
   8  -6   1   17.59    2.05
   8  -6   1   19.69    2.01
   7  -5  -1   59.04    5.63
   7  -5  -1   59.20    5.83
  -7   5  -1   82.65    5.88
  -7   5  -1   81.62    5.86
  -7   5   1   57.42    5.75
  -7   5   1   60.80    5.50
   7  -5   1   78.92    5.66
   6  -4  -1   26.94    2.46
   6  -4  -1   24.43    2.35
  -6   4   1   28.10    2.48
  -6   4   1   28.30    2.27
  -5   3  -1   12.08    1.36
   5  -3  -1   15.78    1.36
  -5   3  -1   13.38    1.41
   5  -3  -1   16.98    1.45
   5  -3   1   11.06    1.30
  -5   3   1   18.14    1.48
   5  -3   1   12.67    1.33
  -5   3   1   17.31    1.29
   4  -2  -1    1.38    0.29
   4  -2  -1    1.04    0.29
  -4   2  -1    2.04    0.34
  -4   2   1    0.92    0.22
   4  -2   1    2.15    0.33
  -4   2   1    0.98    0.29
  -3   1  -1   11.59    1.14
  -3   1  -1   12.12    1.12
   3  -1   1   12.62    1.13
   3  -1   1   11.64    1.04
   2   0  -1  179.90   13.92
   2   0  -1  177.41   13.38
  -2   0   1  175.35   13.63
  -2   0   1  181.14   13.57
   2   0   1  134.91   13.55
   1   1  -1   78.80    6.42
   1   1  -1   78.38    6.13
  -1  -1   1   75.05    6.26
   0  -2  -1    1.15    0.30
   0  -2  -1    1.15    0.23
   0   2  -1    1.29    0.23
   0  -2  -1    1.20    0.30
   0   2  -1    1.40    0.33
   0  -2   1    1.40    0.26
   0  -2   1    1.37    0.32
   0   2   1    1.69    0.26
   1  -3  -1   23.97    2.20
   1  -3  -1   21.16    2.04
  -1   3  -1   29.03    2.06
  -1   3   1   21.37    2.10
  -1   3   1   22.50    2.01
   1  -3   1   29.16    2.12
  -2   4  -1  103.02    9.19
  -2   4  -1   96.97    8.91
   2  -4  -1  118.43    9.22
   2  -4  -1  117.76    8.81
  -2   4   1  115.85    8.97
  -3   5  -1  521.76   42.25
  -3   5  -1  505.42   43.12
   3  -5   1  530.04   41.52
   3  -5   1  553.55   42.06
  -4   6  -1   13.54    1.37
  -4   6  -1   12.34    1.28
   4  -6   1   12.41    1.27
   4  -6   1   12.88    1.23
   5  -7  -1    0.80    0.33
   5  -7  -1    1.70    0.48
  -5   7  -1    0.87    0.39
  -5   7  -1    0.70    0.30
   5  -7   1    0.90    0.28
   5  -7   1    0.89    0.34
  -5   7   1    0.99    0.36
   7  -9  -1   41.11    4.34
  -7   9  -1   55.23    4.60
   7  -9  -1   42.86    4.57
  -7   9  -1   53.24    4.46
  -7   9   1   43.73    4.45
   7  -9   1   57.01    4.29
   7  -9   1   62.04    4.51
  -8  10  -1   14.70    1.75
  -8  10  -1   17.10    1.75
   8 -10   1   15.32    1.50
   8 -10   1   16.35    1.75
  -9  11  -1   15.87    1.91
  -9  11  -1   15.18    1.84
   9 -11   1   18.23    1.66
   9 -11   1   19.29    1.95
  10 -12  -1    1.17    0.56
 -10  12  -1    2.85    0.77
  10 -12  -1    1.77    0.72
 -10  12  -1    2.24    0.72
  10 -12   1    1.66    0.60
 -10  12   1    2.05    0.74
 -11  13  -1   12.81    1.76
 -11  13  -1   14.02    1.77
 -11  13   1   18.00    1.96
  11 -13   1   12.93    1.69
 -12  14  -1    3.41    0.97
  12 -14  -1    7.08    1.21
 -12  14  -1    3.00    0.93
  12 -14   1    2.34    0.78
  13 -15  -1    6.65    1.32
 -13  15  -1    9.47    1.49
 -13  15  -1    9.44    1.51
 -13  15   1    6.33    1.39
 -13  15   1    7.29    1.39
  13 -15   1    7.57    1.30
 -14  16  -1    0.00    0.48
  14 -16  -1    0.70    0.40
 -14  16  -1    0.04    0.47
 -14  16   1    0.20    0.51
  14 -16   1    0.04    0.28
 -14  16   1    0.64    0.48
  15 -17  -1    3.03    0.88
 -15  17  -1    0.25    0.49
 -15  17  -1    0.26    0.40
  15 -17   1    0.30    0.43
 -15  17   1    3.20    0.92
 -15  17   1    2.92    0.85
  17 -15  -2   -0.08    0.34
 -17  15  -2    0.10    0.40
 -17  15   2    0.15    0.65
  17 -15   2    0.15    0.41
 -16  14  -2    2.10    0.79
  16 -14  -2    1.90    0.66
  16 -14   2    1.98    0.65
 -16  14   2    2.96    0.95
  15 -13  -2   14.84    1.95
 -15  13  -2   16.78    2.10
  15 -13  -2   17.48    2.04
  15 -13   2   16.79    1.97
 -15  13   2   13.02    1.98
  14 -12  -2    0.05    0.42
 -14  12  -2   -0.01    0.45
 -14  12  -2   -0.07    0.44
  14 -12  -2    0.17    0.40
 -14  12   2   -0.31    0.45
  14 -12   2   -0.08    0.35
 -13  11  -2   -0.19    0.39
  13 -11  -2    0.27    0.43
 -13  11  -2    0.16    0.47
  13 -11  -2    0.05    0.38
  13 -11   2    0.03    0.35
 -13  11   2    0.09    0.51
  12 -10  -2  109.79    8.81
 -12  10  -2   95.00    8.93
 -12  10  -2   91.52    8.91
  12 -10  -2  113.94    9.13
 -12  10   2  114.35    9.10
  12 -10   2  101.83    8.69
  12 -10   2  102.54    8.75
 -11   9  -2    3.29    0.73
  11  -9  -2    3.23    0.76
  11  -9  -2    3.29    0.82
 -11   9  -2    2.99    0.84
 -11   9   2    3.03    0.89
  11  -9   2    2.45    0.72
  11  -9   2    3.76    0.70
  10  -8  -2    0.28    0.41
  10  -8  -2    0.11    0.28
 -10   8  -2    0.43    0.38
 -10   8  -2    0.31    0.43
  10  -8   2    0.49    0.33
  10  -8   2    0.20    0.35
 -10   8   2    0.64    0.55
   9  -7  -2    8.36    1.04
  -9   7  -2    6.93    1.08
  -9   7  -2    7.76    1.06
   9  -7  -2    8.45    1.10
   9  -7   2    7.65    0.98
   9  -7   2    7.92    1.03
  -9   7   2    8.89    1.19
  -8   6  -2    1.45    0.49
   8  -6  -2    1.78    0.54
  -8   6  -2    0.77    0.38
   8  -6  -2    1.87    0.49
  -8   6   2    1.66    0.54
   8  -6   2    1.08    0.39
   8  -6   2    0.77    0.34
  -8   6   2    2.15    0.33
  -7   5  -2    2.03    0.48
   7  -5  -2    1.47    0.47
   7  -5  -2    1.18    0.39
  -7   5  -2    1.61    0.47
  -7   5   2    1.31    0.48
   7  -5   2    1.80    0.45
  -7   5   2    1.34    0.28
   7  -5   2    1.68    0.38
  -6   4  -2  187.74   15.63
  -6   4  -2  190.82   15.38
   6  -4  -2  185.41   15.68
   6  -4  -2  175.83   15.02
  -6   4   2  193.38   15.42
   6  -4   2  188.17   15.00
  -6   4   2  198.78   15.13
   6  -4   2  189.36   15.28
  -5   3  -2    0.99    0.34
   5  -3  -2    0.51    0.28
  -5   3  -2    1.18    0.34
   5  -3  -2    0.49    0.24
   5  -3   2    0.88    0.30
  -5   3   2    0.74    0.31
   5  -3   2    0.87    0.25
  -5   3   2    0.64    0.25
  -4   2  -2   -0.12    0.14
   4  -2  -2    0.06    0.20
   4  -2  -2    0.28    0.20
  -4   2  -2    0.12    0.21
   4  -2   2    0.02    0.15
  -4   2   2    0.35    0.22
   4  -2   2    0.01    0.19
  -4   2   2    0.77    0.27
   3  -1  -2   85.99    6.87
   3  -1  -2   85.77    7.25
  -3   1  -2   80.41    7.19
  -3   1  -2   83.69    7.07
   3  -1   2   90.19    6.81
   3  -1   2   90.93    7.08
  -3   1   2   83.31    7.06
  -3   1   2   86.21    7.00
   2   0  -2    0.30    0.18
  -2   0  -2    0.14    0.18
   2   0  -2    0.57    0.27
  -2   0  -2    0.04    0.17
  -2   0   2    0.31    0.18
   2   0   2    0.43    0.23
  -2   0   2    0.51    0.21
   1   1  -2    1.35    0.31
  -1  -1  -2    2.39    0.43
   1   1  -2    1.49    0.26
   1   1  -2    1.67    0.39
  -1  -1  -2    2.02    0.38
   1   1   2    2.18    0.37
  -1  -1   2    1.32    0.33
   0  -2  -2    2.54    0.35
   0  -2  -2    3.00    0.51
   0   2  -2    3.20    0.47
   0   2  -2    2.75    0.41
   0  -2  -2    2.38    0.44
   0  -2   2    2.56    0.34
   0  -2   2    2.35    0.43
   0   2   2    2.48    0.40
   1  -3  -2   -0.06    0.18
   1  -3  -2   -0.13    0.14
  -1   3  -2   -0.16    0.16
  -1   3  -2   -0.03    0.15
   1  -3   2   -0.03    0.14
   1  -3   2   -0.07    0.14
  -1   3   2    0.04    0.15
  -2   4  -2   15.95    1.63
  -2   4  -2   14.62    1.47
   2  -4  -2   16.56    1.46
   2  -4  -2   17.78    1.66
   2  -4   2   14.61    1.55
   2  -4   2   14.95    1.44
  -2   4   2   18.13    1.45
  -2   4   2   17.67    1.59
  -3   5  -2  523.80   45.01
   3  -5  -2  607.48   43.30
   3  -5  -2  554.83   45.05
  -3   5  -2  510.88   44.02
  -3   5   2  572.00   44.14
  -3   5   2  584.07   43.76
   3  -5   2  514.85   43.24
   3  -5   2  535.09   43.91
  -4   6  -2    0.19    0.28
   4  -6  -2    0.93    0.41
   4  -6  -2    0.98    0.31
  -4   6   2    1.07    0.22
  -4   6   2    1.24    0.42
   5  -7  -2   -0.03    0.18
  -5   7  -2    0.01    0.14
  -5   7  -2    0.32    0.35
   5  -7  -2    0.01    0.28
   5  -7   2    0.12    0.19
   5  -7   2    0.28    0.25
  -5   7   2    0.00    0.25
  -6   8  -2   34.98    3.34
  -6   8  -2   37.24    3.20
   6  -8  -2   34.34    3.15
   6  -8  -2   31.75    3.32
   6  -8   2   33.90    3.12
   6  -8   2   38.95    3.21
  -6   8   2   36.68    3.30
  -7   9  -2    7.78    1.12
  -7   9  -2   10.08    1.11
   7  -9  -2    7.60    1.17
   7  -9  -2    7.70    1.03
  -7   9   2    6.76    1.05
   7  -9   2    7.95    1.01
   7  -9   2    8.04    1.01
   8 -10  -2    0.29    0.47
  -8  10  -2    1.82    0.64
  -8  10  -2    1.48    0.54
   8 -10   2    0.84    0.45
   8 -10   2    1.26    0.43
  -8  10   2    0.18    0.40
   9 -11  -2   23.55    2.55
  -9  11  -2   23.26    2.52
   9 -11  -2   24.14    2.43
  -9  11  -2   22.83    2.42
   9 -11   2   22.12    2.33
   9 -11   2   24.56    2.29
  -9  11   2   24.09    2.51
 -10  12  -2    0.92    0.59
  10 -12  -2    0.93    0.53
 -10  12  -2    0.64    0.53
  10 -12  -2    0.80    0.51
  10 -12   2    0.85    0.43
  10 -12   2    0.86    0.44
 -10  12   2    1.08    0.62
  11 -13  -2    0.71    0.55
 -11  13  -2    1.68    0.65
 -11  13  -2    1.21    0.66
  11 -13  -2    1.21    0.61
  11 -13   2    1.87    0.62
 -11  13   2    0.73    0.56
 -12  14  -2   24.15    2.70
 -12  14  -2   25.54    2.74
  12 -14  -2   25.49    2.70
  12 -14  -2   23.09    2.73
  12 -14   2   25.34    2.62
 -12  14   2   22.63    2.73
 -13  15  -2    0.81    0.60
  13 -15  -2   -0.15    0.24
 -13  15  -2    0.38    0.58
  13 -15  -2    0.90    0.54
  13 -15   2    0.47    0.40
 -13  15   2    0.88    0.60
  14 -16  -2    0.17    0.28
 -14  16  -2    0.44    0.44
  14 -16   2    0.28    0.32
 -14  16   2    0.08    0.37
 -14  16   2    0.56    0.44
  15 -17  -2   -0.19    0.29
 -15  17   2    0.22    0.32
  15 -17   2    0.17    0.40
 -15  17   2   -0.10    0.46
  16 -14  -3    6.19    1.27
  16 -14  -3    6.11    1.29
 -16  14   3    5.11    1.42
 -15  13  -3    5.98    1.23
  15 -13   3    5.42    1.02
 -15  13   3    1.10    0.67
 -14  12  -3    0.96    0.58
  14 -12  -3    0.74    0.54
  14 -12  -3    0.92    0.50
 -14  12   3    1.28    0.64
  14 -12   3    0.24    0.39
  13 -11  -3   11.51    1.77
 -13  11  -3   19.67    2.01
  13 -11  -3   12.06    1.74
 -13  11  -3   19.35    2.04
  13 -11   3   15.90    1.77
 -13  11   3    9.95    1.86
  13 -11   3   18.28    1.90
 -12  10  -3  107.74    9.20
 -12  10  -3  103.60    9.09
  12 -10   3  101.37    8.76
  12 -10   3  107.52    8.96
 -10   8  -3   19.20    1.94
 -10   8  -3   14.79    1.78
  10  -8   3   16.07    1.70
  10  -8   3   15.16    1.77
  -9   7  -3    3.79    0.81
  -9   7  -3    4.69    0.83
   9  -7  -3    1.73    0.70
   9  -7  -3    1.89    0.58
   9  -7   3    3.58    0.64
   9  -7   3    3.78    0.77
  -8   6  -3    3.96    0.75
  -8   6  -3    3.84    0.74
   8  -6   3    2.40    0.51
   8  -6   3    3.45    0.72
  -7   5  -3   40.45    3.87
  -7   5  -3   45.88    3.86
   7  -5   3   43.18    3.85
   7  -5   3   41.44    3.58
   5  -3  -3   24.63    2.20
   5  -3  -3   24.69    2.48
  -5   3   3   27.29    2.28
  -5   3   3   24.07    2.39
   4  -2  -3    4.51    0.80
   4  -2  -3    5.84    0.61
  -4   2   3    4.41    0.61
  -4   2   3    4.31    0.71
   3  -1  -3    4.49    0.81
  -3   1  -3    6.06    0.75
   3  -1  -3    4.88    0.58
  -3   1  -3    6.56    0.82
  -3   1   3    4.89    0.70
   3  -1   3    5.42    0.76
  -3   1   3    4.40    0.64
   2   0  -3   46.42    3.78
   2   0  -3   45.14    4.16
  -2   0   3   48.09    4.03
  -2   0   3   46.65    4.01
   1   1  -3    6.07    0.78
   1   1  -3    7.32    0.68
   1   1  -3    7.24    0.94
  -1  -1   3    5.69    0.82
   0   2  -3    0.03    0.18
   0  -2  -3    0.13    0.28
   0   2  -3    0.26    0.29
   0   2  -3    0.12    0.18
   0  -2  -3    0.06    0.24
   0   2   3    0.27    0.21
   0  -2   3    0.20    0.25
  -1   3  -3   12.86    1.22
  -1   3  -3   12.81    1.38
   1  -3   3   12.48    1.33
   1  -3   3   10.87    1.06
   2  -4  -3   57.21    4.57
   2  -4  -3   52.30    4.96
  -2   4   3   58.83    4.71
  -2   4   3   54.86    4.83
  -3   5  -3  368.84   28.49
  -3   5  -3  328.53   29.12
   3  -5   3  361.21   28.49
   3  -5   3  356.38   27.89
   4  -6  -3   39.11    3.61
   4  -6  -3   40.41    3.26
  -4   6   3   36.63    3.19
  -4   6   3   35.30    3.42
  -5   7  -3    0.30    0.26
   5  -7  -3    0.44    0.44
  -5   7  -3    0.25    0.42
   5  -7  -3    0.20    0.25
   5  -7   3    0.25    0.33
   5  -7   3    0.44    0.21
  -5   7   3    0.52    0.41
  -5   7   3    0.64    0.25
  -6   8  -3   11.36    1.52
  -6   8  -3   12.49    1.36
   6  -8   3   12.31    1.33
   6  -8   3   13.71    1.49
  -7   9  -3   49.96    4.57
  -7   9  -3   47.08    4.28
   7  -9   3   48.29    4.34
   7  -9   3   48.71    4.20
  -8  10  -3   28.40    2.92
  -8  10  -3   27.93    2.66
   8 -10   3   26.84    2.68
   8 -10   3   27.32    2.62
  -9  11  -3    3.55    0.95
  -9  11  -3    4.10    0.81
   9 -11   3    3.56    0.78
   9 -11   3    3.74    0.80
 -10  12  -3    6.31    1.09
 -10  12  -3    6.16    1.24
  10 -12   3    6.45    1.04
  10 -12   3    6.32    1.06
  11 -13  -3   22.12    2.35
  11 -13  -3   20.13    2.43
 -11  13   3   19.07    2.39
  12 -14  -3    0.24    0.47
 -12  14  -3    2.94    0.95
  12 -14  -3    0.90    0.51
  12 -14   3    2.95    0.80
 -12  14   3    1.03    0.61
  13 -15  -3    3.41    0.91
  13 -15  -3    2.51    0.74
 -13  15   3    1.81    0.67
  14 -16  -3    3.68    0.98
  14 -16  -3    4.43    1.01
  14 -16   3    1.95    0.63
 -14  16   3    4.07    1.19
  15 -13  -4   20.87    2.55
  15 -13  -4   23.46    2.56
 -15  13   4   21.04    2.71
  14 -12  -4    1.20    0.55
  14 -12  -4    1.05    0.52
  14 -12   4    1.03    0.49
 -14  12   4    1.68    0.74
 -13  11  -4    6.34    1.22
 -13  11  -4    4.82    1.14
  13 -11   4    5.35    1.14
  12 -10  -4    3.39    0.97
  12 -10  -4    4.95    0.99
 -12  10   4    3.99    1.08
  11  -9  -4    0.33    0.42
 -11   9  -4    1.59    0.63
  11  -9  -4    0.48    0.51
 -11   9  -4    1.88    0.71
  11  -9   4    1.81    0.67
 -11   9   4    0.43    0.55
 -10   8  -4    2.06    0.72
 -10   8  -4    2.50    0.77
  10  -8  -4    3.04    0.93
  10  -8  -4    2.53    0.65
 -10   8   4    2.62    0.81
  10  -8   4    1.55    0.63
   9  -7  -4    0.65    0.55
  -9   7  -4    1.64    0.64
   9  -7  -4    1.37    0.49
  -9   7  -4    1.11    0.56
   9  -7   4    0.58    0.44
  -9   7   4    1.06    0.60
   8  -6  -4   16.74    1.97
  -8   6  -4   16.65    1.85
  -8   6  -4   14.74    1.74
   8  -6  -4   15.76    1.64
  -8   6   4   14.67    1.83
   8  -6   4   15.61    1.81
   7  -5  -4   12.12    1.56
   7  -5  -4   10.86    1.23
  -7   5   4   11.49    1.23
  -7   5   4   11.29    1.44
  -6   4  -4   41.24    3.86
  -6   4  -4   44.01    3.80
   6  -4  -4   42.23    3.53
   6  -4  -4   40.57    3.92
  -6   4   4   38.52    3.78
   6  -4   4   40.97    3.79
  -6   4   4   39.04    3.61
  -5   3  -4    1.13    0.46
   5  -3  -4    1.13    0.28
   5  -3  -4    1.15    0.57
  -5   3  -4    1.21    0.51
   5  -3   4    0.41    0.40
  -5   3   4    0.95    0.43
  -5   3   4    1.11    0.45
   4  -2  -4    0.13    0.12
  -4   2  -4    0.30    0.37
  -4   2  -4   -0.11    0.23
   4  -2  -4    0.00    0.34
   4  -2   4    0.22    0.37
  -4   2   4    0.01    0.26
  -4   2   4   -0.09    0.24
   3  -1  -4   67.37    5.45
  -3   1  -4   68.23    5.83
   3  -1  -4   67.70    6.04
  -3   1  -4   66.15    5.98
  -3   1   4   65.87    5.75
   3  -1   4   68.82    5.85
  -3   1   4   69.12    5.83
   2   0  -4   13.18    1.55
  -2   0   4   12.34    1.40
  -2   0   4   12.21    1.41
   1   1  -4   28.67    2.71
  -1  -1  -4   24.94    2.68
   1   1  -4   30.62    2.60
  -1  -1  -4   23.77    2.56
   1   1   4   24.33    2.54
  -1  -1   4   30.06    2.64
   0   2  -4    5.82    1.01
   0  -2  -4    6.18    0.92
   0  -2  -4    6.24    0.97
   0   2  -4    5.36    0.82
   0  -2   4    5.74    0.93
   0   2   4    6.18    0.88
   1  -3  -4    5.33    0.96
  -1   3  -4    4.44    0.90
  -1   3  -4    4.23    0.75
  -1   3   4    5.46    0.88
  -1   3   4    5.05    0.76
   1  -3   4    3.90    0.81
  -2   4  -4    0.75    0.37
   2  -4  -4    1.23    0.56
  -2   4  -4    0.67    0.47
  -2   4   4    1.79    0.46
   2  -4   4    1.08    0.46
  -2   4   4    1.66    0.53
   3  -5  -4    3.21    0.41
   3  -5  -4    1.81    0.67
  -3   5   4    1.75    0.47
  -3   5   4    1.65    0.56
   4  -6  -4    1.87    0.66
   4  -6  -4    1.60    0.36
  -4   6   4    1.42    0.56
  -4   6   4    1.34    0.36
  -5   7  -4    0.51    0.35
  -5   7  -4    1.03    0.55
   5  -7  -4    0.38    0.27
   5  -7  -4    0.12    0.36
  -5   7   4    0.39    0.42
   5  -7   4    0.50    0.41
  -6   8  -4   33.78    3.42
   6  -8  -4   35.76    3.56
   6  -8  -4   36.01    3.13
  -6   8  -4   32.64    3.17
   6  -8   4   33.86    3.31
  -6   8   4   33.88    3.36
   7  -9  -4    0.76    0.39
   7  -9  -4    0.82    0.62
  -7   9  -4    0.82    0.42
  -7   9  -4    0.57    0.54
   7  -9   4    0.37    0.41
  -7   9   4    0.94    0.58
   8 -10  -4    8.15    1.47
   8 -10  -4    9.58    1.20
  -8  10   4    6.85    1.31
   9 -11  -4    0.08    0.42
  -9  11  -4    0.03    0.44
   9 -11  -4    0.04    0.35
   9 -11   4    0.10    0.41
  -9  11   4    0.66    0.59
 -10  12  -4    0.22    0.55
  10 -12  -4    0.26    0.42
  10 -12  -4    0.08    0.47
 -10  12   4   -0.38    0.30
  10 -12   4    0.09    0.37
 -11  13  -4    1.24    0.67
  11 -13  -4    0.29    0.46
  11 -13  -4    0.07    0.36
  11 -13   4    1.21    0.62
 -11  13   4    0.86    0.50
  12 -14  -4   35.10    3.64
  12 -14  -4   38.91    4.01
 -12  14  -4   40.66    3.96
  12 -14   4   36.07    3.68
 -12  14   4   36.98    3.94
 -13  15  -4    0.48    0.45
  13 -15  -4    1.54    0.66
  13 -15  -4    1.01    0.42
 -13  15   4    1.00    0.77
  13 -11  -5    2.35    0.78
 -13  11   5    2.68    0.95
 -12  10  -5   21.07    2.52
  12 -10  -5   28.10    2.80
  12 -10   5   17.73    2.34
 -10   8  -5   14.56    1.84
 -10   8  -5   13.80    1.93
  10  -8   5   17.27    1.99
   9  -7  -5    0.13    0.51
  -9   7  -5    0.68    0.53
  -9   7  -5    0.95    0.59
  -9   7   5    0.73    0.54
   9  -7   5    0.92    0.53
   8  -6  -5   29.16    3.27
  -8   6   5   31.37    3.16
  -7   5  -5   57.66    5.21
  -7   5  -5   56.84    5.41
   7  -5   5   58.62    5.31
   6  -4  -5    4.50    1.09
  -6   4   5    4.81    0.90
  -6   4   5    5.48    1.05
   5  -3  -5    3.12    0.94
  -5   3   5    3.90    0.80
  -5   3   5    4.11    0.88
  -4   2  -5   -0.12    0.32
   4  -2  -5    0.07    0.37
  -4   2  -5    0.10    0.38
  -4   2   5   -0.20    0.35
  -4   2   5    0.03    0.33
   4  -2   5   -0.01    0.36
  -3   1  -5    2.37    0.69
   3  -1  -5    0.42    0.46
  -3   1  -5    1.97    0.66
  -3   1   5    1.00    0.54
  -3   1   5    0.54    0.42
   3  -1   5    2.33    0.71
  -1  -1  -5   87.77    7.12
  -1  -1  -5   73.68    7.22
   1   1   5   82.59    7.05
   0   2  -5    0.29    0.39
   0  -2  -5    0.29    0.44
   0  -2  -5    0.26    0.40
   0   2  -5    0.39    0.39
   0  -2   5    0.33    0.46
   0   2   5    0.47    0.42
  -1   3  -5   13.75    1.60
  -1   3  -5   11.99    1.68
   1  -3   5   15.78    1.77
   2  -4  -5   44.05    4.69
  -2   4   5   52.59    4.48
  -2   4   5   52.01    4.61
  -3   5  -5   56.16    5.84
   3  -5  -5   74.37    6.02
  -3   5  -5   56.55    5.53
  -3   5   5   80.23    5.86
   3  -5   5   55.78    5.68
   4  -6  -5    4.49    1.04
  -4   6  -5    0.40    0.48
  -4   6   5    4.70    0.95
  -5   7  -5    0.23    0.49
  -5   7  -5    0.45    0.41
   5  -7  -5    2.75    0.89
  -5   7   5    2.58    0.77
   5  -7   5    0.90    0.53
  -6   8  -5   -0.04    0.45
   6  -8  -5    3.34    1.01
  -6   8   5    4.02    0.98
   8 -10  -5    5.08    1.26
  -8  10   5    4.28    1.08
   9 -11  -5    2.89    0.95
  -9  11  -5    2.96    0.92
  -9  11   5    2.11    0.80
   9 -11   5    3.14    0.85
 -10  12  -5    0.26    0.40
  10 -12  -5    0.10    0.35
 -10  12   5    0.17    0.42
  10 -12   5    0.33    0.26
  11 -13  -5   12.50    1.93
  11  -9  -6    8.49    1.75
 -11   9  -6    6.60    1.39
 -11   9   6    7.32    1.54
  11  -9   6    7.42    1.42
 -10   8  -6    0.62    0.45
  10  -8  -6    1.34    0.62
 -10   8   6    2.06    0.79
  10  -8   6    0.82    0.43
   9  -7  -6    0.49    0.38
  -9   7  -6    0.81    0.49
  -9   7  -6    0.47    0.40
   9  -7   6    0.09    0.24
  -9   7   6    0.97    0.52
   8  -6  -6    2.49    0.82
  -8   6  -6    0.52    0.39
   8  -6   6    0.42    0.33
  -8   6   6    3.33    0.88
  -7   5  -6    2.54    0.89
   7  -5  -6    2.45    0.86
  -7   5  -6    3.14    0.83
   7  -5   6    2.24    0.77
  -7   5   6    3.01    0.88
   6  -4  -6   26.01    2.83
  -6   4  -6   21.37    2.67
  -6   4  -6   23.06    2.54
   6  -4   6   22.21    2.62
  -6   4   6   28.80    2.81
  -5   3  -6    2.43    0.83
   5  -3  -6    0.97    0.60
  -5   3  -6    2.51    0.76
   5  -3   6    2.23    0.78
  -5   3   6    1.55    0.66
  -5   3   6    0.55    0.50
  -4   2  -6   -0.01    0.43
   4  -2  -6    0.83    0.57
  -4   2  -6    0.15    0.39
   4  -2   6    0.44    0.43
  -4   2   6    0.35    0.49
  -4   2   6    0.58    0.50
  -3   1  -6   10.37    1.54
  -3   1  -6   10.55    1.44
   3  -1  -6    9.37    1.61
   3  -1   6    8.60    1.36
  -3   1   6   11.34    1.50
  -3   1   6    8.94    1.33
  -2   0  -6    0.35    0.49
  -2   0  -6    0.76    0.50
   2   0  -6    1.17    0.65
  -2   0   6    1.29    0.64
  -2   0   6    1.68    0.66
   2   0   6    1.06    0.56
   1   1  -6    0.53    0.50
  -1  -1  -6    0.17    0.41
  -1  -1  -6    0.60    0.59
  -1  -1   6    0.00    0.38
  -1  -1   6    0.18    0.35
   1   1   6    0.74    0.49
   0   2  -6    0.50    0.54
   0  -2  -6    1.23    0.74
   0   2   6    0.26    0.43
   0  -2   6    0.93    0.55
   0   2   6    0.22    0.38
   0  -2   6    0.87    0.50
   1  -3  -6    0.26    0.49
  -1   3  -6    0.25    0.45
  -1   3  -6   -0.02    0.35
   1  -3   6    0.04    0.43
  -1   3   6    0.42    0.42
  -1   3   6    1.20    0.61
  -2   4  -6   13.99    1.93
  -2   4  -6   16.07    1.82
   2  -4   6   14.48    1.92
   3  -5  -6   69.75    5.89
  -3   5  -6   57.05    5.36
  -3   5  -6   52.34    5.68
   3  -5   6   55.71    5.54
  -3   5   6   66.74    5.61
   4  -6  -6    4.80    1.25
  -4   6   6    5.64    1.19
  -5   7  -6    0.89    0.52
   5  -7  -6    0.11    0.34
  -5   7   6    0.13    0.33
   5  -7   6    0.35    0.35
  -6   8  -6    6.97    1.46
   6  -8  -6    6.49    1.49
  -6   8   6    8.45    1.49
   6  -8   6    7.34    1.39
  -7   9  -6   17.00    2.10
   7  -9  -6   12.33    2.01
  -7   9   6   14.55    1.98
   7  -9   6   16.70    2.03
  -8  10  -6    9.57    1.49
   8 -10   6    9.24    1.60
   9 -11  -6    6.02    1.65
  -9  11  -6    9.06    1.62
  -9  11   6    6.90    1.52
   9 -11   6    6.81    1.38
  -7   5  -7    9.12    1.72
   7  -5   7   11.46    1.83
  -6   4  -7    1.32    0.55
   6  -4  -7    0.37    0.56
  -6   4  -7    0.80    0.45
  -6   4   7    0.37    0.39
   6  -4   7    1.30    0.71
   5  -3  -7   10.34    1.82
  -5   3   7    8.09    1.48
  -4   2  -7    3.95    1.09
  -4   2  -7    4.41    1.03
   4  -2   7    4.01    1.02
   3  -1  -7    0.21    0.32
  -3   1  -7    0.53    0.32
  -3   1  -7    0.22    0.32
  -3   1   7    0.40    0.44
   3  -1   7    0.01    0.25
  -3   1   7    0.77    0.39
   2   0  -7    4.89    1.22
  -2   0   7    5.63    1.20
  -2   0   7    5.66    1.13
   1   1  -7    0.12    0.36
  -1  -1  -7    0.25    0.32
   1   1   7    0.76    0.45
   1   1   7    0.51    0.38
  -1  -1   7    0.03    0.32
  -1  -1   7    0.22    0.32
   0  -2  -7    0.05    0.29
   0   2  -7    0.16    0.32
   0  -2   7   -0.01    0.33
   0   2   7    0.02    0.37
   0  -2   7    0.08    0.34
   0   2   7    0.01    0.32
  -1   3  -7    2.84    0.88
   1  -3   7    3.40    0.91
  -1   3   7    0.32    0.34
  -1   3   7    0.17    0.39
   2  -4  -7   17.00    2.29
  -2   4   7   18.32    2.17
  -3   5  -7   15.63    2.00
   3  -5  -7    9.65    1.93
  -3   5   7   11.89    1.72
   3  -5   7   14.50    1.90
   5  -7  -7    0.42    0.68
  -5   7  -7   -0.15    0.35
   5  -7   7    0.26    0.58
  -5   7   7    1.26    0.65
 -18  14   0   21.05    2.65
  18 -14   0   24.47    2.78
  17 -13   0    0.17    0.29
 -17  13   0    0.26    0.40
  16 -12   0    0.43    0.41
 -16  12   0   -0.17    0.44
 -15  11   0    0.25    0.51
  15 -11   0    0.01    0.36
 -14  10   0    0.01    0.37
  14 -10   0   -0.08    0.31
 -14  10   0    0.21    0.51
 -13   9   0   -0.22    0.28
  13  -9   0   -0.19    0.30
 -13   9   0    0.26    0.49
 -12   8   0   57.85    5.31
 -12   8   0   59.19    5.18
  12  -8   0   58.56    5.13
 -11   7   0    0.04    0.41
  11  -7   0    0.02    0.10
 -11   7   0    0.08    0.19
  11  -7   0    0.08    0.31
 -10   6   0   -0.37    0.28
  10  -6   0    0.03    0.10
  10  -6   0   -0.10    0.26
 -10   6   0    0.22    0.23
  -9   5   0  959.71   77.56
   9  -5   0  960.46   76.94
  -9   5   0 1000.00   78.90
   9  -5   0  952.85   76.11
  -8   4   0    0.00    0.19
   8  -4   0    0.11    0.16
   8  -4   0   -0.03    0.20
  -8   4   0   -0.02    0.30
   7  -3   0    0.15    0.19
  -7   3   0   -0.09    0.23
  -7   3   0   -0.06    0.16
   6  -2   0    0.36    0.22
  -6   2   0    0.66    0.26
   6  -2   0    0.36    0.24
  -6   2   0    0.40    0.32
  -5   1   0   -0.20    0.23
   5  -1   0   -0.06    0.13
  -5   1   0    0.08    0.18
   5  -1   0   -0.16    0.13
  -4   0   0    0.27    0.29
   4   0   0    0.12    0.20
  -4   0   0   -0.02    0.22
   3   1   0  267.46   21.90
  -3  -1   0  273.21   22.23
  -3  -1   0  294.75   22.32
   2   2   0    0.08    0.11
  -2  -2   0    0.02    0.11
  -2  -2   0    0.12    0.14
  -2  -2   0   -0.11    0.16
  -1  -3   0    0.05    0.11
   1   3   0   -0.11    0.15
  -1  -3   0   -0.02    0.17
  -1  -3   0   -0.10    0.15
   0  -4   0  288.86   23.13
   0  -4   0  308.01   23.43
   0   4   0  284.59   23.50
  -1   5   0    0.05    0.15
   1  -5   0   -0.02    0.13
   1  -5   0    0.00    0.17
   2  -6   0   -0.03    0.18
   2  -6   0    0.20    0.18
  -2   6   0    0.10    0.17
  -3   7   0    4.03    0.55
   3  -7   0    3.36    0.47
  -3   7   0    2.76    0.57
   3  -7   0    3.74    0.57
   4  -8   0    0.04    0.19
   4  -8   0   -0.09    0.17
  -4   8   0   -0.27    0.21
  -4   8   0    0.08    0.22
   5  -9   0    0.06    0.24
   5  -9   0   -0.02    0.18
  -5   9   0   -0.25    0.25
  -5   9   0    0.05    0.23
   6 -10   0    0.56    0.25
   6 -10   0    0.29    0.31
  -6  10   0    0.39    0.37
  -6  10   0    0.50    0.39
  -7  11   0    0.36    0.41
  -7  11   0    0.08    0.32
   7 -11   0   -0.10    0.26
   8 -12   0   -0.21    0.27
  -8  12   0   -0.11    0.35
  -8  12   0   -0.02    0.40
  -9  13   0   15.71    1.82
   9 -13   0   14.80    1.71
  -9  13   0   12.18    1.66
 -10  14   0   -0.12    0.39
 -10  14   0    0.02    0.41
  10 -14   0    0.10    0.35
  11 -15   0   -0.09    0.33
 -11  15   0    0.03    0.47
 -11  15   0   -0.01    0.40
 -12  16   0   20.98    2.41
  12 -16   0   18.97    2.21
 -12  16   0   17.50    2.26
 -13  17   0   -0.18    0.34
  13 -17   0    0.11    0.27
 -13  17   0    0.03    0.49
  14 -18   0    0.14    0.43
 -14  18   0    0.56    0.43
 -14  18   0    0.76    0.48
 -18  14  -1   10.72    1.62
  18 -14   1   11.32    1.68
  17 -13  -1   11.27    1.54
 -17  13  -1    7.33    1.48
 -17  13   1   12.05    1.73
  17 -13   1   10.05    1.50
  16 -12  -1    1.06    0.53
 -16  12  -1    1.94    0.82
  16 -12   1    2.10    0.70
 -16  12   1    1.29    0.75
  15 -11  -1   20.07    2.22
 -15  11   1   24.13    2.26
 -15  11   1   20.86    2.41
  15 -11   1   12.39    1.95
 -14  10  -1   15.70    1.97
  14 -10  -1   21.71    2.19
 -14  10  -1   16.96    2.15
  14 -10   1   15.70    2.01
 -14  10   1   23.16    2.16
 -14  10   1   20.86    2.35
 -13   9  -1   26.05    2.29
  13  -9  -1   16.75    2.20
 -13   9  -1   23.40    2.44
  13  -9   1   24.60    2.12
 -13   9   1   15.31    2.27
  13  -9   1   24.54    2.34
 -12   8  -1   10.58    1.47
 -12   8  -1   11.89    1.34
  12  -8   1   11.12    1.23
  12  -8   1   10.79    1.37
  11  -7  -1   -0.09    0.34
  11  -7  -1   -0.08    0.23
 -11   7  -1    0.06    0.38
 -11   7  -1    0.03    0.22
  11  -7   1   -0.02    0.31
  11  -7   1   -0.10    0.15
 -11   7   1    0.34    0.44
  10  -6  -1   19.58    2.34
 -10   6  -1   28.23    2.54
  10  -6  -1   21.36    2.35
 -10   6  -1   29.07    2.38
 -10   6   1   20.92    2.47
  10  -6   1   29.18    2.31
  10  -6   1   26.08    2.37
   8  -4  -1   70.13    5.31
  -8   4  -1   57.32    5.24
   8  -4  -1   68.59    5.17
   8  -4   1   51.66    5.08
   8  -4   1   50.40    5.07
  -8   4   1   73.80    5.35
  -7   3  -1   19.48    1.56
  -7   3  -1   19.11    1.68
   7  -3  -1   13.29    1.51
   7  -3  -1   14.02    1.54
  -7   3   1   12.98    1.56
   7  -3   1   18.09    1.52
  -7   3   1   14.34    1.46
   7  -3   1   18.57    1.53
  -6   2  -1    1.04    0.35
   6  -2  -1    0.68    0.27
   6  -2  -1    0.43    0.23
  -6   2  -1    1.03    0.26
   6  -2   1    0.74    0.25
  -6   2   1    0.55    0.23
  -6   2   1    0.60    0.29
   6  -2   1    0.61    0.25
  -5   1  -1   27.83    2.48
  -5   1  -1   27.04    2.39
   5  -1   1   28.87    2.35
  -4   0  -1  116.99    8.54
   4   0  -1   93.20    8.27
   4   0  -1   96.58    8.56
  -4   0   1   88.77    8.41
   4   0   1  116.31    8.40
   4   0   1  118.12    8.24
  -4   0   1   95.63    8.37
  -3  -1  -1   11.62    1.12
  -3  -1  -1   12.36    1.10
   3   1   1   12.18    1.03
   3   1   1   10.95    1.08
  -2  -2  -1    6.06    0.74
  -2  -2  -1    6.58    0.74
  -2  -2  -1    6.46    0.73
   2   2  -1    8.21    0.76
  -2  -2  -1    5.99    0.66
  -2  -2   1    8.34    0.69
  -2  -2   1    8.44    0.80
  -1  -3  -1   30.58    2.45
   1   3  -1   22.48    2.52
  -1  -3  -1   29.98    2.40
  -1  -3  -1   31.97    2.57
  -1  -3  -1   30.83    2.49
   0   4  -1   22.01    1.97
   0  -4  -1   21.01    1.82
   0  -4  -1   21.01    1.97
   0  -4  -1   21.46    1.82
   0   4  -1   20.95    1.77
   0  -4  -1   20.90    1.88
   0  -4   1   21.73    1.89
   0  -4   1   20.97    1.85
   1  -5  -1   55.80    4.79
   1  -5  -1   56.19    4.51
   1  -5  -1   55.65    4.55
  -1   5   1   55.23    4.63
   2  -6  -1   45.38    3.41
  -2   6  -1   35.47    3.54
   2  -6  -1   42.78    3.26
  -2   6  -1   37.86    3.36
  -2   6   1   44.51    3.45
   2  -6   1   34.96    3.36
   3  -7  -1   14.80    1.56
   3  -7  -1   14.39    1.70
  -3   7  -1   18.23    1.73
  -3   7  -1   16.93    1.54
   3  -7   1   18.07    1.61
   3  -7   1   17.83    1.53
  -3   7   1   14.59    1.56
   4  -8  -1   22.74    2.30
  -4   8  -1   28.06    2.49
   4  -8  -1   20.57    2.43
  -4   8  -1   27.36    2.30
   4  -8   1   29.16    2.37
  -4   8   1   21.48    2.31
   4  -8   1   27.92    2.25
  -5   9  -1   32.59    3.10
  -5   9  -1   31.86    2.92
   5  -9   1   32.68    2.83
   5  -9   1   34.24    2.97
  -6  10  -1  229.02   19.57
  -6  10  -1  235.93   20.06
   6 -10   1  253.45   19.33
   6 -10   1  246.33   19.38
  -7  11  -1    7.03    1.08
  -7  11  -1    8.22    1.04
   7 -11  -1    5.60    1.14
   7 -11  -1    6.23    1.03
  -7  11   1    6.55    1.03
   7 -11   1    6.92    1.01
   7 -11   1    7.55    0.82
   8 -12  -1    3.48    0.92
  -8  12  -1    3.31    0.82
   8 -12  -1    4.02    0.85
  -8  12  -1    2.34    0.67
   8 -12   1    2.08    0.66
   8 -12   1    3.46    0.51
  -8  12   1    3.70    0.81
   9 -13  -1    5.30    1.07
   9 -13  -1    5.19    0.99
  -9  13  -1    4.11    0.86
  -9  13  -1    3.34    0.91
  -9  13   1    6.37    1.07
   9 -13   1    2.93    0.80
 -10  14  -1   30.45    2.83
 -10  14  -1   31.66    3.01
  10 -14  -1   23.87    2.73
  10 -14   1   30.84    2.84
 -10  14   1   23.19    2.79
 -10  14   1   22.87    2.85
 -11  15  -1    8.77    1.46
  11 -15  -1   13.59    1.65
 -11  15  -1    9.44    1.65
  11 -15   1    9.99    1.51
 -11  15   1   15.40    1.83
 -11  15   1   14.52    1.78
 -12  16  -1    0.61    0.60
  12 -16  -1    0.19    0.24
 -12  16  -1    0.66    0.60
 -12  16   1   -0.16    0.53
 -12  16   1    0.39    0.51
  12 -16   1    0.43    0.37
  13 -17  -1    3.86    0.99
 -13  17  -1    6.40    1.28
 -13  17   1    4.24    1.06
 -13  17   1    4.41    1.12
  13 -17   1    5.79    1.18
  14 -18  -1   11.30    1.57
 -14  18  -1    7.69    1.52
 -14  18   1    9.39    1.45
 -14  18   1   11.85    1.62
  14 -18   1    7.26    1.51
 -18  14  -2   36.01    3.52
  18 -14  -2   24.46    3.21
 -18  14   2   28.73    3.52
  18 -14   2   33.38    3.35
 -17  13  -2    0.59    0.40
  17 -13  -2    0.16    0.31
  17 -13   2    0.75    0.48
 -17  13   2    0.22    0.49
 -16  12  -2    0.62    0.57
  16 -12  -2    0.45    0.42
 -16  12   2   -0.07    0.45
  16 -12   2    0.53    0.41
 -15  11  -2   16.37    2.19
  15 -11  -2   18.35    2.16
  15 -11  -2   19.93    2.17
 -15  11   2   17.83    2.29
  15 -11   2   18.29    2.15
  14 -10  -2    5.92    1.08
  14 -10  -2    6.10    1.13
 -14  10  -2    3.50    1.02
  14 -10   2    4.56    0.87
  14 -10   2    4.65    0.99
 -14  10   2    7.82    1.42
  13  -9  -2    0.67    0.51
 -13   9  -2   -0.25    0.32
  13  -9  -2    1.17    0.55
 -13   9  -2    0.17    0.43
  13  -9   2    0.21    0.35
 -13   9   2    0.57    0.58
  13  -9   2    0.12    0.36
  12  -8  -2   17.15    2.01
  12  -8  -2   17.86    1.98
 -12   8  -2   19.03    1.95
 -12   8  -2   16.42    2.06
  12  -8   2   18.30    1.88
 -12   8   2   18.14    2.13
  12  -8   2   21.08    2.01
 -11   7  -2   -0.24    0.32
  11  -7  -2    0.39    0.40
  11  -7  -2    0.22    0.32
 -11   7  -2    0.17    0.32
  11  -7   2    0.03    0.24
  11  -7   2   -0.09    0.29
 -11   7   2    0.08    0.42
  10  -6  -2    0.71    0.39
  10  -6  -2    1.04    0.45
 -10   6  -2    0.39    0.45
 -10   6  -2    0.70    0.38
  10  -6   2    0.73    0.38
  10  -6   2    0.78    0.39
 -10   6   2    0.76    0.51
  -9   5  -2   33.66    3.37
   9  -5  -2   39.47    3.27
   9  -5  -2   36.94    3.38
  -9   5  -2   34.23    3.29
   9  -5   2   34.77    3.18
  -9   5   2   38.02    3.10
  -9   5   2   38.80    3.43
   9  -5   2   35.54    3.25
   8  -4  -2    0.12    0.24
  -8   4  -2    0.09    0.22
   8  -4  -2    0.05    0.22
  -8   4  -2   -0.12    0.22
  -8   4   2    0.21    0.20
   8  -4   2    0.05    0.15
  -8   4   2    0.23    0.33
   8  -4   2   -0.05    0.18
   7  -3  -2    2.00    0.44
   7  -3  -2    2.31    0.50
  -7   3  -2    2.26    0.54
  -7   3  -2    1.92    0.42
  -7   3   2    1.99    0.36
  -7   3   2    1.78    0.51
   7  -3   2    2.16    0.47
   7  -3   2    2.36    0.39
   6  -2  -2   18.09    1.72
  -6   2  -2   18.15    1.75
  -6   2  -2   18.38    1.80
   6  -2  -2   17.04    1.79
   6  -2   2   19.23    1.79
  -6   2   2   18.43    1.70
  -6   2   2   19.17    1.84
   6  -2   2   19.77    1.66
   5  -1  -2    2.16    0.44
   5  -1  -2    1.98    0.37
  -5   1   2    1.51    0.39
  -5   1   2    1.57    0.36
  -4   0  -2   12.24    1.19
   4   0  -2   11.39    1.09
  -4   0  -2    9.42    1.15
   4   0  -2   11.58    1.21
  -4   0   2   11.11    1.15
  -4   0   2   12.13    1.17
   4   0   2   11.97    1.00
   4   0   2   12.03    1.17
   3   1  -2   85.72    7.30
  -3  -1  -2   88.58    7.18
   3   1  -2   86.66    6.94
  -3  -1  -2   84.75    7.27
  -3  -1   2   87.54    7.09
  -3  -1   2   84.26    7.09
   3   1   2   88.95    7.11
   2   2  -2    2.11    0.31
  -2  -2  -2    1.28    0.36
  -2  -2  -2    1.58    0.39
   2   2  -2    1.82    0.40
   2   2   2    1.11    0.30
  -2  -2   2    1.92    0.31
  -2  -2   2    2.20    0.41
   1   3  -2    0.04    0.18
  -1  -3  -2    0.03    0.17
  -1  -3  -2   -0.06    0.14
   1   3  -2    0.02    0.15
  -1  -3  -2    0.07    0.16
  -1  -3   2    0.04    0.13
  -1  -3   2    0.03    0.17
   1   3   2   -0.05    0.13
   0  -4  -2  157.38   12.52
   0   4  -2  157.51   13.15
   0  -4  -2  160.38   12.89
   0  -4  -2  151.01   13.14
   0   4  -2  159.50   12.75
   0   4   2  163.47   12.72
   0  -4   2  160.82   12.56
   0  -4   2  155.79   12.80
   1  -5  -2    2.55    0.35
  -1   5  -2    0.35    0.34
   1  -5  -2    2.53    0.52
  -1   5   2    2.42    0.45
   1  -5   2    0.59    0.30
  -1   5   2    2.38    0.33
   2  -6  -2   16.07    1.55
   2  -6  -2   15.81    1.33
  -2   6  -2   14.67    1.51
  -2   6  -2   10.97    1.23
  -2   6   2   13.56    1.37
  -2   6   2   15.79    1.22
   2  -6   2   10.94    1.32
   2  -6   2   11.80    1.29
  -3   7  -2    0.14    0.33
   3  -7  -2    0.18    0.31
   3  -7  -2    0.22    0.18
  -3   7  -2   -0.06    0.13
   3  -7   2    0.07    0.17
  -3   7   2    0.11    0.14
   3  -7   2   -0.12    0.16
  -3   7   2    0.33    0.27
   4  -8  -2    1.19    0.39
   4  -8  -2    0.85    0.42
  -4   8  -2    0.43    0.41
  -4   8  -2    0.81    0.25
   4  -8   2    0.59    0.31
   4  -8   2    0.77    0.36
  -4   8   2    1.44    0.47
   5  -9  -2    1.94    0.53
  -5   9  -2    2.91    0.51
  -5   9  -2    2.98    0.70
   5  -9  -2    1.19    0.55
  -5   9   2    1.60    0.54
   5  -9   2    2.91    0.57
   5  -9   2    3.30    0.59
   6 -10  -2  300.97   26.31
  -6  10  -2  346.35   25.63
  -6  10  -2  314.70   26.25
   6 -10  -2  307.86   25.23
   6 -10   2  319.99   25.47
   6 -10   2  330.97   25.22
  -6  10   2  293.53   25.69
  -7  11  -2    8.85    1.06
   7 -11  -2    5.80    1.01
  -7  11  -2    8.09    1.19
   7 -11  -2    5.77    1.16
   7 -11   2    6.93    0.93
  -7  11   2    5.73    1.04
   7 -11   2    7.39    1.03
  -8  12  -2    1.09    0.49
   8 -12  -2    1.07    0.56
  -8  12  -2    1.05    0.61
   8 -12  -2    1.15    0.54
  -8  12   2    1.24    0.58
   8 -12   2    0.72    0.39
   8 -12   2    0.54    0.44
   9 -13  -2   93.65    7.76
   9 -13  -2   88.28    8.12
  -9  13  -2   91.06    8.09
  -9  13  -2   92.07    7.81
   9 -13   2   86.99    7.59
  -9  13   2   89.72    7.89
   9 -13   2   90.65    7.70
 -10  14  -2    0.63    0.51
  10 -14  -2    0.29    0.42
  10 -14  -2   -0.02    0.43
 -10  14  -2    0.01    0.49
 -10  14   2    0.21    0.43
  10 -14   2    0.12    0.41
 -11  15  -2    0.28    0.59
  11 -15  -2    0.44    0.48
  11 -15  -2   -0.34    0.37
 -11  15   2    0.72    0.55
  11 -15   2   -0.06    0.34
  12 -16  -2    7.97    1.48
  12 -16  -2    7.59    1.33
 -12  16  -2    7.17    1.45
 -12  16   2    7.16    1.47
  12 -16   2    8.91    1.29
  13 -17  -2   -0.05    0.22
 -13  17  -2    0.59    0.46
  13 -17   2    1.09    0.43
 -13  17   2    0.26    0.37
 -13  17   2    0.11    0.39
  14 -18  -2    0.38    0.40
  17 -13  -3    9.12    1.59
 -17  13   3   10.89    1.98
  16 -12  -3    0.76    0.44
  16 -12  -3    0.91    0.63
 -16  12  -3    1.22    0.61
  16 -12   3    1.39    0.60
 -16  12   3    1.58    0.73
  15 -11  -3    7.44    1.34
  15 -11  -3    8.56    1.37
 -15  11   3    7.44    1.55
 -14  10  -3    4.07    1.01
  14 -10   3    2.05    0.70
  14 -10   3    2.18    0.69
 -13   9  -3   54.99    4.88
 -13   9  -3   47.73    4.89
  13  -9   3   54.85    4.81
  13  -9   3   52.19    4.72
 -12   8  -3    1.01    0.64
  12  -8  -3    5.58    0.98
  12  -8  -3    5.25    0.93
 -12   8   3    7.08    1.24
  11  -7  -3    1.17    0.51
 -11   7  -3    1.17    0.53
  11  -7  -3    1.08    0.53
 -11   7  -3    0.82    0.49
  11  -7   3    0.77    0.42
 -11   7   3    1.12    0.59
  11  -7   3    0.71    0.43
 -10   6  -3    1.99    0.57
  10  -6  -3    0.61    0.39
  10  -6  -3    0.42    0.43
 -10   6  -3    1.70    0.59
 -10   6   3    0.71    0.53
  10  -6   3    1.70    0.50
  10  -6   3    1.66    0.53
   9  -5  -3   10.20    1.15
   9  -5  -3    9.30    1.27
  -9   5   3    9.48    0.98
  -9   5   3    8.02    1.21
   8  -4  -3   33.63    3.12
   8  -4  -3   33.67    3.35
  -8   4   3   38.73    3.12
  -8   4   3   35.32    3.35
   7  -3   3   10.48    1.25
  -6   2  -3    0.49    0.28
   6  -2  -3    0.75    0.39
   6  -2  -3    0.65    0.25
  -6   2  -3    0.55    0.35
  -6   2   3    0.67    0.28
   6  -2   3    0.32    0.20
  -6   2   3    0.55    0.34
   6  -2   3    0.69    0.38
  -5   1  -3   49.95    4.28
  -5   1  -3   51.48    4.33
   5  -1   3   47.56    4.23
   5  -1   3   46.28    3.90
  -4   0  -3  102.90    8.11
  -4   0  -3   90.24    8.17
   4   0   3   96.93    8.03
  -3  -1  -3    6.84    0.83
   3   1  -3    5.49    0.61
  -3  -1  -3    5.35    0.76
   3   1  -3    5.28    0.80
   3   1   3    6.18    0.78
  -3  -1   3    4.08    0.64
  -3  -1   3    4.50    0.71
  -2  -2  -3    0.27    0.27
   2   2  -3    0.94    0.40
   2   2  -3    0.67    0.22
  -2  -2   3    1.08    0.29
  -2  -2   3    1.13    0.39
   1   3  -3    3.98    0.46
   1   3  -3    2.98    0.51
   1   3  -3    3.99    0.71
  -1  -3   3    3.45    0.63
   0  -4  -3    7.55    1.03
   0  -4  -3    8.54    1.03
   0  -4  -3    7.50    0.77
   0   4  -3    8.24    0.87
   0   4  -3    7.01    0.99
   0  -4   3    7.54    0.79
   0   4   3    8.78    0.89
   0  -4   3    7.80    0.98
   1  -5  -3   51.06    4.40
   1  -5  -3   45.59    3.97
  -1   5   3   49.70    4.10
  -1   5   3   48.03    4.27
   2  -6  -3   11.46    1.14
   2  -6  -3   11.34    1.42
  -2   6   3   10.99    1.33
  -2   6   3   13.08    1.18
  -3   7  -3    6.10    0.76
  -3   7  -3    6.05    1.04
   3  -7  -3    6.60    1.02
   3  -7  -3    7.06    0.79
  -3   7   3    6.32    0.93
   3  -7   3    6.90    0.78
   3  -7   3    6.53    0.94
  -3   7   3    7.48    0.75
  -4   8  -3   35.39    3.46
  -4   8  -3   35.85    3.15
   4  -8   3   35.93    3.14
   4  -8   3   35.62    3.31
  -5   9  -3   36.16    3.34
  -5   9  -3   31.81    2.95
   5  -9   3   32.26    3.10
   5  -9   3   32.66    2.97
  -6  10  -3   67.61    5.84
  -6  10  -3   72.61    6.29
   6 -10   3   66.44    5.80
  -7  11  -3    2.73    0.82
  -7  11  -3    3.16    0.63
   7 -11   3    2.10    0.63
   7 -11   3    2.66    0.70
  -8  12  -3    0.63    0.42
   8 -12  -3    3.89    0.81
  -8  12  -3    0.55    0.58
   8 -12  -3    3.94    1.03
  -8  12   3    3.73    0.89
   8 -12   3    0.62    0.41
  -9  13  -3    2.07    0.80
   9 -13  -3    1.83    0.67
   9 -13  -3    2.69    0.89
  -9  13   3    1.57    0.73
   9 -13   3    3.04    0.76
   9 -13   3    2.62    0.71
 -10  14  -3   15.29    2.00
  10 -14   3   13.94    1.76
  10 -14   3   16.37    1.83
 -11  15  -3    1.97    0.90
  11 -15  -3    4.09    1.10
  11 -15  -3    3.52    0.89
 -11  15   3    4.14    1.03
  12 -16  -3    0.38    0.32
  12 -16  -3    0.90    0.51
 -12  16  -3    0.84    0.55
 -12  16   3    0.45    0.37
  12 -16   3    0.21    0.32
  13 -17  -3    0.19    0.28
 -13  17  -3    2.00    0.72
  13 -17  -3    0.17    0.38
 -13  17   3    0.91    0.65
  13 -17   3    1.83    0.59
  16 -12  -4    0.58    0.44
  16 -12  -4    1.37    0.57
 -16  12  -4    2.27    0.74
 -16  12   4    1.04    0.84
  15 -11  -4    0.21    0.31
  15 -11  -4    0.32    0.36
 -15  11  -4    0.18    0.39
 -15  11   4    0.28    0.45
  15 -11   4    1.27    0.49
  14 -10  -4    1.60    0.75
  14 -10  -4    2.06    0.71
 -14  10  -4    0.59    0.50
 -14  10   4    2.65    0.86
  13  -9  -4    3.98    1.02
 -13   9  -4    6.51    1.22
  13  -9  -4    3.59    0.92
  13  -9   4    7.05    1.18
 -13   9   4    4.14    1.13
 -12   8  -4   22.83    2.57
 -12   8  -4   27.87    2.75
  12  -8  -4   24.63    2.55
  12  -8  -4   23.65    2.73
 -12   8   4   24.25    2.77
  12  -8   4   24.54    2.61
 -11   7  -4   -0.14    0.36
  11  -7  -4    0.41    0.52
  11  -7  -4    0.39    0.42
 -11   7  -4   -0.08    0.36
 -11   7   4    0.36    0.53
  11  -7   4    0.06    0.31
  10  -6  -4   16.44    1.80
 -10   6  -4    9.97    1.46
 -10   6  -4   10.59    1.49
  10  -6   4   10.76    1.49
 -10   6   4   14.55    1.71
  -9   5  -4  344.76   26.85
   9  -5  -4  330.70   27.39
  -9   5  -4  320.89   27.26
   9  -5  -4  329.18   26.19
   9  -5   4  308.69   26.65
  -9   5   4  339.33   26.89
  -8   4  -4   16.11    1.83
   8  -4  -4   17.29    1.97
  -8   4  -4   20.01    1.96
   8  -4  -4   16.98    1.71
  -8   4   4   12.87    1.80
  -8   4   4   16.93    1.72
   8  -4   4   17.83    1.90
   7  -3  -4   -0.06    0.35
  -7   3  -4   -0.42    0.27
  -7   3  -4    0.02    0.28
   7  -3  -4    0.22    0.25
  -7   3   4    0.27    0.35
   7  -3   4    0.01    0.30
  -7   3   4    0.18    0.31
  -6   2  -4    0.33    0.38
   6  -2  -4    0.74    0.27
   6  -2  -4    0.73    0.50
  -6   2  -4    0.66    0.43
  -6   2   4    0.91    0.44
  -6   2   4    0.93    0.44
   6  -2   4    0.39    0.36
   5  -1  -4    5.40    0.62
   5  -1  -4    5.00    0.99
  -5   1   4    5.21    0.83
  -5   1   4    5.25    0.85
   4   0  -4    3.40    0.45
   4   0  -4    3.99    0.84
  -4   0   4    2.85    0.65
  -4   0   4    3.02    0.62
   3   1  -4   65.13    6.08
   3   1  -4   68.87    5.56
  -3  -1  -4   70.56    5.96
  -3  -1  -4   67.89    6.08
  -3  -1   4   71.16    5.87
  -3  -1   4   67.88    5.90
   3   1   4   69.10    5.91
   2   2  -4    0.76    0.24
   2   2  -4    0.37    0.44
  -2  -2  -4   -0.04    0.33
  -2  -2  -4    0.03    0.31
   2   2   4    0.06    0.27
  -2  -2   4    0.97    0.37
  -2  -2   4    0.85    0.43
  -1  -3  -4    4.15    0.85
   1   3  -4    5.29    0.96
   1   3  -4    4.96    0.74
   1   3  -4    5.52    0.58
  -1  -3  -4    4.96    0.94
  -1  -3   4    5.56    0.89
   1   3   4    4.70    0.79
   0   4  -4   61.53    5.56
   0   4  -4   62.97    5.31
   0  -4  -4   62.06    5.60
   0  -4  -4   61.01    5.45
   0  -4   4   63.12    5.44
   0   4   4   61.78    5.32
  -1   5  -4   13.04    1.63
  -1   5  -4   14.39    1.45
   1  -5   4   13.26    1.59
   1  -5   4   13.09    1.25
   2  -6  -4    7.60    1.25
   3  -7  -4    1.22    0.59
  -3   7  -4    0.13    0.40
  -3   7  -4    0.40    0.29
   3  -7  -4    1.31    0.32
  -3   7   4    1.03    0.32
  -3   7   4    1.47    0.53
   3  -7   4    0.49    0.21
   3  -7   4    0.55    0.45
  -4   8  -4    1.90    0.73
   4  -8  -4    3.05    0.87
  -4   8  -4    2.19    0.53
   4  -8  -4    3.14    0.55
   4  -8   4    2.10    0.49
   4  -8   4    2.79    0.76
  -4   8   4    2.85    0.75
  -5   9  -4    4.44    0.79
   5  -9  -4    5.64    0.77
   5  -9  -4    5.72    1.19
  -5   9  -4    4.21    1.04
   5  -9   4    5.28    0.77
  -5   9   4    5.50    1.07
   5  -9   4    4.45    0.98
   6 -10  -4    1.99    0.80
  -6  10  -4    0.06    0.49
   6 -10  -4    1.17    0.46
   6 -10   4    1.01    0.56
  -6  10   4    2.08    0.69
   7 -11  -4    2.72    0.68
   7 -11  -4    3.56    0.97
  -7  11   4    3.28    0.92
   8 -12  -4    0.54    0.44
   8 -12  -4    0.10    0.49
  -8  12  -4    0.05    0.47
  -8  12   4    0.78    0.59
   8 -12   4    0.08    0.37
  -9  13  -4   10.33    1.62
   9 -13  -4    7.43    1.20
   9 -13  -4    6.87    1.48
   9 -13   4    8.18    1.31
  -9  13   4    6.09    1.32
  10 -14  -4    5.38    1.03
  10 -14  -4    6.09    1.36
 -10  14  -4    3.74    1.08
 -10  14   4    6.66    1.32
  10 -14   4    3.03    0.91
 -11  15  -4    8.04    1.47
  11 -15  -4    4.19    0.99
  11 -15  -4    4.59    1.20
 -11  15   4    6.17    1.38
  11 -15   4    8.39    1.33
  12 -16  -4    9.06    1.80
  12 -16  -4    8.64    1.31
 -12  16  -4   10.53    1.59
 -12  16   4    9.65    1.83
 -14  10  -5    7.86    1.44
  14 -10   5    7.37    1.39
  13  -9   5    8.81    1.50
  12  -8  -5    0.53    0.45
 -12   8  -5    1.83    0.74
 -12   8  -5    1.99    0.78
  12  -8   5    2.39    0.75
 -11   7  -5    0.14    0.38
 -11   7  -5    0.54    0.47
  11  -7  -5    0.15    0.50
 -11   7   5    0.18    0.38
  11  -7   5    0.25    0.32
 -10   6  -5   50.08    4.46
 -10   6  -5   44.94    4.44
  10  -6   5   43.27    4.37
  -9   5  -5    9.77    1.43
  -9   5  -5    9.93    1.42
   9  -5   5    8.77    1.36
   8  -4  -5   55.08    5.26
  -8   4   5   55.43    5.09
  -7   3  -5    8.98    1.27
   7  -3   5    8.80    1.27
  -6   2  -5   -0.03    0.34
  -6   2  -5    0.50    0.43
   6  -2  -5   -0.11    0.37
   6  -2   5    0.18    0.37
  -6   2   5    0.22    0.40
  -6   2   5   -0.07    0.41
   5  -1  -5    2.99    0.85
  -5   1  -5    0.76    0.48
  -5   1  -5    1.16    0.58
  -5   1   5    3.03    0.73
  -5   1   5    2.93    0.71
   5  -1   5    0.56    0.45
   4   0  -5   12.69    1.54
  -4   0   5   10.05    1.28
  -4   0   5    8.62    1.31
   3   1  -5    0.24    0.39
  -3  -1  -5    1.74    0.68
  -3  -1  -5    2.16    0.70
  -3  -1   5    0.96    0.45
   3   1   5    2.16    0.66
  -3  -1   5    0.90    0.52
   2   2  -5    4.19    0.94
  -2  -2  -5    1.59    0.64
  -2  -2  -5    0.90    0.59
  -2  -2   5    4.18    0.89
   2   2   5    1.71    0.59
   0   4  -5    1.28    0.53
   0  -4  -5    2.27    0.79
   0   4  -5    0.97    0.58
   0  -4   5    1.45    0.61
   0   4   5    1.96    0.63
  -2   6  -5   10.96    1.32
  -2   6  -5   11.60    1.56
   2  -6   5    9.76    1.42
  -3   7  -5    2.59    0.65
  -3   7  -5    1.90    0.77
   3  -7  -5    1.89    0.81
   3  -7   5    1.74    0.66
  -3   7   5    1.47    0.60
  -6  10  -5   40.46    3.72
   6 -10  -5   30.51    3.62
   6 -10   5   38.75    3.54
  -6  10   5   28.00    3.39
  -7  11  -5    3.26    1.00
   7 -11  -5    5.75    1.35
  -7  11   5    4.81    1.11
   7 -11   5    4.61    1.05
   8 -12  -5    2.27    0.83
  -8  12  -5    1.05    0.55
  -8  12   5    1.77    0.71
   8 -12   5    1.05    0.48
  -9  13  -5    0.92    0.51
   9 -13  -5    0.94    0.55
  -9  13   5    0.43    0.48
   9 -13   5    0.10    0.25
  12  -8  -6    4.48    1.26
 -12   8   6    4.33    1.19
  12  -8   6    3.97    1.07
 -11   7  -6    0.39    0.37
 -11   7  -6    0.03    0.29
  11  -7  -6    0.31    0.39
  11  -7   6   -0.03    0.27
 -11   7   6    0.46    0.38
  10  -6  -6    0.49    0.46
 -10   6  -6    0.63    0.44
 -10   6   6    0.84    0.46
  10  -6   6    0.95    0.47
   9  -5  -6    0.61    0.49
  -9   5  -6    0.41    0.42
  -9   5  -6   -0.06    0.34
   9  -5   6    0.52    0.35
  -9   5   6    1.21    0.58
  -8   4  -6    1.44    0.69
  -8   4  -6    1.02    0.56
   8  -4  -6    0.46    0.45
   8  -4   6    0.93    0.51
  -8   4   6   -0.18    0.33
   7  -3  -6    2.65    0.89
  -7   3  -6    1.52    0.64
  -7   3  -6    2.75    0.86
   7  -3   6    3.37    0.87
  -7   3   6    2.22    0.76
  -6   2  -6    2.01    0.70
   6  -2  -6    1.76    0.73
  -6   2  -6    1.71    0.72
   6  -2   6    1.63    0.68
  -6   2   6    1.22    0.65
  -6   2   6    1.99    0.74
  -5   1  -6    9.49    1.59
  -5   1  -6    9.42    1.39
   5  -1   6    9.36    1.43
  -4   0  -6   14.53    1.80
  -4   0  -6   14.12    1.86
   4   0  -6   13.53    1.88
  -4   0   6   12.94    1.73
   4   0   6   12.99    1.75
  -4   0   6   14.22    1.74
  -3  -1  -6   10.79    1.51
  -3  -1  -6   10.58    1.57
   3   1  -6   10.29    1.56
   3   1   6   11.02    1.48
  -3  -1   6    8.67    1.48
  -3  -1   6    9.04    1.33
  -2  -2  -6    0.79    0.53
  -2  -2  -6    0.47    0.54
   2   2  -6    2.00    0.78
   2   2   6    1.36    0.59
  -2  -2   6    1.78    0.65
  -2  -2   6    1.98    0.80
  -1  -3  -6    0.50    0.52
   1   3  -6    0.87    0.56
  -1  -3   6    0.45    0.39
  -1  -3   6    0.64    0.55
   1   3   6   -0.08    0.37
   0  -4  -6   26.70    3.13
   0   4  -6   27.10    3.10
   0  -4   6   31.95    2.95
   0   4   6   27.97    2.90
   0   4   6   29.62    3.07
   0  -4   6   29.60    3.10
   1  -5  -6   13.43    1.86
  -2   6  -6    9.64    1.77
   2  -6   6   12.83    1.69
   3  -7  -6   -0.12    0.31
  -3   7  -6    0.05    0.43
  -3   7   6   -0.02    0.28
   3  -7   6    0.07    0.35
   4  -8  -6    3.14    0.98
  -4   8  -6    1.19    0.58
   4  -8   6    1.54    0.63
  -4   8   6    3.83    0.96
  -5   9  -6    7.84    1.53
   5  -9   6    8.80    1.49
  -6  10  -6   48.21    4.63
   6 -10  -6   39.91    4.58
   6 -10   6   48.57    4.46
  -6  10   6   39.64    4.35
   7 -11  -6    7.58    1.69
  -7  11   6    8.16    1.56
   8 -12  -6    2.42    1.08
  -8  12  -6    1.64    0.77
   8 -12   6    1.32    0.60
  -8  12   6    2.85    1.03
   8  -4  -7    4.35    1.31
   8  -4   7    0.19    0.62
  -8   4   7    5.33    1.16
  -7   3  -7    4.04    0.95
  -7   3  -7    3.13    0.93
   7  -3   7    2.39    0.86
  -6   2  -7   -0.13    0.25
   6  -2  -7    0.33    0.50
  -6   2  -7    0.33    0.35
  -6   2   7    0.11    0.31
   6  -2   7    0.04    0.34
   5  -1  -7   44.20    4.79
  -5   1   7   51.58    4.67
  -5   1   7   45.48    4.54
   3   1  -7    0.40    0.41
  -3  -1  -7    0.18    0.31
  -3  -1  -7    0.33    0.31
  -3  -1   7    0.17    0.38
  -3  -1   7    0.76    0.46
   3   1   7    0.28    0.29
  -2  -2  -7    0.58    0.40
   2   2  -7   -0.19    0.22
   2   2   7    0.06    0.30
  -2  -2   7    0.22    0.42
   2   2   7    0.08    0.29
  -2  -2   7    0.31    0.43
  -1  -3  -7    2.51    0.89
   1   3   7    2.76    0.80
   1   3   7    2.56    0.78
   0  -4  -7    0.28    0.35
   0   4  -7   -0.21    0.28
   0  -4   7    0.25    0.35
   0   4   7    0.48    0.45
   0   4   7    0.21    0.26
  -1   5  -7   32.94    3.99
   1  -5   7   44.47    4.12
   2  -6  -7    6.21    1.44
  -2   6  -7    3.29    0.96
   2  -6   7    3.20    1.04
  -2   6   7    3.84    1.02
  -3   7  -7    0.95    0.53
   3  -7  -7    0.61    0.53
  -3   7   7    1.14    0.55
   3  -7   7    0.16    0.51
  -4   8  -7   11.52    2.06
   4  -8   7   11.41    2.00
 -19  13   0   -0.05    0.41
  19 -13   0    0.48    0.51
 -18  12   0   -0.03    0.34
  18 -12   0    0.11    0.30
  17 -11   0   -0.23    0.27
 -17  11   0   -0.07    0.40
 -16  10   0   -0.07    0.45
  16 -10   0   -0.08    0.34
 -15   9   0   26.86    2.92
  15  -9   0   28.07    2.84
  14  -8   0   -0.06    0.32
 -14   8   0   -0.02    0.46
 -14   8   0    0.21    0.34
 -13   7   0    0.20    0.26
  13  -7   0    0.03    0.15
 -13   7   0   -0.31    0.38
  13  -7   0    0.08    0.32
  12  -6   0  118.98    9.99
 -12   6   0  121.09   10.38
  12  -6   0  129.23   10.18
 -12   6   0  122.38   10.28
 -11   5   0    0.14    0.15
 -11   5   0   -0.15    0.28
  11  -5   0    0.21    0.13
  11  -5   0    0.07    0.28
 -10   4   0    0.06    0.19
  10  -4   0   -0.03    0.21
 -10   4   0   -0.01    0.31
  -9   3   0   16.83    1.86
  -9   3   0   18.95    1.76
   9  -3   0   18.09    1.80
  -9   3   0   19.79    1.73
  -8   2   0   -0.06    0.21
  -8   2   0   -0.03    0.23
   8  -2   0   -0.16    0.16
  -8   2   0   -0.08    0.17
   7  -1   0    0.15    0.17
  -7   1   0    0.14    0.20
  -7   1   0    0.00    0.20
  -6   0   0    4.83    0.65
   6   0   0    5.03    0.60
  -6   0   0    4.14    0.60
   5   1   0    0.06    0.15
  -5  -1   0   -0.08    0.22
  -5  -1   0    0.32    0.25
   4   2   0    0.11    0.18
  -4  -2   0   -0.15    0.21
  -4  -2   0    0.02    0.25
  -3  -3   0   94.84    7.53
  -3  -3   0   96.37    7.68
  -3  -3   0   90.73    7.61
   3   3   0   95.27    7.77
   2   4   0    0.11    0.20
  -2  -4   0    0.20    0.23
  -2  -4   0    0.11    0.18
  -2  -4   0    0.04    0.15
  -1  -5   0   -0.11    0.15
   1   5   0    0.05    0.19
  -1  -5   0    0.01    0.17
   1   5   0    0.06    0.11
   0   6   0   62.29    5.63
   0  -6   0   66.71    5.42
   0  -6   0   67.33    5.42
   0   6   0   68.34    5.40
  -1   7   0   -0.09    0.15
  -1   7   0   -0.12    0.17
   1  -7   0   -0.07    0.19
   1  -7   0   -0.19    0.10
  -2   8   0    0.02    0.18
   2  -8   0   -0.17    0.14
  -2   8   0    0.09    0.26
   2  -8   0   -0.12    0.19
  -3   9   0  178.42   15.88
  -3   9   0  196.12   15.45
   3  -9   0  191.56   15.28
   3  -9   0  194.81   15.29
  -4  10   0   -0.12    0.22
   4 -10   0    0.04    0.19
   4 -10   0   -0.07    0.25
  -4  10   0   -0.01    0.19
   5 -11   0   -0.16    0.20
   5 -11   0    0.04    0.18
  -5  11   0    0.05    0.28
  -5  11   0    0.27    0.36
   6 -12   0   52.23    4.45
  -6  12   0   49.28    4.43
  -6  12   0   47.62    4.62
  -7  13   0    0.37    0.45
  -7  13   0   -0.16    0.35
   7 -13   0   -0.04    0.28
   8 -14   0    0.22    0.38
  -8  14   0    0.16    0.46
  -8  14   0   -0.03    0.45
  -9  15   0  267.13   22.59
   9 -15   0  270.13   21.76
  -9  15   0  267.89   22.05
  10 -16   0    0.12    0.35
 -10  16   0    0.01    0.43
 -10  16   0   -0.09    0.50
  11 -17   0   -0.29    0.25
 -11  17   0   -0.01    0.43
 -11  17   0   -0.14    0.54
  12 -18   0   41.13    4.27
 -12  18   0   43.32    4.37
 -12  18   0   46.87    4.53
  13 -19   0    0.05    0.43
 -13  19   0    0.08    0.38
  19 -13  -1    5.90    1.35
 -19  13  -1    9.39    1.65
  19 -13   1    8.74    1.57
 -19  13   1    6.47    1.55
  18 -12  -1    7.42    1.36
 -18  12  -1    4.13    1.12
 -18  12   1    9.25    1.61
  18 -12   1    4.95    1.15
 -17  11  -1    2.22    0.78
  17 -11  -1    1.95    0.69
  17 -11   1    1.19    0.56
 -17  11   1    2.90    0.96
 -16  10  -1   16.02    1.90
  16 -10  -1   10.21    1.64
  16 -10   1   15.43    1.79
 -16  10   1   12.45    1.88
  14  -8  -1   12.39    1.38
  14  -8  -1   12.50    1.50
 -14   8  -1    8.61    1.39
  14  -8   1    7.91    1.27
 -14   8   1   11.43    1.60
  14  -8   1   10.02    1.18
 -13   7  -1    0.66    0.50
 -13   7  -1    0.95    0.42
  13  -7  -1    0.43    0.43
  13  -7  -1    0.55    0.41
  13  -7   1    0.57    0.31
 -13   7   1    0.30    0.52
  13  -7   1    0.90    0.47
 -12   6  -1    2.81    0.77
  12  -6  -1    5.22    0.85
 -12   6  -1    2.94    0.58
  12  -6   1    2.59    0.56
  12  -6   1    2.14    0.65
 -12   6   1    4.89    0.97
  11  -5  -1   60.70    4.72
  11  -5  -1   63.26    4.78
 -11   5  -1   49.41    4.65
 -11   5   1   61.13    4.91
  11  -5   1   46.01    4.61
  11  -5   1   45.94    4.56
  10  -4  -1   49.51    4.60
  10  -4  -1   47.10    4.54
 -10   4  -1   61.01    4.75
 -10   4   1   44.39    4.65
 -10   4   1   46.36    4.42
  10  -4   1   62.18    4.57
  10  -4   1   62.31    4.54
  -9   3  -1    6.86    0.96
  -8   2  -1    2.40    0.60
   8  -2  -1    3.61    0.57
   8  -2  -1    3.55    0.49
  -8   2  -1    3.11    0.48
   8  -2   1    2.12    0.45
  -8   2   1    3.52    0.53
   8  -2   1    2.76    0.48
  -8   2   1    3.43    0.64
  -7   1  -1   60.16    4.45
   7  -1  -1   45.74    4.39
   7  -1  -1   47.46    4.48
  -7   1   1   48.14    4.53
  -7   1   1   47.92    4.43
   7  -1   1   62.01    4.49
   7  -1   1   60.97    4.42
   6   0  -1  396.85   32.94
   6   0  -1  394.93   31.84
  -6   0   1  419.56   32.25
  -6   0   1  403.46   32.41
  -5  -1  -1   29.21    2.37
  -5  -1  -1   26.68    2.44
   5   1   1   26.93    2.33
   4   2  -1    1.20    0.28
  -4  -2  -1    2.40    0.40
   4   2  -1    1.10    0.25
  -4  -2  -1    1.87    0.28
  -4  -2  -1    1.96    0.35
   4   2   1    2.00    0.28
  -4  -2   1    0.91    0.27
  -4  -2   1    0.95    0.32
  -3  -3  -1   12.57    1.21
  -3  -3  -1   12.27    1.21
  -3  -3  -1   13.68    1.15
  -3  -3  -1   11.92    1.22
  -2  -4  -1   84.72    7.70
  -2  -4  -1   90.89    8.04
  -2  -4  -1   91.90    7.84
  -2  -4  -1   86.86    7.86
  -2  -4   1  111.85    7.77
  -2  -4   1  115.21    7.92
   1   5  -1   68.31    6.90
  -1  -5  -1   83.45    6.91
  -1  -5  -1   85.84    6.73
  -1  -5  -1   83.44    6.60
  -1  -5  -1   88.70    6.69
   0  -6  -1    6.76    0.75
   0  -6  -1    6.84    0.90
   0   6  -1    7.36    0.65
   0   6  -1    7.65    0.90
   0  -6  -1    7.28    0.79
   0  -6   1    7.23    0.80
   0  -6   1    7.14    0.82
   0   6   1    6.86    0.78
   1  -7  -1    0.20    0.21
  -1   7  -1    0.02    0.18
   1  -7  -1    0.12    0.27
   1  -7  -1    0.17    0.17
  -1   7  -1    0.02    0.25
   1  -7   1   -0.01    0.18
  -1   7   1    0.11    0.15
   1  -7   1   -0.08    0.16
  -2   8  -1   25.10    2.42
  -2   8  -1   24.65    2.19
   2  -8   1   24.99    2.29
   2  -8   1   25.74    2.24
  -3   9  -1    9.19    1.14
  -3   9  -1    8.59    0.96
   3  -9   1    8.96    0.95
   3  -9   1    9.70    1.09
  -4  10  -1   41.17    3.61
   4 -10  -1   34.71    3.61
  -4  10  -1   42.29    3.37
   4 -10  -1   33.47    3.35
  -4  10   1   33.59    3.38
   4 -10   1   40.00    3.30
   4 -10   1   42.53    3.45
   5 -11  -1    0.99    0.41
   5 -11  -1    1.55    0.64
  -5  11  -1    0.57    0.45
  -5  11  -1    0.37    0.28
   5 -11   1    0.62    0.25
  -5  11   1    1.26    0.47
   5 -11   1    0.97    0.44
  -6  12  -1    4.54    0.78
  -6  12  -1    4.50    0.93
   6 -12   1    5.08    0.90
   6 -12   1    4.77    0.64
   7 -13  -1   16.62    2.11
  -7  13  -1   23.97    2.26
   7 -13  -1   16.21    1.92
  -7  13   1   16.95    1.95
  -8  14  -1   23.02    2.57
   8 -14  -1   31.65    2.77
  -8  14  -1   21.83    2.74
  -8  14   1   31.71    2.76
   8 -14   1   24.49    2.66
  -9  15  -1    9.47    1.53
  -9  15  -1    8.66    1.31
 -10  16  -1    1.19    0.67
 -10  16  -1    0.38    0.59
  10 -16  -1    1.05    0.58
 -10  16   1    1.38    0.70
  10 -16   1    1.36    0.65
 -10  16   1    0.68    0.58
 -11  17  -1    3.03    1.02
  11 -17  -1    3.97    0.99
  11 -17   1    3.09    0.85
 -11  17   1    4.97    1.17
 -11  17   1    5.08    1.14
  13 -19  -1    5.59    1.29
 -13  19  -1    9.92    1.61
  13 -19   1    7.49    1.44
 -13  19   1    5.93    1.37
 -13  19   1    6.71    1.37
 -18  12  -2    8.64    1.60
  18 -12  -2    9.14    1.57
  18 -12   2    9.07    1.53
 -18  12   2    9.97    1.84
  17 -11  -2    0.80    0.46
 -17  11  -2    0.46    0.44
  17 -11   2    0.63    0.45
 -17  11   2    1.57    0.74
  16 -10  -2    0.92    0.52
 -16  10  -2    0.94    0.64
  16 -10   2    0.42    0.44
 -16  10   2    0.45    0.56
  15  -9  -2   76.81    6.85
  15  -9  -2   83.03    7.02
 -15   9  -2   76.84    7.06
  15  -9   2   75.41    6.78
  15  -9   2   76.03    6.71
 -15   9   2   81.82    7.19
  14  -8  -2    0.52    0.45
  14  -8  -2    0.23    0.43
 -14   8  -2    0.29    0.52
 -14   8   2    0.56    0.58
  14  -8   2    0.06    0.33
  14  -8   2    0.90    0.43
 -13   7  -2    0.19    0.47
 -13   7  -2    0.12    0.37
  13  -7  -2    0.26    0.41
  13  -7  -2    0.12    0.35
  13  -7   2    0.19    0.37
  13  -7   2   -0.14    0.29
 -13   7   2   -0.14    0.48
  12  -6  -2    0.40    0.37
 -12   6  -2    0.22    0.32
  12  -6  -2    0.23    0.33
 -12   6  -2    0.26    0.39
 -12   6   2    0.35    0.49
  12  -6   2    0.56    0.34
  12  -6   2    0.41    0.37
  11  -5  -2    0.08    0.31
 -11   5  -2   -0.15    0.36
 -11   5  -2   -0.09    0.16
  11  -5  -2    0.13    0.30
 -11   5   2   -0.02    0.31
 -11   5   2    0.14    0.20
  11  -5   2    0.04    0.24
  11  -5   2    0.21    0.31
  10  -4  -2    0.01    0.24
  10  -4  -2    0.27    0.30
 -10   4  -2    0.10    0.33
 -10   4  -2    0.13    0.18
  10  -4   2    0.08    0.24
  10  -4   2    0.17    0.24
 -10   4   2    0.04    0.17
 -10   4   2   -0.02    0.28
   9  -3  -2   38.30    3.43
  -9   3  -2   37.53    3.40
  -9   3  -2   42.34    3.61
   9  -3  -2   39.32    3.52
  -9   3   2   36.97    3.33
   9  -3   2   39.37    3.46
   9  -3   2   39.94    3.37
  -9   3   2   38.49    3.57
   8  -2  -2    0.46    0.28
  -8   2  -2   -0.05    0.13
   8  -2  -2    0.43    0.23
  -8   2  -2    0.01    0.25
   8  -2   2    0.11    0.23
   8  -2   2    0.17    0.13
  -8   2   2    0.33    0.32
  -8   2   2    0.20    0.20
  -7   1  -2   19.60    1.82
   7  -1  -2   17.62    1.75
  -7   1  -2   18.05    1.68
   7  -1  -2   17.35    1.69
   7  -1   2   19.10    1.76
  -7   1   2   16.29    1.75
   7  -1   2   19.39    1.64
  -7   1   2   16.98    1.68
   6   0  -2  685.17   57.40
  -6   0  -2  744.57   56.38
   6   0  -2  627.46   55.28
  -6   0  -2  713.97   57.35
  -6   0   2  704.29   56.33
   6   0   2  688.65   56.04
  -6   0   2  715.27   56.05
   6   0   2  751.43   55.23
   5   1  -2    2.34    0.46
  -5  -1  -2    3.90    0.58
  -5  -1  -2    3.54    0.53
   5   1   2    3.69    0.53
   5   1   2    3.88    0.41
  -4  -2  -2   -0.09    0.15
   4   2  -2    0.25    0.22
   4   2  -2    0.12    0.17
  -4  -2  -2    0.09    0.21
   4   2   2    0.01    0.15
   4   2   2    0.00    0.12
  -4  -2   2    0.15    0.21
  -4  -2   2    0.23    0.21
   3   3  -2   25.59    2.14
  -3  -3  -2   24.73    2.26
  -3  -3  -2   24.46    2.27
   3   3  -2   23.47    2.26
   3   3   2   23.40    2.19
  -3  -3   2   27.07    2.30
  -3  -3   2   25.82    2.15
  -2  -4  -2   15.08    1.55
  -2  -4  -2   13.76    1.51
  -2  -4  -2   14.79    1.37
   2   4  -2   17.23    1.58
  -2  -4   2   16.81    1.44
  -2  -4   2   17.47    1.56
   2   4   2   14.69    1.44
  -2  -4   2   16.50    1.40
  -1  -5  -2    0.46    0.27
  -1  -5  -2    0.52    0.22
  -1  -5  -2    0.81    0.33
   1   5   2    0.38    0.17
   0   6  -2   81.72    6.78
   0  -6  -2   79.29    6.36
   0   6  -2   80.18    6.38
   0  -6  -2   75.68    6.56
   0  -6  -2   76.00    6.75
   0   6   2   72.77    6.37
   0  -6   2   84.14    6.43
   0  -6   2   78.82    6.54
   1  -7  -2    1.90    0.54
   1  -7  -2    1.25    0.30
  -1   7  -2    1.19    0.25
  -1   7  -2    1.37    0.48
   1  -7   2    1.49    0.36
  -1   7   2    1.26    0.26
   1  -7   2    1.41    0.41
  -1   7   2    0.75    0.34
   2  -8  -2    2.37    0.46
  -2   8  -2    2.70    0.38
  -2   8  -2    2.39    0.62
   2  -8  -2    2.30    0.62
  -2   8   2    2.39    0.34
  -2   8   2    2.48    0.53
   2  -8   2    2.36    0.51
   2  -8   2    2.68    0.50
  -3   9  -2  106.55    9.16
   3  -9  -2  100.58    9.16
   3  -9  -2  104.23    8.70
  -3   9  -2  105.96    8.71
   3  -9   2  111.43    8.74
   3  -9   2  111.22    8.84
  -3   9   2  101.68    8.87
  -3   9   2  110.39    8.55
  -4  10  -2    4.64    0.59
  -4  10  -2    5.57    0.96
   4 -10  -2    5.99    1.06
   4 -10  -2    3.70    0.71
   4 -10   2    4.28    0.76
   4 -10   2    4.39    0.74
  -4  10   2    5.42    0.81
   5 -11  -2    0.31    0.31
   5 -11  -2    0.49    0.47
  -5  11  -2    0.88    0.31
  -5  11  -2    1.05    0.54
   5 -11   2    0.89    0.38
   5 -11   2    1.63    0.53
  -5  11   2   -0.14    0.28
  -6  12  -2    0.43    0.50
   6 -12  -2    0.13    0.45
  -6  12  -2    0.66    0.37
   6 -12  -2    0.17    0.30
   6 -12   2    0.15    0.35
  -6  12   2   -0.16    0.34
   6 -12   2    0.52    0.34
   7 -13  -2    1.44    0.69
  -7  13  -2    0.93    0.67
  -7  13  -2    1.04    0.49
   7 -13  -2    1.38    0.55
   7 -13   2    1.23    0.52
   7 -13   2    1.12    0.45
  -7  13   2    1.32    0.56
   8 -14  -2   -0.15    0.33
  -8  14  -2    0.07    0.55
   8 -14  -2    0.72    0.58
   8 -14   2    0.64    0.41
   8 -14   2    0.21    0.36
  -8  14   2    0.20    0.47
  -9  15  -2   17.37    2.31
   9 -15  -2   18.89    2.33
   9 -15  -2   19.03    2.13
   9 -15   2   19.04    2.13
  -9  15   2   19.05    2.22
  10 -16  -2    0.77    0.51
 -10  16  -2    0.41    0.63
  10 -16  -2    0.92    0.61
  10 -16   2    0.95    0.55
 -10  16   2    2.32    0.78
  11 -17  -2    0.13    0.24
 -11  17  -2    0.08    0.42
  11 -17   2    0.37    0.33
 -11  17   2    0.72    0.56
  12 -18  -2   21.38    2.45
 -12  18  -2   20.93    2.54
 -12  18   2   19.51    2.47
  12 -18   2   19.46    2.36
 -12  18   2   21.51    2.59
 -18  12  -3    6.40    1.36
 -18  12   3    2.32    1.18
  18 -12   3    6.51    1.21
 -17  11  -3    0.97    0.48
  17 -11  -3    0.92    0.43
 -17  11   3    0.87    0.63
  17 -11   3    0.03    0.39
 -16  10  -3   14.50    2.06
  16 -10   3   18.58    2.05
  16 -10   3   17.45    2.04
 -15   9  -3   10.42    1.69
  15  -9   3   13.48    1.64
  15  -9   3   13.73    1.67
  14  -8  -3   15.30    1.89
  14  -8  -3   14.75    1.86
 -14   8   3   17.70    2.10
  13  -7  -3    0.43    0.41
  13  -7  -3    0.44    0.48
 -13   7  -3   -0.01    0.42
  13  -7   3    0.41    0.38
  13  -7   3    0.65    0.47
 -13   7   3    0.17    0.50
 -12   6  -3    0.85    0.53
 -12   6  -3    1.54    0.52
  12  -6  -3    1.07    0.53
  12  -6  -3    0.58    0.50
  12  -6   3    1.63    0.58
 -12   6   3    0.57    0.53
  12  -6   3    1.52    0.51
 -11   5  -3    6.56    1.12
 -11   5  -3    6.71    0.92
  11  -5   3    6.07    0.94
  11  -5   3    6.40    0.87
 -10   4  -3   18.07    1.94
 -10   4  -3   15.57    1.74
  10  -4   3   17.02    1.67
  10  -4   3   18.22    1.86
   9  -3  -3    2.78    0.61
   9  -3  -3    3.52    0.72
  -9   3   3    2.58    0.68
  -9   3   3    3.19    0.54
   8  -2  -3    2.26    0.51
  -8   2  -3    0.47    0.28
   8  -2  -3    2.29    0.59
  -8   2  -3    1.24    0.49
   8  -2   3    0.73    0.36
   8  -2   3    0.94    0.26
  -8   2   3    1.98    0.56
  -8   2   3    2.41    0.47
  -7   1  -3   37.51    3.33
  -7   1  -3   36.96    3.38
   7  -1   3   37.52    3.04
   7  -1   3   34.09    3.27
   6   0  -3  309.75   24.39
   6   0  -3  265.44   23.30
  -6   0   3  298.00   23.84
  -6   0   3  307.60   23.73
   5   1  -3  113.33    9.34
   5   1  -3  115.15    9.83
  -5  -1   3  120.19    9.60
  -5  -1   3  116.47    9.57
   4   2  -3    5.44    0.80
   4   2  -3    5.10    0.60
  -4  -2   3    4.68    0.76
  -4  -2   3    5.30    0.65
   3   3  -3    4.85    0.56
   3   3  -3    4.78    0.74
  -3  -3   3    4.36    0.57
  -3  -3   3    4.70    0.76
  -1  -5  -3  119.25    9.49
  -1  -5  -3  106.90    9.62
  -1  -5  -3  115.15    9.04
   1   5   3  112.90    9.27
   0  -6  -3    3.15    0.43
   0   6  -3    2.55    0.64
   0   6  -3    2.78    0.45
   0  -6  -3    3.48    0.67
   0  -6  -3    2.92    0.69
   0   6   3    2.72    0.47
   0  -6   3    3.02    0.63
   0  -6   3    2.86    0.46
  -1   7  -3    2.02    0.63
  -1   7  -3    1.66    0.32
   1  -7   3    1.11    0.46
   1  -7   3    1.63    0.37
  -2   8  -3    7.56    0.83
  -2   8  -3    9.95    1.23
   2  -8   3    7.68    1.05
   2  -8   3    7.10    0.92
   3  -9  -3    5.30    1.13
  -3   9  -3    7.81    1.26
  -3   9  -3    8.44    0.85
   3  -9   3    8.70    1.09
   3  -9   3    7.47    0.96
  -4  10  -3   43.74    4.13
  -4  10  -3   41.80    3.64
   4 -10   3   42.24    3.72
   4 -10   3   41.60    3.84
  -5  11  -3   16.19    1.92
   5 -11   3   14.83    1.67
   5 -11   3   14.84    1.71
   6 -12  -3    3.03    0.74
   6 -12  -3    3.00    0.97
  -6  12  -3    5.51    1.13
   6 -12   3    6.42    0.95
  -6  12   3    3.85    0.93
   6 -12   3    6.48    0.98
  -7  13  -3   23.94    2.69
   7 -13   3   22.40    2.42
   7 -13   3   25.19    2.45
   8 -14  -3   19.10    2.42
   8 -14  -3   22.60    2.25
  -8  14   3   18.41    2.23
   9 -15  -3    1.45    0.71
   9 -15  -3    1.74    0.66
  -9  15  -3    0.70    0.64
  -9  15   3    1.64    0.70
   9 -15   3    0.60    0.52
   9 -15   3    0.04    0.37
  10 -16  -3    0.67    0.46
 -10  16  -3    1.76    0.76
  10 -16  -3    1.34    0.53
 -10  16   3    0.18    0.41
  10 -16   3    2.30    0.72
  11 -17  -3    7.83    1.57
  11 -17  -3    8.17    1.38
 -11  17   3    8.95    1.55
  12 -18  -3    8.66    1.72
  12 -18  -3    7.77    1.41
 -12  18   3    7.84    1.54
  17 -11  -4    5.09    1.14
  16 -10  -4    1.95    0.65
 -16  10  -4    1.20    0.59
  16 -10  -4    2.29    0.83
  16 -10   4    1.36    0.55
 -16  10   4    2.47    0.89
  15  -9  -4   14.71    1.88
 -15   9  -4   17.95    2.10
  15  -9  -4   13.91    1.96
  15  -9   4   17.75    1.97
 -15   9   4   13.99    1.98
  14  -8  -4    0.65    0.56
  14  -8  -4    0.74    0.54
 -14   8  -4    1.51    0.74
 -14   8   4    0.75    0.52
  14  -8   4    0.76    0.54
  13  -7  -4    0.33    0.49
  13  -7  -4   -0.19    0.33
 -13   7  -4    0.11    0.41
  13  -7   4    0.26    0.40
 -13   7   4    0.12    0.48
 -12   6  -4   52.61    4.85
 -12   6  -4   53.19    4.76
  12  -6  -4   50.68    4.63
  12  -6  -4   50.14    4.88
 -12   6   4   51.88    4.89
  12  -6   4   48.82    4.72
  11  -5  -4   14.36    1.79
  11  -5  -4   14.21    1.61
 -11   5   4   12.80    1.77
 -10   4  -4   10.25    1.42
 -10   4  -4   10.50    1.31
  10  -4   4   10.11    1.33
   9  -3  -4    7.14    1.10
  -9   3  -4    7.46    1.18
  -9   3  -4    6.13    1.05
   9  -3  -4    6.77    0.93
  -9   3   4    7.81    1.03
   9  -3   4    5.70    1.04
  -9   3   4    7.55    1.19
  -8   2  -4    2.08    0.60
   8  -2  -4    3.08    0.59
   8  -2  -4    2.40    0.74
  -8   2  -4    1.43    0.59
   8  -2   4    1.78    0.58
  -8   2   4    2.80    0.63
  -8   2   4    1.77    0.60
  -7   1  -4    6.07    1.05
  -7   1  -4    5.68    0.90
   7  -1   4    6.18    0.99
   6   0  -4    5.26    0.99
   6   0  -4    4.78    0.65
  -6   0   4    5.09    0.85
  -6   0   4    5.70    0.88
   5   1  -4    4.15    0.50
   5   1  -4    4.32    0.87
  -5  -1  -4    2.37    0.68
  -5  -1  -4    2.66    0.71
  -5  -1   4    5.07    0.83
   5   1   4    2.40    0.65
  -5  -1   4    4.44    0.71
   4   2  -4    0.15    0.12
  -4  -2  -4    0.20    0.34
  -4  -2  -4    0.19    0.36
   4   2  -4    0.26    0.39
  -4  -2   4   -0.05    0.32
  -4  -2   4    0.04    0.25
   4   2   4    0.66    0.39
   3   3  -4   22.43    1.95
   3   3  -4   21.04    2.31
  -3  -3  -4   24.46    2.34
  -3  -3  -4   22.72    2.27
  -3  -3   4   20.84    2.23
   3   3   4   22.00    2.16
  -3  -3   4   20.93    2.08
  -2  -4  -4    1.13    0.50
   2   4  -4    1.13    0.52
  -2  -4  -4    0.96    0.49
   2   4  -4    1.70    0.31
   2   4   4    1.07    0.41
  -2  -4   4    1.76    0.60
  -2  -4   4    1.83    0.42
   1   5  -4    6.07    0.81
   1   5  -4    7.00    0.72
   1   5  -4    6.74    1.12
  -1  -5   4    6.25    1.03
   0   6  -4   14.58    1.49
   0  -6  -4   15.25    1.78
   0   6  -4   14.02    1.77
   0  -6   4   14.96    1.41
   0   6   4   15.73    1.58
   0  -6   4   15.33    1.73
  -1   7  -4    1.75    0.64
   1  -7  -4    0.88    0.51
  -1   7  -4    1.62    0.40
  -1   7   4    0.77    0.36
  -1   7   4    1.09    0.51
   1  -7   4    1.76    0.36
   1  -7   4    1.30    0.56
  -2   8  -4    1.48    0.39
   2  -8  -4    0.25    0.50
  -2   8  -4    0.84    0.56
   2  -8   4    1.81    0.61
  -2   8   4    0.62    0.44
   2  -8   4    1.24    0.36
  -2   8   4    0.41    0.28
   3  -9  -4   67.05    5.56
  -3   9  -4   63.08    6.07
   3  -9  -4   66.84    6.17
   3  -9   4   67.15    5.59
  -3   9   4   65.53    5.91
   3  -9   4   68.28    5.90
   4 -10  -4    1.33    0.44
   4 -10  -4    1.05    0.63
  -4  10  -4    0.12    0.51
   4 -10   4    0.23    0.34
  -4  10   4    1.72    0.63
   4 -10   4    0.06    0.37
   5 -11  -4    1.37    0.65
   5 -11  -4    0.27    0.32
  -5  11  -4    0.24    0.56
   5 -11   4    0.18    0.40
  -5  11   4    1.10    0.58
   5 -11   4    0.09    0.33
   6 -12  -4   15.72    1.82
   6 -12  -4   14.25    2.04
  -6  12  -4   20.45    2.27
  -6  12   4   15.71    2.01
   6 -12   4   15.96    1.96
   6 -12   4   19.14    1.87
   7 -13  -4    1.72    0.63
   7 -13  -4    1.47    0.82
  -7  13  -4    1.07    0.72
  -7  13   4    2.24    0.82
   7 -13   4    1.19    0.62
   7 -13   4    1.59    0.58
   8 -14  -4    4.41    1.22
   8 -14  -4    4.84    1.00
  -8  14  -4    6.97    1.40
   8 -14   4    6.14    1.17
  -8  14   4    4.64    1.15
   9 -15  -4  103.21    9.48
  -9  15  -4  104.97    9.42
   9 -15  -4  103.96    8.87
   9 -15   4  104.16    9.03
  -9  15   4  101.80    9.15
  10 -16  -4    4.49    0.96
 -10  16  -4    2.29    0.85
  10 -16  -4    3.68    1.07
 -10  16   4    4.18    1.09
  15  -9  -5    2.45    0.80
 -15   9   5    4.77    1.26
  14  -8  -5    7.97    1.47
 -14   8   5    4.82    1.26
  13  -7  -5    0.93    0.59
 -13   7  -5    1.74    0.67
  13  -7   5    2.35    0.71
 -13   7   5    0.02    0.38
 -12   6  -5    1.75    0.74
  12  -6  -5    0.04    0.41
 -12   6   5    0.34    0.39
  12  -6   5    1.05    0.44
  11  -5  -5   69.29    6.34
 -11   5   5   64.85    6.11
 -10   4  -5   78.25    6.75
  10  -4   5   70.71    6.62
  -9   3  -5    1.08    0.59
  -9   3  -5    0.70    0.49
   9  -3  -5    0.32    0.45
  -9   3   5    0.41    0.48
   9  -3   5    0.88    0.51
   8  -2  -5    2.24    0.80
  -8   2   5    2.40    0.70
  -8   2   5    2.42    0.76
   7  -1  -5   11.31    1.52
  -7   1   5    9.32    1.33
  -7   1   5   10.13    1.33
  -6   0  -5   66.53    5.16
   6   0  -5   48.85    5.14
  -6   0  -5   63.35    5.23
  -6   0   5   46.24    4.90
  -5  -1  -5    0.69    0.50
   5   1  -5    1.94    0.70
  -5  -1  -5    0.83    0.49
   5   1   5    0.65    0.45
  -5  -1   5    2.57    0.64
  -5  -1   5    2.46    0.71
  -4  -2  -5    0.04    0.36
   4   2  -5    0.22    0.42
  -4  -2  -5   -0.18    0.33
  -4  -2   5    0.20    0.39
  -4  -2   5    0.25    0.33
   4   2   5   -0.03    0.34
  -3  -3  -5    1.81    0.68
  -3  -3  -5    0.65    0.44
   3   3  -5    0.46    0.44
   3   3   5    1.03    0.49
  -3  -3   5    0.14    0.31
  -3  -3   5   -0.39    0.31
   0  -6  -5    1.05    0.59
   0   6  -5    0.59    0.53
   0   6  -5    0.62    0.42
   0   6   5    0.47    0.42
   0  -6   5    0.64    0.57
   0   6   5    0.28    0.41
  -1   7  -5    0.11    0.47
   1  -7  -5    0.20    0.45
  -1   7   5    0.00    0.35
  -1   7   5    0.04    0.36
   1  -7   5    0.40    0.49
  -3   9  -5    2.37    0.85
   3  -9  -5    2.00    0.85
  -3   9   5    1.45    0.67
   3  -9   5    2.01    0.78
   4 -10  -5    6.18    1.41
  -4  10   5    6.99    1.30
  -5  11  -5    3.47    1.03
   5 -11  -5    2.95    1.01
   5 -11   5    2.38    0.85
  -5  11   5    3.18    0.93
   6 -12  -5    2.77    0.90
  -6  12   5    2.57    0.85
   8 -14  -5   29.05    3.51
  -8  14   5   32.85    3.48
  -9  15  -5    3.04    1.00
   9 -15  -5    0.88    0.82
   9 -15   5    2.87    0.84
  -9  15   5    0.88    0.76
  12  -6  -6    0.00    0.34
 -12   6  -6    0.15    0.30
 -12   6   6    0.45    0.40
  12  -6   6    0.31    0.28
  11  -5  -6   -0.13    0.28
 -11   5  -6    0.19    0.32
 -11   5  -6   -0.22    0.22
  11  -5   6   -0.03    0.25
 -11   5   6    0.12    0.32
  10  -4  -6    0.23    0.41
 -10   4  -6    0.40    0.43
 -10   4  -6    0.00    0.28
  10  -4   6    0.20    0.28
 -10   4   6    0.42    0.43
  -9   3  -6    5.85    1.19
   9  -3  -6    5.56    1.24
  -9   3  -6    6.27    1.27
  -9   3   6    5.28    1.19
   9  -3   6    6.35    1.24
  -8   2  -6    0.05    0.45
  -8   2  -6   -0.04    0.35
   8  -2  -6    0.69    0.49
  -8   2   6    0.55    0.56
   8  -2   6   -0.10    0.25
   7  -1  -6   16.40    2.19
  -7   1   6   17.79    2.06
  -7   1   6   19.28    2.15
  -6   0  -6   88.35    7.00
   6   0  -6   64.78    6.97
  -6   0  -6   87.64    7.13
   6   0   6   80.84    6.89
  -6   0   6   68.32    6.75
  -6   0   6   72.86    6.78
  -5  -1  -6    9.79    1.50
  -4  -2  -6    0.13    0.41
  -4  -2  -6    0.15    0.47
   4   2  -6    0.83    0.59
  -4  -2   6    0.54    0.47
   4   2   6    0.14    0.36
  -4  -2   6    0.58    0.54
  -3  -3  -6    3.15    0.98
   3   3  -6    3.11    0.96
  -3  -3  -6    3.33    0.93
   3   3   6    3.88    0.93
  -3  -3   6    4.14    1.01
  -3  -3   6    4.54    0.88
  -2  -4  -6   17.01    2.05
  -2  -4  -6   13.98    1.89
   2   4   6   13.87    1.78
   0  -6  -6   15.16    2.05
   0   6  -6   15.48    2.09
   0   6   6   16.06    1.97
   0  -6   6   15.57    2.00
   0   6   6   15.28    1.82
  -1   7  -6    1.10    0.63
   1  -7  -6    0.22    0.46
   1  -7   6    1.44    0.65
  -1   7   6    0.26    0.37
   2  -8  -6    3.09    0.98
  -2   8  -6    6.75    1.36
  -2   8   6    2.80    0.83
   2  -8   6    4.87    1.15
   3  -9  -6   15.83    2.25
  -3   9  -6   16.09    2.18
   3  -9   6   18.74    2.21
  -3   9   6   16.72    2.11
  -4  10  -6    7.18    1.51
   4 -10  -6    9.18    1.74
   4 -10   6    7.34    1.42
  -4  10   6    7.37    1.43
  -5  11  -6    3.80    1.13
   5 -11   6    4.89    1.16
  -6  12  -6    0.32    0.40
   6 -12  -6    0.11    0.57
   6 -12   6    0.38    0.39
  -6  12   6    0.14    0.49
   8  -2  -7    0.82    0.68
  -8   2  -7    0.02    0.26
  -8   2  -7    0.44    0.31
   8  -2   7    0.17    0.48
  -8   2   7    0.50    0.34
  -7   1  -7   14.72    1.95
  -7   1  -7   16.81    2.12
   7  -1   7   16.23    2.10
  -6   0  -7    9.45    1.50
   6   0  -7   14.35    1.87
  -6   0  -7    9.80    1.49
   6   0   7    8.41    1.58
  -6   0   7   14.16    1.72
   5   1  -7   42.21    4.60
  -5  -1   7   46.79    4.38
  -5  -1   7   45.27    4.47
  -4  -2  -7    3.78    1.07
  -4  -2  -7    4.37    1.08
   4   2   7    5.78    1.15
  -3  -3  -7    0.06    0.28
   3   3  -7    0.06    0.34
  -3  -3   7    0.29    0.37
   3   3   7    0.45    0.34
  -1  -5  -7   33.47    3.88
   1   5   7   41.22    3.78
   1   5   7   35.74    3.78
   0   6  -7    0.21    0.41
   0  -6  -7    0.90    0.49
   0  -6   7    0.23    0.42
   0   6   7    0.54    0.42
  -1   7  -7    0.31    0.48
   1  -7  -7    0.33    0.44
  -1   7   7   -0.15    0.25
   1  -7   7    0.98    0.69
   2  -8  -7    8.46    1.79
  -2   8   7    7.14    1.47
 -20  12   0   -0.38    0.45
  20 -12   0   -0.16    0.41
 -19  11   0    0.49    0.44
  19 -11   0    0.12    0.28
 -18  10   0  168.35   14.32
  18 -10   0  166.47   14.01
  17  -9   0   -0.07    0.33
 -17   9   0   -0.19    0.43
  16  -8   0   -0.16    0.29
 -16   8   0    0.62    0.52
 -15   7   0   11.28    1.63
  15  -7   0   12.97    1.59
  14  -6   0   -0.01    0.20
 -14   6   0   -0.06    0.39
  14  -6   0    0.02    0.35
  13  -5   0    0.39    0.22
 -13   5   0    0.07    0.14
  13  -5   0   -0.15    0.27
 -13   5   0    0.45    0.47
 -12   4   0  194.81   15.56
 -12   4   0  195.74   15.34
  12  -4   0  183.78   15.26
 -12   4   0  179.90   15.56
 -11   3   0    0.03    0.17
 -11   3   0   -0.03    0.32
 -11   3   0   -0.16    0.17
  11  -3   0   -0.18    0.23
 -10   2   0    0.18    0.31
 -10   2   0    0.00    0.16
 -10   2   0    0.05    0.20
  10  -2   0    0.08    0.22
  -9   1   0   85.59    6.85
  -9   1   0   75.72    6.89
  -9   1   0   84.99    6.77
   9  -1   0   81.24    6.75
  -8   0   0    0.11    0.26
   8   0   0    0.00    0.20
  -8   0   0    0.01    0.21
   7   1   0   -0.06    0.18
  -7  -1   0    0.10    0.21
  -7  -1   0    0.01    0.18
  -6  -2   0    0.22    0.25
   6   2   0    0.61    0.26
  -5  -3   0    0.10    0.23
   5   3   0   -0.06    0.12
  -5  -3   0   -0.07    0.16
   5   3   0    0.02    0.13
  -4  -4   0    0.03    0.15
  -4  -4   0   -0.02    0.19
  -4  -4   0    0.08    0.17
   4   4   0    0.00    0.15
  -3  -5   0    1.36    0.35
  -3  -5   0    1.58    0.28
  -3  -5   0    1.77    0.34
   3   5   0    1.57    0.33
  -2  -6   0   -0.05    0.15
   2   6   0   -0.12    0.15
  -2  -6   0    0.01    0.18
  -2  -6   0   -0.04    0.20
  -1  -7   0    0.16    0.15
  -1  -7   0    0.13    0.18
   1   7   0   -0.02    0.12
   1   7   0    0.11    0.21
   0  -8   0   25.81    2.29
   0   8   0   26.70    2.49
   0   8   0   25.85    2.24
   0  -8   0   26.61    2.35
  -1   9   0   -0.14    0.15
   1  -9   0   -0.15    0.16
   1  -9   0   -0.11    0.17
  -1   9   0   -0.07    0.28
   2 -10   0    0.04    0.23
  -2  10   0    0.08    0.16
   2 -10   0   -0.16    0.16
  -2  10   0   -0.17    0.25
   3 -11   0   39.45    3.30
   3 -11   0   38.63    3.46
  -3  11   0   39.42    3.39
  -3  11   0   35.89    3.65
   4 -12   0   -0.11    0.15
  -4  12   0    0.17    0.39
  -4  12   0   -0.09    0.20
   4 -12   0   -0.28    0.21
  -5  13   0    0.39    0.43
  -5  13   0    0.08    0.32
   5 -13   0   -0.18    0.27
   6 -14   0   60.16    5.30
  -6  14   0   55.86    5.52
  -6  14   0   63.06    5.31
  -7  15   0   -0.02    0.49
  -7  15   0    0.03    0.42
   7 -15   0    0.04    0.35
  -8  16   0   -0.19    0.38
  -8  16   0    0.35    0.49
   8 -16   0   -0.19    0.31
  -9  17   0    0.39    0.54
  -9  17   0   -0.23    0.45
   9 -17   0    0.32    0.41
  10 -18   0    0.26    0.27
 -10  18   0   -0.15    0.33
  11 -19   0    0.31    0.33
 -11  19   0   -0.03    0.33
 -12  20   0    0.61    0.47
  12 -20   0    0.38    0.54
 -20  12  -1    0.74    0.61
  20 -12  -1    0.37    0.52
  20 -12   1    0.23    0.46
 -20  12   1    1.08    0.80
  19 -11  -1    3.31    0.92
 -19  11  -1    4.54    1.14
 -19  11   1    2.64    0.96
  19 -11   1    3.37    0.88
 -17   9  -1   14.28    1.96
 -17   9   1   20.02    2.26
  17  -9   1   14.03    1.87
 -16   8  -1    9.12    1.36
  16  -8  -1    7.86    1.38
  16  -8   1   10.69    1.37
 -16   8   1    7.24    1.52
 -15   7  -1   -0.20    0.40
  15  -7  -1   -0.04    0.40
  15  -7   1    0.08    0.28
  15  -7   1    0.13    0.33
 -15   7   1    0.27    0.50
  14  -6  -1    6.02    1.01
 -14   6  -1    4.15    0.98
  14  -6  -1    7.35    0.91
  14  -6   1    4.64    0.94
 -14   6   1    7.60    1.24
  14  -6   1    4.35    0.81
 -13   5  -1   34.16    3.15
  13  -5  -1   27.96    2.97
  13  -5  -1   28.69    2.90
  13  -5   1   37.38    2.95
 -13   5   1   30.61    2.84
 -13   5   1   27.54    3.09
  13  -5   1   36.33    3.06
  12  -4  -1   14.83    1.49
  12  -4  -1   13.73    1.62
 -12   4   1   14.62    1.48
 -12   4   1   15.67    1.77
 -11   3  -1    7.60    1.15
  11  -3  -1   12.10    1.23
 -11   3  -1    8.99    0.95
 -11   3   1   12.42    1.35
  11  -3   1    8.09    1.09
  11  -3   1    8.58    1.06
 -10   2  -1    3.79    0.76
  10  -2  -1    2.63    0.58
 -10   2  -1    3.41    0.45
  10  -2  -1    2.37    0.44
  10  -2   1    3.35    0.56
  10  -2   1    3.74    0.61
 -10   2   1    2.89    0.68
 -10   2   1    2.39    0.49
  -8   0  -1   41.76    4.11
   8   0  -1   55.08    4.07
  -8   0  -1   44.14    4.18
  -8   0  -1   41.52    3.98
  -8   0   1   58.49    4.15
  -8   0   1   57.89    4.22
   8   0   1   39.71    3.96
   7   1  -1   48.36    4.39
   7   1  -1   48.05    4.42
  -7  -1  -1   61.82    4.38
  -7  -1   1   46.27    4.44
   7   1   1   64.74    4.41
  -7  -1   1   46.02    4.42
   6   2  -1    0.58    0.22
  -6  -2  -1    1.06    0.24
  -6  -2  -1    1.03    0.31
   6   2  -1    0.38    0.23
  -6  -2  -1    0.77    0.31
  -6  -2   1    0.58    0.29
   6   2   1    0.68    0.24
  -6  -2   1    0.38    0.26
  -5  -3  -1   13.14    1.44
   5   3  -1   16.13    1.37
   5   3  -1   16.89    1.40
  -5  -3  -1   12.18    1.33
   5   3   1   12.08    1.30
  -5  -3   1   16.94    1.46
  -5  -3   1   17.10    1.39
  -4  -4  -1   60.09    4.65
  -4  -4  -1   61.45    4.80
  -4  -4  -1   58.76    4.75
  -4  -4  -1   59.48    4.80
  -4  -4   1   44.60    4.74
  -3  -5  -1  533.63   40.84
  -3  -5  -1  477.46   41.62
  -3  -5  -1  486.94   40.66
  -3  -5  -1  540.80   40.11
  -2  -6  -1   36.04    3.36
  -2  -6  -1   36.76    3.41
  -2  -6  -1   39.05    3.56
  -2  -6  -1   35.90    3.40
  -2  -6   1   49.13    3.52
  -2  -6   1   46.12    3.43
  -1  -7  -1   -0.09    0.15
  -1  -7  -1    0.05    0.16
   1   7  -1    0.05    0.24
  -1  -7  -1    0.06    0.20
  -1  -7  -1    0.16    0.23
  -1  -7   1    0.09    0.19
  -1  -7   1   -0.05    0.20
   0  -8  -1    7.52    0.81
   0  -8  -1    7.01    0.85
   0   8  -1    7.54    0.70
   0   8  -1    8.02    1.00
   0  -8  -1    7.73    0.99
   0  -8   1    6.53    0.85
   0  -8   1    7.31    0.86
   0   8   1    7.29    0.81
  -1   9  -1   79.74    5.35
   1  -9  -1   58.76    5.68
   1  -9  -1   60.29    5.30
   1  -9  -1   58.21    5.37
  -2  10  -1   42.11    3.95
   2 -10  -1   58.68    4.15
  -2  10  -1   41.31    4.23
   2 -10   1   41.31    4.04
  -2  10   1   58.19    4.11
   2 -10   1   43.03    3.99
   3 -11  -1    0.22    0.39
   3 -11  -1    1.17    0.31
  -3  11  -1    2.14    0.61
   3 -11   1    2.72    0.45
  -3  11   1    0.31    0.31
   4 -12  -1    4.49    0.86
  -4  12  -1    6.24    0.78
   4 -12  -1    4.63    1.05
  -4  12  -1    7.05    1.10
  -4  12   1    4.35    0.81
   4 -12   1    7.01    0.77
   4 -12   1    7.29    0.97
  -5  13  -1   17.37    1.82
  -5  13  -1   17.13    2.07
   5 -13   1   18.94    2.00
   5 -13   1   19.40    1.79
  -6  14  -1    4.74    1.10
  -6  14  -1    5.03    0.92
   6 -14  -1    8.44    1.34
   6 -14  -1    8.06    1.12
  -6  14   1    7.47    1.08
   6 -14   1    4.77    0.99
   7 -15  -1   10.72    1.60
  -7  15  -1   15.96    1.93
  -7  15  -1   17.06    1.70
  -7  15   1   10.65    1.58
  -7  15   1   13.44    1.84
   7 -15   1   17.44    1.82
   8 -16  -1    0.46    0.40
  -8  16  -1    0.09    0.54
   8 -16   1    0.05    0.35
  -8  16   1    0.53    0.51
  -8  16   1    1.40    0.69
   9 -17  -1    5.76    1.23
  -9  17   1    9.56    1.45
  -9  17   1    7.99    1.53
  10 -18  -1   11.16    1.63
 -10  18  -1   16.69    2.02
 -10  18   1   11.38    1.69
  10 -18   1   15.87    1.84
 -10  18   1   10.26    1.70
 -11  19  -1    8.14    1.70
  11 -19  -1   13.06    1.68
  11 -19   1    9.24    1.63
 -11  19   1   11.93    1.67
 -11  19   1   13.23    1.80
  12 -20  -1   31.19    3.15
 -12  20  -1   23.99    3.07
  12 -20   1   21.11    2.90
 -12  20   1   35.05    3.41
  19 -11  -2   -0.08    0.27
 -19  11  -2    0.26    0.37
 -19  11   2   -0.16    0.60
  19 -11   2    0.82    0.41
 -18  10  -2    1.57    0.72
  18 -10  -2    3.27    0.86
  18 -10   2    1.67    0.62
 -18  10   2    2.21    0.84
 -17   9  -2    0.29    0.50
  17  -9  -2    0.32    0.34
 -17   9   2    0.44    0.53
  17  -9   2   -0.07    0.40
 -16   8  -2    1.05    0.59
  16  -8  -2    0.90    0.59
  16  -8   2    0.23    0.38
 -16   8   2    0.57    0.59
  16  -8   2    0.59    0.46
 -15   7  -2    4.37    1.11
  15  -7  -2    4.02    1.02
  15  -7  -2    4.44    0.90
  15  -7   2    5.04    0.95
  15  -7   2    4.81    0.87
 -15   7   2    4.63    1.14
 -14   6  -2    1.04    0.64
  14  -6  -2    0.32    0.43
  14  -6  -2    1.07    0.51
  14  -6   2    1.08    0.50
  14  -6   2    1.57    0.53
 -14   6   2    0.16    0.53
 -13   5  -2    1.80    0.72
  13  -5  -2    1.58    0.60
  13  -5  -2    1.71    0.53
  13  -5   2    1.49    0.51
 -13   5   2    1.80    0.73
  13  -5   2    1.28    0.52
 -12   4  -2   23.57    2.19
 -12   4  -2   21.79    2.48
  12  -4  -2   22.49    2.29
  12  -4  -2   24.50    2.41
  12  -4   2   24.65    2.32
  12  -4   2   23.60    2.34
 -12   4   2   23.65    2.18
 -12   4   2   25.96    2.56
  11  -3  -2    0.88    0.43
  11  -3  -2    0.79    0.34
 -11   3  -2    1.03    0.28
 -11   3  -2   -0.01    0.34
 -11   3   2    0.66    0.47
  11  -3   2    0.86    0.36
 -11   3   2    0.90    0.30
  11  -3   2    0.77    0.40
  10  -2  -2    0.13    0.15
  10  -2  -2    0.41    0.32
 -10   2  -2    0.15    0.32
 -10   2  -2    0.11    0.15
  10  -2   2    0.05    0.24
 -10   2   2    0.03    0.17
 -10   2   2    0.21    0.31
  10  -2   2    0.21    0.22
   9  -1  -2   95.40    8.15
  -9   1  -2   98.41    8.29
   9  -1  -2   93.81    8.37
  -9   1  -2  106.37    8.43
  -9   1   2   98.92    8.35
   9  -1   2  107.25    8.10
   9  -1   2   96.20    8.25
  -9   1   2  101.09    8.23
  -8   0  -2    2.90    0.44
  -8   0  -2    1.89    0.54
   8   0   2    2.28    0.52
   8   0   2    3.32    0.45
   7   1  -2   14.79    1.60
  -7  -1  -2   18.22    1.61
   7   1  -2   16.54    1.65
  -7  -1  -2   18.62    1.75
  -7  -1   2   14.79    1.62
   7   1   2   18.75    1.69
   7   1   2   18.84    1.53
  -7  -1   2   15.81    1.66
   6   2  -2   15.77    1.68
   6   2  -2   17.66    1.78
  -6  -2  -2   19.50    1.74
  -6  -2  -2   20.63    1.85
   6   2   2   18.48    1.77
   6   2   2   19.09    1.63
  -6  -2   2   19.22    1.82
  -6  -2   2   17.52    1.72
  -5  -3  -2    1.00    0.32
   5   3  -2    0.48    0.27
  -5  -3  -2    0.59    0.29
   5   3  -2    0.58    0.25
   5   3   2    0.87    0.30
   5   3   2    0.58    0.20
  -5  -3   2    0.90    0.36
  -5  -3   2    0.80    0.26
   4   4  -2    2.33    0.47
   4   4  -2    2.56    0.42
  -4  -4   2    2.63    0.53
  -4  -4   2    2.62    0.40
  -3  -5  -2  472.88   44.22
   3   5  -2  560.46   44.26
  -3  -5  -2  538.04   42.53
  -3  -5  -2  506.75   43.39
  -3  -5   2  561.43   42.60
  -3  -5   2  616.73   43.28
  -3  -5   2  593.62   43.26
   3   5   2  482.50   43.11
  -2  -6  -2   13.34    1.28
  -2  -6  -2   11.92    1.36
   2   6  -2   15.65    1.52
  -2  -6  -2   11.95    1.41
  -2  -6   2   13.43    1.17
  -2  -6   2   15.07    1.34
  -2  -6   2   16.44    1.46
   2   6   2   11.56    1.25
  -1  -7  -2    1.80    0.51
  -1  -7  -2    1.18    0.38
  -1  -7  -2    1.25    0.31
   1   7  -2    1.06    0.17
   1   7  -2    1.37    0.50
  -1  -7   2    0.79    0.29
   1   7   2    1.24    0.27
  -1  -7   2    0.84    0.38
   0  -8  -2  121.83   11.22
   0  -8  -2  130.59   10.70
   0   8  -2  133.21   10.70
   0   8  -2  131.00   11.24
   0  -8   2  143.72   10.80
   0   8   2  134.63   10.74
   0   8   2  138.31   10.97
   0  -8   2  132.17   10.92
   1  -9  -2    0.47    0.36
  -1   9  -2    0.02    0.14
  -1   9  -2    0.37    0.41
   1  -9  -2    0.11    0.16
   1  -9   2    0.13    0.24
  -1   9   2    0.13    0.25
   1  -9   2   -0.11    0.18
  -1   9   2    0.18    0.15
  -2  10  -2   -0.17    0.33
   2 -10  -2    0.01    0.33
  -2  10  -2    0.07    0.13
   2 -10  -2    0.02    0.24
  -2  10   2    0.31    0.29
   2 -10   2   -0.07    0.21
  -2  10   2    0.01    0.12
   2 -10   2    0.12    0.26
   3 -11  -2    3.17    0.85
  -3  11  -2    2.77    0.79
   3 -11  -2    1.78    0.53
  -3  11  -2    2.56    0.38
   3 -11   2    1.87    0.56
   3 -11   2    2.36    0.54
  -3  11   2    2.65    0.62
  -4  12  -2   -0.08    0.45
  -4  12  -2    0.48    0.19
   4 -12  -2   -0.10    0.42
   4 -12  -2    0.05    0.28
   4 -12   2    0.24    0.33
  -4  12   2    0.19    0.37
   4 -12   2   -0.01    0.24
   5 -13  -2    0.79    0.56
   5 -13  -2    0.58    0.40
  -5  13  -2    0.70    0.62
   5 -13   2    0.43    0.39
  -5  13   2    0.40    0.43
   5 -13   2    0.67    0.40
  -6  14  -2   85.33    7.52
   6 -14  -2   84.12    7.04
   6 -14  -2   80.02    7.46
  -6  14   2   74.99    7.05
   6 -14   2   81.52    6.95
   6 -14   2   85.39    7.05
   7 -15  -2   -0.17    0.35
  -7  15  -2    0.16    0.61
   7 -15  -2    0.46    0.42
  -7  15   2   -0.22    0.33
   7 -15   2    0.12    0.34
  -8  16  -2    1.31    0.79
   8 -16  -2    2.12    0.91
   8 -16  -2    1.98    0.71
   8 -16   2    1.64    0.66
  -8  16   2    1.68    0.69
  -9  17  -2   45.45    4.90
   9 -17  -2   50.41    4.63
   9 -17  -2   48.25    4.88
  -9  17   2   50.26    4.68
   9 -17   2   49.25    4.62
 -10  18  -2    0.38    0.55
  10 -18  -2    1.23    0.47
 -10  18   2    1.14    0.61
 -10  18   2    1.00    0.53
  10 -18   2    0.82    0.45
  11 -19  -2    0.68    0.45
 -11  19  -2    0.49    0.48
 -11  19   2    0.80    0.51
 -11  19   2    0.96    0.52
  11 -19   2    0.72    0.45
  18 -10  -3    4.23    1.02
 -18  10  -3    1.19    0.56
 -18  10   3    4.07    1.15
  18 -10   3    1.68    0.67
 -17   9  -3    7.18    1.37
  17  -9   3    5.10    1.10
  17  -9   3    5.35    1.09
 -16   8  -3    9.34    1.62
  16  -8   3    9.55    1.33
  16  -8   3   10.56    1.41
 -15   7  -3    0.30    0.48
  15  -7  -3    0.15    0.43
  15  -7  -3   -0.25    0.34
  15  -7   3    0.15    0.31
  15  -7   3    0.09    0.37
 -15   7   3    0.05    0.52
 -14   6  -3    9.02    1.49
  14  -6   3   11.39    1.41
  14  -6   3   13.90    1.56
 -12   4  -3    5.10    0.84
 -12   4  -3    6.88    1.15
  12  -4   3    5.24    0.93
  12  -4   3    5.79    0.84
  11  -3  -3    6.24    0.97
  11  -3  -3    7.40    1.02
 -11   3   3    6.73    1.13
 -11   3   3    6.65    0.90
 -10   2  -3    0.66    0.29
  10  -2  -3   -0.27    0.23
  10  -2  -3   -0.17    0.26
 -10   2  -3    0.24    0.38
  10  -2   3    0.74    0.26
 -10   2   3   -0.03    0.35
  10  -2   3    0.37    0.36
 -10   2   3    0.32    0.29
  -8   0  -3   58.45    5.11
  -8   0  -3   59.70    5.02
   8   0   3   56.82    4.70
   8   0   3   55.68    5.00
  -7  -1  -3   34.21    3.31
  -7  -1  -3   36.71    3.40
   7   1   3   36.36    3.34
   7   1   3   39.88    3.07
   6   2  -3    0.74    0.38
   6   2  -3    0.64    0.24
  -6  -2  -3    0.50    0.27
  -6  -2  -3    0.36    0.34
  -6  -2   3    1.20    0.33
   6   2   3    0.50    0.19
  -6  -2   3    0.52    0.37
   6   2   3    0.34    0.28
  -5  -3  -3    9.76    1.12
  -5  -3  -3    8.76    1.13
   5   3   3    9.74    1.12
   5   3   3    9.91    0.88
   4   4  -3   56.72    4.94
   4   4  -3   58.26    4.62
  -4  -4   3   54.05    4.66
  -4  -4   3   53.89    4.84
  -3  -5  -3  349.08   27.75
  -3  -5  -3  319.25   28.22
  -3  -5  -3  355.44   26.98
   3   5   3  347.45   27.51
   2   6  -3   10.80    1.31
  -2  -6   3   11.81    1.08
  -2  -6   3   12.64    1.33
  -2  -6   3   10.07    1.12
  -1  -7  -3    1.51    0.48
  -1  -7  -3    1.15    0.28
  -1  -7  -3    0.91    0.46
   1   7  -3    0.13    0.33
   1   7   3    1.17    0.31
  -1  -7   3    0.23    0.32
   0  -8  -3    3.78    0.51
   0   8  -3    2.76    0.75
   0  -8  -3    2.99    0.77
   0   8  -3    3.08    0.45
   0   8   3    3.04    0.70
   0  -8   3    3.40    0.72
   0   8   3    3.44    0.46
   0  -8   3    3.58    0.59
  -1   9  -3   37.54    3.59
  -1   9  -3   35.38    3.11
   1  -9   3   35.59    3.39
   1  -9   3   39.59    3.31
  -2  10  -3    8.85    1.23
   2 -10   3    5.60    0.89
   2 -10   3    7.13    1.02
   3 -11  -3    2.21    0.54
  -3  11  -3    0.60    0.55
   3 -11  -3    1.74    0.65
  -3  11   3    2.14    0.66
   4 -12  -3    0.07    0.28
   4 -12  -3    0.07    0.44
  -4  12  -3    0.38    0.55
  -4  12   3    0.05    0.37
   4 -12   3    0.27    0.35
   4 -12   3    0.80    0.43
  -5  13  -3   10.29    1.54
   5 -13   3   11.52    1.36
   5 -13   3   10.06    1.36
   6 -14  -3    2.42    0.72
   6 -14  -3    1.99    0.83
  -6  14  -3    4.46    1.09
  -6  14   3    2.03    0.76
   6 -14   3    5.53    0.93
   6 -14   3    5.40    0.94
  -7  15  -3    7.51    1.46
   7 -15   3    8.98    1.22
   7 -15   3    7.32    1.22
  -8  16  -3   -0.27    0.39
   8 -16  -3    0.64    0.47
   8 -16  -3    0.65    0.52
   8 -16   3    0.07    0.36
  -8  16   3    0.54    0.55
  -9  17  -3    6.02    1.34
   9 -17   3    6.28    1.19
  10 -18  -3    4.61    0.99
  10 -18  -3    4.02    1.13
 -10  18   3    5.76    1.19
  17  -9  -4    2.83    0.82
 -17   9  -4    3.81    1.00
 -17   9   4    3.47    1.14
  17  -9   4    4.45    0.97
 -16   8  -4    0.28    0.37
  16  -8  -4    1.17    0.49
 -16   8   4    0.48    0.44
  16  -8   4   -0.07    0.23
  15  -7  -4    4.69    1.07
  15  -7  -4    3.78    0.96
 -15   7  -4    3.61    1.02
  15  -7   4    4.52    1.03
 -15   7   4    3.51    0.99
  14  -6  -4    0.66    0.51
 -14   6  -4    0.52    0.50
  14  -6  -4    0.96    0.58
  14  -6   4   -0.07    0.36
 -14   6   4    0.22    0.52
  13  -5  -4    4.50    0.92
  13  -5  -4    5.35    1.06
 -13   5  -4    2.79    0.88
 -13   5   4    4.35    1.09
  13  -5   4    2.32    0.74
  12  -4  -4   75.30    7.00
  12  -4  -4   80.29    6.70
 -12   4  -4   78.38    6.85
 -12   4  -4   85.10    7.06
  12  -4   4   74.91    6.83
 -12   4   4   74.57    6.92
 -11   3  -4    0.51    0.39
  11  -3  -4   -0.04    0.34
 -11   3  -4    0.31    0.47
  11  -3  -4    0.17    0.31
  11  -3   4    0.59    0.43
 -11   3   4    0.02    0.43
 -10   2  -4    2.17    0.71
 -10   2  -4    1.89    0.58
  10  -2  -4    2.06    0.58
  10  -2  -4    1.41    0.60
 -10   2   4    1.24    0.50
 -10   2   4    1.35    0.58
  10  -2   4    1.67    0.59
  -9   1  -4   23.01    2.57
   9  -1  -4   26.84    2.41
   9  -1  -4   26.59    2.64
  -9   1  -4   22.21    2.44
  -9   1   4   25.80    2.48
   9  -1   4   22.97    2.50
  -9   1   4   27.31    2.57
   8   0  -4   15.77    1.77
   8   0  -4   14.58    1.52
  -8   0   4   14.17    1.62
  -8   0   4   13.43    1.61
  -7  -1  -4    5.04    0.96
   6   2  -4    0.94    0.32
  -6  -2  -4    0.50    0.38
   6   2  -4    0.73    0.48
  -6  -2  -4    0.23    0.37
   6   2   4    0.42    0.36
  -6  -2   4    0.39    0.40
  -6  -2   4    0.87    0.39
  -5  -3  -4    1.18    0.50
   5   3  -4    0.77    0.46
   5   3  -4    0.59    0.26
  -5  -3  -4    1.95    0.58
  -5  -3   4    0.89    0.51
   5   3   4    0.98    0.44
  -5  -3   4    0.84    0.36
   4   4  -4    7.18    0.73
   4   4  -4    5.15    1.00
  -4  -4   4    4.84    0.73
  -4  -4   4    6.19    1.01
  -3  -5  -4   11.24    1.42
   2   6  -4    8.52    1.22
   2   6  -4    7.00    0.82
  -2  -6   4    8.46    0.87
  -2  -6   4    6.91    1.14
  -1  -7  -4    1.81    0.64
  -1  -7  -4    2.02    0.60
   1   7  -4    0.86    0.55
  -1  -7   4    0.93    0.32
   1   7   4    2.18    0.51
  -1  -7   4    0.76    0.49
   0   8  -4   11.78    1.50
   0  -8  -4   10.81    1.49
   0  -8   4    9.19    1.35
   0   8   4    9.78    1.17
   0  -8   4   10.95    1.16
   0   8   4   12.50    1.47
   1  -9  -4   16.64    1.95
  -1   9  -4   12.72    1.78
   1  -9   4   13.32    1.73
  -1   9   4   17.35    1.55
   1  -9   4   11.56    1.46
  -1   9   4   16.70    1.78
  -2  10  -4   16.13    1.98
   2 -10   4   14.96    1.60
   2 -10   4   15.63    1.85
  -3  11  -4   15.73    2.04
   3 -11  -4   14.66    2.00
   3 -11  -4   15.46    1.65
   3 -11   4   15.94    1.72
   3 -11   4   15.83    1.89
  -3  11   4   17.20    1.93
   4 -12  -4    0.94    0.44
   4 -12  -4    0.80    0.61
  -4  12  -4    0.30    0.56
  -4  12   4    0.61    0.51
   4 -12   4    0.13    0.38
   4 -12   4    0.17    0.38
   5 -13  -4    2.05    0.87
  -5  13  -4    4.50    1.15
   5 -13  -4    1.95    0.63
   5 -13   4    4.16    0.95
  -5  13   4    2.31    0.78
   5 -13   4    4.16    0.80
   6 -14  -4   27.71    2.77
  -6  14  -4   24.89    3.09
   6 -14  -4   28.83    3.22
   6 -14   4   30.01    2.78
   6 -14   4   27.38    2.92
  -6  14   4   27.07    2.97
   7 -15  -4    4.93    1.23
  -7  15  -4    1.72    0.73
   7 -15  -4    3.61    0.85
  -7  15   4    3.82    1.02
   8 -16  -4    4.93    1.03
  -8  16  -4    4.00    1.15
   8 -16  -4    5.19    1.25
  -8  16   4    5.35    1.17
   8 -16   4    4.30    1.01
   9 -17  -4    0.24    0.29
  -9  17  -4    0.14    0.38
   9 -17  -4    0.17    0.52
  -9  17   4   -0.24    0.38
  16  -8   5    9.27    1.59
 -15   7  -5   -0.39    0.23
  15  -7  -5    0.35    0.49
  15  -7   5    0.08    0.27
 -15   7   5    0.12    0.38
  14  -6  -5    0.09    0.36
 -14   6  -5    0.57    0.38
  14  -6   5    0.31    0.27
 -14   6   5    0.28    0.38
  12  -4  -5    2.17    0.79
 -12   4  -5    0.66    0.52
  12  -4   5    1.21    0.51
 -12   4   5    1.27    0.69
 -11   3  -5    2.40    0.80
 -10   2  -5    5.31    1.14
 -10   2  -5    3.75    0.90
  10  -2   5    3.59    0.93
  -9   1  -5    5.77    1.10
  -9   1  -5    5.80    1.01
   9  -1   5    6.66    1.07
  -9   1   5    1.42    0.65
   8   0  -5    8.86    1.45
  -8   0   5   11.13    1.44
  -8   0   5   13.44    1.53
   7   1  -5   10.41    1.41
  -7  -1   5    8.19    1.22
  -7  -1   5    8.20    1.18
   6   2  -5    0.05    0.35
  -6  -2  -5    0.53    0.47
  -6  -2  -5    0.07    0.31
  -6  -2   5   -0.28    0.27
   6   2   5   -0.12    0.29
  -6  -2   5   -0.16    0.37
   5   3  -5    3.63    0.93
  -5  -3   5    3.52    0.89
  -4  -4  -5    7.44    1.16
   4   4   5    6.87    1.03
   3   5  -5   80.16    6.05
  -3  -5  -5   55.15    5.74
  -3  -5  -5   56.31    5.65
   3   5   5   53.23    5.47
  -3  -5   5   76.91    5.79
  -2  -6  -5   14.40    1.72
  -2  -6  -5   14.11    1.67
   2   6   5    9.07    1.35
   1   7  -5    0.16    0.44
  -1  -7  -5    0.33    0.47
   1   7   5   -0.11    0.28
  -1  -7   5   -0.16    0.37
   1   7   5   -0.01    0.34
   0  -8  -5    0.86    0.62
   0   8  -5    0.69    0.61
   0  -8   5    0.79    0.55
   0   8   5    0.96    0.56
   0   8   5    0.82    0.48
  -1   9  -5   70.38    6.85
   1  -9   5   77.93    6.72
   2 -10  -5   56.78    5.56
  -2  10   5   56.90    5.27
  -3  11  -5    1.83    0.82
   3 -11  -5    0.56    0.54
   3 -11   5    1.46    0.70
  -3  11   5    0.42    0.45
  -4  12  -5    9.56    1.67
   4 -12   5    9.41    1.56
   5 -13  -5   13.25    1.96
  -5  13   5   15.59    1.96
  -6  14  -5    1.39    0.58
   6 -14  -5    1.08    0.58
   6 -14   5    0.13    0.35
  -6  14   5    1.54    0.66
  -7  15  -5   15.87    2.17
  13  -5  -6    2.91    0.88
 -13   5  -6    3.15    0.90
 -13   5   6    3.71    1.03
  13  -5   6    1.92    0.75
  12  -4  -6    4.71    1.14
 -12   4  -6    4.19    1.05
 -12   4   6    6.74    1.30
  12  -4   6    4.71    1.12
  11  -3  -6    1.40    0.67
 -11   3  -6    2.05    0.67
  11  -3   6    1.74    0.63
 -11   3   6    1.40    0.61
 -10   2  -6    0.59    0.53
  10  -2  -6    0.53    0.40
 -10   2  -6    0.18    0.30
 -10   2   6   -0.18    0.35
  10  -2   6    0.20    0.28
  -9   1  -6   22.77    2.55
   9  -1  -6   20.57    2.55
  -9   1  -6   21.87    2.50
   9  -1   6   21.52    2.47
  -9   1   6   22.58    2.49
  -8   0  -6   13.02    1.77
   7   1  -6   16.78    2.13
  -7  -1   6   15.81    1.99
  -7  -1   6   17.18    1.99
  -6  -2  -6    2.08    0.77
  -6  -2  -6    2.74    0.86
   6   2  -6    2.00    0.80
  -6  -2   6    1.60    0.69
   6   2   6    2.59    0.79
  -6  -2   6    1.69    0.70
  -5  -3  -6    2.30    0.82
  -5  -3  -6    1.99    0.74
   5   3  -6    0.67    0.57
   5   3   6    2.04    0.71
  -5  -3   6    0.60    0.54
  -5  -3   6    1.52    0.62
   4   4  -6    9.37    1.59
   3   5  -6   67.04    5.81
  -3  -5  -6   55.24    5.54
  -3  -5  -6   50.56    5.59
  -3  -5   6   73.59    5.75
   3   5   6   56.65    5.39
  -2  -6  -6   10.95    1.69
   2   6   6   12.47    1.56
   1   7  -6    0.93    0.58
  -1  -7  -6    2.42    0.88
   1   7   6    2.18    0.73
  -1  -7   6    0.81    0.59
   1   7   6    1.65    0.67
   0  -8  -6   18.47    2.36
   0   8  -6   17.46    2.33
   0   8   6   18.99    2.22
   0  -8   6   17.88    2.25
   1  -9  -6    1.13    0.64
  -1   9  -6    0.44    0.47
   1  -9   6    0.44    0.42
  -1   9   6    1.40    0.62
  -2  10  -6    0.36    0.34
   2 -10  -6   -0.16    0.25
   2 -10   6    0.47    0.38
  -2  10   6    0.56    0.34
  -3  11  -6    0.09    0.35
   3 -11  -6   -0.09    0.40
  -3  11   6    0.37    0.40
   3 -11   6   -0.20    0.25
  -4  12  -6    0.71    0.58
   4 -12  -6   -0.36    0.35
   4 -12   6    0.32    0.35
  -4  12   6    0.44    0.50
  -5  13  -6    2.98    1.05
   5 -13  -6    0.31    0.62
  -5  13   6    1.19    0.75
   5 -13   6    2.40    0.85
   9  -1  -7    0.40    0.64
  -9   1  -7    0.35    0.35
  -9   1  -7   -0.01    0.49
  -9   1   7    1.32    0.54
   9  -1   7    0.45    0.56
   8   0  -7   49.79    5.20
  -8   0   7   53.54    4.99
  -7  -1  -7   16.58    2.04
  -7  -1  -7   14.72    1.97
   7   1   7   14.62    1.96
   6   2  -7   -0.38    0.37
  -6  -2  -7    0.45    0.37
  -6  -2  -7    0.13    0.36
   6   2   7    0.03    0.24
  -6  -2   7    0.37    0.36
   5   3  -7    7.78    1.59
  -5  -3   7    8.89    1.55
  -4  -4  -7   52.65    4.87
  -4  -4  -7   45.89    4.86
   4   4   7   47.54    4.67
  -3  -5  -7   17.19    2.27
   3   5   7   18.60    2.14
   3   5   7   17.56    2.23
   2   6  -7    6.07    1.38
  -2  -6  -7    2.98    0.95
  -2  -6   7    6.10    1.30
   2   6   7    3.78    0.99
   2   6   7    2.81    0.81
  -1  -7  -7    1.78    0.79
   1   7  -7    0.17    0.35
   1   7   7    0.21    0.31
  -1  -7   7    0.21    0.50
   0   8  -7    0.07    0.39
   0  -8  -7    0.08    0.46
   0  -8   7   -0.05    0.46
   0   8   7    0.06    0.31
  -1   9  -7    5.61    1.44
   1  -9   7    4.96    1.38
  21 -11   0   32.84    3.74
 -21  11   0   38.15    3.99
  20 -10   0    0.01    0.30
 -20  10   0    0.78    0.51
 -19   9   0   -0.05    0.39
  19  -9   0   -0.10    0.28
 -18   8   0   10.60    1.70
  18  -8   0    8.17    1.45
  17  -7   0   -0.24    0.30
 -17   7   0    0.10    0.51
  16  -6   0    0.18    0.38
 -16   6   0    0.51    0.54
 -15   5   0    0.09    0.44
  15  -5   0   -0.04    0.31
  15  -5   0    0.11    0.23
 -14   4   0   -0.07    0.40
  14  -4   0   -0.15    0.34
  13  -3   0   -0.20    0.25
 -13   3   0   -0.19    0.31
 -13   3   0    0.13    0.32
  12  -2   0   13.91    1.52
 -12   2   0   13.52    1.51
 -12   2   0   12.71    1.56
 -12   2   0   14.17    1.29
 -11   1   0    0.04    0.21
 -11   1   0   -0.06    0.30
 -11   1   0   -0.15    0.21
  11  -1   0   -0.01    0.26
  10   0   0   -0.01    0.23
 -10   0   0    0.00    0.28
 -10   0   0   -0.18    0.18
  -9  -1   0   82.22    6.82
   9   1   0   81.89    6.69
  -9  -1   0   79.67    6.84
  -8  -2   0    0.06    0.22
  -8  -2   0    0.23    0.25
   8   2   0    0.12    0.19
  -7  -3   0    0.27    0.26
   7   3   0    0.04    0.16
   7   3   0   -0.02    0.08
  -7  -3   0    0.02    0.22
   6   4   0  117.02    9.09
  -6  -4   0  108.18    9.09
  -6  -4   0  107.64    8.99
   6   4   0  107.39    8.86
   5   5   0    0.01    0.16
  -5  -5   0    0.11    0.19
  -5  -5   0    0.06    0.16
  -5  -5   0   -0.02    0.15
  -4  -6   0   -0.08    0.15
   4   6   0   -0.05    0.17
  -4  -6   0   -0.19    0.18
  -4  -6   0   -0.09    0.13
  -3  -7   0    3.59    0.56
  -3  -7   0    4.04    0.56
  -3  -7   0    3.71    0.46
   3   7   0    2.99    0.54
  -2  -8   0    0.07    0.23
   2   8   0   -0.06    0.19
  -2  -8   0    0.02    0.19
   2   8   0   -0.01    0.13
   1   9   0    0.19    0.16
  -1  -9   0    0.17    0.22
   1   9   0   -0.21    0.25
  -1  -9   0   -0.05    0.17
   0  10   0  996.12   76.13
   0 -10   0  951.26   74.95
   0  10   0  879.44   77.81
   0 -10   0  985.92   75.85
   1 -11   0   -0.08    0.24
   1 -11   0    0.18    0.17
  -1  11   0    0.14    0.32
  -1  11   0    0.02    0.14
  -2  12   0   -0.09    0.28
   2 -12   0    0.09    0.26
  -2  12   0    0.03    0.14
   2 -12   0    0.22    0.14
  -3  13   0  115.60    9.47
  -3  13   0  111.14    9.91
   3 -13   0  113.44    9.51
   3 -13   0  117.18    9.36
  -4  14   0    0.11    0.32
   4 -14   0   -0.02    0.29
  -4  14   0   -0.20    0.34
   5 -15   0    0.13    0.36
  -5  15   0   -0.05    0.45
  -5  15   0    0.06    0.39
  -6  16   0    0.15    0.51
   6 -16   0    0.00    0.38
  -6  16   0    0.40    0.44
  -7  17   0   -0.34    0.43
   7 -17   0    0.04    0.36
   8 -18   0    0.25    0.35
  -8  18   0   -0.03    0.43
  -9  19   0   32.81    3.61
   9 -19   0   32.44    3.40
  10 -20   0    0.04    0.34
 -10  20   0    0.20    0.39
 -20  10  -1    9.31    1.76
  20 -10  -1   11.20    1.64
 -20  10   1   14.81    1.93
  20 -10   1    7.65    1.51
  19  -9  -1   13.62    2.00
 -19   9  -1   20.92    2.37
  19  -9   1   22.21    2.27
 -19   9   1   15.07    2.17
  18  -8  -1    0.79    0.57
 -18   8  -1    2.84    0.91
 -18   8   1    1.25    0.72
  18  -8   1    1.71    0.67
 -17   7  -1   -0.08    0.52
  17  -7  -1    0.02    0.48
  17  -7   1    0.07    0.35
 -17   7   1    0.39    0.59
 -16   6  -1    9.69    1.42
  16  -6  -1    6.22    1.23
 -16   6   1    6.57    1.39
  16  -6   1    9.18    1.32
  16  -6   1   10.28    1.20
 -15   5  -1   96.31    8.39
  15  -5   1   96.65    8.13
  15  -5   1   95.29    8.06
 -14   4  -1   16.72    2.09
  14  -4   1   18.10    1.97
  14  -4   1   18.18    1.90
 -14   4   1   22.73    2.25
  13  -3  -1    4.90    0.69
 -13   3  -1    6.23    1.08
  13  -3  -1    6.10    0.99
  13  -3   1    7.42    0.90
 -13   3   1    4.56    1.00
  13  -3   1    7.31    0.99
 -13   3   1    5.15    0.80
 -12   2  -1    1.78    0.70
  12  -2  -1    4.54    0.57
  12  -2  -1    3.98    0.75
 -12   2   1    3.32    0.80
 -12   2   1    4.41    0.68
 -11   1  -1   32.13    3.04
  11  -1  -1   41.17    3.17
 -11   1  -1   31.16    3.27
 -11   1  -1   32.01    3.38
 -11   1   1   42.63    3.45
  11  -1   1   33.91    3.20
 -11   1   1   43.14    3.30
  10   0  -1   45.25    3.86
  10   0  -1   45.61    3.78
 -10   0   1   42.92    3.87
 -10   0   1   42.78    3.94
  -8  -2  -1    2.81    0.61
  -8  -2  -1    2.36    0.35
   8   2  -1    3.20    0.55
   8   2  -1    3.50    0.44
  -8  -2  -1    2.42    0.55
  -8  -2   1    3.80    0.58
  -8  -2   1    3.08    0.57
   8   2   1    2.40    0.46
   7   3  -1   13.77    1.44
   7   3  -1   13.24    1.48
  -7  -3  -1   18.14    1.58
  -7  -3  -1   18.62    1.44
  -7  -3   1   14.37    1.52
  -7  -3   1   14.27    1.57
   7   3   1   18.48    1.51
  -6  -4  -1    9.70    0.88
  -6  -4  -1    8.23    0.99
  -6  -4  -1    7.44    0.88
   6   4   1    7.19    0.83
  -5  -5  -1   68.78    6.28
   5   5  -1   92.01    6.44
  -5  -5  -1   72.59    6.39
  -5  -5  -1   69.86    6.18
  -5  -5  -1   65.76    6.32
  -5  -5   1   88.76    6.40
   4   6  -1    7.08    0.85
  -4  -6   1    7.29    0.90
  -4  -6   1    7.16    0.67
  -4  -6   1    6.76    0.82
  -3  -7  -1   18.64    1.59
  -3  -7  -1   17.01    1.64
  -3  -7  -1   17.55    1.69
   3   7  -1   14.95    1.67
  -3  -7  -1   18.53    1.60
  -3  -7   1   14.39    1.59
  -3  -7   1   15.54    1.66
  -2  -8  -1   28.10    2.57
  -2  -8  -1   27.81    2.42
  -2  -8  -1   25.90    2.41
  -2  -8  -1   26.16    2.38
   1   9  -1   61.69    6.36
  -1  -9  -1   88.41    6.53
  -1  -9  -1   79.58    6.13
  -1  -9  -1   83.25    6.18
  -1  -9   1   62.71    6.16
   1   9   1   81.66    6.17
  -1  -9   1   62.34    6.12
   0  10  -1   13.48    1.24
   0 -10  -1   14.23    1.45
   0 -10  -1   13.74    1.35
   0  10  -1   13.16    1.54
   0 -10  -1   13.16    1.60
   0  10   1   14.08    1.36
   0 -10   1   15.20    1.44
   0 -10   1   12.70    1.44
   1 -11  -1    9.20    1.31
   1 -11  -1    8.35    1.10
  -1  11  -1   11.22    1.01
   1 -11  -1    8.16    0.99
  -1  11  -1   11.15    1.33
  -1  11   1    8.23    1.03
   1 -11   1   11.96    1.15
   1 -11   1   11.77    1.23
  -2  12  -1    1.85    0.41
   2 -12  -1    3.53    0.68
   2 -12  -1    3.92    0.87
   2 -12  -1    3.32    0.48
  -2  12  -1    2.08    0.68
  -2  12   1    3.38    0.58
   2 -12   1    2.21    0.51
   2 -12   1    2.26    0.63
  -3  13  -1   31.82    2.88
  -3  13  -1   30.47    3.21
   3 -13   1   32.90    3.09
   3 -13   1   34.02    2.95
   4 -14  -1   22.30    2.25
   4 -14  -1   19.19    2.37
  -4  14   1   21.44    2.14
  -5  15  -1   11.51    1.77
   5 -15  -1   16.33    1.78
   5 -15   1   12.46    1.66
  -5  15   1   15.77    1.69
  -5  15   1   16.53    1.98
  -6  16  -1    5.84    1.32
   6 -16  -1    8.45    1.24
   6 -16   1    5.93    1.19
  -6  16   1    8.87    1.51
  -6  16   1    8.55    1.16
   7 -17  -1    4.12    1.02
  -7  17  -1    6.61    1.34
  -7  17   1    3.70    1.11
  -7  17   1    3.29    0.86
   7 -17   1    7.52    1.23
   8 -18  -1   19.75    2.19
  -8  18   1   20.61    2.45
  -8  18   1   20.84    2.25
   8 -18   1   12.75    1.97
   9 -19  -1    2.05    0.67
  -9  19  -1    6.76    1.39
   9 -19   1    5.42    1.13
  -9  19   1    0.57    0.49
 -10  20  -1    3.78    1.07
  10 -20  -1    1.68    0.68
  10 -20   1    3.60    1.02
 -10  20   1    2.45    0.87
 -20  10  -2    0.40    0.48
  20 -10  -2    0.86    0.58
 -20  10   2    0.26    0.69
  20 -10   2    0.15    0.29
  19  -9  -2    0.32    0.31
 -19   9  -2   -0.02    0.28
  19  -9   2   -0.09    0.25
 -19   9   2    0.70    0.54
  18  -8  -2   27.14    2.90
 -18   8  -2   27.02    2.99
  18  -8   2   23.96    2.73
 -18   8   2   26.91    3.05
 -17   7  -2   -0.01    0.46
  17  -7  -2    0.36    0.49
  17  -7   2   -0.13    0.32
 -17   7   2   -0.03    0.49
  17  -7   2    0.24    0.36
  16  -6  -2    5.32    1.10
 -16   6  -2    6.19    1.27
  16  -6   2    5.98    1.02
 -16   6   2    5.01    1.24
  16  -6   2    6.75    1.09
 -15   5  -2  248.97   19.92
  15  -5  -2  215.31   19.37
  15  -5   2  245.04   19.36
  15  -5   2  258.96   19.61
 -15   5   2  229.26   19.87
 -14   4  -2    1.67    0.72
  14  -4  -2    1.15    0.57
  14  -4  -2    1.45    0.50
  14  -4   2    2.20    0.64
 -14   4   2    1.10    0.65
  14  -4   2    1.81    0.60
  13  -3  -2   -0.10    0.30
  13  -3  -2    0.44    0.28
 -13   3  -2    0.09    0.39
 -13   3   2    0.00    0.43
 -13   3   2    0.32    0.28
  13  -3   2    0.08    0.29
  13  -3   2   -0.06    0.31
  12  -2  -2    0.80    0.29
  12  -2  -2    0.69    0.42
 -12   2  -2    0.41    0.44
 -12   2   2    0.61    0.36
  12  -2   2    0.05    0.28
 -12   2   2    1.16    0.57
  12  -2   2    0.32    0.33
 -11   1  -2    5.22    0.63
  11  -1  -2    6.32    0.86
  11  -1  -2    5.50    0.70
 -11   1  -2    4.84    0.94
  11  -1   2    4.30    0.81
 -11   1   2    5.74    0.97
  11  -1   2    4.78    0.73
 -11   1   2    4.94    0.79
  10   0  -2    2.02    0.49
  10   0  -2    1.85    0.39
 -10   0  -2    0.71    0.41
 -10   0  -2    1.34    0.32
 -10   0   2    2.95    0.65
 -10   0   2    3.36    0.59
  10   0   2    0.80    0.31
  10   0   2    0.93    0.39
   9   1  -2   98.65    8.18
  -9  -1  -2  103.15    8.29
   9   1  -2  102.23    8.39
  -9  -1  -2  107.35    8.43
   9   1   2   96.13    8.05
  -9  -1   2   94.86    8.26
   9   1   2  101.68    8.32
  -9  -1   2   93.73    8.30
   8   2  -2    0.25    0.27
   8   2  -2    0.41    0.21
  -8  -2  -2    0.24    0.19
  -8  -2  -2    0.16    0.26
  -8  -2   2    0.45    0.27
  -8  -2   2    0.34    0.27
   8   2   2   -0.12    0.18
   8   2   2    0.17    0.15
  -7  -3  -2    2.42    0.41
  -7  -3  -2    2.16    0.53
   7   3  -2    2.13    0.45
   7   3  -2    2.36    0.47
  -7  -3   2    2.80    0.45
   7   3   2    2.28    0.38
  -7  -3   2    1.90    0.53
   7   3   2    2.22    0.50
  -6  -4  -2  180.04   15.17
  -6  -4  -2  181.99   15.41
  -6  -4  -2  189.44   15.24
   6   4  -2  186.33   14.90
   6   4  -2  178.82   15.43
   6   4   2  186.93   14.80
  -6  -4   2  204.74   15.24
  -6  -4   2  186.90   15.08
   5   5  -2   16.86    1.48
   5   5  -2   15.18    1.53
  -5  -5  -2   14.91    1.52
  -5  -5  -2   14.59    1.53
  -5  -5  -2   13.97    1.54
  -5  -5   2   15.55    1.39
  -5  -5   2   15.55    1.60
   4   6  -2    1.07    0.39
  -4  -6  -2    0.23    0.23
  -4  -6   2    0.99    0.32
  -4  -6   2    1.05    0.26
  -4  -6   2    1.13    0.43
   3   7  -2    0.26    0.32
  -3  -7  -2    0.01    0.22
  -3  -7  -2    0.05    0.21
  -3  -7  -2    0.04    0.10
  -3  -7  -2    0.10    0.14
  -3  -7   2    0.23    0.23
  -3  -7   2    0.38    0.29
  -2  -8  -2    2.27    0.58
  -2  -8  -2    2.87    0.45
   2   8  -2    3.02    0.64
  -2  -8  -2    2.30    0.53
  -2  -8  -2    2.51    0.46
  -2  -8   2    2.00    0.54
  -2  -8   2    2.37    0.51
  -1  -9  -2    0.09    0.14
   1   9  -2    0.11    0.35
  -1  -9  -2    0.34    0.15
  -1  -9  -2    0.11    0.31
  -1  -9   2    0.33    0.29
  -1  -9   2    0.10    0.26
   1   9   2   -0.08    0.20
   0 -10  -2   62.38    5.59
   0 -10  -2   61.24    5.19
   0  10  -2   60.79    5.53
   0  10   2   62.24    5.30
   0 -10   2   60.23    5.29
   0 -10   2   62.82    5.27
   1 -11  -2    2.69    0.59
  -1  11  -2    2.44    0.75
   1 -11  -2    2.92    0.78
   1 -11   2    3.95    0.69
   1 -11   2    3.13    0.64
  -1  11   2    2.69    0.59
  -1  11   2    2.74    0.38
  -2  12  -2    0.31    0.46
   2 -12  -2   -0.18    0.37
   2 -12  -2    0.20    0.29
   2 -12   2    0.19    0.29
   2 -12   2    0.01    0.30
  -2  12   2    0.10    0.30
   3 -13  -2   34.96    3.19
   3 -13  -2   32.91    3.46
  -3  13  -2   35.82    3.54
   3 -13   2   33.87    3.16
  -3  13   2   33.43    3.19
   3 -13   2   33.71    3.19
   4 -14  -2    2.13    0.80
   4 -14  -2    1.02    0.48
  -4  14  -2    0.10    0.58
   4 -14   2    0.26    0.34
   4 -14   2    0.29    0.37
  -4  14   2    1.28    0.55
   5 -15  -2    3.68    0.86
  -5  15  -2    3.65    1.08
   5 -15  -2    3.65    1.02
   5 -15   2    2.96    0.82
  -5  15   2    4.27    0.88
   5 -15   2    3.59    0.74
  -6  16  -2    2.00    0.90
   6 -16  -2    1.45    0.63
   6 -16  -2    1.07    0.67
  -6  16   2    1.78    0.70
   6 -16   2    1.34    0.58
   7 -17  -2    0.03    0.33
   7 -17  -2    0.04    0.49
  -7  17  -2   -0.20    0.58
   7 -17   2    0.34    0.42
  -7  17   2    0.10    0.39
  -8  18  -2    0.40    0.55
   8 -18  -2    1.00    0.45
  -8  18   2    0.39    0.54
   8 -18   2    0.71    0.43
   9 -19  -2   26.19    2.94
  -9  19  -2   29.34    3.33
   9 -19   2   26.99    2.98
  -9  19   2   30.06    3.33
  -9  19   2   27.56    2.95
 -10  20  -2   -0.53    0.38
  10 -20  -2   -0.12    0.24
 -10  20   2    0.57    0.50
 -10  20   2    0.17    0.37
  10 -20   2    0.40    0.40
  19  -9  -3    2.38    0.77
 -19   9   3    1.93    0.78
  18  -8  -3    0.90    0.49
 -18   8  -3    1.12    0.59
  18  -8   3    0.73    0.47
  18  -8   3    0.39    0.49
 -18   8   3    2.18    0.84
  17  -7  -3   -0.32    0.31
 -17   7  -3    0.25    0.37
  17  -7   3    0.08    0.35
  17  -7   3    0.00    0.43
 -17   7   3    0.45    0.48
 -16   6  -3    9.46    1.60
  16  -6   3    9.39    1.37
  16  -6   3   10.59    1.36
  15  -5  -3   62.99    5.98
  15  -5  -3   66.43    5.97
 -15   5   3   75.15    6.37
  14  -4  -3   46.08    4.47
  14  -4  -3   46.87    4.46
 -14   4   3   54.78    4.76
  13  -3  -3    5.52    0.95
  13  -3  -3    5.27    0.98
 -13   3   3    4.38    1.00
  12  -2  -3    0.49    0.43
  12  -2  -3    0.53    0.38
 -12   2  -3    2.08    0.70
  12  -2   3    1.36    0.53
 -12   2   3    0.22    0.36
  12  -2   3    1.91    0.52
 -12   2   3    0.21    0.43
  11  -1  -3   18.29    1.90
  11  -1  -3   18.07    1.89
 -11   1   3   16.57    1.84
 -11   1   3   18.98    1.99
 -10   0  -3   62.65    5.82
 -10   0  -3   62.68    5.66
  10   0   3   69.17    5.47
  10   0   3   69.93    5.79
   9   1  -3   22.50    2.31
   9   1  -3   24.06    2.42
  -9  -1   3   25.91    2.41
  -9  -1   3   26.71    2.45
  -8  -2  -3    1.38    0.36
   8   2  -3    2.15    0.49
  -8  -2  -3    0.55    0.41
   8   2  -3    1.17    0.46
  -8  -2   3    1.16    0.42
   8   2   3    0.64    0.37
   8   2   3    1.15    0.28
  -8  -2   3    2.02    0.58
  -7  -3  -3   11.14    1.24
  -7  -3  -3   10.86    1.33
   7   3   3   12.18    1.07
   7   3   3   10.41    1.26
  -6  -4  -3   14.00    1.46
  -6  -4  -3   12.05    1.48
   6   4   3   12.64    1.43
   6   4   3   14.97    1.24
   5   5  -3   68.69    5.61
   5   5  -3   66.57    5.91
  -5  -5   3   68.76    5.62
  -5  -5   3   66.13    5.81
   4   6  -3   40.30    3.55
   4   6  -3   38.46    3.29
  -4  -6   3   37.34    3.23
  -4  -6   3   37.38    3.48
  -3  -7  -3    5.59    0.96
   3   7  -3    6.55    0.95
  -3  -7  -3    6.12    0.89
  -3  -7  -3    6.19    0.68
  -3  -7   3    5.53    0.79
  -3  -7   3    5.99    0.66
  -3  -7   3    5.77    0.89
   3   7   3    6.20    0.77
  -2  -8  -3    7.98    1.10
  -2  -8  -3    7.16    0.82
  -2  -8  -3    6.83    1.02
   2   8   3    8.77    0.91
  -1  -9  -3   32.50    3.47
  -1  -9  -3   36.34    3.13
   1   9   3   38.69    3.17
   0 -10  -3    0.81    0.34
   0  10  -3    1.06    0.62
   0 -10  -3    0.68    0.46
   0  10   3    0.75    0.43
   0 -10   3    0.80    0.39
   0  10   3    1.29    0.30
   0 -10   3    0.48    0.40
   1 -11  -3    0.01    0.23
  -1  11  -3    0.24    0.50
   1 -11  -3   -0.10    0.29
   1 -11   3   -0.07    0.29
  -1  11   3   -0.06    0.30
   1 -11   3   -0.15    0.31
  -2  12  -3    4.51    1.07
   2 -12  -3    6.58    1.20
   2 -12   3    3.65    0.82
   2 -12   3    4.26    0.88
  -4  14  -3   45.20    4.83
   4 -14   3   54.79    4.67
   4 -14   3   51.66    4.55
   5 -15  -3   12.10    1.58
   5 -15  -3   10.73    1.74
  -5  15   3   15.70    1.75
   6 -16  -3    4.99    1.26
  -6  16  -3    5.25    1.26
   6 -16  -3    4.45    1.00
  -6  16   3    5.20    1.12
   6 -16   3    6.76    1.14
   6 -16   3    5.68    1.05
  -7  17  -3    7.29    1.37
   7 -17  -3    4.17    0.99
   7 -17  -3    3.20    1.02
  -7  17   3    3.20    0.93
   8 -18  -3   13.65    1.72
   8 -18  -3   13.94    1.95
  -8  18   3   12.00    1.70
   9 -19  -3    2.97    1.09
   9 -19  -3    3.11    0.84
  -9  19   3    4.05    1.01
  18  -8  -4    5.01    1.15
 -18   8  -4    4.77    1.23
 -18   8   4    6.67    1.53
  18  -8   4    5.77    1.19
 -17   7  -4    0.50    0.37
  17  -7  -4    0.66    0.41
  17  -7   4    0.36    0.31
 -17   7   4    0.69    0.53
  16  -6  -4    0.85    0.57
 -16   6  -4    5.00    1.10
 -16   6   4    1.43    0.75
 -15   5  -4    0.18    0.42
  15  -5  -4    1.35    0.63
  15  -5  -4    1.28    0.64
  15  -5   4    0.19    0.39
 -15   5   4    1.28    0.66
 -14   4  -4    2.16    0.79
  14  -4  -4    1.39    0.63
  14  -4  -4    1.89    0.68
  14  -4   4    1.68    0.68
 -14   4   4    1.79    0.73
  13  -3  -4    1.19    0.57
 -13   3  -4    0.85    0.55
  13  -3  -4    1.29    0.60
 -13   3   4    1.47    0.69
  13  -3   4    0.76    0.51
 -12   2  -4    4.58    1.09
  12  -2  -4    4.58    0.90
  12  -2  -4    3.53    0.88
 -12   2   4    3.87    0.85
 -12   2   4    4.81    1.03
  12  -2   4    5.52    1.01
  11  -1  -4    1.17    0.54
  11  -1  -4    0.75    0.47
 -11   1  -4    0.95    0.44
 -11   1  -4    0.66    0.51
  11  -1   4    1.13    0.50
 -11   1   4    0.74    0.49
 -11   1   4    0.77    0.55
  10   0  -4    6.25    1.07
 -10   0  -4    6.81    1.17
  10   0  -4    5.25    0.91
 -10   0  -4    6.60    0.93
 -10   0   4    5.58    1.00
 -10   0   4    4.67    0.96
  10   0   4    6.83    1.07
  -9  -1  -4   22.71    2.54
   9   1  -4   25.65    2.58
  -9  -1  -4   23.98    2.44
   9   1  -4   25.09    2.35
   9   1   4   22.55    2.45
  -9  -1   4   27.01    2.48
  -9  -1   4   25.37    2.51
  -8  -2  -4    1.37    0.50
   8   2  -4    2.79    0.59
   8   2  -4    2.24    0.68
  -8  -2  -4    2.55    0.73
  -8  -2   4    2.59    0.71
  -8  -2   4    2.45    0.61
   8   2   4    1.76    0.56
  -7  -3  -4    0.50    0.38
   7   3  -4    0.25    0.38
   7   3  -4    0.45    0.33
  -7  -3  -4    0.23    0.33
  -7  -3   4    0.40    0.44
  -7  -3   4    0.21    0.31
   7   3   4    0.25    0.31
   6   4  -4   39.41    3.79
   6   4  -4   39.28    3.46
  -6  -4  -4   41.39    3.75
  -6  -4  -4   39.47    3.72
  -6  -4   4   40.18    3.52
  -6  -4   4   38.17    3.68
   6   4   4   40.37    3.63
   5   5  -4    1.80    0.42
  -5  -5  -4    0.89    0.49
  -5  -5  -4    0.42    0.41
   5   5  -4    1.41    0.58
  -5  -5   4    1.43    0.58
  -5  -5   4    1.69    0.41
   5   5   4    0.62    0.37
  -4  -6  -4    6.93    0.95
   4   6  -4    1.56    0.66
  -4  -6  -4    6.44    1.00
  -4  -6   4    1.68    0.68
   4   6   4    6.50    0.81
   3   7  -4    1.19    0.59
  -3  -7  -4    0.59    0.46
   3   7  -4    1.22    0.37
  -3  -7  -4    0.43    0.36
  -3  -7   4    1.04    0.56
   3   7   4    0.38    0.31
  -2  -8  -4    1.53    0.57
   2   8  -4    0.58    0.50
  -2  -8  -4    1.31    0.59
   2   8   4    1.20    0.42
  -2  -8   4    0.38    0.43
  -2  -8   4    0.54    0.35
  -1  -9  -4   12.04    1.76
   1   9  -4   15.95    1.87
   1   9   4   13.58    1.50
   1   9   4   12.58    1.68
  -1  -9   4   16.19    1.80
  -1  -9   4   16.75    1.58
   0  10  -4  316.41   25.54
   0  10   4  310.40   24.95
   0 -10   4  286.27   24.79
   0 -10   4  307.80   24.30
  -1  11  -4   12.98    1.85
   1 -11  -4   13.81    1.86
  -1  11   4   14.85    1.76
   1 -11   4   14.06    1.72
   1 -11   4   13.96    1.56
  -2  12  -4    1.68    0.75
   2 -12  -4    1.67    0.69
  -2  12   4    2.48    0.77
   2 -12   4    0.69    0.52
   2 -12   4    1.18    0.48
   3 -13  -4   43.37    4.44
   3 -13  -4   47.30    4.04
  -3  13  -4   39.71    4.42
   3 -13   4   44.15    4.22
  -3  13   4   48.11    4.31
   3 -13   4   44.26    4.05
   4 -14  -4    3.54    0.86
  -4  14  -4    5.43    1.29
   4 -14  -4    3.90    1.16
   4 -14   4    5.61    1.09
  -4  14   4    3.92    1.03
   4 -14   4    6.23    1.02
   5 -15  -4    1.26    0.71
   5 -15  -4    1.30    0.56
  -5  15  -4    0.21    0.49
   5 -15   4    0.08    0.44
  -5  15   4    0.93    0.59
   5 -15   4    0.31    0.40
   6 -16  -4    0.06    0.29
  -6  16  -4   -0.01    0.45
   6 -16  -4    0.14    0.40
   6 -16   4   -0.11    0.33
  -6  16   4   -0.19    0.27
   6 -16   4   -0.14    0.45
  -7  17  -4    4.17    1.11
   7 -17  -4    1.78    0.63
   7 -17  -4    1.89    0.83
   7 -17   4    2.56    0.80
  -7  17   4    1.94    0.69
   7 -17   4    1.52    0.61
  -8  18  -4    2.49    0.98
   8 -18  -4    0.54    0.64
   8 -18  -4    0.33    0.29
  -8  18   4    0.82    0.57
 -16   6  -5    2.99    0.92
 -16   6   5    2.79    0.90
  16  -6   5    4.27    1.05
 -15   5  -5   19.40    2.15
  15  -5  -5   11.18    1.76
  15  -5   5   14.13    1.82
 -15   5   5   12.32    1.81
  14  -4  -5    8.12    1.49
 -14   4   5    7.61    1.44
 -13   3  -5    2.42    0.83
  13  -3   5    2.11    0.66
 -12   2  -5   -0.14    0.37
  12  -2  -5    0.59    0.51
  12  -2   5    0.36    0.32
 -12   2   5    0.06    0.47
  11  -1  -5   33.19    3.56
 -11   1   5   36.68    3.53
 -11   1   5   35.81    3.46
 -10   0  -5   31.50    3.21
 -10   0  -5   33.93    3.40
  10   0   5   32.40    3.26
  -9  -1  -5    7.03    1.27
  -9  -1  -5    6.68    1.16
   9   1   5    7.07    1.20
   8   2  -5    1.34    0.65
  -8  -2  -5    0.11    0.38
  -8  -2  -5    0.09    0.39
   8   2   5    0.25    0.36
  -8  -2   5    2.86    0.69
  -8  -2   5    3.13    0.80
  -7  -3  -5    9.78    1.38
   6   4  -5    3.59    0.95
  -6  -4   5    5.29    0.85
  -6  -4   5    4.51    0.97
  -5  -5  -5   14.71    1.79
  -5  -5  -5   14.70    1.79
   5   5   5   13.04    1.61
  -4  -6  -5    0.41    0.43
  -4  -6  -5    0.29    0.45
   4   6  -5    4.35    1.00
  -4  -6   5    4.12    0.97
  -3  -7  -5    2.20    0.81
   3   7  -5    1.21    0.62
  -3  -7  -5    1.78    0.68
  -3  -7   5    0.93    0.57
   3   7   5    2.26    0.59
  -1  -9  -5   67.21    6.66
   1   9   5   75.41    6.23
   1   9   5   71.98    6.49
   0  10  -5    3.98    1.11
   0 -10  -5    3.81    1.08
   0  10   5    3.67    0.96
   0 -10   5    3.20    0.91
  -2  12  -5    0.06    0.41
   2 -12  -5    0.10    0.48
  -2  12   5    0.27    0.45
   2 -12   5   -0.05    0.38
  -3  13  -5    5.62    1.30
   3 -13   5    5.53    1.17
  -4  14  -5   11.38    1.72
   4 -14   5   10.72    1.56
  -5  15  -5    5.72    1.40
   5 -15  -5    8.72    1.71
  -5  15   5    9.87    1.57
   5 -15   5    4.00    1.05
  -6  16  -5    2.86    0.94
   6 -16  -5    1.78    0.99
   6 -16   5    2.62    0.85
  -6  16   5    2.87    0.99
  14  -4  -6    1.86    0.68
 -14   4   6    1.09    0.54
  13  -3  -6    1.94    0.71
 -13   3   6    1.40    0.60
  12  -2  -6    0.26    0.42
 -12   2  -6   -0.26    0.20
  12  -2   6    0.37    0.27
 -12   2   6    0.52    0.48
 -11   1  -6    7.01    1.39
  11  -1   6    7.42    1.36
 -10   0   6   11.25    1.61
   9   1  -6   18.53    2.37
  -9  -1  -6   24.19    2.50
  -9  -1  -6   22.85    2.44
   9   1   6   18.92    2.31
  -9  -1   6   17.69    2.26
  -9  -1   6   21.59    2.37
  -8  -2  -6   -0.10    0.28
   8   2  -6    1.05    0.58
  -8  -2  -6   -0.16    0.38
   8   2   6    0.00    0.29
  -8  -2   6    0.67    0.55
  -8  -2   6    0.86    0.57
  -7  -3  -6    3.02    0.93
   7   3  -6    2.29    0.82
  -7  -3  -6    2.31    0.80
   7   3   6    1.96    0.68
  -7  -3   6    3.43    0.94
   6   4  -6   24.96    2.77
  -6  -4  -6   24.80    2.71
  -6  -4  -6   23.85    2.73
   6   4   6   23.32    2.59
  -6  -4   6   23.94    2.68
  -5  -5  -6   15.91    2.05
  -5  -5  -6   15.44    2.06
  -5  -5   6   22.94    2.31
   5   5   6   14.95    1.93
  -4  -6  -6    0.28    0.36
  -4  -6  -6    0.62    0.56
   4   6   6    1.34    0.53
   3   7  -6   -0.11    0.31
  -3  -7  -6   -0.01    0.40
  -3  -7  -6    0.04    0.32
   3   7   6   -0.35    0.31
  -3  -7   6    0.05    0.33
   2   8  -6    3.62    1.10
  -2  -8  -6    5.58    1.28
  -2  -8   6    3.26    0.98
   2   8   6    4.76    0.97
   2   8   6    4.81    1.08
   1   9  -6    1.81    0.77
  -1  -9  -6    1.04    0.52
  -1  -9   6    1.56    0.65
   0 -10  -6    1.21    0.63
   0  10  -6    1.98    0.76
   0 -10   6    1.87    0.72
   0  10   6    2.36    0.73
  -1  11  -6    2.71    0.95
   1 -11  -6    2.89    0.94
   1 -11   6    2.62    0.85
  -1  11   6    2.44    0.80
  -2  12  -6    1.22    0.66
   2 -12  -6    0.47    0.49
  -2  12   6    0.22    0.45
   2 -12   6    0.77    0.47
  -3  13  -6    7.34    1.64
   3 -13  -6    6.37    1.53
  -3  13   6    6.54    1.47
   3 -13   6    8.08    1.52
  -9  -1  -7    1.10    0.64
  -9  -1  -7    0.34    0.33
   9   1  -7    1.23    0.69
   9   1   7    0.41    0.54
  -8  -2  -7    0.43    0.34
  -8  -2  -7    0.16    0.47
   8   2  -7    0.44    0.53
   8   2   7    0.62    0.45
  -8  -2   7    0.14    0.35
  -7  -3  -7    3.31    1.00
  -7  -3  -7    3.42    0.92
   7   3   7    2.60    0.79
  -6  -4  -7    1.06    0.63
  -6  -4  -7    0.84    0.43
   6   4  -7    0.30    0.55
   6   4   7    0.78    0.45
  -6  -4   7    0.53    0.39
  -3  -7  -7   -0.06    0.31
   3   7  -7    0.75    0.65
   3   7   7    0.26    0.35
  -3  -7   7    0.11    0.51
   2   8  -7    8.56    1.82
  -2  -8   7    9.30    1.80
  -1  -9  -7    4.83    1.28
   1   9   7    5.43    1.25
  -1  -9   7    0.53    0.72
 -21   9   0   67.56    6.45
  21  -9   0   66.78    6.26
  20  -8   0    0.36    0.36
 -20   8   0    0.07    0.35
 -19   7   0    0.33    0.46
  19  -7   0   -0.21    0.30
  18  -6   0    2.07    0.78
 -18   6   0    2.78    0.95
  17  -5   0    0.44    0.44
 -17   5   0    0.19    0.50
 -16   4   0   -0.01    0.44
  16  -4   0   -0.22    0.33
 -15   3   0   12.06    1.41
  15  -3   0   11.39    1.45
 -15   3   0   10.04    1.47
  14  -2   0    0.01    0.27
 -14   2   0   -0.09    0.37
 -14   2   0   -0.05    0.30
 -13   1   0    0.11    0.31
  13  -1   0    0.09    0.33
 -13   1   0   -0.03    0.36
 -12   0   0   33.74    3.05
 -12   0   0   30.05    3.06
  12   0   0   33.41    2.98
  11   1   0    0.07    0.25
 -11  -1   0   -0.19    0.24
 -11  -1   0    0.44    0.34
 -10  -2   0   -0.06    0.26
  10   2   0    0.01    0.23
 -10  -2   0    0.26    0.28
  -9  -3   0   17.20    1.81
   9   3   0   18.52    1.73
  -9  -3   0   17.84    1.79
  -8  -4   0   -0.28    0.15
   8   4   0   -0.03    0.12
  -8  -4   0   -0.16    0.25
   8   4   0    0.06    0.20
   7   5   0    0.05    0.17
  -7  -5   0    0.02    0.17
   7   5   0    0.04    0.17
  -7  -5   0   -0.16    0.19
   6   6   0   28.97    2.53
  -6  -6   0   27.28    2.46
  -6  -6   0   29.77    2.58
  -6  -6   0   28.75    2.65
  -5  -7   0   -0.09    0.15
   5   7   0    0.00    0.17
  -5  -7   0   -0.07    0.17
  -5  -7   0    0.04    0.22
  -4  -8   0   -0.09    0.18
  -4  -8   0    0.13    0.24
  -4  -8   0    0.05    0.16
   4   8   0   -0.03    0.17
  -3  -9   0  184.88   14.73
  -3  -9   0  187.74   14.69
  -3  -9   0  185.93   14.87
   3   9   0  173.22   15.18
   2  10   0    0.14    0.27
  -2 -10   0   -0.08    0.21
  -2 -10   0    0.27    0.24
   2  10   0    0.03    0.13
  -1 -11   0    0.03    0.23
  -1 -11   0    0.05    0.21
   1  11   0   -0.26    0.26
   1  11   0   -0.07    0.14
   0  12   0    2.82    0.43
   0  12   0    2.83    0.71
   0 -12   0    2.12    0.56
   0 -12   0    3.39    0.58
  -1  13   0   -0.05    0.37
  -1  13   0   -0.05    0.16
   1 -13   0    0.03    0.16
   1 -13   0    0.10    0.28
  -2  14   0    0.16    0.22
  -2  14   0    0.04    0.38
   2 -14   0    0.24    0.18
   2 -14   0   -0.07    0.26
   3 -15   0    0.02    0.32
  -3  15   0    0.13    0.44
  -3  15   0   -0.22    0.25
  -4  16   0   -0.36    0.42
   4 -16   0   -0.07    0.35
   5 -17   0   -0.05    0.36
  -5  17   0   -0.36    0.43
  -6  18   0   79.48    7.43
   6 -18   0   80.15    7.08
  -7  19   0    0.60    0.47
   7 -19   0    0.50    0.40
   8 -20   0   -0.02    0.23
  -8  20   0    0.11    0.34
   9 -21   0    8.49    1.59
  -9  21   0    8.53    1.73
  21  -9  -1    2.51    0.91
 -21   9  -1    2.98    1.06
  21  -9   1    1.45    0.63
 -21   9   1    3.65    1.15
 -20   8  -1    5.16    1.26
  20  -8  -1    5.55    1.26
 -20   8   1    7.27    1.43
  20  -8   1    5.26    1.16
  19  -7  -1    0.32    0.35
 -19   7  -1   -0.02    0.34
 -19   7   1   -0.12    0.30
  19  -7   1    0.44    0.42
  18  -6  -1   12.53    1.67
 -18   6   1   11.53    1.71
 -17   5  -1   11.53    1.69
  17  -5  -1   16.02    1.76
  17  -5   1    8.45    1.40
  17  -5   1   11.38    1.40
 -17   5   1   15.21    1.81
  16  -4  -1   18.78    2.35
 -16   4  -1   24.13    2.58
  16  -4   1   26.02    2.33
 -16   4   1   18.24    2.42
 -16   4   1   20.24    2.22
  16  -4   1   26.72    2.44
  15  -3  -1    4.79    0.98
 -15   3   1    4.48    1.06
 -15   3   1    6.30    0.94
  14  -2  -1    0.87    0.48
 -14   2  -1    0.88    0.55
  14  -2   1    0.79    0.39
 -14   2   1    0.89    0.42
  14  -2   1    0.86    0.46
 -14   2   1    1.17    0.57
  13  -1  -1   11.49    1.32
 -13   1   1    9.34    1.22
 -13   1   1   10.59    1.38
  12   0  -1  300.42   24.70
  12   0  -1  316.15   25.36
 -12   0   1  301.95   25.01
 -12   0   1  322.58   25.24
  11   1  -1   45.33    3.55
  11   1  -1   43.47    3.35
 -11  -1  -1   34.47    3.56
 -11  -1  -1   34.74    3.58
 -11  -1   1   42.02    3.60
 -11  -1   1   42.57    3.58
  11   1   1   31.21    3.37
  10   2  -1    2.27    0.56
 -10  -2  -1    4.17    0.78
  10   2  -1    2.43    0.39
 -10  -2  -1    3.58    0.67
 -10  -2   1    2.22    0.58
  10   2   1    3.89    0.60
 -10  -2   1    3.09    0.62
  -9  -3  -1    6.49    0.89
  -8  -4  -1   46.44    4.74
  -8  -4  -1   50.65    4.67
   8   4  -1   64.94    4.74
  -8  -4  -1   49.41    4.83
   8   4   1   48.01    4.63
  -8  -4   1   66.78    4.91
  -8  -4   1   67.78    4.78
  -7  -5  -1   78.93    5.83
   7   5  -1   56.67    5.66
  -7  -5  -1   78.81    5.69
  -7  -5  -1   75.76    5.70
  -7  -5   1   57.71    5.71
  -7  -5   1   59.68    5.58
   5   7  -1    1.02    0.35
  -5  -7  -1    0.84    0.33
  -5  -7  -1    1.31    0.39
  -5  -7  -1    0.61    0.27
  -5  -7  -1    0.68    0.26
  -5  -7   1    0.97    0.38
  -5  -7   1    0.64    0.30
  -5  -7   1    0.85    0.24
   4   8  -1   22.12    2.48
  -4  -8  -1   29.57    2.44
  -4  -8  -1   29.97    2.41
  -4  -8  -1   29.07    2.54
  -4  -8  -1   28.66    2.50
  -4  -8   1   21.55    2.45
  -3  -9  -1    9.32    1.07
  -3  -9  -1   10.88    1.20
  -3  -9  -1    8.61    1.05
  -3  -9  -1    9.42    1.00
  -2 -10  -1   40.66    3.65
  -2 -10  -1   42.69    3.87
  -2 -10  -1   39.45    3.63
   2  10   1   44.13    3.61
  -1 -11  -1   11.59    1.38
   1  11  -1    8.33    1.26
  -1 -11  -1   10.82    1.20
  -1 -11  -1   12.13    1.15
  -1 -11   1    9.54    1.20
  -1 -11   1    8.68    1.20
   1  11   1   10.77    1.08
   0 -12  -1    0.68    0.48
   0 -12  -1    0.95    0.29
   0 -12  -1    0.58    0.36
   0  12  -1    0.67    0.47
   0 -12   1    0.96    0.41
   0  12   1    0.63    0.29
   0 -12   1    0.52    0.37
  -1  13  -1   32.66    2.86
   1 -13  -1   25.30    2.37
   1 -13  -1   25.10    2.55
   1 -13  -1   24.85    2.76
  -1  13   1   22.43    2.41
   1 -13   1   32.29    2.65
   2 -14  -1   40.22    3.34
   2 -14  -1   38.60    3.56
  -2  14  -1   27.53    3.34
   2 -14   1   29.96    3.20
   2 -14   1   32.47    3.14
  -2  14   1   39.50    3.20
   3 -15   1  107.35   10.05
  -3  15   1  150.35   10.78
   3 -15   1  110.77   10.01
   4 -16  -1    0.35    0.40
  -4  16  -1   -0.04    0.44
  -4  16   1    0.34    0.39
   4 -16   1    0.32    0.43
  -4  16   1    0.38    0.56
   5 -17  -1    9.09    1.32
  -5  17  -1    6.63    1.45
   5 -17   1    6.56    1.28
  -5  17   1   10.09    1.63
  -5  17   1    9.45    1.26
   6 -18  -1   19.12    2.30
  -6  18   1   20.06    2.19
  -6  18   1   21.89    2.65
   7 -19  -1   12.49    1.74
  -7  19  -1   15.14    2.06
  -7  19   1   11.52    1.86
   7 -19   1   16.18    1.89
  -8  20  -1    1.70    0.77
   8 -20  -1    1.79    0.66
   8 -20   1    1.15    0.51
  -8  20   1    2.23    0.79
  -9  21  -1    2.92    1.03
   9 -21  -1    4.84    1.16
  -9  21   1    4.14    1.19
   9 -21   1    1.79    0.83
 -21   9  -2    5.43    1.37
  21  -9  -2    5.82    1.32
 -21   9   2    4.69    1.35
  21  -9   2    5.10    1.16
 -20   8  -2    0.52    0.45
  20  -8  -2    0.46    0.36
 -20   8   2    0.31    0.46
  20  -8   2    0.35    0.35
 -19   7  -2    0.47    0.41
  19  -7  -2    0.21    0.35
  19  -7   2   -0.38    0.27
 -19   7   2    0.67    0.51
 -18   6  -2   36.18    3.72
  18  -6  -2   29.93    3.45
  18  -6   2   37.19    3.46
 -18   6   2   35.86    3.77
  18  -6   2   36.50    3.49
  17  -5  -2    0.23    0.46
 -17   5  -2    1.11    0.62
  17  -5   2    1.11    0.54
  17  -5   2    1.03    0.55
 -17   5   2    0.19    0.55
 -16   4  -2    5.22    1.21
  16  -4  -2    6.17    1.20
  16  -4   2    6.74    1.09
  16  -4   2    6.79    1.11
 -16   4   2    5.82    1.27
 -15   3  -2   15.04    1.92
  15  -3  -2   17.37    1.91
  15  -3   2   15.55    1.75
  15  -3   2   16.02    1.78
 -15   3   2   17.40    2.02
 -15   3   2   14.31    1.65
  14  -2  -2    0.14    0.38
 -14   2  -2    0.29    0.43
  14  -2   2    0.08    0.36
 -14   2   2    0.09    0.34
 -14   2   2    0.59    0.54
  14  -2   2    0.07    0.25
  13  -1  -2    0.54    0.23
  13  -1  -2    0.18    0.31
 -13   1  -2   -0.22    0.32
  13  -1   2    0.17    0.32
 -13   1   2    0.35    0.37
  13  -1   2   -0.01    0.30
 -13   1   2    1.00    0.54
  12   0  -2  218.02   17.02
 -12   0  -2  194.28   16.98
  12   0  -2  212.94   16.60
  12   0   2  186.75   16.46
  12   0   2  193.21   16.80
 -12   0   2  212.81   16.77
 -12   0   2  222.81   16.97
  11   1  -2    5.73    0.69
 -11  -1  -2    4.96    0.90
  11   1  -2    4.91    0.84
 -11  -1  -2    4.99    0.62
 -11  -1   2    5.48    0.90
 -11  -1   2    5.47    0.88
  11   1   2    5.17    0.86
  11   1   2    5.06    0.73
  10   2  -2   -0.03    0.23
 -10  -2  -2    0.22    0.33
 -10  -2  -2    0.14    0.18
  10   2  -2    0.08    0.17
 -10  -2   2   -0.12    0.27
  10   2   2    0.14    0.26
  10   2   2    0.03    0.17
 -10  -2   2    0.00    0.29
   9   3  -2   36.16    3.35
   9   3  -2   38.21    3.38
  -9  -3  -2   38.88    3.32
  -9  -3  -2   39.10    3.53
  -9  -3  -2   37.01    3.48
  -9  -3   2   39.06    3.47
   9   3   2   39.41    3.29
  -9  -3   2   37.76    3.38
  -8  -4  -2    0.21    0.30
  -8  -4  -2    0.20    0.19
   8   4  -2    0.12    0.22
  -8  -4  -2    0.04    0.23
   8   4  -2    0.23    0.19
  -8  -4   2   -0.19    0.29
   8   4   2   -0.03    0.10
  -8  -4   2    0.19    0.19
  -7  -5  -2    1.55    0.47
  -7  -5  -2    2.02    0.41
   7   5  -2    1.59    0.39
   7   5  -2    1.43    0.41
  -7  -5  -2    1.39    0.48
  -7  -5   2    1.42    0.35
  -7  -5   2    1.68    0.53
   7   5   2    1.78    0.34
  -6  -6  -2   79.05    6.62
   6   6  -2   75.46    6.39
  -6  -6  -2   80.26    6.61
   6   6  -2   72.90    6.59
  -6  -6  -2   76.42    6.56
   6   6   2   76.59    6.29
  -6  -6   2   85.00    6.66
  -6  -6   2   76.20    6.35
  -5  -7  -2    0.21    0.26
   5   7  -2    0.30    0.28
  -5  -7  -2    0.24    0.15
  -5  -7  -2    0.35    0.25
  -5  -7  -2    0.06    0.25
  -5  -7   2    0.02    0.28
  -5  -7   2    0.08    0.26
  -5  -7   2    0.24    0.26
  -4  -8  -2    0.75    0.35
  -4  -8  -2    0.51    0.30
   4   8  -2    0.89    0.45
  -4  -8  -2    0.63    0.32
  -4  -8  -2    0.95    0.29
  -4  -8   2    0.82    0.38
  -4  -8   2    1.63    0.51
  -3  -9  -2  105.69    8.77
  -3  -9  -2  102.85    9.01
  -3  -9  -2  109.11    8.72
  -3  -9  -2  103.90    8.57
   3   9  -2  103.08    9.00
  -3  -9   2  105.55    8.64
  -3  -9   2  106.80    8.81
   2  10  -2   -0.19    0.34
  -2 -10  -2    0.63    0.43
  -2 -10  -2   -0.09    0.20
  -2 -10  -2    0.10    0.22
  -2 -10  -2    0.08    0.13
  -2 -10   2    0.08    0.27
  -2 -10   2    0.08    0.26
  -1 -11  -2    3.21    0.81
  -1 -11  -2    2.56    0.58
   1  11  -2    3.79    0.82
  -1 -11  -2    3.55    0.48
  -1 -11   2    3.12    0.69
   1  11   2    2.49    0.58
  -1 -11   2    2.93    0.67
   0 -12  -2   54.42    5.04
   0 -12  -2   54.50    4.55
   0 -12  -2   52.25    4.66
   0  12  -2   53.54    5.02
   0 -12   2   56.91    4.79
   0  12   2   51.56    4.69
   0 -12   2   56.52    4.79
   1 -13  -2    0.81    0.57
   1 -13  -2    1.03    0.44
  -1  13  -2    0.85    0.61
  -1  13   2    0.77    0.40
   1 -13   2    0.97    0.47
   1 -13   2    1.13    0.48
   2 -14  -2    4.00    1.04
   2 -14  -2    3.95    0.81
  -2  14  -2    4.02    1.07
  -2  14   2    4.44    0.80
   2 -14   2    3.62    0.80
   2 -14   2    3.46    0.75
  -3  15  -2  113.96   10.72
   3 -15  -2  138.27   10.86
   3 -15  -2  135.32   10.21
   3 -15   2  109.86   10.12
   3 -15   2  107.18   10.07
  -3  15   2  129.20   10.26
  -4  16  -2    0.09    0.57
   4 -16  -2    0.04    0.33
   4 -16  -2    0.09    0.43
   4 -16   2    0.33    0.41
   4 -16   2    0.09    0.35
  -4  16   2   -0.19    0.31
   5 -17  -2   -0.08    0.35
   5 -17  -2   -0.17    0.42
  -5  17  -2   -0.06    0.55
  -5  17   2    0.56    0.41
   5 -17   2    0.13    0.37
  -6  18  -2   19.42    2.46
   6 -18  -2   16.96    2.09
   6 -18  -2   18.61    2.33
   6 -18   2   16.66    2.07
  -6  18   2   18.35    2.09
  -7  19  -2    1.00    0.75
   7 -19  -2    1.45    0.61
   7 -19   2    1.83    0.63
  -7  19   2    1.75    0.72
  -7  19   2    1.42    0.70
  -8  20  -2    0.04    0.53
   8 -20  -2   -0.17    0.22
  -8  20   2   -0.39    0.30
  -8  20   2   -0.05    0.37
   8 -20   2    0.30    0.34
  20  -8  -3    7.30    1.51
 -20   8   3    6.96    1.62
 -19   7  -3    0.15    0.29
  19  -7  -3    0.37    0.39
  19  -7   3    1.27    0.48
 -19   7   3    0.43    0.48
 -18   6  -3    5.27    1.25
  18  -6   3    7.18    1.20
  18  -6   3    6.44    1.22
 -17   5  -3   21.91    2.58
  17  -5   3   21.96    2.37
  17  -5   3   22.75    2.43
 -16   4  -3   27.06    2.87
  16  -4   3   23.49    2.64
  16  -4   3   26.68    2.60
 -15   3  -3    3.30    0.97
  15  -3   3    3.19    0.85
  15  -3   3    2.99    0.75
  14  -2  -3    3.32    0.71
 -14   2  -3    0.90    0.60
  14  -2  -3    2.76    0.77
 -14   2   3    2.50    0.67
  14  -2   3    1.27    0.59
 -14   2   3    3.36    0.94
  13  -1  -3   27.53    2.78
  13  -1  -3   30.39    2.86
 -13   1   3   30.09    2.99
 -13   1   3   28.16    2.79
  12   0  -3   97.08    7.89
  12   0  -3   95.09    8.07
 -12   0   3   91.49    8.04
 -12   0   3   91.77    7.96
 -10  -2  -3    0.30    0.19
  10   2  -3   -0.17    0.25
  10   2  -3    0.13    0.31
 -10  -2  -3    0.46    0.44
 -10  -2   3    0.32    0.36
  10   2   3    0.55    0.21
  10   2   3    0.48    0.36
 -10  -2   3   -0.18    0.26
   9   3  -3    2.94    0.65
   9   3  -3    3.42    0.66
  -9  -3   3    2.80    0.72
  -9  -3   3    3.36    0.65
   8   4  -3   32.59    3.06
   8   4  -3   35.52    3.25
  -8  -4   3   37.61    3.33
  -8  -4   3   33.71    3.08
  -7  -5  -3   47.07    3.98
  -7  -5  -3   43.10    3.99
   7   5   3   41.74    3.90
   7   5   3   43.76    3.64
  -5  -7  -3    0.43    0.35
   5   7  -3    0.26    0.32
  -5  -7  -3    0.36    0.17
  -5  -7  -3    0.07    0.27
   5   7  -3    0.37    0.27
  -5  -7   3    0.91    0.26
  -5  -7   3    0.24    0.39
   5   7   3    0.23    0.27
  -4  -8  -3   32.89    2.93
  -4  -8  -3   34.63    3.29
  -4  -8  -3   37.42    3.26
   4   8   3   33.20    3.07
  -3  -9  -3    7.76    1.17
  -3  -9  -3    8.91    1.15
  -3  -9  -3    8.89    0.94
   3   9   3    8.31    0.99
  -2 -10  -3    6.92    1.06
  -2 -10  -3    6.70    0.86
  -2 -10  -3    5.79    1.00
   2  10   3    7.04    0.82
  -1 -11  -3   -0.04    0.22
  -1 -11  -3   -0.03    0.32
   1  11  -3    0.23    0.46
   1  11   3    0.39    0.37
  -1 -11   3    0.00    0.31
   1  11   3    0.28    0.18
  -1 -11   3   -0.11    0.29
   0  12  -3    0.98    0.62
   0 -12  -3    1.09    0.41
   0 -12  -3    1.12    0.59
   0 -12   3    1.15    0.51
   0 -12   3    1.04    0.46
   0  12   3    1.16    0.52
  -1  13  -3   24.49    2.81
   1 -13   3   27.64    2.63
   1 -13   3   26.15    2.64
   2 -14  -3   34.93    3.67
   2 -14  -3   38.97    3.37
  -2  14   3   32.35    3.37
   3 -15  -3   55.06    5.33
   3 -15  -3   54.68    4.90
  -3  15   3   54.55    5.00
   4 -16  -3    7.77    1.56
  -4  16  -3    9.33    1.60
   4 -16  -3    6.72    1.21
   4 -16   3   11.57    1.39
  -4  16   3    7.51    1.31
   4 -16   3   10.09    1.33
   5 -17  -3    3.93    0.96
   5 -17  -3    3.77    1.10
  -5  17   3    4.51    1.05
   6 -18   3    9.31    1.34
   7 -19  -3    4.87    1.05
   7 -19  -3    4.51    1.28
  -7  19   3    4.75    1.11
   8 -20  -3   12.22    2.15
   8 -20  -3   11.88    1.61
  -8  20   3   10.55    1.58
  19  -7  -4    0.06    0.29
  19  -7   4    0.57    0.30
 -19   7   4    0.04    0.47
  18  -6  -4    1.09    0.47
 -18   6  -4   -0.07    0.31
  18  -6   4    0.19    0.24
 -18   6   4    0.98    0.65
  17  -5  -4    4.05    0.99
 -17   5  -4    1.18    0.62
  17  -5   4    2.13    0.68
 -17   5   4    5.37    1.22
  16  -4  -4   -0.09    0.37
 -16   4  -4    0.98    0.58
 -16   4   4    0.29    0.47
  16  -4   4    1.16    0.53
  15  -3  -4    5.31    1.11
 -15   3  -4    5.94    1.28
  15  -3  -4    5.76    1.12
 -15   3   4    5.45    1.25
  15  -3   4    4.76    1.08
  14  -2  -4    0.05    0.37
  14  -2  -4    0.07    0.35
 -14   2  -4    0.01    0.40
  14  -2   4    0.10    0.34
 -14   2   4    0.07    0.40
  13  -1  -4    5.13    0.98
  13  -1  -4    3.65    0.87
 -13   1   4    3.58    0.96
 -13   1   4    5.05    0.98
  12   0  -4   11.01    1.38
  12   0  -4   10.61    1.44
 -12   0   4   10.98    1.42
 -12   0   4   10.95    1.48
 -11  -1  -4    0.75    0.38
  11   1  -4    0.81    0.43
 -11  -1  -4    0.57    0.51
  11   1  -4    0.31    0.44
 -11  -1   4    0.22    0.42
 -11  -1   4    1.12    0.57
  11   1   4    0.63    0.44
  10   2  -4    1.34    0.50
 -10  -2  -4    1.26    0.60
 -10  -2  -4    1.68    0.51
  10   2  -4    1.62    0.63
 -10  -2   4    1.43    0.62
  10   2   4    1.37    0.57
 -10  -2   4    2.01    0.62
  -9  -3  -4    7.49    1.24
   9   3  -4    7.53    0.99
  -9  -3  -4    6.09    0.97
   9   3  -4    7.14    1.11
  -9  -3   4    7.64    1.19
   9   3   4    6.50    1.11
  -9  -3   4    7.77    1.02
   8   4  -4   16.74    1.70
  -8  -4  -4   15.92    1.77
  -8  -4  -4   17.46    1.89
   8   4  -4   14.50    1.80
  -8  -4   4   14.76    1.64
   8   4   4   18.50    1.86
  -8  -4   4   15.42    1.83
   7   5  -4   11.80    1.24
   7   5  -4   11.17    1.45
  -7  -5   4   10.95    1.22
  -7  -5   4    9.48    1.41
  -6  -6  -4   13.43    1.55
  -6  -6  -4   14.42    1.60
   6   6  -4   13.34    1.38
   6   6  -4   10.83    1.50
   6   6   4   12.67    1.48
  -6  -6   4   11.79    1.53
   5   7  -4    0.60    0.47
  -5  -7  -4    0.48    0.42
  -5  -7  -4    0.40    0.41
   5   7  -4    0.13    0.24
   5   7   4    0.34    0.35
  -5  -7   4    0.63    0.43
  -4  -8  -4    1.59    0.62
  -4  -8  -4    1.91    0.68
   4   8  -4    3.64    0.60
   4   8  -4    2.86    0.81
  -4  -8   4    2.63    0.76
   4   8   4    2.11    0.60
  -3  -9  -4   68.82    5.93
  -3  -9  -4   65.76    6.05
   3   9  -4   65.19    6.02
   3   9   4   67.20    5.67
  -3  -9   4   63.22    5.86
   2  10  -4    7.64    1.32
  -2 -10   4    7.60    1.03
  -2 -10   4    7.20    1.22
   1  11  -4   15.73    1.89
  -1 -11  -4   12.68    1.80
  -1 -11   4   14.25    1.56
  -1 -11   4   15.55    1.82
   1  11   4   12.70    1.69
   0 -12  -4    0.51    0.53
   0  12  -4    0.07    0.45
   0  12   4   -0.18    0.33
   0 -12   4    0.78    0.44
   0 -12   4    0.51    0.51
   1 -13  -4    2.38    0.87
  -1  13  -4    2.88    1.00
   1 -13   4    2.44    0.66
  -1  13   4    3.64    0.90
   1 -13   4    2.66    0.85
  -2  14  -4    1.50    0.83
   2 -14  -4    0.24    0.49
  -2  14   4    0.28    0.47
   2 -14   4    1.43    0.67
   2 -14   4    2.20    0.60
   3 -15  -4    1.17    0.69
  -3  15  -4    1.54    0.80
   3 -15   4    1.36    0.57
   3 -15   4    1.83    0.74
  -3  15   4    0.41    0.49
  -4  16  -4    1.28    0.67
   4 -16  -4    0.33    0.43
   4 -16  -4    0.01    0.37
   4 -16   4    1.40    0.61
   4 -16   4    1.32    0.63
  -4  16   4    0.00    0.36
   5 -17  -4    0.70    0.47
   5 -17  -4    1.61    0.66
  -5  17  -4    2.38    0.81
   5 -17   4    1.35    0.61
  -5  17   4    0.93    0.56
   5 -17   4    1.55    0.62
   6 -18  -4   32.87    3.40
  -6  18  -4   35.27    3.89
   6 -18  -4   28.60    3.77
   6 -18   4   36.35    3.53
   6 -18   4   37.04    3.49
  -6  18   4   35.71    3.66
 -17   5  -5    0.30    0.44
  17  -5   5    0.75    0.44
 -17   5   5    1.95    0.73
 -16   4  -5   13.83    1.88
  16  -4   5   10.21    1.53
  15  -3  -5    1.58    0.71
 -15   3  -5    0.24    0.32
  15  -3  -5    0.40    0.50
  15  -3   5   -0.21    0.19
 -15   3   5    1.49    0.65
  14  -2  -5    0.28    0.46
 -14   2  -5    0.12    0.27
  14  -2  -5   -0.16    0.39
  14  -2   5    0.19    0.27
 -14   2   5    0.33    0.50
  13  -1  -5    2.36    0.79
 -13   1  -5    1.67    0.71
  13  -1  -5    1.64    0.71
  13  -1   5    1.45    0.58
 -13   1   5    0.93    0.68
 -12   0  -5   38.08    4.59
  12   0  -5   49.91    4.68
 -12   0   5   54.91    4.60
 -12   0   5   50.21    4.58
  11   1  -5   34.39    3.59
 -11  -1   5   37.80    3.59
 -11  -1   5   35.23    3.51
 -10  -2  -5    4.45    1.07
 -10  -2  -5    4.65    0.96
  10   2   5    3.76    0.93
   9   3  -5    0.08    0.39
  -9  -3  -5    1.02    0.57
  -9  -3  -5    0.79    0.52
  -9  -3   5    0.27    0.45
   9   3   5    0.89    0.51
  -9  -3   5    0.12    0.33
   8   4  -5   53.66    5.07
  -8  -4   5   54.25    5.01
  -7  -5  -5   53.14    5.01
  -7  -5  -5   52.56    5.00
   7   5   5   56.18    4.93
   6   6  -5    4.13    0.98
  -6  -6  -5    1.72    0.70
  -6  -6  -5    1.07    0.57
   6   6   5    0.98    0.49
  -5  -7  -5    0.35    0.51
  -5  -7  -5    0.43    0.42
   5   7  -5    2.59    0.82
  -5  -7   5    2.27    0.75
   5   7   5    0.26    0.36
  -4  -8  -5   13.81    1.71
  -4  -8  -5   11.86    1.68
   4   8   5   11.54    1.46
   3   9  -5    1.46    0.74
  -3  -9  -5    1.71    0.69
  -3  -9  -5    1.96    0.79
   3   9   5    0.72    0.40
  -3  -9   5    1.94    0.74
   2  10  -5   55.20    5.50
  -2 -10   5   58.86    5.38
   0  12  -5    0.25    0.48
   0 -12  -5   -0.01    0.42
   0 -12   5   -0.29    0.34
   0  12   5    0.22    0.40
   3 -15  -5   26.47    3.05
  -3  15  -5   22.13    2.87
  -3  15   5   30.33    2.97
   3 -15   5   21.23    2.70
  -4  16  -5    4.96    1.33
   4 -16  -5    6.13    1.47
   4 -16   5    7.31    1.38
  -4  16   5    4.92    1.21
   5 -17  -5   12.82    2.32
 -14   2  -6    0.97    0.64
  14  -2  -6    0.73    0.46
 -14   2   6    0.80    0.49
  14  -2   6    0.79    0.39
 -13   1  -6    0.27    0.42
  13  -1  -6    3.38    0.91
  13  -1   6    0.99    0.52
 -13   1   6    3.71    0.94
 -12   0  -6   32.09    3.44
  12   0  -6   37.19    3.54
  12   0   6   26.99    3.25
  11   1  -6   13.56    1.84
 -11  -1   6   12.55    1.80
 -11  -1   6   15.84    1.96
 -10  -2  -6    0.74    0.41
  10   2  -6    0.24    0.36
 -10  -2  -6    0.00    0.42
 -10  -2   6   -0.09    0.44
  10   2   6    0.37    0.33
   9   3  -6    4.39    1.06
  -9  -3  -6    5.65    1.20
  -9  -3  -6    6.03    1.19
   9   3   6    4.34    0.99
  -9  -3   6    4.78    1.10
  -8  -4  -6    1.27    0.70
  -8  -4  -6    0.88    0.44
   8   4  -6    0.19    0.34
  -8  -4   6   -0.25    0.41
   8   4   6    0.86    0.44
  -7  -5  -6    2.59    0.88
   7   5  -6    1.99    0.72
  -7  -5  -6    1.96    0.71
   7   5   6    2.52    0.72
  -7  -5   6    2.14    0.79
  -6  -6  -6   10.08    1.53
  -6  -6  -6    7.85    1.46
   6   6  -6    8.98    1.54
   6   6   6    8.53    1.28
  -6  -6   6    8.67    1.47
   5   7  -6    0.14    0.36
  -5  -7  -6   -0.03    0.44
  -5  -7  -6    0.08    0.33
  -5  -7   6    0.36    0.48
   5   7   6    0.12    0.33
   4   8  -6    2.82    0.90
  -4  -8  -6    1.78    0.67
  -4  -8  -6    2.22    0.81
   4   8   6    1.16    0.55
  -4  -8   6    2.09    0.74
  -3  -9  -6   17.04    2.24
   3   9  -6   16.96    2.27
  -3  -9   6   19.54    2.28
   3   9   6   15.56    2.08
  -2 -10  -6   -0.10    0.30
   2  10  -6    0.45    0.42
  -2 -10   6    0.64    0.45
   2  10   6    0.09    0.23
  -1 -11  -6    2.37    0.90
   1  11  -6    3.06    0.97
   1  11   6    3.61    0.95
  -1 -11   6    3.25    0.96
   0  12  -6    8.73    1.75
   0 -12  -6    7.55    1.61
   0 -12   6    7.20    1.50
   0  12   6    8.03    1.45
   1 -13  -6    2.60    0.90
  -1  13  -6    3.14    1.01
   1 -13   6    1.63    0.74
  -1  13   6    2.56    0.96
  -2  14  -6    6.80    1.65
   2 -14  -6    7.89    1.68
  -2  14   6    8.85    1.68
   2 -14   6    9.98    1.76
  -9  -3   7    0.71    0.41
  -8  -4  -7    0.48    0.58
  -8  -4  -7    0.55    0.39
   8   4  -7    3.72    1.09
  -8  -4   7    4.84    1.10
  -7  -5  -7    9.02    1.73
  -7  -5  -7    9.11    1.63
   7   5   7    8.68    1.48
   6   6  -7    1.42    0.76
  -6  -6  -7    1.78    0.63
  -6  -6  -7    1.39    0.73
  -6  -6   7    0.55    0.51
   6   6   7    1.82    0.58
   5   7  -7    0.64    0.67
  -5  -7  -7   -0.20    0.27
  -5  -7  -7    0.24    0.60
  -5  -7   7    0.74    0.63
   5   7   7    0.42    0.30
   4   8   7   10.03    1.75
  22  -8   0    0.06    0.44
 -22   8   0   -0.34    0.44
 -21   7   0    1.62    0.70
  21  -7   0    1.34    0.60
 -20   6   0    0.06    0.38
  20  -6   0   -0.04    0.27
 -19   5   0    0.17    0.44
  19  -5   0   -0.14    0.36
  18  -4   0   28.68    2.83
  18  -4   0   26.24    2.56
 -18   4   0   23.55    2.81
 -17   3   0   -0.06    0.36
  17  -3   0    0.34    0.44
 -17   3   0   -0.08    0.40
 -16   2   0    0.09    0.41
 -16   2   0    0.16    0.42
  16  -2   0   -0.04    0.37
 -15   1   0   12.78    1.66
  15  -1   0   14.15    1.64
 -15   1   0   14.06    1.66
  14   0   0    0.19    0.36
 -14   0   0   -0.07    0.36
 -14   0   0   -0.24    0.35
  13   1   0    0.04    0.28
 -13  -1   0   -0.16    0.29
 -13  -1   0   -0.06    0.33
 -12  -2   0   15.03    1.64
 -12  -2   0   13.69    1.59
  12   2   0   13.93    1.54
  11   3   0    0.14    0.28
 -11  -3   0   -0.02    0.29
 -11  -3   0    0.08    0.30
 -10  -4   0    0.34    0.27
  10   4   0    0.08    0.23
 -10  -4   0    0.07    0.31
  -9  -5   0  973.50   74.82
   9   5   0  916.42   73.50
  -9  -5   0  893.20   74.60
   9   5   0  957.21   76.08
   8   6   0    0.08    0.22
  -8  -6   0    0.03    0.28
  -8  -6   0    0.08    0.13
   8   6   0    0.04    0.18
  -7  -7   0   -0.05    0.11
   7   7   0    0.06    0.18
  -7  -7   0   -0.22    0.21
   7   7   0   -0.11    0.18
  -6  -8   0  102.30    7.94
  -6  -8   0  101.19    7.99
   6   8   0   92.76    8.13
  -6  -8   0   91.17    8.10
   5   9   0   -0.10    0.16
  -5  -9   0    0.00    0.24
  -5  -9   0    0.04    0.15
  -5  -9   0   -0.09    0.20
   4  10   0   -0.10    0.21
  -4 -10   0   -0.01    0.13
  -4 -10   0   -0.08    0.22
  -4 -10   0    0.15    0.24
  -3 -11   0   37.87    3.37
   3  11   0   37.86    3.15
   3  11   0   36.37    3.44
  -3 -11   0   36.73    3.37
  -2 -12   0    0.21    0.26
   2  12   0    0.04    0.14
  -2 -12   0   -0.16    0.25
   2  12   0   -0.25    0.27
   1  13   0   -0.08    0.31
   1  13   0    0.05    0.12
  -1 -13   0   -0.05    0.21
  -1 -13   0    0.34    0.32
   0 -14   0  105.06    8.56
   0 -14   0  100.33    8.56
   0  14   0   99.69    8.94
   0  14   0  104.34    8.44
   1 -15   0   -0.07    0.23
  -1  15   0    0.07    0.46
   1 -15   0    0.36    0.33
  -2  16   0   -0.04    0.45
   2 -16   0   -0.30    0.22
  -3  17   0   35.69    3.83
   3 -17   0   39.27    3.67
  -4  18   0    0.43    0.55
   4 -18   0    0.04    0.35
   5 -19   0    0.02    0.31
  -5  19   0    0.28    0.46
   6 -20   0    1.47    0.60
  -6  20   0    1.61    0.74
   7 -21   0    0.28    0.33
  -7  21   0    0.14    0.35
   8 -22   0    0.16    0.42
  -8  22   0   -0.05    0.45
 -22   8  -1    4.57    1.38
  22  -8  -1    3.02    1.12
  22  -8   1    3.60    1.02
 -22   8   1    4.58    1.23
 -21   7  -1    2.48    0.86
  21  -7  -1    2.42    0.82
 -21   7   1    2.27    0.82
  21  -7   1    1.60    0.61
 -20   6  -1    4.28    1.25
  20  -6  -1    8.00    1.39
  20  -6   1    5.78    1.20
 -20   6   1    7.87    1.46
 -19   5  -1   21.22    2.47
  19  -5  -1   15.87    2.16
  19  -5   1   20.25    2.11
  19  -5   1   20.14    2.28
 -18   4  -1   30.69    3.16
  18  -4   1   27.25    2.77
  18  -4   1   26.53    2.84
  17  -3  -1    4.61    1.00
 -17   3  -1    3.10    0.97
 -17   3   1    5.67    1.13
  17  -3   1    3.16    0.78
 -17   3   1    5.55    0.95
  17  -3   1    3.95    0.93
  16  -2  -1    1.20    0.58
 -16   2  -1    2.00    0.77
 -16   2   1    0.50    0.51
  16  -2   1    1.58    0.54
 -16   2   1    1.10    0.52
  16  -2   1    1.22    0.56
  15  -1  -1   28.14    2.77
 -15   1   1   30.32    2.72
 -15   1   1   24.18    2.75
 -14   0  -1   34.03    3.72
  14   0  -1   44.51    3.68
 -14   0  -1   34.79    3.70
 -14   0   1   43.53    3.77
  14   0   1   36.64    3.57
 -14   0   1   44.43    3.67
  13   1  -1    9.60    1.23
 -13  -1   1   10.06    1.30
 -13  -1   1   10.64    1.28
  12   2  -1    3.55    0.45
  12   2  -1    4.06    0.75
 -12  -2   1    3.64    0.74
 -12  -2   1    3.90    0.77
  11   3  -1   12.65    1.09
  11   3  -1   13.73    1.35
 -11  -3  -1   10.40    1.40
 -11  -3  -1    8.55    1.27
 -11  -3   1   12.87    1.42
 -11  -3   1   11.64    1.29
  11   3   1    8.77    1.20
  10   4  -1   43.92    3.87
  10   4  -1   47.62    3.81
 -10  -4   1   45.26    3.91
 -10  -4   1   39.77    3.95
  -8  -6  -1   19.00    1.77
  -8  -6  -1   17.60    1.89
  -8  -6  -1   18.21    1.68
   8   6   1   17.38    1.72
   7   7  -1    0.06    0.22
  -7  -7  -1   -0.09    0.25
   7   7  -1   -0.05    0.15
  -7  -7  -1    0.15    0.18
  -7  -7  -1    0.29    0.20
  -7  -7   1    0.04    0.16
   7   7   1   -0.06    0.17
  -7  -7   1    0.07    0.28
  -5  -9  -1   37.28    3.19
  -5  -9  -1   34.47    3.02
  -5  -9  -1   33.42    3.06
  -5  -9  -1   32.72    3.14
  -4 -10  -1   43.89    3.47
  -4 -10  -1   44.85    3.61
  -4 -10  -1   46.23    3.55
  -4 -10  -1   48.52    3.74
   4  10  -1   32.24    3.57
  -4 -10   1   32.63    3.48
  -4 -10   1   32.14    3.51
  -3 -11  -1    3.27    0.64
  -3 -11  -1    3.06    0.73
  -3 -11  -1    3.61    0.67
  -2 -12  -1    2.45    0.61
  -2 -12  -1    1.62    0.63
   2  12  -1    4.00    0.81
  -2 -12  -1    1.97    0.49
   2  12   1    2.11    0.45
  -2 -12   1    3.44    0.71
  -1 -13  -1   32.02    2.81
  -1 -13  -1   35.37    3.15
  -1 -13  -1   33.03    2.90
  -1 -13   1   27.18    2.85
   1  13   1   32.34    2.76
  -1 -13   1   24.10    2.84
   0 -14  -1    6.69    1.01
   0  14  -1    6.67    1.20
   0 -14  -1    6.78    1.22
   0 -14  -1    8.43    0.94
   0 -14   1    7.54    1.03
   0  14   1    8.04    0.97
   0 -14   1    7.59    1.11
  -1  15  -1   13.80    1.67
   1 -15  -1    9.08    1.31
   1 -15   1   13.33    1.49
  -1  15   1    8.34    1.19
   1 -15   1   13.68    1.40
  -1  15   1   10.15    1.53
  -2  16  -1    1.24    0.69
   2 -16  -1    0.74    0.50
  -2  16   1    1.84    0.54
  -2  16   1    0.99    0.67
   2 -16   1    0.97    0.46
   2 -16   1    1.04    0.55
   3 -17  -1   12.92    1.65
  -3  17   1   13.03    1.85
  -3  17   1   12.91    1.53
  -4  18  -1   18.40    2.29
   4 -18  -1   14.39    1.96
  -4  18   1   16.46    2.24
   4 -18   1   18.12    2.06
  -5  19  -1   12.59    1.93
   5 -19  -1   16.33    1.88
   5 -19   1   10.70    1.65
  -5  19   1   15.26    2.04
   6 -20  -1   32.08    3.77
  -6  20  -1   47.52    4.41
   6 -20   1   46.21    4.04
  -6  20   1   33.59    4.06
   7 -21  -1    0.41    0.37
  -7  21  -1    0.30    0.45
  -7  21   1    0.19    0.42
   7 -21   1    0.32    0.38
  21  -7  -2    2.95    0.94
 -21   7  -2    3.18    1.03
 -21   7   2    2.65    0.94
  21  -7   2    2.78    0.83
 -20   6  -2    0.92    0.54
  20  -6  -2    1.18    0.49
  20  -6   2    0.39    0.39
  20  -6   2    1.15    0.54
 -20   6   2    0.23    0.40
 -19   5  -2    1.05    0.56
  19  -5  -2    1.25    0.59
 -19   5   2    0.75    0.55
  19  -5   2    0.37    0.39
  19  -5   2    0.40    0.47
 -18   4  -2   58.47    5.60
  18  -4  -2   58.53    5.48
  18  -4   2   58.87    5.35
  18  -4   2   64.89    5.46
 -18   4   2   54.54    5.60
  17  -3  -2   -0.11    0.37
 -17   3  -2   -0.05    0.40
 -17   3   2    0.08    0.50
  17  -3   2    0.04    0.29
  17  -3   2    0.11    0.35
  16  -2  -2    0.39    0.44
 -16   2  -2    0.28    0.42
 -16   2   2    0.53    0.55
  16  -2   2    0.66    0.45
 -16   2   2    0.43    0.41
  16  -2   2    0.80    0.46
 -15   1  -2   82.05    7.34
  15  -1  -2   84.30    7.12
  15  -1   2   82.36    7.01
 -15   1   2   80.74    7.27
  15  -1   2   85.15    7.16
 -15   1   2   80.50    7.05
 -14   0  -2    8.31    1.37
  14   0  -2    8.22    1.18
  14   0   2    7.86    1.18
 -14   0   2    7.50    1.16
  14   0   2    9.61    1.18
 -14   0   2    9.73    1.30
 -13  -1  -2    0.08    0.34
  13   1  -2    0.54    0.38
  13   1  -2    0.40    0.18
 -13  -1   2    0.75    0.46
  13   1   2    0.18    0.33
 -13  -1   2    0.75    0.50
  13   1   2   -0.03    0.29
  12   2  -2    0.52    0.39
  12   2  -2    0.76    0.25
 -12  -2  -2    0.29    0.38
  12   2   2    0.21    0.27
 -12  -2   2    0.78    0.49
 -12  -2   2    0.57    0.42
 -11  -3  -2    1.09    0.46
  11   3  -2    0.65    0.40
 -11  -3  -2    0.88    0.52
  11   3  -2    0.84    0.28
 -11  -3   2    0.70    0.40
  11   3   2    0.58    0.33
 -11  -3   2    0.84    0.47
 -10  -4  -2    0.02    0.33
 -10  -4  -2    0.16    0.19
  10   4  -2    0.20    0.20
  10   4  -2   -0.12    0.19
 -10  -4  -2    0.01    0.27
 -10  -4   2    0.05    0.35
  10   4   2    0.21    0.20
 -10  -4   2   -0.03    0.24
   9   5  -2   36.47    3.23
  -9  -5  -2   36.22    3.33
  -9  -5  -2   37.15    3.44
  -9  -5  -2   34.19    3.16
   9   5  -2   37.96    3.25
   9   5   2   32.93    3.10
  -9  -5   2   37.79    3.37
  -9  -5   2   37.27    3.19
  -8  -6  -2    0.82    0.40
   8   6  -2    1.09    0.41
   8   6  -2    1.44    0.38
  -8  -6  -2    1.27    0.52
  -8  -6  -2    1.46    0.35
  -8  -6   2    1.60    0.56
   8   6   2    1.04    0.30
  -8  -6   2    1.94    0.39
   7   7  -2    0.38    0.29
  -7  -7  -2    0.94    0.31
  -7  -7  -2    0.79    0.37
  -7  -7  -2    0.85    0.46
   7   7  -2    0.74    0.35
   7   7   2    0.64    0.24
  -7  -7   2    0.69    0.43
  -7  -7   2    0.58    0.24
  -6  -8  -2   35.00    3.30
  -6  -8  -2   35.51    3.19
  -6  -8  -2   36.96    3.39
  -6  -8  -2   34.77    3.34
   6   8  -2   37.36    3.39
  -6  -8   2   40.78    3.49
  -6  -8   2   37.12    3.05
  -5  -9  -2    1.92    0.51
  -5  -9  -2    2.40    0.49
   5   9  -2    1.59    0.57
  -5  -9  -2    3.05    0.67
  -5  -9  -2    3.09    0.64
  -5  -9   2    1.63    0.52
  -5  -9   2    1.10    0.52
   4  10  -2    5.07    0.90
  -4 -10  -2    4.89    0.90
  -4 -10  -2    5.07    0.81
  -4 -10  -2    5.04    0.80
  -4 -10  -2    5.04    0.73
  -4 -10   2    5.14    0.90
  -4 -10   2    4.39    0.79
  -3 -11  -2    2.42    0.70
  -3 -11  -2    2.05    0.53
   3  11  -2    2.69    0.74
  -3 -11  -2    1.76    0.50
  -3 -11  -2    2.72    0.60
  -3 -11   2    2.75    0.65
  -3 -11   2    2.93    0.71
  -2 -12  -2    0.22    0.28
  -2 -12  -2   -0.09    0.32
   2  12  -2    0.43    0.49
  -2 -12  -2    0.06    0.15
  -2 -12   2   -0.11    0.23
   2  12   2   -0.12    0.24
  -2 -12   2    0.02    0.31
  -1 -13  -2    0.71    0.38
  -1 -13  -2    1.45    0.36
   1  13  -2    1.21    0.62
  -1 -13  -2    0.52    0.46
   1  13   2    0.89    0.42
  -1 -13   2    1.21    0.50
  -1 -13   2    1.09    0.51
   0  14  -2   72.11    6.49
   0 -14  -2   68.41    6.02
   0 -14  -2   69.40    6.48
   0 -14   2   75.79    6.18
   0  14   2   66.60    6.05
   0 -14   2   71.75    6.14
   1 -15  -2    0.30    0.52
  -1  15  -2    0.53    0.61
   1 -15  -2    0.19    0.37
   1 -15   2    0.44    0.39
  -1  15   2    0.45    0.39
   1 -15   2    0.43    0.39
  -2  16  -2    2.53    0.95
   2 -16  -2    4.35    1.10
   2 -16  -2    2.92    0.79
  -2  16   2    3.00    0.71
   2 -16   2    2.07    0.71
   2 -16   2    3.14    0.74
   3 -17  -2    5.82    1.33
  -3  17  -2    7.07    1.46
   3 -17  -2    3.77    0.96
   3 -17   2    6.54    1.12
   3 -17   2    7.09    1.07
  -3  17   2    4.28    0.93
   4 -18  -2    0.33    0.41
  -4  18  -2   -0.23    0.47
   4 -18  -2    0.93    0.63
   4 -18   2    0.33    0.42
  -4  18   2    0.17    0.42
   5 -19  -2   -0.08    0.25
  -5  19  -2    0.20    0.53
   5 -19   2    0.85    0.43
  -5  19   2    0.05    0.45
  -6  20  -2   46.70    4.72
   6 -20  -2   43.05    4.22
   6 -20   2   44.20    4.22
  -6  20   2   38.09    4.47
   7 -21  -2    1.59    0.61
  -7  21  -2    1.20    0.79
  -7  21   2    0.40    0.61
   7 -21   2    1.50    0.69
 -20   6  -3    0.81    0.56
  20  -6  -3    1.94    0.73
 -20   6   3    1.59    0.80
 -19   5  -3   12.44    1.88
  19  -5   3   17.65    1.93
 -17   3  -3    2.16    0.80
  17  -3  -3    5.32    1.09
  17  -3   3    2.12    0.73
  17  -3   3    1.33    0.62
 -17   3   3    4.80    1.16
 -16   2  -3    1.24    0.67
  16  -2  -3   -0.25    0.33
  16  -2   3    0.35    0.42
  16  -2   3    0.94    0.48
 -16   2   3    0.15    0.46
  14   0  -3   33.50    3.14
  14   0  -3   30.02    3.01
 -14   0   3   32.67    3.12
 -14   0   3   31.99    3.23
  13   1  -3   31.56    2.81
  13   1  -3   25.38    2.73
 -13  -1   3   30.69    2.90
 -13  -1   3   27.70    2.88
  12   2  -3    0.19    0.34
  12   2  -3    0.57    0.40
 -12  -2  -3    2.53    0.76
  12   2   3    2.22    0.67
  12   2   3    1.76    0.48
 -12  -2   3    0.85    0.50
 -12  -2   3    0.68    0.53
  11   3  -3    6.45    0.97
  11   3  -3    7.23    0.98
 -11  -3   3    6.71    1.02
 -11  -3   3    7.20    1.08
 -10  -4  -3   19.63    1.83
 -10  -4  -3   18.05    2.02
  10   4   3   18.20    1.72
  10   4   3   17.10    1.95
   9   5  -3    7.80    1.12
   9   5  -3    8.93    1.10
  -9  -5   3   10.15    1.08
  -9  -5   3    9.50    1.31
   8   6  -3    8.20    1.13
   8   6  -3    8.58    1.07
  -8  -6   3    8.92    0.98
  -8  -6   3   10.81    1.36
  -7  -7  -3    0.71    0.40
   7   7  -3    0.66    0.33
  -7  -7  -3    0.38    0.33
   7   7  -3    0.76    0.42
   7   7   3    0.56    0.39
   7   7   3    0.66    0.22
  -7  -7   3    0.81    0.51
  -5  -9  -3   33.53    3.16
  -5  -9  -3   31.22    2.85
  -5  -9  -3   32.77    3.11
   5   9   3   32.86    2.99
  -4 -10  -3   46.17    3.73
  -4 -10  -3   37.96    3.95
  -4 -10  -3   42.95    3.92
   4  10   3   43.17    3.78
  -3 -11  -3    0.39    0.43
  -3 -11  -3    0.00    0.30
  -3 -11  -3    0.18    0.25
   3  11  -3    1.94    0.72
  -3 -11   3    2.06    0.63
   3  11   3    0.42    0.28
  -3 -11   3    2.32    0.58
  -2 -12  -3    5.43    1.08
  -2 -12  -3    3.25    0.69
   2  12   3    3.91    0.64
   2  12   3    3.98    0.83
   1  13  -3    9.65    1.40
  -1 -13   3    7.57    1.12
  -1 -13   3    7.10    1.19
   0  14  -3    4.14    1.07
   0 -14  -3    4.09    1.06
   0 -14  -3    4.36    0.81
   0 -14   3    3.84    0.84
   0 -14   3    3.96    0.89
   0  14   3    5.02    0.92
   1 -15  -3   10.48    1.62
   1 -15  -3   11.69    1.39
  -1  15   3   10.59    1.41
   2 -16  -3    0.06    0.38
  -2  16  -3    0.97    0.71
   2 -16  -3    0.52    0.57
  -2  16   3    0.22    0.43
   2 -16   3    1.14    0.53
   2 -16   3    0.96    0.54
  -3  17  -3    6.53    1.44
   3 -17   3    7.84    1.29
   3 -17   3    8.01    1.28
   4 -18  -3    6.79    1.23
   4 -18  -3    5.87    1.37
  -4  18   3    7.85    1.32
   5 -19  -3   19.57    2.59
   5 -19  -3   22.54    2.39
  -5  19   3   19.59    2.32
   6 -20  -3   31.20    3.23
   6 -20  -3   28.77    3.56
  -6  20   3   31.85    3.27
  19  -5  -4    1.63    0.60
 -19   5  -4    1.10    0.63
  19  -5   4    1.06    0.47
 -19   5   4    0.59    0.53
 -18   4  -4    9.30    1.72
  18  -4  -4    9.47    1.44
 -18   4   4   12.24    1.68
  18  -4   4    9.70    1.44
  17  -3  -4    1.55    0.65
 -17   3  -4    1.68    0.71
  17  -3   4    1.18    0.53
 -17   3   4    1.26    0.61
 -16   2  -4   -0.26    0.29
  16  -2  -4   -0.10    0.44
  16  -2   4    0.04    0.29
 -16   2   4    0.17    0.57
 -15   1  -4    9.78    1.65
  15  -1  -4    8.94    1.36
 -15   1   4    9.06    1.53
  15  -1   4    8.62    1.34
  14   0  -4    2.32    0.70
  14   0  -4    3.53    0.85
  14   0   4    0.50    0.52
 -14   0   4    2.23    0.82
 -14   0   4    2.23    0.75
  13   1  -4    4.39    0.91
  13   1  -4    4.33    0.93
 -13  -1   4    4.28    0.93
 -13  -1   4    4.20    0.93
  12   2  -4    4.53    0.96
 -12  -2  -4    7.20    1.27
  12   2  -4    3.83    0.81
  12   2   4    5.69    1.09
 -12  -2   4    4.76    0.96
 -12  -2   4    4.98    0.92
  11   3  -4    0.06    0.41
  11   3  -4    0.11    0.30
 -11  -3  -4    0.15    0.41
  11   3   4    0.13    0.35
 -11  -3   4   -0.21    0.35
 -11  -3   4    0.18    0.36
 -10  -4  -4   11.21    1.72
 -10  -4  -4   11.70    1.56
  10   4  -4   18.87    1.74
  10   4  -4   17.72    1.81
 -10  -4   4   17.27    1.90
 -10  -4   4   16.97    1.68
  10   4   4   11.51    1.68
   9   5  -4  316.94   26.66
  -9  -5  -4  319.03   26.27
   9   5  -4  317.36   25.62
  -9  -5  -4  324.65   26.61
  -9  -5   4  327.90   26.17
   9   5   4  325.79   26.12
  -9  -5   4  319.15   26.01
  -8  -6  -4   17.99    1.90
   8   6  -4   16.92    1.93
   8   6  -4   15.05    1.71
  -8  -6  -4   16.59    1.92
   8   6   4   17.57    1.90
  -8  -6   4   16.60    1.96
  -7  -7  -4    1.66    0.63
  -7  -7  -4    2.37    0.67
   7   7  -4    0.83    0.46
   7   7  -4    0.57    0.36
  -7  -7   4    0.34    0.47
   7   7   4    2.50    0.65
  -6  -8  -4   34.39    3.43
  -6  -8  -4   34.57    3.39
   6   8  -4   34.18    3.16
   6   8  -4   36.06    3.46
   6   8   4   37.10    3.31
  -6  -8   4   32.46    3.39
   5   9  -4    5.54    1.06
  -5  -9  -4    4.38    0.97
  -5  -9  -4    4.27    0.99
   5   9  -4    6.33    0.85
  -5  -9   4    5.62    1.08
   5   9   4    5.65    0.92
   4  10  -4    1.16    0.42
   4  10  -4    0.96    0.54
  -4 -10  -4    0.21    0.39
  -4 -10  -4   -0.11    0.40
  -4 -10   4    1.56    0.63
   4  10   4    0.27    0.33
  -3 -11  -4   15.24    1.91
   3  11  -4   17.23    2.00
  -3 -11  -4   13.81    1.80
  -3 -11   4   15.39    1.71
   3  11   4   15.38    1.64
  -3 -11   4   14.44    1.81
   2  12  -4    2.47    0.86
  -2 -12   4    2.66    0.79
  -2 -12   4    2.02    0.63
   2  12   4    1.09    0.56
   1  13  -4    3.55    1.03
  -1 -13  -4    1.21    0.71
  -1 -13   4    4.05    0.80
  -1 -13   4    3.28    0.87
   1  13   4    2.56    0.78
   0 -14  -4   40.71    4.10
   0  14  -4   41.08    4.12
   0 -14   4   35.88    3.76
   0 -14   4   40.55    3.68
   0  14   4   38.12    3.78
   1 -15  -4    1.50    0.79
  -1  15  -4    4.22    1.15
   1 -15   4    3.35    0.80
   1 -15   4    3.00    0.87
   2 -16  -4    6.74    1.36
  -2  16  -4    2.61    0.93
   2 -16   4    3.09    0.88
   2 -16   4    2.52    0.75
  -3  17  -4   14.88    2.09
   3 -17  -4   16.61    2.13
  -3  17   4   19.72    2.04
   3 -17   4   11.83    1.73
   3 -17   4   13.10    1.72
  -4  18  -4    1.60    0.79
   4 -18  -4    2.58    0.90
  -4  18   4    3.01    0.84
   4 -18   4    1.53    0.54
   4 -18   4    2.30    0.68
   5 -19  -4    2.49    1.06
  -5  19  -4    2.05    0.96
   5 -19   4    1.55    0.56
  -5  19   4    2.27    0.75
  17  -3  -5    4.46    1.03
 -17   3   5    3.31    1.03
  16  -2  -5    0.30    0.43
 -16   2  -5    1.47    0.60
 -16   2   5    0.73    0.53
  16  -2   5    1.58    0.57
 -15   1  -5    2.60    0.87
  15  -1  -5    6.67    1.18
  15  -1   5    4.17    1.00
  14   0  -5   29.38    3.16
  14   0  -5   32.31    3.10
 -14   0   5   28.38    3.12
  13   1  -5    1.73    0.70
  13   1  -5    2.30    0.78
 -13  -1  -5    2.97    0.91
 -13  -1   5    1.34    0.66
  13   1   5    1.67    0.63
 -13  -1   5    2.02    0.74
 -12  -2  -5    0.67    0.46
  12   2  -5    0.19    0.46
  12   2  -5   -0.03    0.38
 -12  -2   5    0.11    0.42
  12   2   5    0.03    0.28
 -12  -2   5    0.98    0.60
  11   3  -5    9.78    1.42
 -11  -3   5    8.62    1.32
 -11  -3   5    9.97    1.45
 -10  -4  -5   67.90    6.24
 -10  -4  -5   71.25    6.38
  10   4   5   69.93    6.22
  -9  -5  -5    9.43    1.35
  -9  -5  -5    9.69    1.42
   9   5   5    9.20    1.32
   8   6  -5   31.43    3.20
  -8  -6   5   29.72    3.14
  -7  -7  -5   -0.04    0.43
  -7  -7  -5    0.12    0.34
   7   7  -5    0.66    0.52
  -7  -7   5    0.47    0.56
   7   7   5    0.21    0.31
   6   8  -5    3.42    0.93
  -6  -8  -5    0.47    0.54
   6   8   5    0.23    0.36
  -6  -8   5    3.37    0.96
  -4 -10  -5   19.40    2.36
  -4 -10  -5   20.38    2.46
   4  10   5   22.09    2.21
   3  11  -5    0.27    0.56
  -3 -11  -5    2.38    0.87
   3  11   5    1.30    0.63
  -3 -11   5    0.37    0.48
   2  12  -5    0.50    0.49
  -2 -12  -5   -0.32    0.39
   2  12   5    0.14    0.36
  -2 -12   5    0.80    0.51
   0 -14  -5    0.57    0.52
   0  14  -5    0.79    0.60
   0 -14   5    1.67    0.65
   0  14   5    1.20    0.56
  -1  15  -5    2.80    0.97
   1 -15   5    3.94    0.96
  -2  16  -5    3.87    1.12
   2 -16  -5    1.25    0.71
   2 -16   5    2.76    0.82
  -2  16   5    1.76    0.69
  -3  17  -5    7.25    1.52
   3 -17  -5    3.53    1.11
  -3  17   5    2.44    0.93
 -14   0  -6   13.12    1.91
  14   0   6   11.42    1.73
  13   1  -6    4.59    1.07
 -13  -1  -6    0.98    0.60
  13   1   6    0.91    0.53
  12   2  -6    0.04    0.35
 -12  -2  -6    0.13    0.31
  12   2   6    0.20    0.26
 -12  -2   6   -0.08    0.37
  11   3  -6    1.10    0.55
 -11  -3  -6    1.57    0.62
 -11  -3   6    1.79    0.74
  11   3   6    1.48    0.54
  10   4  -6    0.45    0.36
 -10  -4  -6    0.04    0.29
  10   4   6    0.16    0.27
 -10  -4   6    0.27    0.36
  -9  -5  -6    0.31    0.35
   9   5  -6    1.14    0.49
  -9  -5  -6    0.43    0.54
   9   5   6    0.38    0.30
  -9  -5   6    0.73    0.42
   8   6  -6    1.72    0.62
  -8  -6  -6    0.99    0.62
  -8  -6   6    1.82    0.68
   8   6   6    0.28    0.28
  -7  -7  -6    1.63    0.69
  -7  -7  -6    1.62    0.77
   7   7   6    1.03    0.46
   6   8  -6    5.86    1.34
  -6  -8  -6    5.52    1.24
  -6  -8  -6    7.76    1.45
   6   8   6    5.56    1.08
  -6  -8   6    7.94    1.40
  -5  -9  -6    9.76    1.63
  -5  -9  -6    7.29    1.43
   5   9   6    7.90    1.28
  -4 -10  -6   10.30    1.70
   4  10  -6    6.39    1.45
  -4 -10   6    7.71    1.45
  -3 -11  -6    0.10    0.35
   3  11  -6    0.30    0.41
  -3 -11   6   -0.17    0.30
   3  11   6    0.37    0.35
  -2 -12  -6    0.47    0.41
   2  12  -6    0.07    0.42
  -2 -12   6    0.31    0.39
   2  12   6    1.18    0.59
   1  13  -6    3.95    1.22
  -1 -13  -6    1.83    0.69
   1  13   6    1.04    0.66
  -1 -13   6    2.70    0.89
   0 -14  -6   13.68    2.08
   0  14  -6   15.44    2.30
   0  14   6   15.57    2.10
   0 -14   6   15.56    2.08
  22  -6   0    0.25    0.44
 -22   6   0   -0.11    0.30
 -21   5   0   19.51    2.46
  21  -5   0   22.32    2.49
 -20   4   0   -0.02    0.26
  20  -4   0   -0.03    0.30
  19  -3   0   -0.01    0.39
 -19   3   0   -0.04    0.38
 -18   2   0    2.73    0.80
 -18   2   0    3.05    0.87
  18  -2   0    2.16    0.77
  17  -1   0    0.13    0.42
 -17   1   0    0.05    0.43
 -17   1   0    0.23    0.43
 -16   0   0   -0.15    0.40
  16   0   0    0.02    0.35
 -16   0   0    0.09    0.39
 -15  -1   0   13.46    1.65
  15   1   0   13.41    1.59
 -15  -1   0   14.40    1.71
 -14  -2   0    0.18    0.35
 -14  -2   0   -0.15    0.34
  14   2   0    0.13    0.31
 -13  -3   0    0.35    0.40
 -13  -3   0   -0.18    0.32
  13   3   0   -0.01    0.30
 -12  -4   0  196.06   15.30
  12   4   0  183.42   14.98
 -12  -4   0  177.44   15.23
 -11  -5   0   -0.13    0.25
  11   5   0    0.03    0.25
 -11  -5   0   -0.11    0.28
 -10  -6   0    0.14    0.22
  10   6   0   -0.03    0.14
  10   6   0    0.07    0.23
 -10  -6   0    0.11    0.33
  -9  -7   0    4.64    0.86
  -9  -7   0    4.22    0.59
   9   7   0    4.19    0.57
   9   7   0    4.59    0.73
  -8  -8   0    0.08    0.30
   8   8   0    0.16    0.25
  -8  -8   0    0.15    0.14
   8   8   0    0.08    0.17
  -7  -9   0    0.01    0.29
  -7  -9   0    0.03    0.25
  -7  -9   0   -0.01    0.10
   7   9   0    0.01    0.16
  -6 -10   0    1.01    0.26
  -6 -10   0    0.57    0.37
   6  10   0    0.44    0.29
  -6 -10   0    0.13    0.24
  -5 -11   0   -0.05    0.22
  -5 -11   0    0.02    0.26
   5  11   0    0.07    0.26
  -5 -11   0    0.16    0.15
   4  12   0    0.03    0.11
  -4 -12   0   -0.35    0.18
  -4 -12   0    0.00    0.29
   4  12   0    0.15    0.31
  -3 -13   0  116.39    9.45
   3  13   0  111.02    9.25
   3  13   0  111.14    9.75
  -3 -13   0  117.55    9.54
   2  14   0    0.18    0.40
  -2 -14   0    0.03    0.30
  -2 -14   0   -0.07    0.28
  -1 -15   0   -0.16    0.28
  -1 -15   0    0.24    0.35
   1  15   0   -0.03    0.35
   0 -16   0    0.76    0.46
   0  16   0    1.06    0.63
   0 -16   0    1.09    0.48
   1 -17   0    0.02    0.35
  -1  17   0    0.15    0.45
  -2  18   0   -0.14    0.39
   2 -18   0    0.00    0.32
  -3  19   0   46.44    4.68
   3 -19   0   45.21    4.35
   4 -20   0    0.33    0.29
  -4  20   0    0.83    0.56
  -5  21   0    0.53    0.54
   5 -21   0   -0.08    0.20
  -6  22   0   51.62    5.25
   6 -22   0   48.13    4.83
  22  -6  -1    0.60    0.62
 -22   6  -1    2.05    0.90
 -22   6   1    0.95    0.62
  22  -6   1    3.61    0.98
 -21   5  -1   28.51    3.30
  21  -5   1   31.31    3.22
  20  -4  -1   16.91    1.93
 -20   4  -1   11.68    1.78
  20  -4   1   12.10    1.68
  20  -4   1   12.11    1.62
 -20   4   1   16.79    2.00
 -19   3  -1    4.99    1.21
  19  -3  -1    4.14    1.06
 -19   3   1    3.36    1.00
  19  -3   1    5.13    0.98
  19  -3   1    5.08    1.06
 -18   2  -1    4.87    1.14
  18  -2  -1    2.25    0.79
 -18   2   1    2.09    0.82
 -18   2   1    1.88    0.73
  18  -2   1    5.97    1.06
 -17   1  -1   12.72    1.85
  17  -1  -1   18.91    1.95
 -17   1   1   16.82    1.93
  17  -1   1   12.32    1.73
 -17   1   1   16.13    1.79
  16   0  -1   23.95    2.63
 -16   0  -1   29.68    2.79
 -16   0  -1   30.41    2.89
  16   0   1   27.92    2.65
 -16   0   1   20.32    2.59
  15   1  -1   27.66    2.69
 -15  -1   1   25.88    2.69
 -15  -1   1   29.13    2.80
 -14  -2  -1    0.67    0.50
 -14  -2  -1    0.73    0.52
  14   2  -1    0.59    0.42
  14   2   1    0.59    0.41
 -14  -2   1    1.11    0.52
 -14  -2   1    0.79    0.49
 -13  -3  -1    6.92    1.08
 -13  -3  -1    7.17    1.17
  13   3  -1    5.45    0.95
 -13  -3   1    5.45    1.01
  13   3   1    8.16    1.00
 -13  -3   1    4.50    0.92
  12   4  -1   14.53    1.61
 -12  -4   1   15.12    1.73
 -12  -4   1   14.35    1.59
  11   5  -1   62.22    4.95
 -11  -5  -1   44.27    4.99
  11   5  -1   60.00    4.82
 -11  -5   1   57.53    4.91
 -11  -5   1   60.26    5.10
 -10  -6  -1   25.84    2.27
  10   6  -1   18.05    2.03
  10   6  -1   19.30    2.15
 -10  -6  -1   28.52    2.45
 -10  -6   1   21.17    2.14
  10   6   1   27.13    2.04
 -10  -6   1   19.20    2.29
  10   6   1   27.46    2.24
   9   7  -1    5.70    0.68
  -9  -7  -1    5.75    0.78
   9   7  -1    5.08    0.78
  -9  -7  -1    4.47    0.89
  -9  -7   1    5.25    0.66
   9   7   1    4.77    0.74
   9   7   1    4.82    0.62
  -9  -7   1    5.86    0.97
  -8  -8  -1   19.84    2.34
   8   8  -1   27.09    2.33
  -8  -8  -1   19.34    2.20
   8   8  -1   26.32    2.27
  -8  -8   1   25.72    2.46
  -8  -8   1   26.09    2.13
  -7  -9  -1   55.52    4.37
   7   9  -1   44.26    4.37
  -7  -9  -1   57.07    4.34
  -7  -9  -1   57.67    4.42
  -7  -9  -1   54.67    4.50
  -7  -9   1   45.49    4.36
  -7  -9   1   43.03    4.11
  -7  -9   1   44.03    4.45
  -6 -10  -1  247.92   20.38
  -6 -10  -1  250.70   19.93
  -6 -10  -1  239.81   20.01
  -6 -10  -1  246.47   19.67
  -5 -11  -1    0.27    0.21
  -5 -11  -1    0.58    0.40
  -5 -11  -1    0.63    0.37
   5  11  -1    1.47    0.53
  -5 -11  -1    0.86    0.37
  -5 -11   1    1.32    0.49
  -5 -11   1    1.32    0.50
  -4 -12  -1    6.81    0.92
   4  12  -1    5.70    1.00
  -4 -12  -1    7.05    0.99
  -4 -12  -1    6.56    0.95
  -4 -12  -1    7.48    0.81
  -4 -12   1    4.97    0.93
  -4 -12   1    5.06    0.93
  -2 -14  -1   26.88    2.72
  -2 -14  -1   31.24    2.84
   2  14   1   30.33    2.97
   2  14   1   27.97    2.63
   1  15  -1    9.60    1.50
  -1 -15  -1   13.85    1.41
  -1 -15  -1   13.64    1.52
  -1 -15   1    9.26    1.33
   1  15   1   13.17    1.34
   1  15   1   13.82    1.68
  -1 -15   1    9.35    1.42
   0  16  -1    0.17    0.47
   0 -16  -1    0.03    0.31
   0 -16   1    0.00    0.38
   0 -16   1    0.22    0.35
   0  16   1    0.03    0.30
   0  16   1    0.08    0.45
  -1  17  -1    7.24    1.37
   1 -17  -1    4.94    1.06
   1 -17   1    7.57    1.24
  -1  17   1    6.17    1.32
   1 -17   1    8.83    1.10
   2 -18  -1   18.83    2.03
  -2  18  -1   13.30    2.08
   2 -18   1   14.86    1.95
  -2  18   1   22.79    2.43
   3 -19  -1    3.62    0.93
  -3  19  -1    3.29    1.08
  -3  19   1    5.44    1.29
   3 -19   1    2.71    0.83
   4 -20  -1    4.02    0.99
  -4  20  -1    5.00    1.27
  -4  20   1    3.37    1.06
   4 -20   1    4.70    1.07
  -5  21  -1    1.12    0.62
   5 -21  -1    1.61    0.57
  -5  21   1    2.73    0.93
   5 -21   1    1.76    0.63
   6 -22  -1   17.07    2.13
  -6  22   1   15.08    2.28
  22  -6  -2   -0.03    0.35
 -22   6  -2    0.04    0.54
  22  -6   2    0.43    0.38
 -22   6   2    0.39    0.44
  21  -5  -2   39.84    3.78
 -21   5  -2   31.71    3.72
  21  -5   2   34.82    3.56
 -21   5   2   37.70    3.86
  21  -5   2   34.81    3.61
 -20   4  -2    1.37    0.60
  20  -4  -2    1.52    0.63
  20  -4   2    2.33    0.74
 -20   4   2    1.77    0.80
  20  -4   2    1.22    0.59
  19  -3  -2    0.03    0.33
 -19   3  -2   -0.21    0.32
  19  -3   2   -0.15    0.30
  19  -3   2    0.08    0.32
 -19   3   2   -0.21    0.41
  18  -2  -2    1.33    0.65
 -18   2  -2    1.84    0.78
  18  -2   2    0.79    0.52
 -18   2   2    0.89    0.66
  18  -2   2    2.02    0.69
  17  -1  -2    0.37    0.43
 -17   1  -2    0.10    0.42
 -17   1   2    0.02    0.45
  17  -1   2   -0.15    0.28
  17  -1   2   -0.01    0.35
 -17   1   2    0.07    0.35
 -16   0  -2    0.79    0.57
  16   0  -2    1.65    0.63
 -16   0   2    1.67    0.63
  16   0   2    1.69    0.62
 -16   0   2    1.90    0.73
  16   0   2    1.83    0.62
 -15  -1  -2   80.56    7.34
  15   1  -2   79.45    7.09
 -15  -1   2   85.01    7.21
  15   1   2   86.13    7.26
  15   1   2   81.70    7.02
 -15  -1   2   85.99    7.30
  14   2  -2    0.16    0.34
 -14  -2  -2    0.40    0.43
  14   2   2    0.18    0.34
 -14  -2   2   -0.10    0.42
 -14  -2   2    0.53    0.47
 -13  -3  -2    0.04    0.36
  13   3  -2    0.14    0.35
 -13  -3  -2    0.06    0.38
 -13  -3   2   -0.07    0.37
 -13  -3   2    0.15    0.41
  13   3   2    0.16    0.29
 -12  -4  -2   22.10    2.40
  12   4  -2   23.15    2.32
 -12  -4  -2   24.47    2.53
  12   4  -2   23.57    2.19
  12   4   2   24.61    2.25
 -12  -4   2   23.61    2.44
 -12  -4   2   22.52    2.30
  11   5  -2    0.12    0.27
  11   5  -2   -0.03    0.16
 -11  -5  -2    0.13    0.38
 -11  -5  -2   -0.13    0.29
  11   5   2    0.23    0.27
 -11  -5   2    0.26    0.43
 -11  -5   2    0.43    0.32
  10   6  -2    1.28    0.38
 -10  -6  -2    0.44    0.44
 -10  -6  -2    0.69    0.41
 -10  -6  -2    0.91    0.30
  10   6  -2    0.79    0.39
 -10  -6   2    0.51    0.26
 -10  -6   2    0.73    0.53
  10   6   2    0.63    0.33
   9   7  -2    7.86    1.03
  -9  -7  -2    7.77    1.05
   9   7  -2    7.18    0.95
  -9  -7  -2    8.57    0.94
  -9  -7  -2    7.31    1.15
  -9  -7   2    8.93    1.20
   9   7   2    7.17    0.92
  -9  -7   2    8.59    0.89
  -8  -8  -2    0.62    0.28
   8   8  -2    0.26    0.29
   8   8  -2    0.11    0.28
  -8  -8  -2    0.52    0.39
  -8  -8  -2    0.03    0.23
  -8  -8   2    0.36    0.43
   8   8   2    0.37    0.25
  -8  -8   2    0.43    0.24
  -7  -9  -2    8.95    1.19
   7   9  -2    7.23    0.99
  -7  -9  -2    8.92    1.05
  -7  -9  -2    9.07    1.06
  -7  -9  -2    7.93    1.04
   7   9  -2    8.10    1.10
  -7  -9   2    6.33    1.11
  -6 -10  -2  319.07   25.43
  -6 -10  -2  330.79   24.98
  -6 -10  -2  318.27   25.95
  -6 -10  -2  328.49   25.45
   6  10  -2  306.85   25.98
  -6 -10   2  304.27   25.46
  -6 -10   2  290.26   25.04
  -5 -11  -2    0.85    0.40
   5  11  -2    0.76    0.49
  -5 -11  -2    0.69    0.41
  -5 -11  -2    0.64    0.42
  -5 -11  -2    0.68    0.35
  -5 -11   2    0.31    0.37
  -5 -11   2    0.44    0.39
  -4 -12  -2    0.01    0.24
  -4 -12  -2    0.31    0.27
  -4 -12  -2    0.01    0.28
   4  12  -2    0.41    0.46
  -4 -12  -2    0.19    0.39
  -4 -12   2    0.00    0.33
  -4 -12   2    0.17    0.34
  -3 -13  -2   32.79    3.45
  -3 -13  -2   37.27    3.26
   3  13  -2   36.43    3.51
  -3 -13  -2   37.10    3.27
   3  13   2   36.08    3.27
  -3 -13   2   32.95    3.30
  -3 -13   2   33.48    3.36
  -2 -14  -2    4.73    0.75
   2  14  -2    3.38    0.93
  -2 -14  -2    3.64    0.79
  -2 -14  -2    3.50    0.96
   2  14   2    3.26    0.71
  -2 -14   2    4.22    0.89
  -2 -14   2    3.85    0.82
  -1 -15  -2   -0.04    0.39
  -1 -15  -2    0.17    0.32
   1  15  -2    0.91    0.62
  -1 -15   2    1.21    0.55
   1  15   2   -0.05    0.28
  -1 -15   2    0.57    0.43
   0 -16  -2    5.88    1.29
   0  16  -2    6.75    1.33
   0 -16  -2    5.88    1.04
   0  16   2    5.20    0.95
   0 -16   2    6.23    1.10
   0 -16   2    7.68    1.20
  -1  17  -2    1.47    0.79
   1 -17  -2    1.98    0.82
   1 -17  -2    0.89    0.47
   1 -17   2    1.06    0.56
  -1  17   2    1.93    0.59
   1 -17   2    1.45    0.62
  -2  18  -2    0.90    0.74
   2 -18  -2    0.62    0.56
   2 -18  -2    0.94    0.52
   2 -18   2    1.01    0.59
   2 -18   2    0.55    0.50
  -2  18   2    1.15    0.51
  -3  19  -2   33.71    3.62
   3 -19  -2   28.96    3.12
   3 -19   2   31.73    3.25
   4 -20  -2    0.51    0.36
  -4  20  -2    0.58    0.59
  -4  20   2    1.25    0.67
   4 -20   2    1.04    0.43
  -5  21  -2   -0.23    0.34
   5 -21  -2   -0.04    0.22
  -5  21   2   -0.39    0.34
   5 -21   2   -0.20    0.24
  21  -5  -3   15.40    2.05
 -21   5   3   16.01    2.23
  20  -4  -3   11.62    1.67
 -20   4   3   12.66    1.84
  19  -3  -3    0.60    0.47
 -19   3  -3    3.46    1.00
  19  -3   3    3.12    0.79
 -19   3   3    1.36    0.66
  18  -2  -3    2.21    0.71
 -18   2  -3    1.10    0.62
  18  -2   3    1.31    0.62
 -18   2   3    1.57    0.79
 -17   1  -3    4.46    1.13
  17  -1   3    4.41    0.90
  17  -1   3    4.23    1.04
 -16   0  -3   30.70    3.41
  16   0   3   35.28    3.16
  16   0   3   30.98    3.25
 -14  -2  -3    0.82    0.52
  14   2  -3    2.11    0.66
  14   2   3    0.94    0.53
 -14  -2   3    2.84    0.77
 -14  -2   3    3.82    0.89
  13   3  -3    4.38    0.81
  13   3  -3    4.73    0.91
 -13  -3   3    5.80    1.08
 -13  -3   3    4.36    0.89
  12   4  -3    1.91    0.55
  12   4  -3    1.19    0.49
 -12  -4   3    1.90    0.59
 -12  -4   3    0.71    0.55
  11   5  -3   17.61    1.82
  11   5  -3   17.21    1.81
 -11  -5   3   16.02    1.75
 -11  -5   3   16.53    1.93
  10   6  -3    0.21    0.31
 -10  -6  -3    1.30    0.42
  10   6  -3    0.15    0.34
 -10  -6  -3    0.83    0.46
  10   6   3    1.30    0.38
 -10  -6   3    0.37    0.32
 -10  -6   3    0.50    0.50
  10   6   3    0.94    0.46
   9   7  -3    2.02    0.60
  -9  -7  -3    5.14    0.78
   9   7  -3    2.27    0.66
  -9  -7  -3    4.49    0.86
   9   7   3    3.74    0.81
  -9  -7   3    1.85    0.72
   9   7   3    3.85    0.56
  -8  -8  -3    4.61    0.90
  -8  -8  -3    5.45    0.86
   8   8   3    6.53    0.96
   8   8   3    5.28    0.70
  -7  -9  -3   44.40    4.06
  -7  -9  -3   44.12    4.09
   7   9   3   46.76    4.05
   7   9   3   43.16    3.79
   6  10  -3  155.35   12.60
   6  10  -3  150.73   13.13
  -6 -10   3  158.26   12.94
  -5 -11  -3   15.37    1.75
  -5 -11  -3   16.57    1.86
  -5 -11  -3   14.59    1.57
   5  11   3   15.80    1.66
  -4 -12  -3    0.44    0.32
  -4 -12  -3    0.67    0.53
   4  12  -3    0.34    0.49
  -4 -12  -3    0.45    0.40
  -4 -12   3    0.03    0.35
   4  12   3    0.75    0.35
  -4 -12   3   -0.01    0.32
   2  14  -3   39.77    3.90
  -2 -14   3   34.89    3.60
  -2 -14   3   39.15    3.60
   1  15  -3   12.34    1.72
  -1 -15   3   11.02    1.47
  -1 -15   3   11.13    1.49
   0  16  -3   -0.06    0.48
   0 -16  -3   -0.08    0.46
   0 -16  -3   -0.03    0.26
   0 -16   3   -0.05    0.38
   0 -16   3   -0.01    0.31
   0  16   3   -0.17    0.34
  -1  17  -3   11.35    1.67
   1 -17   3   10.46    1.44
   1 -17   3    9.60    1.40
  -2  18  -3    7.36    1.52
   2 -18   3    8.74    1.28
   2 -18   3    7.89    1.34
   3 -19  -3    1.18    0.49
  -3  19  -3    1.00    0.62
   3 -19  -3    1.34    0.58
   3 -19   3    1.50    0.64
  -3  19   3    1.23    0.58
   3 -19   3    1.75    0.62
   4 -20  -3    0.30    0.27
  -4  20  -3    3.30    1.08
   4 -20  -3    0.86    0.52
  -4  20   3    0.65    0.43
   4 -20   3    3.54    0.87
   5 -21  -3    1.50    0.55
   5 -21  -3    0.68    0.83
   5 -21   3    1.11    0.67
 -19   3  -4    0.07    0.46
  19  -3  -4    1.16    0.46
  19  -3   4    0.92    0.44
 -19   3   4    0.59    0.43
  18  -2  -4    1.09    0.57
 -18   2  -4    0.65    0.46
  18  -2   4    1.38    0.53
 -18   2   4    1.61    0.69
  17  -1  -4    6.53    1.24
 -17   1  -4    7.35    1.49
 -17   1   4    7.31    1.41
  17  -1   4    6.07    1.29
  16   0  -4    4.03    1.01
 -16   0   4    4.22    1.09
  15   1  -4    8.33    1.34
 -15  -1  -4    9.81    1.65
 -15  -1   4    7.52    1.34
 -15  -1   4    7.98    1.40
  15   1   4    9.62    1.41
 -14  -2  -4    0.16    0.43
  14   2  -4    0.31    0.43
  14   2  -4   -0.17    0.33
 -14  -2   4   -0.19    0.44
  14   2   4   -0.11    0.31
 -14  -2   4    0.20    0.43
  13   3  -4    0.69    0.48
 -13  -3  -4    1.67    0.71
  13   3  -4    0.88    0.54
 -13  -3   4    1.27    0.64
  13   3   4    1.14    0.57
 -13  -3   4    0.77    0.53
 -12  -4  -4   81.68    7.10
  12   4  -4   75.03    6.72
  12   4  -4   78.42    6.97
  12   4   4   83.80    7.03
 -12  -4   4   75.43    6.80
 -12  -4   4   78.43    6.94
  11   5  -4   11.44    1.41
  11   5  -4   10.88    1.44
 -11  -5   4   12.61    1.61
 -10  -6  -4   10.03    1.48
  10   6  -4   15.21    1.62
 -10  -6  -4   10.06    1.39
 -10  -6   4   15.08    1.74
  10   6   4   10.01    1.43
   9   7  -4    1.39    0.49
  -9  -7  -4    1.14    0.51
  -9  -7  -4    1.03    0.51
   9   7  -4    1.99    0.65
   9   7   4    0.71    0.48
  -9  -7   4    1.81    0.76
  -8  -8  -4    3.24    0.80
   8   8  -4    2.13    0.60
  -8  -8  -4    4.11    0.90
   8   8  -4    2.31    0.73
  -8  -8   4    3.06    0.87
   8   8   4    4.13    0.82
  -7  -9  -4    0.57    0.46
  -7  -9  -4    0.00    0.42
   7   9  -4    1.29    0.60
   7   9  -4    0.46    0.38
  -7  -9   4    0.35    0.48
   7   9   4    0.77    0.42
   6  10  -4    1.75    0.68
  -6 -10  -4    0.05    0.42
  -6 -10  -4    0.16    0.36
   6  10  -4    1.08    0.43
  -6 -10   4    1.49    0.61
   6  10   4    0.48    0.36
  -5 -11  -4   -0.09    0.35
  -5 -11  -4   -0.05    0.39
   5  11  -4    0.96    0.57
   5  11  -4    0.47    0.38
   5  11   4   -0.01    0.29
  -5 -11   4   -0.02    0.37
  -4 -12  -4    0.19    0.38
   4  12  -4    1.13    0.64
  -4 -12  -4   -0.02    0.38
  -4 -12   4    1.70    0.59
   4  12   4    0.35    0.36
  -4 -12   4    0.60    0.48
   3  13  -4   47.14    4.54
  -3 -13  -4   40.43    4.40
  -3 -13   4   46.21    4.16
  -3 -13   4   44.90    4.36
   3  13   4   48.05    4.36
   2  14  -4   -0.20    0.44
  -2 -14  -4    1.05    0.64
  -2 -14   4    0.02    0.33
  -2 -14   4   -0.14    0.34
   2  14   4    2.14    0.75
  -1 -15  -4    4.19    1.13
   1  15  -4    2.24    0.87
  -1 -15   4    1.41    0.66
  -1 -15   4    1.43    0.58
   1  15   4    2.95    0.82
   0 -16  -4    1.08    0.56
   0  16  -4    1.16    0.71
   0 -16   4    1.03    0.50
   0 -16   4    1.25    0.62
   0  16   4    1.88    0.69
  -1  17  -4   -0.16    0.36
   1 -17  -4    0.44    0.41
   1 -17   4    0.57    0.42
   1 -17   4    0.42    0.34
  -1  17   4   -0.27    0.29
  -2  18  -4    1.30    0.73
   2 -18  -4    1.37    0.67
   2 -18   4    1.74    0.67
  -2  18   4    1.66    0.63
   2 -18   4    1.61    0.55
   3 -19  -4   19.47    2.67
  -3  19  -4   18.51    2.65
   3 -19   4   20.07    2.27
  -3  19   4   21.87    2.44
   3 -19   4   22.60    2.44
 -16   0  -5   22.95    2.75
  16   0   5   20.52    2.51
  15   1  -5    8.57    1.28
  15   1   5    2.65    0.84
 -15  -1   5    8.53    1.40
 -14  -2  -5    0.05    0.35
  14   2  -5    0.10    0.43
  14   2  -5   -0.22    0.41
 -14  -2   5    0.16    0.51
  14   2   5    0.26    0.24
 -14  -2   5    0.05    0.41
 -13  -3  -5    2.74    0.83
  13   3  -5    0.83    0.49
  13   3  -5    0.16    0.38
 -13  -3   5    0.04    0.40
  13   3   5    2.68    0.77
 -12  -4  -5    0.96    0.58
  12   4  -5    1.27    0.58
  12   4  -5    1.57    0.68
 -12  -4   5    1.85    0.75
  12   4   5    1.59    0.62
  11   5  -5   70.21    6.10
  11   5  -5   69.48    6.41
 -11  -5   5   70.71    6.42
 -10  -6  -5   44.59    4.41
  10   6   5   46.50    4.35
  -9  -7  -5    1.11    0.62
  -9  -7  -5    1.04    0.56
   9   7  -5    0.29    0.47
  -9  -7   5    0.81    0.57
   9   7   5    0.49    0.40
  -7  -9  -5   27.12    2.93
  -7  -9  -5   28.25    3.00
   7   9   5   27.01    2.77
  -6 -10  -5   38.73    3.73
   6  10  -5   31.01    3.58
  -6 -10  -5   38.75    3.64
  -6 -10   5   29.61    3.49
   6  10   5   37.62    3.39
   5  11  -5    3.24    1.00
  -5 -11  -5    2.17    0.88
  -5 -11  -5    2.72    0.84
  -5 -11   5    3.12    0.93
   5  11   5    3.77    0.80
   4  12  -5    1.88    0.80
  -4 -12  -5    9.05    1.42
  -3 -13  -5    6.08    1.30
   3  13   5    6.01    1.21
  -1 -15  -5    3.63    1.04
   1  15   5    4.54    1.03
   0  16  -5    0.55    0.55
   0 -16  -5   -0.22    0.25
   0  16   5    0.03    0.26
   0 -16   5    0.14    0.35
   1 -17  -5    1.03    0.58
  -1  17  -5    3.73    1.10
  -1  17   5    1.28    0.62
   1 -17   5    1.95    0.74
 -14  -2  -6   -0.14    0.46
  14   2  -6    0.93    0.49
  14   2   6    0.42    0.56
  13   3  -6    0.98    0.48
 -13  -3  -6    0.64    0.54
  13   3   6    0.81    0.54
 -13  -3   6    1.11    0.57
  12   4  -6    4.94    1.18
 -12  -4  -6    4.38    1.18
 -12  -4   6    5.67    1.23
  12   4   6    4.14    1.05
 -11  -5  -6    0.15    0.34
  11   5  -6    0.05    0.30
 -11  -5   6    0.24    0.38
  11   5   6    0.00    0.27
  10   6  -6    0.88    0.50
 -10  -6  -6    0.28    0.34
 -10  -6   6    0.47    0.41
  10   6   6    0.37    0.30
  -9  -7  -6    0.64    0.46
   9   7  -6    0.72    0.45
  -9  -7  -6    0.89    0.64
   9   7   6    0.62    0.42
  -9  -7   6    0.92    0.48
  -8  -8  -6    1.18    0.67
  -8  -8  -6    0.94    0.47
   8   8  -6    0.50    0.36
  -8  -8   6    0.84    0.45
   8   8   6    2.31    0.67
  -7  -9  -6   16.49    2.06
   7   9  -6   12.78    1.95
  -7  -9  -6   16.55    2.03
  -7  -9   6   12.40    1.87
   7   9   6   17.37    1.91
  -6 -10  -6   49.96    4.50
   6  10  -6   38.96    4.44
  -6 -10  -6   50.55    4.60
  -6 -10   6   35.95    4.29
   6  10   6   44.33    4.15
  -5 -11  -6    3.06    0.96
   5  11  -6    0.28    0.39
  -5 -11   6    0.68    0.57
  -4 -12  -6    0.28    0.35
   4  12  -6    0.27    0.45
  -4 -12   6   -0.03    0.41
   4  12   6    0.62    0.49
  -3 -13  -6    9.43    1.68
   3  13  -6   10.03    1.89
   3  13   6    8.37    1.56
  -3 -13   6    7.36    1.54
   2  14  -6    6.96    1.70
  -2 -14  -6    4.46    1.23
  -2 -14   6    8.34    1.56
   2  14   6    8.43    1.54
  23  -5   0    0.37    0.50
 -23   5   0    0.81    0.45
 -22   4   0    0.14    0.33
  22  -4   0    0.43    0.31
  21  -3   0   14.52    1.95
 -21   3   0   16.63    2.10
 -20   2   0   -0.17    0.36
 -20   2   0    0.13    0.37
  20  -2   0    0.19    0.37
 -19   1   0   -0.07    0.43
  19  -1   0   -0.07    0.41
 -19   1   0   -0.18    0.37
 -18   0   0  301.91   25.09
 -18   0   0  305.21   24.89
  18   0   0  307.35   24.58
 -17  -1   0   -0.06    0.39
 -17  -1   0    0.05    0.42
  17   1   0   -0.10    0.36
  16   2   0    0.16    0.35
 -16  -2   0   -0.06    0.32
 -16  -2   0    0.50    0.48
 -15  -3   0   10.66    1.44
  15   3   0   10.95    1.39
 -15  -3   0   10.88    1.43
 -14  -4   0    0.06    0.35
 -14  -4   0   -0.25    0.35
  14   4   0    0.15    0.36
  13   5   0   -0.01    0.32
 -13  -5   0    0.05    0.34
 -13  -5   0    0.03    0.38
 -12  -6   0  118.57    9.72
  12   6   0  117.23    9.59
 -12  -6   0  112.99    9.81
 -11  -7   0    0.27    0.26
  11   7   0   -0.04    0.17
 -11  -7   0   -0.33    0.32
  11   7   0    0.27    0.31
 -10  -8   0    0.07    0.18
  10   8   0   -0.04    0.27
  10   8   0    0.03    0.18
 -10  -8   0    0.09    0.35
   9   9   0  111.29    9.02
  -9  -9   0  110.22    9.14
  -9  -9   0  105.07    8.84
   9   9   0  103.06    8.83
   8  10   0    0.20    0.24
  -8 -10   0    0.08    0.31
  -8 -10   0    0.01    0.10
  -8 -10   0   -0.40    0.21
  -7 -11   0    0.09    0.11
   7  11   0   -0.25    0.21
  -7 -11   0   -0.02    0.33
  -7 -11   0    0.06    0.29
   6  12   0   45.57    4.24
  -6 -12   0   45.87    4.17
  -6 -12   0   46.81    4.29
  -6 -12   0   49.06    3.97
  -5 -13   0    0.25    0.36
  -5 -13   0    0.06    0.28
   5  13   0    0.37    0.36
   4  14   0    0.31    0.39
  -4 -14   0   -0.06    0.26
  -4 -14   0   -0.07    0.29
  -3 -15   0    0.42    0.39
   3  15   0    0.04    0.36
  -3 -15   0    0.05    0.33
  -2 -16   0   -0.03    0.32
   2  16   0   -0.22    0.36
  -2 -16   0   -0.11    0.27
  -1 -17   0    0.07    0.36
   1  17   0   -0.13    0.36
   0 -18   0   11.81    1.54
   0  18   0    8.94    1.57
   1 -19   0   -0.18    0.31
  -1  19   0   -0.07    0.46
  -2  20   0    0.35    0.46
   2 -20   0   -0.20    0.21
  -3  21   0    0.18    0.51
   3 -21   0    0.65    0.37
   4 -22   0   -0.01    0.23
  -4  22   0    0.17    0.50
  23  -5  -1   12.74    1.99
 -23   5  -1   11.05    1.95
 -23   5   1   13.23    1.90
  23  -5   1    9.91    1.82
 -22   4  -1   10.31    1.69
  22  -4  -1    6.25    1.37
 -22   4   1    5.17    1.30
  22  -4   1    7.20    1.33
 -21   3  -1    0.20    0.35
  21  -3  -1    1.09    0.57
  21  -3   1    0.60    0.44
 -21   3   1    0.55    0.46
  21  -3   1    0.60    0.39
 -20   2  -1    1.16    0.53
  20  -2  -1    1.08    0.56
 -20   2   1    1.03    0.63
  20  -2   1    0.85    0.56
  20  -2   1    0.11    0.37
 -19   1  -1   19.48    2.19
  19  -1  -1   14.82    1.93
  19  -1   1   18.61    1.92
 -19   1   1   14.39    1.98
 -19   1   1   11.36    1.72
  19  -1   1   17.71    1.98
 -17  -1  -1   15.30    1.91
 -17  -1  -1   11.72    1.80
  17   1  -1   17.76    1.87
  17   1   1   14.37    1.75
 -17  -1   1   16.05    1.81
 -17  -1   1   15.09    1.88
 -16  -2  -1    1.12    0.60
  16   2  -1    1.03    0.54
 -16  -2  -1    0.92    0.58
 -16  -2   1    0.87    0.50
  16   2   1    1.31    0.52
 -16  -2   1    0.70    0.54
  15   3  -1    5.02    0.95
 -15  -3   1    3.74    0.86
 -15  -3   1    4.16    0.91
  14   4  -1   24.03    2.22
 -14  -4  -1   19.93    2.28
 -14  -4  -1   17.63    2.16
  14   4   1   17.04    2.04
 -14  -4   1   22.86    2.16
 -14  -4   1   23.01    2.31
 -13  -5  -1   35.21    2.94
  13   5  -1   25.13    2.76
 -13  -5   1   27.85    2.79
  13   5   1   35.43    2.86
 -13  -5   1   24.55    2.87
  12   6  -1    5.38    0.89
 -12  -6   1    5.16    0.86
 -12  -6   1    6.42    1.11
  11   7  -1    0.03    0.19
  11   7  -1    0.12    0.26
 -11  -7  -1    0.26    0.36
 -11  -7  -1    0.22    0.28
 -11  -7   1    0.10    0.23
 -11  -7   1    0.03    0.37
  11   7   1   -0.12    0.28
  10   8  -1   14.96    1.73
 -10  -8  -1   20.96    1.91
 -10  -8  -1   23.08    2.14
  10   8  -1   15.57    1.86
 -10  -8   1   17.41    2.02
  10   8   1   21.43    1.75
  10   8   1   20.50    1.91
 -10  -8   1   16.46    1.71
  -8 -10  -1   17.37    1.81
  -8 -10  -1   16.43    1.68
  -8 -10  -1   15.79    1.84
   8  10   1   17.21    1.70
   7  11  -1    6.00    0.98
  -7 -11  -1    7.08    0.87
  -7 -11  -1    7.06    0.99
  -7 -11  -1    7.83    1.08
   7  11   1    7.14    0.96
  -7 -11   1    6.29    1.04
  -7 -11   1    7.56    1.12
  -6 -12  -1    4.83    0.65
  -6 -12  -1    4.07    0.83
  -6 -12  -1    4.98    0.82
   6  12   1    3.10    0.72
  -5 -13  -1   20.16    2.17
  -5 -13  -1   17.50    2.15
  -5 -13  -1   20.20    2.03
   5  13  -1   27.21    2.38
   5  13   1   20.24    2.23
  -5 -13   1   26.82    2.34
  -4 -14  -1   31.58    2.82
  -4 -14  -1   28.41    2.74
   4  14  -1   21.14    2.76
  -4 -14   1   24.44    2.77
   4  14   1   32.89    2.95
   4  14   1   32.00    2.63
  -3 -15  -1   92.94    8.39
  -3 -15  -1  103.10    8.42
   3  15   1  104.59    8.79
   3  15   1   98.60    8.27
  -2 -16  -1    1.02    0.50
   2  16  -1    0.66    0.59
   2  16   1    1.30    0.64
  -2 -16   1    0.72    0.47
  -2 -16   1    0.96    0.53
   1  17  -1    5.95    1.27
  -1 -17  -1    7.37    1.21
  -1 -17   1    5.53    1.13
  -1 -17   1    5.96    1.06
   1  17   1    7.14    1.32
   0  18  -1    4.01    1.12
   0 -18  -1    4.07    0.95
   0 -18   1    2.60    0.84
   0  18   1    4.11    1.11
   0 -18   1    4.49    0.93
   1 -19  -1   15.48    1.89
  -1  19   1   14.87    2.05
   2 -20  -1    5.48    1.09
  -2  20  -1    3.16    1.08
   2 -20   1    3.96    1.02
  -2  20   1    4.79    1.23
   3 -21  -1    2.86    0.83
  -3  21   1    3.79    1.07
   4 -22  -1    5.85    1.28
  -4  22  -1    9.79    1.83
   4 -22   1    9.49    1.57
  -4  22   1    6.07    1.58
 -22   4  -2   -0.25    0.42
  22  -4  -2    0.36    0.44
  22  -4   2    0.44    0.34
  22  -4   2    0.33    0.31
 -22   4   2    0.09    0.29
 -21   3  -2    2.04    0.77
  21  -3  -2    3.12    0.90
 -21   3   2    2.37    0.76
  21  -3   2    2.25    0.71
  21  -3   2    2.60    0.73
  20  -2  -2    0.28    0.33
 -20   2  -2    0.10    0.28
  20  -2   2    0.09    0.34
 -20   2   2    0.08    0.32
  20  -2   2    0.14    0.28
  19  -1  -2    0.03    0.33
 -19   1  -2    0.15    0.43
 -19   1   2   -0.04    0.40
  19  -1   2    0.12    0.37
  19  -1   2    0.32    0.39
  18   0  -2    1.64    0.70
 -18   0  -2    1.16    0.62
 -18   0   2    2.10    0.65
  18   0   2    1.14    0.58
 -18   0   2    2.03    0.75
  18   0   2    1.50    0.61
 -17  -1  -2   -0.04    0.34
  17   1  -2   -0.03    0.36
  17   1   2   -0.03    0.32
 -17  -1   2    0.26    0.40
 -17  -1   2    0.16    0.47
  17   1   2   -0.10    0.35
  16   2  -2    0.43    0.39
 -16  -2  -2    0.21    0.43
 -16  -2   2    0.42    0.45
  16   2   2    0.65    0.46
  16   2   2    0.29    0.35
 -16  -2   2    0.15    0.43
  15   3  -2   16.24    1.85
 -15  -3  -2   18.57    2.03
 -15  -3  -2   15.42    1.95
 -15  -3   2   15.91    1.82
  15   3   2   14.33    1.67
 -15  -3   2   15.79    1.90
  14   4  -2    1.19    0.54
 -14  -4  -2    1.38    0.66
 -14  -4  -2    2.08    0.71
  14   4   2    1.53    0.54
 -14  -4   2    0.84    0.49
 -14  -4   2    1.39    0.60
 -13  -5  -2    1.35    0.65
  13   5  -2    1.80    0.59
 -13  -5  -2    1.07    0.52
  13   5   2    1.37    0.50
 -13  -5   2    1.77    0.69
 -13  -5   2    1.80    0.55
  12   6  -2    0.53    0.29
 -12  -6  -2    0.46    0.46
 -12  -6  -2    0.30    0.38
  12   6  -2    0.81    0.42
  12   6   2    0.24    0.31
 -12  -6   2    0.48    0.37
 -12  -6   2    0.30    0.49
  11   7  -2   -0.09    0.26
  11   7  -2   -0.17    0.21
 -11  -7  -2    0.12    0.31
 -11  -7  -2    0.31    0.45
  11   7   2   -0.20    0.25
 -11  -7   2    0.10    0.47
 -11  -7   2    0.08    0.21
 -10  -8  -2   -0.08    0.29
  10   8  -2    0.44    0.36
 -10  -8  -2    0.12    0.36
 -10  -8  -2    0.51    0.23
  10   8  -2    0.58    0.34
 -10  -8   2    0.27    0.51
  10   8   2    0.25    0.28
  -9  -9  -2   88.12    7.80
  -9  -9  -2   93.36    7.94
  -9  -9  -2   95.89    7.81
   9   9  -2   91.41    7.86
   9   9  -2   89.60    7.67
  -9  -9   2   94.90    7.94
   9   9   2   89.28    7.56
  -8 -10  -2    1.17    0.48
   8  10  -2    0.32    0.31
  -8 -10  -2    1.06    0.43
   8  10  -2    0.43    0.40
  -8 -10  -2    1.47    0.59
  -8 -10   2    0.17    0.39
  -7 -11  -2    7.22    1.00
  -7 -11  -2    8.60    1.20
  -7 -11  -2    8.60    1.11
   7  11  -2    7.12    1.13
  -7 -11  -2    8.57    1.07
  -7 -11   2    7.24    1.20
  -7 -11   2    7.41    1.19
  -6 -12  -2    0.36    0.33
  -6 -12  -2    0.49    0.43
  -6 -12  -2    0.36    0.33
  -6 -12  -2    1.23    0.53
   6  12  -2    0.11    0.40
  -6 -12   2    0.20    0.39
  -6 -12   2    0.66    0.47
  -5 -13  -2    0.69    0.39
   5  13  -2    0.20    0.47
  -5 -13  -2    0.82    0.48
  -5 -13  -2    0.80    0.52
  -5 -13  -2    0.74    0.41
  -5 -13   2    0.55    0.46
  -5 -13   2    0.65    0.43
   4  14  -2    1.43    0.62
  -4 -14  -2    0.73    0.43
  -4 -14  -2    0.71    0.37
  -4 -14  -2    0.50    0.50
   4  14   2    0.35    0.36
  -4 -14   2    1.16    0.53
  -4 -14   2    1.12    0.53
  -3 -15  -2  113.42   10.16
  -3 -15  -2  119.93   10.24
   3  15  -2  129.97   10.73
  -3 -15  -2  113.50   10.67
  -3 -15   2  135.09   10.35
  -3 -15   2  135.77   10.48
   3  15   2  115.52   10.24
  -2 -16  -2    2.34    0.86
  -2 -16  -2    2.27    0.70
   2  16  -2    4.24    1.03
  -2 -16   2    3.32    0.82
  -2 -16   2    3.86    0.88
   2  16   2    1.77    0.61
  -1 -17  -2    1.10    0.65
   1  17  -2    1.86    0.81
  -1 -17  -2    1.64    0.63
  -1 -17   2    1.20    0.56
   1  17   2    1.60    0.61
  -1 -17   2    1.54    0.62
   0  18  -2  106.33    9.52
   0 -18  -2  105.92    8.97
   0 -18  -2  101.13    9.43
   0 -18   2  104.72    9.03
   0  18   2  103.99    8.93
   0 -18   2  108.63    9.06
  -1  19  -2    0.26    0.48
   1 -19  -2    0.38    0.41
   1 -19   2    0.45    0.38
   2 -20  -2    0.01    0.18
  -2  20  -2   -0.11    0.39
  -2  20   2    0.24    0.32
   2 -20   2   -0.21    0.27
   3 -21  -2    5.37    1.12
  -3  21  -2    5.79    1.48
  -3  21   2    6.10    1.45
   3 -21   2    4.62    1.12
  -4  22  -2    0.74    0.73
   4 -22  -2    0.06    0.25
   4 -22   2   -0.11    0.39
  -4  22   2    0.45    0.68
 -21   3  -3    0.44    0.54
  21  -3  -3    0.22    0.36
  21  -3   3    0.07    0.26
 -21   3   3    1.00    0.49
  20  -2  -3    0.21    0.33
 -20   2  -3   -0.15    0.29
 -20   2   3    0.39    0.35
  20  -2   3    0.36    0.29
  19  -1  -3    0.40    0.32
 -19   1  -3    2.39    0.80
 -19   1   3    0.99    0.65
  19  -1   3    2.59    0.77
  18   0  -3    9.57    1.41
 -18   0   3   10.19    1.67
  17   1  -3   13.75    1.73
 -17  -1   3   13.74    1.82
 -17  -1   3   12.32    1.71
  16   2  -3    0.23    0.39
 -16  -2  -3    1.08    0.63
  16   2   3    1.31    0.61
 -16  -2   3    0.06    0.37
 -16  -2   3    0.31    0.51
  16   2   3    1.01    0.54
 -15  -3  -3    2.80    0.88
  15   3   3    2.77    0.67
 -15  -3   3    0.37    0.49
  15   3   3    2.97    0.85
 -14  -4  -3   17.34    2.17
  14   4   3   18.62    1.89
  14   4   3   20.26    2.22
  13   5  -3   12.08    1.49
  13   5  -3   12.23    1.42
 -13  -5   3   11.24    1.45
 -13  -5   3   12.02    1.64
  12   6  -3    0.64    0.42
 -12  -6  -3    1.07    0.53
  12   6  -3    0.28    0.40
 -12  -6   3    0.59    0.56
  12   6   3    1.74    0.65
  12   6   3    1.51    0.46
  11   7  -3    2.18    0.61
 -11  -7  -3    0.59    0.48
  11   7  -3    1.09    0.48
  11   7   3    0.82    0.36
 -11  -7   3    0.83    0.55
  11   7   3    0.74    0.49
 -10  -8  -3   15.47    1.66
 -10  -8  -3   15.61    1.79
  10   8   3   15.34    1.78
  10   8   3   15.28    1.56
  -8 -10  -3   26.19    2.68
  -8 -10  -3   29.14    2.76
   8  10   3   26.16    2.47
  -7 -11  -3    2.55    0.68
  -7 -11  -3    2.50    0.74
  -7 -11  -3    2.71    0.60
   7  11  -3    0.49    0.47
   7  11  -3    0.26    0.35
  -7 -11   3    0.44    0.48
  -6 -12  -3    5.30    0.96
  -6 -12  -3    5.56    0.83
  -6 -12  -3    6.75    1.11
   6  12  -3    3.19    0.91
  -6 -12   3    3.43    0.95
  -6 -12   3    2.74    0.82
  -5 -13  -3   11.17    1.44
  -5 -13  -3   10.27    1.50
  -5 -13  -3   10.72    1.30
   5  13   3   11.57    1.33
  -4 -14  -3   49.00    5.07
  -4 -14  -3   52.35    4.74
   4  14   3   57.89    4.97
   4  14   3   56.98    4.76
   3  15  -3   56.10    5.21
  -3 -15   3   51.18    4.83
  -3 -15   3   53.57    4.96
  -2 -16  -3    0.95    0.61
  -2 -16  -3    1.65    0.59
   2  16  -3    0.21    0.55
  -2 -16   3    0.37    0.44
   2  16   3    0.94    0.48
  -2 -16   3    0.34    0.42
  -1 -17  -3    8.95    1.34
  -1 -17  -3   10.96    1.80
   1  17   3   10.52    1.38
   0 -18  -3    1.64    0.67
   0  18  -3    3.48    1.01
   0 -18  -3    2.40    0.76
   0 -18   3    2.51    0.80
   0  18   3    3.37    0.88
   0 -18   3    2.40    0.78
  -1  19  -3   12.57    1.86
   1 -19   3   13.67    1.77
   1 -19   3   12.59    1.64
   2 -20  -3    1.54    0.66
  -2  20  -3    0.09    0.49
   2 -20  -3    1.32    0.52
   2 -20   3    0.78    0.39
  -2  20   3    0.91    0.53
  -3  21  -3    2.08    0.96
   3 -21  -3    0.97    0.67
   3 -21  -3    0.59    0.30
   3 -21   3    1.20    0.55
 -20   2  -4    0.29    0.63
  20  -2  -4    0.10    0.34
 -20   2   4    0.30    0.38
  20  -2   4    0.35    0.37
  19  -1  -4    5.90    1.20
 -19   1   4    7.64    1.45
  18   0  -4  127.42   10.39
 -18   0  -4  117.92   10.76
  18   0   4  115.77   10.55
 -18   0   4  122.79   10.57
  17   1  -4    6.35    1.21
 -17  -1  -4    6.10    1.38
 -17  -1   4    7.24    1.35
  17   1   4    6.23    1.29
 -16  -2  -4    0.17    0.35
  16   2  -4    0.37    0.43
  16   2   4    0.75    0.41
 -16  -2   4    0.34    0.52
 -16  -2   4    0.36    0.51
 -15  -3  -4    5.94    1.30
  15   3  -4    4.97    0.98
 -15  -3   4    5.30    1.10
 -15  -3   4    5.90    1.21
  15   3   4    5.25    1.18
  14   4  -4    1.48    0.58
 -14  -4  -4    2.00    0.79
 -14  -4   4    2.41    0.84
  14   4   4    2.44    0.79
  13   5  -4    4.49    0.91
 -13  -5  -4    2.00    0.81
  13   5  -4    4.63    0.92
 -13  -5   4    4.86    1.09
  12   6  -4   48.92    4.58
  12   6  -4   50.15    4.50
 -12  -6  -4   49.37    4.72
  12   6   4   48.88    4.62
 -12  -6   4   49.16    4.66
  11   7  -4    0.19    0.40
  11   7  -4    0.30    0.35
 -11  -7  -4    0.19    0.35
 -11  -7   4   -0.05    0.42
  11   7   4    0.04    0.35
 -10  -8  -4    2.16    0.70
  10   8  -4    4.05    0.80
 -10  -8  -4    1.92    0.69
  10   8  -4    3.52    0.85
  10   8   4    2.40    0.73
 -10  -8   4    2.76    0.85
  -9  -9  -4   35.09    3.60
  -9  -9  -4   32.88    3.57
   9   9  -4   40.32    3.71
   9   9  -4   39.46    3.50
  -9  -9   4   39.35    3.80
   9   9   4   37.42    3.59
   8  10  -4    7.30    1.07
   8  10  -4    8.22    1.26
  -8 -10   4    7.06    1.35
  -7 -11  -4    9.99    1.40
  -7 -11  -4   10.18    1.39
   7  11   4    9.30    1.27
   6  12  -4   17.14    1.90
   6  12  -4   15.42    2.05
  -6 -12  -4   18.99    2.09
  -6 -12  -4   18.93    2.13
  -6 -12   4   14.61    2.02
   6  12   4   19.58    1.93
  -5 -13  -4    3.92    0.94
   5  13  -4    3.07    0.94
  -5 -13  -4    3.07    0.94
  -5 -13   4    2.04    0.81
   5  13   4    3.53    0.73
   4  14  -4    5.42    1.24
  -4 -14  -4    5.61    1.27
   4  14   4    4.75    1.03
  -4 -14   4    4.09    0.95
  -4 -14   4    4.75    1.12
   3  15  -4    0.12    0.52
  -3 -15  -4    1.74    0.75
   3  15   4    1.23    0.61
  -3 -15   4   -0.03    0.34
  -3 -15   4    0.04    0.42
   2  16  -4    8.20    1.57
  -2 -16   4    8.74    1.43
  -2 -16   4    7.49    1.25
  -1 -17  -4    0.25    0.36
   1  17  -4   -0.10    0.37
  -1 -17   4    0.33    0.29
   1  17   4   -0.16    0.30
  -1 -17   4   -0.04    0.31
   0  18  -4    5.36    1.41
   0 -18  -4    7.56    1.52
   0 -18   4    7.16    1.22
   0 -18   4    6.34    1.27
   0  18   4    8.07    1.35
  -1  19  -4    1.93    0.97
   1 -19  -4    3.23    1.04
  -1  19   4    3.69    0.92
   1 -19   4    1.78    0.64
   1 -19   4    2.00    0.63
  18   0  -5    1.41    0.51
 -18   0   5    1.44    0.60
  17   1  -5   19.99    2.30
 -16  -2  -5    1.14    0.65
  16   2  -5    0.40    0.40
  16   2   5    0.95    0.44
 -15  -3  -5   -0.12    0.29
  15   3  -5    0.92    0.54
 -15  -3   5    1.19    0.69
  15   3   5    0.52    0.33
  14   4  -5    8.82    1.45
  14   4  -5    7.86    1.27
 -14  -4   5    8.45    1.47
  12   6  -5    0.58    0.43
  12   6  -5    0.12    0.40
 -12  -6  -5    0.79    0.44
 -12  -6   5    0.48    0.51
  12   6   5    1.70    0.66
 -11  -7  -5   -0.02    0.24
  11   7  -5    0.47    0.43
  11   7  -5    0.14    0.44
 -11  -7   5    0.05    0.40
  11   7   5    0.14    0.36
  -9  -9  -5    3.97    0.98
  -9  -9  -5    4.16    1.06
   9   9   5    4.23    1.02
   8  10  -5    4.42    1.01
  -8 -10  -5    0.86    0.47
  -8 -10  -5    1.72    0.72
   8  10   5    0.96    0.49
  -8 -10   5    3.91    0.99
  -7 -11  -5    4.40    1.05
   7  11  -5    5.64    1.22
  -7 -11  -5    4.35    1.11
   7  11   5    3.35    0.85
  -7 -11   5    4.85    1.13
  -6 -12  -5    0.44    0.37
   6  12  -5    2.97    0.92
  -6 -12  -5    0.49    0.52
  -6 -12   5    2.62    0.82
   6  12   5    0.69    0.45
   5  13  -5   15.25    2.04
  -5 -13   5   15.62    1.99
  -4 -14  -5   11.57    1.69
   3  15  -5   25.92    2.93
  -3 -15  -5   22.01    2.82
   3  15   5   23.28    2.68
  -3 -15   5   25.85    2.80
  -2 -16  -5    2.36    0.84
   2  16  -5    1.67    0.78
   2  16   5    1.98    0.67
  -2 -16   5    2.34    0.76
   1  17  -5    0.85    0.82
  -1 -17  -5    3.65    1.12
   1  17   5    3.40    0.99
  14   4  -6    1.00    0.45
 -14  -4   6    1.48    0.54
 -13  -5  -6    1.60    0.80
  13   5  -6    3.71    0.95
  13   5   6    2.44    0.87
 -13  -5   6    4.18    0.97
  12   6  -6    0.22    0.29
 -12  -6  -6    0.42    0.50
  12   6   6    0.42    0.36
 -12  -6   6    0.14    0.28
 -11  -7  -6    0.14    0.27
  11   7  -6    0.65    0.41
  11   7   6    0.41    0.31
 -11  -7   6    0.40    0.44
  10   8  -6    0.90    0.47
 -10  -8  -6    1.10    0.47
  10   8   6    1.09    0.43
 -10  -8   6    1.39    0.61
  -9  -9  -6   20.68    2.43
   9   9  -6   20.87    2.44
  -9  -9   6   17.00    2.34
   9   9   6   20.21    2.30
  -8 -10  -6    9.79    1.68
  -8 -10  -6    9.95    1.51
   8  10   6    8.83    1.32
  -7 -11  -6   17.05    2.26
  -7 -11  -6   18.94    2.30
   7  11   6   17.67    2.07
   6  12  -6   -0.16    0.39
  -6 -12  -6   -0.19    0.24
  -6 -12  -6    0.25    0.45
  -6 -12   6    0.32    0.55
  -5 -13  -6    2.49    0.78
   5  13  -6    0.48    0.63
   5  13   6    1.77    0.78
  -5 -13   6    1.66    0.68
  23  -3   0    0.04    0.40
 -23   3   0   -0.28    0.29
  22  -2   0    0.36    0.34
 -22   2   0    0.30    0.34
  21  -1   0   92.40    7.94
 -21   1   0   87.24    7.87
 -21   1   0   89.73    8.13
  20   0   0    0.08    0.38
 -20   0   0   -0.05    0.41
 -20   0   0    0.32    0.47
 -19  -1   0   -0.15    0.35
  19   1   0    0.08    0.42
 -19  -1   0   -0.11    0.42
 -18  -2   0    3.31    0.94
  18   2   0    2.16    0.73
 -18  -2   0    4.24    0.99
 -17  -3   0    0.34    0.45
  17   3   0   -0.26    0.31
 -17  -3   0   -0.12    0.33
  16   4   0   -0.09    0.31
 -16  -4   0   -0.04    0.36
 -16  -4   0   -0.05    0.32
  15   5   0    0.25    0.37
 -15  -5   0    0.01    0.39
 -15  -5   0    0.24    0.40
 -14  -6   0    0.48    0.42
  14   6   0   -0.12    0.29
 -14  -6   0   -0.10    0.34
 -13  -7   0   -0.21    0.26
  13   7   0   -0.09    0.31
 -13  -7   0   -0.02    0.30
 -12  -8   0   56.76    5.28
  12   8   0   61.36    5.13
 -12  -8   0   57.60    5.08
 -11  -9   0    0.04    0.22
  11   9   0   -0.06    0.28
 -11  -9   0   -0.18    0.32
  11   9   0    0.18    0.20
  10  10   0    0.11    0.21
 -10 -10   0    0.05    0.19
 -10 -10   0   -0.04    0.30
  10  10   0   -0.03    0.27
   9  11   0    1.62    0.49
  -9 -11   0    1.92    0.71
  -9 -11   0    1.81    0.40
   8  12   0   -0.18    0.27
  -8 -12   0    0.18    0.33
  -8 -12   0    0.07    0.33
   7  13   0    0.31    0.35
  -7 -13   0   -0.23    0.32
  -7 -13   0   -0.17    0.28
  -6 -14   0   57.30    5.06
  -6 -14   0   59.44    5.20
   6  14   0   54.73    5.13
   5  15   0    0.19    0.39
  -5 -15   0    0.13    0.37
  -5 -15   0   -0.11    0.30
  -4 -16   0   -0.20    0.29
   4  16   0    0.04    0.35
  -4 -16   0   -0.02    0.31
   3  17   0   34.30    3.60
  -3 -17   0   37.73    3.50
  -3 -17   0   36.18    3.49
  -2 -18   0   -0.13    0.29
   2  18   0   -0.17    0.41
   1  19   0    0.06    0.42
  -1 -19   0   -0.06    0.32
   0 -20   0  145.32   12.07
   0  20   0  139.62   12.53
  -1  21   0    0.38    0.40
   1 -21   0    0.00    0.23
   2 -22   0    0.31    0.29
  -2  22   0    0.26    0.50
   3 -23   0   49.97    4.78
  -3  23   0   44.22    5.01
 -23   3  -1    1.03    0.64
  23  -3  -1    2.21    0.92
  23  -3   1    1.71    0.67
 -23   3   1    2.19    0.73
 -22   2  -1    0.60    0.47
  22  -2  -1    0.26    0.37
  22  -2   1    0.26    0.34
  22  -2   1    0.31    0.31
 -22   2   1    0.59    0.37
 -21   1  -1    3.04    0.91
  21  -1  -1    2.85    0.85
  21  -1   1    2.17    0.75
 -21   1   1    2.53    0.79
  21  -1   1    1.81    0.66
 -20   0  -1   17.36    2.36
  20   0  -1   23.29    2.46
  20   0   1   17.16    2.26
 -20   0   1   22.40    2.36
 -20   0   1   23.80    2.50
  19   1  -1   15.11    1.88
 -19  -1  -1   20.59    2.18
 -19  -1  -1   18.51    2.05
 -19  -1   1   11.61    1.78
 -19  -1   1   11.73    1.72
  19   1   1   18.65    1.96
 -18  -2  -1    4.19    1.05
 -18  -2  -1    5.58    1.19
  18   2   1    4.77    0.98
 -17  -3  -1    3.55    0.97
  17   3  -1    5.27    1.02
 -17  -3  -1    4.82    1.11
  17   3   1    2.28    0.73
 -17  -3   1    6.50    1.04
 -17  -3   1    4.73    0.98
  16   4  -1   18.66    2.09
  16   4   1   24.21    2.15
 -16  -4   1   16.49    2.06
 -16  -4   1   16.72    2.03
  15   5  -1   48.21    4.23
 -15  -5   1   41.58    4.25
 -15  -5   1   46.64    4.21
 -14  -6  -1    4.67    0.95
  14   6  -1    6.15    1.01
 -14  -6  -1    3.84    1.01
 -14  -6   1    6.54    0.95
 -14  -6   1    7.55    1.20
  14   6   1    4.40    0.87
  13   7  -1    0.55    0.38
 -13  -7  -1    0.29    0.35
 -13  -7  -1    0.51    0.46
  13   7   1    0.35    0.36
 -13  -7   1    0.71    0.40
 -13  -7   1    0.08    0.43
 -12  -8  -1   10.89    1.46
 -11  -9  -1   29.79    3.29
  11   9  -1   41.76    3.49
  11   9  -1   43.59    3.34
 -11  -9  -1   32.97    3.51
  11   9   1   31.34    3.30
 -11  -9   1   38.21    3.61
 -11  -9   1   39.38    3.23
  10  10  -1   19.58    2.23
  10  10  -1   18.11    2.27
 -10 -10  -1   28.07    2.35
 -10 -10  -1   28.08    2.58
  10  10   1   26.93    2.37
  10  10   1   26.83    2.24
 -10 -10   1   18.42    2.41
   9  11  -1    7.83    1.08
   9  11  -1    7.51    1.02
  -9 -11   1    7.33    1.25
  -8 -12  -1    2.94    0.61
  -8 -12  -1    2.55    0.75
  -8 -12  -1    3.72    0.80
   8  12  -1    4.35    0.79
  -8 -12   1    4.14    0.89
   8  12   1    3.07    0.67
  -8 -12   1    4.15    0.92
  -7 -13  -1   24.65    2.45
  -7 -13  -1   26.91    2.39
  -7 -13  -1   27.81    2.26
   7  13  -1   19.36    2.36
  -7 -13   1   17.30    2.29
   7  13   1   25.08    2.38
  -7 -13   1   19.45    2.38
  -6 -14  -1    3.89    0.87
  -6 -14  -1    4.47    0.93
  -6 -14  -1    5.24    0.75
   6  14   1    4.60    0.92
  -6 -14   1    7.13    1.07
  -6 -14   1    8.75    1.16
  -5 -15  -1   13.09    1.69
   5  15  -1   17.13    1.84
  -5 -15  -1   12.73    1.68
  -5 -15   1   16.35    1.80
  -5 -15   1   17.95    1.91
   5  15   1   13.28    1.74
   4  16  -1    0.57    0.52
  -4 -16  -1    0.22    0.35
  -4 -16  -1    0.13    0.36
  -4 -16   1    0.30    0.45
  -4 -16   1    0.64    0.44
   4  16   1    0.29    0.44
   3  17  -1   14.08    1.83
  -3 -17   1   12.89    1.67
  -3 -17   1   14.03    1.76
  -2 -18  -1   14.64    1.86
  -2 -18   1   17.30    1.95
   2  18   1   15.43    2.00
   1  19  -1   15.87    2.16
  -1 -19  -1   22.62    2.25
  -1 -19   1   13.01    1.93
   1  19   1   18.89    2.25
   0 -20  -1    1.88    0.65
   0  20  -1    2.11    0.80
   0 -20   1    1.34    0.58
   0  20   1    1.64    0.73
  -1  21  -1    0.12    0.41
   1 -21  -1    0.59    0.36
  -1  21   1    0.25    0.42
   1 -21   1    0.01    0.27
  -2  22  -1    5.52    1.50
   2 -22  -1    7.26    1.36
   2 -22   1    5.53    1.29
  -2  22   1    6.52    1.50
  -3  23  -1   14.90    2.45
  22  -2  -2    0.26    0.41
 -22   2  -2    0.19    0.31
 -22   2   2   -0.26    0.26
  22  -2   2    0.11    0.18
  22  -2   2   -0.08    0.25
  21  -1  -2    0.34    0.31
 -21   1  -2    0.45    0.35
 -21   1   2    0.49    0.38
  21  -1   2    0.30    0.33
  21  -1   2    0.39    0.30
  20   0  -2    0.01    0.30
 -20   0  -2    0.32    0.35
  20   0   2   -0.03    0.39
 -20   0   2    0.31    0.41
  20   0   2    0.22    0.32
 -19  -1  -2    0.59    0.40
  19   1  -2   -0.07    0.29
 -19  -1   2    0.43    0.42
 -19  -1   2    0.45    0.49
  19   1   2   -0.03    0.27
  19   1   2   -0.04    0.34
  18   2  -2    1.36    0.58
 -18  -2  -2    0.88    0.58
  18   2   2    1.68    0.65
 -18  -2   2    1.16    0.57
 -18  -2   2    0.91    0.59
  18   2   2    1.34    0.60
  17   3  -2    0.25    0.37
 -17  -3  -2   -0.01    0.40
 -17  -3   2   -0.07    0.38
  17   3   2   -0.16    0.33
 -17  -3   2   -0.07    0.36
  16   4  -2    4.28    1.00
 -16  -4  -2    6.63    1.29
 -16  -4  -2    4.20    1.07
  16   4   2    6.54    0.98
 -16  -4   2    5.97    1.04
 -16  -4   2    4.09    1.03
 -15  -5  -2  247.95   19.25
 -15  -5  -2  247.98   19.31
  15   5  -2  207.56   18.72
 -15  -5   2  218.79   18.99
  15   5   2  244.04   18.70
 -15  -5   2  227.13   19.13
  14   6  -2    0.62    0.46
 -14  -6  -2    1.43    0.61
 -14  -6  -2    0.82    0.60
 -14  -6   2    0.86    0.49
  14   6   2    0.82    0.46
 -14  -6   2    0.57    0.52
  13   7  -2    0.20    0.32
 -13  -7  -2    0.22    0.37
 -13  -7  -2    0.19    0.41
 -13  -7   2    0.31    0.33
 -13  -7   2    0.11    0.46
  13   7   2   -0.14    0.30
 -12  -8  -2   18.13    2.00
  12   8  -2   18.66    1.87
  12   8  -2   17.14    1.96
 -12  -8  -2   19.50    2.21
  12   8   2   18.61    1.89
 -12  -8   2   17.49    2.12
  11   9  -2    3.66    0.80
 -11  -9  -2    4.73    1.04
 -11  -9  -2    3.64    0.81
  11   9  -2    3.57    0.68
  11   9   2    3.27    0.69
 -11  -9   2    4.56    1.03
 -10 -10  -2    0.30    0.32
 -10 -10  -2    0.93    0.45
  10  10  -2    0.94    0.49
  10  10  -2    0.90    0.45
 -10 -10  -2    0.26    0.43
 -10 -10   2    1.41    0.65
  10  10   2    0.35    0.34
   9  11  -2   22.71    2.41
  -9 -11  -2   25.57    2.59
  -9 -11  -2   23.41    2.37
   9  11  -2   23.03    2.38
  -9 -11  -2   24.08    2.36
   9  11   2   25.00    2.32
  -9 -11   2   21.44    2.52
  -8 -12  -2    0.65    0.48
  -8 -12  -2    0.47    0.36
   8  12  -2    1.18    0.58
  -8 -12  -2    1.48    0.54
  -8 -12  -2    0.70    0.41
  -8 -12   2    0.59    0.48
  -7 -13  -2    1.23    0.58
   7  13  -2    0.60    0.51
  -7 -13  -2    0.80    0.44
  -7 -13  -2    0.95    0.44
  -7 -13  -2    0.97    0.51
  -7 -13   2    1.43    0.61
  -7 -13   2    1.13    0.58
  -6 -14  -2   81.09    7.14
  -6 -14  -2   85.66    7.06
   6  14  -2   77.51    7.25
  -6 -14  -2   83.05    6.98
  -6 -14  -2   82.74    7.30
  -6 -14   2   78.91    7.16
  -6 -14   2   84.92    7.13
  -5 -15  -2    3.05    0.77
  -5 -15  -2    3.08    0.89
  -5 -15  -2    2.80    0.76
   5  15  -2    3.64    0.92
  -5 -15   2    4.01    0.92
  -5 -15   2    4.68    0.94
   5  15   2    2.96    0.70
  -4 -16  -2    0.20    0.45
   4  16  -2    0.05    0.48
  -4 -16  -2    0.13    0.36
   4  16   2    0.42    0.39
  -4 -16   2    0.02    0.31
  -4 -16   2    0.14    0.41
   3  17  -2    4.73    1.14
  -3 -17  -2    5.25    1.00
  -3 -17  -2    7.84    1.35
  -3 -17   2    4.35    1.03
   3  17   2    6.79    0.97
  -3 -17   2    4.65    1.05
  -2 -18  -2    0.70    0.48
   2  18  -2    0.93    0.62
  -2 -18   2    1.24    0.58
  -2 -18   2    1.18    0.57
   1  19  -2    0.18    0.43
  -1 -19  -2    0.18    0.36
  -1 -19   2    0.18    0.31
   1  19   2    0.29    0.42
  -1 -19   2    0.29    0.40
   0 -20  -2   23.28    2.38
   0  20  -2   20.06    2.54
   0 -20   2   18.00    2.25
   0  20   2   18.65    2.47
  -1  21  -2    1.03    0.66
   1 -21  -2    2.39    0.69
  -1  21   2    2.45    0.86
   1 -21   2    1.93    0.68
   2 -22  -2    0.20    0.22
  -2  22  -2   -0.05    0.66
  -2  22   2    0.06    0.54
   2 -22   2    0.18    0.39
 -21   1  -3    0.96    0.53
  21  -1  -3    1.43    0.59
  21  -1   3    0.40    0.33
 -21   1   3    1.54    0.61
  20   0  -3    6.20    1.17
 -20   0  -3    3.23    0.95
  20   0   3    2.70    0.77
 -19  -1  -3    2.53    0.82
  19   1   3    2.29    0.72
 -18  -2  -3    1.63    0.65
  18   2  -3    2.63    0.77
 -18  -2   3    2.14    0.80
 -18  -2   3    1.78    0.72
  18   2   3    1.12    0.54
  17   3  -3    4.57    0.94
 -17  -3  -3    2.22    0.83
 -17  -3   3    4.87    1.05
 -17  -3   3    5.61    1.17
  15   5  -3   68.97    5.99
 -15  -5   3   70.71    6.22
 -15  -5   3   64.30    5.93
 -14  -6  -3   13.32    1.71
  14   6   3   11.97    1.42
  14   6   3   12.46    1.67
 -13  -7  -3    0.33    0.43
  13   7  -3    0.48    0.42
  13   7   3    0.25    0.39
  13   7   3    0.76    0.44
 -13  -7   3    0.29    0.54
  12   8  -3    6.98    1.10
  12   8  -3    6.11    1.02
 -12  -8   3    6.65    1.27
  11   9  -3   28.36    2.82
  11   9  -3   27.62    2.79
 -11  -9   3   29.31    3.01
 -10 -10  -3   27.97    3.11
 -10 -10  -3   29.23    3.02
 -10 -10  -3   32.47    3.03
  10  10   3   32.25    2.84
  -9 -11  -3    4.87    0.93
  -9 -11  -3    3.95    0.88
  -9 -11  -3    3.24    0.92
   9  11   3    4.52    0.76
  -9 -11   3    8.78    1.29
   8  12  -3    2.96    0.76
   8  12  -3    3.00    0.84
  -8 -12   3    4.28    1.00
  -7 -13  -3   22.04    2.49
  -7 -13  -3   25.08    2.50
  -7 -13  -3   24.40    2.34
  -7 -13  -3   21.34    2.40
  -6 -14  -3    5.13    1.06
  -6 -14  -3    5.72    0.99
  -6 -14  -3    5.43    0.87
   6  14  -3    2.35    0.89
  -6 -14  -3    5.26    0.99
  -6 -14   3    2.74    0.89
  -5 -15   3   13.42    1.72
  -4 -16  -3   11.64    1.38
   4  16  -3    7.90    1.53
  -4 -16  -3    9.95    1.53
  -4 -16   3    6.41    1.38
   4  16   3   11.12    1.38
  -3 -17  -3    8.45    1.21
  -3 -17  -3    7.49    1.51
   3  17   3    8.54    1.22
  -2 -18  -3   10.06    1.35
  -2 -18  -3    8.15    1.58
   2  18   3    8.56    1.30
  -1 -19  -3   11.06    1.75
  -1 -19  -3   14.28    1.70
   1  19   3   11.94    1.64
   0 -20  -3    0.13    0.24
   0  20  -3    0.47    0.47
   0 -20  -3   -0.13    0.30
   0 -20   3    0.07    0.27
   0 -20   3    0.17    0.31
   1 -21  -3    1.71    0.51
  -1  21  -3    4.89    1.39
   1 -21  -3    0.92    0.63
   1 -21   3    4.98    1.04
  20   0  -4   10.27    1.53
 -20   0  -4   11.30    2.06
 -20   0   4    8.89    1.69
  20   0   4   12.33    1.73
  19   1  -4    5.84    1.12
 -19  -1  -4    2.34    0.89
  19   1   4    2.95    0.90
 -19  -1   4    5.72    1.21
 -18  -2  -4    1.06    0.60
  18   2  -4    0.79    0.48
  18   2   4    1.33    0.54
 -18  -2   4    1.55    0.77
  17   3  -4    1.14    0.49
 -17  -3  -4    1.43    0.55
  17   3   4    0.94    0.49
 -17  -3   4    1.11    0.72
  16   4  -4   -0.14    0.31
 -16  -4  -4    1.42    0.62
  16   4   4    1.52    0.59
 -16  -4   4    0.47    0.58
  15   5  -4    1.15    0.54
 -15  -5   4    1.55    0.77
  14   6  -4    0.46    0.41
 -14  -6  -4    0.17    0.41
  14   6   4    0.48    0.45
 -14  -6   4    0.68    0.57
  13   7  -4    0.30    0.38
 -13  -7  -4    0.20    0.36
  13   7  -4    0.10    0.36
 -13  -7   4    0.06    0.51
  13   7   4    0.18    0.39
  12   8  -4   23.80    2.56
 -12  -8  -4   21.93    2.59
  12   8  -4   25.80    2.51
  12   8   4   26.33    2.70
 -12  -8   4   21.67    2.61
 -11  -9  -4    1.76    0.64
  11   9  -4   -0.03    0.33
  11   9  -4    0.06    0.38
 -11  -9   4    0.35    0.47
  11   9   4    2.06    0.72
  10  10  -4    1.78    0.63
 -10 -10  -4    3.98    0.92
  10  10  -4    1.84    0.68
 -10 -10   4    1.81    0.74
  10  10   4    3.48    0.88
  -9 -11  -4    0.04    0.41
  -9 -11  -4    0.25    0.37
   9  11  -4    0.58    0.40
   9  11  -4    0.40    0.49
  -9 -11   4    0.42    0.42
   9  11   4    0.22    0.37
  -8 -12  -4    0.18    0.40
  -8 -12  -4   -0.19    0.38
   8  12  -4    0.27    0.38
   8  12  -4    0.36    0.49
  -8 -12   4    0.19    0.41
   8  12   4    0.05    0.36
   7  13  -4    2.54    0.68
  -7 -13  -4    1.13    0.56
   7  13  -4    1.96    0.76
  -7 -13  -4    0.23    0.52
   7  13   4    0.99    0.52
  -7 -13   4    2.83    0.89
  -6 -14  -4   28.89    3.14
   6  14  -4   29.07    2.88
  -6 -14  -4   28.21    3.00
   6  14  -4   26.84    3.08
  -6 -14   4   27.14    3.06
   6  14   4   30.51    2.86
   5  15  -4    1.31    0.68
  -5 -15  -4   -0.04    0.47
  -5 -15   4    1.11    0.57
  -5 -15   4    1.37    0.63
   5  15   4   -0.26    0.42
  -4 -16  -4    1.02    0.58
   4  16  -4    0.42    0.48
   4  16   4    1.16    0.57
  -4 -16   4    0.11    0.29
  -4 -16   4    0.73    0.53
   3  17  -4   18.96    2.30
  -3 -17  -4   12.64    1.98
  -3 -17   4   18.65    2.13
  -3 -17   4   19.07    2.08
   3  17   4   14.43    1.91
  -2 -18  -4    2.16    0.74
   2  18  -4    0.54    0.49
  -2 -18   4    1.22    0.54
   2  18   4    1.88    0.67
  -2 -18   4    1.35    0.53
   1  19  -4    3.46    1.13
  -1 -19  -4    1.95    0.70
  -1 -19   4    3.04    0.77
   1  19   4    1.37    0.59
  -1 -19   4    2.81    0.77
   0 -20   4   55.64    5.34
  17   3  -5    4.32    0.93
 -17  -3  -5    0.43    0.67
  17   3   5    0.55    0.40
 -16  -4  -5   12.70    1.86
  16   4   5   10.97    1.89
  15   5  -5    9.45    1.39
 -15  -5  -5   16.37    1.95
 -15  -5   5   11.48    1.67
  14   6  -5    0.37    0.44
 -14  -6  -5    0.44    0.31
 -14  -6   5    0.33    0.39
  14   6   5    0.70    0.41
  13   7  -5    0.65    0.55
  13   7  -5    0.86    0.49
 -13  -7  -5    1.54    0.57
  13   7   5    1.31    0.58
 -13  -7   5    0.89    0.41
 -12  -8  -5    1.38    0.56
  12   8  -5   -0.08    0.36
  12   8  -5    0.03    0.39
  12   8   5    0.94    0.50
 -12  -8   5    0.30    0.36
  11   9  -5   29.56    3.15
  11   9  -5   28.73    2.91
 -11  -9   5   28.37    3.15
  -9 -11  -5    2.42    0.74
   9  11  -5    1.49    0.62
  -9 -11  -5    3.23    0.95
   9  11   5    4.92    1.01
  -9 -11   5    2.11    0.79
   8  12  -5    1.45    0.61
  -8 -12  -5    1.18    0.51
  -8 -12  -5    0.88    0.58
  -8 -12   5    2.31    0.78
   8  12   5    1.24    0.56
  -7 -13  -5   16.94    2.17
  -7 -13  -5   16.96    2.10
   7  13   5   17.53    2.03
   6  14  -5    0.90    0.56
  -6 -14  -5    0.70    0.39
  -6 -14   5    1.43    0.63
  -5 -15  -5    4.61    1.21
   5  15  -5    9.82    1.61
  -5 -15   5    9.72    1.56
   5  15   5    5.11    1.15
   4  16  -5    5.62    1.40
  -4 -16  -5    6.58    1.43
   4  16   5    6.33    1.26
  -4 -16   5    6.43    1.35
  -3 -17  -5    6.72    1.49
   3  17   5    7.98    1.41
  12   8  -6    4.89    1.15
 -12  -8  -6    4.94    1.20
 -12  -8   6    5.36    1.32
  12   8   6    4.40    1.11
  11   9  -6    7.35    1.43
 -11  -9  -6    6.94    1.47
 -11  -9   6    9.06    1.65
  11   9   6    7.30    1.38
  10  10  -6    5.55    1.31
 -10 -10   6    7.33    1.55
   9  11  -6    5.99    1.45
  -9 -11  -6    7.59    1.49
   9  11   6    7.99    1.33
  -9 -11   6    6.22    1.53
  -8 -12  -6    0.91    0.46
   8  12  -6    2.58    0.97
  -8 -12   6    2.58    1.04
  23  -1   0    0.39    0.46
 -23   1   0    0.56    0.40
 -22   0   0    0.00    0.36
 -22   0   0   -0.06    0.25
  22   0   0   -0.06    0.23
 -21  -1   0   89.34    7.95
  21   1   0   89.07    7.85
 -21  -1   0   90.11    8.07
  20   2   0    0.01    0.34
 -20  -2   0    0.27    0.49
 -20  -2   0    0.30    0.47
 -19  -3   0    0.41    0.48
 -19  -3   0    0.24    0.40
  19   3   0   -0.13    0.31
 -18  -4   0   26.74    2.68
  18   4   0   21.41    2.49
 -18  -4   0   24.26    2.62
  17   5   0   -0.03    0.33
 -17  -5   0   -0.16    0.23
 -17  -5   0   -0.06    0.34
 -16  -6   0   -0.32    0.35
  16   6   0    0.01    0.38
 -16  -6   0   -0.04    0.36
 -15  -7   0   11.71    1.45
 -15  -7   0   12.04    1.58
  15   7   0   11.12    1.45
 -14  -8   0   -0.13    0.35
 -14  -8   0    0.20    0.32
  14   8   0   -0.09    0.32
  13   9   0   -0.02    0.32
 -13  -9   0    0.01    0.26
 -13  -9   0    0.16    0.41
 -12 -10   0   11.43    1.57
  12  10   0   12.11    1.46
 -12 -10   0   10.89    1.29
 -11 -11   0    0.05    0.24
 -11 -11   0    0.24    0.44
  11  11   0    0.24    0.33
 -10 -12   0   -0.13    0.35
  10  12   0    0.09    0.33
  10  12   0    0.12    0.33
  -9 -13   0   14.07    1.82
  -9 -13   0   15.34    1.79
   9  13   0   13.69    1.60
  -8 -14   0    0.06    0.41
   8  14   0   -0.11    0.32
  -8 -14   0    0.06    0.36
  -7 -15   0    0.03    0.33
   7  15   0   -0.06    0.35
  -7 -15   0   -0.14    0.37
  -6 -16   0    0.18    0.43
   6  16   0   -0.08    0.34
  -6 -16   0    0.05    0.31
  -5 -17   0   -0.19    0.35
   5  17   0    0.00    0.36
  -5 -17   0   -0.23    0.31
  -4 -18   0    0.07    0.35
  -4 -18   0   -0.01    0.40
   4  18   0    0.25    0.44
   3  19   0   42.82    4.30
  -3 -19   0   43.39    4.13
  -2 -20   0    0.20    0.25
   2  20   0    0.41    0.51
   1  21   0    0.21    0.42
  -1 -21   0   -0.21    0.20
   0  22   0    0.55    0.41
   0 -22   0    0.44    0.35
   1 -23   0    0.24    0.36
  -1  23   0    0.05    0.61
 -23   1  -1    4.24    1.13
  23  -1  -1    6.94    1.42
  23  -1   1    4.36    1.01
 -23   1   1    6.35    1.33
  23  -1   1    5.33    1.22
 -22   0  -1   14.87    1.87
  22   0  -1   10.92    1.69
 -22   0   1    9.44    1.67
  22   0   1   17.11    1.89
 -22   0   1   11.04    1.67
  22   0   1   14.94    1.70
 -21  -1  -1    1.31    0.65
 -21  -1  -1    1.77    0.68
  21   1  -1    2.01    0.70
 -21  -1   1    2.44    0.76
  21   1   1    1.82    0.65
 -21  -1   1    2.04    0.77
  20   2  -1    1.04    0.52
 -20  -2  -1    0.72    0.56
 -20  -2  -1    0.56    0.47
 -20  -2   1    0.97    0.59
  20   2   1    0.85    0.55
 -20  -2   1    0.57    0.48
 -19  -3  -1    5.88    1.20
 -19  -3  -1    3.85    1.10
  19   3  -1    3.60    0.88
 -19  -3   1    2.20    0.81
 -19  -3   1    2.98    0.87
  19   3   1    4.13    0.91
 -18  -4  -1   29.20    3.03
 -18  -4  -1   29.80    3.10
  18   4   1   26.23    2.80
 -17  -5  -1   10.96    1.62
 -17  -5  -1    9.75    1.47
  17   5  -1   15.04    1.64
  17   5   1    9.51    1.41
 -17  -5   1   13.14    1.63
  16   6  -1    7.03    1.25
 -16  -6  -1   10.86    1.48
 -16  -6  -1   10.29    1.32
  16   6   1    8.23    1.19
 -16  -6   1    7.00    1.13
 -16  -6   1    6.74    1.30
  15   7  -1    0.22    0.36
 -15  -7  -1   -0.24    0.27
 -15  -7  -1   -0.20    0.35
 -15  -7   1    0.37    0.50
 -15  -7   1   -0.05    0.32
  15   7   1   -0.16    0.27
 -14  -8  -1    9.00    1.22
 -14  -8  -1    7.12    1.33
  14   8   1    7.47    1.13
 -14  -8   1   12.98    1.59
 -13  -9  -1   22.88    2.17
 -13  -9  -1   24.58    2.39
  13   9  -1   15.33    2.06
 -13  -9   1   17.25    2.27
  13   9   1   22.09    2.15
 -12 -10  -1   99.34    8.68
 -12 -10  -1  102.80    8.49
  12  10   1   98.49    8.40
  11  11  -1    6.35    1.05
  11  11  -1    6.93    0.92
 -11 -11  -1    6.28    0.90
 -11 -11  -1    3.82    1.01
  11  11   1    4.55    0.90
 -11 -11   1    6.73    1.21
  10  12  -1    1.02    0.49
  10  12  -1    0.95    0.49
 -10 -12  -1    2.41    0.56
 -10 -12  -1    1.37    0.62
  10  12   1    1.93    0.60
 -10 -12   1    1.57    0.67
  10  12   1    1.84    0.50
  -9 -13  -1    4.14    0.91
   9  13  -1    6.20    0.93
  -9 -13  -1    2.91    0.84
  -9 -13  -1    3.39    0.68
   9  13   1    2.91    0.68
  -9 -13   1    3.94    0.98
  -9 -13   1    4.74    1.00
  -8 -14  -1   20.06    2.33
  -8 -14  -1   21.04    2.29
   8  14   1   24.08    2.28
   7  15  -1   10.99    1.59
  -7 -15  -1   15.61    1.73
  -7 -15  -1   14.06    1.61
  -7 -15   1   10.63    1.59
   7  15   1   15.36    1.64
  -7 -15   1   12.76    1.72
  -6 -16  -1    5.20    1.06
  -6 -16  -1    6.17    1.09
   6  16  -1    8.07    1.18
   6  16   1    5.15    1.03
  -6 -16   1    7.10    1.18
  -6 -16   1    8.14    1.29
  -5 -17  -1    5.64    1.15
  -5 -17  -1    6.25    1.15
   5  17  -1    8.74    1.28
  -5 -17   1    9.59    1.33
  -5 -17   1    8.03    1.28
   5  17   1    7.12    1.22
   4  18  -1   13.79    1.91
  -4 -18  -1   20.63    2.02
  -4 -18   1   13.74    1.86
  -4 -18   1   14.40    1.88
  -3 -19  -1    2.45    0.76
   3  19  -1    3.87    1.06
  -3 -19   1    4.54    1.01
  -3 -19   1    5.81    1.12
   3  19   1    2.42    0.88
   2  20  -1    5.84    1.26
  -2 -20  -1    3.58    0.91
   2  20   1    4.03    1.08
  -2 -20   1    5.30    1.09
   1  21  -1   -0.11    0.38
  -1 -21  -1    0.45    0.35
   1  21   1    0.53    0.49
  -1 -21   1    0.10    0.22
   0  22  -1    0.66    0.62
   0  22   1    1.23    0.67
   0 -22   1    0.91    0.56
   1 -23  -1   10.44    1.62
  -1  23  -1   11.81    2.10
   1 -23   1   14.70    1.96
  -1  23   1   10.06    1.99
  23  -1  -2    0.77    0.56
  23  -1   2    1.12    0.46
 -23   1   2    0.83    0.50
 -22   0  -2    0.21    0.32
  22   0  -2   -0.13    0.32
 -22   0   2    0.76    0.38
  22   0   2   -0.12    0.27
  22   0   2   -0.12    0.23
 -21  -1  -2    0.01    0.23
  21   1  -2    0.06    0.25
 -21  -1   2    0.10    0.42
  21   1   2    0.09    0.25
  21   1   2   -0.32    0.26
 -21  -1   2    0.16    0.34
 -20  -2  -2    0.01    0.23
  20   2  -2    0.05    0.29
  20   2   2    0.16    0.41
  20   2   2    0.03    0.23
 -20  -2   2    0.30    0.44
 -20  -2   2    0.26    0.42
 -19  -3  -2    0.09    0.29
  19   3  -2    0.01    0.22
  19   3   2    0.11    0.38
  19   3   2    0.34    0.30
 -19  -3   2   -0.09    0.37
 -19  -3   2    0.01    0.36
  18   4  -2   49.97    4.94
 -18  -4  -2   58.39    5.24
 -18  -4  -2   61.59    5.31
 -18  -4   2   54.65    5.10
 -18  -4   2   50.01    4.95
  18   4   2   52.52    4.83
 -17  -5  -2    1.59    0.78
  17   5  -2    0.34    0.44
 -17  -5  -2    1.63    0.67
 -17  -5   2    0.12    0.46
  17   5   2    1.51    0.57
 -17  -5   2    0.62    0.47
 -16  -6  -2    6.64    1.21
 -16  -6  -2    6.58    1.36
  16   6  -2    3.89    0.99
 -16  -6   2    5.08    0.94
  16   6   2    6.17    0.99
 -16  -6   2    6.48    1.29
 -15  -7  -2    6.57    1.30
  15   7  -2    4.39    0.98
 -15  -7  -2    6.24    1.14
 -15  -7   2    4.05    1.05
  15   7   2    5.12    0.93
 -14  -8  -2   -0.06    0.34
  14   8  -2    0.16    0.34
 -14  -8  -2    0.23    0.44
  14   8   2    0.29    0.32
 -14  -8   2    0.52    0.55
 -13  -9  -2    0.17    0.41
  13   9  -2    0.59    0.45
 -13  -9  -2    0.42    0.40
 -13  -9   2    0.95    0.64
  13   9   2   -0.09    0.30
 -12 -10  -2   97.18    9.12
 -12 -10  -2  100.66    9.30
  12  10  -2  109.29    9.15
  12  10  -2  123.61    9.15
 -12 -10   2  122.12    9.46
  12  10   2   96.19    8.87
 -11 -11  -2    1.78    0.61
 -11 -11  -2    1.57    0.67
  11  11  -2    3.19    0.80
  11  11  -2    2.85    0.68
 -11 -11   2    2.10    0.78
  11  11   2    1.70    0.56
 -10 -12  -2    1.03    0.60
 -10 -12  -2    0.53    0.36
  10  12  -2    1.05    0.54
 -10 -12  -2    0.91    0.46
  10  12  -2    1.04    0.50
  10  12   2    1.03    0.43
 -10 -12   2    0.95    0.62
  -9 -13  -2   91.03    8.01
   9  13  -2   90.85    8.02
  -9 -13  -2   86.92    7.91
   9  13  -2   96.73    7.83
  -9 -13  -2   87.69    7.77
  -9 -13  -2   92.46    7.78
  -9 -13   2   94.91    8.12
   8  14  -2    0.28    0.45
  -8 -14  -2    0.30    0.37
  -8 -14  -2    0.36    0.47
  -8 -14  -2    0.07    0.33
  -8 -14  -2    0.17    0.35
  -8 -14   2    0.46    0.48
  -8 -14   2    0.40    0.50
  -7 -15  -2   -0.12    0.32
  -7 -15  -2    0.09    0.33
   7  15  -2    0.02    0.39
  -7 -15  -2   -0.02    0.35
  -7 -15  -2    0.27    0.37
  -7 -15   2    0.24    0.42
  -7 -15   2   -0.17    0.38
  -6 -16  -2    1.09    0.56
  -6 -16  -2    0.80    0.48
   6  16  -2    1.49    0.64
  -6 -16   2    1.25    0.65
  -6 -16   2    1.17    0.61
   6  16   2    1.63    0.54
   5  17  -2    0.12    0.47
  -5 -17  -2   -0.08    0.28
  -5 -17   2    0.25    0.42
  -5 -17   2    0.18    0.40
  -4 -18  -2    0.36    0.40
   4  18  -2    0.50    0.57
  -4 -18   2    0.39    0.49
   4  18   2    0.56    0.52
  -4 -18   2    0.25    0.43
  -3 -19  -2   30.17    3.08
   3  19  -2   31.60    3.36
  -3 -19   2   30.51    3.18
  -3 -19   2   32.42    3.24
   3  19   2   28.64    3.29
  -2 -20  -2   -0.33    0.17
   2  20  -2    0.35    0.45
   2  20   2    0.11    0.31
  -2 -20   2    0.13    0.26
  -2 -20   2    0.26    0.43
  -1 -21  -2    1.91    0.64
   1  21  -2    2.19    0.82
   1  21   2    1.39    0.57
  -1 -21   2    1.24    0.55
   0 -22  -2   67.68    5.96
   0  22  -2   63.35    6.32
   0  22   2   62.29    6.32
   0 -22   2   61.20    5.89
 -21  -1  -3    0.91    0.50
  21   1  -3    1.35    0.57
  21   1   3   -0.01    0.24
 -21  -1   3    0.66    0.41
 -20  -2  -3    0.09    0.24
  20   2  -3    0.14    0.32
 -20  -2   3    0.14    0.32
 -20  -2   3    0.63    0.54
  20   2   3    0.27    0.27
 -19  -3  -3    2.61    0.79
  19   3  -3    0.72    0.41
  19   3   3    1.60    0.58
 -19  -3   3    0.67    0.57
 -19  -3   3    1.04    0.59
  18   4  -3   14.23    1.85
 -18  -4   3   17.53    2.15
 -18  -4   3   17.38    1.96
 -17  -5  -3   24.24    2.78
  17   5   3   23.77    2.70
 -16  -6  -3   11.28    1.61
  16   6   3    9.72    1.48
 -15  -7  -3   -0.06    0.34
  15   7  -3   -0.03    0.35
  15   7   3   -0.01    0.35
 -15  -7   3   -0.15    0.42
 -14  -8  -3    5.67    1.16
  14   8   3    5.24    1.11
  14   8   3    5.77    0.94
 -13  -9  -3   51.03    4.66
  13   9   3   46.94    4.26
  12  10  -3   57.88    5.14
  12  10  -3   54.12    5.04
 -12 -10   3   56.75    5.38
  11  11  -3    0.60    0.46
 -11 -11  -3    0.14    0.41
  11  11  -3    0.30    0.35
 -11 -11  -3    0.04    0.30
  11  11   3    0.26    0.31
 -11 -11   3    0.52    0.54
  10  12  -3    2.65    0.74
  10  12  -3    2.12    0.71
 -10 -12  -3    5.71    1.09
 -10 -12   3    1.35    0.68
  -9 -13  -3    3.86    0.90
  -9 -13  -3    3.30    0.83
  -9 -13  -3    3.22    0.90
   9  13  -3    1.93    0.67
   9  13  -3    2.27    0.75
   9  13   3    3.06    0.68
  -9 -13   3    1.97    0.78
  -8 -14  -3    9.00    1.25
  -8 -14  -3    6.78    1.24
  -8 -14  -3    9.44    1.33
  -8 -14  -3    9.62    1.38
  -7 -15  -3    9.53    1.32
  -7 -15  -3    7.91    1.19
  -7 -15  -3   10.74    1.41
  -7 -15  -3    8.85    1.49
   6  16  -3    5.49    1.23
  -6 -16  -3    5.29    1.18
  -6 -16  -3    5.13    0.96
  -6 -16   3    5.28    1.15
  -6 -16   3    4.71    1.07
   6  16   3    5.20    1.01
   5  17  -3    4.42    1.15
  -5 -17  -3    1.73    0.83
  -5 -17   3    4.43    1.04
  -5 -17   3    3.80    0.98
  -4 -18  -3   21.09    2.58
  -4 -18  -3   23.05    2.41
   4  18   3   21.03    2.33
  -3 -19  -3    2.18    0.69
  -3 -19  -3    2.01    0.76
   3  19  -3    0.94    0.61
  -3 -19   3    1.30    0.52
  -3 -19   3    1.57    0.59
   2  20  -3    0.92    0.68
  -2 -20  -3    0.54    0.32
  -2 -20  -3    1.60    0.60
  -2 -20   3    1.00    0.50
  -2 -20   3    1.28    0.52
   1  21  -3    1.16    0.87
  -1 -21  -3    3.88    1.08
  -1 -21  -3    4.46    0.92
  -1 -21   3    2.45    0.75
  20   2  -4    0.12    0.31
 -20  -2  -4    0.47    0.48
  20   2   4   -0.17    0.27
  19   3  -4    0.39    0.30
 -19  -3  -4    0.18    0.36
  19   3   4    1.39    0.66
 -19  -3   4    0.86    0.56
 -18  -4  -4   10.00    1.83
  18   4  -4   12.07    1.51
  18   4   4    9.16    1.67
 -18  -4   4   11.44    1.64
 -17  -5  -4    2.00    0.75
  17   5  -4    4.94    0.97
 -17  -5   4    5.86    1.24
  17   5   4    1.23    0.49
  16   6  -4    1.31    0.54
 -16  -6  -4    4.32    1.03
 -16  -6   4    2.09    0.79
  16   6   4    3.44    0.89
  15   7  -4    4.12    0.96
 -15  -7  -4    4.06    1.05
  15   7   4    4.59    1.10
 -15  -7   4    3.70    1.15
  14   8  -4    1.01    0.52
 -14  -8  -4    1.14    0.57
 -14  -8   4    0.83    0.60
  14   8   4    0.62    0.42
 -13  -9  -4    7.61    1.29
  13   9  -4    4.42    1.04
  13   9  -4    3.83    0.95
  13   9   4    8.30    1.34
 -13  -9   4    4.66    1.17
  12  10  -4    3.81    0.95
  12  10  -4    3.14    0.84
 -12 -10   4    4.50    1.10
  11  11  -4    3.62    0.88
  11  11  -4    3.73    0.93
 -11 -11   4    2.52    0.84
 -10 -12  -4    0.21    0.33
  10  12  -4    0.05    0.34
  10  12  -4   -0.17    0.39
  10  12   4    0.33    0.40
 -10 -12   4    0.27    0.37
  -9 -13  -4    8.58    1.29
  -9 -13  -4    8.12    1.42
   9  13  -4    8.48    1.27
   9  13  -4    7.18    1.34
  -9 -13   4    8.50    1.48
   9  13   4    8.44    1.25
   8  14  -4    3.58    0.91
  -8 -14  -4    5.07    1.14
   8  14  -4    4.11    1.07
  -8 -14  -4    6.11    1.17
   8  14   4    6.28    1.08
  -8 -14   4    3.70    1.01
  -7 -15  -4    2.33    0.88
  -7 -15  -4    2.32    0.82
   7  15  -4    3.17    0.82
   7  15  -4    4.23    1.05
  -7 -15   4    3.18    0.86
  -6 -16  -4    0.07    0.41
   6  16  -4    0.24    0.38
  -6 -16   4    0.06    0.29
   6  16   4   -0.02    0.28
  -5 -17  -4    2.63    0.82
   5  17  -4    1.34    0.66
   5  17   4    2.12    0.66
  -5 -17   4    0.90    0.50
  -5 -17   4    2.02    0.66
  -4 -18  -4    1.43    0.58
   4  18  -4    2.57    0.89
  -4 -18   4    3.93    0.93
  -4 -18   4    2.88    0.84
   4  18   4    1.53    0.55
   3  19  -4   21.49    2.86
  -3 -19  -4   24.47    2.88
  -3 -19   4   24.51    2.72
   3  19   4   23.59    2.62
  -3 -19   4   22.21    2.56
  17   5  -5    2.34    0.62
  17   5   5    0.54    0.66
 -17  -5   5    1.75    0.72
 -16  -6  -5    4.25    1.15
  16   6  -5    2.40    0.67
 -16  -6   5    2.40    0.82
  16   6   5    3.08    1.01
  15   7  -5    0.36    0.29
 -15  -7  -5    0.82    0.44
 -15  -7   5    0.21    0.33
  15   7   5   -0.31    0.32
  14   8  -5    7.77    1.17
 -14  -8   5    7.82    1.47
 -13  -9  -5    7.97    1.46
  12  10  -5   29.67    2.90
  12  10  -5   33.13    3.16
 -12 -10   5   25.84    3.03
  12  10   5   23.31    2.92
  11  11  -5    8.71    1.53
  11  11  -5    9.26    1.32
 -11 -11   5    9.07    1.61
 -10 -12  -5    0.64    0.34
  10  12  -5   -0.09    0.34
  10  12  -5    0.03    0.25
 -10 -12   5   -0.07    0.29
  10  12   5    0.80    0.42
  -9 -13  -5    0.41    0.33
   9  13  -5    0.38    0.44
   9  13   5    0.42    0.36
  -9 -13   5    0.14    0.37
   8  14  -5   32.75    3.40
  -8 -14   5   27.30    3.26
  -6 -16  -5    1.94    0.66
   6  16  -5    3.01    1.02
   6  16   5    2.34    0.77
  -6 -16   5    3.27    0.96
  -5 -17   5   11.44    1.74
 -23  -1   0    0.02    0.30
 -23  -1   0    0.88    0.45
  23   1   0    0.16    0.41
 -22  -2   0    0.27    0.32
 -22  -2   0    0.24    0.26
  22   2   0    0.17    0.27
 -21  -3   0   13.37    1.82
 -21  -3   0   14.37    1.87
  21   3   0   14.11    1.79
 -20  -4   0    0.29    0.46
  20   4   0   -0.36    0.18
 -20  -4   0    0.30    0.45
  19   5   0    0.21    0.37
 -19  -5   0   -0.21    0.37
 -19  -5   0   -0.09    0.36
 -18  -6   0    2.22    0.77
  18   6   0    2.70    0.82
 -18  -6   0    1.51    0.68
 -17  -7   0    0.12    0.38
 -17  -7   0    0.05    0.43
  17   7   0    0.35    0.43
 -16  -8   0    0.17    0.31
  16   8   0   -0.01    0.33
 -16  -8   0   -0.16    0.32
  15   9   0   25.43    2.66
 -15  -9   0   27.59    2.84
 -15  -9   0   25.33    2.59
 -14 -10   0    0.29    0.35
 -14 -10   0   -0.15    0.30
  14  10   0   -0.05    0.30
 -13 -11   0    0.00    0.41
  13  11   0   -0.13    0.33
 -12 -12   0    2.06    0.80
  12  12   0    3.47    0.83
 -11 -13   0    0.16    0.44
  11  13   0    0.03    0.30
  10  14   0    0.03    0.38
 -10 -14   0   -0.11    0.39
  -9 -15   0  268.98   22.09
  -9 -15   0  277.67   21.76
   9  15   0  258.11   22.28
  -8 -16   0    0.23    0.45
  -8 -16   0   -0.09    0.29
   8  16   0    0.16    0.39
  -7 -17   0   -0.12    0.40
   7  17   0    0.15    0.42
  -7 -17   0    0.25    0.36
   6  18   0   76.90    7.11
  -6 -18   0   83.16    7.15
  -6 -18   0   77.39    6.94
   5  19   0    0.05    0.44
  -5 -19   0    0.09    0.31
  -5 -19   0   -0.04    0.43
   4  20   0   -0.03    0.47
  -4 -20   0    0.21    0.25
  -3 -21   0    0.61    0.35
   3  21   0    0.52    0.47
  -2 -22   0    0.04    0.25
   2  22   0   -0.12    0.36
   1  23   0   -0.31    0.57
  -1 -23   0    0.26    0.30
  23   1  -1    5.39    1.28
 -23  -1  -1    5.40    1.26
 -23  -1   1    6.39    1.22
  23   1   1    5.49    1.16
  23   1   1    3.87    0.93
 -23  -1   1    5.67    1.25
 -22  -2  -1    0.15    0.35
 -22  -2  -1    0.36    0.28
  22   2  -1    0.12    0.32
 -22  -2   1    0.21    0.35
 -22  -2   1    0.98    0.46
  22   2   1    0.42    0.39
 -21  -3  -1    1.32    0.51
 -21  -3  -1    0.28    0.41
  21   3  -1    0.70    0.41
 -21  -3   1    1.16    0.61
  21   3   1    0.49    0.39
 -21  -3   1    0.49    0.43
 -20  -4  -1   10.83    1.73
  20   4  -1   16.53    1.81
 -20  -4  -1   14.20    1.84
 -20  -4   1   15.49    1.86
 -20  -4   1   17.34    1.97
  20   4   1    9.97    1.57
 -19  -5  -1   19.06    2.01
  19   5  -1   11.67    1.74
 -19  -5   1   13.72    1.82
  19   5   1   17.50    1.89
 -19  -5   1   12.69    1.81
  18   6  -1   12.16    1.60
 -18  -6   1   13.62    1.63
 -18  -6   1    9.61    1.54
  17   7  -1    0.42    0.45
 -17  -7  -1    0.44    0.45
 -17  -7  -1    0.13    0.48
 -17  -7   1    0.26    0.47
  17   7   1    0.31    0.37
 -17  -7   1    0.19    0.36
  16   8  -1    7.18    1.29
 -16  -8  -1   11.18    1.38
 -16  -8  -1   12.05    1.55
 -16  -8   1    7.71    1.18
  16   8   1   10.94    1.35
 -16  -8   1    7.07    1.43
  14  10  -1   25.02    2.30
 -14 -10  -1   16.77    2.01
 -14 -10  -1   17.41    2.19
 -14 -10   1   22.22    2.44
  14  10   1   17.22    2.07
 -13 -11  -1    1.02    0.44
 -13 -11  -1    0.74    0.51
  13  11  -1    0.03    0.37
 -13 -11   1    0.16    0.47
  13  11   1    0.41    0.42
 -12 -12  -1   18.32    2.23
 -12 -12  -1   20.39    2.05
  12  12   1   18.60    2.08
 -11 -13  -1   12.38    1.79
  11  13  -1   18.03    1.75
  11  13  -1   19.22    1.90
 -11 -13  -1   13.08    1.59
  11  13   1   12.89    1.67
 -10 -14  -1   30.23    2.80
  10  14  -1   21.95    2.48
  10  14  -1   23.17    2.54
 -10 -14   1   21.06    2.65
  10  14   1   28.08    2.50
  -9 -15  -1    9.16    1.44
  -9 -15  -1    8.82    1.29
   9  15   1    8.43    1.17
  -8 -16  -1    0.61    0.42
  -8 -16  -1    0.08    0.44
   8  16  -1    0.62    0.52
  -8 -16   1    0.65    0.49
   8  16   1    0.41    0.39
  -8 -16   1    0.54    0.50
   7  17  -1    5.10    1.11
  -7 -17  -1    5.38    1.01
  -7 -17  -1    6.22    1.14
  -7 -17   1    4.29    1.06
  -7 -17   1    2.73    0.90
   7  17   1    5.99    1.04
   6  18  -1   16.11    2.02
  -5 -19  -1   10.99    1.63
   5  19  -1   15.83    1.91
   5  19   1   10.44    1.68
  -5 -19   1   14.88    1.80
  -5 -19   1   16.83    1.93
  -4 -20  -1    4.13    0.95
   4  20  -1    4.09    1.05
  -4 -20   1    2.47    0.81
   4  20   1    4.49    1.07
  -4 -20   1    3.41    0.98
  -3 -21  -1    0.65    0.34
   3  21  -1    1.74    0.71
  -3 -21   1    2.61    0.78
   3  21   1    1.59    0.66
  -2 -22  -1    3.60    0.94
   2  22  -1    7.19    1.46
  -2 -22   1    6.83    1.31
   2  22   1    4.37    1.16
  -1 -23  -1   13.08    1.68
   1  23  -1    7.64    1.79
  -1 -23   1    9.73    1.72
   1  23   1   12.56    2.01
  23   1  -2    0.62    0.54
  23   1   2    1.02    0.41
  23   1   2    0.28    0.36
 -23  -1   2    0.66    0.38
 -22  -2  -2    0.23    0.29
  22   2  -2    0.30    0.34
 -22  -2   2    0.09    0.34
  22   2   2    0.50    0.26
  22   2   2    0.05    0.28
 -22  -2   2    0.10    0.26
 -21  -3  -2    2.46    0.76
  21   3  -2    2.10    0.70
  21   3   2    2.78    0.78
 -21  -3   2    1.01    0.53
 -21  -3   2    2.53    0.79
  21   3   2    2.18    0.63
 -20  -4  -2    0.65    0.41
  20   4  -2    0.55    0.33
 -20  -4   2    0.96    0.58
  20   4   2    1.62    0.60
 -20  -4   2    0.70    0.51
 -19  -5  -2    0.61    0.46
 -19  -5  -2    0.44    0.50
  19   5  -2    1.11    0.45
 -19  -5   2    1.11    0.55
 -19  -5   2    1.20    0.65
  19   5   2    0.49    0.40
 -18  -6  -2   37.39    3.70
  18   6  -2   33.24    3.47
 -18  -6  -2   37.36    3.75
 -18  -6   2   31.55    3.41
  18   6   2   36.51    3.41
 -18  -6   2   37.14    3.72
 -17  -7  -2    0.31    0.49
  17   7  -2    0.42    0.43
 -17  -7  -2    0.15    0.39
 -17  -7   2    0.37    0.57
  17   7   2    0.08    0.33
 -16  -8  -2    0.97    0.60
 -16  -8  -2    0.53    0.46
  16   8  -2    0.57    0.50
  16   8   2    0.61    0.45
 -16  -8   2   -0.06    0.53
  15   9  -2   77.75    6.83
 -15  -9  -2   74.97    7.09
 -15  -9  -2   76.60    6.92
  15   9   2   78.49    6.68
 -15  -9   2   82.36    7.16
 -14 -10  -2    3.38    1.00
 -14 -10  -2    4.74    1.00
  14  10  -2    6.12    1.10
 -14 -10   2    5.56    1.26
  14  10   2    4.19    0.85
  13  11  -2   -0.10    0.31
 -13 -11  -2    0.49    0.53
 -13 -11  -2   -0.16    0.31
  13  11   2    0.38    0.35
 -13 -11   2   -0.07    0.46
 -12 -12  -2   10.71    1.50
  12  12  -2    8.58    1.32
 -12 -12  -2    9.55    1.26
 -12 -12   2    7.99    1.54
  12  12   2   10.55    1.32
  11  13  -2    1.39    0.60
 -11 -13  -2    1.19    0.50
 -11 -13  -2    0.25    0.48
  11  13  -2    1.68    0.64
 -11 -13   2    1.35    0.70
  11  13   2    0.84    0.46
  10  14  -2    0.11    0.40
  10  14  -2    0.02    0.32
 -10 -14  -2   -0.20    0.38
 -10 -14  -2    0.50    0.37
 -10 -14   2    0.03    0.43
  10  14   2    0.02    0.32
   9  15  -2   17.82    2.11
  -9 -15  -2   18.41    1.99
  -9 -15  -2   17.38    2.06
  -9 -15  -2   16.12    2.12
  -9 -15   2   20.03    2.31
   9  15   2   19.47    2.06
   8  16  -2    2.00    0.75
  -8 -16  -2    0.82    0.50
  -8 -16  -2    2.18    0.78
   8  16   2    1.26    0.58
  -8 -16   2    2.99    0.90
  -8 -16   2    2.14    0.83
   7  17  -2   -0.01    0.42
  -7 -17  -2    0.34    0.48
  -7 -17  -2    0.26    0.31
  -7 -17   2   -0.02    0.38
  -7 -17   2    0.69    0.54
   7  17   2   -0.09    0.33
  -6 -18  -2   16.82    2.14
   6  18  -2   21.38    2.39
  -6 -18   2   21.87    2.47
   6  18   2   20.34    2.35
  -6 -18   2   20.64    2.34
  -5 -19  -2    0.74    0.45
   5  19  -2    0.26    0.47
  -5 -19   2    0.34    0.31
  -5 -19   2    0.13    0.51
   5  19   2    0.93    0.54
  -4 -20  -2    0.60    0.39
   4  20  -2    0.58    0.51
  -4 -20   2    0.92    0.61
  -4 -20   2    0.94    0.49
   4  20   2    1.77    0.64
  -3 -21  -2    5.64    1.14
   3  21  -2    5.63    1.31
   3  21   2    6.06    1.33
  -3 -21   2    6.29    1.28
  -3 -21   2    8.21    1.42
   2  22  -2    0.25    0.55
  -2 -22  -2    0.02    0.22
   2  22   2    0.18    0.49
  -2 -22   2    0.55    0.51
  21   3  -3    0.56    0.37
 -21  -3  -3    0.68    0.44
 -21  -3   3    0.54    0.42
  21   3   3    0.64    0.39
 -21  -3   3    0.44    0.45
 -20  -4  -3    4.09    1.02
  20   4   3    2.90    0.83
 -19  -5  -3   17.08    2.20
  19   5   3   16.83    2.12
 -18  -6  -3    7.21    1.43
  18   6   3    6.01    1.25
 -17  -7  -3   -0.16    0.26
  17   7  -3    0.02    0.19
  17   7   3   -0.13    0.25
 -17  -7   3   -0.09    0.38
 -16  -8  -3   12.57    1.68
  16   8   3    9.83    1.50
  14  10  -3   13.03    1.77
 -14 -10   3   18.54    2.19
 -13 -11  -3   17.85    2.15
 -13 -11  -3   19.86    2.03
  13  11  -3   12.54    1.81
  13  11   3   17.75    1.80
 -13 -11   3   11.57    1.95
 -12 -12  -3    5.68    1.27
 -12 -12  -3    6.26    1.15
  12  12   3    6.51    1.00
 -11 -13  -3    6.39    1.27
 -11 -13  -3    4.98    1.05
  11  13   3    7.55    1.05
 -10 -14  -3   15.03    1.97
 -10 -14  -3   16.72    1.89
  10  14   3   14.35    1.70
   9  15  -3    0.91    0.60
  -9 -15  -3    0.28    0.47
  -9 -15  -3    0.05    0.36
   9  15  -3    1.42    0.58
  -9 -15  -3    0.16    0.40
  -9 -15   3    1.59    0.67
  -8 -16  -3    0.31    0.48
   8  16  -3    0.75    0.60
  -8 -16  -3   -0.04    0.35
  -8 -16  -3    0.31    0.38
  -8 -16  -3    0.15    0.38
  -8 -16   3    0.07    0.27
   7  17  -3    3.92    1.08
  -7 -17  -3    8.32    1.37
  -7 -17   3    3.70    0.98
  -7 -17   3    3.89    1.03
   5  19  -3   21.71    2.64
  -5 -19   3   22.66    2.53
  -5 -19   3   20.95    2.48
  -4 -20  -3    3.84    0.87
  -4 -20  -3    4.26    0.99
   4  20  -3    0.36    0.54
  -4 -20   3    1.42    0.53
  -4 -20   3    0.69    0.37
   3  21  -3    1.10    0.79
  -3 -21  -3    1.94    0.59
  -3 -21   3    0.72    0.52
  -3 -21   3    1.33    0.52
  19   5  -4    0.88    0.38
 -19  -5  -4    1.18    0.60
 -19  -5   4    1.39    0.64
  19   5   4    0.58    0.43
 -18  -6  -4    0.51    0.42
  18   6  -4    1.06    0.44
  18   6   4    0.67    0.49
 -18  -6   4    1.75    0.68
 -17  -7  -4    0.06    0.25
  17   7  -4    0.43    0.29
  17   7   4    0.65    0.46
 -17  -7   4    0.02    0.38
  16   8  -4    0.52    0.38
 -16  -8  -4    0.84    0.39
 -16  -8   4    0.81    0.58
  16   8   4    0.07    0.27
 -15  -9  -4   16.84    2.05
  15   9  -4   14.88    1.85
 -15  -9   4   15.27    2.08
  15   9   4   14.95    1.99
  14  10  -4    2.70    0.77
 -14 -10   4    3.41    1.05
  13  11  -4    0.56    0.40
 -13 -11  -4    3.96    0.90
  13  11   4    4.19    0.97
 -13 -11   4    1.26    0.62
  12  12  -4    2.06    0.67
 -12 -12  -4    0.89    0.42
  12  12  -4    2.23    0.77
 -12 -12   4    1.96    0.76
  12  12   4    0.81    0.48
 -11 -13  -4    1.25    0.53
  11  13  -4    0.11    0.34
  11  13  -4    0.50    0.53
  11  13   4    1.28    0.54
 -11 -13   4    0.32    0.34
  10  14  -4    7.06    1.25
 -10 -14  -4    3.28    0.94
  10  14  -4    5.49    1.07
  10  14   4    3.81    0.96
 -10 -14   4    4.99    1.13
  -9 -15  -4  103.38    8.99
   9  15  -4  103.23    9.16
   9  15  -4  108.60    8.86
   9  15   4  103.69    8.89
  -9 -15   4   92.85    9.00
  -8 -16  -4    4.87    1.08
  -8 -16  -4    4.87    1.21
   8  16  -4    6.05    1.08
   8  16  -4    4.98    1.17
  -8 -16   4    6.55    1.29
  -7 -17  -4    2.23    0.81
   7  17  -4    1.24    0.60
   7  17  -4    1.84    0.57
   7  17   4    2.87    0.75
  -7 -17   4    1.94    0.65
   6  18  -4   35.30    3.80
  -6 -18  -4   39.74    3.89
   6  18   4   35.16    3.56
  -6 -18   4   33.41    3.59
  -6 -18   4   32.98    3.64
  -5 -19  -4    2.65    0.87
   5  19  -4    3.03    1.08
  -5 -19   4    2.88    0.81
   5  19   4    2.52    0.75
  -5 -19   4    3.07    0.85
  16   8   5    9.00    1.79
  15   9  -5    3.64    0.83
  15   9   5    0.13    0.47
 -15  -9   5    3.55    1.09
 -14 -10  -5    6.12    1.32
  14  10   5    8.73    1.60
  13  11  -5    4.52    0.93
 -13 -11  -5    1.66    0.52
  13  11   5    1.22    0.60
 -13 -11   5    3.52    1.01
  12  12  -5    1.44    0.54
 -12 -12  -5    4.94    1.10
  12  12  -5    2.72    0.84
 -12 -12   5    2.14    0.89
  12  12   5    5.25    1.14
  11  13  -5   16.06    1.84
  11  13  -5   15.01    1.90
 -11 -13   5   10.87    1.97
  -9 -15  -5    3.60    0.91
   9  15  -5    0.78    0.51
  -9 -15   5    0.67    0.47
 -23  -3   0    0.35    0.33
  23   3   0   -0.07    0.34
 -23  -3   0    0.44    0.29
 -22  -4   0    0.43    0.35
  22   4   0   -0.09    0.21
 -22  -4   0   -0.10    0.27
 -21  -5   0   22.32    2.58
  21   5   0   22.42    2.43
 -21  -5   0   20.82    2.46
 -20  -6   0    0.43    0.33
  20   6   0    0.29    0.32
 -20  -6   0   -0.17    0.33
  19   7   0   -0.23    0.24
 -19  -7   0    0.13    0.33
 -19  -7   0   -0.17    0.32
 -18  -8   0    7.77    1.20
 -18  -8   0    7.03    1.38
  18   8   0    9.04    1.41
  17   9   0   -0.26    0.28
 -17  -9   0    0.22    0.37
 -17  -9   0    0.13    0.45
 -16 -10   0   -0.18    0.35
  16  10   0    0.11    0.40
 -15 -11   0    0.13    0.40
  15  11   0    0.27    0.41
 -14 -12   0   -0.28    0.35
  14  12   0   -0.03    0.34
 -13 -13   0    0.39    0.49
  13  13   0    0.27    0.45
 -12 -14   0   83.71    7.30
  12  14   0   77.55    6.99
  11  15   0    0.44    0.42
 -11 -15   0   -0.25    0.36
  10  16   0    0.05    0.31
 -10 -16   0    0.04    0.46
 -10 -16   0    0.25    0.38
  -9 -17   0   -0.32    0.38
   9  17   0   -0.23    0.39
  -9 -17   0    0.03    0.29
  -8 -18   0    0.20    0.48
   8  18   0   -0.10    0.37
  -8 -18   0    0.47    0.40
  -7 -19   0    0.04    0.46
   7  19   0    0.33    0.48
  -7 -19   0    0.16    0.22
  -6 -20   0    1.47    0.53
   6  20   0    2.54    0.83
  -6 -20   0    1.29    0.71
   5  21   0    0.16    0.35
  -5 -21   0    0.07    0.20
  -4 -22   0    0.48    0.33
   4  22   0    0.19    0.39
  -3 -23   0   43.56    4.48
   3  23   0   47.38    4.77
  23   3  -1    2.23    0.88
 -23  -3  -1    2.33    0.85
 -23  -3  -1    1.47    0.60
 -23  -3   1    2.46    0.75
  23   3   1    1.79    0.70
 -23  -3   1    2.55    0.75
  22   4  -1    4.95    1.20
 -22  -4  -1    8.07    1.42
 -22  -4  -1    9.55    1.57
 -22  -4   1    5.28    1.22
  22   4   1    9.13    1.27
 -22  -4   1    5.94    1.26
 -21  -5  -1   26.24    2.89
 -21  -5  -1   26.07    3.00
  21   5   1   27.23    2.80
 -20  -6  -1    4.72    1.14
 -20  -6  -1    5.81    1.31
  20   6  -1    7.21    1.30
 -20  -6   1    7.52    1.28
 -20  -6   1    7.79    1.35
  20   6   1    5.32    1.12
 -19  -7  -1    0.16    0.33
 -19  -7  -1    0.17    0.40
  19   7  -1   -0.34    0.21
 -19  -7   1    0.01    0.40
 -19  -7   1    0.04    0.35
  19   7   1   -0.03    0.34
 -18  -8  -1    1.86    0.69
 -18  -8  -1    2.09    0.82
  18   8  -1    1.17    0.57
  18   8   1    2.37    0.76
 -18  -8   1    1.97    0.75
  17   9  -1   21.21    2.15
 -17  -9  -1   15.83    1.96
 -17  -9  -1   15.08    2.09
 -17  -9   1   21.05    2.30
  17   9   1   13.81    1.90
  16  10  -1   11.69    1.74
 -16 -10  -1   16.96    1.88
 -16 -10  -1   16.09    2.01
  16  10   1   17.06    1.87
 -15 -11  -1   12.77    1.55
 -15 -11  -1   11.14    1.67
  15  11   1   11.78    1.55
 -14 -12  -1    1.51    0.58
 -14 -12  -1    1.90    0.76
  14  12  -1    2.52    0.77
  14  12   1    1.74    0.64
 -14 -12   1    2.10    0.84
 -13 -13  -1   15.44    1.88
  13  13  -1   11.49    1.68
 -13 -13   1   11.24    1.92
  13  13   1   15.88    1.77
 -12 -14  -1    3.10    0.92
 -12 -14   1    7.03    1.33
  12  14   1    2.66    0.78
  11  15  -1   15.12    1.70
 -11 -15  -1    9.61    1.67
 -11 -15   1   14.31    1.86
  11  15   1   10.95    1.53
 -10 -16  -1    1.52    0.62
  10  16  -1    0.50    0.52
 -10 -16  -1    1.07    0.59
 -10 -16   1    0.85    0.57
   9  17  -1    7.88    1.28
  -9 -17   1    8.31    1.49
  -9 -17   1    7.70    1.40
  -8 -18  -1   13.70    1.92
  -8 -18  -1   13.81    1.85
   8  18  -1   19.21    2.09
  -8 -18   1   19.68    2.18
   8  18   1   12.57    1.77
  -8 -18   1   18.14    2.04
   7  19  -1   10.80    1.71
  -7 -19  -1   16.08    1.87
  -7 -19  -1   13.22    1.64
   7  19   1   14.25    1.71
  -7 -19   1   11.41    1.65
  -7 -19   1   10.37    1.68
  -6 -20  -1   46.56    3.86
   6  20  -1   33.85    3.81
  -6 -20   1   32.00    3.62
  -6 -20   1   32.93    3.74
   6  20   1   42.77    3.87
   5  21  -1    2.04    0.80
  -5 -21  -1    2.47    0.70
  -5 -21   1    2.27    0.75
   5  21   1    1.58    0.63
  -5 -21   1    2.06    0.80
   4  22  -1    6.08    1.45
  -4 -22  -1    9.64    1.37
   4  22   1   10.25    1.47
  -4 -22   1    7.50    1.48
   3  23   1   14.09    2.03
  22   4  -2    0.43    0.38
 -22  -4  -2    0.31    0.32
  22   4   2    0.03    0.22
  22   4   2    0.34    0.35
 -22  -4   2   -0.29    0.25
 -22  -4   2    0.27    0.31
 -21  -5  -2   31.98    3.62
  21   5  -2   39.14    3.61
  21   5   2   30.98    3.36
 -21  -5   2   38.39    3.67
 -20  -6  -2    0.40    0.40
  20   6  -2    0.84    0.39
 -20  -6  -2    0.19    0.39
  20   6   2    0.51    0.37
 -20  -6   2    1.55    0.62
 -19  -7  -2   -0.11    0.30
 -19  -7  -2    0.09    0.27
  19   7  -2    0.29    0.32
 -19  -7   2   -0.01    0.29
  19   7   2    0.10    0.36
 -18  -8  -2   29.43    3.02
 -18  -8  -2   27.81    3.10
  18   8  -2   25.47    2.84
  18   8   2   24.71    2.70
 -18  -8   2   27.55    3.06
  17   9  -2    0.46    0.33
 -17  -9  -2    0.20    0.41
 -17  -9  -2    0.39    0.36
  17   9   2    0.66    0.47
 -17  -9   2   -0.29    0.31
  16  10  -2    0.44    0.36
 -16 -10  -2    0.52    0.45
 -16 -10  -2    0.72    0.42
  16  10   2    1.09    0.50
 -16 -10   2    0.89    0.63
  15  11  -2   19.41    2.12
 -15 -11  -2   16.54    2.00
 -15 -11  -2   17.75    2.22
 -15 -11   2   16.90    2.24
  15  11   2   15.74    1.90
 -14 -12  -2    0.45    0.50
  14  12  -2   -0.07    0.32
 -14 -12  -2   -0.06    0.32
 -14 -12   2    0.36    0.56
  14  12   2    0.27    0.33
  13  13  -2    0.39    0.42
 -13 -13  -2    0.86    0.47
 -13 -13  -2    0.45    0.48
 -13 -13   2    0.60    0.56
  13  13   2    0.32    0.39
 -12 -14  -2   24.52    2.56
  12  14  -2   26.24    2.71
 -12 -14  -2   24.46    2.81
  12  14   2   23.74    2.55
 -12 -14   2   25.63    2.89
  11  15  -2   -0.07    0.26
 -11 -15  -2   -0.16    0.32
  11  15  -2    0.16    0.44
  11  15   2    0.21    0.34
 -11 -15   2    0.38    0.45
 -10 -16  -2    0.17    0.46
  10  16  -2    1.02    0.48
  10  16  -2    1.50    0.68
 -10 -16   2    0.97    0.59
   9  17  -2   51.86    4.84
  -9 -17  -2   49.26    4.70
  -9 -17  -2   49.76    4.85
  -9 -17   2   52.51    4.96
  -9 -17   2   53.13    4.89
   9  17   2   47.01    4.72
   8  18  -2    0.38    0.56
  -8 -18  -2    1.05    0.63
  -8 -18  -2    1.65    0.59
  -8 -18   2    0.38    0.39
  -8 -18   2    0.90    0.58
   8  18   2    0.86    0.55
  -7 -19  -2    0.92    0.43
   7  19  -2    1.95    0.72
  -7 -19   2    2.80    0.83
  -7 -19   2    0.98    0.53
   7  19   2    0.57    0.52
   6  20  -2   34.68    4.13
  -6 -20  -2   47.29    4.16
  -6 -20   2   41.57    4.21
  -6 -20   2   42.95    4.27
   6  20   2   46.71    4.34
  -5 -21  -2    0.17    0.22
   5  21  -2   -0.23    0.28
  -5 -21   2   -0.35    0.22
  -5 -21   2    0.38    0.41
   5  21   2    0.47    0.37
   4  22  -2    0.34    0.55
  -4 -22  -2    0.17    0.27
  -4 -22   2    0.04    0.43
   4  22   2    0.48    0.45
  21   5  -3   16.95    2.07
 -21  -5   3   15.97    2.10
  20   6  -3    2.23    0.69
  20   6   3    0.58    0.43
 -20  -6   3    1.75    0.67
  19   7  -3   -0.14    0.20
 -19  -7  -3    1.59    0.55
  19   7   3    0.51    0.33
 -19  -7   3    0.08    0.36
 -18  -8  -3    1.19    0.56
  18   8  -3    1.10    0.49
  18   8   3    1.05    0.47
 -18  -8   3    1.28    0.64
 -17  -9  -3    5.94    1.21
  17   9   3    4.91    1.10
  16  10  -3    6.31    1.18
 -16 -10   3    6.68    1.46
 -15 -11  -3   14.22    1.74
  15  11  -3    8.59    1.32
 -15 -11   3    8.15    1.66
 -14 -12  -3    1.18    0.55
 -14 -12  -3    0.95    0.51
  14  12  -3    1.08    0.49
 -14 -12   3    1.90    0.76
 -13 -13  -3   15.99    2.02
 -13 -13  -3   14.29    1.81
 -12 -14  -3    2.19    0.68
 -12 -14  -3    3.27    0.93
  12  14  -3    1.53    0.55
 -12 -14   3    1.61    0.67
 -11 -15  -3    1.56    0.63
  11  15  -3    3.51    0.91
  11  15  -3    4.15    0.90
 -11 -15  -3    1.40    0.71
 -11 -15   3    2.87    0.88
  11  15   3    0.57    0.44
  10  16  -3    0.89    0.43
 -10 -16  -3    2.66    0.79
  10  16  -3    0.86    0.60
 -10 -16  -3    1.71    0.72
 -10 -16   3    0.67    0.49
  10  16   3    2.50    0.68
  -9 -17  -3    6.21    1.30
  -9 -17  -3    7.91    1.30
   8  18  -3   13.18    1.85
  -8 -18   3   14.55    1.91
  -8 -18   3   15.26    1.96
   7  19  -3    4.34    1.11
  -7 -19   3    4.94    1.13
  -7 -19   3    5.52    1.20
   6  20  -3   34.19    3.68
  -6 -20   3   31.03    3.47
  -6 -20   3   34.83    3.59
  -5 -21  -3    1.02    0.42
  -5 -21   3    1.33    0.56
  -5 -21   3    1.52    0.72
  19   7  -4    0.01    0.29
  19   7   4    0.10    0.73
 -19  -7   4    0.44    0.47
 -18  -8  -4    4.68    1.20
  18   8  -4    5.86    1.18
  18   8   4    6.26    1.42
 -18  -8   4    6.88    1.51
  17   9  -4    4.02    0.98
 -17  -9  -4    4.55    1.13
 -17  -9   4    4.96    1.28
  17   9   4    3.26    1.05
  16  10  -4    1.80    0.55
 -16 -10  -4    0.75    0.37
 -16 -10   4    1.88    0.77
  16  10   4    1.30    0.59
 -15 -11  -4    0.71    0.32
  15  11  -4    0.23    0.22
  15  11   4   -0.13    0.23
 -15 -11   4    0.01    0.42
 -14 -12  -4    0.87    0.38
  14  12  -4    0.88    0.43
 -14 -12   4    1.33    0.68
  14  12   4    0.32    0.31
  13  13  -4    2.06    0.64
 -13 -13  -4    1.00    0.46
 -13 -13   4    1.26    0.69
  13  13   4    0.87    0.42
  12  14  -4   40.84    3.89
 -12 -14  -4   37.13    3.89
 -12 -14   4   40.54    4.17
  12  14   4   38.41    3.93
  11  15  -4    4.34    1.05
  11  15  -4    4.37    1.00
 -11 -15  -4    7.60    1.27
 -11 -15   4    3.41    1.00
  10  16  -4    4.26    0.93
  10  16  -4    4.08    0.99
 -10 -16  -4    2.57    0.79
 -10 -16   4    4.84    1.16
  10  16   4    1.88    0.66
  -9 -17  -4    0.32    0.28
   9  17  -4   -0.19    0.20
   9  17  -4    0.33    0.36
  -9 -17   4   -0.25    0.27
   8  18  -4    1.09    0.37
   8  18  -4    0.97    0.52
   8  18   4    2.35    0.68
  -8 -18   4    0.89    0.50
  23   5   0    0.18    0.44
 -23  -5   0   -0.17    0.42
 -23  -5   0    0.24    0.26
 -22  -6   0    0.43    0.36
 -22  -6   0    0.52    0.33
  22   6   0    0.29    0.33
 -21  -7   0    1.05    0.50
 -21  -7   0    1.19    0.49
  21   7   0    0.96    0.46
 -20  -8   0    0.33    0.42
 -20  -8   0   -0.10    0.27
  20   8   0   -0.21    0.23
 -19  -9   0   -0.05    0.36
  19   9   0   -0.11    0.27
 -19  -9   0    0.03    0.29
  18  10   0  163.62   13.89
 -18 -10   0  170.70   14.24
  17  11   0    0.11    0.29
 -17 -11   0    0.18    0.31
  16  12   0   -0.18    0.30
 -16 -12   0    0.03    0.30
 -15 -13   0   43.34    4.40
  15  13   0   45.51    4.26
 -14 -14   0   -0.06    0.31
  14  14   0    0.20    0.39
  13  15   0    0.08    0.34
 -13 -15   0   -0.15    0.33
  12  16   0   20.06    2.18
 -12 -16   0   17.09    2.25
  11  17   0    0.11    0.22
 -11 -17   0   -0.03    0.41
 -10 -18   0    0.11    0.39
 -10 -18   0    0.30    0.28
  -9 -19   0   27.99    3.19
   9  19   0   32.21    3.25
  -9 -19   0   34.03    3.46
  -8 -20   0    0.37    0.27
   8  20   0   -0.30    0.34
  -8 -20   0   -0.23    0.36
  -7 -21   0    0.08    0.25
   7  21   0   -0.10    0.30
   6  22   0   50.52    4.97
  -6 -22   0   49.69    4.81
  23   5  -1   11.92    1.73
 -23  -5  -1    9.56    1.84
 -23  -5  -1    9.63    1.52
 -23  -5   1   11.98    1.67
  23   5   1    9.98    1.66
 -23  -5   1   14.80    1.70
 -22  -6  -1    1.92    0.79
 -22  -6  -1    3.08    0.78
  22   6  -1    1.23    0.66
  22   6   1    2.46    0.72
 -22  -6   1    1.50    0.54
 -22  -6   1    1.61    0.66
 -21  -7  -1    2.28    0.73
 -21  -7  -1    2.67    0.86
  21   7  -1    2.33    0.77
 -21  -7   1    0.78    0.48
  21   7   1    2.22    0.71
 -20  -8  -1    5.11    1.09
  20   8  -1    8.21    1.34
 -20  -8  -1    3.38    1.00
  20   8   1    4.65    1.05
 -20  -8   1    6.30    1.29
  19   9  -1   15.23    2.07
 -19  -9  -1   21.91    2.26
 -19  -9  -1   18.96    2.31
 -19  -9   1   12.84    2.03
  19   9   1   20.24    2.14
 -18 -10  -1   13.85    1.91
 -18 -10  -1   14.18    1.79
  18  10   1   13.23    1.72
  17  11  -1    3.16    0.85
 -17 -11  -1    1.14    0.58
 -17 -11  -1    1.30    0.60
 -17 -11   1    2.98    0.90
  17  11   1    1.14    0.54
 -16 -12  -1    1.47    0.59
  16  12  -1    1.61    0.67
 -16 -12   1    1.71    0.72
  16  12   1    1.71    0.65
  15  13  -1    9.41    1.40
 -15 -13   1    9.54    1.70
 -14 -14  -1   11.13    1.69
 -14 -14   1   17.84    2.09
  14  14   1   12.25    1.67
 -13 -15  -1    8.59    1.46
  13  15  -1    6.61    1.26
 -13 -15   1    6.22    1.44
  13  15   1    9.73    1.33
 -12 -16  -1    0.15    0.45
  12  16  -1    0.29    0.32
  12  16   1    0.73    0.43
 -12 -16   1    0.36    0.40
 -11 -17  -1    1.66    0.77
  11  17  -1    4.35    0.95
  11  17   1    2.74    0.77
 -11 -17   1    4.47    1.14
 -10 -18  -1   16.34    1.93
  10  18  -1   10.27    1.59
 -10 -18  -1   17.31    1.89
 -10 -18   1   11.44    1.76
 -10 -18   1   12.20    1.73
  -9 -19  -1    6.73    1.32
  -9 -19  -1    5.66    1.18
   9  19   1    6.12    1.15
  -8 -20  -1    1.52    0.59
   8  20  -1    2.03    0.72
   8  20   1    1.60    0.63
  -8 -20   1    0.91    0.46
  -8 -20   1    2.34    0.76
   7  21  -1    0.45    0.41
  -7 -21  -1    0.04    0.26
   7  21   1   -0.17    0.29
  -7 -21   1    0.07    0.28
  -7 -21   1    0.51    0.39
   6  22  -1   16.64    2.18
  -6 -22   1   14.19    1.97
  22   6  -2    0.19    0.35
 -22  -6  -2    0.53    0.38
  22   6   2    0.29    0.28
 -22  -6   2    0.25    0.36
  21   7  -2    1.68    0.65
 -21  -7  -2    3.31    0.88
 -21  -7  -2    2.46    0.93
  21   7   2    3.37    0.79
 -21  -7   2    1.75    0.69
 -20  -8  -2    0.03    0.31
 -20  -8  -2    0.56    0.51
  20   8  -2    0.15    0.24
 -20  -8   2   -0.24    0.25
  20   8   2    0.64    0.35
  19   9  -2    0.21    0.32
 -19  -9  -2    0.05    0.40
 -19  -9  -2    0.43    0.35
 -19  -9   2    0.49    0.42
  19   9   2    0.07    0.29
 -18 -10  -2    1.26    0.56
 -18 -10  -2    1.56    0.60
  18  10  -2    2.58    0.75
  18  10   2    1.60    0.60
 -18 -10   2    1.61    0.71
 -17 -11  -2    0.30    0.40
  17  11  -2    0.36    0.30
 -17 -11  -2    0.46    0.34
  17  11   2   -0.09    0.31
 -17 -11   2    0.80    0.54
 -16 -12  -2    0.24    0.35
 -16 -12  -2    0.41    0.39
  16  12  -2    0.23    0.31
  16  12   2    0.32    0.40
 -16 -12   2    0.62    0.52
  15  13  -2   15.98    1.94
 -15 -13  -2   15.35    1.88
 -15 -13  -2   14.19    1.98
  15  13   2   16.22    1.88
 -15 -13   2   14.92    2.11
  14  14  -2    0.07    0.28
 -14 -14  -2    0.36    0.40
  14  14   2    0.85    0.52
 -14 -14   2    0.78    0.45
  13  15  -2    0.04    0.28
 -13 -15  -2    1.13    0.53
  13  15   2    0.10    0.34
 -13 -15   2    0.34    0.43
 -12 -16  -2    7.11    1.44
  12  16  -2    8.73    1.40
  12  16   2    8.45    1.25
 -12 -16   2    7.30    1.52
 -11 -17  -2    0.53    0.46
  11  17  -2    0.12    0.18
 -11 -17   2    0.75    0.45
  11  17   2    0.76    0.41
  10  18  -2    0.76    0.36
 -10 -18  -2    0.88    0.45
  10  18  -2    0.53    0.57
 -10 -18  -2    0.76    0.54
 -10 -18   2    1.31    0.52
   9  19  -2   28.75    3.08
  -9 -19  -2   28.66    3.02
  -9 -19   2   29.20    3.21
  -9 -19   2   27.64    3.14
   8  20  -2    0.62    0.48
  -8 -20  -2    0.38    0.25
  -8 -20   2   -0.15    0.25
   8  20   2    0.17    0.31
  -8 -20   2    0.29    0.40
  -7 -21  -2    1.29    0.48
   7  21  -2    0.58    0.47
   7  21   2    1.50    0.59
  -7 -21   2    0.48    0.62
  -7 -21   2    1.27    0.57
  20   8  -3    5.47    1.17
 -20  -8  -3    2.54    0.80
 -20  -8   3    7.03    1.50
  20   8   3    1.51    0.69
 -19  -9  -3    6.92    1.41
  19   9   3    7.79    1.49
  18  10  -3    3.79    0.97
 -18 -10   3    4.66    1.27
  17  11  -3    1.65    0.59
 -17 -11   3    1.60    0.67
 -16 -12  -3    2.24    0.77
  16  12  -3    0.62    0.40
 -16 -12  -3    1.44    0.50
 -16 -12   3    0.40    0.43
 -15 -13  -3    4.99    1.01
  15  13  -3    1.28    0.54
 -15 -13  -3    5.43    1.16
 -14 -14  -3    7.54    1.47
 -14 -14  -3    8.57    1.26
 -13 -15  -3    9.41    1.34
 -13 -15  -3    7.66    1.49
  12  16  -3    0.23    0.27
 -12 -16  -3    0.31    0.37
 -12 -16   3    0.43    0.39
  11  17  -3    7.78    1.41
  11  17  -3    9.29    1.43
 -11 -17   3   10.63    1.58
  10  18  -3    4.96    1.05
  10  18  -3    4.56    1.09
 -10 -18   3    4.84    1.17
   9  19  -3    4.08    0.95
   9  19  -3    3.91    1.00
  -9 -19   3    2.80    0.91
   8  20  -3    9.63    1.67
  -8 -20   3   10.97    1.81
  -8 -20   3    8.80    1.70
  17  11  -4    4.10    1.02
 -17 -11   4    4.38    1.36
  16  12  -4    1.29    0.50
 -16 -12  -4    1.43    0.54
  16  12   4    1.71    0.78
 -16 -12   4    1.28    0.83
 -15 -13  -4   20.01    2.41
  15  13  -4   23.82    2.50
 -15 -13   4   19.88    2.72
  15  13   4   19.15    2.48
  14  14  -4    2.00    0.64
 -14 -14  -4    2.53    0.65
 -14 -14   4    2.33    1.02
  14  14   4    1.54    0.67
  13  15  -4    1.80    0.58
  13  15   4    0.40    0.38
 -13 -15   4    1.31    0.71
 -12 -16  -4    7.55    1.40
  12  16  -4    9.88    1.40
 -12 -16   4    9.67    1.83
  12  16   4    8.49    1.48
  22   8   0   -0.02    0.35
 -22  -8   0    0.04    0.42
 -21  -9   0   62.33    6.17
  21   9   0   68.22    6.06
  20  10   0   -0.05    0.23
 -20 -10   0   -0.08    0.32
 -19 -11   0    0.11    0.29
  19  11   0    0.16    0.33
  18  12   0   -0.40    0.21
 -18 -12   0    0.35    0.28
  17  13   0    0.30    0.30
 -17 -13   0    0.11    0.22
  16  14   0    0.09    0.27
 -16 -14   0    0.30    0.34
 -15 -15   0    0.48    0.36
  15  15   0    0.78    0.42
  14  16   0    0.16    0.30
 -14 -16   0   -0.05    0.27
  13  17   0    0.11    0.27
 -13 -17   0    0.41    0.41
 -12 -18   0   40.74    4.11
  12  18   0   38.79    3.89
 -11 -19   0    0.44    0.37
 -10 -20   0    0.42    0.33
 -10 -20   0    0.05    0.24
   9  21   0    7.99    1.39
  -9 -21   0    8.49    1.53
  -9 -21   0    9.01    1.56
   8  22   0    0.08    0.28
  -8 -22   0   -0.10    0.23
 -22  -8  -1    5.38    1.37
  22   8  -1    4.15    1.14
 -22  -8  -1    4.54    1.02
  22   8   1    4.73    1.09
 -22  -8   1    3.05    1.03
 -21  -9  -1    2.61    0.99
 -21  -9  -1    2.35    0.71
  21   9  -1    2.67    0.91
 -21  -9   1    2.83    0.94
  21   9   1    1.72    0.66
  20  10  -1   13.83    1.76
 -20 -10  -1    9.56    1.78
 -20 -10  -1    8.55    1.39
 -20 -10   1   13.24    1.76
  20  10   1    8.08    1.44
  19  11  -1    2.60    0.82
 -19 -11  -1    4.25    1.11
 -19 -11   1    3.64    1.06
  19  11   1    5.19    1.06
  18  12  -1    7.21    1.31
 -18 -12  -1    4.70    1.18
  18  12   1    4.94    1.09
 -18 -12   1    8.17    1.51
 -17 -13  -1    9.48    1.48
  17  13  -1   10.14    1.50
 -17 -13   1   12.96    1.73
  17  13   1    9.39    1.41
 -16 -14  -1   15.87    1.93
  16  14  -1    9.83    1.58
 -16 -14   1   11.04    1.77
  16  14   1   15.73    1.78
  15  15  -1   21.65    2.40
 -15 -15   1   18.65    2.49
 -14 -16  -1    0.02    0.29
  14  16  -1    0.05    0.22
  14  16   1    0.46    0.38
 -14 -16   1    0.23    0.28
 -13 -17  -1    5.50    1.17
  13  17  -1    3.32    0.91
  13  17   1    6.37    1.14
 -13 -17   1    4.32    1.13
 -12 -18  -1   14.58    1.93
  11  19  -1   10.32    1.47
 -11 -19  -1    8.20    1.56
 -11 -19   1   11.42    1.66
 -10 -20  -1    3.32    0.87
 -10 -20  -1    2.52    0.81
 -10 -20   1    2.62    0.83
 -10 -20   1    2.83    0.91
   9  21  -1    3.37    0.97
  -9 -21   1    5.33    1.24
  -9 -21   1    5.06    1.22
 -21  -9  -2    4.83    1.37
  21   9  -2    4.78    1.17
 -21  -9  -2    4.95    1.15
 -21  -9   2    4.00    1.20
  21   9   2    5.40    1.06
 -20 -10  -2    0.50    0.43
 -20 -10  -2    0.55    0.30
  20  10  -2    0.59    0.42
  20  10   2   -0.17    0.27
 -20 -10   2    0.17    0.53
  19  11  -2    0.04    0.29
 -19 -11  -2   -0.12    0.23
 -19 -11  -2    0.12    0.26
  19  11   2    0.04    0.25
 -19 -11   2    0.07    0.47
  18  12  -2    9.42    1.57
 -18 -12  -2   10.06    1.77
 -18 -12  -2    9.34    1.39
  18  12   2    8.18    1.28
 -18 -12   2   11.14    1.96
  17  13  -2   -0.04    0.25
 -17 -13  -2    0.58    0.40
 -17 -13   2    0.33    0.47
  17  13   2    0.16    0.27
 -16 -14  -2    3.45    0.97
  16  14  -2    2.28    0.73
  16  14   2    2.44    0.72
 -16 -14   2    2.33    0.88
 -15 -15  -2   75.37    6.72
  15  15  -2   64.12    6.37
 -15 -15   2   67.42    6.73
  15  15   2   76.30    6.37
 -14 -16  -2    0.01    0.25
  14  16  -2    0.18    0.26
 -14 -16   2    0.06    0.29
  14  16   2    0.33    0.33
 -13 -17  -2    0.61    0.42
  13  17  -2    0.65    0.40
 -13 -17   2    0.97    0.53
  13  17   2    0.62    0.40
 -12 -18  -2   20.57    2.49
  12  18  -2   20.81    2.43
  12  18   2   19.87    2.30
 -12 -18   2   22.15    2.63
 -11 -19  -2    0.79    0.42
  11  19  -2    1.52    0.57
  11  19   2    1.18    0.47
 -11 -19   2    0.97    0.49
  10  20  -2    0.49    0.39
 -10 -20  -2    0.00    0.22
  10  20  -2   -0.06    0.40
 -10 -20   2    0.39    0.39
 -18 -12  -3    5.93    1.17
  18  12  -3    1.93    0.71
 -18 -12   3    1.36    0.93
 -17 -13  -3    2.38    0.85
 -17 -13  -3    3.17    0.78
 -16 -14  -3   18.70    2.40
  15  15  -3   27.63    2.93
 -15 -15   3   23.83    3.06
  14  16  -3    3.83    0.96
 -14 -16   3    2.98    1.05
  13  17  -3    0.85    0.47
 -13 -17  -3    1.78    0.62
 -13 -17   3    0.85    0.57
  12  18  -3    7.26    1.38
 -12 -18   3    7.60    1.58
 -21 -11   0   35.36    4.02
  21  11   0   39.93    3.96
 -20 -12   0    0.12    0.48
  20  12   0    0.22    0.41
 -19 -13   0    1.01    0.49
  19  13   0    0.04    0.34
  18  14   0   24.41    2.72
 -18 -14   0   22.53    2.80
  17  15   0   -0.07    0.32
 -17 -15   0   -0.30    0.25
 -16 -16   0   -0.04    0.32
  16  16   0    0.23    0.36
 -15 -17   0   43.51    4.43
  15  17   0   43.14    4.31
 -14 -18   0    0.02    0.33
  14  18   0    0.33    0.40
 -13 -19   0    0.31    0.40
  13  19   0    0.21    0.38
  12  20   0    0.37    0.45
 -12 -20   0    0.14    0.28
 -20 -12  -1    0.75    0.52
  20  12  -1    0.88    0.63
 -20 -12   1    0.63    0.70
  20  12   1    0.47    0.45
  19  13  -1    5.93    1.38
 -19 -13  -1    8.14    1.61
 -19 -13   1    7.07    1.59
  19  13   1    7.26    1.32
 -18 -14  -1    9.76    1.75
 -17 -15  -1    2.96    0.89
  17  15  -1    3.90    1.09
  17  15   1    2.60    0.77
 -17 -15   1    3.07    0.99
 -16 -16  -1    0.07    0.26
  16  16  -1    0.03    0.39
 -16 -16   1    0.41    0.40
  16  16   1    0.59    0.40
  15  17  -1    2.98    0.95
 -15 -17   1    5.15    1.30
 -14 -18  -1    7.03    1.45
  14  18   1    6.89    1.34
 -14 -18   1   11.21    1.85
 -13 -19  -1    9.90    1.46
  13  19  -1    5.94    1.37
  13  19   1    9.47    1.51
 -13 -19   1    7.77    1.64
 -12 -20  -1   20.52    2.73
  12  20  -1   33.10    3.11
  12  20   1   25.12    2.82
  18  14  -2   32.94    3.48
 -18 -14  -2   32.00    3.63
  18  14   2   34.47    3.33
 -18 -14   2   29.09    3.73
 -17 -15  -2    0.28    0.39
  17  15  -2   -0.01    0.26
 -17 -15   2    0.07    0.46
  17  15   2    0.62    0.37
  16  16  -2    1.70    0.69
 -16 -16  -2    2.64    0.87
 -16 -16   2    1.63    0.78
  16  16   2    2.59    0.73
  15  17  -2    0.22    0.29
 -15 -17  -2   -0.22    0.27
 -15 -17   2    0.28    0.46
  15  17   2   -0.19    0.23
  14  18  -2    0.14    0.39
 -14 -18   2    0.62    0.51
   0   0   0    0.00    0.00
;
_shelx_hkl_checksum              71610
loop_
_space_group_symop_operation_xyz
'x, y, z'
'-x, y, -z'
'x+1/2, y+1/2, z'
'-x+1/2, y+1/2, -z'
'-x, -y, -z'
'x, -y, z'
'-x+1/2, -y+1/2, -z'
'x+1/2, -y+1/2, z'
loop_
_atom_site_label
_atom_site_type_symbol
_atom_site_fract_x
_atom_site_fract_y
_atom_site_fract_z
_atom_site_U_iso_or_equiv
_atom_site_adp_type
_atom_site_occupancy
_atom_site_site_symmetry_order
_atom_site_calc_flag
_atom_site_refinement_flags_posn
_atom_site_refinement_flags_adp
_atom_site_refinement_flags_occupancy
Mo1 Mo 0.16665(2) 0.39155(2) 0.01988(7) 0.01435(13) Uani 1 1 d . . .
Mo2 Mo 0.000000 0.10841(3) 0.500000 0.01350(15) Uani 1 2 d S T P
Cl1 Cl 0.05388(7) 0.19454(7) 0.2621(2) 0.0230(3) Uani 1 1 d . . .
Cl2 Cl 0.06517(7) 0.40577(7) 0.2503(2) 0.0196(3) Uani 1 1 d . . .
Cl3 Cl 0.22051(7) 0.30546(7) 0.2571(2) 0.0216(3) Uani 1 1 d . . .
Cl4 Cl 0.23170(7) 0.09413(7) 0.2103(2) 0.0201(3) Uani 1 1 d . . .
Cl5 Cl 0.38717(7) 0.19420(7) 0.2190(2) 0.0221(3) Uani 1 1 d . . .
Cl6 Cl 0.39841(7) 0.40590(7) 0.2731(2) 0.0209(3) Uani 1 1 d . . .
Cl7 Cl 0.05402(9) 0.000000 0.2637(2) 0.0148(3) Uani 1 2 d S T P
Cl8 Cl 0.38729(9) 0.000000 0.2144(3) 0.0153(3) Uani 1 2 d S T P
Cl9 Cl 0.72076(9) 0.000000 0.2546(2) 0.0148(3) Uani 1 2 d S T P
loop_
_atom_site_aniso_label
_atom_site_aniso_U_11
_atom_site_aniso_U_22
_atom_site_aniso_U_33
_atom_site_aniso_U_23
_atom_site_aniso_U_13
_atom_site_aniso_U_12
Mo1 0.0138(2) 0.0131(2) 0.0162(2) 0.00035(13) 0.00012(16) -0.00024(13)
Mo2 0.0136(3) 0.0120(3) 0.0149(3) 0.000 -0.0004(2) 0.000
Cl1 0.0243(6) 0.0178(6) 0.0269(7) 0.0053(4) 0.0020(5) -0.0041(5)
Cl2 0.0161(6) 0.0194(6) 0.0232(6) 0.0014(4) 0.0039(4) 0.0005(5)
Cl3 0.0241(6) 0.0173(6) 0.0235(6) 0.0046(4) -0.0025(5) 0.0044(5)
Cl4 0.0172(6) 0.0192(6) 0.0239(6) -0.0014(4) 0.0049(5) 0.0001(4)
Cl5 0.0240(6) 0.0178(6) 0.0244(6) -0.0040(4) -0.0020(5) -0.0043(5)
Cl6 0.0174(6) 0.0191(6) 0.0261(7) -0.0010(4) -0.0055(5) -0.0004(5)
Cl7 0.0149(7) 0.0131(7) 0.0165(7) 0.000 0.0026(5) 0.000
Cl8 0.0151(8) 0.0138(7) 0.0169(7) 0.000 -0.0024(6) 0.000
Cl9 0.0153(7) 0.0126(7) 0.0164(8) 0.000 -0.0017(5) 0.000
loop_
_atom_type_symbol
_atom_type_description
_atom_type_scat_dispersion_real
_atom_type_scat_dispersion_imag
_atom_type_scat_source
Cl Cl 0.1484 0.1585 'International Tables Vol C Tables 4.2.6.8 and 6.1.1.4'
Mo Mo -1.6832 0.6857 'International Tables Vol C Tables 4.2.6.8 and 6.1.1.4'
loop_
_geom_angle_atom_site_label_1
_geom_angle_atom_site_label_2
_geom_angle_atom_site_label_3
_geom_angle
_geom_angle_site_symmetry_1
_geom_angle_site_symmetry_3
Cl3 Mo1 Cl5 95.42(5) . 7
Cl3 Mo1 Cl2 93.92(5) . .
Cl5 Mo1 Cl2 94.78(5) 7 .
Cl3 Mo1 Cl4 94.61(5) . 7
Cl5 Mo1 Cl4 93.83(5) 7 7
Cl2 Mo1 Cl4 167.24(5) . 7
Cl3 Mo1 Cl8 173.18(4) . 7
Cl5 Mo1 Cl8 91.40(4) 7 7
Cl2 Mo1 Cl8 85.26(5) . 7
Cl4 Mo1 Cl8 85.14(5) 7 7
Cl3 Mo1 Cl9 91.58(4) . 3_455
Cl5 Mo1 Cl9 172.99(4) 7 3_455
Cl2 Mo1 Cl9 85.14(5) . 3_455
Cl4 Mo1 Cl9 85.16(5) 7 3_455
Cl8 Mo1 Cl9 81.61(4) 7 3_455
Cl6 Mo2 Cl6 167.10(7) 8_455 7_556
Cl6 Mo2 Cl1 94.35(5) 8_455 .
Cl6 Mo2 Cl1 94.31(5) 7_556 .
Cl6 Mo2 Cl1 94.31(5) 8_455 2_556
Cl6 Mo2 Cl1 94.35(5) 7_556 2_556
Cl1 Mo2 Cl1 95.48(7) . 2_556
Cl6 Mo2 Cl7 84.96(5) 8_455 5_556
Cl6 Mo2 Cl7 85.32(5) 7_556 5_556
Cl1 Mo2 Cl7 173.32(4) . 5_556
Cl1 Mo2 Cl7 91.20(5) 2_556 5_556
Cl6 Mo2 Cl7 85.32(5) 8_455 .
Cl6 Mo2 Cl7 84.96(5) 7_556 .
Cl1 Mo2 Cl7 91.20(5) . .
Cl1 Mo2 Cl7 173.32(4) 2_556 .
Cl7 Mo2 Cl7 82.12(5) 5_556 .
Mo2 Cl7 Mo2 97.88(5) . 5_556
Mo1 Cl8 Mo1 98.46(5) 4_545 7
Mo1 Cl9 Mo1 98.33(5) 3_545 8
loop_
_geom_bond_atom_site_label_1
_geom_bond_atom_site_label_2
_geom_bond_distance
_geom_bond_site_symmetry_2
Mo1 Cl3 2.2471(12) .
Mo1 Cl5 2.2487(12) 7
Mo1 Cl2 2.2611(13) .
Mo1 Cl4 2.2626(13) 7
Mo1 Cl8 2.5211(10) 7
Mo1 Cl9 2.5235(10) 3_455
Mo2 Cl6 2.2433(12) 8_455
Mo2 Cl6 2.2433(12) 7_556
Mo2 Cl1 2.2546(12) .
Mo2 Cl1 2.2546(12) 2_556
Mo2 Cl7 2.5312(11) 5_556
Mo2 Cl7 2.5312(11) .
