#------------------------------------------------------------------------------
#$Date: 2016-03-21 01:21:50 +0200 (Mon, 21 Mar 2016) $
#$Revision: 178377 $
#$URL: svn://www.crystallography.net/cod/cif/4/00/21/4002114.cif $
#------------------------------------------------------------------------------
#
# This file is available in the Crystallography Open Database (COD),
# http://www.crystallography.net/
#
# All data on this site have been placed in the public domain by the
# contributors.
#
data_4002114
loop_
_publ_author_name
'Nanthamathee, Chompoonoot'
'Ling, Sanliang'
'Slater, Ben'
'Attfield, Martin P.'
_publ_section_title
;
 Contradistinct Thermoresponsive Behavior of Isostructural MIL-53 Type
 Metal--Organic Frameworks by Modifying the Framework Inorganic Anion
;
_journal_name_full               'Chemistry of Materials'
_journal_page_first              141223143002002
_journal_paper_doi               10.1021/cm503311x
_journal_year                    2014
_chemical_formula_sum            'C8 Al O5'
_chemical_formula_weight         203.07
_chemical_name_systematic        ' ?'
_space_group_IT_number           74
_symmetry_cell_setting           orthorhombic
_symmetry_space_group_name_Hall  '-I 2b 2'
_symmetry_space_group_name_H-M   'I m m a'
_audit_creation_date             2014-08-28T12:16
_audit_creation_method           'from EXP file using GSAS2CIF'
_audit_update_record
' 2014-08-28T12:16  Initial CIF as created by GSAS2CIF'
_cell_angle_alpha                90.0
_cell_angle_beta                 90.0
_cell_angle_gamma                90.0
_cell_formula_units_Z            4
_cell_length_a                   6.62927(6)
_cell_length_b                   16.75151(18)
_cell_length_c                   12.80193(23)
_cell_volume                     1421.66(3)
_computing_structure_refinement  GSAS
_diffrn_radiation_polarisn_ratio 0.95
_diffrn_radiation_probe          x-ray
_diffrn_radiation_wavelength     0.825993
_exptl_absorpt_correction_T_max  1.00000
_exptl_absorpt_correction_T_min  1.00000
_exptl_absorpt_process_details
;   GSAS Absorption/surface roughness correction: function number 0
 No correction is applied.
;
_pd_block_id                     2014-08-28T12:16|325K|300k|i11
_pd_calc_method                  'Rietveld Refinement'
_pd_instr_location               ' ?'
_pd_meas_2theta_range_inc        0.003
_pd_meas_2theta_range_max        149.9955
_pd_meas_2theta_range_min        0.0015
_pd_meas_number_of_points        49999
_pd_phase_name                   300K
_pd_proc_2theta_range_inc        0.003
_pd_proc_2theta_range_max        150.00447
_pd_proc_2theta_range_min        0.010473
_pd_proc_info_datetime           2014-08-28T12:16:28
_pd_proc_info_excluded_regions   ' ?'
_pd_proc_ls_background_function
;   GSAS Background function number 1 with  2 terms.
 Shifted Chebyshev function of 1st kind
      1:    0.00000     2:    0.00000    
;
_pd_proc_ls_peak_cutoff          0.00100
_pd_proc_ls_profile_function
;
 CW Profile function number 4 with  18 terms
 Pseudovoigt profile coefficients as parameterized in
 P. Thompson, D.E. Cox & J.B. Hastings (1987). J. Appl. Cryst.,20,79-83.
 Asymmetry correction of L.W. Finger, D.E. Cox & A. P. Jephcoat (1994).
 J. Appl. Cryst.,27,892-900.
 Microstrain broadening by P.W. Stephens,  (1999). J. Appl. Cryst.,32,281-289.
 Peak tails are ignored  where the intensity is below 0.0010 times the peak
   Aniso. broadening axis   1.0   0.0   1.0
;
_pd_proc_ls_prof_R_factor        0.0356
_pd_proc_ls_prof_wR_expected     0.0232
_pd_proc_ls_prof_wR_factor       0.0472
_pd_proc_number_of_points        49999
_pd_spec_mounting                ' ?'
_refine_ls_goodness_of_fit_all   2.04
_refine_ls_matrix_type           full
_refine_ls_number_parameters     27
_refine_ls_number_restraints     0
_refine_ls_R_Fsqd_factor         0.23894
_refine_ls_shift/su_max          0.08
_refine_ls_shift/su_mean         0.01
_reflns_d_resolution_high        1.209
_reflns_d_resolution_low         8.376
_reflns_limit_h_max              5
_reflns_limit_h_min              0
_reflns_limit_k_max              13
_reflns_limit_k_min              0
_reflns_limit_l_max              10
_reflns_limit_l_min              0
_reflns_number_total             252
_cod_data_source_file            aloh325K.cif
_cod_data_source_block           325K_publ
_cod_depositor_comments
;
The following automatic conversions were performed:

'_geom_bond_publ_flag' value 'N' changed to 'n' according to
/home/saulius/struct/COD-crude-data--automatic-downloads/rss-feeds/ACS/lib/dictionaries/cif_core.dic
dictionary named 'cif_core.dic' version 2.4.2 from 2011-04-26 (18
times).

'_geom_angle_publ_flag' value 'N' changed to 'n' according
to
/home/saulius/struct/COD-crude-data--automatic-downloads/rss-feeds/ACS/lib/dictionaries/cif_core.dic
dictionary named 'cif_core.dic' version 2.4.2 from 2011-04-26 (24
times).

Automatic conversion script
Id: cif_fix_values 2935 2014-11-11 08:27:57Z andrius 
;
_cod_original_cell_volume        1421.659(32)
_cod_database_code               4002114
#BEGIN Tags that were not found in dictionaries:
_gsas_exptl_extinct_corr_t_min   1.00000
_gsas_exptl_extinct_corr_t_max   1.00000
#END Tags that were not found in dictionaries
loop_
_symmetry_equiv_pos_site_id
_symmetry_equiv_pos_as_xyz
1 +x,+y,+z
2 -x,+y,+z
3 +x,-y+1/2,+z
4 -x,-y+1/2,+z
-1 -x,-y,-z
-2 +x,-y,-z
-3 -x,+y+1/2,-z
-4 +x,+y+1/2,-z
101 +x+1/2,+y+1/2,+z+1/2
102 -x+1/2,+y+1/2,+z+1/2
103 +x+1/2,-y,+z+1/2
104 -x+1/2,-y,+z+1/2
-101 -x+1/2,-y+1/2,-z+1/2
-102 +x+1/2,-y+1/2,-z+1/2
-103 -x+1/2,+y,-z+1/2
-104 +x+1/2,+y,-z+1/2
loop_
_atom_site_type_symbol
_atom_site_label
_atom_site_fract_x
_atom_site_fract_y
_atom_site_fract_z
_atom_site_occupancy
_atom_site_thermal_displace_type
_atom_site_U_iso_or_equiv
_atom_site_symmetry_multiplicity
Al Al1 0.25 0.25 0.75 1.0 Uiso 0.0206(10) 4
O O2 0.0 0.25 0.6845(4) 1.0 Uiso 0.0158(8) 4
O O1 0.16606(30) 0.16780(14) 0.84380(21) 1.0 Uiso 0.0158(8) 16
C C3 -0.1921(4) 0.03456(30) 0.9668(4) 1.0 Uiso 0.0372(14) 16
C C2 0.0 0.0626(4) 0.9457(5) 1.0 Uiso 0.0372(14) 8
C C1 0.0 0.1386(4) 0.8702(6) 1.0 Uiso 0.0372(14) 8
loop_
_atom_type_symbol
_atom_type_number_in_cell
_atom_type_scat_dispersion_real
_atom_type_scat_dispersion_imag
_atom_type_scat_Cromer_Mann_a1
_atom_type_scat_Cromer_Mann_a2
_atom_type_scat_Cromer_Mann_a3
_atom_type_scat_Cromer_Mann_a4
_atom_type_scat_Cromer_Mann_b1
_atom_type_scat_Cromer_Mann_b2
_atom_type_scat_Cromer_Mann_b3
_atom_type_scat_Cromer_Mann_b4
_atom_type_scat_Cromer_Mann_c
_atom_type_scat_source
Al 4.0 0.000 0.000 6.42020 3.03870 1.90020 0.74260 1.59360 31.5472 1.96460
85.0886 1.11510 International_Tables_Vol_C
O 20.0 0.000 0.000 3.04850 13.2771 2.28680 5.70110 1.54630 0.32390 0.86700
32.9089 0.25080 International_Tables_Vol_C
C 32.0 0.000 0.000 2.31000 20.8439 1.02000 10.2075 1.58860 0.56870 0.86500
51.6512 0.21560 International_Tables_Vol_C
loop_
_geom_angle_atom_site_label_1
_geom_angle_atom_site_label_2
_geom_angle_atom_site_label_3
_geom_angle
_geom_angle_site_symmetry_1
_geom_angle_site_symmetry_3
_geom_angle_publ_flag
O2 Al1 O2 180.0 1_555 -101_546 n
O2 Al1 O1 91.38(12) 1_555 1_555 n
O2 Al1 O1 91.38(12) 1_555 3_555 n
O2 Al1 O1 88.62(12) 1_555 -101_566 n
O2 Al1 O1 88.62(12) 1_555 -103_566 n
O2 Al1 O1 88.62(12) -101_566 1_555 n
O2 Al1 O1 88.62(12) -101_566 3_555 n
O2 Al1 O1 91.38(12) -101_566 -101_566 n
O2 Al1 O1 91.38(12) -101_566 -103_566 n
O1 Al1 O1 92.27(17) 1_555 3_555 n
O1 Al1 O1 180.0 1_555 -101_566 n
O1 Al1 O1 87.73(17) 1_555 -103_566 n
O1 Al1 O1 87.73(17) 3_555 -101_566 n
O1 Al1 O1 180.0 3_555 -103_566 n
O1 Al1 O1 92.27(17) -101_566 -103_566 n
Al1 O2 Al1 126.30(30) 1_555 2_555 n
Al1 O1 C1 135.09(35) 1_555 1_555 n
C3 C3 C2 112.92(34) -2_557 1_555 n
C3 C2 C3 133.9(7) 1_555 2_555 n
C3 C2 C1 112.87(34) 1_555 1_555 n
C3 C2 C1 112.87(34) 2_555 1_555 n
O1 C1 O1 123.2(6) 1_555 2_555 n
O1 C1 C2 118.35(31) 1_555 1_555 n
O1 C1 C2 118.35(31) 2_555 1_555 n
loop_
_geom_bond_atom_site_label_1
_geom_bond_atom_site_label_2
_geom_bond_distance
_geom_bond_site_symmetry_2
_geom_bond_publ_flag
Al1 O2 1.8576(24) 1_555 n
Al1 O2 1.8576(24) -101_445 n
Al1 O1 1.9100(20) 1_555 n
Al1 O1 1.9100(20) 3_555 n
Al1 O1 1.9100(20) -101_445 n
Al1 O1 1.9100(20) -103_445 n
O2 Al1 1.8576(24) 1_555 n
O2 Al1 1.8576(24) 2_555 n
O1 Al1 1.9100(20) 1_555 n
O1 C1 1.2512(31) 1_555 n
C3 C3 1.436(7) -2_557 n
C3 C2 1.3841(30) 1_555 n
C2 C3 1.3841(30) 1_555 n
C2 C3 1.3841(30) 2_555 n
C2 C1 1.598(6) 1_555 n
C1 O1 1.2512(31) 1_555 n
C1 O1 1.2512(31) 2_555 n
C1 C2 1.598(6) 1_555 n
loop_
_pd_meas_intensity_total
_pd_proc_ls_weight
_pd_proc_intensity_bkg_calc
_pd_calc_intensity_total
20.1(23) 0.0 0.00 .
20.4(25) 0.0 0.00 .
19.7(25) 0.0 0.00 .
31.1(31) 0.0 0.00 .
37.2(32) 0.0 0.00 .
87(5) 0.0 0.0 .
108(5) 0.0 0.0 .
669(15) 0.0 0.0 .
1190(19) 0.0 0.0 .
2331(25) 0.0 0.0 .
2709(28) 0.0 0.0 .
2730(28) 0.0 0.0 .
2779(30) 0.0 0.0 .
1042(17) 0.0 0.0 .
98(5) 0.0 0.0 .
58(4) 0.0 0.0 .
44(4) 0.0 0.0 .
30.8(29) 0.0 0.00 .
42.0(35) 0.0 0.00 .
55(4) 0.0 0.0 .
182(7) 0.0 0.0 .
299(9) 0.0 0.0 .
678(15) 0.0 0.0 .
867(16) 0.0 0.0 .
953(16) 0.0 0.0 .
1153(18) 0.0 0.0 .
1203(19) 0.0 0.0 .
1433(21) 0.0 0.0 .
1710(22) 0.0 0.0 .
1718(22) 0.0 0.0 .
2008(24) 0.0 0.0 .
2033(25) 0.0 0.0 .
1777(23) 0.0 0.0 .
1624(21) 0.0 0.0 .
1218(18) 0.0 0.0 .
647(14) 0.0 0.0 .
318(10) 0.0 0.0 .
215(8) 0.0 0.0 .
129(6) 0.0 0.0 .
73(5) 0.0 0.0 .
45(4) 0.0 0.0 .
44(4) 0.0 0.0 .
29.3(31) 0.0 0.00 .
31.8(31) 0.0 0.00 .
21.9(24) 0.0 0.00 .
23.5(28) 0.0 0.00 .
24.8(29) 0.0 0.00 .
32.7(34) 0.0 0.00 .
28.2(28) 0.0 0.00 .
23.7(26) 0.0 0.00 .
25.8(26) 0.0 0.00 .
33.0(31) 0.0 0.00 .
30.0(28) 0.0 0.00 .
21.9(25) 0.0 0.00 .
28.2(28) 0.0 0.00 .
34.3(30) 0.0 0.00 .
38(4) 0.0 0.0 .
26.6(27) 0.0 0.00 .
30.0(29) 0.0 0.00 .
34.9(31) 0.0 0.00 .
28.5(28) 0.0 0.00 .
32.2(32) 0.0 0.00 .
27.6(28) 0.0 0.00 .
24.8(26) 0.0 0.00 .
34.4(32) 0.0 0.00 .
38.8(34) 0.0 0.00 .
36.3(34) 0.0 0.00 .
37.1(33) 0.0 0.00 .
37.4(32) 0.0 0.00 .
31.7(30) 0.0 0.00 .
33.9(31) 0.0 0.00 .
38.9(34) 0.0 0.00 .
34.7(31) 0.0 0.00 .
35.6(31) 0.0 0.00 .
37.2(32) 0.0 0.00 .
33.0(32) 0.0 0.00 .
39.7(34) 0.0 0.00 .
38.4(33) 0.0 0.00 .
39.9(33) 0.0 0.00 .
35.1(31) 0.0 0.00 .
42(4) 0.0 0.0 .
36.2(34) 0.0 0.00 .
33.3(30) 0.0 0.00 .
41.1(34) 0.0 0.00 .
38.0(33) 0.0 0.00 .
37.2(31) 0.0 0.00 .
38.6(34) 0.0 0.00 .
35.8(32) 0.0 0.00 .
48(4) 0.0 0.0 .
34.8(32) 0.0 0.00 .
37.3(33) 0.0 0.00 .
35.3(31) 0.0 0.00 .
40.8(33) 0.0 0.00 .
51(4) 0.0 0.0 .
55(4) 0.0 0.0 .
48(4) 0.0 0.0 .
62(4) 0.0 0.0 .
81(5) 0.0 0.0 .
84(5) 0.0 0.0 .
90(5) 0.0 0.0 .
86(5) 0.0 0.0 .
101(5) 0.0 0.0 .
116(6) 0.0 0.0 .
111(5) 0.0 0.0 .
131(6) 0.0 0.0 .
143(7) 0.0 0.0 .
153(7) 0.0 0.0 .
166(7) 0.0 0.0 .
160(7) 0.0 0.0 .
187(8) 0.0 0.0 .
182(8) 0.0 0.0 .
179(7) 0.0 0.0 .
189(7) 0.0 0.0 .
195(7) 0.0 0.0 .
220(8) 0.0 0.0 .
235(8) 0.0 0.0 .
242(9) 0.0 0.0 .
233(8) 0.0 0.0 .
237(8) 0.0 0.0 .
280(9) 0.0 0.0 .
286(9) 0.0 0.0 .
299(9) 0.0 0.0 .
280(9) 0.0 0.0 .
319(9) 0.0 0.0 .
327(10) 0.0 0.0 .
292(9) 0.0 0.0 .
316(10) 0.0 0.0 .
332(9) 0.0 0.0 .
372(10) 0.0 0.0 .
351(10) 0.0 0.0 .
350(10) 0.0 0.0 .
350(10) 0.0 0.0 .
380(10) 0.0 0.0 .
410(11) 0.0 0.0 .
420(11) 0.0 0.0 .
416(11) 0.0 0.0 .
406(11) 0.0 0.0 .
429(11) 0.0 0.0 .
420(11) 0.0 0.0 .
433(11) 0.0 0.0 .
463(12) 0.0 0.0 .
437(11) 0.0 0.0 .
454(11) 0.0 0.0 .
458(12) 0.0 0.0 .
478(12) 0.0 0.0 .
480(12) 0.0 0.0 .
499(12) 0.0 0.0 .
490(12) 0.0 0.0 .
482(12) 0.0 0.0 .
491(12) 0.0 0.0 .
528(12) 0.0 0.0 .
497(11) 0.0 0.0 .
485(12) 0.0 0.0 .
501(12) 0.0 0.0 .
528(13) 0.0 0.0 .
534(12) 0.0 0.0 .
522(12) 0.0 0.0 .
557(12) 0.0 0.0 .
547(12) 0.0 0.0 .
578(13) 0.0 0.0 .
537(12) 0.0 0.0 .
577(12) 0.0 0.0 .
573(12) 0.0 0.0 .
546(12) 0.0 0.0 .
557(13) 0.0 0.0 .
575(13) 0.0 0.0 .
570(12) 0.0 0.0 .
536(12) 0.0 0.0 .
575(13) 0.0 0.0 .
581(13) 0.0 0.0 .
572(13) 0.0 0.0 .
575(12) 0.0 0.0 .
593(13) 0.0 0.0 .
622(13) 0.0 0.0 .
593(13) 0.0 0.0 .
616(13) 0.0 0.0 .
622(13) 0.0 0.0 .
618(13) 0.0 0.0 .
637(14) 0.0 0.0 .
614(13) 0.0 0.0 .
606(13) 0.0 0.0 .
654(13) 0.0 0.0 .
635(14) 0.0 0.0 .
611(13) 0.0 0.0 .
605(13) 0.0 0.0 .
596(13) 0.0 0.0 .
588(13) 0.0 0.0 .
612(13) 0.0 0.0 .
657(14) 0.0 0.0 .
654(14) 0.0 0.0 .
671(14) 0.0 0.0 .
614(13) 0.0 0.0 .
658(14) 0.0 0.0 .
671(14) 0.0 0.0 .
657(14) 0.0 0.0 .
657(13) 0.0 0.0 .
667(13) 0.0 0.0 .
671(14) 0.0 0.0 .
696(15) 0.0 0.0 .
674(14) 0.0 0.0 .
709(14) 0.0 0.0 .
714(14) 0.0 0.0 .
693(14) 0.0 0.0 .
703(15) 0.0 0.0 .
735(15) 0.0 0.0 .
738(14) 0.0 0.0 .
724(14) 0.0 0.0 .
696(14) 0.0 0.0 .
704(15) 0.0 0.0 .
708(14) 0.0 0.0 .
705(14) 0.0 0.0 .
727(14) 0.0 0.0 .
704(14) 0.0 0.0 .
692(15) 0.0 0.0 .
751(15) 0.0 0.0 .
765(14) 0.0 0.0 .
750(14) 0.0 0.0 .
769(15) 0.0 0.0 .
775(15) 0.0 0.0 .
745(15) 0.0 0.0 .
731(14) 0.0 0.0 .
752(14) 0.0 0.0 .
778(15) 0.0 0.0 .
749(15) 0.0 0.0 .
754(15) 0.0 0.0 .
726(14) 0.0 0.0 .
790(15) 0.0 0.0 .
737(15) 0.0 0.0 .
804(15) 0.0 0.0 .
785(15) 0.0 0.0 .
751(14) 0.0 0.0 .
751(15) 0.0 0.0 .
789(15) 0.0 0.0 .
781(15) 0.0 0.0 .
794(15) 0.0 0.0 .
807(15) 0.0 0.0 .
829(16) 0.0 0.0 .
795(15) 0.0 0.0 .
813(15) 0.0 0.0 .
781(15) 0.0 0.0 .
824(15) 0.0 0.0 .
804(15) 0.0 0.0 .
819(16) 0.0 0.0 .
823(16) 0.0 0.0 .
798(15) 0.0 0.0 .
817(15) 0.0 0.0 .
833(16) 0.0 0.0 .
807(15) 0.0 0.0 .
771(15) 0.0 0.0 .
795(15) 0.0 0.0 .
845(15) 0.0 0.0 .
829(15) 0.0 0.0 .
842(16) 0.0 0.0 .
829(15) 0.0 0.0 .
874(15) 0.0 0.0 .
830(15) 0.0 0.0 .
857(16) 0.0 0.0 .
872(17) 0.0 0.0 .
916(16) 0.0 0.0 .
880(15) 0.0 0.0 .
850(15) 0.0 0.0 .
858(16) 0.0 0.0 .
905(17) 0.0 0.0 .
856(16) 0.0 0.0 .
860(15) 0.0 0.0 .
874(15) 0.0 0.0 .
874(16) 0.0 0.0 .
864(16) 0.0 0.0 .
885(16) 0.0 0.0 .
878(15) 0.0 0.0 .
856(16) 0.0 0.0 .
839(16) 0.0 0.0 .
895(16) 0.0 0.0 .
949(17) 0.0 0.0 .
893(15) 0.0 0.0 .
895(16) 0.0 0.0 .
901(16) 0.0 0.0 .
854(16) 0.0 0.0 .
893(16) 0.0 0.0 .
897(16) 0.0 0.0 .
901(16) 0.0 0.0 .
898(16) 0.0 0.0 .
893(16) 0.0 0.0 .
898(16) 0.0 0.0 .
897(16) 0.0 0.0 .
922(16) 0.0 0.0 .
911(16) 0.0 0.0 .
920(16) 0.0 0.0 .
883(16) 0.0 0.0 .
831(15) 0.0 0.0 .
911(16) 0.0 0.0 .
922(17) 0.0 0.0 .
923(16) 0.0 0.0 .
914(16) 0.0 0.0 .
904(16) 0.0 0.0 .
958(17) 0.0 0.0 .
927(17) 0.0 0.0 .
939(17) 0.0 0.0 .
926(16) 0.0 0.0 .
957(16) 0.0 0.0 .
924(16) 0.0 0.0 .
949(17) 0.0 0.0 .
954(17) 0.0 0.0 .
951(16) 0.0 0.0 .
970(16) 0.0 0.0 .
961(17) 0.0 0.0 .
961(17) 0.0 0.0 .
971(17) 0.0 0.0 .
953(16) 0.0 0.0 .
959(16) 0.0 0.0 .
957(16) 0.0 0.0 .
990(17) 0.0 0.0 .
966(17) 0.0 0.0 .
935(16) 0.0 0.0 .
952(16) 0.0 0.0 .
954(17) 0.0 0.0 .
923(17) 0.0 0.0 .
947(17) 0.0 0.0 .
996(16) 0.0 0.0 .
978(16) 0.0 0.0 .
982(17) 0.0 0.0 .
956(17) 0.0 0.0 .
971(17) 0.0 0.0 .
967(16) 0.0 0.0 .
951(16) 0.0 0.0 .
944(17) 0.0 0.0 .
962(17) 0.0 0.0 .
930(16) 0.0 0.0 .
940(16) 0.0 0.0 .
958(17) 0.0 0.0 .
953(17) 0.0 0.0 .
967(17) 0.0 0.0 .
976(17) 0.0 0.0 .
964(16) 0.0 0.0 .
1000(17) 0.0 0.0 .
1048(18) 0.0 0.0 .
1025(17) 0.0 0.0 .
1057(17) 0.0 0.0 .
989(16) 0.0 0.0 .
1012(17) 0.0 0.0 .
994(18) 0.0 0.0 .
1001(17) 0.0 0.0 .
997(17) 0.0 0.0 .
953(16) 0.0 0.0 .
1033(17) 0.0 0.0 .
1042(18) 0.0 0.0 .
1036(17) 0.0 0.0 .
1024(17) 0.0 0.0 .
995(16) 0.0 0.0 .
1026(17) 0.0 0.0 .
1057(18) 0.0 0.0 .
1035(17) 0.0 0.0 .
1051(17) 0.0 0.0 .
1019(17) 0.0 0.0 .
1032(17) 0.0 0.0 .
1052(18) 0.0 0.0 .
1033(17) 0.0 0.0 .
1017(17) 0.0 0.0 .
1073(17) 0.0 0.0 .
1088(18) 0.0 0.0 .
1093(18) 0.0 0.0 .
1068(17) 0.0 0.0 .
1075(17) 0.0 0.0 .
1077(17) 0.0 0.0 .
1086(17) 0.0 0.0 .
1109(18) 0.0 0.0 .
1111(18) 0.0 0.0 .
1130(17) 0.0 0.0 .
1144(18) 0.0 0.0 .
1106(18) 0.0 0.0 .
1065(18) 0.0 0.0 .
1088(18) 0.0 0.0 .
1132(17) 0.0 0.0 .
1163(18) 0.0 0.0 .
1134(18) 0.0 0.0 .
1150(19) 0.0 0.0 .
1117(18) 0.0 0.0 .
1130(17) 0.0 0.0 .
1162(18) 0.0 0.0 .
1151(18) 0.0 0.0 .
1144(18) 0.0 0.0 .
1122(18) 0.0 0.0 .
1184(18) 0.0 0.0 .
1135(18) 0.0 0.0 .
1146(18) 0.0 0.0 .
1165(18) 0.0 0.0 .
1159(18) 0.0 0.0 .
1149(18) 0.0 0.0 .
1161(18) 0.0 0.0 .
1174(19) 0.0 0.0 .
1145(18) 0.0 0.0 .
1199(18) 0.0 0.0 .
1181(18) 0.0 0.0 .
1147(18) 0.0 0.0 .
1197(19) 0.0 0.0 .
1166(18) 0.0 0.0 .
1254(19) 0.0 0.0 .
1240(18) 0.0 0.0 .
1219(19) 0.0 0.0 .
1231(19) 0.0 0.0 .
1221(19) 0.0 0.0 .
1189(18) 0.0 0.0 .
1224(18) 0.0 0.0 .
1255(19) 0.0 0.0 .
1250(20) 0.0 0.0 .
1271(19) 0.0 0.0 .
1214(18) 0.0 0.0 .
1230(18) 0.0 0.0 .
1271(19) 0.0 0.0 .
1194(19) 0.0 0.0 .
1214(19) 0.0 0.0 .
1242(18) 0.0 0.0 .
1245(19) 0.0 0.0 .
1189(18) 0.0 0.0 .
1254(20) 0.0 0.0 .
1245(19) 0.0 0.0 .
1238(18) 0.0 0.0 .
1264(19) 0.0 0.0 .
1241(19) 0.0 0.0 .
1242(19) 0.0 0.0 .
1239(19) 0.0 0.0 .
1229(18) 0.0 0.0 .
1266(19) 0.0 0.0 .
1279(19) 0.0 0.0 .
1261(19) 0.0 0.0 .
1228(19) 0.0 0.0 .
1219(18) 0.0 0.0 .
1259(19) 0.0 0.0 .
1279(19) 0.0 0.0 .
1247(19) 0.0 0.0 .
1259(19) 0.0 0.0 .
1259(18) 0.0 0.0 .
1264(19) 0.0 0.0 .
1247(19) 0.0 0.0 .
1274(19) 0.0 0.0 .
1254(19) 0.0 0.0 .
1245(18) 0.0 0.0 .
1268(19) 0.0 0.0 .
1290(20) 0.0 0.0 .
1241(19) 0.0 0.0 .
1206(18) 0.0 0.0 .
1241(18) 0.0 0.0 .
1258(19) 0.0 0.0 .
1258(20) 0.0 0.0 .
1291(19) 0.0 0.0 .
1263(18) 0.0 0.0 .
1297(19) 0.0 0.0 .
1326(20) 0.0 0.0 .
1237(19) 0.0 0.0 .
1269(19) 0.0 0.0 .
1257(18) 0.0 0.0 .
1243(18) 0.0 0.0 .
1270(19) 0.0 0.0 .
1273(20) 0.0 0.0 .
1262(19) 0.0 0.0 .
1207(18) 0.0 0.0 .
1257(19) 0.0 0.0 .
1241(19) 0.0 0.0 .
1249(19) 0.0 0.0 .
1291(19) 0.0 0.0 .
1252(18) 0.0 0.0 .
1268(19) 0.0 0.0 .
1289(19) 0.0 0.0 .
1257(20) 0.0 0.0 .
1234(19) 0.0 0.0 .
1293(19) 0.0 0.0 .
1265(19) 0.0 0.0 .
1283(19) 0.0 0.0 .
1273(20) 0.0 0.0 .
1295(19) 0.0 0.0 .
1228(18) 0.0 0.0 .
1277(19) 0.0 0.0 .
1240(19) 0.0 0.0 .
1230(19) 0.0 0.0 .
1266(19) 0.0 0.0 .
1243(18) 0.0 0.0 .
1249(19) 0.0 0.0 .
1239(19) 0.0 0.0 .
1214(19) 0.0 0.0 .
1204(18) 0.0 0.0 .
1239(18) 0.0 0.0 .
1238(19) 0.0 0.0 .
1236(19) 0.0 0.0 .
1259(19) 0.0 0.0 .
1270(19) 0.0 0.0 .
1285(19) 0.0 0.0 .
1209(19) 0.0 0.0 .
1260(19) 0.0 0.0 .
1290(19) 0.0 0.0 .
1275(19) 0.0 0.0 .
1244(18) 0.0 0.0 .
1256(19) 0.0 0.0 .
1238(19) 0.0 0.0 .
1252(19) 0.0 0.0 .
1267(19) 0.0 0.0 .
1239(18) 0.0 0.0 .
1235(19) 0.0 0.0 .
1254(20) 0.0 0.0 .
1244(19) 0.0 0.0 .
1255(19) 0.0 0.0 .
1236(18) 0.0 0.0 .
1266(19) 0.0 0.0 .
1245(20) 0.0 0.0 .
1274(19) 0.0 0.0 .
1262(18) 0.0 0.0 .
1327(19) 0.0 0.0 .
1280(19) 0.0 0.0 .
1270(20) 0.0 0.0 .
1258(19) 0.0 0.0 .
1230(18) 0.0 0.0 .
1229(18) 0.0 0.0 .
1221(19) 0.0 0.0 .
1207(19) 0.0 0.0 .
1251(19) 0.0 0.0 .
1256(18) 0.0 0.0 .
1235(18) 0.0 0.0 .
1266(19) 0.0 0.0 .
1289(20) 0.0 0.0 .
1247(19) 0.0 0.0 .
1253(18) 0.0 0.0 .
1266(19) 0.0 0.0 .
1251(19) 0.0 0.0 .
1240(19) 0.0 0.0 .
1235(19) 0.0 0.0 .
1267(19) 0.0 0.0 .
1263(19) 0.0 0.0 .
1249(19) 0.0 0.0 .
1239(19) 0.0 0.0 .
1246(19) 0.0 0.0 .
1291(19) 0.0 0.0 .
1204(18) 0.0 0.0 .
1282(20) 0.0 0.0 .
1261(19) 0.0 0.0 .
1238(19) 0.0 0.0 .
1266(18) 0.0 0.0 .
1206(19) 0.0 0.0 .
1229(19) 0.0 0.0 .
1250(19) 0.0 0.0 .
1285(19) 0.0 0.0 .
1230(18) 0.0 0.0 .
1227(19) 0.0 0.0 .
1265(19) 0.0 0.0 .
1236(19) 0.0 0.0 .
1230(18) 0.0 0.0 .
1213(18) 0.0 0.0 .
1210(19) 0.0 0.0 .
1243(19) 0.0 0.0 .
1243(19) 0.0 0.0 .
1242(18) 0.0 0.0 .
1238(18) 0.0 0.0 .
1260(19) 0.0 0.0 .
1254(20) 0.0 0.0 .
1179(18) 0.0 0.0 .
1229(18) 0.0 0.0 .
1232(18) 0.0 0.0 .
1250(19) 0.0 0.0 .
1265(20) 0.0 0.0 .
1227(19) 0.0 0.0 .
1221(18) 0.0 0.0 .
1252(18) 0.0 0.0 .
1220(19) 0.0 0.0 .
1191(19) 0.0 0.0 .
1202(19) 0.0 0.0 .
1188(18) 0.0 0.0 .
1282(19) 0.0 0.0 .
1255(19) 0.0 0.0 .
1207(19) 0.0 0.0 .
1274(19) 0.0 0.0 .
1218(18) 0.0 0.0 .
1223(18) 0.0 0.0 .
1203(19) 0.0 0.0 .
1251(19) 0.0 0.0 .
1223(19) 0.0 0.0 .
1184(18) 0.0 0.0 .
1187(18) 0.0 0.0 .
1219(19) 0.0 0.0 .
1278(20) 0.0 0.0 .
1196(19) 0.0 0.0 .
1220(18) 0.0 0.0 .
1182(18) 0.0 0.0 .
1203(19) 0.0 0.0 .
1246(19) 0.0 0.0 .
1227(19) 0.0 0.0 .
1251(18) 0.0 0.0 .
1226(19) 0.0 0.0 .
1212(19) 0.0 0.0 .
1242(19) 0.0 0.0 .
1201(18) 0.0 0.0 .
1206(18) 0.0 0.0 .
1227(19) 0.0 0.0 .
1242(19) 0.0 0.0 .
1190(19) 0.0 0.0 .
1168(18) 0.0 0.0 .
1201(18) 0.0 0.0 .
1217(19) 0.0 0.0 .
1204(19) 0.0 0.0 .
1237(19) 0.0 0.0 .
1239(18) 0.0 0.0 .
1224(18) 0.0 0.0 .
1211(19) 0.0 0.0 .
1232(19) 0.0 0.0 .
1202(19) 0.0 0.0 .
1196(18) 0.0 0.0 .
1230(18) 0.0 0.0 .
1215(19) 0.0 0.0 .
1211(20) 0.0 0.0 .
1196(19) 0.0 0.0 .
1243(18) 0.0 0.0 .
1186(18) 0.0 0.0 .
1162(18) 0.0 0.0 .
1220(19) 0.0 0.0 .
1196(19) 0.0 0.0 .
1189(18) 0.0 0.0 .
1228(18) 0.0 0.0 .
1188(18) 0.0 0.0 .
1202(19) 0.0 0.0 .
1166(18) 0.0 0.0 .
1211(18) 0.0 0.0 .
1177(18) 0.0 0.0 .
1153(18) 0.0 0.0 .
1207(19) 0.0 0.0 .
1213(19) 0.0 0.0 .
1195(18) 0.0 0.0 .
1223(18) 0.0 0.0 .
1209(19) 0.0 0.0 .
1253(19) 0.0 0.0 .
1186(18) 0.0 0.0 .
1170(18) 0.0 0.0 .
1181(18) 0.0 0.0 .
1146(18) 0.0 0.0 .
1160(18) 0.0 0.0 .
1207(18) 0.0 0.0 .
1140(17) 0.0 0.0 .
1146(18) 0.0 0.0 .
1167(18) 0.0 0.0 .
1197(19) 0.0 0.0 .
1186(18) 0.0 0.0 .
1203(18) 0.0 0.0 .
1184(19) 0.0 0.0 .
1162(19) 0.0 0.0 .
1194(18) 0.0 0.0 .
1181(18) 0.0 0.0 .
1190(18) 0.0 0.0 .
1162(18) 0.0 0.0 .
1158(19) 0.0 0.0 .
1152(18) 0.0 0.0 .
1153(18) 0.0 0.0 .
1142(18) 0.0 0.0 .
1151(18) 0.0 0.0 .
1147(19) 0.0 0.0 .
1188(19) 0.0 0.0 .
1137(18) 0.0 0.0 .
1163(18) 0.0 0.0 .
1159(19) 0.0 0.0 .
1178(19) 0.0 0.0 .
1205(19) 0.0 0.0 .
1139(18) 0.0 0.0 .
1125(17) 0.0 0.0 .
1170(18) 0.0 0.0 .
1125(19) 0.0 0.0 .
1123(18) 0.0 0.0 .
1133(18) 0.0 0.0 .
1151(18) 0.0 0.0 .
1113(18) 0.0 0.0 .
1135(19) 0.0 0.0 .
1119(18) 0.0 0.0 .
1127(17) 0.0 0.0 .
1162(18) 0.0 0.0 .
1154(18) 0.0 0.0 .
1146(19) 0.0 0.0 .
1127(18) 0.0 0.0 .
1145(18) 0.0 0.0 .
1089(17) 0.0 0.0 .
1112(18) 0.0 0.0 .
1091(18) 0.0 0.0 .
1186(19) 0.0 0.0 .
1126(17) 0.0 0.0 .
1128(18) 0.0 0.0 .
1128(18) 0.0 0.0 .
1145(18) 0.0 0.0 .
1119(18) 0.0 0.0 .
1104(17) 0.0 0.0 .
1159(18) 0.0 0.0 .
1110(18) 0.0 0.0 .
1100(18) 0.0 0.0 .
1100(18) 0.0 0.0 .
1124(17) 0.0 0.0 .
1127(18) 0.0 0.0 .
1135(18) 0.0 0.0 .
1069(17) 0.0 0.0 .
1124(18) 0.0 0.0 .
1108(17) 0.0 0.0 .
1095(18) 0.0 0.0 .
1147(19) 0.0 0.0 .
1082(18) 0.0 0.0 .
1104(17) 0.0 0.0 .
1051(17) 0.0 0.0 .
1062(18) 0.0 0.0 .
1070(18) 0.0 0.0 .
1068(18) 0.0 0.0 .
1086(17) 0.0 0.0 .
1106(17) 0.0 0.0 .
1134(18) 0.0 0.0 .
1143(19) 0.0 0.0 .
1128(18) 0.0 0.0 .
1183(18) 0.0 0.0 .
1115(17) 0.0 0.0 .
1131(18) 0.0 0.0 .
1094(18) 0.0 0.0 .
1075(18) 0.0 0.0 .
1070(17) 0.0 0.0 .
1103(17) 0.0 0.0 .
1076(18) 0.0 0.0 .
1069(18) 0.0 0.0 .
1052(17) 0.0 0.0 .
1061(17) 0.0 0.0 .
1106(17) 0.0 0.0 .
1089(18) 0.0 0.0 .
1100(18) 0.0 0.0 .
1072(18) 0.0 0.0 .
1081(17) 0.0 0.0 .
1093(17) 0.0 0.0 .
1099(18) 0.0 0.0 .
1065(18) 0.0 0.0 .
1057(18) 0.0 0.0 .
1079(17) 0.0 0.0 .
1070(17) 0.0 0.0 .
1141(18) 0.0 0.0 .
1087(18) 0.0 0.0 .
1096(18) 0.0 0.0 .
1043(17) 0.0 0.0 .
1056(17) 0.0 0.0 .
1046(17) 0.0 0.0 .
1091(18) 0.0 0.0 .
1039(17) 0.0 0.0 .
1071(17) 0.0 0.0 .
1082(18) 0.0 0.0 .
1067(18) 0.0 0.0 .
1104(18) 0.0 0.0 .
1102(17) 0.0 0.0 .
1029(17) 0.0 0.0 .
1117(18) 0.0 0.0 .
1065(18) 0.0 0.0 .
1089(18) 0.0 0.0 .
1075(17) 0.0 0.0 .
1012(16) 0.0 0.0 .
1063(18) 0.0 0.0 .
1051(18) 0.0 0.0 .
1076(18) 0.0 0.0 .
1018(17) 0.0 0.0 .
1041(17) 0.0 0.0 .
1003(17) 0.0 0.0 .
1103(19) 0.0 0.0 .
1062(17) 0.0 0.0 .
1050(17) 0.0 0.0 .
1050(17) 0.0 0.0 .
1029(17) 0.0 0.0 .
1056(18) 0.0 0.0 .
1056(18) 0.0 0.0 .
1054(17) 0.0 0.0 .
1052(17) 0.0 0.0 .
1048(17) 0.0 0.0 .
1068(18) 0.0 0.0 .
1010(17) 0.0 0.0 .
1036(17) 0.0 0.0 .
1009(17) 0.0 0.0 .
1005(17) 0.0 0.0 .
1035(18) 0.0 0.0 .
1041(17) 0.0 0.0 .
1065(17) 0.0 0.0 .
1025(17) 0.0 0.0 .
1043(17) 0.0 0.0 .
1024(17) 0.0 0.0 .
1041(17) 0.0 0.0 .
1002(16) 0.0 0.0 .
1052(17) 0.0 0.0 .
1004(17) 0.0 0.0 .
1026(17) 0.0 0.0 .
1037(17) 0.0 0.0 .
1001(16) 0.0 0.0 .
1013(17) 0.0 0.0 .
1048(17) 0.0 0.0 .
964(16) 0.0 0.0 .
1007(17) 0.0 0.0 .
1041(17) 0.0 0.0 .
1008(17) 0.0 0.0 .
1058(18) 0.0 0.0 .
1032(17) 0.0 0.0 .
1023(17) 0.0 0.0 .
970(16) 0.0 0.0 .
1037(17) 0.0 0.0 .
1040(18) 0.0 0.0 .
1010(17) 0.0 0.0 .
1051(17) 0.0 0.0 .
1018(17) 0.0 0.0 .
1018(17) 0.0 0.0 .
1012(18) 0.0 0.0 .
948(17) 0.0 0.0 .
1039(17) 0.0 0.0 .
1007(17) 0.0 0.0 .
1073(18) 0.0 0.0 .
1026(17) 0.0 0.0 .
1020(17) 0.0 0.0 .
962(16) 0.0 0.0 .
971(16) 0.0 0.0 .
1011(17) 0.0 0.0 .
1054(18) 0.0 0.0 .
1014(17) 0.0 0.0 .
960(16) 0.0 0.0 .
1033(17) 0.0 0.0 .
980(17) 0.0 0.0 .
955(17) 0.0 0.0 .
1016(17) 0.0 0.0 .
989(16) 0.0 0.0 .
988(16) 0.0 0.0 .
995(17) 0.0 0.0 .
1004(17) 0.0 0.0 .
974(17) 0.0 0.0 .
1015(17) 0.0 0.0 .
1005(17) 0.0 0.0 .
955(17) 0.0 0.0 .
1013(17) 0.0 0.0 .
990(17) 0.0 0.0 .
1012(17) 0.0 0.0 .
980(16) 0.0 0.0 .
998(17) 0.0 0.0 .
1016(17) 0.0 0.0 .
949(16) 0.0 0.0 .
946(16) 0.0 0.0 .
925(16) 0.0 0.0 .
991(17) 0.0 0.0 .
976(17) 0.0 0.0 .
949(16) 0.0 0.0 .
969(16) 0.0 0.0 .
986(17) 0.0 0.0 .
979(17) 0.0 0.0 .
974(17) 0.0 0.0 .
976(17) 0.0 0.0 .
955(16) 0.0 0.0 .
981(17) 0.0 0.0 .
975(17) 0.0 0.0 .
987(17) 0.0 0.0 .
988(17) 0.0 0.0 .
977(16) 0.0 0.0 .
935(17) 0.0 0.0 .
967(17) 0.0 0.0 .
918(16) 0.0 0.0 .
975(16) 0.0 0.0 .
977(16) 0.0 0.0 .
1010(17) 0.0 0.0 .
934(17) 0.0 0.0 .
998(17) 0.0 0.0 .
981(16) 0.0 0.0 .
1025(17) 0.0 0.0 .
1029(17) 0.0 0.0 .
966(17) 0.0 0.0 .
959(17) 0.0 0.0 .
906(16) 0.0 0.0 .
962(16) 0.0 0.0 .
979(17) 0.0 0.0 .
995(17) 0.0 0.0 .
1004(17) 0.0 0.0 .
941(16) 0.0 0.0 .
977(16) 0.0 0.0 .
957(17) 0.0 0.0 .
957(17) 0.0 0.0 .
1014(17) 0.0 0.0 .
968(16) 0.0 0.0 .
915(16) 0.0 0.0 .
930(16) 0.0 0.0 .
943(17) 0.0 0.0 .
960(17) 0.0 0.0 .
1008(17) 0.0 0.0 .
946(16) 0.0 0.0 .
906(16) 0.0 0.0 .
975(17) 0.0 0.0 .
960(17) 0.0 0.0 .
956(16) 0.0 0.0 .
937(16) 0.0 0.0 .
953(17) 0.0 0.0 .
970(17) 0.0 0.0 .
1007(17) 0.0 0.0 .
927(16) 0.0 0.0 .
941(16) 0.0 0.0 .
966(17) 0.0 0.0 .
981(17) 0.0 0.0 .
970(17) 0.0 0.0 .
979(16) 0.0 0.0 .
924(16) 0.0 0.0 .
935(17) 0.0 0.0 .
957(17) 0.0 0.0 .
961(16) 0.0 0.0 .
939(16) 0.0 0.0 .
926(16) 0.0 0.0 .
961(17) 0.0 0.0 .
978(17) 0.0 0.0 .
953(16) 0.0 0.0 .
952(16) 0.0 0.0 .
996(17) 0.0 0.0 .
961(17) 0.0 0.0 .
940(16) 0.0 0.0 .
954(16) 0.0 0.0 .
922(16) 0.0 0.0 .
898(16) 0.0 0.0 .
949(17) 0.0 0.0 .
935(16) 0.0 0.0 .
897(16) 0.0 0.0 .
944(16) 0.0 0.0 .
925(16) 0.0 0.0 .
948(17) 0.0 0.0 .
914(16) 0.0 0.0 .
927(16) 0.0 0.0 .
945(16) 0.0 0.0 .
945(17) 0.0 0.0 .
918(17) 0.0 0.0 .
909(16) 0.0 0.0 .
911(16) 0.0 0.0 .
884(16) 0.0 0.0 .
895(16) 0.0 0.0 .
936(17) 0.0 0.0 .
957(17) 0.0 0.0 .
896(16) 0.0 0.0 .
929(16) 0.0 0.0 .
920(16) 0.0 0.0 .
913(16) 0.0 0.0 .
930(17) 0.0 0.0 .
898(16) 0.0 0.0 .
898(16) 0.0 0.0 .
926(16) 0.0 0.0 .
936(17) 0.0 0.0 .
942(16) 0.0 0.0 .
932(16) 0.0 0.0 .
892(16) 0.0 0.0 .
885(16) 0.0 0.0 .
950(17) 0.0 0.0 .
937(16) 0.0 0.0 .
911(16) 0.0 0.0 .
922(16) 0.0 0.0 .
964(17) 0.0 0.0 .
925(16) 0.0 0.0 .
923(16) 0.0 0.0 .
928(16) 0.0 0.0 .
938(17) 0.0 0.0 .
914(17) 0.0 0.0 .
912(16) 0.0 0.0 .
960(16) 0.0 0.0 .
919(16) 0.0 0.0 .
894(16) 0.0 0.0 .
885(16) 0.0 0.0 .
858(16) 0.0 0.0 .
886(16) 0.0 0.0 .
890(15) 0.0 0.0 .
892(16) 0.0 0.0 .
870(16) 0.0 0.0 .
885(16) 0.0 0.0 .
878(15) 0.0 0.0 .
898(16) 0.0 0.0 .
870(16) 0.0 0.0 .
871(16) 0.0 0.0 .
907(16) 0.0 0.0 .
891(16) 0.0 0.0 .
862(15) 0.0 0.0 .
898(16) 0.0 0.0 .
898(17) 0.0 0.0 .
890(16) 0.0 0.0 .
905(16) 0.0 0.0 .
900(16) 0.0 0.0 .
861(16) 0.0 0.0 .
875(16) 0.0 0.0 .
880(16) 0.0 0.0 .
918(16) 0.0 0.0 .
919(16) 0.0 0.0 .
908(16) 0.0 0.0 .
853(16) 0.0 0.0 .
881(16) 0.0 0.0 .
908(16) 0.0 0.0 .
853(16) 0.0 0.0 .
905(16) 0.0 0.0 .
874(16) 0.0 0.0 .
866(16) 0.0 0.0 .
899(16) 0.0 0.0 .
862(16) 0.0 0.0 .
840(16) 0.0 0.0 .
852(16) 0.0 0.0 .
886(16) 0.0 0.0 .
882(15) 0.0 0.0 .
871(16) 0.0 0.0 .
870(16) 0.0 0.0 .
886(16) 0.0 0.0 .
848(15) 0.0 0.0 .
877(15) 0.0 0.0 .
862(16) 0.0 0.0 .
871(16) 0.0 0.0 .
857(16) 0.0 0.0 .
904(16) 0.0 0.0 .
877(15) 0.0 0.0 .
862(16) 0.0 0.0 .
877(16) 0.0 0.0 .
875(16) 0.0 0.0 .
871(16) 0.0 0.0 .
866(15) 0.0 0.0 .
858(16) 0.0 0.0 .
862(16) 0.0 0.0 .
850(16) 0.0 0.0 .
871(15) 0.0 0.0 .
831(15) 0.0 0.0 .
849(16) 0.0 0.0 .
885(17) 0.0 0.0 .
849(16) 0.0 0.0 .
810(15) 0.0 0.0 .
811(15) 0.0 0.0 .
856(16) 0.0 0.0 .
779(15) 0.0 0.0 .
809(15) 0.0 0.0 .
875(15) 0.0 0.0 .
839(15) 0.0 0.0 .
848(16) 0.0 0.0 .
814(16) 0.0 0.0 .
860(16) 0.0 0.0 .
858(15) 0.0 0.0 .
894(16) 0.0 0.0 .
877(16) 0.0 0.0 .
846(16) 0.0 0.0 .
856(16) 0.0 0.0 .
861(15) 0.0 0.0 .
848(15) 0.0 0.0 .
851(16) 0.0 0.0 .
830(16) 0.0 0.0 .
796(15) 0.0 0.0 .
830(15) 0.0 0.0 .
816(15) 0.0 0.0 .
806(15) 0.0 0.0 .
837(16) 0.0 0.0 .
816(15) 0.0 0.0 .
835(15) 0.0 0.0 .
834(15) 0.0 0.0 .
812(15) 0.0 0.0 .
804(15) 0.0 0.0 .
782(15) 0.0 0.0 .
851(15) 0.0 0.0 .
834(15) 0.0 0.0 .
819(16) 0.0 0.0 .
763(15) 0.0 0.0 .
770(15) 0.0 0.0 .
791(15) 0.0 0.0 .
818(15) 0.0 0.0 .
815(16) 0.0 0.0 .
788(15) 0.0 0.0 .
778(15) 0.0 0.0 .
808(15) 0.0 0.0 .
814(15) 0.0 0.0 .
821(16) 0.0 0.0 .
823(15) 0.0 0.0 .
804(15) 0.0 0.0 .
839(15) 0.0 0.0 .
811(15) 0.0 0.0 .
789(16) 0.0 0.0 .
815(15) 0.0 0.0 .
798(15) 0.0 0.0 .
811(15) 0.0 0.0 .
792(15) 0.0 0.0 .
796(16) 0.0 0.0 .
878(16) 0.0 0.0 .
798(15) 0.0 0.0 .
808(15) 0.0 0.0 .
819(15) 0.0 0.0 .
811(16) 0.0 0.0 .
830(16) 0.0 0.0 .
768(14) 0.0 0.0 .
802(15) 0.0 0.0 .
806(15) 0.0 0.0 .
786(15) 0.0 0.0 .
790(15) 0.0 0.0 .
826(15) 0.0 0.0 .
820(15) 0.0 0.0 .
798(15) 0.0 0.0 .
827(16) 0.0 0.0 .
780(15) 0.0 0.0 .
793(15) 0.0 0.0 .
808(15) 0.0 0.0 .
841(16) 0.0 0.0 .
806(15) 0.0 0.0 .
796(15) 0.0 0.0 .
776(14) 0.0 0.0 .
765(15) 0.0 0.0 .
806(16) 0.0 0.0 .
755(15) 0.0 0.0 .
786(15) 0.0 0.0 .
784(15) 0.0 0.0 .
790(15) 0.0 0.0 .
776(15) 0.0 0.0 .
763(15) 0.0 0.0 .
793(15) 0.0 0.0 .
785(15) 0.0 0.0 .
774(15) 0.0 0.0 .
761(15) 0.0 0.0 .
750(15) 0.0 0.0 .
768(15) 0.0 0.0 .
801(15) 0.0 0.0 .
826(16) 0.0 0.0 .
774(15) 0.0 0.0 .
802(15) 0.0 0.0 .
847(15) 0.0 0.0 .
776(14) 0.0 0.0 .
777(15) 0.0 0.0 .
750(15) 0.0 0.0 .
757(15) 0.0 0.0 .
784(15) 0.0 0.0 .
782(15) 0.0 0.0 .
736(14) 0.0 0.0 .
734(15) 0.0 0.0 .
772(15) 0.0 0.0 .
828(15) 0.0 0.0 .
785(14) 0.0 0.0 .
778(15) 0.0 0.0 .
744(15) 0.0 0.0 .
749(15) 0.0 0.0 .
751(14) 0.0 0.0 .
749(14) 0.0 0.0 .
780(15) 0.0 0.0 .
779(15) 0.0 0.0 .
735(14) 0.0 0.0 .
747(14) 0.0 0.0 .
772(15) 0.0 0.0 .
775(15) 0.0 0.0 .
785(15) 0.0 0.0 .
726(15) 0.0 0.0 .
786(15) 0.0 0.0 .
750(15) 0.0 0.0 .
730(15) 0.0 0.0 .
751(15) 0.0 0.0 .
736(14) 0.0 0.0 .
770(14) 0.0 0.0 .
750(15) 0.0 0.0 .
737(15) 0.0 0.0 .
781(15) 0.0 0.0 .
746(15) 0.0 0.0 .
761(14) 0.0 0.0 .
760(15) 0.0 0.0 .
719(15) 0.0 0.0 .
776(15) 0.0 0.0 .
745(14) 0.0 0.0 .
754(14) 0.0 0.0 .
779(15) 0.0 0.0 .
785(15) 0.0 0.0 .
773(15) 0.0 0.0 .
675(14) 0.0 0.0 .
744(14) 0.0 0.0 .
773(15) 0.0 0.0 .
723(15) 0.0 0.0 .
722(14) 0.0 0.0 .
742(14) 0.0 0.0 .
773(15) 0.0 0.0 .
726(14) 0.0 0.0 .
775(16) 0.0 0.0 .
760(15) 0.0 0.0 .
782(15) 0.0 0.0 .
748(14) 0.0 0.0 .
730(14) 0.0 0.0 .
702(15) 0.0 0.0 .
720(14) 0.0 0.0 .
730(14) 0.0 0.0 .
755(14) 0.0 0.0 .
764(15) 0.0 0.0 .
707(15) 0.0 0.0 .
737(15) 0.0 0.0 .
730(14) 0.0 0.0 .
710(14) 0.0 0.0 .
738(15) 0.0 0.0 .
777(15) 0.0 0.0 .
751(15) 0.0 0.0 .
695(14) 0.0 0.0 .
716(14) 0.0 0.0 .
721(14) 0.0 0.0 .
747(15) 0.0 0.0 .
727(15) 0.0 0.0 .
782(14) 0.0 0.0 .
716(14) 0.0 0.0 .
713(14) 0.0 0.0 .
770(15) 0.0 0.0 .
758(15) 0.0 0.0 .
711(14) 0.0 0.0 .
744(14) 0.0 0.0 .
721(14) 0.0 0.0 .
716(14) 0.0 0.0 .
757(15) 0.0 0.0 .
751(14) 0.0 0.0 .
736(14) 0.0 0.0 .
733(15) 0.0 0.0 .
728(15) 0.0 0.0 .
718(14) 0.0 0.0 .
722(14) 0.0 0.0 .
722(14) 0.0 0.0 .
721(15) 0.0 0.0 .
702(14) 0.0 0.0 .
725(14) 0.0 0.0 .
729(14) 0.0 0.0 .
727(15) 0.0 0.0 .
732(15) 0.0 0.0 .
749(15) 0.0 0.0 .
748(14) 0.0 0.0 .
696(14) 0.0 0.0 .
733(15) 0.0 0.0 .
722(15) 0.0 0.0 .
734(15) 0.0 0.0 .
766(15) 0.0 0.0 .
690(14) 0.0 0.0 .
724(15) 0.0 0.0 .
760(15) 0.0 0.0 .
728(15) 0.0 0.0 .
703(14) 0.0 0.0 .
746(14) 0.0 0.0 .
719(14) 0.0 0.0 .
724(15) 0.0 0.0 .
693(14) 0.0 0.0 .
721(14) 0.0 0.0 .
726(14) 0.0 0.0 .
746(15) 0.0 0.0 .
713(15) 0.0 0.0 .
759(15) 0.0 0.0 .
753(14) 0.0 0.0 .
714(14) 0.0 0.0 .
708(15) 0.0 0.0 .
734(15) 0.0 0.0 .
759(15) 0.0 0.0 .
748(14) 0.0 0.0 .
682(14) 0.0 0.0 .
738(15) 0.0 0.0 .
728(15) 0.0 0.0 .
699(14) 0.0 0.0 .
688(14) 0.0 0.0 .
696(14) 0.0 0.0 .
727(15) 0.0 0.0 .
696(14) 0.0 0.0 .
727(14) 0.0 0.0 .
704(14) 0.0 0.0 .
740(15) 0.0 0.0 .
739(15) 0.0 0.0 .
770(15) 0.0 0.0 .
730(14) 0.0 0.0 .
727(14) 0.0 0.0 .
694(14) 0.0 0.0 .
684(14) 0.0 0.0 .
696(14) 0.0 0.0 .
758(15) 0.0 0.0 .
713(14) 0.0 0.0 .
740(15) 0.0 0.0 .
708(15) 0.0 0.0 .
659(14) 0.0 0.0 .
689(14) 0.0 0.0 .
736(14) 0.0 0.0 .
680(14) 0.0 0.0 .
730(15) 0.0 0.0 .
716(14) 0.0 0.0 .
695(14) 0.0 0.0 .
685(14) 0.0 0.0 .
714(14) 0.0 0.0 .
715(15) 0.0 0.0 .
672(14) 0.0 0.0 .
700(14) 0.0 0.0 .
724(14) 0.0 0.0 .
735(15) 0.0 0.0 .
710(15) 0.0 0.0 .
717(15) 0.0 0.0 .
698(14) 0.0 0.0 .
723(14) 0.0 0.0 .
708(14) 0.0 0.0 .
710(15) 0.0 0.0 .
664(14) 0.0 0.0 .
694(14) 0.0 0.0 .
676(14) 0.0 0.0 .
687(14) 0.0 0.0 .
705(15) 0.0 0.0 .
705(14) 0.0 0.0 .
721(14) 0.0 0.0 .
691(14) 0.0 0.0 .
689(14) 0.0 0.0 .
665(14) 0.0 0.0 .
674(14) 0.0 0.0 .
703(14) 0.0 0.0 .
720(14) 0.0 0.0 .
703(14) 0.0 0.0 .
702(14) 0.0 0.0 .
665(14) 0.0 0.0 .
731(14) 0.0 0.0 .
693(14) 0.0 0.0 .
721(15) 0.0 0.0 .
714(15) 0.0 0.0 .
661(14) 0.0 0.0 .
725(14) 0.0 0.0 .
673(14) 0.0 0.0 .
654(14) 0.0 0.0 .
676(14) 0.0 0.0 .
725(14) 0.0 0.0 .
730(14) 0.0 0.0 .
720(14) 0.0 0.0 .
723(15) 0.0 0.0 .
675(14) 0.0 0.0 .
667(14) 0.0 0.0 .
680(14) 0.0 0.0 .
709(14) 0.0 0.0 .
712(15) 0.0 0.0 .
656(14) 0.0 0.0 .
671(14) 0.0 0.0 .
648(13) 0.0 0.0 .
622(14) 0.0 0.0 .
658(14) 0.0 0.0 .
678(14) 0.0 0.0 .
718(14) 0.0 0.0 .
707(14) 0.0 0.0 .
654(14) 0.0 0.0 .
678(14) 0.0 0.0 .
683(14) 0.0 0.0 .
668(13) 0.0 0.0 .
684(14) 0.0 0.0 .
694(14) 0.0 0.0 .
683(14) 0.0 0.0 .
669(14) 0.0 0.0 .
705(14) 0.0 0.0 .
702(14) 0.0 0.0 .
668(14) 0.0 0.0 .
684(14) 0.0 0.0 .
707(14) 0.0 0.0 .
687(14) 0.0 0.0 .
699(14) 0.0 0.0 .
709(14) 0.0 0.0 .
684(14) 0.0 0.0 .
690(14) 0.0 0.0 .
671(13) 0.0 0.0 .
692(14) 0.0 0.0 .
645(14) 0.0 0.0 .
683(14) 0.0 0.0 .
650(14) 0.0 0.0 .
664(13) 0.0 0.0 .
696(14) 0.0 0.0 .
690(14) 0.0 0.0 .
687(14) 0.0 0.0 .
674(14) 0.0 0.0 .
675(13) 0.0 0.0 .
676(14) 0.0 0.0 .
708(14) 0.0 0.0 .
674(14) 0.0 0.0 .
657(14) 0.0 0.0 .
685(14) 0.0 0.0 .
683(14) 0.0 0.0 .
691(14) 0.0 0.0 .
699(14) 0.0 0.0 .
659(13) 0.0 0.0 .
709(14) 0.0 0.0 .
660(14) 0.0 0.0 .
648(14) 0.0 0.0 .
665(14) 0.0 0.0 .
678(14) 0.0 0.0 .
676(13) 0.0 0.0 .
692(14) 0.0 0.0 .
689(14) 0.0 0.0 .
719(14) 0.0 0.0 .
643(13) 0.0 0.0 .
657(13) 0.0 0.0 .
680(14) 0.0 0.0 .
693(15) 0.0 0.0 .
658(14) 0.0 0.0 .
668(13) 0.0 0.0 .
686(14) 0.0 0.0 .
699(14) 0.0 0.0 .
657(14) 0.0 0.0 .
676(14) 0.0 0.0 .
673(13) 0.0 0.0 .
695(14) 0.0 0.0 .
652(14) 0.0 0.0 .
677(14) 0.0 0.0 .
697(14) 0.0 0.0 .
675(13) 0.0 0.0 .
702(14) 0.0 0.0 .
670(14) 0.0 0.0 .
684(14) 0.0 0.0 .
670(14) 0.0 0.0 .
669(13) 0.0 0.0 .
699(14) 0.0 0.0 .
664(14) 0.0 0.0 .
657(14) 0.0 0.0 .
668(14) 0.0 0.0 .
688(14) 0.0 0.0 .
666(14) 0.0 0.0 .
654(14) 0.0 0.0 .
666(14) 0.0 0.0 .
662(14) 0.0 0.0 .
619(13) 0.0 0.0 .
679(14) 0.0 0.0 .
696(14) 0.0 0.0 .
709(14) 0.0 0.0 .
708(14) 0.0 0.0 .
661(13) 0.0 0.0 .
682(14) 0.0 0.0 .
687(14) 0.0 0.0 .
712(14) 0.0 0.0 .
684(14) 0.0 0.0 .
673(13) 0.0 0.0 .
716(14) 0.0 0.0 .
653(14) 0.0 0.0 .
682(14) 0.0 0.0 .
635(13) 0.0 0.0 .
626(13) 0.0 0.0 .
678(14) 0.0 0.0 .
660(14) 0.0 0.0 .
693(14) 0.0 0.0 .
681(14) 0.0 0.0 .
675(14) 0.0 0.0 .
711(14) 0.0 0.0 .
719(15) 0.0 0.0 .
705(14) 0.0 0.0 .
675(13) 0.0 0.0 .
656(13) 0.0 0.0 .
652(14) 0.0 0.0 .
637(14) 0.0 0.0 .
660(14) 0.0 0.0 .
693(14) 0.0 0.0 .
675(13) 0.0 0.0 .
679(14) 0.0 0.0 .
649(14) 0.0 0.0 .
661(14) 0.0 0.0 .
703(14) 0.0 0.0 .
679(14) 0.0 0.0 .
682(14) 0.0 0.0 .
674(14) 0.0 0.0 .
676(14) 0.0 0.0 .
670(13) 0.0 0.0 .
681(14) 0.0 0.0 .
670(14) 0.0 0.0 .
687(14) 0.0 0.0 .
713(14) 0.0 0.0 .
669(13) 0.0 0.0 .
685(14) 0.0 0.0 .
641(14) 0.0 0.0 .
645(14) 0.0 0.0 .
671(14) 0.0 0.0 .
679(13) 0.0 0.0 .
688(14) 0.0 0.0 .
691(14) 0.0 0.0 .
664(14) 0.0 0.0 .
674(14) 0.0 0.0 .
664(13) 0.0 0.0 .
679(14) 0.0 0.0 .
673(14) 0.0 0.0 .
724(15) 0.0 0.0 .
693(14) 0.0 0.0 .
698(14) 0.0 0.0 .
682(14) 0.0 0.0 .
658(14) 0.0 0.0 .
687(14) 0.0 0.0 .
705(14) 0.0 0.0 .
720(14) 0.0 0.0 .
697(14) 0.0 0.0 .
682(15) 0.0 0.0 .
705(14) 0.0 0.0 .
680(14) 0.0 0.0 .
717(14) 0.0 0.0 .
681(14) 0.0 0.0 .
671(14) 0.0 0.0 .
708(14) 0.0 0.0 .
730(14) 0.0 0.0 .
709(14) 0.0 0.0 .
727(15) 0.0 0.0 .
704(15) 0.0 0.0 .
709(14) 0.0 0.0 .
743(14) 0.0 0.0 .
709(14) 0.0 0.0 .
743(15) 0.0 0.0 .
740(15) 0.0 0.0 .
719(14) 0.0 0.0 .
706(14) 0.0 0.0 .
734(14) 0.0 0.0 .
748(15) 0.0 0.0 .
702(14) 0.0 0.0 .
731(14) 0.0 0.0 .
705(14) 0.0 0.0 .
736(14) 0.0 0.0 .
736(15) 0.0 0.0 .
731(15) 0.0 0.0 .
727(15) 0.0 0.0 .
719(14) 0.0 0.0 .
756(14) 0.0 0.0 .
743(15) 0.0 0.0 .
704(14) 0.0 0.0 .
749(15) 0.0 0.0 .
805(15) 0.0 0.0 .
767(15) 0.0 0.0 .
782(15) 0.0 0.0 .
784(15) 0.0 0.0 .
768(15) 0.0 0.0 .
816(15) 0.0 0.0 .
818(15) 0.0 0.0 .
842(16) 0.0 0.0 .
815(15) 0.0 0.0 .
799(15) 0.0 0.0 .
835(15) 0.0 0.0 .
845(16) 0.0 0.0 .
850(16) 0.0 0.0 .
859(16) 0.0 0.0 .
847(15) 0.0 0.0 .
866(15) 0.0 0.0 .
910(16) 0.0 0.0 .
904(16) 0.0 0.0 .
904(16) 0.0 0.0 .
951(16) 0.0 0.0 .
941(16) 0.0 0.0 .
971(17) 0.0 0.0 .
976(17) 0.0 0.0 .
962(17) 0.0 0.0 .
938(16) 0.0 0.0 .
1011(16) 0.0 0.0 .
1060(18) 0.0 0.0 .
1066(18) 0.0 0.0 .
1141(18) 0.0 0.0 .
1165(18) 0.0 0.0 .
1191(18) 0.0 0.0 .
1202(19) 0.0 0.0 .
1288(20) 0.0 0.0 .
1359(20) 0.0 0.0 .
1453(20) 0.0 0.0 .
1527(20) 0.0 0.0 .
1663(22) 0.0 0.0 .
1764(23) 0.0 0.0 .
1904(24) 0.0 0.0 .
2202(24) 0.0 0.0 .
2548(27) 0.0 0.0 .
3011(30) 0.0 0.0 .
3715(34) 0.0 0.0 .
4578(37) 0.0 0. .
5620(39) 0.0 0. .
7032(44) 0.0 0. .
8713(50) 0.0 0. .
10541(56) 0.0 0. .
12952(62) 0.0 0. .
15241(65) 0.0 0. .
17707(71) 0.0 0. .
20302(78) 0.0 0. .
22697(83) 0.0 0. .
25143(86) 0.0 0. .
27631(88) 0.0 0. .
30777(96) 0.0 0. .
33980(100) 0.0 0. .
38290(110) 0.0 0. .
43750(120) 0.0 0. .
50580(120) 0.0 0. .
59350(140) 0.0 0. .
69390(150) 0.0 0. .
80240(160) 0.0 0. .
88670(170) 0.0 0. .
89260(170) 0.0 0. .
77930(160) 0.0 0. .
61410(140) 0.0 0. .
45640(120) 0.0 0. .
33371(98) 0.0 0. .
24209(83) 0.0 0. .
18018(74) 0.0 0. .
13973(66) 0.0 0. .
10998(56) 0.0 0. .
9100(50) 0.0 0. .
7447(45) 0.0 0. .
6261(43) 0.0 0. .
5444(41) 0.0 0. .
4683(37) 0.0 0. .
4167(34) 0.0 0.0 .
3782(32) 0.0 0.0 .
3349(31) 0.0 0.0 .
3015(30) 0.0 0.0 .
2721(28) 0.0 0.0 .
2459(26) 0.0 0.0 .
2233(25) 0.0 0.0 .
2143(25) 0.0 0.0 .
2021(25) 0.0 0.0 .
1909(23) 0.0 0.0 .
1740(22) 0.0 0.0 .
1621(21) 0.0 0.0 .
1537(21) 0.0 0.0 .
1481(21) 0.0 0.0 .
1460(21) 0.0 0.0 .
1389(19) 0.0 0.0 .
1303(19) 0.0 0.0 .
1267(19) 0.0 0.0 .
1272(19) 0.0 0.0 .
1232(19) 0.0 0.0 .
1135(18) 0.0 0.0 .
1098(18) 0.0 0.0 .
1070(18) 0.0 0.0 .
1036(17) 0.0 0.0 .
1059(17) 0.0 0.0 .
996(16) 0.0 0.0 .
996(17) 0.0 0.0 .
986(17) 0.0 0.0 .
916(16) 0.0 0.0 .
984(17) 0.0 0.0 .
929(16) 0.0 0.0 .
916(16) 0.0 0.0 .
869(16) 0.0 0.0 .
885(16) 0.0 0.0 .
859(15) 0.0 0.0 .
836(15) 0.0 0.0 .
857(16) 0.0 0.0 .
818(16) 0.0 0.0 .
831(15) 0.0 0.0 .
815(15) 0.0 0.0 .
829(15) 0.0 0.0 .
792(15) 0.0 0.0 .
783(16) 0.0 0.0 .
767(15) 0.0 0.0 .
784(15) 0.0 0.0 .
760(14) 0.0 0.0 .
747(15) 0.0 0.0 .
743(15) 0.0 0.0 .
734(15) 0.0 0.0 .
720(14) 0.0 0.0 .
747(14) 0.0 0.0 .
712(14) 0.0 0.0 .
706(15) 0.0 0.0 .
697(14) 0.0 0.0 .
764(14) 0.0 0.0 .
714(14) 0.0 0.0 .
751(15) 0.0 0.0 .
699(15) 0.0 0.0 .
720(14) 0.0 0.0 .
688(14) 0.0 0.0 .
698(14) 0.0 0.0 .
722(14) 0.0 0.0 .
714(15) 0.0 0.0 .
721(15) 0.0 0.0 .
701(14) 0.0 0.0 .
720(14) 0.0 0.0 .
696(14) 0.0 0.0 .
723(15) 0.0 0.0 .
700(14) 0.0 0.0 .
699(14) 0.0 0.0 .
658(13) 0.0 0.0 .
703(15) 0.0 0.0 .
722(15) 0.0 0.0 .
691(14) 0.0 0.0 .
666(13) 0.0 0.0 .
656(14) 0.0 0.0 .
665(14) 0.0 0.0 .
677(14) 0.0 0.0 .
642(13) 0.0 0.0 .
690(14) 0.0 0.0 .
660(14) 0.0 0.0 .
651(14) 0.0 0.0 .
660(14) 0.0 0.0 .
636(13) 0.0 0.0 .
681(14) 0.0 0.0 .
690(14) 0.0 0.0 .
672(14) 0.0 0.0 .
656(14) 0.0 0.0 .
664(14) 0.0 0.0 .
659(13) 0.0 0.0 .
667(14) 0.0 0.0 .
663(14) 0.0 0.0 .
651(14) 0.0 0.0 .
645(13) 0.0 0.0 .
603(13) 0.0 0.0 .
647(14) 0.0 0.0 .
626(14) 0.0 0.0 .
619(13) 0.0 0.0 .
604(13) 0.0 0.0 .
667(14) 0.0 0.0 .
647(14) 0.0 0.0 .
675(15) 0.0 0.0 .
626(13) 0.0 0.0 .
673(13) 0.0 0.0 .
647(13) 0.00539 635.8 61.8
622(13) 0.00530 635.6 60.8
637(14) 0.00482 635.2 59.8
611(13) 0.00547 634.7 58.8
641(13) 0.00549 634.2 57.8
625(13) 0.00561 633.8 56.9
647(14) 0.00513 633.3 56.0
628(14) 0.00519 632.8 0.0
668(14) 0.00482 632.4 0.0
652(13) 0.00544 631.9 0.0
646(13) 0.00532 631.5 0.0
622(13) 0.00526 631.0 0.0
621(14) 0.00521 630.5 0.0
695(14) 0.00461 630.1 0.0
650(13) 0.00544 629.6 0.0
637(13) 0.00532 629.1 0.0
660(14) 0.00480 628.7 0.0
642(14) 0.00494 628.2 0.0
627(13) 0.00525 627.8 0.0
637(13) 0.00558 627.3 0.0
634(13) 0.00523 626.8 0.0
607(13) 0.00554 626.4 0.0
642(14) 0.00510 625.9 0.0
642(13) 0.00526 625.4 0.0
619(13) 0.00568 625.0 0.0
622(13) 0.00532 624.5 0.0
596(13) 0.00530 624.1 0.0
600(13) 0.00556 623.6 0.0
597(13) 0.00573 623.1 0.0
614(13) 0.00569 622.7 0.0
627(14) 0.00520 622.2 0.0
646(14) 0.00490 621.7 0.0
614(13) 0.00542 621.3 0.0
632(13) 0.00551 620.8 0.0
609(13) 0.00577 620.4 0.0
608(13) 0.00532 619.9 0.0
607(14) 0.00514 619.4 0.0
605(13) 0.00549 619.0 0.0
598(13) 0.00582 618.5 0.0
639(13) 0.00554 618.0 0.0
619(13) 0.00535 617.6 0.0
618(14) 0.00489 617.1 0.0
560(13) 0.00592 616.7 0.0
597(13) 0.00580 616.2 0.0
628(13) 0.00562 615.7 0.0
596(13) 0.00565 615.3 0.0
609(14) 0.00488 614.8 0.0
582(13) 0.00568 614.3 0.0
601(13) 0.00583 613.9 0.0
611(13) 0.00576 613.4 0.0
604(13) 0.00545 613.0 0.0
584(13) 0.00526 612.5 0.0
586(13) 0.00561 612.0 0.0
615(13) 0.00575 611.6 0.0
626(13) 0.00552 611.1 0.0
604(13) 0.00547 610.6 0.0
610(14) 0.00519 610.2 0.0
599(13) 0.00558 609.7 0.0
607(13) 0.00583 609.3 0.0
641(13) 0.00535 608.8 0.0
616(13) 0.00537 608.3 0.0
603(13) 0.00538 607.9 0.0
634(14) 0.00511 607.4 0.0
603(13) 0.00583 606.9 0.0
577(13) 0.00592 606.5 0.0
581(13) 0.00566 606.0 0.0
595(13) 0.00542 605.6 0.0
623(13) 0.00530 605.1 0.0
609(13) 0.00574 604.6 0.0
574(13) 0.00591 604.2 0.0
608(13) 0.00536 603.7 0.0
579(13) 0.00571 603.2 0.0
574(13) 0.00580 602.8 0.0
614(13) 0.00578 602.3 0.0
619(13) 0.00525 601.9 0.0
582(13) 0.00555 601.4 0.0
578(13) 0.00568 600.9 0.0
594(13) 0.00577 600.5 0.0
593(13) 0.00591 600.0 0.0
577(13) 0.00565 599.5 0.0
590(13) 0.00541 599.1 0.0
602(13) 0.00538 598.6 0.0
611(13) 0.00566 598.2 0.0
616(13) 0.00573 597.7 0.0
625(14) 0.00519 597.2 0.0
577(13) 0.00543 596.8 0.0
590(13) 0.00558 596.3 0.0
609(13) 0.00572 595.8 0.8
558(12) 0.00627 595.4 0.8
599(13) 0.00554 594.9 0.8
607(14) 0.00507 594.4 0.9
575(13) 0.00572 594.0 0.9
582(13) 0.00595 593.5 0.9
589(13) 0.00605 593.1 0.9
612(13) 0.00538 592.6 0.9
597(14) 0.00508 592.1 0.9
583(13) 0.00569 591.7 0.9
590(13) 0.00598 591.2 1.0
570(13) 0.00601 590.7 1.0
610(14) 0.00521 590.3 1.0
561(13) 0.00556 589.8 1.0
558(13) 0.00589 589.4 1.0
563(12) 0.00627 588.9 1.0
588(13) 0.00590 588.4 1.1
591(13) 0.00561 588.0 1.1
587(13) 0.00545 587.5 1.1
590(13) 0.00562 587.0 1.1
570(12) 0.00618 586.6 1.1
588(13) 0.00578 586.1 1.2
584(13) 0.00556 585.7 1.2
606(13) 0.00523 585.2 1.2
588(13) 0.00560 584.7 1.2
590(13) 0.00596 584.3 1.3
569(12) 0.00607 583.8 1.3
595(13) 0.00560 583.3 1.3
571(13) 0.00570 582.9 1.3
583(13) 0.00566 582.4 1.4
609(13) 0.00580 582.0 1.4
599(13) 0.00573 581.5 1.4
587(13) 0.00557 581.0 1.5
610(13) 0.00524 580.6 1.5
595(13) 0.00571 580.1 1.5
591(13) 0.00594 579.6 1.6
603(13) 0.00548 579.5 1.6
564(13) 0.00570 579.3 1.6
604(13) 0.00544 579.2 1.7
586(13) 0.00591 579.1 1.7
575(12) 0.00607 578.9 1.7
604(13) 0.00556 578.8 1.8
601(13) 0.00527 578.7 1.8
567(13) 0.00573 578.5 1.9
537(12) 0.00633 578.4 1.9
560(12) 0.00623 578.3 2.0
576(13) 0.00572 578.1 2.0
581(13) 0.00543 578.0 2.1
575(13) 0.00573 577.9 2.1
579(13) 0.00584 577.7 2.2
571(12) 0.00617 577.6 2.2
586(13) 0.00566 577.5 2.3
592(14) 0.00521 577.3 2.3
599(13) 0.00547 577.2 2.4
568(12) 0.00611 577.0 2.5
573(12) 0.00606 576.9 2.5
574(13) 0.00551 576.8 2.6
578(13) 0.00526 576.6 2.7
568(13) 0.00569 576.5 2.8
569(12) 0.00612 576.4 2.8
543(12) 0.00636 576.2 2.9
580(13) 0.00569 576.1 3.0
556(13) 0.00554 576.0 3.1
578(13) 0.00547 575.8 3.2
560(12) 0.00626 575.7 3.3
640(13) 0.00543 575.6 3.4
585(13) 0.00567 575.4 3.5
571(13) 0.00543 575.3 3.7
604(13) 0.00529 575.2 3.8
602(13) 0.00588 575.0 3.9
597(13) 0.00573 574.9 4.0
588(13) 0.00552 574.8 4.2
593(13) 0.00533 574.6 4.3
572(13) 0.00575 574.5 4.5
561(12) 0.00625 574.4 4.7
597(13) 0.00568 574.2 4.9
564(13) 0.00579 574.1 5.0
561(13) 0.00563 574.0 5.3
567(13) 0.00575 573.8 5.5
553(12) 0.00633 573.7 5.7
577(13) 0.00579 573.6 5.9
560(13) 0.00581 573.4 6.2
567(13) 0.00569 573.3 6.5
569(13) 0.00590 573.2 6.8
597(13) 0.00588 573.0 7.1
557(13) 0.00604 572.9 7.4
557(13) 0.00571 572.8 7.8
592(13) 0.00540 572.6 8.2
557(13) 0.00599 572.5 8.6
548(12) 0.00639 572.4 9.1
581(13) 0.00578 572.2 9.6
557(13) 0.00577 572.1 10.1
579(13) 0.00555 572.0 10.7
553(12) 0.00622 571.8 11.3
595(13) 0.00593 571.7 12.0
574(13) 0.00573 571.6 12.7
577(13) 0.00555 571.4 13.5
560(13) 0.00574 571.3 14.4
547(12) 0.00623 571.2 15.4
561(12) 0.00628 571.0 16.5
573(13) 0.00580 570.9 17.8
584(13) 0.00533 570.8 19.1
616(14) 0.00515 570.6 20.6
559(12) 0.00612 570.5 22.3
607(13) 0.00577 570.4 24.2
617(13) 0.00527 570.2 26.4
585(13) 0.00535 570.1 28.9
645(14) 0.00509 570.0 31.7
647(13) 0.00551 569.8 35.0
603(13) 0.00585 569.7 38.8
637(13) 0.00524 569.6 43.3
665(14) 0.00468 569.4 48.8
678(14) 0.00489 569.3 55.6
716(14) 0.00493 569.1 64.3
740(14) 0.00476 569.0 75.9
760(15) 0.00443 568.9 91.8
845(16) 0.00376 568.7 113.8
846(16) 0.00395 568.6 144.4
895(15) 0.00401 568.5 186.5
920(16) 0.00384 568.3 243.1
932(16) 0.00360 568.2 316.3
973(17) 0.003316 568.1 407.4
1021(17) 0.003348 567.9 514.8
1118(17) 0.003219 567.8 633.8
1199(18) 0.002972 567.7 754.3
1184(18) 0.002848 567.5 859.3
1260(19) 0.002616 567.4 926.8
1342(20) 0.002489 567.3 937.9
1301(19) 0.002796 567.1 889.1
1307(19) 0.002632 567.0 794.9
1197(19) 0.002775 566.9 677.7
1042(17) 0.003175 566.7 556.7
898(16) 0.00371 566.6 444.3
798(15) 0.00447 566.5 347.1
710(14) 0.00471 566.3 267.4
688(14) 0.00464 566.2 205.1
683(14) 0.00472 566.1 158.1
619(13) 0.00554 565.9 123.6
630(13) 0.00562 565.8 98.9
619(13) 0.00536 565.7 81.0
617(14) 0.00520 565.5 68.1
633(14) 0.00520 565.4 58.5
610(13) 0.00559 565.3 51.1
600(13) 0.00584 565.1 45.2
643(14) 0.00501 565.0 40.3
615(14) 0.00512 564.9 36.3
604(13) 0.00545 564.7 32.8
606(13) 0.00564 564.6 29.9
568(12) 0.00615 564.5 27.3
561(13) 0.00570 564.3 25.0
610(14) 0.00507 564.2 23.0
579(13) 0.00562 564.1 21.2
565(12) 0.00607 563.9 19.6
541(12) 0.00648 563.8 18.2
567(13) 0.00584 563.7 17.0
569(13) 0.00539 563.5 15.8
536(12) 0.00619 563.4 14.8
535(12) 0.00647 563.3 13.9
556(12) 0.00631 563.1 13.0
539(13) 0.00604 563.0 12.2
571(13) 0.00539 562.9 11.5
589(13) 0.00555 562.7 10.9
564(12) 0.00624 562.6 10.3
596(13) 0.00583 562.5 9.7
520(12) 0.00644 562.3 9.2
544(13) 0.00555 562.2 8.8
577(13) 0.00550 562.1 8.3
569(12) 0.00621 561.9 7.9
539(12) 0.00640 561.8 7.6
549(12) 0.00606 561.7 7.2
567(13) 0.00544 561.5 6.9
574(13) 0.00570 561.4 6.6
600(13) 0.00580 561.3 6.3
541(12) 0.00640 561.1 6.0
551(13) 0.00587 561.0 5.8
558(13) 0.00563 560.8 5.5
564(13) 0.00575 560.7 5.3
548(12) 0.00633 560.6 5.1
563(12) 0.00615 560.4 4.9
539(12) 0.00619 560.3 4.7
584(13) 0.00554 560.2 4.6
584(13) 0.00580 560.0 4.4
568(12) 0.00620 559.9 4.2
567(13) 0.00583 559.8 4.1
535(13) 0.00590 559.6 4.0
551(13) 0.00576 559.5 3.8
535(13) 0.00599 559.4 3.7
570(12) 0.00613 559.2 3.6
561(13) 0.00595 559.1 3.5
565(13) 0.00562 559.0 3.3
548(12) 0.00609 558.8 3.2
565(13) 0.00597 558.7 3.1
551(12) 0.00638 558.6 3.1
556(13) 0.00585 558.4 3.0
601(13) 0.00532 558.3 2.9
567(13) 0.00580 558.2 2.8
556(12) 0.00615 558.0 2.7
585(13) 0.00602 557.9 2.6
571(13) 0.00578 557.8 2.6
566(13) 0.00571 557.6 2.5
571(13) 0.00585 557.5 2.4
573(13) 0.00600 557.4 2.4
554(12) 0.00634 557.2 2.3
563(13) 0.00589 557.1 2.2
562(13) 0.00565 557.0 2.2
535(12) 0.00633 556.8 2.1
550(12) 0.00637 556.7 2.1
541(12) 0.00648 556.6 2.0
553(13) 0.00600 556.4 2.0
540(13) 0.00562 556.3 1.9
550(13) 0.00585 556.2 1.9
541(12) 0.00642 556.0 1.8
573(12) 0.00609 555.9 1.8
531(12) 0.00609 555.8 1.8
535(13) 0.00567 555.7 1.7
556(13) 0.00573 555.6 1.7
542(12) 0.00650 555.4 1.6
555(12) 0.00622 555.3 1.6
539(13) 0.00601 555.2 1.6
546(13) 0.00577 555.1 1.5
554(13) 0.00585 555.0 1.5
543(12) 0.00647 554.9 1.5
545(12) 0.00628 554.8 1.4
564(13) 0.00579 554.7 1.4
565(13) 0.00554 554.6 1.4
537(12) 0.00610 554.5 1.4
550(12) 0.00638 554.4 1.3
538(12) 0.00630 554.3 1.3
577(13) 0.00571 554.2 1.3
542(13) 0.00601 554.1 1.2
565(13) 0.00577 554.0 1.2
575(12) 0.00606 553.9 1.2
555(12) 0.00614 553.8 1.2
561(13) 0.00574 553.7 1.2
564(13) 0.00572 553.6 1.1
556(13) 0.00599 553.5 1.1
534(12) 0.00649 553.4 1.1
536(12) 0.00607 553.3 1.1
538(13) 0.00598 553.2 1.1
557(13) 0.00584 553.1 1.0
577(13) 0.00583 553.0 1.0
549(12) 0.00636 552.9 1.0
561(13) 0.00580 552.8 1.0
555(13) 0.00554 552.7 1.0
507(12) 0.00645 552.6 0.9
572(13) 0.00580 552.5 0.9
538(12) 0.00653 552.4 0.9
544(13) 0.00598 552.3 0.9
541(13) 0.00568 552.2 0.9
551(13) 0.00586 552.1 0.9
523(12) 0.00656 552.0 0.9
568(12) 0.00618 551.9 0.8
520(12) 0.00607 551.8 0.0
548(13) 0.00550 551.6 0.0
538(12) 0.00617 551.5 0.0
539(12) 0.00648 551.4 0.0
576(13) 0.00601 551.3 0.0
563(13) 0.00591 551.2 0.0
517(13) 0.00599 551.1 0.0
520(12) 0.00630 551.0 0.0
517(12) 0.00667 550.9 0.0
542(12) 0.00645 550.8 0.0
566(13) 0.00574 550.7 0.0
555(13) 0.00552 550.6 0.0
552(13) 0.00575 550.5 0.0
562(12) 0.00623 550.4 0.0
567(13) 0.00603 550.3 0.0
557(13) 0.00585 550.2 0.0
538(13) 0.00596 550.1 0.0
533(12) 0.00618 550.0 0.0
544(12) 0.00642 549.9 0.0
556(12) 0.00619 549.8 0.0
512(12) 0.00656 549.7 0.0
553(13) 0.00563 549.6 0.0
530(12) 0.00637 549.5 0.0
529(12) 0.00658 549.4 0.0
540(12) 0.00629 549.3 0.0
562(13) 0.00587 549.2 0.0
592(13) 0.00533 549.1 0.0
554(13) 0.00595 549.0 0.0
541(12) 0.00645 548.9 0.0
568(13) 0.00591 548.8 0.0
586(13) 0.00567 548.7 0.0
556(13) 0.00583 548.6 0.0
533(12) 0.00626 548.5 0.0
534(12) 0.00655 548.4 0.0
549(12) 0.00612 548.3 0.0
554(13) 0.00588 548.2 0.0
534(12) 0.00619 548.1 0.0
577(13) 0.00558 548.0 0.0
556(12) 0.00625 547.9 0.0
530(12) 0.00610 547.7 0.0
540(13) 0.00586 547.6 0.0
561(13) 0.00581 547.5 0.0
532(12) 0.00636 547.4 0.0
562(12) 0.00624 547.3 0.0
550(13) 0.00602 547.2 0.0
542(13) 0.00588 547.1 0.0
549(13) 0.00579 547.0 0.0
533(12) 0.00651 546.9 0.0
536(12) 0.00649 546.8 0.0
550(12) 0.00607 546.7 0.0
556(13) 0.00569 546.6 0.0
568(13) 0.00560 546.5 0.0
584(13) 0.00596 546.4 0.0
541(12) 0.00642 546.3 0.0
516(12) 0.00632 546.2 0.0
558(13) 0.00541 546.1 0.0
556(13) 0.00593 546.0 0.0
523(12) 0.00663 545.9 0.0
534(12) 0.00659 545.8 0.0
530(12) 0.00626 545.7 0.0
530(13) 0.00564 545.6 0.0
540(13) 0.00602 545.5 0.0
538(12) 0.00652 545.4 0.0
522(12) 0.00665 545.3 0.0
537(12) 0.00611 545.2 0.0
545(13) 0.00575 545.1 0.0
548(12) 0.00607 545.0 0.0
543(12) 0.00644 544.9 0.0
509(12) 0.00677 544.8 0.0
523(12) 0.00629 544.7 0.0
530(13) 0.00592 544.6 0.0
535(12) 0.00614 544.5 0.0
520(12) 0.00675 544.4 0.0
534(12) 0.00616 544.3 0.0
549(13) 0.00578 544.2 0.0
534(13) 0.00592 544.1 0.0
497(12) 0.00644 543.9 0.0
522(12) 0.00664 543.8 0.0
543(12) 0.00618 543.7 0.0
550(13) 0.00578 543.6 0.0
544(13) 0.00585 543.5 0.0
532(12) 0.00611 543.4 0.0
525(12) 0.00667 543.4 0.0
530(12) 0.00627 543.4 0.0
539(13) 0.00601 543.4 0.0
519(12) 0.00616 543.4 0.0
538(12) 0.00618 543.4 0.0
548(12) 0.00641 543.4 0.0
526(12) 0.00631 543.4 0.0
524(13) 0.00594 543.4 0.0
519(12) 0.00606 543.4 0.0
546(12) 0.00622 543.4 0.0
523(12) 0.00667 543.4 0.0
536(12) 0.00615 543.4 0.0
550(13) 0.00578 543.4 0.0
575(13) 0.00572 543.4 0.0
564(12) 0.00618 543.4 0.0
547(12) 0.00634 543.4 0.0
539(12) 0.00609 543.4 0.0
543(13) 0.00589 543.4 0.0
555(12) 0.00608 543.4 0.0
563(12) 0.00608 543.5 0.0
537(12) 0.00656 543.5 0.0
531(12) 0.00614 543.5 0.0
565(13) 0.00528 543.5 0.0
548(12) 0.00605 543.5 0.0
554(12) 0.00624 543.5 0.0
542(12) 0.00646 543.5 0.0
552(13) 0.00569 543.5 0.0
518(13) 0.00594 543.5 0.0
537(13) 0.00604 543.5 0.0
567(12) 0.00619 543.5 0.0
533(12) 0.00645 543.5 0.0
524(12) 0.00625 543.5 0.0
544(13) 0.00578 543.5 0.0
556(13) 0.00602 543.5 0.0
578(13) 0.00604 543.5 0.0
545(12) 0.00637 543.5 0.0
561(13) 0.00583 543.5 0.0
546(13) 0.00569 543.6 0.0
555(13) 0.00603 543.6 0.0
547(12) 0.00633 543.6 0.0
516(12) 0.00661 543.6 0.0
539(13) 0.00604 543.6 0.0
531(13) 0.00596 543.6 0.0
515(12) 0.00619 543.6 0.0
511(12) 0.00689 543.6 0.0
553(12) 0.00612 543.6 0.0
539(13) 0.00594 543.6 0.0
549(13) 0.00568 543.6 0.0
545(13) 0.00604 543.6 0.0
545(12) 0.00640 543.6 0.0
533(12) 0.00619 543.6 0.0
542(13) 0.00590 543.6 0.0
531(12) 0.00614 543.6 0.0
538(12) 0.00630 543.6 0.0
575(12) 0.00607 543.6 0.0
555(13) 0.00589 543.6 0.0
547(13) 0.00585 543.7 0.0
535(13) 0.00603 543.7 0.0
550(12) 0.00615 543.7 0.0
554(12) 0.00630 543.7 0.0
552(13) 0.00587 543.7 0.0
556(13) 0.00553 543.7 0.0
518(12) 0.00623 543.7 0.0
543(12) 0.00626 543.7 0.0
560(12) 0.00627 543.7 0.0
540(12) 0.00615 543.7 0.0
558(13) 0.00572 543.7 0.0
531(12) 0.00618 543.7 0.0
554(12) 0.00619 543.7 0.0
530(12) 0.00659 543.7 0.0
532(12) 0.00611 543.7 0.0
542(13) 0.00561 543.7 0.0
523(12) 0.00635 543.7 0.0
545(12) 0.00642 543.7 0.0
520(12) 0.00667 543.8 0.0
547(13) 0.00590 543.8 0.0
561(13) 0.00540 543.8 0.0
534(13) 0.00589 543.8 0.0
561(12) 0.00622 543.8 0.0
535(12) 0.00656 543.8 0.0
533(12) 0.00615 543.8 0.0
543(13) 0.00574 543.8 0.0
553(13) 0.00602 543.8 0.0
532(12) 0.00658 543.8 0.0
546(12) 0.00637 543.8 0.0
539(13) 0.00597 543.8 0.0
524(13) 0.00601 543.8 0.0
527(12) 0.00627 543.8 0.0
522(12) 0.00662 543.8 0.0
522(12) 0.00659 543.8 0.0
514(12) 0.00633 543.8 0.0
536(13) 0.00578 543.8 0.0
554(13) 0.00575 543.9 0.0
536(12) 0.00655 543.9 0.0
563(13) 0.00600 543.9 0.0
544(13) 0.00605 543.9 0.0
579(13) 0.00549 543.9 0.0
570(13) 0.00581 543.9 0.0
555(12) 0.00633 543.9 0.0
507(12) 0.00655 543.9 0.0
541(13) 0.00600 543.9 0.0
535(13) 0.00601 543.9 0.0
530(12) 0.00617 543.9 0.0
549(12) 0.00639 543.9 0.0
579(13) 0.00566 543.9 0.0
522(12) 0.00616 543.9 0.0
555(13) 0.00573 543.9 0.0
553(12) 0.00609 543.9 0.0
556(12) 0.00633 543.9 0.0
535(12) 0.00632 543.9 0.0
530(13) 0.00600 543.9 0.0
544(13) 0.00597 544.0 0.0
540(12) 0.00633 544.0 0.0
529(12) 0.00661 544.0 0.0
508(12) 0.00651 544.0 0.0
539(13) 0.00582 544.0 0.0
531(12) 0.00621 544.0 0.0
529(12) 0.00644 544.0 0.0
527(12) 0.00665 544.0 0.0
536(12) 0.00611 544.0 0.0
549(13) 0.00568 544.0 0.0
524(12) 0.00617 544.0 0.0
538(12) 0.00645 544.0 0.0
526(12) 0.00665 544.0 0.0
518(12) 0.00638 544.0 0.0
549(13) 0.00571 544.0 0.0
548(12) 0.00614 544.0 0.0
548(12) 0.00637 544.0 0.0
562(12) 0.00622 544.0 0.0
578(13) 0.00570 544.1 0.0
530(13) 0.00604 544.1 0.0
537(12) 0.00628 544.1 0.0
550(12) 0.00637 544.1 0.0
569(12) 0.00608 544.1 0.0
558(13) 0.00584 544.1 0.0
592(14) 0.00518 544.1 0.0
564(13) 0.00578 544.1 0.0
562(12) 0.00624 544.1 0.0
531(12) 0.00646 544.1 0.0
523(12) 0.00635 544.1 0.0
556(13) 0.00569 544.1 0.0
545(13) 0.00599 544.1 0.0
536(12) 0.00653 544.1 0.0
527(12) 0.00630 544.1 0.0
522(12) 0.00621 544.1 0.0
568(13) 0.00552 544.1 0.0
527(12) 0.00620 544.1 0.0
544(12) 0.00644 544.1 0.0
580(13) 0.00579 544.2 0.0
532(12) 0.00618 544.2 0.0
529(13) 0.00604 544.2 0.0
563(13) 0.00596 544.2 0.0
557(12) 0.00632 544.2 0.0
540(12) 0.00612 544.2 0.0
547(13) 0.00570 544.2 0.0
530(12) 0.00610 544.2 0.0
536(12) 0.00619 544.2 0.0
548(12) 0.00639 544.2 0.0
552(13) 0.00589 544.2 0.0
552(13) 0.00570 544.2 0.0
552(13) 0.00575 544.2 0.0
545(12) 0.00635 544.2 0.0
541(12) 0.00641 544.2 0.0
567(13) 0.00585 544.2 0.0
553(13) 0.00574 544.2 0.0
554(13) 0.00600 544.2 0.0
524(12) 0.00664 544.3 0.0
550(12) 0.00633 544.3 0.0
574(13) 0.00577 544.3 0.0
568(13) 0.00555 544.3 0.0
565(13) 0.00583 544.3 0.0
528(12) 0.00650 544.3 0.0
527(12) 0.00658 544.3 0.0
547(13) 0.00593 544.3 0.0
538(13) 0.00565 544.3 0.0
545(12) 0.00608 544.3 0.0
547(12) 0.00627 544.4 0.0
531(12) 0.00656 544.4 0.0
550(13) 0.00605 544.5 0.0
520(13) 0.00591 544.6 0.0
559(13) 0.00582 544.6 0.0
538(12) 0.00654 544.7 0.0
545(12) 0.00638 544.7 0.0
553(13) 0.00591 544.8 0.0
519(12) 0.00612 544.9 0.0
510(12) 0.00653 544.9 0.0
544(12) 0.00648 545.0 0.0
570(12) 0.00606 545.1 0.0
565(13) 0.00572 545.1 0.0
563(13) 0.00550 545.2 0.0
507(12) 0.00668 545.2 0.0
513(12) 0.00685 545.3 0.0
536(12) 0.00638 545.4 0.0
529(12) 0.00633 545.4 0.0
581(13) 0.00562 545.5 0.0
556(13) 0.00603 545.6 0.0
561(12) 0.00624 545.6 0.0
590(13) 0.00568 545.7 0.0
570(13) 0.00564 545.7 0.0
535(12) 0.00620 545.8 0.0
586(13) 0.00570 545.9 0.0
574(12) 0.00611 545.9 0.0
534(12) 0.00620 546.0 0.0
555(13) 0.00583 546.1 0.0
507(12) 0.00630 546.1 0.0
560(13) 0.00583 546.2 0.0
554(12) 0.00634 546.2 0.0
563(13) 0.00590 546.3 0.0
588(13) 0.00534 546.4 0.0
562(13) 0.00594 546.4 0.0
567(13) 0.00599 546.5 0.0
553(12) 0.00632 546.6 0.0
559(13) 0.00565 546.6 0.0
513(12) 0.00620 546.7 0.0
575(13) 0.00563 546.7 0.0
572(13) 0.00597 546.8 0.0
559(12) 0.00625 546.9 0.0
551(13) 0.00591 546.9 0.0
532(13) 0.00591 547.0 0.0
527(12) 0.00620 547.1 0.0
528(12) 0.00649 547.1 0.0
514(12) 0.00679 547.2 0.0
531(12) 0.00619 547.2 0.0
551(13) 0.00565 547.3 0.0
566(13) 0.00573 547.4 0.0
549(12) 0.00636 547.4 0.0
563(12) 0.00624 547.5 0.0
547(13) 0.00604 547.6 0.0
559(13) 0.00530 547.6 0.0
555(13) 0.00587 547.7 0.0
541(12) 0.00647 547.7 0.0
547(12) 0.00640 547.8 0.0
546(12) 0.00619 547.9 0.0
527(13) 0.00599 547.9 0.0
556(13) 0.00585 548.0 0.0
577(12) 0.00607 548.1 0.0
563(12) 0.00623 548.1 0.0
560(13) 0.00584 548.2 0.0
560(13) 0.00555 548.2 0.0
554(13) 0.00591 548.3 0.0
531(12) 0.00654 548.4 0.0
546(12) 0.00641 548.4 0.0
550(13) 0.00604 548.5 0.0
556(13) 0.00578 548.6 0.0
573(13) 0.00580 548.6 0.0
587(13) 0.00601 548.7 0.0
554(12) 0.00609 548.7 0.0
570(13) 0.00574 548.8 0.0
576(13) 0.00561 548.9 0.0
564(13) 0.00600 548.9 0.0
558(12) 0.00624 549.0 0.0
554(13) 0.00598 549.1 0.0
573(13) 0.00554 549.1 0.0
554(13) 0.00578 549.2 0.0
551(13) 0.00603 549.2 0.0
555(12) 0.00632 549.3 0.0
546(12) 0.00609 549.4 0.0
559(13) 0.00577 549.4 0.0
572(13) 0.00565 549.5 0.0
550(12) 0.00612 549.6 0.0
539(12) 0.00645 549.6 0.0
551(13) 0.00588 549.7 0.0
564(13) 0.00575 549.7 0.0
575(13) 0.00570 549.8 0.0
560(12) 0.00608 549.9 0.0
589(13) 0.00592 549.9 0.0
543(13) 0.00594 550.0 0.0
555(13) 0.00569 550.1 0.0
568(13) 0.00590 550.1 0.0
566(12) 0.00611 550.2 0.0
548(12) 0.00641 550.2 0.0
535(12) 0.00607 550.3 0.0
536(13) 0.00586 550.4 0.0
529(12) 0.00628 550.4 0.0
541(12) 0.00644 550.5 0.0
581(13) 0.00597 550.6 0.0
557(12) 0.00607 550.6 0.0
569(13) 0.00534 550.7 0.0
553(13) 0.00597 550.7 0.0
571(13) 0.00604 550.8 0.0
570(12) 0.00621 550.9 0.0
540(12) 0.00612 550.9 0.0
546(13) 0.00559 551.0 0.0
575(13) 0.00568 551.1 0.0
556(12) 0.00635 551.1 0.0
516(12) 0.00658 551.2 0.0
544(12) 0.00608 551.2 0.0
579(13) 0.00542 551.3 0.0
528(12) 0.00627 551.4 0.0
564(12) 0.00626 551.4 0.0
565(13) 0.00601 551.5 0.0
537(13) 0.00604 551.6 0.0
577(13) 0.00554 551.6 0.0
577(13) 0.00576 551.7 0.0
558(12) 0.00629 551.7 0.0
567(13) 0.00594 551.8 0.0
555(13) 0.00592 551.9 0.0
554(13) 0.00575 551.9 0.0
565(13) 0.00567 552.0 0.0
559(12) 0.00625 552.0 0.0
546(12) 0.00614 552.1 0.0
563(13) 0.00562 552.2 0.0
575(13) 0.00565 552.2 0.0
585(13) 0.00574 552.3 0.0
540(12) 0.00649 552.4 0.0
574(13) 0.00594 552.4 0.0
552(13) 0.00591 552.5 0.0
530(12) 0.00615 552.5 0.1
536(12) 0.00641 552.6 0.1
557(12) 0.00629 552.7 0.1
555(13) 0.00593 552.7 0.1
538(13) 0.00584 552.8 0.1
539(13) 0.00598 552.9 0.1
557(12) 0.00623 552.9 0.1
556(12) 0.00629 553.0 0.1
566(13) 0.00574 553.0 0.1
536(13) 0.00597 553.1 0.1
567(13) 0.00572 553.2 0.1
548(12) 0.00621 553.2 0.1
543(12) 0.00643 553.3 0.1
570(13) 0.00578 553.4 0.1
564(13) 0.00538 553.4 0.1
553(13) 0.00587 553.5 0.1
544(12) 0.00643 553.5 0.1
574(12) 0.00614 553.6 0.1
554(13) 0.00590 553.7 0.1
549(13) 0.00562 553.7 0.1
546(13) 0.00597 553.8 0.1
547(12) 0.00639 553.9 0.1
548(12) 0.00637 553.9 0.1
557(13) 0.00598 554.0 0.1
592(14) 0.00516 554.0 0.1
562(13) 0.00585 554.1 0.1
536(12) 0.00659 554.2 0.1
507(12) 0.00684 554.2 0.1
519(12) 0.00638 554.3 0.1
553(13) 0.00560 554.4 0.1
596(13) 0.00544 554.4 0.2
553(12) 0.00634 554.5 0.2
559(12) 0.00611 554.5 0.2
589(13) 0.00554 554.6 0.2
556(13) 0.00573 554.7 0.2
546(13) 0.00592 554.7 0.2
537(12) 0.00653 554.8 0.2
566(12) 0.00606 554.9 0.2
569(13) 0.00593 554.9 0.2
555(13) 0.00570 555.0 0.3
526(12) 0.00615 555.0 0.3
580(12) 0.00605 555.1 0.3
558(12) 0.00611 555.2 0.3
539(12) 0.00626 555.2 0.3
584(13) 0.00551 555.3 0.4
560(13) 0.00594 555.4 0.4
543(12) 0.00646 555.4 0.4
589(13) 0.00571 555.5 0.5
542(13) 0.00605 555.5 0.5
563(13) 0.00584 555.6 0.6
535(12) 0.00643 555.7 0.7
546(12) 0.00641 555.7 0.8
552(13) 0.00588 555.8 0.9
608(14) 0.00521 555.9 1.0
558(13) 0.00597 555.9 1.1
560(13) 0.00591 556.0 1.2
556(12) 0.00630 556.0 1.4
591(13) 0.00559 556.1 1.5
589(13) 0.00538 556.2 1.7
565(13) 0.00583 556.2 1.9
568(12) 0.00616 556.3 2.1
563(12) 0.00616 556.4 2.3
547(13) 0.00596 556.4 2.6
541(13) 0.00574 556.5 2.8
572(13) 0.00567 556.5 3.0
535(12) 0.00642 556.6 3.1
553(12) 0.00633 556.7 3.3
559(13) 0.00594 556.7 3.3
574(13) 0.00536 556.8 3.3
553(13) 0.00597 556.9 3.3
565(12) 0.00615 556.9 3.2
524(12) 0.00665 557.0 3.0
543(13) 0.00604 557.0 2.9
546(13) 0.00560 557.1 2.7
520(12) 0.00624 557.2 2.4
541(12) 0.00645 557.2 2.2
573(12) 0.00606 557.3 2.0
571(13) 0.00588 557.4 1.8
563(13) 0.00539 557.4 1.6
575(13) 0.00578 557.5 1.4
555(12) 0.00629 557.5 1.3
551(12) 0.00630 557.6 1.1
559(13) 0.00573 557.7 1.0
561(13) 0.00550 557.7 0.9
550(13) 0.00584 557.8 0.8
583(13) 0.00605 557.9 0.7
592(13) 0.00574 557.9 0.6
566(13) 0.00571 558.0 0.6
545(13) 0.00584 558.0 0.5
545(13) 0.00602 558.1 0.5
598(13) 0.00587 558.2 0.4
536(12) 0.00623 558.2 0.4
542(13) 0.00590 558.3 0.4
570(13) 0.00538 558.4 0.3
546(12) 0.00610 558.4 0.3
560(12) 0.00628 558.5 0.3
583(13) 0.00564 558.5 0.3
550(13) 0.00581 558.6 0.2
558(13) 0.00584 558.7 0.2
581(13) 0.00581 558.7 0.2
552(12) 0.00631 558.8 0.2
531(12) 0.00630 558.9 0.2
560(13) 0.00568 558.9 0.2
606(13) 0.00528 559.0 0.2
541(12) 0.00646 559.0 0.2
539(12) 0.00649 559.1 0.2
533(13) 0.00595 559.2 0.2
572(13) 0.00547 559.2 0.1
576(13) 0.00564 559.3 0.1
539(12) 0.00631 559.4 0.1
541(12) 0.00647 559.4 0.1
564(13) 0.00588 559.5 0.1
567(13) 0.00541 559.5 0.1
562(13) 0.00577 559.8 0.1
566(13) 0.00603 560.0 0.1
544(12) 0.00637 560.3 0.1
574(13) 0.00579 560.5 0.1
578(13) 0.00541 560.8 0.1
584(13) 0.00561 561.0 0.1
565(12) 0.00623 561.3 0.1
580(13) 0.00601 561.5 0.1
588(13) 0.00545 561.8 0.1
554(13) 0.00539 562.1 0.1
544(12) 0.00610 562.3 0.1
582(13) 0.00596 562.6 0.1
556(12) 0.00627 562.8 0.1
569(13) 0.00580 563.1 0.1
575(13) 0.00547 563.3 0.1
577(13) 0.00578 563.6 0.1
562(12) 0.00624 563.8 0.1
534(12) 0.00647 564.1 0.1
572(13) 0.00581 564.3 0.1
577(13) 0.00542 564.6 0.1
593(13) 0.00559 564.9 0.1
570(12) 0.00617 565.1 0.1
578(13) 0.00591 565.4 0.1
576(13) 0.00566 565.6 0.0
597(13) 0.00526 565.9 0.0
609(13) 0.00525 566.1 0.0
581(12) 0.00608 566.4 0.0
562(13) 0.00601 566.6 0.0
545(13) 0.00602 566.9 0.0
583(13) 0.00538 567.1 0.0
556(13) 0.00576 567.4 0.0
573(12) 0.00613 567.7 0.0
573(13) 0.00600 567.9 0.0
581(13) 0.00562 568.2 0.0
604(14) 0.00513 568.4 0.0
547(12) 0.00607 568.7 0.0
585(13) 0.00602 568.9 0.0
567(13) 0.00582 569.2 0.0
548(13) 0.00597 569.4 0.0
575(13) 0.00558 569.7 0.0
553(12) 0.00621 569.9 0.0
547(12) 0.00634 570.2 0.0
566(13) 0.00585 570.5 0.0
593(13) 0.00535 570.7 0.0
549(13) 0.00602 571.0 6.8
573(13) 0.00586 571.2 6.9
560(12) 0.00624 571.5 7.0
523(12) 0.00608 571.7 7.1
571(13) 0.00554 572.0 7.2
572(13) 0.00586 572.2 7.3
570(12) 0.00608 572.5 7.5
565(12) 0.00622 572.7 7.6
557(13) 0.00596 573.0 7.7
543(13) 0.00586 573.3 7.8
577(13) 0.00577 573.5 8.0
593(13) 0.00573 573.8 8.1
524(12) 0.00664 574.0 8.3
568(13) 0.00588 574.3 8.4
577(13) 0.00529 574.5 8.6
586(13) 0.00560 574.8 8.7
576(12) 0.00608 575.0 8.9
590(13) 0.00593 575.3 9.0
557(13) 0.00595 575.5 9.2
578(13) 0.00525 575.8 9.4
541(12) 0.00609 576.1 9.5
546(12) 0.00634 576.3 9.7
561(12) 0.00624 576.6 9.9
546(12) 0.00625 576.8 10.1
604(13) 0.00525 577.1 10.3
582(13) 0.00576 577.3 10.5
575(12) 0.00610 577.6 10.7
578(13) 0.00604 577.8 10.9
586(13) 0.00560 578.1 11.1
569(13) 0.00563 578.3 11.4
592(13) 0.00550 578.6 11.6
555(12) 0.00633 578.8 11.9
558(13) 0.00597 579.1 12.1
573(13) 0.00575 579.4 12.4
581(13) 0.00551 579.6 12.6
565(13) 0.00568 579.9 12.9
559(12) 0.00628 580.1 13.2
572(13) 0.00593 580.4 13.5
599(13) 0.00526 580.6 13.8
550(13) 0.00590 580.9 14.1
559(13) 0.00584 581.1 14.4
568(12) 0.00619 581.4 14.8
565(13) 0.00599 581.6 15.1
568(13) 0.00576 581.9 15.5
552(13) 0.00594 582.2 15.9
574(13) 0.00579 582.4 16.3
562(12) 0.00627 582.7 16.7
546(12) 0.00612 582.9 17.1
568(13) 0.00563 583.2 17.5
562(13) 0.00585 583.4 18.0
601(13) 0.00570 583.7 18.4
564(12) 0.00623 583.9 18.9
562(13) 0.00573 584.2 19.4
570(13) 0.00560 584.4 20.0
584(13) 0.00561 584.7 20.5
562(12) 0.00614 585.0 21.1
593(13) 0.00590 585.2 21.7
600(13) 0.00543 585.5 22.3
600(14) 0.00519 585.7 23.0
646(14) 0.00505 586.0 23.7
597(13) 0.00585 586.2 24.4
581(13) 0.00601 586.5 25.1
597(13) 0.00545 586.7 25.9
588(14) 0.00515 587.0 26.7
582(13) 0.00573 587.2 27.6
572(12) 0.00613 587.5 28.5
613(13) 0.00571 587.8 29.4
594(13) 0.00556 588.0 30.4
590(13) 0.00526 588.3 31.5
607(13) 0.00549 588.5 32.6
599(13) 0.00590 588.8 33.7
598(13) 0.00587 589.0 34.9
597(13) 0.00547 589.3 36.2
620(14) 0.00488 589.5 37.6
602(13) 0.00547 589.8 39.0
610(13) 0.00574 590.0 40.5
598(13) 0.00577 590.3 42.1
601(13) 0.00550 590.6 43.9
612(13) 0.00524 590.8 45.7
580(13) 0.00573 591.1 47.6
595(13) 0.00589 591.3 49.6
573(13) 0.00582 591.6 51.8
601(13) 0.00540 591.8 54.2
595(13) 0.00537 592.1 56.7
602(13) 0.00555 592.3 59.3
596(13) 0.00590 592.6 62.2
606(13) 0.00555 592.8 65.3
600(13) 0.00547 593.1 68.6
631(14) 0.00512 593.4 72.2
602(13) 0.00559 593.6 76.0
632(13) 0.00560 593.9 80.2
592(13) 0.00564 594.1 84.7
603(13) 0.00555 594.4 89.6
646(14) 0.00499 594.6 94.9
618(13) 0.00542 594.9 100.8
639(13) 0.00554 595.1 107.1
663(14) 0.00498 595.4 114.1
672(14) 0.00480 595.6 121.9
630(14) 0.00522 595.9 130.4
669(14) 0.00512 596.2 139.8
676(14) 0.00522 596.4 150.3
691(14) 0.00475 596.7 161.9
659(14) 0.00486 596.9 175.0
677(14) 0.00492 597.2 189.8
708(14) 0.00495 597.4 206.4
713(14) 0.00492 597.7 225.3
747(15) 0.00442 597.9 246.8
738(15) 0.00426 598.2 271.6
763(15) 0.00427 598.4 300.2
796(15) 0.00437 598.7 333.5
837(15) 0.00424 599.0 372.7
930(16) 0.00359 599.2 419.5
1017(18) 0.003083 599.5 476.3
1132(18) 0.002907 599.7 547.8
1274(19) 0.002799 600.0 641.1
1557(21) 0.002305 600.2 768.8
1863(23) 0.001829 600.5 951.4
2233(27) 0.001392 600.7 1219.8
2793(29) 0.001213 601.0 1616.5
3616(31) 0.001007 601.2 2192.5
4292(34) 0.000843 601.5 2998.4
4966(38) 0.000696 602. 4071.
5846(43) 0.000543 602. 5411.
6875(45) 0.000492 602. 6961.
8346(48) 0.000432 603. 8573.
9563(51) 0.000379 603. 9979.
11362(58) 0.0003011 603. 10808.
12354(62) 0.0002594 603. 10766.
11659(58) 0.0002939 604. 9869.
9591(52) 0.000375 604. 8429.
7322(46) 0.000479 604. 6814.
5631(41) 0.000596 604. 5279.
4155(35) 0.000804 605. 3962.
3190(30) 0.001074 604.8 2914.3
2544(26) 0.001423 605.1 2130.9
2181(25) 0.001596 605.3 1573.8
1798(23) 0.001856 605.6 1190.8
1581(22) 0.002108 605.8 931.8
1403(20) 0.002395 606.1 755.2
1236(18) 0.002913 606.3 631.3
1214(19) 0.002785 606.6 540.5
1090(18) 0.003029 606.8 470.6
1004(17) 0.003317 607.1 414.8
965(17) 0.00351 607.4 368.8
923(16) 0.00387 607.6 330.2
870(16) 0.00390 607.9 297.4
877(16) 0.00372 608.1 269.2
820(15) 0.00403 608.4 244.7
766(15) 0.00448 608.6 223.4
745(14) 0.00474 608.9 204.8
736(15) 0.00441 609.1 188.3
738(15) 0.00433 609.4 173.8
736(15) 0.00454 609.6 160.8
733(14) 0.00474 609.9 149.3
695(14) 0.00509 610.2 138.9
690(14) 0.00478 610.4 129.6
713(15) 0.00441 610.7 121.1
684(14) 0.00487 610.9 113.5
663(13) 0.00533 611.2 106.5
655(13) 0.00538 611.4 100.2
686(14) 0.00472 611.7 94.4
669(14) 0.00461 611.9 89.1
661(14) 0.00504 612.2 84.3
641(13) 0.00547 612.4 79.8
635(13) 0.00551 612.7 75.6
633(14) 0.00513 613.0 71.8
634(14) 0.00503 613.2 68.3
652(14) 0.00515 613.5 65.0
671(13) 0.00526 613.7 61.9
639(13) 0.00551 614.0 59.1
646(13) 0.00524 614.2 56.4
642(14) 0.00487 614.5 53.9
617(13) 0.00542 614.7 51.6
680(14) 0.00514 615.0 49.5
635(13) 0.00556 615.2 47.4
650(14) 0.00502 615.5 45.5
634(14) 0.00496 615.8 43.7
663(14) 0.00495 616.0 42.0
607(13) 0.00573 616.3 40.4
610(13) 0.00561 616.5 38.9
636(14) 0.00504 616.8 37.5
619(14) 0.00510 617.0 36.1
615(13) 0.00529 617.3 34.8
627(13) 0.00562 617.5 33.6
626(13) 0.00540 617.8 32.5
603(13) 0.00544 618.0 31.4
632(14) 0.00509 618.3 30.3
629(13) 0.00525 618.6 29.3
607(13) 0.00579 618.8 28.4
594(13) 0.00576 619.1 27.5
628(13) 0.00526 619.3 26.6
653(14) 0.00491 619.6 25.8
603(13) 0.00559 619.8 25.1
633(13) 0.00559 620.1 24.3
649(14) 0.00512 620.3 23.6
631(14) 0.00509 620.6 22.9
616(13) 0.00535 620.8 22.3
618(13) 0.00543 621.1 21.6
621(13) 0.00565 621.4 21.0
604(13) 0.00564 621.6 20.5
620(14) 0.00521 621.9 19.9
625(14) 0.00523 622.1 19.4
591(13) 0.00581 622.4 18.9
625(13) 0.00570 622.6 18.4
647(14) 0.00497 622.9 17.9
616(13) 0.00527 623.1 17.5
610(13) 0.00561 623.4 17.0
630(13) 0.00552 623.6 16.6
611(13) 0.00571 623.9 16.2
599(13) 0.00548 624.2 15.8
625(14) 0.00509 624.4 15.4
602(13) 0.00562 624.7 15.1
633(13) 0.00553 624.9 14.7
616(13) 0.00566 625.2 14.4
641(14) 0.00512 625.4 14.1
590(13) 0.00542 625.7 13.8
622(13) 0.00527 625.9 13.4
613(13) 0.00566 626.2 13.2
648(13) 0.00547 626.4 12.9
630(13) 0.00534 626.7 12.6
642(14) 0.00477 627.0 12.3
637(14) 0.00519 627.2 12.1
609(13) 0.00577 627.5 11.8
644(13) 0.00545 627.7 11.6
637(13) 0.00525 628.0 11.3
636(14) 0.00486 628.2 11.1
636(14) 0.00512 628.5 10.9
654(13) 0.00539 628.7 10.7
656(13) 0.00534 629.0 10.5
662(14) 0.00505 629.2 10.3
666(14) 0.00482 629.5 10.1
639(14) 0.00521 629.8 9.9
635(13) 0.00555 630.0 9.7
632(13) 0.00541 630.3 9.5
633(13) 0.00526 630.5 9.3
639(14) 0.00515 630.8 9.2
658(14) 0.00499 631.0 9.0
657(13) 0.00538 631.3 8.8
637(13) 0.00539 631.5 8.7
648(14) 0.00487 631.8 8.5
638(14) 0.00500 632.0 8.4
642(14) 0.00521 632.3 8.2
634(13) 0.00560 632.5 8.1
611(13) 0.00547 632.8 7.9
607(13) 0.00541 633.1 7.8
635(14) 0.00510 633.3 7.7
635(13) 0.00529 633.6 7.6
633(13) 0.00560 633.8 7.4
617(13) 0.00543 634.1 7.3
639(14) 0.00504 634.3 7.2
637(14) 0.00515 634.6 7.1
605(13) 0.00566 634.8 7.0
636(13) 0.00557 635.1 6.8
620(13) 0.00529 635.3 0.0
619(14) 0.00505 635.6 0.0
622(13) 0.00527 635.9 0.0
637(13) 0.00542 636.1 0.0
639(13) 0.00553 636.4 0.0
631(13) 0.00533 636.6 0.0
639(14) 0.00493 636.9 0.0
637(14) 0.00521 637.1 0.0
641(13) 0.00545 637.4 0.0
642(13) 0.00549 637.6 0.0
637(13) 0.00526 637.9 0.0
656(14) 0.00474 638.1 0.0
642(14) 0.00517 638.4 0.0
657(13) 0.00530 638.7 0.0
608(13) 0.00585 638.9 0.0
649(14) 0.00517 639.2 0.0
643(14) 0.00486 639.4 0.0
647(14) 0.00519 639.7 0.0
681(14) 0.00520 639.9 0.0
671(14) 0.00522 640.2 0.0
660(14) 0.00510 640.4 0.0
646(14) 0.00505 640.7 0.0
653(14) 0.00520 640.9 0.0
651(13) 0.00548 641.2 0.0
633(13) 0.00537 641.5 0.0
627(14) 0.00518 641.7 0.0
646(14) 0.00483 642.0 0.0
651(14) 0.00493 642.2 0.0
611(13) 0.00572 642.5 0.0
671(14) 0.00518 642.7 0.0
643(14) 0.00515 643.0 0.0
619(13) 0.00524 643.2 0.0
623(13) 0.00532 643.5 0.0
629(13) 0.00558 643.7 0.0
664(14) 0.00500 644.0 0.0
643(14) 0.00513 644.3 0.0
655(14) 0.00490 644.5 0.0
664(14) 0.00501 644.8 0.0
615(13) 0.00572 645.0 0.0
630(13) 0.00540 645.3 0.0
645(14) 0.00501 645.5 0.0
634(14) 0.00509 645.8 0.0
670(14) 0.00506 646.0 0.0
664(13) 0.00535 646.3 0.0
676(14) 0.00491 646.5 0.0
653(14) 0.00492 646.8 0.0
634(13) 0.00527 647.1 0.0
609(13) 0.00569 647.3 0.0
664(13) 0.00529 647.6 0.0
668(14) 0.00490 647.8 0.0
639(14) 0.00499 648.1 0.0
655(14) 0.00496 648.3 0.0
642(13) 0.00540 648.6 0.0
655(13) 0.00545 648.8 0.0
669(14) 0.00495 649.1 0.0
648(14) 0.00488 649.3 0.0
639(14) 0.00521 649.6 0.0
654(13) 0.00533 649.9 0.0
689(14) 0.00514 650.1 0.0
655(14) 0.00511 650.4 0.0
663(14) 0.00472 650.6 0.0
661(14) 0.00513 650.9 0.0
668(13) 0.00526 651.1 0.0
689(14) 0.00522 651.4 0.0
645(14) 0.00519 651.6 0.0
656(14) 0.00462 651.9 0.0
695(14) 0.00484 652.1 0.0
692(14) 0.00507 652.4 0.0
659(13) 0.00524 652.7 0.0
684(14) 0.00485 652.9 0.0
647(14) 0.00483 653.2 0.0
668(14) 0.00498 653.4 0.0
651(13) 0.00545 653.7 0.0
653(13) 0.00536 653.9 0.0
632(14) 0.00522 654.2 0.0
680(14) 0.00457 654.4 0.0
650(14) 0.00512 654.7 0.0
657(13) 0.00538 654.9 0.0
631(13) 0.00544 655.2 0.0
656(14) 0.00509 655.5 0.0
697(14) 0.00457 655.7 0.0
638(14) 0.00512 656.0 0.0
640(13) 0.00551 656.2 0.0
655(13) 0.00535 656.5 0.0
691(14) 0.00473 656.7 0.0
661(14) 0.00489 657.3 0.0
637(13) 0.00531 657.9 0.0
696(14) 0.00508 658.5 0.0
648(13) 0.00530 659.1 0.0
650(14) 0.00502 659.7 0.0
672(14) 0.00473 660.3 0.0
626(13) 0.00536 660.9 0.0
656(13) 0.00541 661.5 0.0
665(14) 0.00500 662.1 0.0
666(14) 0.00489 662.7 0.0
653(14) 0.00506 663.3 0.0
656(13) 0.00529 663.9 0.0
683(14) 0.00517 664.5 0.0
652(14) 0.00513 665.1 0.0
681(14) 0.00467 665.7 0.0
665(14) 0.00489 666.3 0.0
658(13) 0.00525 667.0 0.0
673(13) 0.00524 667.6 0.0
662(14) 0.00501 668.2 0.0
658(14) 0.00480 668.8 0.0
652(14) 0.00505 669.4 0.0
660(14) 0.00522 670.0 0.0
667(13) 0.00528 670.6 0.0
680(14) 0.00482 671.2 0.0
683(15) 0.00456 671.8 0.0
669(14) 0.00504 672.4 0.0
677(14) 0.00520 673.0 0.0
669(13) 0.00530 673.6 0.0
663(14) 0.00503 674.2 0.0
680(15) 0.00455 674.8 0.0
691(14) 0.00483 675.4 0.0
692(14) 0.00503 676.0 0.0
697(14) 0.00504 676.6 0.0
691(14) 0.00473 677.2 0.0
682(15) 0.00448 677.8 0.0
679(14) 0.00492 678.4 0.0
679(14) 0.00521 679.1 9.5
705(14) 0.00499 679.7 9.6
711(14) 0.00470 680.3 9.7
674(14) 0.00488 680.9 9.8
675(14) 0.00492 681.5 10.0
709(14) 0.00500 682.1 10.1
690(14) 0.00497 682.7 10.2
685(14) 0.00478 683.3 10.3
665(14) 0.00476 683.9 10.4
652(14) 0.00510 684.5 10.6
669(13) 0.00528 685.1 10.7
669(14) 0.00519 685.7 10.8
668(14) 0.00501 686.3 11.0
679(14) 0.00486 686.9 11.1
666(14) 0.00503 687.5 11.2
656(13) 0.00540 688.1 11.4
705(14) 0.00482 688.7 11.5
726(15) 0.00444 689.3 11.7
674(14) 0.00485 689.9 11.8
696(14) 0.00486 690.5 12.0
677(13) 0.00525 691.2 12.1
695(14) 0.00475 691.8 12.3
715(14) 0.00456 692.4 12.4
688(14) 0.00486 693.0 12.6
707(14) 0.00483 693.6 12.8
692(14) 0.00513 694.2 12.9
684(14) 0.00484 694.8 13.1
674(14) 0.00481 695.4 13.3
661(14) 0.00505 696.0 13.5
685(14) 0.00501 696.6 14.2
684(14) 0.00519 697.2 14.4
645(14) 0.00516 697.8 14.6
702(15) 0.00448 698.4 14.8
692(14) 0.00480 699.0 15.0
708(14) 0.00492 699.6 15.2
699(14) 0.00507 700.2 15.4
719(15) 0.00455 700.8 15.6
693(15) 0.00449 701.4 15.8
685(14) 0.00479 702.0 16.1
650(13) 0.00545 702.6 16.3
721(14) 0.00492 703.3 16.6
737(15) 0.00442 703.9 16.8
730(15) 0.00423 704.5 17.1
691(14) 0.00481 705.1 17.3
665(13) 0.00535 705.7 17.6
678(14) 0.00520 706.3 17.9
718(14) 0.00461 706.9 18.1
704(15) 0.00449 707.5 18.4
757(15) 0.00441 708.1 18.7
700(14) 0.00505 708.7 19.0
711(14) 0.00491 709.3 19.3
685(14) 0.00496 709.9 19.6
694(15) 0.00454 710.5 19.9
721(15) 0.00451 711.1 20.3
673(13) 0.00524 711.7 20.6
682(14) 0.00504 712.3 20.9
717(15) 0.00455 712.9 21.3
711(15) 0.00451 713.5 21.7
700(14) 0.00465 714.1 22.0
728(14) 0.00486 714.7 22.4
686(14) 0.00507 715.4 22.8
685(14) 0.00483 716.0 23.2
689(14) 0.00471 716.6 23.6
691(14) 0.00479 717.2 24.0
718(14) 0.00496 717.8 24.5
694(14) 0.00498 718.4 24.9
738(15) 0.00446 719.0 25.4
733(15) 0.00448 719.6 25.9
720(14) 0.00473 720.2 26.3
741(14) 0.00481 720.8 26.8
733(14) 0.00469 721.4 27.4
750(15) 0.00442 722.0 27.9
706(14) 0.00469 722.6 28.4
718(14) 0.00474 723.2 29.0
755(14) 0.00473 723.8 29.6
714(14) 0.00469 724.4 30.2
730(15) 0.00447 725.0 30.8
690(14) 0.00485 725.6 31.4
713(14) 0.00478 726.2 32.0
727(14) 0.00487 726.8 32.7
710(14) 0.00457 727.5 33.4
705(15) 0.00449 728.1 34.1
723(15) 0.00455 728.7 34.9
714(14) 0.00480 729.3 35.6
732(14) 0.00486 729.9 36.4
709(14) 0.00463 730.5 37.2
732(15) 0.00443 731.1 38.1
760(15) 0.00446 731.7 38.9
749(14) 0.00466 732.3 39.8
736(14) 0.00481 732.9 40.8
718(14) 0.00466 733.5 41.7
740(15) 0.00419 734.1 42.7
736(15) 0.00450 734.7 43.8
739(14) 0.00480 735.3 44.8
713(14) 0.00498 735.9 46.0
770(15) 0.00427 736.5 47.1
767(16) 0.00399 737.1 48.3
744(15) 0.00454 737.7 49.6
775(14) 0.00458 738.3 50.9
731(14) 0.00485 738.9 52.2
722(14) 0.00463 739.6 53.6
740(15) 0.00420 740.2 55.1
751(15) 0.00444 740.8 56.6
742(14) 0.00481 741.4 58.2
742(14) 0.00472 742.0 59.8
773(15) 0.00442 742.6 61.6
783(15) 0.00411 743.2 63.4
751(15) 0.00449 743.8 65.2
752(14) 0.00478 744.4 67.2
758(14) 0.00459 745.0 69.3
765(15) 0.00446 745.6 71.4
785(15) 0.00417 746.2 73.7
767(15) 0.00438 746.8 76.0
752(14) 0.00475 747.4 78.5
786(15) 0.00442 748.0 81.1
776(15) 0.00431 748.6 83.9
768(15) 0.00430 749.2 86.7
802(15) 0.00414 749.8 89.8
809(15) 0.00442 750.4 93.0
774(15) 0.00437 751.0 96.4
822(15) 0.00402 751.6 99.9
780(15) 0.00426 752.3 103.7
782(15) 0.00435 752.9 107.7
801(15) 0.00447 753.5 111.9
843(16) 0.00394 754.1 116.4
820(16) 0.00400 754.7 121.2
823(16) 0.00399 755.3 126.2
789(15) 0.00437 755.9 131.6
858(15) 0.00415 756.5 137.4
800(15) 0.00418 757.1 143.5
872(16) 0.00359 757.7 150.1
815(15) 0.00410 758.3 157.2
841(15) 0.00413 758.9 164.8
847(15) 0.00423 759.5 173.0
875(16) 0.00381 760.1 181.8
856(16) 0.00375 760.7 191.4
882(16) 0.00380 761.3 201.7
898(16) 0.00393 761.9 213.0
876(15) 0.00407 762.5 225.4
893(16) 0.00378 763.1 238.9
941(17) 0.003339 763.7 253.8
952(16) 0.00356 764.4 270.5
982(16) 0.00364 765.0 289.2
997(16) 0.00359 765.6 310.7
1029(17) 0.003344 766.2 335.8
1092(18) 0.002868 766.8 366.0
1108(18) 0.003060 767.4 403.0
1121(17) 0.003186 768.0 449.3
1229(18) 0.002938 768.6 507.5
1272(19) 0.002683 769.2 580.4
1377(21) 0.002307 769.8 670.0
1474(21) 0.002330 770.4 777.1
1551(20) 0.002356 771.0 900.0
1716(22) 0.002079 771.6 1033.6
1802(23) 0.001909 772.2 1168.0
1872(24) 0.001752 772.8 1287.6
2073(25) 0.001641 773.4 1376.1
2181(24) 0.001671 774.0 1427.0
2260(25) 0.001580 774.6 1450.7
2240(25) 0.001528 775.2 1469.2
2202(26) 0.001512 775.8 1505.9
2162(25) 0.001572 776.5 1581.1
2317(25) 0.001576 777.1 1712.7
2626(27) 0.001351 777.7 1917.1
2910(29) 0.001184 778.3 2211.6
3391(32) 0.000987 778.9 2613.2
4057(35) 0.000833 779.5 3138.8
4747(36) 0.000773 780. 3804.
5688(40) 0.000626 781. 4618.
6695(44) 0.000508 781. 5583.
7706(48) 0.000433 782. 6689.
9026(51) 0.000379 783. 7904.
10363(53) 0.000351 783. 9165.
11592(58) 0.0002999 784. 10367.
12654(61) 0.0002638 784. 11364.
13415(63) 0.0002506 785. 11986.
13283(62) 0.0002636 786. 12100.
12518(59) 0.0002902 786. 11680.
11371(58) 0.0002973 787. 10820.
10299(56) 0.0003183 787. 9680.
8991(51) 0.000381 788. 8424.
7767(46) 0.000463 789. 7174.
6617(42) 0.000552 789. 6009.
5801(41) 0.000586 790. 4973.
5020(39) 0.000657 790. 4081.
4340(35) 0.000797 791. 3337.
3741(32) 0.000971 791.6 2731.0
3352(30) 0.001089 792.2 2246.6
2982(29) 0.001149 792.8 1865.5
2690(29) 0.001194 793.4 1568.1
2461(27) 0.001393 794.0 1336.8
2210(25) 0.001635 794.6 1156.2
2086(24) 0.001740 795.2 1013.4
1882(23) 0.001817 795.8 898.8
1756(23) 0.001798 796.4 805.1
1638(22) 0.002059 797.0 727.1
1536(20) 0.002372 797.6 660.9
1498(20) 0.002420 798.2 603.9
1463(21) 0.002317 798.8 554.3
1418(21) 0.002241 799.4 510.7
1367(20) 0.002491 800.0 472.1
1304(19) 0.002773 800.7 437.6
1242(18) 0.002886 801.3 406.8
1191(19) 0.002833 801.9 379.1
1186(19) 0.002691 802.5 354.1
1166(18) 0.002907 803.1 331.4
1115(17) 0.003244 803.7 310.8
1107(17) 0.003192 804.3 292.1
1039(17) 0.003231 804.9 275.0
1062(18) 0.003025 805.5 259.3
1053(18) 0.003097 806.1 245.0
988(16) 0.00365 806.7 231.7
983(16) 0.00356 807.3 219.6
993(17) 0.003343 807.9 208.3
976(17) 0.003357 808.5 197.9
970(17) 0.003482 809.1 188.2
945(16) 0.00381 809.7 179.2
969(17) 0.00351 810.3 170.9
968(17) 0.003400 810.9 163.1
912(16) 0.00365 811.5 155.8
938(16) 0.00356 812.1 149.0
898(16) 0.00399 812.8 142.7
980(17) 0.003474 813.4 136.7
931(16) 0.00357 814.0 131.1
915(16) 0.00366 814.6 125.8
894(16) 0.00383 815.2 120.9
919(16) 0.00390 815.8 116.2
901(16) 0.00376 816.4 111.8
905(16) 0.00360 817.0 107.7
901(16) 0.00373 817.6 103.7
917(16) 0.00380 818.2 100.0
875(15) 0.00407 818.8 96.5
885(16) 0.00381 819.4 93.1
874(16) 0.00370 820.0 90.0
874(16) 0.00374 820.6 86.9
867(16) 0.00399 821.2 84.1
867(15) 0.00411 821.8 81.4
856(16) 0.00378 822.4 78.8
874(16) 0.00357 823.0 76.3
832(15) 0.00408 823.6 73.9
820(15) 0.00427 824.2 71.7
865(15) 0.00413 824.9 69.5
880(16) 0.00382 825.5 67.5
863(16) 0.00365 826.1 65.5
854(16) 0.00391 826.7 63.6
849(15) 0.00420 827.3 61.8
840(15) 0.00419 827.9 60.1
839(16) 0.00397 828.5 58.4
849(16) 0.00367 829.1 56.8
805(15) 0.00422 829.7 55.3
822(15) 0.00436 830.3 53.9
797(15) 0.00439 830.9 52.5
851(16) 0.00389 831.5 51.1
880(16) 0.00357 832.1 49.8
853(16) 0.00394 832.7 48.5
821(15) 0.00436 833.3 47.3
865(15) 0.00411 833.9 46.2
855(16) 0.00396 834.5 45.1
827(16) 0.00392 835.1 44.0
852(16) 0.00385 835.7 42.9
849(15) 0.00420 836.3 41.9
842(15) 0.00405 837.0 41.0
845(16) 0.00384 837.6 40.0
823(16) 0.00400 838.2 39.1
876(16) 0.00380 838.8 38.3
794(15) 0.00446 839.4 38.7
818(15) 0.00421 840.0 37.9
836(16) 0.00395 840.6 37.2
865(16) 0.00372 841.2 36.4
831(15) 0.00412 841.8 35.7
798(15) 0.00447 842.4 35.0
814(15) 0.00420 843.0 34.4
869(16) 0.00371 843.6 33.8
836(16) 0.00400 844.2 33.1
840(15) 0.00409 844.8 32.5
861(15) 0.00418 845.4 32.0
831(16) 0.00400 846.0 31.4
845(16) 0.00378 846.6 30.9
854(16) 0.00386 847.2 30.4
815(15) 0.00425 847.8 29.9
838(15) 0.00425 848.4 29.4
850(16) 0.00386 849.0 28.9
809(15) 0.00410 849.7 28.5
844(16) 0.00387 850.3 28.1
839(15) 0.00411 850.9 27.7
827(15) 0.00434 851.5 27.3
846(16) 0.00400 852.1 26.9
838(16) 0.00381 852.7 26.5
827(15) 0.00408 853.3 26.2
853(15) 0.00416 853.9 25.8
859(15) 0.00417 854.5 25.5
825(15) 0.00408 855.1 25.2
831(16) 0.00379 855.7 24.9
856(16) 0.00387 856.3 24.7
845(15) 0.00424 856.9 24.4
823(15) 0.00428 857.5 24.2
809(15) 0.00402 858.0 23.9
842(16) 0.00361 858.6 23.7
879(16) 0.00383 859.2 23.5
860(15) 0.00412 859.8 23.3
835(15) 0.00426 860.4 23.2
830(16) 0.00400 861.0 23.0
862(16) 0.00362 861.6 22.9
855(16) 0.00396 862.2 22.7
855(15) 0.00420 862.7 22.6
883(16) 0.00393 863.3 22.6
851(16) 0.00390 863.9 22.5
821(16) 0.00388 864.5 22.5
822(15) 0.00409 865.1 22.4
848(15) 0.00420 865.7 22.5
835(15) 0.00421 866.3 22.5
872(16) 0.00382 866.9 22.5
829(16) 0.00397 867.4 22.6
875(16) 0.00373 868.0 22.8
865(15) 0.00413 868.6 22.9
884(16) 0.00389 869.2 23.1
867(16) 0.00385 869.8 23.3
893(16) 0.00365 870.4 23.6
868(16) 0.00386 871.0 23.9
879(15) 0.00406 871.6 24.3
865(16) 0.00400 872.1 24.8
852(16) 0.00393 872.7 25.3
884(16) 0.00373 873.3 25.9
911(16) 0.00371 873.9 26.6
868(15) 0.00412 874.5 27.4
847(15) 0.00404 875.1 28.3
928(17) 0.003469 875.7 29.4
912(16) 0.00361 876.3 30.6
876(16) 0.00394 876.8 32.0
887(15) 0.00404 877.4 33.7
876(16) 0.00379 878.0 35.6
873(16) 0.00372 878.6 37.8
901(16) 0.00378 879.2 40.5
931(16) 0.00374 879.8 43.6
895(15) 0.00401 880.4 47.3
914(16) 0.00372 881.0 51.8
931(17) 0.00353 881.5 57.2
952(17) 0.00354 882.1 64.0
944(16) 0.00375 882.7 72.6
996(16) 0.00360 883.3 84.4
1030(17) 0.003285 883.9 101.9
1050(18) 0.003047 884.5 130.9
1207(19) 0.002813 885.1 182.3
1358(19) 0.002672 885.7 274.5
1535(20) 0.002376 886.2 432.3
1691(22) 0.002031 886.8 681.3
1873(24) 0.001706 887.4 1033.4
2163(25) 0.001560 888.0 1470.8
2362(25) 0.001531 888.6 1930.2
2844(28) 0.001282 889.2 2297.7
3372(31) 0.001015 889.8 2434.6
3631(34) 0.000879 890.4 2274.9
3319(31) 0.001034 891.0 1884.9
2293(25) 0.001596 891.5 1423.6
1701(22) 0.002077 892.1 991.3
1383(20) 0.002444 892.7 647.0
1234(19) 0.002580 893.3 406.1
1117(18) 0.003042 893.9 254.3
1046(17) 0.003439 894.5 166.2
1008(17) 0.003501 895.1 117.0
957(17) 0.003495 895.7 89.1
1006(18) 0.003171 896.2 72.0
963(17) 0.003486 896.8 60.4
942(16) 0.00380 897.4 51.8
906(16) 0.00380 898.0 45.1
940(17) 0.00354 898.6 39.5
891(16) 0.00373 899.2 35.0
929(16) 0.00367 899.8 31.2
928(16) 0.00385 900.4 27.9
888(16) 0.00390 900.9 25.2
922(17) 0.00355 901.5 22.8
905(16) 0.00362 902.1 20.7
924(16) 0.00366 902.7 18.9
894(16) 0.00399 903.3 17.4
882(16) 0.00382 903.9 16.0
882(16) 0.00373 904.5 14.8
858(16) 0.00384 905.1 13.7
895(16) 0.00382 905.6 12.7
864(15) 0.00416 906.2 11.8
862(16) 0.00393 906.8 11.0
857(16) 0.00381 907.4 10.3
881(16) 0.00379 908.0 9.7
901(16) 0.00387 908.6 9.1
918(16) 0.00389 909.2 8.5
952(17) 0.00352 909.8 8.1
910(16) 0.00357 910.3 7.6
891(16) 0.00378 910.9 7.2
920(16) 0.00380 911.5 6.8
876(15) 0.00405 912.1 6.5
907(16) 0.00358 912.7 6.1
886(16) 0.00357 913.3 5.8
943(17) 0.00353 913.9 5.6
953(16) 0.00374 914.5 5.3
939(16) 0.00375 915.0 5.1
903(16) 0.00378 915.6 4.8
908(17) 0.003440 916.2 6.0
864(16) 0.00389 916.8 5.9
882(15) 0.00404 917.4 5.7
872(15) 0.00405 918.0 5.5
882(16) 0.00385 918.6 5.4
924(17) 0.003345 919.2 5.2
904(16) 0.00366 919.7 5.1
891(16) 0.00394 920.3 5.0
921(16) 0.00390 920.9 4.9
937(16) 0.00360 921.5 4.8
903(17) 0.003481 922.1 4.7
934(16) 0.00356 922.7 4.6
898(16) 0.00397 923.3 4.5
927(16) 0.00379 923.9 4.4
926(16) 0.00360 924.4 4.3
921(16) 0.00358 925.0 4.2
910(16) 0.00362 925.6 4.2
938(16) 0.00380 926.2 4.1
972(16) 0.00356 926.8 4.0
911(16) 0.00369 927.4 4.0
924(17) 0.00354 928.0 3.9
922(16) 0.00363 928.6 3.9
934(16) 0.00383 929.1 3.8
935(16) 0.00368 929.7 3.8
914(16) 0.00360 930.3 3.7
895(16) 0.00366 930.9 3.7
918(16) 0.00368 931.5 3.7
931(16) 0.00384 932.1 3.6
881(16) 0.00384 932.7 3.6
916(16) 0.00357 933.3 3.6
933(17) 0.003502 933.9 3.5
931(16) 0.00365 934.4 3.5
956(16) 0.00374 935.0 3.5
925(16) 0.00362 935.6 3.5
959(17) 0.003354 936.2 3.5
915(16) 0.00359 936.8 3.4
907(16) 0.00383 937.4 3.4
950(16) 0.00378 938.0 3.4
927(16) 0.00363 938.6 3.4
932(17) 0.003484 939.1 2.0
941(16) 0.00356 939.7 2.1
889(16) 0.00396 940.3 2.1
969(16) 0.00372 940.9 2.1
967(17) 0.003483 941.5 2.1
935(17) 0.003381 942.1 2.2
930(16) 0.00362 942.7 2.2
947(16) 0.00374 943.3 2.2
965(16) 0.00371 943.8 2.2
901(16) 0.00371 944.4 2.2
922(17) 0.003409 945.0 2.3
929(16) 0.00359 945.6 2.3
907(16) 0.00384 946.2 2.3
915(16) 0.00395 946.8 2.3
909(16) 0.00368 947.4 2.4
904(17) 0.00352 948.0 2.4
902(16) 0.00372 948.5 2.4
936(16) 0.00383 949.1 2.5
895(16) 0.00397 949.7 2.5
958(17) 0.00355 950.3 2.5
938(17) 0.003362 950.9 2.5
938(17) 0.00354 951.5 2.6
967(16) 0.00373 952.1 2.6
947(16) 0.00368 952.7 2.6
964(17) 0.003421 953.2 2.7
948(17) 0.003362 953.8 2.7
953(17) 0.003502 954.4 2.7
940(16) 0.00382 955.0 2.8
1009(17) 0.003458 955.6 2.8
901(16) 0.00375 956.2 2.8
968(17) 0.003292 956.8 2.9
966(17) 0.003375 957.4 2.9
941(16) 0.00383 957.9 2.9
965(17) 0.003506 958.5 3.0
938(17) 0.003469 959.1 3.0
939(17) 0.003476 959.7 3.0
989(17) 0.003430 960.3 3.1
952(16) 0.00377 960.9 3.1
952(16) 0.00367 961.5 3.2
1002(17) 0.003264 962.1 3.2
949(17) 0.00354 962.6 3.2
938(16) 0.00370 963.2 3.3
967(16) 0.00371 963.8 3.3
970(17) 0.003477 964.4 3.4
975(17) 0.003345 965.0 3.4
1002(17) 0.003328 965.6 3.5
975(16) 0.00362 966.2 3.5
972(16) 0.00370 966.8 3.6
985(17) 0.003356 967.4 3.6
970(17) 0.003327 968.0 3.7
946(17) 0.003499 968.5 3.7
936(16) 0.00377 969.1 3.8
923(16) 0.00387 969.7 3.8
972(17) 0.003493 970.3 3.9
971(17) 0.003356 970.9 3.9
975(17) 0.003507 971.5 4.0
959(16) 0.00369 972.1 4.0
969(16) 0.00370 972.7 4.1
981(17) 0.003398 973.3 4.1
991(17) 0.003210 973.9 4.2
996(17) 0.003429 974.5 4.3
980(16) 0.00363 975.1 4.3
1025(17) 0.003486 975.6 4.4
974(17) 0.003422 976.2 4.5
1002(18) 0.003050 976.8 4.5
982(17) 0.003424 977.4 4.6
961(16) 0.00374 978.0 4.7
987(16) 0.00360 978.6 4.8
988(17) 0.003431 979.2 4.8
1027(18) 0.003082 979.8 4.9
970(17) 0.00354 980.4 5.0
1001(16) 0.00357 981.0 5.1
998(17) 0.00352 981.6 5.1
984(17) 0.003441 982.1 5.2
934(17) 0.003503 982.7 5.3
966(17) 0.00352 983.3 5.4
950(16) 0.00379 983.9 5.5
1031(17) 0.003396 984.5 5.6
972(17) 0.003454 985.1 5.7
1021(18) 0.003106 985.7 5.8
964(17) 0.003474 986.3 5.9
992(16) 0.00363 986.9 6.0
950(16) 0.00364 987.5 6.1
1038(18) 0.003166 988.1 6.2
967(17) 0.003398 988.7 6.3
979(17) 0.003427 989.2 6.4
1016(17) 0.00352 989.8 6.6
1002(17) 0.003361 990.4 6.7
1029(18) 0.003171 991.0 6.8
1001(17) 0.003345 991.6 6.9
1002(17) 0.003392 992.2 7.1
1006(16) 0.00359 992.8 7.2
1024(17) 0.003341 993.4 7.3
991(17) 0.003272 994.0 7.5
987(17) 0.003321 994.6 7.6
1013(17) 0.003437 995.2 7.8
1020(17) 0.00354 995.7 7.9
997(17) 0.003422 996.3 8.1
1029(18) 0.003136 996.9 8.3
974(17) 0.003423 997.5 8.4
1023(17) 0.003424 998.1 8.6
1002(16) 0.00359 998.7 8.8
1002(17) 0.003373 999.3 9.0
1002(17) 0.003272 999.9 9.2
1012(17) 0.003369 1000.5 9.4
977(16) 0.00360 1001.1 9.6
1007(16) 0.00359 1001.7 9.8
1014(17) 0.003388 1002.3 10.1
996(17) 0.003217 1002.8 10.3
964(17) 0.00351 1003.4 10.5
999(17) 0.00353 1004.0 10.8
1000(16) 0.00361 1004.6 11.0
1011(17) 0.003404 1005.2 11.3
968(17) 0.003280 1005.8 11.6
1035(17) 0.003178 1006.4 11.9
1019(17) 0.00352 1007.0 12.2
1030(17) 0.003437 1007.6 12.5
1011(17) 0.003350 1008.2 12.8
1003(18) 0.003103 1008.8 13.1
1040(17) 0.003245 1009.3 13.5
1042(17) 0.003473 1009.9 13.8
1043(17) 0.003407 1010.5 14.2
1015(17) 0.003320 1011.1 14.6
1014(18) 0.003171 1011.7 15.0
1054(17) 0.003211 1012.3 15.4
1060(17) 0.003377 1012.9 15.9
1038(17) 0.003412 1013.5 16.3
1059(17) 0.003209 1014.1 16.8
1013(17) 0.003299 1014.7 17.3
1049(18) 0.003124 1015.3 17.8
1026(17) 0.003503 1015.9 18.4
1025(17) 0.003439 1016.4 19.0
1022(17) 0.003262 1017.0 19.6
1046(18) 0.003074 1017.6 20.2
1021(17) 0.003352 1018.2 20.8
1060(17) 0.003392 1018.8 21.5
990(17) 0.003469 1019.4 22.3
1056(18) 0.003135 1020.0 23.0
1003(17) 0.003291 1020.6 23.8
1018(17) 0.003322 1021.2 24.7
1010(17) 0.00353 1021.8 25.6
1023(17) 0.003328 1022.4 26.5
1027(17) 0.003191 1022.9 27.5
1054(18) 0.003121 1023.5 28.6
1029(17) 0.003384 1024.1 29.7
1026(17) 0.003506 1024.7 30.9
1041(17) 0.003262 1025.3 32.2
1028(18) 0.003153 1025.9 33.5
1071(18) 0.003079 1026.5 34.9
1106(18) 0.003165 1027.1 36.4
1028(17) 0.00351 1027.7 38.0
1055(18) 0.003163 1028.3 39.7
1067(18) 0.003041 1028.9 41.6
1067(18) 0.003160 1029.5 43.5
1065(17) 0.003344 1030.0 45.6
1090(17) 0.003317 1030.6 47.9
1062(18) 0.003155 1031.2 50.3
1082(18) 0.002883 1031.8 52.9
1058(18) 0.003152 1032.4 55.8
1086(17) 0.003303 1033.0 58.8
1103(17) 0.003240 1033.6 62.1
1065(17) 0.003187 1034.2 65.7
1082(18) 0.002870 1034.8 69.6
1069(18) 0.003163 1035.4 73.9
1098(17) 0.003253 1036.0 78.5
1139(18) 0.003171 1036.6 83.6
1122(18) 0.002991 1037.1 89.2
1142(19) 0.002746 1037.7 95.3
1122(18) 0.003065 1038.3 102.2
1124(18) 0.003171 1038.9 109.8
1129(17) 0.003184 1039.5 118.3
1173(18) 0.002865 1040.1 127.8
1114(18) 0.002908 1040.7 138.7
1169(18) 0.002908 1041.3 151.2
1170(18) 0.003063 1041.9 165.7
1159(18) 0.003080 1042.5 182.6
1183(18) 0.002855 1043.1 202.7
1209(19) 0.002702 1043.6 226.9
1280(19) 0.002633 1044.2 256.2
1302(19) 0.002765 1044.8 292.1
1318(19) 0.002689 1045.4 336.0
1409(20) 0.002382 1046.0 389.9
1422(20) 0.002384 1046.6 455.7
1562(21) 0.002137 1047.2 535.4
1632(21) 0.002223 1047.8 630.9
1777(22) 0.001971 1048.4 743.8
1866(23) 0.001830 1049.0 875.2
2030(24) 0.001655 1049.6 1025.1
2252(26) 0.001506 1050.2 1192.2
2382(25) 0.001538 1050.7 1372.9
2619(27) 0.001341 1051.3 1560.9
2901(29) 0.001167 1051.9 1745.7
3096(30) 0.001092 1052.5 1911.9
3153(30) 0.001112 1053.1 2040.9
3174(29) 0.001157 1053.7 2113.9
3115(30) 0.001105 1054.3 2119.1
3017(30) 0.001109 1054.9 2055.3
2826(28) 0.001218 1055.5 1933.4
2685(27) 0.001339 1056.1 1771.3
2519(26) 0.001445 1056.7 1588.3
2216(25) 0.001551 1057.2 1400.0
2190(26) 0.001493 1057.8 1217.6
1996(24) 0.001721 1058.4 1048.3
1917(23) 0.001849 1059.0 895.8
1818(22) 0.002004 1059.6 761.7
1726(22) 0.001958 1060.2 646.2
1622(22) 0.002024 1060.8 548.2
1542(21) 0.002220 1061.4 466.3
1502(20) 0.002360 1062.0 398.6
1399(19) 0.002591 1062.6 343.2
1429(20) 0.002372 1063.2 297.9
1329(20) 0.002388 1063.8 261.0
1330(20) 0.002568 1064.3 230.8
1274(19) 0.002830 1064.9 206.0
1208(18) 0.002979 1065.5 185.3
1306(19) 0.002593 1066.1 168.0
1262(20) 0.002528 1066.7 153.2
1212(19) 0.002822 1067.3 140.5
1225(18) 0.002953 1067.9 129.4
1171(18) 0.003043 1068.5 119.7
1166(18) 0.002895 1069.1 111.1
1166(19) 0.002735 1069.7 103.3
1166(18) 0.002930 1070.3 96.4
1151(18) 0.003154 1070.8 90.2
1161(18) 0.003086 1071.4 84.5
1106(18) 0.003104 1072.0 79.3
1090(18) 0.002974 1072.6 74.6
1107(18) 0.003055 1073.2 70.3
1154(18) 0.003139 1073.8 66.4
1174(18) 0.002999 1074.4 62.8
1147(18) 0.002932 1075.0 59.4
1093(18) 0.003039 1075.6 56.3
1160(18) 0.002860 1076.2 53.5
1178(18) 0.003050 1076.8 50.8
1172(18) 0.003010 1077.4 48.4
1103(18) 0.003081 1077.9 46.1
1110(18) 0.002998 1078.5 44.0
1101(18) 0.003066 1079.1 42.0
1124(17) 0.003226 1079.7 40.2
1111(18) 0.003059 1080.3 38.4
1137(18) 0.002914 1080.9 36.8
1105(18) 0.003007 1081.5 35.3
1137(18) 0.003044 1082.1 33.8
1085(17) 0.003322 1082.7 32.5
1122(18) 0.002974 1083.3 31.2
1156(19) 0.002808 1083.9 30.0
1102(18) 0.003104 1084.4 28.9
1161(18) 0.002986 1085.0 27.9
1073(17) 0.003339 1085.6 26.9
1137(18) 0.002912 1086.2 25.9
1112(18) 0.002943 1086.8 25.0
1125(18) 0.003003 1087.4 24.1
1139(18) 0.003108 1088.0 23.3
1100(17) 0.003273 1088.6 22.6
1063(18) 0.003151 1089.2 21.8
1112(18) 0.002874 1089.8 21.1
1132(18) 0.003051 1090.4 20.5
1160(18) 0.003067 1091.0 19.8
1139(17) 0.003174 1091.5 19.2
1130(18) 0.002979 1092.1 18.7
1105(18) 0.002887 1092.7 18.1
1139(18) 0.002980 1093.3 17.6
1117(17) 0.003214 1093.9 17.1
1068(17) 0.003365 1094.5 16.6
1111(18) 0.003046 1095.1 16.1
1122(19) 0.002800 1095.7 15.7
1179(19) 0.002836 1096.3 15.3
1111(17) 0.003219 1096.9 14.9
1134(17) 0.003185 1097.5 14.5
1113(18) 0.003120 1098.0 14.1
1129(19) 0.002790 1098.6 13.7
1128(18) 0.002952 1099.2 13.4
1128(17) 0.003218 1099.8 13.1
1162(18) 0.003067 1100.4 12.7
1138(18) 0.002953 1101.0 12.4
1088(18) 0.003009 1101.6 12.1
1124(18) 0.003002 1102.2 11.9
1106(17) 0.003286 1102.8 11.6
1111(18) 0.003171 1103.4 11.3
1096(18) 0.003093 1104.0 11.1
1124(19) 0.002841 1104.6 10.8
1114(18) 0.003033 1105.1 10.6
1114(17) 0.003243 1105.7 10.4
1104(18) 0.003132 1106.3 10.1
1163(19) 0.002831 1106.9 9.9
1091(18) 0.003033 1107.5 9.7
1114(18) 0.003026 1108.1 9.5
1149(18) 0.003155 1108.7 9.3
1153(18) 0.003029 1109.3 9.1
1105(18) 0.003027 1109.9 9.0
1100(18) 0.003008 1110.5 8.8
1103(18) 0.003083 1111.1 8.6
1080(17) 0.003318 1111.7 8.5
1131(18) 0.002973 1112.2 8.3
1178(19) 0.002779 1112.8 8.1
1124(18) 0.002992 1113.4 8.0
1148(18) 0.003042 1114.0 7.9
1141(18) 0.003160 1114.6 7.7
1095(18) 0.003047 1115.2 7.6
1148(18) 0.002852 1115.8 7.4
1124(18) 0.002968 1116.4 7.3
1083(17) 0.003308 1117.0 7.2
1126(17) 0.003199 1117.6 7.1
1124(18) 0.003042 1118.2 7.0
1133(18) 0.002864 1118.7 6.9
1109(18) 0.003089 1119.3 6.7
1123(18) 0.003158 1119.9 6.6
1185(18) 0.003050 1120.5 6.5
1143(18) 0.002935 1121.1 6.4
1132(19) 0.002782 1121.7 6.3
1130(18) 0.002994 1122.3 6.3
1160(18) 0.003061 1122.9 6.2
1132(17) 0.003200 1123.5 6.1
1129(18) 0.003047 1124.1 6.0
1163(19) 0.002716 1124.7 5.9
1167(18) 0.002897 1125.3 5.8
1148(18) 0.003135 1125.8 5.8
1087(17) 0.003292 1126.4 5.7
1140(18) 0.002959 1126.8 5.6
1143(19) 0.002775 1127.0 5.5
1150(18) 0.002885 1127.2 5.5
1113(17) 0.003245 1127.5 5.4
1138(18) 0.003142 1127.7 5.3
1141(18) 0.003013 1127.9 5.3
1165(19) 0.002752 1128.1 5.2
1116(18) 0.003019 1128.3 5.2
1128(17) 0.003187 1128.5 5.1
1162(18) 0.003056 1128.7 5.1
1132(18) 0.002986 1128.9 5.0
1140(19) 0.002831 1129.1 5.0
1141(18) 0.002949 1129.3 4.9
1098(17) 0.003280 1129.5 4.9
1130(18) 0.003134 1129.7 4.8
1122(18) 0.002984 1129.9 4.8
1136(18) 0.002862 1130.1 4.7
1137(18) 0.002975 1130.3 4.7
1149(18) 0.003126 1130.5 4.7
1170(18) 0.002990 1130.8 4.6
1144(18) 0.002925 1131.0 4.6
1137(18) 0.002880 1131.2 4.6
1192(18) 0.002873 1131.4 4.6
1152(18) 0.003137 1131.6 4.5
1141(18) 0.002983 1131.8 4.5
1128(18) 0.002859 1132.0 4.5
1190(19) 0.002792 1132.2 4.5
1191(18) 0.002927 1132.4 4.5
1138(18) 0.003165 1132.6 4.4
1136(18) 0.003010 1132.8 4.4
1172(19) 0.002766 1133.0 4.4
1139(18) 0.002963 1133.2 4.4
1106(17) 0.003195 1133.4 4.4
1137(18) 0.003167 1133.6 4.4
1164(18) 0.002937 1133.9 4.4
1169(19) 0.002720 1134.1 4.4
1141(18) 0.002971 1134.3 4.4
1183(18) 0.002993 1134.5 4.4
1169(18) 0.003104 1134.7 4.5
1136(18) 0.003030 1134.9 4.5
1108(18) 0.002909 1135.1 4.5
1126(18) 0.002959 1135.3 4.5
1133(18) 0.003140 1135.5 4.6
1106(17) 0.003260 1135.7 4.6
1186(18) 0.002852 1135.9 4.6
1163(19) 0.002713 1136.1 4.7
1141(18) 0.002934 1136.3 4.7
1147(18) 0.003139 1136.5 4.8
1074(17) 0.003352 1136.7 4.8
1166(18) 0.002871 1137.0 4.9
1147(19) 0.002741 1137.2 5.0
1148(18) 0.002904 1137.4 5.1
1145(18) 0.003117 1137.6 5.2
1176(18) 0.003094 1137.8 5.3
1174(18) 0.002910 1138.0 5.4
1172(19) 0.002749 1138.2 5.5
1199(19) 0.002823 1138.4 5.6
1209(18) 0.002987 1138.6 5.8
1142(18) 0.003102 1138.8 5.9
1151(18) 0.002866 1139.0 6.1
1154(19) 0.002784 1139.2 6.3
1183(18) 0.002850 1139.4 6.6
1124(17) 0.003211 1139.6 6.8
1145(18) 0.003075 1139.8 7.1
1160(18) 0.002935 1140.0 7.4
1192(19) 0.002692 1140.3 7.7
1139(18) 0.002959 1140.5 8.1
1162(18) 0.003101 1140.7 8.5
1178(18) 0.002948 1140.9 9.0
1172(18) 0.002857 1141.1 9.6
1168(19) 0.002806 1141.3 10.3
1138(18) 0.003062 1141.5 11.1
1128(17) 0.003200 1141.7 12.1
1123(18) 0.003049 1141.9 13.2
1186(19) 0.002764 1142.1 14.5
1129(18) 0.002999 1142.3 16.2
1166(18) 0.002938 1142.5 18.1
1181(18) 0.003057 1142.7 20.5
1193(19) 0.002830 1142.9 23.3
1196(19) 0.002738 1143.1 26.6
1195(19) 0.002840 1143.4 30.4
1184(18) 0.002941 1143.6 34.9
1186(18) 0.003053 1143.8 40.0
1217(19) 0.002803 1144.0 45.7
1260(19) 0.002592 1144.2 52.0
1216(19) 0.002790 1144.4 58.8
1227(18) 0.002898 1144.6 65.8
1317(19) 0.002741 1144.8 72.9
1229(19) 0.002768 1145.0 79.6
1227(19) 0.002647 1145.2 85.5
1291(20) 0.002554 1145.4 89.8
1297(19) 0.002734 1145.6 92.2
1266(18) 0.002853 1145.8 92.2
1299(19) 0.002619 1146.0 89.9
1294(20) 0.002453 1146.2 85.6
1270(19) 0.002643 1146.4 79.9
1216(18) 0.002908 1146.7 73.2
1269(19) 0.002837 1146.9 66.1
1200(19) 0.002830 1147.1 59.0
1222(19) 0.002585 1147.3 52.2
1221(19) 0.002764 1147.5 45.9
1206(18) 0.002974 1147.7 40.2
1200(18) 0.003015 1147.9 35.0
1194(18) 0.002889 1148.1 30.6
1195(19) 0.002662 1148.3 26.7
1182(18) 0.002876 1148.5 23.3
1165(18) 0.003113 1148.7 20.5
1199(18) 0.002976 1148.9 18.2
1215(19) 0.002756 1149.1 16.2
1202(19) 0.002693 1149.3 14.6
1147(18) 0.002950 1149.5 13.2
1186(18) 0.003028 1149.8 12.1
1131(18) 0.003137 1150.0 9.8
1184(19) 0.002837 1150.2 9.1
1163(19) 0.002795 1150.4 8.4
1209(19) 0.002750 1150.6 7.9
1118(17) 0.003236 1150.8 7.5
1196(18) 0.002902 1151.0 7.1
1179(19) 0.002804 1151.2 6.8
1170(19) 0.002797 1151.4 6.6
1173(18) 0.002912 1151.6 6.4
1197(18) 0.003022 1151.8 6.3
1245(19) 0.002718 1152.0 6.2
1212(19) 0.002720 1152.2 6.1
1140(18) 0.002907 1152.4 6.1
1204(18) 0.002855 1152.6 6.1
1183(18) 0.003049 1152.9 6.1
1225(19) 0.002768 1153.1 6.2
1179(19) 0.002802 1153.3 6.2
1185(19) 0.002823 1153.5 6.4
1157(18) 0.003080 1153.7 6.5
1214(18) 0.002944 1153.9 6.6
1136(18) 0.002926 1154.1 6.8
1141(18) 0.002855 1154.3 6.9
1184(18) 0.002857 1154.5 7.1
1211(18) 0.002923 1154.7 7.2
1215(18) 0.002971 1154.9 7.3
1189(18) 0.002856 1155.1 7.4
1156(19) 0.002796 1155.3 7.5
1208(19) 0.002788 1155.5 7.5
1204(18) 0.002954 1155.7 7.4
1154(18) 0.003121 1155.9 7.3
1169(18) 0.002864 1156.2 7.1
1167(19) 0.002719 1156.4 6.9
1178(18) 0.002923 1156.6 6.7
1201(18) 0.002976 1156.8 6.4
1223(18) 0.002939 1157.0 6.1
1163(18) 0.002930 1157.2 5.8
1200(19) 0.002619 1157.4 5.5
1138(18) 0.002977 1157.6 5.1
1229(18) 0.002910 1157.8 4.8
1145(18) 0.003149 1158.0 4.5
1173(19) 0.002838 1158.2 4.2
1164(19) 0.002724 1158.4 4.0
1158(18) 0.002900 1158.6 3.7
1183(18) 0.003040 1158.8 3.5
1170(18) 0.003059 1159.0 3.2
1200(19) 0.002812 1159.3 3.0
1186(19) 0.002639 1159.5 2.8
1175(18) 0.002895 1159.7 2.6
1182(18) 0.003078 1159.9 2.5
1159(18) 0.003077 1160.1 2.3
1160(18) 0.002995 1160.3 2.2
1203(19) 0.002764 1160.5 2.0
1220(19) 0.002718 1160.7 1.9
1195(18) 0.003002 1160.9 1.8
1133(18) 0.003108 1161.1 1.7
1153(18) 0.002884 1161.3 1.6
1160(19) 0.002830 1161.5 1.5
1208(19) 0.002771 1161.7 1.5
1225(18) 0.002979 1161.9 1.4
1152(18) 0.003006 1162.1 1.3
1195(19) 0.002754 1162.3 1.3
1184(19) 0.002775 1162.6 1.2
1204(19) 0.002847 1162.8 1.2
1134(17) 0.003180 1163.0 1.1
1132(18) 0.003070 1163.2 1.1
1176(19) 0.002758 1163.4 1.0
1164(19) 0.002819 1163.6 1.0
1153(18) 0.003008 1163.8 1.0
1166(18) 0.003067 1164.0 0.9
1147(18) 0.002979 1164.2 0.9
1153(18) 0.002848 1164.4 0.9
1166(18) 0.002875 1164.6 0.9
1164(18) 0.003052 1164.8 0.8
1208(18) 0.002993 1165.0 0.8
1200(19) 0.002793 1165.2 0.8
1194(19) 0.002697 1165.4 0.8
1176(18) 0.002864 1165.7 0.7
1213(18) 0.002924 1165.9 0.7
1120(17) 0.003185 1166.1 0.7
1159(18) 0.002897 1166.3 0.7
1141(19) 0.002808 1166.5 0.7
1147(18) 0.003001 1166.7 0.6
1155(18) 0.003080 1166.9 0.6
1230(18) 0.002946 1167.1 0.6
1219(19) 0.002753 1167.3 0.6
1157(19) 0.002766 1167.5 0.6
1167(18) 0.002914 1167.7 0.6
1190(18) 0.003012 1167.9 0.6
1174(18) 0.003077 1168.1 0.5
1206(19) 0.002762 1168.3 0.5
1164(19) 0.002700 1168.5 0.5
1195(19) 0.002792 1168.8 0.5
1169(18) 0.003099 1169.0 0.5
1183(18) 0.003023 1169.2 0.5
1198(19) 0.002813 1169.4 0.5
1176(19) 0.002752 1169.6 0.5
1259(19) 0.002679 1169.8 0.5
1172(18) 0.003088 1170.0 0.5
1171(18) 0.002976 1170.2 0.4
1199(19) 0.002801 1170.4 0.4
1149(18) 0.002869 1170.6 0.4
1191(19) 0.002832 1170.8 0.4
1150(18) 0.003142 1171.0 0.4
1191(18) 0.002934 1171.2 0.4
1160(18) 0.002868 1171.4 0.4
1138(18) 0.002886 1171.6 0.4
1179(19) 0.002841 1171.8 0.4
1192(18) 0.003021 1172.1 0.4
1223(19) 0.002840 1172.3 0.4
1163(18) 0.002853 1172.5 0.4
1190(19) 0.002734 1172.4 0.4
1155(18) 0.002959 1172.1 0.3
1171(18) 0.003076 1171.8 0.3
1172(18) 0.002899 1171.4 0.3
1162(18) 0.002907 1171.1 0.3
1174(18) 0.002862 1170.8 0.3
1236(19) 0.002751 1170.5 0.3
1201(18) 0.002986 1170.1 0.3
1159(18) 0.002925 1169.8 0.3
1191(19) 0.002746 1169.5 0.3
1140(18) 0.002957 1169.2 0.3
1178(18) 0.002992 1168.8 0.3
1174(18) 0.003076 1168.5 0.3
1225(19) 0.002748 1168.2 0.3
1195(19) 0.002722 1167.9 0.3
1133(18) 0.003005 1167.5 0.3
1156(18) 0.003093 1167.2 0.3
1195(18) 0.003040 1166.9 0.3
1186(18) 0.002848 1166.6 0.3
1217(19) 0.002634 1166.2 0.3
1191(18) 0.002858 1165.9 0.3
1180(18) 0.003009 1165.6 0.2
1223(18) 0.002958 1165.3 0.2
1191(19) 0.002833 1164.9 0.2
1175(19) 0.002689 1164.6 0.2
1205(19) 0.002828 1164.3 0.2
1148(18) 0.003118 1164.0 0.2
1156(18) 0.003127 1163.6 0.2
1161(18) 0.002970 1163.3 0.2
1198(19) 0.002671 1163.0 0.2
1187(18) 0.002872 1162.7 0.2
1263(18) 0.002858 1162.3 0.2
1157(18) 0.003091 1162.0 0.2
1166(19) 0.002841 1161.7 0.2
1134(19) 0.002838 1161.4 0.2
1205(19) 0.002788 1161.0 0.2
1232(18) 0.002920 1160.7 0.2
1188(18) 0.003011 1160.4 0.2
1174(18) 0.002858 1160.0 0.2
1140(19) 0.002816 1159.7 0.2
1170(19) 0.002829 1159.4 0.2
1150(18) 0.003136 1159.1 0.2
1190(18) 0.002980 1158.7 0.2
1213(19) 0.002703 1158.4 0.2
1204(19) 0.002667 1158.1 0.2
1158(18) 0.002880 1157.8 0.2
1196(18) 0.002994 1157.4 0.2
1182(18) 0.002947 1157.1 0.2
1168(18) 0.002853 1156.8 0.2
1164(18) 0.002853 1156.5 0.2
1154(18) 0.002955 1156.1 0.2
1158(18) 0.003124 1155.8 0.2
1150(18) 0.002994 1155.5 0.2
1182(19) 0.002821 1155.2 0.2
1190(19) 0.002808 1154.8 0.2
1181(18) 0.002938 1154.5 0.2
1185(18) 0.003048 1154.2 0.2
1205(19) 0.002833 1153.9 0.2
1190(19) 0.002755 1153.5 0.2
1159(18) 0.002881 1153.2 0.2
1154(18) 0.003072 1152.9 0.2
1189(18) 0.003034 1152.6 0.1
1202(19) 0.002792 1152.2 0.1
1202(19) 0.002713 1151.9 0.1
1170(18) 0.002881 1151.6 0.1
1174(18) 0.003025 1151.3 0.1
1182(18) 0.003074 1150.9 0.1
1176(18) 0.002851 1150.6 0.1
1187(19) 0.002679 1150.3 0.1
1133(18) 0.003009 1150.0 0.1
1184(18) 0.002971 1149.6 0.1
1152(18) 0.003141 1149.3 0.1
1180(18) 0.002871 1149.0 0.1
1188(19) 0.002718 1148.7 0.1
1220(19) 0.002819 1148.3 0.1
1222(18) 0.002931 1148.0 0.1
1179(18) 0.003064 1147.7 0.1
1172(18) 0.002874 1147.4 0.1
1141(19) 0.002784 1147.0 0.1
1196(19) 0.002794 1146.7 0.1
1157(18) 0.003080 1146.4 0.1
1157(18) 0.003068 1146.1 0.1
1207(19) 0.002843 1145.7 0.1
1182(19) 0.002746 1145.4 0.1
1207(19) 0.002766 1145.1 0.1
1156(18) 0.003121 1144.8 0.1
1138(18) 0.003147 1144.4 0.1
1177(19) 0.002790 1144.1 0.1
1126(18) 0.002876 1143.8 0.1
1161(18) 0.002856 1143.5 0.1
1144(18) 0.003150 1143.1 0.1
1137(18) 0.003064 1142.8 0.1
1189(19) 0.002796 1142.5 0.1
1177(19) 0.002781 1142.2 0.1
1207(19) 0.002711 1141.8 0.1
1185(18) 0.003034 1141.5 0.1
1119(18) 0.003092 1141.2 0.1
1158(18) 0.002863 1140.9 0.1
1220(19) 0.002655 1140.5 0.1
1131(18) 0.003065 1140.2 0.1
1146(18) 0.003131 1139.9 0.1
1119(18) 0.003076 1139.6 0.1
1133(18) 0.002960 1139.2 0.1
1187(19) 0.002777 1138.9 0.1
1183(18) 0.002921 1138.6 0.1
1178(18) 0.003037 1138.3 0.1
1155(18) 0.003000 1137.9 0.1
1221(19) 0.002671 1137.6 0.1
1158(18) 0.002897 1137.3 0.1
1153(18) 0.002962 1137.0 0.1
1164(18) 0.003053 1136.6 0.1
1155(18) 0.002902 1136.3 0.1
1167(19) 0.002745 1136.0 0.1
1145(18) 0.002954 1135.7 0.1
1173(18) 0.002988 1135.3 0.1
1139(18) 0.003165 1135.0 0.1
1115(18) 0.003027 1134.7 0.1
1160(19) 0.002767 1134.4 0.1
1178(18) 0.002866 1134.0 0.1
1163(18) 0.003003 1133.7 0.1
1103(17) 0.003274 1133.4 0.1
1128(18) 0.002938 1133.1 0.1
1161(19) 0.002711 1132.7 0.1
1186(18) 0.002867 1132.4 0.1
1140(18) 0.003108 1132.1 0.1
1144(18) 0.003150 1131.8 0.1
1136(18) 0.002930 1131.4 0.1
1174(19) 0.002664 1131.1 0.1
1134(18) 0.003050 1130.8 0.1
1167(18) 0.003047 1130.5 0.1
1132(17) 0.003187 1130.1 0.1
1173(18) 0.002854 1129.8 0.1
1134(19) 0.002792 1129.5 0.1
1169(18) 0.002885 1129.2 0.1
1148(18) 0.003142 1128.8 0.1
1159(18) 0.003079 1128.5 0.1
1161(18) 0.002933 1128.2 0.1
1190(19) 0.002707 1127.9 0.1
1144(18) 0.002962 1127.5 0.1
1056(17) 0.003400 1127.2 0.1
1135(18) 0.003083 1126.9 0.1
1100(18) 0.003111 1126.6 0.1
1193(19) 0.002674 1126.2 0.1
1151(18) 0.002940 1125.9 0.1
1152(18) 0.003130 1125.6 0.1
1119(18) 0.003158 1125.3 0.1
1153(18) 0.002909 1124.9 0.1
1201(19) 0.002670 1124.6 0.1
1082(18) 0.003087 1124.3 0.1
1126(17) 0.003217 1124.0 0.1
1181(18) 0.002884 1123.6 0.1
1119(18) 0.002984 1123.3 0.1
1168(19) 0.002815 1123.0 0.1
1135(18) 0.003031 1122.6 0.1
1127(17) 0.003216 1122.3 0.1
1124(18) 0.003042 1122.0 0.1
1184(19) 0.002756 1121.7 0.1
1218(19) 0.002758 1121.3 0.1
1191(18) 0.002903 1121.0 0.1
1146(18) 0.003107 1120.7 0.1
1186(19) 0.002820 1120.4 0.1
1132(18) 0.002905 1120.0 0.1
1096(18) 0.003067 1119.7 0.1
1148(18) 0.003057 1119.4 0.1
1149(18) 0.003137 1119.1 0.1
1154(18) 0.002888 1118.7 0.1
1073(18) 0.003035 1118.4 0.1
1128(18) 0.003001 1118.1 0.1
1122(17) 0.003182 1117.8 0.1
1126(17) 0.003206 1117.4 0.1
1157(18) 0.002957 1117.1 0.1
1168(19) 0.002775 1116.8 0.1
1144(18) 0.002991 1116.5 0.1
1069(17) 0.003343 1116.1 0.1
1114(17) 0.003236 1115.8 0.1
1128(18) 0.002995 1115.5 0.1
1125(19) 0.002800 1115.2 0.1
1108(18) 0.003044 1114.8 0.1
1115(17) 0.003238 1114.5 0.1
1113(17) 0.003189 1114.2 0.1
1165(18) 0.002903 1113.9 0.1
1138(19) 0.002752 1113.5 0.1
1122(18) 0.003007 1113.2 0.1
1115(17) 0.003216 1112.9 0.1
1121(17) 0.003196 1112.6 0.1
1135(18) 0.002957 1112.2 0.1
1118(19) 0.002837 1111.9 0.1
1164(18) 0.002857 1111.6 0.1
1105(17) 0.003247 1111.3 0.1
1086(17) 0.003227 1110.9 0.1
1123(18) 0.003054 1110.6 0.1
1141(18) 0.002864 1110.3 0.1
1124(18) 0.002960 1110.0 0.1
1120(17) 0.003214 1109.6 0.1
1144(18) 0.003070 1109.3 0.1
1140(18) 0.002922 1109.0 0.1
1131(18) 0.002913 1108.7 0.1
1108(18) 0.003004 1108.3 0.1
1105(17) 0.003289 1108.0 0.1
1093(18) 0.003133 1107.7 0.1
1104(18) 0.003017 1107.4 0.1
1115(18) 0.002940 1107.0 0.1
1135(18) 0.002973 1106.7 0.1
1118(17) 0.003225 1106.4 0.1
1087(18) 0.003169 1106.1 0.1
1106(18) 0.003054 1105.7 0.1
1152(18) 0.002873 1105.4 0.1
1110(18) 0.003130 1105.1 0.1
1091(17) 0.003291 1104.8 0.1
1156(18) 0.002956 1104.4 0.1
1087(18) 0.003097 1104.1 0.1
1106(18) 0.003032 1103.7 0.1
1113(17) 0.003185 1103.1 0.1
1163(18) 0.003118 1102.5 0.1
1105(18) 0.003022 1101.9 0.1
1096(18) 0.002968 1101.3 0.1
1104(18) 0.003051 1100.7 0.1
1084(17) 0.003300 1100.1 0.1
1057(17) 0.003394 1099.5 0.1
1101(18) 0.002995 1098.9 0.1
1093(18) 0.002929 1098.3 0.1
1134(18) 0.002954 1097.7 0.1
1106(17) 0.003208 1097.1 0.1
1084(17) 0.003329 1096.5 0.1
1087(18) 0.003143 1095.9 0.1
1109(18) 0.002886 1095.3 0.1
1122(18) 0.003007 1094.7 0.1
1119(17) 0.003204 1094.1 0.1
1115(17) 0.003226 1093.5 0.1
1118(18) 0.003023 1092.9 0.1
1136(19) 0.002745 1092.3 0.1
1059(18) 0.003160 1091.7 0.1
1069(17) 0.003362 1091.1 0.1
1072(17) 0.003352 1090.6 0.1
1084(18) 0.003133 1090.0 0.1
1154(19) 0.002735 1089.4 0.1
1122(18) 0.003007 1088.8 0.1
1083(17) 0.003315 1088.2 0.1
1091(17) 0.003263 1087.6 0.1
1128(18) 0.002993 1087.0 0.1
1110(18) 0.002891 1086.4 0.1
1083(18) 0.003099 1085.8 0.1
1113(17) 0.003230 1085.2 0.1
1081(17) 0.003287 1084.6 0.1
1083(18) 0.003144 1084.0 0.1
1126(18) 0.002859 1083.4 0.1
1083(18) 0.003093 1082.8 0.1
1075(17) 0.003358 1082.2 0.1
1086(18) 0.003146 1081.6 0.1
1125(18) 0.002917 1081.0 0.1
1106(18) 0.002974 1080.4 0.1
1112(18) 0.003077 1079.8 0.1
1077(17) 0.003333 1079.2 0.1
1058(17) 0.003293 1078.6 0.1
1074(18) 0.003084 1078.1 0.1
1102(18) 0.003017 1077.5 0.1
1105(18) 0.003139 1076.9 0.1
1055(17) 0.003412 1076.3 0.1
1132(18) 0.003014 1075.7 0.1
1042(17) 0.003181 1075.1 0.1
1043(17) 0.003238 1074.5 0.1
1088(17) 0.003244 1073.9 0.1
1108(17) 0.003252 1073.3 0.1
1041(17) 0.003194 1072.7 0.1
1045(18) 0.003076 1072.1 0.1
1045(17) 0.003217 1071.5 0.1
1067(17) 0.003310 1070.9 0.1
1047(17) 0.003446 1070.3 0.1
1043(17) 0.003245 1069.7 0.1
1080(18) 0.003007 1069.1 0.1
1101(18) 0.003038 1068.5 0.1
1085(17) 0.003270 1067.9 0.1
1074(17) 0.003321 1067.3 0.1
1114(18) 0.003003 1066.7 0.1
1139(19) 0.002793 1066.1 0.1
1054(17) 0.003264 1065.5 0.1
1040(17) 0.003395 1065.0 0.1
1044(17) 0.003457 1064.4 0.1
1043(17) 0.003248 1063.8 0.1
1075(18) 0.002848 1063.2 0.1
1077(17) 0.003212 1062.6 0.1
1100(17) 0.003266 1062.0 0.1
1090(17) 0.003296 1061.4 0.1
1069(17) 0.003208 1060.8 0.1
1047(18) 0.003060 1060.2 0.1
1051(17) 0.003199 1059.6 0.1
1036(17) 0.003469 1059.0 0.1
1033(17) 0.003445 1058.4 0.1
1071(18) 0.003088 1057.8 0.1
1075(18) 0.002909 1057.2 0.1
1016(17) 0.003380 1056.6 0.1
1087(17) 0.003305 1056.0 0.1
1042(17) 0.003381 1055.4 0.1
1041(17) 0.003180 1054.8 0.1
1053(18) 0.003054 1054.2 0.1
1046(17) 0.003174 1053.6 0.1
1062(17) 0.003374 1053.0 0.1
1049(17) 0.003334 1052.5 0.1
1027(17) 0.003222 1051.9 0.1
1080(18) 0.003010 1051.3 0.1
1086(17) 0.003177 1050.7 0.1
1078(17) 0.003345 1050.1 0.1
1049(17) 0.003303 1049.5 0.1
1019(17) 0.003324 1048.9 0.1
1062(18) 0.003123 1048.3 0.1
1050(17) 0.003337 1047.7 0.1
1056(17) 0.003440 1047.1 0.1
1021(17) 0.003293 1046.5 0.1
989(17) 0.003369 1045.9 0.1
1041(17) 0.003279 1045.3 0.1
1071(17) 0.003259 1044.7 0.1
1049(17) 0.003415 1044.1 0.1
1014(17) 0.003326 1043.5 0.1
1058(18) 0.003044 1042.9 0.1
1009(17) 0.003305 1042.3 0.1
1025(17) 0.003459 1041.7 0.1
1025(17) 0.00351 1041.1 0.1
1056(18) 0.003115 1040.5 0.1
1028(18) 0.003126 1039.9 0.1
1031(17) 0.003251 1039.4 0.1
1033(17) 0.003389 1038.8 0.1
1022(17) 0.00352 1038.2 0.1
1023(17) 0.003254 1037.6 0.1
1027(18) 0.003092 1037.0 0.1
992(17) 0.003409 1036.4 0.1
1004(16) 0.00358 1035.8 0.1
1056(17) 0.003408 1035.2 0.1
1040(17) 0.003269 1034.6 0.1
1032(18) 0.003002 1034.0 0.1
999(17) 0.003401 1033.4 0.1
1058(17) 0.003393 1032.8 0.1
1076(17) 0.003294 1032.2 0.1
1011(17) 0.003340 1031.6 0.1
1008(18) 0.003113 1031.0 0.1
1046(17) 0.003189 1030.4 0.1
1073(17) 0.003356 1029.8 0.1
1066(17) 0.003331 1029.2 0.1
1025(17) 0.003349 1028.6 0.1
1047(18) 0.003031 1028.0 0.1
1030(17) 0.003262 1027.4 0.1
1022(17) 0.00353 1026.9 0.1
1015(17) 0.003454 1026.3 0.1
1029(17) 0.003207 1025.7 0.1
1031(18) 0.003093 1025.1 0.1
1008(17) 0.003315 1024.5 0.1
1009(16) 0.00356 1023.9 0.1
1028(17) 0.003390 1023.3 0.1
996(17) 0.003414 1022.7 0.1
978(17) 0.003431 1022.1 0.1
1062(17) 0.003184 1021.5 0.1
1012(17) 0.00355 1020.9 0.1
1026(17) 0.003344 1020.3 0.1
1041(17) 0.003187 1019.7 0.1
1022(17) 0.003208 1019.1 0.1
978(17) 0.00355 1018.5 0.1
969(16) 0.00370 1017.9 0.1
1033(17) 0.003392 1017.3 0.1
1053(18) 0.003139 1016.7 0.1
1038(17) 0.003224 1016.1 0.1
1009(17) 0.003439 1015.5 0.1
1050(17) 0.003433 1014.9 0.1
1021(17) 0.003359 1014.3 0.1
1025(17) 0.003285 1013.8 0.1
1028(17) 0.003324 1013.2 0.1
1026(17) 0.003429 1012.6 0.1
1036(17) 0.003485 1012.0 0.1
1050(17) 0.003201 1011.4 0.1
1040(18) 0.003160 1010.8 0.1
992(17) 0.003468 1010.2 0.1
1029(17) 0.003387 1009.6 0.1
1011(17) 0.00353 1009.0 0.1
998(17) 0.003330 1008.4 0.2
976(17) 0.003245 1007.8 0.2
1057(18) 0.003127 1007.2 0.2
1047(17) 0.003379 1006.6 0.2
981(16) 0.00366 1006.0 0.2
1013(17) 0.003312 1005.4 0.2
986(18) 0.003172 1004.8 0.2
979(17) 0.003431 1004.2 0.2
1007(16) 0.00357 1003.6 0.2
973(16) 0.00370 1003.0 0.2
1006(17) 0.003370 1002.4 0.2
972(17) 0.003182 1001.8 0.2
958(17) 0.003457 1001.3 0.2
967(16) 0.00374 1000.7 0.2
988(16) 0.00358 1000.1 0.2
1015(17) 0.003259 999.5 0.2
1008(18) 0.003077 998.9 0.2
1013(17) 0.003343 998.3 0.2
982(16) 0.00369 997.7 0.2
989(17) 0.00352 997.1 0.2
1023(17) 0.003261 996.5 0.2
1012(17) 0.003276 995.9 0.2
1036(17) 0.003209 995.3 0.2
977(16) 0.00367 994.7 0.2
1021(17) 0.003446 994.1 0.2
1035(17) 0.003267 993.5 0.2
1004(17) 0.003322 992.9 0.2
991(17) 0.003451 992.3 0.2
1014(17) 0.00355 991.7 0.2
974(17) 0.00351 991.1 0.2
963(17) 0.003399 990.5 0.3
961(17) 0.003408 989.9 0.3
996(17) 0.003437 989.3 0.3
998(16) 0.00361 988.7 0.3
1006(17) 0.003416 988.2 0.3
995(17) 0.003324 987.6 0.3
984(17) 0.003411 987.0 0.3
982(17) 0.003497 986.4 0.3
961(16) 0.00374 985.8 0.3
956(16) 0.00360 985.2 0.3
1027(18) 0.003158 984.6 0.3
927(16) 0.00362 984.0 0.3
961(17) 0.00354 983.4 0.3
1015(17) 0.00356 982.8 0.3
962(17) 0.003445 982.2 0.3
1018(17) 0.003177 981.6 0.3
1034(17) 0.003249 981.0 0.4
954(16) 0.00370 980.4 0.4
993(16) 0.00363 979.8 0.4
974(17) 0.003447 979.2 0.4
988(17) 0.003254 978.6 1.4
979(17) 0.003476 978.0 1.5
954(16) 0.00381 977.4 1.5
959(16) 0.00375 976.8 1.5
994(17) 0.003413 976.2 1.5
995(17) 0.003214 975.6 1.6
995(17) 0.003407 975.0 1.6
973(16) 0.00368 974.4 1.6
970(16) 0.00368 973.7 1.7
993(17) 0.003393 973.1 1.7
994(17) 0.003226 972.5 1.7
980(17) 0.003433 971.9 1.8
952(16) 0.00377 971.3 1.8
962(16) 0.00371 970.7 1.8
956(17) 0.00354 970.1 1.9
952(17) 0.003365 969.5 1.9
993(17) 0.003392 968.9 2.0
983(16) 0.00366 968.3 2.0
920(16) 0.00385 967.7 2.0
967(17) 0.003460 967.1 2.1
975(17) 0.003314 966.5 2.1
980(17) 0.003378 965.9 2.2
942(16) 0.00379 965.3 2.2
953(16) 0.00368 964.7 2.3
947(17) 0.00356 964.1 2.3
948(17) 0.003418 963.5 2.4
950(17) 0.00352 962.8 2.5
960(16) 0.00374 962.2 2.5
931(16) 0.00371 961.6 2.6
972(17) 0.003425 961.0 2.7
1006(17) 0.003296 960.4 2.7
991(17) 0.003474 959.8 2.8
1008(17) 0.00356 959.2 2.9
962(16) 0.00359 958.6 3.0
989(17) 0.003287 958.0 3.0
948(17) 0.003504 957.4 3.1
960(17) 0.00352 956.8 3.2
946(16) 0.00381 956.2 3.3
939(16) 0.00356 955.6 3.4
954(17) 0.003444 955.0 3.5
926(16) 0.00363 954.4 3.6
954(16) 0.00364 953.8 3.7
988(16) 0.00361 953.2 3.9
981(17) 0.003330 952.6 4.0
942(17) 0.003483 952.0 4.1
988(17) 0.003378 951.3 4.3
939(16) 0.00372 950.7 4.4
953(16) 0.00378 950.1 4.6
963(17) 0.003488 949.5 4.8
964(17) 0.003269 948.9 5.0
947(16) 0.00359 948.3 5.2
932(16) 0.00374 947.7 5.4
915(16) 0.00390 947.1 5.7
969(17) 0.003442 946.5 5.9
948(17) 0.003259 945.9 6.2
926(17) 0.00355 945.3 6.6
920(16) 0.00385 944.7 6.9
950(16) 0.00379 944.1 7.3
953(17) 0.00355 943.5 7.7
933(17) 0.003285 942.9 8.2
946(16) 0.00361 942.3 8.7
992(16) 0.00362 941.7 9.3
969(16) 0.00367 941.1 10.0
970(17) 0.003437 940.4 10.6
943(17) 0.003309 939.8 11.4
945(17) 0.00352 939.2 12.2
951(16) 0.00377 938.6 13.1
976(16) 0.00366 938.0 14.1
914(16) 0.00377 937.4 15.2
918(17) 0.00353 936.8 16.3
922(16) 0.00368 936.2 17.5
967(16) 0.00373 935.6 18.8
966(16) 0.00367 935.0 20.1
924(16) 0.00370 934.4 21.5
957(17) 0.003445 933.8 22.9
958(17) 0.003474 933.2 24.4
908(16) 0.00394 932.6 25.7
995(17) 0.003459 932.0 27.1
934(16) 0.00367 931.4 28.3
955(17) 0.003393 930.8 29.4
878(16) 0.00385 930.2 30.3
888(15) 0.00404 929.6 30.9
950(16) 0.00358 928.9 31.4
919(16) 0.00358 928.3 31.5
952(17) 0.00355 927.7 31.5
960(16) 0.00365 927.1 31.3
945(16) 0.00382 926.5 30.9
965(17) 0.00352 925.9 30.4
938(16) 0.00357 925.3 29.9
947(17) 0.003494 924.7 29.3
957(16) 0.00359 924.1 28.8
951(16) 0.00378 923.5 28.3
950(17) 0.003494 922.9 28.0
973(17) 0.003309 922.3 27.7
946(17) 0.003474 921.7 27.6
931(16) 0.00375 921.1 27.6
927(16) 0.00389 920.5 27.8
946(17) 0.00353 919.9 28.2
909(17) 0.00355 919.3 28.8
938(16) 0.00359 918.7 29.6
945(16) 0.00374 918.1 30.6
917(16) 0.00390 917.4 31.9
910(16) 0.00372 916.8 33.5
955(17) 0.003319 916.2 35.4
944(17) 0.00355 915.6 37.7
917(16) 0.00390 915.0 40.4
903(16) 0.00394 914.4 44.9
951(17) 0.003494 913.8 48.7
944(17) 0.003268 913.2 53.2
911(16) 0.00365 912.6 58.5
928(16) 0.00382 912.0 64.8
1021(17) 0.00353 911.4 72.4
1008(17) 0.003401 910.8 81.8
1014(18) 0.003118 910.2 93.5
1028(17) 0.003300 909.6 108.9
1073(17) 0.003329 909.0 130.3
1078(17) 0.003314 908.4 162.1
1085(18) 0.003142 907.8 211.5
1199(19) 0.002665 907.2 289.7
1303(19) 0.002571 906.5 410.9
1456(20) 0.002487 905.9 591.1
1657(21) 0.002168 905.3 841.6
1920(23) 0.001797 904.7 1163.1
2239(26) 0.001451 904.1 1536.8
2603(28) 0.001291 903.5 1916.1
2947(28) 0.001239 902.9 2220.3
3343(31) 0.001064 902.3 2349.8
3342(31) 0.001010 901.7 2249.9
2989(30) 0.001120 901.1 1963.5
2484(27) 0.001398 900.5 1588.8
2031(23) 0.001796 899.9 1210.7
1726(22) 0.002005 899.3 880.5
1484(21) 0.002301 898.7 620.3
1371(20) 0.002432 898.1 431.2
1222(18) 0.002856 897.5 302.7
1173(18) 0.003082 896.9 219.6
1156(18) 0.003012 896.3 166.9
1128(18) 0.002940 895.7 133.2
1075(18) 0.003134 895.0 110.5
1025(17) 0.003394 894.4 94.3
960(16) 0.00377 893.8 82.1
967(17) 0.003473 893.2 72.3
954(17) 0.003377 892.6 64.3
986(17) 0.003397 892.0 57.6
962(16) 0.00365 891.4 52.0
951(16) 0.00377 890.8 47.1
913(16) 0.00363 890.2 43.0
947(17) 0.003374 889.6 39.3
951(17) 0.003489 889.0 36.2
947(16) 0.00370 888.4 33.5
932(16) 0.00381 887.8 31.0
896(16) 0.00378 887.2 28.9
928(17) 0.003402 886.6 27.0
928(16) 0.00359 886.0 25.3
870(15) 0.00403 885.4 23.7
872(15) 0.00409 884.8 22.4
896(16) 0.00385 884.1 21.1
886(16) 0.00356 883.5 20.0
879(16) 0.00383 882.9 19.0
884(15) 0.00404 882.3 18.0
882(15) 0.00405 881.7 17.2
873(16) 0.00386 881.1 16.4
896(17) 0.003469 880.5 15.7
902(16) 0.00377 879.9 15.1
899(16) 0.00395 879.3 14.5
873(15) 0.00405 878.7 13.9
890(16) 0.00374 878.1 13.4
906(17) 0.00352 877.5 13.0
920(16) 0.00366 876.9 12.5
861(15) 0.00418 876.3 12.1
839(15) 0.00421 875.7 11.8
925(16) 0.00361 875.1 11.6
857(16) 0.00383 874.5 11.3
918(16) 0.00359 873.9 11.0
870(15) 0.00413 873.3 10.7
877(16) 0.00388 872.6 10.5
871(16) 0.00380 872.0 10.3
882(16) 0.00368 871.4 10.1
845(16) 0.00396 870.8 9.9
876(15) 0.00408 870.2 9.8
883(16) 0.00392 869.6 9.7
886(16) 0.00377 869.0 9.7
870(16) 0.00378 868.4 9.8
879(16) 0.00381 867.8 10.1
864(15) 0.00413 867.2 10.5
899(16) 0.00374 866.6 11.0
881(16) 0.00373 866.0 11.4
833(16) 0.00397 865.4 11.7
906(16) 0.00376 864.8 11.6
843(15) 0.00427 864.2 11.1
926(16) 0.00358 863.6 10.4
885(16) 0.00370 863.0 9.7
850(16) 0.00392 862.4 9.1
846(15) 0.00404 861.7 8.7
868(15) 0.00412 861.1 8.4
930(17) 0.00354 860.5 8.2
895(16) 0.00358 859.9 8.0
885(16) 0.00377 859.3 7.9
868(16) 0.00401 858.7 7.9
828(15) 0.00431 858.1 7.8
840(16) 0.00394 857.5 7.8
876(16) 0.00360 856.9 7.8
880(16) 0.00380 856.3 7.8
878(16) 0.00400 855.7 7.7
848(15) 0.00421 855.1 7.7
818(15) 0.00415 854.5 7.7
880(17) 0.00355 853.9 7.7
884(16) 0.00384 853.3 7.7
890(15) 0.00402 852.7 7.7
866(15) 0.00413 852.1 7.8
877(16) 0.00373 851.5 7.8
881(16) 0.00356 850.9 7.8
879(16) 0.00383 850.2 7.8
858(15) 0.00415 849.6 7.9
848(15) 0.00419 849.0 7.9
800(15) 0.00418 848.4 7.9
898(17) 0.003423 847.9 8.0
902(16) 0.00373 847.4 8.0
918(16) 0.00389 846.9 8.1
864(15) 0.00411 846.4 8.1
841(16) 0.00399 845.9 8.2
878(16) 0.00361 845.4 8.3
887(16) 0.00380 844.8 8.3
832(15) 0.00427 844.3 8.4
894(16) 0.00393 843.8 8.5
859(16) 0.00389 843.3 8.6
818(16) 0.00399 842.8 8.7
829(15) 0.00402 842.3 8.8
819(15) 0.00435 841.8 8.8
838(15) 0.00412 841.3 9.0
879(16) 0.00375 840.8 9.1
849(16) 0.00382 840.2 9.2
837(15) 0.00401 839.7 9.3
871(15) 0.00412 839.2 9.4
869(16) 0.00393 838.7 9.5
843(16) 0.00394 838.2 9.7
855(16) 0.00388 837.7 9.8
830(15) 0.00415 837.2 9.9
870(15) 0.00413 836.7 10.1
810(15) 0.00424 836.2 10.2
855(16) 0.00379 835.6 10.4
896(16) 0.00370 835.1 10.6
857(15) 0.00405 834.6 10.8
867(15) 0.00414 834.1 10.9
818(15) 0.00403 833.6 11.1
830(16) 0.00390 833.1 11.3
835(16) 0.00398 832.6 11.5
866(16) 0.00396 832.1 11.8
865(15) 0.00414 831.6 12.0
819(15) 0.00409 831.1 12.2
852(16) 0.00375 830.5 12.5
821(15) 0.00409 830.0 12.7
861(15) 0.00410 829.5 13.0
863(15) 0.00416 829.0 13.3
814(15) 0.00415 828.5 13.6
843(16) 0.00369 828.0 13.9
845(16) 0.00394 827.5 14.2
818(15) 0.00436 827.0 14.5
859(15) 0.00413 826.5 14.9
837(15) 0.00403 825.9 15.2
846(16) 0.00357 825.4 15.6
813(15) 0.00404 824.9 16.0
838(15) 0.00425 824.4 16.4
790(15) 0.00445 823.9 16.9
833(15) 0.00411 823.4 17.3
859(16) 0.00364 822.9 17.8
837(16) 0.00399 822.4 18.3
806(15) 0.00442 821.9 18.8
823(15) 0.00435 821.4 19.4
838(15) 0.00404 820.8 20.0
809(16) 0.00399 820.3 20.6
793(15) 0.00414 819.8 21.3
799(15) 0.00448 819.3 22.0
799(15) 0.00437 818.8 22.7
831(15) 0.00411 818.3 23.5
856(16) 0.00381 817.8 24.3
842(16) 0.00399 817.3 25.2
797(15) 0.00449 816.8 26.2
803(15) 0.00435 816.2 27.2
835(16) 0.00399 815.7 28.3
858(16) 0.00388 815.2 29.4
868(16) 0.00387 814.7 30.7
833(15) 0.00428 814.2 32.0
848(15) 0.00413 813.7 33.4
882(16) 0.00379 813.2 35.0
817(15) 0.00418 812.7 36.7
786(15) 0.00428 812.2 38.5
872(15) 0.00411 811.6 40.6
844(15) 0.00403 811.1 42.8
882(16) 0.00358 810.6 45.3
817(16) 0.00394 810.1 48.0
849(15) 0.00404 809.6 51.1
874(15) 0.00408 809.1 54.7
872(16) 0.00377 808.6 58.9
877(16) 0.00361 808.1 63.8
859(16) 0.00389 807.6 69.7
900(16) 0.00380 807.1 76.9
880(15) 0.00406 806.5 85.9
891(16) 0.00376 806.0 96.9
906(17) 0.00355 805.5 110.6
919(16) 0.00359 805.0 127.4
941(16) 0.00373 804.5 147.8
973(16) 0.00371 804.0 172.1
955(17) 0.00353 803.5 200.3
1014(18) 0.003159 803.0 232.1
1039(17) 0.003257 802.5 266.9
1026(17) 0.003469 801.9 302.9
1066(17) 0.003366 801.4 337.5
1130(18) 0.002953 800.9 366.9
1214(20) 0.002561 800.4 386.8
1258(19) 0.002709 799.9 393.9
1237(18) 0.002923 799.4 387.8
1203(18) 0.002948 798.9 370.8
1207(19) 0.002795 798.4 347.2
1141(19) 0.002727 797.9 321.2
1063(17) 0.003252 797.3 296.1
1074(17) 0.003338 796.8 274.3
1077(17) 0.003318 796.3 256.9
972(17) 0.003507 795.8 244.7
959(17) 0.003304 795.3 238.3
989(17) 0.003385 794.8 237.7
990(16) 0.00359 794.3 243.1
1016(17) 0.003503 793.8 254.8
1053(18) 0.003125 793.3 272.8
1028(18) 0.003110 792.8 297.7
1058(18) 0.003158 792.2 329.8
1086(17) 0.003284 791.7 369.8
1137(18) 0.003036 791.2 418.2
1205(19) 0.002760 790.7 475.7
1268(20) 0.002555 790.2 542.7
1350(20) 0.002476 789.7 619.7
1458(20) 0.002460 789.2 706.4
1616(21) 0.002143 788.7 802.3
1734(22) 0.001950 788.2 906.0
1915(24) 0.001726 787.6 1015.1
1985(24) 0.001707 787.1 1125.5
2179(24) 0.001670 786.6 1231.6
2280(25) 0.001528 786.1 1325.9
2341(26) 0.001428 785.6 1399.6
2328(26) 0.001449 785.1 1444.4
2269(25) 0.001526 784.6 1454.5
2194(24) 0.001673 784.1 1428.5
2084(25) 0.001632 783.6 1369.7
2033(25) 0.001623 783.1 1285.3
1929(24) 0.001754 782.5 1184.0
1824(22) 0.001948 782.0 1074.0
1804(22) 0.002018 781.5 962.3
1610(22) 0.002104 781.0 853.6
1547(22) 0.002102 780.5 751.4
1514(21) 0.002228 780.0 657.5
1388(19) 0.002598 779.5 572.9
1288(19) 0.002800 779.0 498.0
1256(19) 0.002634 778.5 432.4
1215(19) 0.002642 777.9 375.8
1180(19) 0.002804 777.4 327.3
1103(17) 0.003214 776.9 286.2
1038(17) 0.003443 776.4 251.6
1032(17) 0.003261 775.9 222.5
1018(18) 0.003096 775.4 198.1
1068(18) 0.003155 774.9 177.6
1024(17) 0.003461 774.4 160.4
962(16) 0.00369 773.9 145.8
946(16) 0.00357 773.3 133.3
908(17) 0.003449 772.8 122.6
886(16) 0.00376 772.3 113.3
904(16) 0.00393 771.8 105.2
838(15) 0.00428 771.3 98.0
822(15) 0.00411 770.8 91.6
890(17) 0.00355 770.3 85.8
855(16) 0.00392 769.8 80.6
837(15) 0.00426 769.3 76.0
810(15) 0.00432 768.8 71.7
805(15) 0.00420 768.2 67.8
804(15) 0.00403 767.7 64.2
840(16) 0.00394 767.2 60.9
828(15) 0.00426 766.7 57.9
821(15) 0.00426 766.2 55.1
808(15) 0.00403 765.7 52.5
836(16) 0.00388 765.2 50.1
870(16) 0.00378 764.7 47.9
843(15) 0.00425 764.2 45.8
830(15) 0.00415 763.6 43.9
751(15) 0.00444 763.1 42.1
782(15) 0.00414 762.6 40.4
785(15) 0.00433 762.1 38.9
800(15) 0.00443 761.6 37.4
792(15) 0.00433 761.1 36.0
832(16) 0.00388 760.6 34.8
817(16) 0.00397 760.1 33.6
803(15) 0.00424 759.6 32.4
790(15) 0.00448 759.0 31.4
777(15) 0.00430 758.5 30.4
806(16) 0.00396 758.0 29.5
757(15) 0.00430 757.5 28.6
765(15) 0.00452 757.0 27.8
778(14) 0.00459 756.5 27.0
762(15) 0.00435 756.0 26.5
777(15) 0.00409 755.5 25.9
808(16) 0.00399 755.0 25.2
785(15) 0.00438 754.5 24.6
740(14) 0.00484 753.9 24.1
724(14) 0.00467 753.4 23.6
737(15) 0.00432 752.9 23.1
765(15) 0.00428 752.4 22.6
794(15) 0.00442 751.9 22.2
761(14) 0.00464 751.4 21.8
768(15) 0.00428 750.9 21.5
757(15) 0.00416 750.4 21.1
741(14) 0.00460 749.9 20.8
772(15) 0.00453 749.3 20.5
740(14) 0.00478 748.8 20.3
767(15) 0.00437 748.3 20.1
743(15) 0.00411 747.8 19.9
765(15) 0.00428 747.3 19.7
744(14) 0.00475 746.8 19.6
736(14) 0.00486 746.3 19.4
734(15) 0.00454 745.8 19.3
760(15) 0.00407 745.3 19.3
766(15) 0.00431 744.8 19.2
749(14) 0.00477 744.2 19.2
771(15) 0.00455 743.7 19.2
786(15) 0.00425 743.2 19.3
724(15) 0.00449 742.7 19.4
824(16) 0.00397 742.2 19.5
777(14) 0.00459 741.7 19.7
761(14) 0.00459 741.2 19.9
753(15) 0.00436 740.7 20.1
707(14) 0.00458 740.2 20.4
746(15) 0.00439 739.6 20.8
757(14) 0.00471 739.1 21.2
735(14) 0.00470 738.6 21.6
737(15) 0.00447 738.1 22.2
762(15) 0.00418 737.6 22.9
761(15) 0.00431 737.1 23.7
745(14) 0.00478 736.6 24.6
775(15) 0.00431 736.1 25.7
739(15) 0.00440 735.6 27.0
786(15) 0.00408 735.0 28.8
750(15) 0.00455 734.5 31.5
770(14) 0.00462 734.0 36.2
781(15) 0.00429 733.5 45.8
813(15) 0.00407 733.0 65.0
812(15) 0.00410 732.5 101.2
875(16) 0.00391 732.0 160.9
956(16) 0.00375 731.5 245.2
986(17) 0.003384 731.0 343.3
1062(18) 0.003112 730.5 430.8
1211(19) 0.002774 729.9 475.6
1303(19) 0.002678 729.4 457.0
1185(18) 0.003044 728.9 385.7
1004(17) 0.003242 728.4 292.7
883(16) 0.00370 727.9 206.5
857(16) 0.00394 727.4 142.9
825(15) 0.00422 726.9 104.8
788(15) 0.00452 726.4 86.9
783(15) 0.00426 725.9 81.8
817(16) 0.00385 725.3 83.7
820(15) 0.00409 724.8 89.3
772(14) 0.00461 724.3 97.1
812(15) 0.00437 723.8 106.3
797(15) 0.00424 723.3 116.7
843(16) 0.00364 722.8 128.4
826(16) 0.00399 722.3 141.1
790(15) 0.00452 721.8 154.7
886(16) 0.00399 721.3 168.9
870(16) 0.00384 720.7 183.3
904(17) 0.003427 720.2 197.4
926(16) 0.00365 719.7 210.5
922(16) 0.00387 719.2 222.0
923(16) 0.00385 718.7 230.9
928(16) 0.00358 718.2 236.5
938(17) 0.003358 717.7 238.3
884(16) 0.00390 717.2 236.1
936(16) 0.00385 716.7 230.1
864(15) 0.00406 716.2 220.8
858(16) 0.00388 715.6 209.0
868(16) 0.00371 715.1 195.4
873(16) 0.00383 714.6 180.9
866(15) 0.00415 714.1 166.1
846(15) 0.00415 713.6 151.4
836(15) 0.00405 713.1 137.3
791(15) 0.00423 712.6 123.9
780(15) 0.00429 712.1 111.5
779(14) 0.00459 711.6 100.1
739(14) 0.00469 711.0 89.8
840(16) 0.00384 710.5 80.5
759(15) 0.00441 710.0 72.2
747(15) 0.00454 709.5 64.8
741(14) 0.00480 709.0 58.3
749(15) 0.00446 708.5 52.6
774(15) 0.00414 708.0 47.6
707(14) 0.00463 707.5 43.3
721(14) 0.00466 707.0 39.5
716(14) 0.00497 706.5 36.3
722(15) 0.00454 705.9 33.4
723(15) 0.00448 705.4 30.9
750(15) 0.00432 704.9 28.7
695(14) 0.00494 704.4 26.8
692(14) 0.00515 703.9 25.1
720(14) 0.00468 703.4 23.6
744(15) 0.00431 702.9 22.3
702(14) 0.00474 702.4 21.1
693(14) 0.00496 701.9 20.0
715(14) 0.00497 701.3 19.0
707(14) 0.00477 700.8 18.1
740(15) 0.00424 700.3 17.3
682(14) 0.00490 699.8 16.5
727(14) 0.00490 699.3 15.8
711(14) 0.00501 698.8 15.1
706(14) 0.00494 698.3 14.5
698(15) 0.00453 697.8 14.0
692(14) 0.00476 697.3 13.4
725(14) 0.00483 696.7 13.0
726(14) 0.00491 696.2 12.6
753(15) 0.00441 695.7 12.2
707(15) 0.00445 695.2 11.8
717(14) 0.00468 694.7 11.4
715(14) 0.00497 694.2 11.0
659(13) 0.00538 693.7 10.7
692(14) 0.00489 693.2 10.4
663(14) 0.00478 692.7 10.1
655(14) 0.00515 692.2 9.8
683(14) 0.00520 691.6 9.6
718(14) 0.00484 691.1 9.3
671(14) 0.00493 690.6 9.1
712(15) 0.00437 690.1 8.9
729(15) 0.00444 689.6 8.7
671(13) 0.00528 689.1 8.5
713(14) 0.00474 688.6 8.4
722(15) 0.00454 688.1 8.2
666(14) 0.00489 687.6 8.1
648(14) 0.00515 687.0 8.0
672(13) 0.00529 686.5 7.9
686(14) 0.00499 686.0 7.8
695(14) 0.00476 685.5 7.7
673(14) 0.00482 685.0 7.6
698(14) 0.00485 684.5 7.6
704(14) 0.00501 684.0 7.6
665(14) 0.00509 683.5 7.6
700(14) 0.00472 683.0 7.7
681(14) 0.00482 682.5 7.8
683(14) 0.00491 681.9 7.9
682(14) 0.00520 681.4 8.1
693(14) 0.00479 680.9 8.3
698(14) 0.00462 680.4 8.6
676(14) 0.00492 679.9 9.0
663(14) 0.00515 679.4 9.4
673(13) 0.00530 678.9 9.9
663(14) 0.00502 678.4 10.4
667(14) 0.00483 677.9 11.0
674(14) 0.00500 677.3 11.6
674(14) 0.00515 676.8 12.2
658(13) 0.00538 676.3 12.8
655(14) 0.00493 675.8 13.4
687(15) 0.00452 675.3 13.8
656(14) 0.00511 674.8 14.0
662(13) 0.00530 674.3 14.1
698(14) 0.00510 673.8 13.9
661(14) 0.00499 673.3 13.5
700(15) 0.00430 672.7 13.0
648(14) 0.00511 672.2 12.3
649(13) 0.00542 671.7 11.6
674(14) 0.00521 671.2 10.8
697(14) 0.00477 670.7 10.1
701(15) 0.00439 670.2 9.4
663(14) 0.00496 669.7 8.7
661(13) 0.00533 669.2 8.1
684(14) 0.00512 668.7 7.6
669(14) 0.00497 668.2 7.1
662(14) 0.00492 667.6 6.7
699(14) 0.00477 667.1 6.3
684(14) 0.00516 666.6 6.0
648(13) 0.00525 666.1 5.8
633(14) 0.00520 665.6 5.6
622(13) 0.00524 665.1 5.4
680(14) 0.00481 664.6 5.2
664(13) 0.00537 664.1 5.1
667(14) 0.00514 663.6 5.0
661(14) 0.00511 663.0 4.9
671(14) 0.00484 662.7 4.8
657(14) 0.00494 662.3 4.8
631(13) 0.00557 662.0 4.7
669(14) 0.00511 661.7 4.7
649(14) 0.00512 661.3 4.7
665(14) 0.00495 661.0 4.7
666(14) 0.00507 660.6 4.7
617(13) 0.00571 660.3 4.7
650(14) 0.00509 659.9 4.7
652(14) 0.00511 659.6 4.8
710(14) 0.00459 659.3 4.8
671(14) 0.00504 658.9 4.9
676(13) 0.00523 658.6 4.9
670(14) 0.00495 658.2 5.0
635(14) 0.00512 657.9 5.1
644(14) 0.00515 657.6 5.2
671(14) 0.00509 657.2 5.3
685(14) 0.00519 656.9 5.4
666(14) 0.00496 656.5 5.6
643(14) 0.00505 656.2 5.7
664(14) 0.00492 655.8 5.8
664(14) 0.00520 655.5 6.0
668(13) 0.00529 655.2 6.2
673(14) 0.00481 654.8 6.3
663(14) 0.00466 654.5 6.5
659(14) 0.00495 654.1 6.7
660(13) 0.00523 653.8 6.9
679(13) 0.00524 653.5 7.1
679(14) 0.00485 653.1 7.3
661(14) 0.00461 652.8 7.5
659(14) 0.00494 652.4 7.7
677(14) 0.00517 652.1 7.9
657(13) 0.00534 651.8 8.5
671(14) 0.00483 651.4 8.6
663(14) 0.00461 651.1 8.8
684(14) 0.00489 650.7 8.9
693(14) 0.00505 650.4 9.0
684(14) 0.00520 650.0 9.1
639(14) 0.00516 649.7 9.2
657(14) 0.00474 649.4 9.2
649(14) 0.00522 649.0 9.2
669(13) 0.00530 648.7 9.1
632(13) 0.00552 648.3 9.1
645(14) 0.00506 648.0 8.9
608(14) 0.00521 647.7 8.8
650(14) 0.00509 647.3 8.6
658(13) 0.00529 647.0 8.5
669(14) 0.00522 646.6 8.3
671(14) 0.00496 646.3 8.1
679(14) 0.00467 646.0 7.8
652(14) 0.00510 645.6 7.6
640(13) 0.00550 645.3 7.4
654(13) 0.00529 644.9 7.2
653(14) 0.00488 644.6 7.0
647(14) 0.00498 644.2 6.7
676(14) 0.00494 643.9 6.5
689(14) 0.00514 643.6 6.3
647(13) 0.00528 643.2 6.1
657(14) 0.00492 642.9 5.9
660(14) 0.00499 642.5 5.8
637(13) 0.00528 642.2 5.6
645(13) 0.00549 641.9 5.5
667(14) 0.00503 641.5 5.3
687(14) 0.00477 641.2 5.2
656(14) 0.00502 640.8 5.1
652(13) 0.00524 640.5 4.9
641(13) 0.00550 640.1 4.8
658(14) 0.00501 639.8 4.8
667(14) 0.00482 639.5 4.7
666(14) 0.00500 639.1 4.6
648(13) 0.00545 638.8 4.6
664(13) 0.00534 638.4 4.5
646(14) 0.00513 638.1 4.5
663(14) 0.00468 637.8 4.5
652(14) 0.00510 637.4 4.4
653(13) 0.00529 637.1 4.4
630(13) 0.00563 636.7 4.5
657(14) 0.00495 636.4 4.5
660(14) 0.00463 636.1 4.5
638(14) 0.00509 635.7 4.5
632(13) 0.00560 635.4 4.6
650(13) 0.00543 635.0 4.7
646(14) 0.00516 634.7 4.7
611(14) 0.00510 634.3 4.8
619(13) 0.00542 634.0 5.0
646(13) 0.00549 633.7 5.1
623(13) 0.00553 633.3 5.2
614(13) 0.00539 633.0 5.4
657(14) 0.00469 632.6 5.6
630(13) 0.00525 632.3 5.8
624(13) 0.00563 632.0 6.1
603(13) 0.00581 631.6 6.4
630(13) 0.00530 631.3 6.7
622(14) 0.00515 630.9 7.1
643(14) 0.00504 630.6 7.5
666(13) 0.00534 630.2 8.0
632(13) 0.00539 629.9 8.5
594(13) 0.00558 629.6 9.2
626(14) 0.00517 629.2 9.9
643(14) 0.00507 628.9 10.8
640(13) 0.00548 628.5 11.9
666(14) 0.00505 628.2 13.1
653(14) 0.00495 627.9 14.6
662(14) 0.00485 627.5 16.5
640(13) 0.00526 627.2 18.8
617(13) 0.00572 626.8 21.8
696(14) 0.00488 626.5 26.2
667(14) 0.00492 626.2 32.9
660(14) 0.00497 625.8 44.0
720(14) 0.00463 625.5 62.6
682(14) 0.00520 625.1 93.1
750(15) 0.00456 624.8 140.1
771(15) 0.00438 624.4 207.0
860(16) 0.00392 624.1 292.7
945(16) 0.00367 623.8 389.4
1007(16) 0.00359 623.4 480.1
1104(18) 0.003107 623.1 538.9
1229(19) 0.002641 622.7 541.3
1193(19) 0.002794 622.4 486.4
1087(17) 0.003277 622.1 397.1
921(16) 0.00388 621.7 300.1
823(16) 0.00393 621.4 213.1
733(15) 0.00444 621.0 144.6
671(14) 0.00502 620.7 96.0
691(14) 0.00499 620.4 64.4
649(13) 0.00540 620.0 45.0
649(14) 0.00508 619.7 33.4
715(15) 0.00434 619.3 26.4
675(14) 0.00500 619.0 21.9
663(13) 0.00534 618.6 18.7
616(13) 0.00574 618.3 16.3
611(13) 0.00540 618.0 14.4
655(14) 0.00462 617.6 12.8
643(14) 0.00521 617.3 11.6
634(13) 0.00556 616.9 10.5
661(13) 0.00525 616.6 9.5
600(13) 0.00555 616.3 8.7
633(14) 0.00488 615.9 8.1
653(14) 0.00504 615.6 7.5
651(13) 0.00544 615.2 6.9
634(13) 0.00546 614.9 6.5
596(13) 0.00563 614.5 6.1
630(14) 0.00499 614.2 5.7
572(13) 0.00570 613.9 5.4
611(13) 0.00574 613.5 5.1
605(13) 0.00578 613.2 4.9
600(13) 0.00561 612.8 4.6
635(14) 0.00503 612.5 4.4
627(13) 0.00525 612.2 4.2
579(13) 0.00605 611.8 4.0
622(13) 0.00551 611.5 3.9
622(13) 0.00530 611.1 3.7
644(14) 0.00480 610.8 3.6
615(13) 0.00541 610.5 3.5
617(13) 0.00568 610.1 3.4
648(14) 0.00522 609.8 3.2
621(13) 0.00530 609.4 3.1
602(13) 0.00550 609.1 3.1
612(13) 0.00540 608.7 3.0
626(13) 0.00563 608.4 2.9
606(13) 0.00557 608.1 2.8
610(13) 0.00530 607.7 2.8
592(13) 0.00546 607.4 2.7
622(13) 0.00537 607.0 2.6
597(13) 0.00590 606.7 2.6
609(13) 0.00528 606.4 2.5
568(13) 0.00580 606.0 2.5
609(13) 0.00530 605.7 2.4
614(13) 0.00551 605.3 2.4
584(13) 0.00594 605.0 2.3
617(13) 0.00525 604.6 2.3
591(13) 0.00527 604.3 2.3
607(13) 0.00539 604.0 2.2
596(13) 0.00578 603.6 2.2
627(13) 0.00556 603.3 2.2
604(13) 0.00544 602.9 2.1
583(13) 0.00541 602.6 2.1
615(14) 0.00522 602.3 2.1
579(13) 0.00601 601.9 2.1
598(13) 0.00587 601.6 2.0
593(13) 0.00543 601.2 2.0
618(14) 0.00486 600.9 2.0
610(13) 0.00539 600.6 2.0
615(13) 0.00556 600.2 2.0
574(12) 0.00614 599.9 2.0
569(13) 0.00575 599.5 1.9
570(13) 0.00525 599.2 1.9
585(13) 0.00556 598.8 1.9
591(13) 0.00596 598.5 1.9
620(13) 0.00564 598.2 1.9
597(13) 0.00562 597.8 1.9
607(14) 0.00512 597.5 1.9
594(13) 0.00565 597.1 1.9
643(13) 0.00548 596.8 1.9
620(13) 0.00560 596.5 1.9
586(13) 0.00569 596.1 1.9
615(14) 0.00506 595.8 1.9
611(13) 0.00536 595.4 1.9
602(13) 0.00589 595.1 1.9
594(13) 0.00576 594.8 1.9
578(13) 0.00565 594.4 1.9
593(13) 0.00533 594.1 1.9
619(13) 0.00536 593.7 1.9
605(13) 0.00577 593.4 2.0
604(13) 0.00565 593.0 2.0
593(13) 0.00555 592.7 2.0
588(13) 0.00544 592.4 2.0
623(13) 0.00534 592.0 2.1
586(13) 0.00599 591.7 2.1
583(13) 0.00572 591.3 2.1
618(14) 0.00521 591.0 2.2
594(13) 0.00544 590.7 2.2
574(13) 0.00595 590.3 2.3
584(13) 0.00602 590.0 2.4
599(13) 0.00550 589.6 2.5
554(13) 0.00587 589.3 2.6
608(13) 0.00531 588.9 2.7
589(13) 0.00586 588.6 2.9
573(12) 0.00615 588.3 3.1
617(13) 0.00529 587.9 3.4
567(13) 0.00563 587.6 3.9
590(13) 0.00566 587.2 4.5
574(13) 0.00597 586.9 5.6
572(12) 0.00615 586.6 7.4
594(13) 0.00552 586.2 10.1
613(14) 0.00515 585.9 14.2
613(13) 0.00536 585.5 19.6
612(13) 0.00562 585.2 26.4
616(13) 0.00570 584.9 33.6
584(13) 0.00592 584.5 40.1
627(14) 0.00498 584.2 43.7
593(13) 0.00558 583.8 43.0
591(13) 0.00594 583.5 38.4
612(13) 0.00576 583.1 31.5
630(13) 0.00526 582.8 24.3
617(14) 0.00512 582.5 17.9
609(13) 0.00549 582.3 12.9
610(13) 0.00576 582.0 9.2
578(13) 0.00600 581.8 6.8
579(13) 0.00557 581.6 5.3
601(14) 0.00509 581.3 4.3
591(13) 0.00556 581.1 3.8
542(12) 0.00645 580.9 3.4
574(13) 0.00579 580.7 3.1
572(13) 0.00574 580.4 2.9
570(13) 0.00548 580.2 2.8
586(13) 0.00561 580.0 2.6
551(12) 0.00637 579.8 2.5
592(13) 0.00587 579.5 2.5
563(13) 0.00592 579.3 2.4
622(14) 0.00511 579.1 2.3
560(13) 0.00595 578.8 2.3
609(13) 0.00574 578.6 2.2
593(13) 0.00585 578.4 2.2
558(13) 0.00604 578.2 2.2
555(13) 0.00587 577.9 2.2
540(12) 0.00611 577.7 2.1
562(12) 0.00626 577.5 2.1
590(13) 0.00584 577.3 2.1
576(13) 0.00586 577.0 2.1
604(13) 0.00552 576.8 2.1
595(13) 0.00568 576.6 2.1
552(12) 0.00639 576.3 2.1
566(13) 0.00587 576.1 2.1
573(13) 0.00558 575.9 2.1
585(13) 0.00557 575.7 2.1
555(13) 0.00595 575.4 2.1
557(12) 0.00633 575.2 2.1
606(13) 0.00544 575.0 2.1
546(13) 0.00601 574.8 2.1
560(13) 0.00589 574.5 2.1
582(13) 0.00584 574.3 2.1
549(12) 0.00640 574.1 2.1
587(13) 0.00555 573.8 2.2
574(13) 0.00551 573.6 2.2
571(13) 0.00598 573.4 2.2
591(13) 0.00579 573.2 2.2
577(12) 0.00613 572.9 2.2
576(13) 0.00573 572.7 2.2
561(13) 0.00565 572.5 2.3
566(13) 0.00586 572.3 2.3
561(12) 0.00633 572.0 2.3
555(12) 0.00625 571.8 2.3
556(13) 0.00597 571.6 2.3
573(14) 0.00521 571.3 2.4
568(13) 0.00556 571.1 2.4
558(12) 0.00634 570.9 2.4
548(12) 0.00640 570.7 2.5
579(13) 0.00567 570.4 2.5
571(13) 0.00542 570.2 2.5
568(13) 0.00586 570.0 2.5
589(13) 0.00589 569.8 2.6
547(12) 0.00627 569.5 2.6
586(13) 0.00546 569.3 2.6
577(13) 0.00539 569.1 2.7
557(13) 0.00596 568.8 2.7
564(12) 0.00620 568.6 2.8
586(13) 0.00588 568.4 2.8
566(13) 0.00585 568.2 2.9
559(13) 0.00571 567.9 2.9
568(13) 0.00582 567.7 3.0
562(12) 0.00626 567.5 3.0
576(13) 0.00604 567.3 3.1
562(13) 0.00583 567.0 3.1
563(13) 0.00572 566.8 3.2
566(13) 0.00598 566.6 3.2
552(12) 0.00633 566.3 3.3
599(13) 0.00558 566.1 3.4
557(13) 0.00585 565.9 3.4
561(13) 0.00575 565.7 3.5
567(13) 0.00581 565.4 3.6
577(12) 0.00608 565.2 3.6
562(13) 0.00582 565.0 3.7
535(12) 0.00605 564.8 3.8
532(12) 0.00621 564.5 3.9
569(13) 0.00590 564.3 3.9
599(13) 0.00594 564.1 4.0
571(13) 0.00564 563.8 4.1
558(13) 0.00562 563.6 4.2
545(13) 0.00596 563.4 4.3
548(12) 0.00625 563.2 4.4
585(13) 0.00601 562.9 4.5
554(13) 0.00586 562.7 4.6
559(13) 0.00563 562.5 4.7
556(13) 0.00593 562.3 4.8
601(13) 0.00567 562.0 5.0
550(12) 0.00641 561.8 5.1
545(13) 0.00593 561.6 5.2
572(13) 0.00538 561.3 5.4
568(13) 0.00567 561.1 5.5
526(12) 0.00653 560.9 5.7
544(12) 0.00642 560.7 5.8
549(12) 0.00605 560.4 6.0
577(13) 0.00532 560.2 6.2
567(13) 0.00574 560.0 6.4
552(12) 0.00631 559.8 6.6
602(13) 0.00572 559.5 6.8
536(12) 0.00618 559.3 7.0
543(13) 0.00570 559.1 7.2
553(13) 0.00597 558.8 7.5
552(12) 0.00636 558.6 7.8
586(13) 0.00587 558.4 8.0
548(13) 0.00595 558.2 8.3
553(13) 0.00553 557.9 8.6
573(13) 0.00567 557.7 9.0
541(12) 0.00646 557.5 9.3
548(12) 0.00632 557.3 9.7
582(13) 0.00574 557.0 10.1
564(13) 0.00566 556.8 10.6
551(13) 0.00591 556.6 11.1
563(12) 0.00628 556.3 11.6
557(13) 0.00600 556.1 12.2
547(13) 0.00603 555.9 12.8
564(13) 0.00564 555.7 13.4
570(13) 0.00573 555.4 14.2
565(12) 0.00617 555.2 15.0
578(13) 0.00586 555.0 15.8
592(13) 0.00567 554.8 16.8
587(13) 0.00553 554.5 17.8
572(13) 0.00583 554.3 18.9
585(13) 0.00603 554.1 20.1
565(13) 0.00598 553.8 21.5
559(13) 0.00576 553.6 22.9
592(13) 0.00541 553.4 24.5
621(13) 0.00533 553.2 26.2
593(13) 0.00593 552.9 28.1
580(13) 0.00582 552.7 30.1
519(12) 0.00631 552.5 32.3
584(13) 0.00548 552.3 34.6
555(12) 0.00626 552.0 37.1
605(13) 0.00576 551.8 39.8
593(13) 0.00554 551.6 42.7
592(13) 0.00530 551.3 45.7
623(13) 0.00529 551.1 48.9
597(13) 0.00580 550.9 52.3
599(13) 0.00593 550.7 55.9
621(13) 0.00526 550.4 59.6
604(14) 0.00521 550.2 63.5
600(13) 0.00554 550.0 67.4
599(13) 0.00577 549.8 71.5
599(13) 0.00580 549.5 75.5
579(13) 0.00565 549.3 79.6
616(14) 0.00503 549.1 83.5
660(14) 0.00501 548.8 87.3
640(13) 0.00543 548.6 90.9
643(13) 0.00541 548.4 94.1
668(14) 0.00483 548.2 96.9
644(14) 0.00466 547.9 99.2
627(13) 0.00528 547.7 100.9
638(13) 0.00541 547.5 102.1
655(13) 0.00529 547.3 102.4
616(13) 0.00543 547.0 102.1
603(14) 0.00512 546.8 101.1
627(14) 0.00505 546.6 99.5
620(13) 0.00564 546.3 97.2
623(13) 0.00549 546.1 94.5
587(13) 0.00563 545.9 91.3
607(13) 0.00529 545.7 87.8
618(13) 0.00524 545.4 84.0
629(13) 0.00561 545.2 80.1
629(13) 0.00536 545.0 76.0
625(14) 0.00515 544.8 72.0
569(13) 0.00556 544.5 67.9
558(13) 0.00582 544.3 64.0
603(13) 0.00583 544.1 60.1
606(13) 0.00551 543.8 56.4
595(13) 0.00554 543.6 52.8
595(13) 0.00542 543.4 49.4
585(13) 0.00575 543.2 46.2
573(12) 0.00612 542.9 43.1
551(12) 0.00606 542.7 40.3
561(13) 0.00585 542.5 37.6
560(13) 0.00572 542.3 35.0
589(13) 0.00569 542.0 32.7
575(12) 0.00606 541.8 30.5
562(13) 0.00602 541.6 28.5
531(12) 0.00608 541.4 26.6
532(12) 0.00624 541.1 24.9
552(12) 0.00619 540.9 23.3
567(12) 0.00608 540.7 21.9
561(13) 0.00585 540.4 20.6
530(13) 0.00579 540.2 19.3
535(12) 0.00613 540.0 18.2
542(12) 0.00627 539.8 17.2
533(12) 0.00650 539.5 16.3
564(13) 0.00580 539.3 15.4
532(13) 0.00582 539.1 14.6
535(12) 0.00615 538.9 13.9
553(12) 0.00615 538.6 13.3
530(12) 0.00668 538.4 12.7
543(12) 0.00611 538.2 12.1
564(13) 0.00546 537.9 11.6
548(12) 0.00610 537.7 11.2
581(12) 0.00606 537.5 10.8
563(12) 0.00616 537.3 10.4
561(13) 0.00581 537.0 10.0
551(13) 0.00548 536.8 9.7
541(13) 0.00602 536.6 9.4
557(12) 0.00629 536.4 9.1
524(12) 0.00658 536.1 8.9
555(13) 0.00586 535.9 8.7
546(13) 0.00567 535.7 8.5
545(12) 0.00606 535.4 8.3
542(12) 0.00643 535.2 8.1
550(12) 0.00636 535.0 8.0
531(12) 0.00616 534.8 7.9
519(12) 0.00606 534.5 7.8
529(12) 0.00611 534.3 7.7
537(12) 0.00654 534.1 7.6
533(12) 0.00641 533.9 7.6
536(12) 0.00607 533.6 7.6
565(13) 0.00551 533.4 7.6
517(12) 0.00641 533.2 7.6
540(12) 0.00650 532.9 7.7
524(12) 0.00656 532.7 7.8
562(13) 0.00563 532.5 8.0
506(12) 0.00653 532.3 8.2
561(13) 0.00587 532.0 8.5
528(12) 0.00662 531.8 9.0
531(12) 0.00639 531.6 9.5
541(13) 0.00604 531.4 10.2
509(12) 0.00636 531.1 11.2
518(12) 0.00631 530.9 12.5
554(12) 0.00633 530.7 14.2
555(13) 0.00591 530.4 16.3
552(13) 0.00573 530.2 19.0
532(12) 0.00618 530.0 22.4
552(12) 0.00608 529.8 26.3
549(12) 0.00637 529.5 30.9
577(13) 0.00567 529.3 36.0
561(13) 0.00580 529.1 41.4
565(13) 0.00582 528.9 46.6
553(12) 0.00614 528.6 51.0
591(13) 0.00594 528.4 53.7
576(13) 0.00566 528.2 54.3
586(13) 0.00536 527.9 52.6
575(13) 0.00586 527.7 48.9
555(12) 0.00628 527.5 43.9
571(12) 0.00620 527.3 38.5
509(12) 0.00655 527.0 33.1
545(13) 0.00568 526.8 28.0
563(13) 0.00580 526.6 23.6
512(12) 0.00671 526.4 19.7
541(12) 0.00648 526.1 16.6
524(12) 0.00630 525.9 14.0
511(13) 0.00597 525.7 11.9
516(12) 0.00640 525.4 10.3
537(12) 0.00642 525.2 9.0
516(12) 0.00684 525.0 8.0
513(12) 0.00659 524.8 7.2
525(13) 0.00598 524.5 6.5
531(12) 0.00606 524.3 6.0
542(12) 0.00648 524.1 5.6
511(12) 0.00678 523.9 5.2
533(12) 0.00611 523.6 4.9
527(13) 0.00592 523.4 4.6
544(12) 0.00609 523.2 4.4
545(12) 0.00643 522.9 4.2
490(11) 0.00711 522.7 4.0
524(12) 0.00621 522.5 3.8
537(13) 0.00582 522.3 3.7
491(12) 0.00678 522.0 3.5
524(12) 0.00668 521.8 3.4
527(12) 0.00648 521.6 3.2
501(12) 0.00673 521.4 3.1
523(12) 0.00614 521.1 3.0
484(12) 0.00688 520.9 2.9
521(12) 0.00665 520.7 2.8
528(12) 0.00640 520.4 2.8
535(13) 0.00596 520.2 2.7
507(12) 0.00628 520.0 2.6
537(12) 0.00612 519.8 2.5
487(11) 0.00721 519.5 2.5
486(12) 0.00686 519.3 2.4
512(12) 0.00626 519.1 2.4
487(12) 0.00674 518.9 2.3
514(12) 0.00649 518.6 2.2
547(12) 0.00632 518.4 2.2
531(12) 0.00626 518.2 2.1
524(13) 0.00601 517.9 2.1
513(12) 0.00646 517.7 2.1
520(12) 0.00648 517.5 2.0
500(12) 0.00698 517.3 2.0
522(12) 0.00612 517.0 1.9
509(12) 0.00617 516.8 1.9
524(12) 0.00615 516.6 1.9
513(12) 0.00676 516.4 1.8
518(12) 0.00671 516.1 1.8
523(12) 0.00637 515.9 1.8
529(13) 0.00580 515.7 1.8
500(12) 0.00682 515.4 1.7
500(12) 0.00692 515.2 1.7
538(12) 0.00644 515.0 1.7
532(12) 0.00626 514.8 1.6
518(13) 0.00600 514.5 1.6
514(12) 0.00619 514.3 1.6
516(12) 0.00669 514.1 1.6
478(11) 0.00715 513.9 1.6
512(12) 0.00631 513.6 1.5
543(13) 0.00556 513.4 1.5
521(12) 0.00643 513.2 1.5
517(12) 0.00672 512.9 1.5
518(12) 0.00672 512.7 1.5
513(12) 0.00642 512.5 1.4
494(12) 0.00640 512.3 1.4
511(12) 0.00640 512.0 1.4
496(12) 0.00702 511.8 1.4
528(12) 0.00661 511.6 1.4
502(12) 0.00641 511.4 1.4
512(13) 0.00600 511.1 1.3
495(12) 0.00656 510.9 1.3
516(12) 0.00676 510.7 1.3
511(12) 0.00676 510.4 1.3
525(12) 0.00634 510.2 1.3
517(12) 0.00615 510.0 1.3
484(12) 0.00670 509.8 1.3
488(11) 0.00716 509.5 1.3
481(12) 0.00706 509.3 1.2
501(12) 0.00653 509.1 1.2
518(12) 0.00611 508.9 1.2
498(12) 0.00663 508.6 1.2
478(11) 0.00732 508.4 1.2
530(12) 0.00620 508.2 1.2
511(12) 0.00628 507.9 1.2
535(13) 0.00595 507.7 1.2
494(12) 0.00691 507.5 1.2
489(11) 0.00714 507.3 1.2
513(12) 0.00638 507.0 1.1
538(13) 0.00602 506.8 1.1
520(12) 0.00637 506.6 1.1
528(12) 0.00641 506.4 1.1
492(12) 0.00704 506.1 1.1
490(12) 0.00649 505.9 1.1
499(12) 0.00642 505.7 1.1
486(12) 0.00671 505.4 1.1
449(11) 0.00736 505.2 1.1
541(12) 0.00653 505.0 1.1
526(12) 0.00619 504.8 1.1
501(12) 0.00638 504.5 1.1
534(12) 0.00622 504.3 1.1
502(12) 0.00672 504.1 1.1
488(11) 0.00714 503.9 1.1
528(12) 0.00619 503.6 1.1
493(12) 0.00632 503.4 1.0
487(12) 0.00658 503.2 1.0
496(12) 0.00697 502.9 1.0
513(12) 0.00678 502.7 1.0
528(12) 0.00610 502.5 1.0
508(12) 0.00611 502.3 1.0
511(12) 0.00638 502.0 1.0
479(11) 0.00731 501.8 1.0
495(12) 0.00696 501.6 1.0
490(12) 0.00682 501.4 1.0
516(13) 0.00585 501.1 0.9
491(12) 0.00678 500.9 0.9
503(12) 0.00699 500.7 0.9
480(11) 0.00709 500.4 0.9
486(12) 0.00687 500.2 0.8
500(12) 0.00631 500.0 0.8
489(12) 0.00684 499.8 0.8
471(11) 0.00747 499.7 0.8
515(12) 0.00656 499.5 0.8
499(12) 0.00641 499.3 0.8
489(12) 0.00643 499.1 0.8
486(12) 0.00672 498.9 0.8
484(11) 0.00711 498.8 0.9
498(12) 0.00681 498.6 0.9
494(12) 0.00660 498.4 0.9
506(12) 0.00633 498.2 0.9
462(12) 0.00701 498.0 0.9
471(11) 0.00746 497.9 0.9
510(12) 0.00655 497.7 0.9
511(12) 0.00621 497.5 0.9
542(13) 0.00591 497.3 0.9
476(12) 0.00698 497.1 0.9
491(11) 0.00716 497.0 0.9
481(12) 0.00692 496.8 0.9
499(12) 0.00660 496.6 0.9
549(13) 0.00597 496.4 0.9
501(12) 0.00668 496.2 0.9
518(12) 0.00674 496.1 0.9
487(12) 0.00660 495.9 0.9
490(12) 0.00643 495.7 0.9
491(12) 0.00659 495.5 0.9
472(11) 0.00721 495.3 0.9
506(12) 0.00691 495.1 1.0
495(12) 0.00661 495.0 1.0
478(12) 0.00655 494.8 1.0
489(12) 0.00644 494.6 1.0
475(11) 0.00724 494.4 1.0
507(12) 0.00688 494.2 1.0
488(12) 0.00651 494.1 1.0
513(13) 0.00601 493.9 1.1
492(12) 0.00667 493.7 1.1
495(12) 0.00707 493.5 1.1
499(12) 0.00684 493.3 1.1
510(12) 0.00653 493.2 1.2
479(12) 0.00651 493.0 1.2
458(11) 0.00723 492.8 1.2
503(12) 0.00691 492.6 1.3
513(12) 0.00678 492.4 1.3
501(12) 0.00639 492.3 1.3
492(12) 0.00622 492.1 1.4
491(12) 0.00672 491.9 1.4
517(12) 0.00679 491.7 1.5
481(11) 0.00714 491.5 1.5
496(12) 0.00661 491.4 1.6
498(12) 0.00647 491.2 1.7
504(12) 0.00665 491.0 1.7
480(11) 0.00733 490.8 1.8
504(12) 0.00673 490.6 1.9
501(12) 0.00636 490.4 2.0
490(12) 0.00640 490.3 2.1
491(12) 0.00660 490.1 2.2
453(11) 0.00769 489.9 2.3
500(12) 0.00674 489.7 2.4
491(12) 0.00661 489.5 2.5
507(12) 0.00632 489.4 2.6
490(12) 0.00669 489.2 2.7
501(12) 0.00702 489.0 2.9
504(12) 0.00659 488.8 3.0
512(12) 0.00641 488.6 3.3
532(13) 0.00601 488.5 3.4
506(12) 0.00659 488.3 3.5
487(11) 0.00712 488.1 3.6
513(12) 0.00651 487.9 3.7
515(12) 0.00619 487.7 3.8
516(12) 0.00612 487.6 3.9
496(12) 0.00677 487.4 3.9
496(12) 0.00696 487.2 4.0
492(12) 0.00658 487.0 4.0
521(13) 0.00602 486.8 4.0
486(12) 0.00701 486.7 4.6
539(12) 0.00638 486.5 4.6
497(12) 0.00705 486.3 4.6
476(12) 0.00674 486.1 4.5
491(12) 0.00632 485.9 4.5
511(12) 0.00650 485.7 4.4
504(12) 0.00678 485.6 4.3
487(11) 0.00717 485.4 4.2
487(12) 0.00670 485.2 4.1
495(12) 0.00629 485.0 4.1
499(12) 0.00667 484.8 4.0
471(11) 0.00732 484.7 3.9
509(12) 0.00680 484.5 3.8
474(12) 0.00705 484.3 3.7
482(12) 0.00632 484.1 3.7
475(12) 0.00704 483.9 3.6
503(12) 0.00688 483.8 3.6
466(11) 0.00746 483.6 3.5
499(12) 0.00636 483.4 3.5
496(13) 0.00603 483.2 3.4
492(12) 0.00661 483.0 3.4
448(11) 0.00770 482.9 3.4
483(12) 0.00708 482.7 3.3
491(12) 0.00659 482.5 3.3
480(12) 0.00661 482.3 3.3
509(12) 0.00629 482.1 3.3
491(11) 0.00715 482.0 3.3
472(11) 0.00723 481.8 3.3
479(12) 0.00678 481.6 3.4
509(13) 0.00604 481.4 3.4
485(12) 0.00669 481.2 3.4
461(11) 0.00757 481.0 3.5
488(12) 0.00685 480.9 3.5
482(12) 0.00678 480.7 3.5
493(12) 0.00638 480.5 3.6
504(12) 0.00656 480.3 3.6
501(12) 0.00698 480.1 3.7
500(12) 0.00664 480.0 3.8
481(12) 0.00694 479.8 3.9
470(12) 0.00689 479.6 4.0
473(12) 0.00689 479.4 4.0
483(11) 0.00715 479.2 4.1
507(12) 0.00650 479.1 4.2
481(12) 0.00688 478.9 4.3
508(12) 0.00628 478.7 4.4
514(12) 0.00658 478.5 4.5
503(12) 0.00695 478.3 4.7
463(12) 0.00697 478.2 4.8
466(12) 0.00699 478.0 4.9
498(12) 0.00648 477.8 5.1
485(12) 0.00692 477.6 5.2
483(11) 0.00722 477.4 5.4
464(12) 0.00704 477.3 5.5
467(12) 0.00675 477.1 5.7
487(12) 0.00669 476.9 5.9
478(12) 0.00707 476.7 6.1
464(11) 0.00751 476.5 6.3
504(12) 0.00649 476.3 6.5
466(12) 0.00669 476.2 6.8
490(12) 0.00656 476.0 7.0
483(11) 0.00715 475.8 7.3
495(12) 0.00696 475.6 8.5
508(12) 0.00637 475.4 8.8
497(12) 0.00626 475.3 9.2
487(12) 0.00687 475.1 9.6
456(11) 0.00743 474.9 10.0
503(12) 0.00695 474.7 10.5
500(12) 0.00665 474.5 11.0
490(12) 0.00639 474.4 11.6
498(12) 0.00648 474.2 12.2
520(12) 0.00673 474.0 12.9
512(12) 0.00678 473.8 13.7
493(12) 0.00649 473.6 14.6
472(12) 0.00660 473.5 15.6
477(12) 0.00691 473.3 16.6
476(11) 0.00729 473.1 17.9
470(11) 0.00716 472.9 19.2
485(12) 0.00678 472.7 20.7
511(12) 0.00623 472.6 22.4
482(12) 0.00678 472.4 24.3
488(11) 0.00718 472.2 26.3
499(12) 0.00683 472.0 28.5
473(12) 0.00706 471.8 31.0
480(12) 0.00662 471.6 33.6
492(12) 0.00670 471.5 36.5
504(12) 0.00696 471.3 39.5
516(12) 0.00662 471.1 42.7
522(12) 0.00628 470.9 46.1
514(12) 0.00610 470.7 49.6
512(12) 0.00626 470.6 53.1
514(12) 0.00686 470.4 56.7
515(12) 0.00654 470.2 60.1
508(12) 0.00641 470.0 63.2
515(12) 0.00629 469.8 66.5
516(12) 0.00646 469.7 69.0
540(12) 0.00648 469.5 70.9
532(12) 0.00625 469.3 72.3
497(12) 0.00660 469.1 73.2
512(12) 0.00636 468.9 73.6
520(12) 0.00651 468.8 73.7
523(12) 0.00670 468.6 73.6
536(12) 0.00614 468.4 73.5
535(13) 0.00595 468.2 73.7
522(12) 0.00608 468.0 74.4
526(12) 0.00651 467.9 76.0
524(12) 0.00667 467.7 79.1
521(12) 0.00633 467.5 84.7
537(13) 0.00587 467.3 93.9
587(13) 0.00555 467.1 108.4
589(13) 0.00584 466.9 130.1
645(13) 0.00549 466.8 160.7
652(14) 0.00518 466.6 200.9
699(15) 0.00451 466.4 250.0
751(15) 0.00446 466.2 304.7
803(15) 0.00443 466.0 358.5
810(15) 0.00442 465.9 401.1
883(16) 0.00385 465.7 423.0
915(17) 0.003323 465.5 423.6
880(16) 0.00379 465.3 413.6
808(15) 0.00439 465.1 406.8
779(15) 0.00449 465.0 414.2
809(15) 0.00425 464.8 441.4
883(17) 0.003483 464.6 489.1
936(16) 0.00357 464.4 553.5
1088(17) 0.003327 464.2 625.1
1204(18) 0.002963 464.1 688.4
1254(19) 0.002751 463.9 724.6
1271(20) 0.002531 463.7 719.2
1180(18) 0.002903 463.5 671.3
1031(17) 0.003504 463.3 593.5
953(16) 0.00364 463.2 502.6
881(16) 0.00376 463.0 412.0
779(15) 0.00419 462.8 329.9
694(14) 0.00482 462.6 260.0
690(14) 0.00517 462.4 203.3
659(14) 0.00520 462.2 159.3
585(13) 0.00557 462.1 126.3
591(13) 0.00528 461.9 102.0
593(13) 0.00546 461.7 84.3
536(12) 0.00653 461.5 71.4
505(12) 0.00657 461.3 61.8
515(12) 0.00635 461.2 54.5
564(13) 0.00572 461.0 48.8
527(12) 0.00633 460.8 44.1
535(12) 0.00654 460.6 40.3
518(12) 0.00633 460.4 37.0
510(12) 0.00617 460.3 34.2
493(12) 0.00652 460.1 31.8
462(11) 0.00731 459.9 29.7
506(12) 0.00685 459.7 27.8
489(12) 0.00657 459.5 26.2
480(12) 0.00646 459.4 24.7
502(12) 0.00644 459.2 23.5
472(11) 0.00717 459.0 22.3
492(11) 0.00718 458.8 21.3
469(12) 0.00690 458.6 20.4
499(12) 0.00620 458.5 19.6
480(12) 0.00676 458.3 18.9
522(12) 0.00656 458.1 18.3
486(11) 0.00718 457.9 17.7
459(11) 0.00721 457.7 17.2
496(12) 0.00624 457.5 16.7
480(12) 0.00681 457.4 16.3
481(11) 0.00712 457.2 16.0
485(11) 0.00717 457.0 15.7
493(12) 0.00663 456.8 15.4
440(12) 0.00690 456.6 15.2
490(12) 0.00644 456.5 14.9
479(11) 0.00729 456.3 14.8
470(11) 0.00736 456.1 14.6
441(11) 0.00729 455.9 14.5
446(12) 0.00682 455.7 14.4
471(12) 0.00701 455.6 14.4
468(11) 0.00740 455.4 14.3
467(11) 0.00748 455.2 14.3
451(11) 0.00746 455.0 14.4
461(12) 0.00662 454.8 14.4
483(12) 0.00665 454.7 14.5
463(11) 0.00744 454.5 14.6
480(12) 0.00703 454.3 14.7
453(11) 0.00738 454.1 14.7
461(12) 0.00684 453.9 14.9
496(12) 0.00640 453.8 15.1
450(11) 0.00770 453.6 15.3
478(11) 0.00717 453.4 15.5
487(12) 0.00665 453.3 15.8
486(12) 0.00660 453.2 16.1
450(11) 0.00728 453.0 16.4
476(11) 0.00732 452.9 16.8
441(11) 0.00764 452.8 17.2
450(11) 0.00712 452.7 17.6
484(12) 0.00661 452.6 18.1
473(12) 0.00706 452.4 18.6
478(11) 0.00725 452.3 19.1
464(11) 0.00714 452.2 19.7
481(12) 0.00670 452.1 20.4
474(12) 0.00682 451.9 21.1
477(12) 0.00700 451.8 21.9
468(11) 0.00741 451.7 22.7
473(12) 0.00673 451.6 23.6
484(12) 0.00663 451.4 24.6
480(12) 0.00685 451.3 25.7
449(11) 0.00757 451.2 26.8
453(11) 0.00763 451.1 28.1
493(12) 0.00650 451.0 29.5
495(12) 0.00620 450.8 31.0
491(12) 0.00686 450.7 32.7
493(12) 0.00695 450.6 34.6
485(11) 0.00717 450.5 36.6
504(12) 0.00653 450.3 38.9
513(13) 0.00585 450.2 41.4
466(11) 0.00708 450.1 44.1
506(12) 0.00675 450.0 47.3
465(11) 0.00749 449.8 50.7
522(12) 0.00628 449.7 54.7
499(13) 0.00596 449.6 59.1
510(12) 0.00646 449.5 64.2
535(12) 0.00648 449.4 70.0
512(12) 0.00675 449.2 76.8
546(13) 0.00600 449.1 84.8
524(13) 0.00591 449.0 94.4
513(12) 0.00637 448.9 106.2
557(12) 0.00628 448.7 121.1
565(13) 0.00602 448.6 140.3
556(13) 0.00592 448.5 165.5
607(14) 0.00513 448.4 198.9
623(13) 0.00529 448.2 243.1
655(13) 0.00541 448.1 300.9
752(14) 0.00466 448.0 375.4
851(16) 0.00389 447.9 469.0
942(17) 0.003348 447.8 582.9
1094(18) 0.003035 447.6 716.3
1247(18) 0.002883 447.5 865.5
1388(19) 0.002583 447.4 1022.0
1604(22) 0.002114 447.3 1170.9
1797(23) 0.001831 447.1 1289.9
1856(23) 0.001832 447.0 1354.4
1758(22) 0.002076 446.9 1347.7
1689(22) 0.002086 446.8 1272.1
1598(22) 0.002072 446.6 1146.4
1343(20) 0.002484 446.5 995.8
1241(19) 0.002750 446.4 841.1
1094(17) 0.003303 446.3 696.1
957(17) 0.00352 446.2 567.9
887(16) 0.00369 446.0 459.7
862(16) 0.00375 445.9 371.8
792(15) 0.00429 445.8 302.7
731(14) 0.00488 445.7 249.8
712(14) 0.00466 445.5 210.3
713(15) 0.00450 445.4 181.3
644(14) 0.00515 445.3 160.5
659(14) 0.00517 445.2 145.5
618(13) 0.00575 445.0 135.0
599(13) 0.00548 444.9 128.1
607(13) 0.00525 444.8 124.0
604(13) 0.00530 444.7 122.6
605(13) 0.00573 444.6 124.0
609(13) 0.00579 444.4 128.6
614(13) 0.00540 444.3 137.2
645(14) 0.00501 444.2 151.0
681(14) 0.00493 444.1 171.7
670(13) 0.00529 443.9 200.9
749(14) 0.00470 443.8 240.7
746(15) 0.00453 443.7 292.7
803(16) 0.00393 443.6 357.9
902(16) 0.00369 443.4 435.9
932(16) 0.00381 443.3 524.5
1036(17) 0.003471 443.2 618.2
1170(18) 0.002850 443.1 707.5
1204(19) 0.002630 443.0 778.0
1343(20) 0.002541 442.8 813.5
1409(19) 0.002574 442.7 803.8
1369(19) 0.002593 442.6 751.4
1178(18) 0.002882 442.5 669.7
1071(18) 0.002967 442.3 574.7
884(16) 0.00385 442.2 479.2
818(15) 0.00437 442.1 391.1
708(14) 0.00488 442.0 314.7
665(14) 0.00503 441.8 251.1
622(14) 0.00516 441.7 200.2
574(13) 0.00561 441.6 160.7
532(12) 0.00660 441.5 130.8
548(12) 0.00629 441.4 108.3
537(12) 0.00615 441.2 91.6
521(13) 0.00596 441.1 79.0
488(12) 0.00673 441.0 69.3
499(12) 0.00697 440.9 61.7
471(11) 0.00713 440.7 55.6
485(12) 0.00672 440.6 50.5
490(12) 0.00651 440.5 46.2
475(12) 0.00704 440.4 42.5
477(11) 0.00725 440.2 39.3
462(11) 0.00715 440.1 36.4
471(12) 0.00697 440.0 33.9
494(12) 0.00652 439.9 31.7
456(11) 0.00738 439.7 29.7
438(11) 0.00784 439.6 27.9
463(11) 0.00711 439.5 26.2
444(11) 0.00714 439.4 24.7
435(11) 0.00721 439.3 23.4
442(11) 0.00753 439.1 22.2
466(11) 0.00748 439.0 21.0
462(12) 0.00699 438.9 20.0
463(12) 0.00678 438.8 19.1
448(11) 0.00738 438.6 18.2
454(11) 0.00759 438.5 17.4
457(11) 0.00754 438.4 16.6
456(12) 0.00696 438.3 15.9
465(12) 0.00654 438.1 15.3
462(12) 0.00687 438.0 14.6
456(11) 0.00750 437.9 14.1
456(11) 0.00756 437.8 13.5
463(12) 0.00695 437.7 13.0
452(12) 0.00673 437.5 12.6
438(11) 0.00738 437.4 12.1
470(11) 0.00739 437.3 11.7
457(11) 0.00746 437.2 11.3
452(11) 0.00710 437.0 11.0
459(12) 0.00655 436.9 10.6
458(11) 0.00708 436.8 10.3
457(11) 0.00754 436.7 10.0
433(11) 0.00799 436.5 9.7
426(11) 0.00771 436.4 9.4
452(12) 0.00665 436.3 9.1
435(11) 0.00762 436.2 8.9
433(11) 0.00797 436.1 8.6
460(11) 0.00746 435.9 8.4
442(11) 0.00725 435.8 8.2
458(12) 0.00666 435.7 7.9
454(11) 0.00713 435.6 7.7
445(11) 0.00773 435.4 7.5
438(11) 0.00784 435.3 7.4
443(11) 0.00745 435.2 7.2
463(12) 0.00672 435.1 7.0
416(11) 0.00782 434.9 6.9
426(11) 0.00799 434.8 6.7
449(11) 0.00751 434.7 6.5
432(11) 0.00749 434.6 6.4
431(11) 0.00752 434.5 6.3
449(11) 0.00725 434.3 6.1
455(11) 0.00760 434.2 6.0
449(11) 0.00744 434.1 5.9
441(11) 0.00726 434.0 5.8
451(12) 0.00707 433.8 5.8
458(11) 0.00711 433.7 5.7
470(11) 0.00739 433.6 5.6
464(11) 0.00717 433.5 5.5
412(11) 0.00779 433.3 5.4
433(11) 0.00742 433.2 5.3
421(11) 0.00787 433.1 5.2
429(11) 0.00806 433.0 5.1
427(11) 0.00746 432.9 5.1
442(11) 0.00711 432.7 5.0
440(11) 0.00729 432.6 4.9
426(11) 0.00783 432.5 4.9
457(11) 0.00751 432.4 4.8
466(12) 0.00687 432.2 5.3
445(12) 0.00684 432.1 5.3
434(11) 0.00742 432.0 5.2
444(11) 0.00771 431.9 5.1
447(11) 0.00771 431.7 5.1
433(11) 0.00753 431.6 5.0
451(12) 0.00682 431.5 5.0
427(11) 0.00777 431.4 4.9
435(11) 0.00784 431.3 4.9
427(11) 0.00807 431.1 4.8
438(11) 0.00743 431.0 4.8
424(12) 0.00702 430.9 4.8
431(11) 0.00748 430.8 4.7
445(11) 0.00753 430.6 4.7
436(11) 0.00795 430.5 4.6
424(11) 0.00759 430.4 4.6
415(11) 0.00721 430.3 4.6
425(11) 0.00751 430.1 4.5
434(11) 0.00772 430.0 4.5
451(11) 0.00773 429.9 4.5
434(11) 0.00770 429.8 4.5
419(11) 0.00735 429.7 4.4
397(11) 0.00797 429.5 4.4
408(10) 0.00839 429.4 4.4
430(11) 0.00774 429.3 4.4
409(11) 0.00769 429.2 4.4
424(11) 0.00724 429.1 4.3
425(11) 0.00748 428.9 4.3
454(11) 0.00762 428.8 4.3
432(11) 0.00755 428.7 4.3
439(11) 0.00745 428.6 4.3
448(12) 0.00707 428.5 4.3
433(11) 0.00731 428.4 4.3
449(11) 0.00773 428.2 4.3
413(11) 0.00802 428.1 4.3
444(11) 0.00711 428.0 4.2
440(11) 0.00717 427.9 4.2
437(11) 0.00732 427.8 4.2
432(11) 0.00800 427.7 4.2
413(11) 0.00798 427.5 4.2
438(11) 0.00713 427.4 4.2
451(12) 0.00701 427.3 4.3
410(11) 0.00816 427.2 4.3
455(11) 0.00763 427.1 4.3
452(11) 0.00726 427.0 4.3
435(11) 0.00739 426.8 4.3
447(11) 0.00711 426.7 4.3
460(11) 0.00734 426.6 4.4
461(11) 0.00754 426.5 4.4
430(11) 0.00765 426.4 4.5
440(11) 0.00717 426.3 4.5
439(11) 0.00745 426.1 4.5
452(11) 0.00752 426.0 4.6
427(11) 0.00801 425.9 4.6
404(11) 0.00795 425.8 4.7
411(11) 0.00743 425.7 4.7
445(11) 0.00727 425.6 4.8
433(11) 0.00794 425.4 4.8
456(11) 0.00756 425.3 4.9
419(11) 0.00781 425.2 5.0
443(12) 0.00685 425.1 5.1
430(11) 0.00761 425.0 5.3
420(11) 0.00824 424.9 5.4
431(11) 0.00799 424.7 5.6
446(11) 0.00731 424.6 5.8
445(12) 0.00664 424.5 6.0
416(11) 0.00772 424.4 6.3
408(11) 0.00834 424.3 6.6
442(11) 0.00774 424.2 7.1
422(11) 0.00776 424.0 7.7
432(12) 0.00690 423.9 8.6
433(11) 0.00724 423.8 10.1
447(11) 0.00780 423.7 13.0
450(11) 0.00764 423.6 18.5
461(12) 0.00687 423.5 28.1
451(12) 0.00683 423.3 43.4
457(12) 0.00697 423.2 65.0
472(11) 0.00739 423.1 91.3
529(12) 0.00652 423.0 117.7
544(12) 0.00606 422.9 136.7
591(13) 0.00533 422.8 140.4
571(13) 0.00579 422.6 126.9
528(12) 0.00666 422.5 102.6
480(11) 0.00709 422.4 75.5
479(12) 0.00670 422.3 51.7
471(12) 0.00698 422.2 33.9
482(12) 0.00686 422.1 22.2
453(11) 0.00764 421.9 15.3
418(11) 0.00798 421.8 11.6
415(11) 0.00757 421.7 9.7
411(11) 0.00765 421.6 8.6
421(11) 0.00763 421.5 8.0
472(11) 0.00736 421.4 7.6
450(11) 0.00723 421.2 7.3
404(11) 0.00780 421.1 7.0
415(11) 0.00778 421.0 6.8
432(11) 0.00780 420.9 6.7
406(10) 0.00847 420.8 6.6
418(11) 0.00762 420.7 6.5
430(11) 0.00728 420.5 6.5
431(11) 0.00720 420.4 6.4
421(11) 0.00798 420.3 6.4
432(11) 0.00788 420.2 6.4
423(11) 0.00766 420.1 6.4
450(12) 0.00689 420.0 6.4
430(11) 0.00772 419.8 6.5
458(11) 0.00750 419.7 6.5
432(11) 0.00781 419.6 6.6
434(11) 0.00743 419.5 6.6
435(12) 0.00706 419.4 6.7
445(11) 0.00718 419.3 6.8
428(11) 0.00803 419.1 6.8
442(11) 0.00780 419.0 6.9
406(11) 0.00807 418.9 6.9
432(12) 0.00695 418.8 7.0
400(11) 0.00817 418.7 7.1
447(11) 0.00762 418.6 7.2
460(11) 0.00751 418.4 7.4
411(11) 0.00803 418.3 7.5
417(11) 0.00727 418.2 7.6
417(11) 0.00748 418.1 7.8
417(11) 0.00820 418.0 8.0
417(11) 0.00811 417.9 8.2
428(11) 0.00747 417.7 8.4
423(11) 0.00710 417.6 8.6
452(11) 0.00718 417.5 8.8
415(11) 0.00832 417.4 9.0
448(11) 0.00753 417.3 9.3
437(11) 0.00740 417.2 9.5
434(11) 0.00730 417.0 9.8
438(11) 0.00751 416.9 10.1
447(11) 0.00775 416.8 10.5
419(11) 0.00791 416.7 10.8
427(11) 0.00771 416.6 11.2
458(12) 0.00695 416.5 11.6
423(11) 0.00774 416.3 12.1
442(11) 0.00786 416.2 12.6
431(11) 0.00771 416.1 13.1
432(11) 0.00734 416.0 13.7
394(11) 0.00825 415.9 14.4
438(11) 0.00754 415.8 15.1
425(11) 0.00814 415.6 15.9
449(11) 0.00719 415.5 16.8
452(12) 0.00701 415.4 17.8
450(12) 0.00692 415.3 18.9
440(11) 0.00761 415.2 20.2
447(11) 0.00773 415.1 21.7
430(11) 0.00751 414.9 23.5
434(11) 0.00716 414.8 25.7
473(12) 0.00674 414.7 28.3
439(11) 0.00779 414.6 31.7
467(11) 0.00744 414.5 35.8
461(12) 0.00689 414.4 41.1
430(11) 0.00723 414.2 47.9
453(11) 0.00725 414.1 56.3
508(12) 0.00658 414.0 66.7
478(11) 0.00728 413.9 79.3
524(12) 0.00627 413.8 94.2
526(13) 0.00600 413.7 111.4
549(13) 0.00604 413.5 130.5
564(12) 0.00623 413.4 150.6
557(12) 0.00636 413.3 170.3
575(13) 0.00569 413.2 187.5
605(14) 0.00498 413.1 199.6
638(14) 0.00523 413.0 204.1
662(13) 0.00534 412.8 200.3
617(13) 0.00564 412.7 189.3
598(13) 0.00552 412.6 173.3
586(13) 0.00536 412.5 155.2
559(13) 0.00592 412.4 136.8
527(12) 0.00658 412.3 119.8
509(12) 0.00695 412.1 104.8
500(12) 0.00662 412.0 92.3
501(12) 0.00607 411.9 82.4
466(12) 0.00697 411.8 74.9
470(11) 0.00728 411.7 69.8
470(11) 0.00726 411.6 66.9
463(12) 0.00695 411.4 65.7
477(12) 0.00659 411.3 66.3
476(12) 0.00691 411.2 68.4
491(11) 0.00709 411.1 71.9
480(11) 0.00722 411.0 76.6
522(12) 0.00619 410.9 82.6
517(12) 0.00625 410.7 89.7
491(12) 0.00653 410.6 98.0
537(12) 0.00648 410.5 107.3
545(12) 0.00625 410.4 117.5
568(13) 0.00554 410.3 128.5
583(13) 0.00559 410.2 140.0
609(13) 0.00553 410.0 151.6
626(13) 0.00565 409.9 162.7
663(14) 0.00504 409.8 172.8
648(14) 0.00493 409.7 180.9
614(13) 0.00526 409.6 186.4
629(13) 0.00534 409.5 188.7
624(13) 0.00567 409.3 187.5
611(13) 0.00543 409.2 182.9
617(13) 0.00533 409.1 175.4
595(13) 0.00563 409.0 165.7
567(13) 0.00602 408.9 154.5
563(12) 0.00623 408.8 142.5
533(12) 0.00608 408.6 130.4
538(13) 0.00596 408.5 118.6
536(12) 0.00613 408.4 107.3
522(12) 0.00661 408.3 96.8
517(12) 0.00681 408.2 87.2
518(12) 0.00625 408.1 78.6
513(12) 0.00607 407.9 70.8
485(12) 0.00681 407.8 64.0
467(11) 0.00746 407.7 58.0
491(12) 0.00703 407.6 52.8
470(12) 0.00685 407.5 48.3
450(12) 0.00660 407.4 44.5
438(11) 0.00750 407.2 41.2
470(11) 0.00731 407.1 38.5
432(11) 0.00796 407.0 36.1
445(11) 0.00725 406.9 34.1
421(11) 0.00737 406.8 32.5
439(11) 0.00751 406.7 31.1
435(11) 0.00793 406.5 29.9
431(11) 0.00797 406.4 28.9
461(12) 0.00699 406.3 28.1
424(11) 0.00727 406.2 27.4
404(11) 0.00800 406.1 26.8
410(11) 0.00820 406.0 26.3
443(11) 0.00781 405.8 25.9
443(11) 0.00734 405.7 25.7
427(11) 0.00730 405.6 25.4
418(11) 0.00799 405.5 25.3
450(11) 0.00775 405.4 25.2
392(10) 0.00872 405.3 25.2
412(11) 0.00784 405.1 25.3
431(11) 0.00708 405.0 25.4
423(11) 0.00779 404.9 25.6
417(11) 0.00828 404.8 25.9
454(11) 0.00734 404.7 26.2
444(11) 0.00737 404.6 26.6
436(11) 0.00736 404.4 27.0
410(11) 0.00796 404.3 27.6
419(11) 0.00828 404.2 28.2
455(11) 0.00715 404.1 28.9
404(11) 0.00802 404.0 29.6
436(11) 0.00729 403.9 30.5
437(11) 0.00754 403.7 31.4
440(11) 0.00786 403.6 32.5
430(11) 0.00771 403.5 33.7
434(11) 0.00737 403.4 35.0
417(11) 0.00772 403.3 36.4
421(11) 0.00803 403.2 38.0
442(11) 0.00779 403.0 39.7
446(11) 0.00726 402.9 41.6
461(12) 0.00671 402.8 43.6
446(11) 0.00741 402.7 45.8
430(11) 0.00780 402.6 48.0
461(11) 0.00763 402.5 50.4
452(11) 0.00710 402.3 52.8
452(12) 0.00696 402.2 55.1
439(11) 0.00761 402.1 57.4
434(11) 0.00774 402.0 59.5
441(11) 0.00788 401.9 61.3
450(11) 0.00744 401.8 62.7
456(12) 0.00679 401.6 63.8
453(11) 0.00732 401.5 64.5
443(11) 0.00769 401.4 65.0
457(11) 0.00765 401.3 65.4
470(12) 0.00680 401.2 66.0
451(12) 0.00654 401.1 66.7
457(12) 0.00694 400.9 67.7
438(11) 0.00783 400.8 69.1
435(11) 0.00802 400.7 70.9
434(11) 0.00751 400.6 73.2
448(12) 0.00706 400.5 76.1
453(11) 0.00723 400.4 79.6
444(11) 0.00774 400.2 83.7
464(11) 0.00725 400.1 88.6
462(12) 0.00689 400.0 94.4
474(12) 0.00650 399.9 101.1
495(12) 0.00648 399.8 108.9
463(11) 0.00756 399.7 117.9
531(12) 0.00646 399.5 128.4
525(12) 0.00618 399.4 140.4
491(12) 0.00653 399.3 154.1
516(12) 0.00628 399.2 169.8
555(12) 0.00636 399.1 187.6
522(12) 0.00647 399.0 207.7
524(12) 0.00610 398.8 230.3
561(13) 0.00573 398.7 255.4
611(13) 0.00550 398.6 283.2
661(13) 0.00537 398.5 313.8
651(14) 0.00518 398.4 347.0
720(15) 0.00444 398.3 382.6
770(15) 0.00437 398.1 420.4
856(16) 0.00397 398.0 459.8
830(15) 0.00430 397.9 500.0
907(16) 0.00364 397.8 539.9
915(16) 0.00365 397.7 578.1
969(17) 0.003496 397.6 612.9
1010(17) 0.003475 397.4 642.4
1011(16) 0.00358 397.3 664.5
944(16) 0.00360 397.2 677.7
970(17) 0.003277 397.1 681.0
914(16) 0.00366 397.0 674.1
899(16) 0.00387 396.9 657.8
901(16) 0.00399 396.7 633.4
905(16) 0.00368 396.6 602.8
856(16) 0.00387 396.5 567.9
841(15) 0.00409 396.4 530.6
839(15) 0.00427 396.3 492.4
798(15) 0.00445 396.2 454.6
762(15) 0.00435 396.0 418.1
748(15) 0.00423 395.9 383.5
734(14) 0.00463 395.8 351.3
685(14) 0.00511 395.7 321.7
693(14) 0.00511 395.6 294.8
662(14) 0.00500 395.5 270.5
650(14) 0.00462 395.3 248.9
603(13) 0.00553 395.2 229.7
603(13) 0.00575 395.1 213.0
572(12) 0.00617 395.0 198.3
583(13) 0.00575 394.9 185.7
568(13) 0.00556 394.8 174.7
596(13) 0.00547 394.6 165.4
565(12) 0.00627 394.5 157.4
574(13) 0.00605 394.4 150.6
580(13) 0.00562 394.3 144.8
586(13) 0.00534 394.2 139.9
557(13) 0.00585 394.1 135.7
522(12) 0.00673 393.9 132.1
518(12) 0.00656 393.8 129.0
528(12) 0.00609 393.7 126.5
519(12) 0.00615 393.6 124.3
492(12) 0.00669 393.5 122.5
509(12) 0.00691 393.4 121.1
541(12) 0.00616 393.2 120.1
505(12) 0.00652 393.1 119.5
494(12) 0.00649 393.0 119.3
500(12) 0.00672 392.9 119.5
518(12) 0.00675 392.8 120.1
540(13) 0.00597 392.7 121.2
535(12) 0.00612 392.5 122.8
518(12) 0.00616 392.4 124.9
525(12) 0.00633 392.3 127.5
550(12) 0.00637 392.2 130.4
551(12) 0.00606 392.1 133.7
571(13) 0.00559 392.0 137.2
539(13) 0.00600 391.8 140.7
530(12) 0.00640 391.7 144.0
543(12) 0.00644 391.6 146.7
538(13) 0.00575 391.5 148.6
565(13) 0.00537 391.4 149.3
553(13) 0.00586 391.3 148.6
565(13) 0.00592 391.1 146.3
533(12) 0.00662 391.0 142.3
544(13) 0.00603 390.9 137.0
523(13) 0.00603 390.8 130.6
530(12) 0.00620 390.7 123.3
522(12) 0.00651 390.6 115.7
491(11) 0.00710 390.4 107.8
510(12) 0.00644 390.3 100.1
481(12) 0.00657 390.2 92.6
462(11) 0.00724 390.1 85.4
476(11) 0.00721 390.0 78.7
467(11) 0.00739 389.9 72.5
445(11) 0.00732 389.7 66.8
434(12) 0.00691 389.6 61.6
445(11) 0.00715 389.5 56.9
422(11) 0.00821 389.4 52.6
444(11) 0.00785 389.3 48.8
421(11) 0.00785 389.2 45.4
427(12) 0.00708 389.0 42.3
436(11) 0.00736 388.9 39.6
438(11) 0.00780 388.8 37.2
420(11) 0.00809 388.7 35.0
415(11) 0.00740 388.6 33.0
415(11) 0.00749 388.5 31.3
410(11) 0.00791 388.3 29.7
397(10) 0.00864 388.2 28.3
431(11) 0.00781 388.1 27.0
396(11) 0.00811 388.0 25.8
418(11) 0.00745 387.9 24.7
405(11) 0.00805 387.8 23.7
414(11) 0.00837 387.6 22.8
413(11) 0.00818 387.5 21.9
421(11) 0.00764 387.4 21.1
423(11) 0.00753 387.3 20.3
450(11) 0.00735 387.2 19.6
426(11) 0.00819 387.1 19.0
433(11) 0.00734 386.9 18.3
430(11) 0.00733 386.8 17.8
417(11) 0.00770 386.7 17.2
422(11) 0.00787 386.6 16.7
398(10) 0.00860 386.5 16.2
422(11) 0.00755 386.4 15.7
429(11) 0.00720 386.2 15.2
420(11) 0.00757 386.1 14.8
390(11) 0.00820 386.0 14.4
400(10) 0.00856 385.9 14.0
421(11) 0.00773 385.8 13.6
420(11) 0.00754 385.7 13.3
388(11) 0.00832 385.5 12.9
372(10) 0.00901 385.4 12.6
390(10) 0.00879 385.3 12.3
400(11) 0.00805 385.2 12.0
388(11) 0.00820 385.1 11.7
399(11) 0.00809 385.0 11.4
408(11) 0.00820 384.8 11.2
403(10) 0.00850 384.7 10.9
376(11) 0.00838 384.6 10.7
379(11) 0.00796 384.5 10.4
387(11) 0.00827 384.4 10.2
381(10) 0.00889 384.3 10.0
379(10) 0.00910 384.1 9.8
397(11) 0.00811 384.0 9.6
401(11) 0.00761 383.9 9.4
400(11) 0.00837 383.8 9.2
370(10) 0.00910 383.7 9.0
408(10) 0.00852 383.6 8.8
427(11) 0.00762 383.5 8.6
385(11) 0.00793 383.3 8.5
378(10) 0.00860 383.2 8.3
407(10) 0.00839 383.1 8.2
389(10) 0.00855 383.0 8.0
398(11) 0.00791 382.9 7.8
406(11) 0.00750 382.8 7.7
429(11) 0.00763 382.6 7.6
377(10) 0.00916 382.5 7.4
381(10) 0.00890 382.4 7.3
402(11) 0.00822 382.3 7.2
387(11) 0.00825 382.2 7.0
398(11) 0.00810 382.1 6.9
371(10) 0.00920 381.9 6.8
410(11) 0.00811 381.8 6.7
364(10) 0.00884 381.7 6.6
386(11) 0.00807 381.6 6.5
381(10) 0.00839 381.5 6.4
383(10) 0.00899 381.4 6.3
389(11) 0.00838 381.2 6.2
389(11) 0.00826 381.1 6.1
398(11) 0.00807 381.0 6.0
380(10) 0.00868 380.9 5.9
391(10) 0.00882 380.8 5.8
387(10) 0.00845 380.7 5.7
374(11) 0.00833 380.5 5.6
374(10) 0.00843 380.4 5.5
384(10) 0.00843 380.3 5.5
366(10) 0.00937 380.2 5.4
388(10) 0.00840 380.1 5.3
368(10) 0.00846 380.0 5.2
394(11) 0.00800 379.8 5.1
374(10) 0.00878 379.7 5.1
381(10) 0.00893 379.6 5.0
388(11) 0.00813 379.5 4.9
378(11) 0.00815 379.4 4.9
384(11) 0.00827 379.3 4.8
386(10) 0.00875 379.1 4.7
352(10) 0.00972 379.0 4.7
379(10) 0.00845 378.9 4.6
408(11) 0.00777 378.8 4.5
410(11) 0.00790 378.7 4.5
388(10) 0.00854 378.6 4.4
370(10) 0.00922 378.4 4.4
391(11) 0.00825 378.3 4.3
399(11) 0.00749 378.2 4.3
372(10) 0.00860 378.1 4.2
393(10) 0.00861 378.0 4.2
370(10) 0.00922 377.9 4.1
405(11) 0.00799 377.7 4.1
388(11) 0.00783 377.6 4.0
375(11) 0.00835 377.5 4.0
399(10) 0.00860 377.4 3.9
370(10) 0.00906 377.3 3.9
386(11) 0.00838 377.2 3.8
364(10) 0.00842 377.0 3.8
386(11) 0.00821 376.9 3.7
353(10) 0.00959 376.8 3.7
382(10) 0.00873 376.7 3.6
369(10) 0.00882 376.6 3.6
377(11) 0.00805 376.5 3.6
399(11) 0.00806 376.3 3.5
377(10) 0.00918 376.2 3.5
374(10) 0.00871 376.1 3.4
357(10) 0.00880 376.0 3.4
337(10) 0.00891 375.9 3.4
352(10) 0.00897 375.8 3.3
396(10) 0.00868 375.6 3.3
378(10) 0.00893 375.5 3.3
388(11) 0.00820 375.4 3.2
394(11) 0.00806 375.3 3.2
389(11) 0.00831 375.2 3.2
350(10) 0.00978 375.1 3.1
370(10) 0.00877 374.9 3.1
373(10) 0.00840 374.8 3.1
383(11) 0.00828 374.7 3.0
377(10) 0.00853 374.6 3.0
401(10) 0.00863 374.5 3.0
376(10) 0.00856 374.4 2.9
387(11) 0.00788 374.2 2.9
369(10) 0.00861 374.1 2.9
351(10) 0.00936 374.0 2.9
379(10) 0.00906 373.9 2.8
370(10) 0.00854 373.8 2.9
368(10) 0.00850 373.7 2.8
366(10) 0.00897 373.5 2.8
382(10) 0.00881 373.4 2.8
388(10) 0.00880 373.3 2.8
399(11) 0.00811 373.2 2.7
420(11) 0.00732 373.1 2.7
374(10) 0.00863 373.0 2.7
376(10) 0.00902 373.0 2.7
399(10) 0.00844 372.9 2.6
409(11) 0.00782 372.8 2.6
392(11) 0.00775 372.7 2.6
370(10) 0.00892 372.6 2.6
366(10) 0.00936 372.5 2.6
371(10) 0.00926 372.4 2.5
380(11) 0.00837 372.3 2.5
372(11) 0.00805 372.2 2.5
385(10) 0.00841 372.2 2.5
357(10) 0.00957 372.1 2.5
373(10) 0.00905 372.0 2.4
370(10) 0.00897 371.9 2.4
390(11) 0.00775 371.8 2.4
356(10) 0.00912 371.7 2.4
380(10) 0.00888 371.6 2.4
367(10) 0.00928 371.5 2.3
362(10) 0.00882 371.5 2.3
371(11) 0.00808 371.4 2.3
349(10) 0.00907 371.3 2.3
379(10) 0.00897 371.2 2.3
351(10) 0.00932 371.1 2.3
360(10) 0.00892 371.0 2.3
391(11) 0.00768 370.9 2.2
384(10) 0.00841 370.8 2.2
386(10) 0.00879 370.7 2.2
389(10) 0.00866 370.7 2.2
387(10) 0.00846 370.6 2.2
391(11) 0.00821 370.5 2.2
395(11) 0.00824 370.4 2.2
370(10) 0.00921 370.3 2.1
391(10) 0.00845 370.2 2.1
397(11) 0.00788 370.1 2.1
394(11) 0.00799 370.0 2.1
393(11) 0.00812 370.0 2.1
389(10) 0.00886 369.9 2.1
382(10) 0.00842 369.8 2.1
376(11) 0.00828 369.7 2.1
365(10) 0.00878 369.6 2.0
395(11) 0.00835 369.5 2.0
390(10) 0.00888 369.4 2.0
398(11) 0.00812 369.3 2.0
381(11) 0.00816 369.2 2.0
382(11) 0.00812 369.2 2.0
363(10) 0.00899 369.1 2.0
352(10) 0.00967 369.0 2.0
364(10) 0.00878 368.9 2.0
408(11) 0.00743 368.8 1.9
351(10) 0.00933 368.7 1.9
374(10) 0.00911 368.6 1.9
373(10) 0.00909 368.5 1.9
326(10) 0.00973 368.5 1.9
365(11) 0.00812 368.4 1.9
377(10) 0.00854 368.3 1.9
355(10) 0.00941 368.2 1.9
362(10) 0.00941 368.1 1.9
359(10) 0.00901 368.0 1.9
364(10) 0.00841 367.9 1.9
396(11) 0.00821 367.8 1.8
368(10) 0.00932 367.7 1.9
369(10) 0.00913 367.7 1.9
380(10) 0.00855 367.6 1.8
364(10) 0.00845 367.5 1.8
377(11) 0.00809 367.4 1.8
355(10) 0.00952 367.3 1.8
381(10) 0.00884 367.2 1.8
391(11) 0.00815 367.1 1.8
372(11) 0.00823 367.0 1.8
356(10) 0.00929 367.0 1.8
356(10) 0.00953 366.9 1.8
361(10) 0.00927 366.8 1.8
382(11) 0.00808 366.7 1.8
367(10) 0.00845 366.6 1.8
390(11) 0.00826 366.5 1.8
377(10) 0.00910 366.4 1.8
372(10) 0.00900 366.3 1.8
324(10) 0.00995 366.2 1.8
375(11) 0.00825 366.2 1.8
361(10) 0.00884 366.1 1.8
353(10) 0.00971 366.0 1.8
349(10) 0.00931 365.9 1.7
369(10) 0.00869 365.8 1.7
394(11) 0.00764 365.7 1.7
356(10) 0.00934 365.6 1.7
371(10) 0.00925 365.5 1.7
358(10) 0.00911 365.5 1.7
349(10) 0.00898 365.4 1.7
383(11) 0.00821 365.3 1.7
383(11) 0.00826 365.2 1.7
354(10) 0.00956 365.1 1.7
386(11) 0.00826 365.0 1.7
380(11) 0.00830 364.9 1.7
371(10) 0.00875 364.8 1.7
359(10) 0.00925 364.7 1.7
368(10) 0.00924 364.7 1.7
373(10) 0.00847 364.6 1.7
366(11) 0.00820 364.5 1.7
366(10) 0.00873 364.4 1.7
396(10) 0.00848 364.3 1.7
392(10) 0.00876 364.2 1.7
360(10) 0.00869 364.1 1.8
343(10) 0.00907 364.0 1.8
340(10) 0.00949 364.0 1.8
394(10) 0.00860 363.9 1.8
380(10) 0.00903 363.8 1.8
363(10) 0.00887 363.7 1.8
375(11) 0.00816 363.6 1.8
378(10) 0.00864 363.5 1.8
357(10) 0.00946 363.4 1.8
360(10) 0.00938 363.3 1.8
367(10) 0.00867 363.2 1.8
369(11) 0.00807 363.2 1.8
355(10) 0.00894 363.1 1.8
376(10) 0.00895 363.0 1.9
341(10) 0.00985 362.9 1.9
354(10) 0.00895 362.8 1.9
355(10) 0.00857 362.7 1.9
354(10) 0.00924 362.6 1.9
367(10) 0.00945 362.5 1.9
357(10) 0.00927 362.5 2.0
339(10) 0.00917 362.4 2.0
360(11) 0.00823 362.3 2.0
356(10) 0.00904 362.2 2.0
392(10) 0.00874 362.1 2.1
365(10) 0.00919 362.0 2.1
344(10) 0.00940 361.9 2.2
365(10) 0.00847 361.8 2.2
376(11) 0.00837 361.7 2.3
385(10) 0.00893 361.7 2.3
372(10) 0.00901 361.6 2.4
363(10) 0.00879 361.5 2.5
351(10) 0.00910 361.4 2.7
366(10) 0.00900 361.3 2.8
358(10) 0.00952 361.2 3.0
352(10) 0.00929 361.1 3.3
380(11) 0.00820 361.0 3.7
368(10) 0.00868 361.0 4.4
376(10) 0.00897 360.9 5.5
376(10) 0.00909 360.8 7.1
377(10) 0.00845 360.7 9.2
371(11) 0.00838 360.6 12.0
383(11) 0.00815 360.5 15.1
359(10) 0.00933 360.4 18.2
371(10) 0.00913 360.3 20.6
366(10) 0.00891 360.2 21.5
367(10) 0.00843 360.2 20.4
396(11) 0.00824 360.1 18.0
359(10) 0.00938 360.0 14.9
383(10) 0.00905 359.9 11.9
392(11) 0.00813 359.8 9.3
397(11) 0.00773 359.7 7.2
366(10) 0.00860 359.6 5.8
376(10) 0.00893 359.5 4.9
375(10) 0.00917 359.5 4.3
358(10) 0.00885 359.4 4.0
374(11) 0.00803 359.3 3.8
384(10) 0.00840 359.2 3.6
367(10) 0.00930 359.1 3.6
369(10) 0.00922 359.0 3.6
377(10) 0.00865 358.9 3.6
368(11) 0.00824 358.8 3.6
365(10) 0.00885 358.7 3.6
355(10) 0.00973 358.7 3.7
365(10) 0.00917 358.6 3.8
377(10) 0.00839 358.5 3.8
373(11) 0.00802 358.4 3.9
347(10) 0.00925 358.3 4.0
358(10) 0.00951 358.2 4.2
350(10) 0.00942 358.1 4.3
375(10) 0.00847 358.0 4.4
354(10) 0.00861 358.0 4.6
373(10) 0.00846 357.9 4.7
347(10) 0.00967 357.8 4.9
378(10) 0.00884 357.7 5.0
381(10) 0.00839 357.6 5.2
368(10) 0.00847 357.5 5.4
363(10) 0.00870 357.4 5.6
368(10) 0.00918 357.3 5.8
366(10) 0.00915 357.2 6.1
382(11) 0.00822 357.2 6.3
373(11) 0.00838 357.1 6.5
373(10) 0.00864 357.0 6.8
352(10) 0.00960 356.9 7.0
375(10) 0.00873 356.8 7.3
369(10) 0.00848 356.7 7.5
362(10) 0.00863 356.6 7.8
369(10) 0.00888 356.5 8.0
358(10) 0.00943 356.5 8.3
395(11) 0.00807 356.4 8.5
378(11) 0.00818 356.3 8.8
363(11) 0.00837 356.2 9.0
364(10) 0.00898 356.1 9.2
404(10) 0.00842 356.0 9.4
396(11) 0.00805 355.9 9.6
381(11) 0.00818 355.8 9.8
392(11) 0.00804 355.7 9.9
374(10) 0.00895 355.7 10.0
357(10) 0.00948 355.6 10.1
368(10) 0.00884 355.5 10.2
382(11) 0.00799 355.4 10.2
365(10) 0.00886 355.3 10.2
376(10) 0.00911 355.2 10.1
366(10) 0.00934 355.1 10.1
350(10) 0.00864 355.0 10.0
366(11) 0.00813 355.0 9.8
371(10) 0.00871 354.9 9.7
358(10) 0.00935 354.8 9.5
371(10) 0.00922 354.7 9.3
371(10) 0.00871 354.6 9.1
370(11) 0.00803 354.5 8.9
375(10) 0.00843 354.4 8.7
364(10) 0.00944 354.3 8.5
361(10) 0.00944 354.2 8.2
382(10) 0.00858 354.2 8.0
390(11) 0.00772 354.1 7.8
336(10) 0.00954 354.0 7.6
360(10) 0.00932 353.9 7.4
385(10) 0.00876 353.8 7.2
356(10) 0.00897 353.7 7.0
360(10) 0.00848 353.6 6.8
357(10) 0.00891 353.5 6.6
364(10) 0.00929 353.5 6.5
345(10) 0.00955 353.4 6.3
384(11) 0.00832 353.3 6.2
383(11) 0.00810 353.2 6.1
362(10) 0.00854 353.1 6.0
384(10) 0.00881 353.0 5.9
383(10) 0.00875 352.9 5.8
338(10) 0.00939 352.8 5.8
375(11) 0.00826 352.7 5.8
377(10) 0.00862 352.7 5.8
351(10) 0.00967 352.6 5.8
350(10) 0.00915 352.5 5.9
359(10) 0.00881 352.4 6.1
354(10) 0.00898 352.3 6.3
338(10) 0.00943 352.2 6.6
362(10) 0.00940 352.1 6.9
357(10) 0.00919 352.0 7.4
334(10) 0.00925 352.0 8.1
330(10) 0.00947 351.9 8.9
370(10) 0.00894 351.8 9.9
371(10) 0.00918 351.7 11.1
350(10) 0.00907 351.6 12.6
351(10) 0.00906 351.5 14.2
387(11) 0.00807 351.4 16.1
357(10) 0.00936 351.3 18.2
359(10) 0.00946 351.2 20.3
377(10) 0.00872 351.2 22.4
346(10) 0.00926 351.1 24.3
394(11) 0.00792 351.0 25.7
350(10) 0.00943 350.9 26.4
363(10) 0.00935 350.8 26.3
343(10) 0.00933 350.7 25.3
346(10) 0.00846 350.6 23.8
353(10) 0.00893 350.5 21.8
354(10) 0.00952 350.5 19.6
360(10) 0.00957 350.4 17.4
351(10) 0.00947 350.3 15.4
363(11) 0.00801 350.2 13.5
346(10) 0.00909 350.1 11.8
364(10) 0.00925 350.0 10.4
357(10) 0.00956 349.9 9.2
368(10) 0.00866 349.8 8.2
341(10) 0.00896 349.7 7.4
349(10) 0.00905 349.7 6.8
344(10) 0.00973 349.6 6.2
354(10) 0.00960 349.5 5.8
346(10) 0.00936 349.4 5.5
354(10) 0.00850 349.3 5.3
340(10) 0.00924 349.2 5.1
351(10) 0.00973 349.1 5.0
367(10) 0.00918 349.0 4.9
335(10) 0.00972 349.0 4.8
348(10) 0.00870 348.9 4.8
349(10) 0.00922 348.8 4.8
382(10) 0.00897 348.7 4.9
365(10) 0.00908 348.6 4.9
365(10) 0.00869 348.5 5.0
367(11) 0.00836 348.4 5.1
351(10) 0.00929 348.3 5.3
345(10) 0.00977 348.2 5.5
343(10) 0.00948 348.2 5.7
360(10) 0.00849 348.1 6.0
360(10) 0.00854 348.0 6.2
360(10) 0.00915 347.9 6.6
363(10) 0.00945 347.8 6.9
345(10) 0.00954 347.7 7.4
356(10) 0.00872 347.6 7.8
361(10) 0.00864 347.5 8.3
343(10) 0.00925 347.5 8.8
384(10) 0.00892 347.4 9.4
355(10) 0.00905 347.3 10.0
365(10) 0.00849 347.2 10.7
361(10) 0.00872 347.1 11.3
338(10) 0.00967 347.0 12.0
354(10) 0.00968 346.9 12.6
356(10) 0.00879 346.8 13.3
350(10) 0.00847 346.7 13.9
340(10) 0.00937 346.7 14.4
326(9) 0.01020 346.6 14.8
345(10) 0.00982 346.5 15.1
354(10) 0.00886 346.4 15.3
359(11) 0.00830 346.3 15.3
358(10) 0.00909 346.2 15.2
354(10) 0.00967 346.1 14.9
363(10) 0.00946 346.0 14.5
376(10) 0.00860 346.0 14.1
339(10) 0.00933 345.9 13.5
347(10) 0.00954 345.8 12.9
357(10) 0.00948 345.7 12.2
326(9) 0.01029 345.6 11.5
335(10) 0.00929 345.5 10.9
337(10) 0.00865 345.4 10.2
316(9) 0.01017 345.3 9.6
338(9) 0.01017 345.2 9.0
342(10) 0.00996 345.2 8.4
350(10) 0.00902 345.1 7.9
299(9) 0.01029 345.0 7.4
339(10) 0.00923 344.9 7.0
357(10) 0.00946 344.8 6.6
353(10) 0.00964 344.7 6.2
349(10) 0.00936 344.7 5.9
357(10) 0.00862 344.6 5.6
324(10) 0.00974 344.6 5.4
368(10) 0.00932 344.5 5.1
350(10) 0.00936 344.5 4.9
338(10) 0.00947 344.4 4.8
350(10) 0.00878 344.4 4.6
339(10) 0.00940 344.3 4.5
339(10) 0.01002 344.2 4.4
347(10) 0.00946 344.2 4.3
340(10) 0.00967 344.1 4.2
344(10) 0.00913 344.1 4.2
326(10) 0.00986 344.0 4.1
338(10) 0.01002 344.0 4.1
342(10) 0.00949 343.9 4.1
347(10) 0.00900 343.9 4.1
343(10) 0.00942 343.8 4.1
362(10) 0.00908 343.8 4.1
334(9) 0.01018 343.7 4.1
329(10) 0.00957 343.7 4.1
343(10) 0.00906 343.6 4.2
338(10) 0.00944 343.6 4.2
353(10) 0.00928 343.5 4.3
330(9) 0.01032 343.5 4.3
340(10) 0.00925 343.4 4.4
352(10) 0.00873 343.3 4.5
365(10) 0.00862 343.3 4.6
343(10) 0.00958 343.2 4.7
368(10) 0.00930 343.2 4.8
356(10) 0.00858 343.1 4.9
362(11) 0.00825 343.1 5.0
354(10) 0.00912 343.0 5.2
356(10) 0.00948 343.0 5.3
367(10) 0.00937 342.9 5.5
349(10) 0.00921 342.9 5.6
343(10) 0.00909 342.8 5.8
364(10) 0.00888 342.8 6.0
354(10) 0.00961 342.7 6.2
331(9) 0.01010 342.7 6.4
330(10) 0.00934 342.6 6.6
360(11) 0.00800 342.6 6.8
366(11) 0.00837 342.5 7.0
337(10) 0.00998 342.4 7.3
328(9) 0.01027 342.4 7.5
364(10) 0.00872 342.3 7.7
352(10) 0.00880 342.3 7.9
337(10) 0.00995 342.2 8.1
367(10) 0.00939 342.2 8.3
341(10) 0.00987 342.1 8.5
338(10) 0.00956 342.1 8.7
376(11) 0.00802 342.0 8.9
365(10) 0.00869 342.0 9.0
338(10) 0.01001 341.9 9.1
335(10) 0.00999 341.9 9.2
345(10) 0.00924 341.8 9.3
340(10) 0.00926 341.8 9.3
347(10) 0.00912 341.7 9.3
352(10) 0.00961 341.7 9.3
350(10) 0.00945 341.6 9.3
329(10) 0.00971 341.5 9.2
341(10) 0.00916 341.5 9.2
349(10) 0.00892 341.4 9.1
344(10) 0.00989 341.4 9.0
339(10) 0.00971 341.3 8.9
364(10) 0.00871 341.3 8.9
344(10) 0.00886 341.2 8.8
341(10) 0.00923 341.2 8.7
355(10) 0.00949 341.1 8.6
362(10) 0.00893 341.1 8.5
331(10) 0.00941 341.0 8.5
341(10) 0.00921 341.0 8.4
343(10) 0.00965 340.9 8.4
342(10) 0.00990 340.9 8.4
381(11) 0.00818 340.8 8.4
345(10) 0.00884 340.8 8.4
345(10) 0.00916 340.7 8.4
359(10) 0.00948 340.6 8.5
372(10) 0.00915 340.6 8.5
351(10) 0.00886 340.5 8.6
356(10) 0.00870 340.5 8.7
332(10) 0.00956 340.4 8.9
339(10) 0.00961 340.4 9.0
349(10) 0.00974 340.3 9.2
364(10) 0.00876 340.3 9.3
359(11) 0.00820 340.2 9.5
336(10) 0.00963 340.2 9.7
338(9) 0.01010 340.1 9.9
352(10) 0.00957 340.1 10.2
357(10) 0.00896 340.0 10.4
361(10) 0.00853 340.0 10.7
342(10) 0.00937 339.9 11.0
373(10) 0.00903 339.9 11.4
335(9) 0.01011 339.8 11.8
345(10) 0.00951 339.8 12.2
361(10) 0.00843 339.7 12.7
387(11) 0.00820 339.6 13.3
348(10) 0.00990 339.6 13.9
351(10) 0.00951 339.5 14.6
385(10) 0.00849 339.5 15.4
360(10) 0.00884 339.4 16.3
362(10) 0.00873 339.4 17.2
375(10) 0.00907 339.3 18.3
352(10) 0.00935 339.3 19.5
331(10) 0.00963 339.2 20.8
358(10) 0.00863 339.2 22.2
383(10) 0.00842 339.1 23.7
345(10) 0.00984 339.1 25.5
367(10) 0.00908 339.0 27.3
369(10) 0.00873 339.0 29.4
354(10) 0.00891 338.9 31.6
381(10) 0.00862 338.9 34.0
372(10) 0.00917 338.8 36.6
356(10) 0.00931 338.7 39.4
379(10) 0.00857 338.7 42.4
392(11) 0.00804 338.6 45.6
381(10) 0.00878 338.6 49.0
385(10) 0.00884 338.5 52.6
401(11) 0.00792 338.5 56.3
408(11) 0.00754 338.4 60.2
422(11) 0.00736 338.4 64.1
422(11) 0.00788 338.3 68.1
423(11) 0.00809 338.3 72.1
442(11) 0.00735 338.2 76.0
443(11) 0.00730 338.2 79.7
425(11) 0.00771 338.1 83.1
399(10) 0.00860 338.1 86.1
433(11) 0.00797 338.0 88.7
429(11) 0.00731 338.0 90.6
440(12) 0.00701 337.9 92.0
432(11) 0.00763 337.8 92.6
441(11) 0.00775 337.8 92.6
444(11) 0.00780 337.7 92.0
433(11) 0.00741 337.7 90.7
458(12) 0.00657 337.6 89.0
441(11) 0.00726 337.6 86.8
430(11) 0.00799 337.5 84.3
438(11) 0.00792 337.5 81.6
452(11) 0.00732 337.4 78.8
431(12) 0.00695 337.4 75.8
385(10) 0.00849 337.3 72.8
392(10) 0.00884 337.3 69.8
419(11) 0.00816 337.2 66.9
416(11) 0.00794 337.2 64.0
407(11) 0.00763 337.1 61.2
398(11) 0.00811 337.1 58.5
415(11) 0.00816 337.0 55.8
395(10) 0.00868 336.9 53.2
375(10) 0.00888 336.9 50.7
402(11) 0.00782 336.8 48.3
393(11) 0.00818 336.8 46.0
366(10) 0.00947 336.7 43.7
361(10) 0.00935 336.7 41.6
392(11) 0.00807 336.6 39.5
392(11) 0.00793 336.6 37.5
386(10) 0.00841 336.5 35.6
395(10) 0.00858 336.5 33.5
357(10) 0.00939 336.4 31.8
357(10) 0.00885 336.4 30.1
387(11) 0.00812 336.3 28.5
384(10) 0.00863 336.3 27.0
340(10) 0.00993 336.2 25.6
378(10) 0.00892 336.2 24.3
379(10) 0.00846 336.1 23.0
382(11) 0.00821 336.0 21.8
389(10) 0.00845 336.0 20.7
403(10) 0.00856 335.9 19.6
356(10) 0.00899 335.9 18.6
359(10) 0.00847 335.8 17.7
339(10) 0.00919 335.8 16.8
352(10) 0.00905 335.7 15.9
343(10) 0.00987 335.7 15.1
362(10) 0.00866 335.6 14.4
347(10) 0.00890 335.6 13.7
330(10) 0.00937 335.5 13.0
332(10) 0.00987 335.5 12.4
374(10) 0.00919 335.4 11.8
358(10) 0.00884 335.4 11.3
371(11) 0.00801 335.3 10.7
339(10) 0.00946 335.3 10.2
320(9) 0.01037 335.2 9.8
358(10) 0.00956 335.1 9.4
356(10) 0.00868 335.1 8.9
364(11) 0.00810 335.0 8.6
345(10) 0.00921 335.0 8.2
326(9) 0.01015 334.9 7.9
331(9) 0.01023 334.9 7.6
320(10) 0.00998 334.8 7.3
340(10) 0.00885 334.8 7.0
350(10) 0.00898 334.7 6.7
357(10) 0.00956 334.7 6.5
334(10) 0.00992 334.6 6.2
335(10) 0.00934 334.6 6.0
302(9) 0.01041 334.5 5.8
322(9) 0.01017 334.5 5.6
344(10) 0.00978 334.4 5.4
361(10) 0.00934 334.4 5.3
327(10) 0.00988 334.3 5.1
364(11) 0.00798 334.3 4.9
352(10) 0.00927 334.2 4.8
330(9) 0.01034 334.1 4.6
330(10) 0.00996 334.1 4.5
337(10) 0.00927 334.0 4.4
332(10) 0.00899 334.0 4.2
323(10) 0.00990 333.9 4.1
373(10) 0.00917 333.9 4.0
351(10) 0.00950 333.8 3.9
356(10) 0.00893 333.8 3.8
345(10) 0.00904 333.7 3.7
328(10) 0.01001 333.7 3.6
351(10) 0.00964 333.6 3.5
347(10) 0.00954 333.6 3.4
334(10) 0.00931 333.5 3.4
339(10) 0.00876 333.5 3.3
329(10) 0.00969 333.4 3.2
325(9) 0.01037 333.4 3.1
364(10) 0.00907 333.3 3.1
327(10) 0.00945 333.2 3.0
334(10) 0.00938 333.2 2.9
329(10) 0.00986 333.1 2.9
330(9) 0.01028 333.1 2.8
334(10) 0.00942 333.0 2.7
307(9) 0.01035 333.0 2.7
325(10) 0.00981 332.9 2.6
317(9) 0.01047 332.9 2.6
309(9) 0.01083 332.8 2.5
347(10) 0.00905 332.8 2.5
348(10) 0.00887 332.7 2.4
342(10) 0.00931 332.7 2.4
336(10) 0.00980 332.6 2.3
338(10) 0.00999 332.6 2.3
351(10) 0.00873 332.5 2.2
362(11) 0.00834 332.5 2.2
317(9) 0.01031 332.4 2.2
339(10) 0.00986 332.3 2.1
339(10) 0.01001 332.3 2.1
322(10) 0.00962 332.2 2.0
312(10) 0.00944 332.2 2.0
332(10) 0.00941 332.1 2.0
334(10) 0.00995 332.1 1.9
352(10) 0.00961 332.0 1.9
349(10) 0.00921 332.0 1.9
350(10) 0.00863 331.9 1.8
345(10) 0.00926 331.9 1.8
329(9) 0.01023 331.8 1.8
324(9) 0.01040 331.8 1.8
342(10) 0.00926 331.7 1.7
341(10) 0.00885 331.7 1.7
325(10) 0.00982 331.6 1.7
326(9) 0.01032 331.6 1.6
328(9) 0.01034 331.5 1.6
342(10) 0.00914 331.4 1.6
349(10) 0.00852 331.4 1.6
348(10) 0.00909 331.3 1.5
318(9) 0.01062 331.3 1.5
362(10) 0.00909 331.2 1.5
365(10) 0.00868 331.2 1.5
330(10) 0.00929 331.1 1.5
360(10) 0.00871 331.1 1.4
345(10) 0.00988 331.0 1.4
338(10) 0.00976 331.0 1.4
344(10) 0.00885 330.9 1.4
328(10) 0.00933 330.9 1.4
327(10) 0.00993 330.8 1.3
335(9) 0.01009 330.8 1.3
333(10) 0.00995 330.7 1.3
340(10) 0.00930 330.7 1.3
360(10) 0.00865 330.6 1.3
354(10) 0.00918 330.5 1.3
323(9) 0.01045 330.5 1.3
337(10) 0.00940 330.4 1.2
340(10) 0.00925 330.4 1.7
333(10) 0.00957 330.3 1.7
329(10) 0.00986 330.3 1.7
323(9) 0.01039 330.2 1.7
344(10) 0.00919 330.2 1.7
347(10) 0.00861 330.1 1.7
330(10) 0.00960 330.1 1.7
325(9) 0.01021 330.0 1.6
326(9) 0.01041 330.0 1.6
348(10) 0.00921 329.9 1.6
345(10) 0.00897 329.9 1.6
342(10) 0.00937 329.8 1.6
328(9) 0.01016 329.8 1.6
342(10) 0.00994 329.7 1.6
303(9) 0.01054 329.6 1.6
337(10) 0.00883 329.6 1.6
311(9) 0.01030 329.5 1.6
326(10) 0.00998 329.5 1.6
341(10) 0.00991 329.4 1.6
353(10) 0.00928 329.4 1.6
326(10) 0.00927 329.3 1.6
309(9) 0.01018 329.3 1.6
340(10) 0.00982 329.2 1.6
329(9) 0.01035 329.2 1.6
354(10) 0.00909 329.1 1.6
321(10) 0.00938 329.1 1.6
337(10) 0.00944 329.0 1.6
356(10) 0.00945 329.0 1.6
331(9) 0.01038 328.9 1.6
344(10) 0.00963 328.9 1.5
342(10) 0.00889 328.8 1.5
338(10) 0.00948 328.8 1.5
342(10) 0.00978 328.7 1.5
317(9) 0.01056 328.6 1.5
322(10) 0.00983 328.6 1.5
363(11) 0.00837 328.5 1.5
353(10) 0.00911 328.6 1.5
353(10) 0.00951 328.6 1.6
347(10) 0.00938 328.6 1.6
341(10) 0.00947 328.7 1.6
319(10) 0.01002 328.7 1.6
346(10) 0.00913 328.7 1.6
334(9) 0.01023 328.7 1.6
333(10) 0.00981 328.8 1.6
333(10) 0.00960 328.8 1.6
329(10) 0.00963 328.8 1.6
338(10) 0.00938 328.9 1.6
311(9) 0.01070 328.9 1.6
318(9) 0.01022 328.9 1.6
330(10) 0.00953 329.0 1.6
332(10) 0.00949 329.0 1.6
336(10) 0.00993 329.0 1.6
314(9) 0.01065 329.1 1.6
326(10) 0.00938 329.1 1.6
333(10) 0.00920 329.1 1.6
341(10) 0.00914 329.2 1.6
309(9) 0.01057 329.2 1.6
340(10) 0.01002 329.2 1.6
352(10) 0.00890 329.3 1.6
310(10) 0.00995 329.3 1.7
322(10) 0.00946 329.3 1.7
358(10) 0.00938 329.3 1.7
331(9) 0.01010 329.4 1.7
340(10) 0.00911 329.4 1.7
341(10) 0.00913 329.4 1.7
329(10) 0.00977 329.5 1.7
358(10) 0.00914 329.5 1.7
330(9) 0.01023 329.5 1.7
325(10) 0.00962 329.6 1.8
332(10) 0.00876 329.6 1.8
340(10) 0.00900 329.6 1.8
331(9) 0.01010 329.7 1.8
341(10) 0.00986 329.7 1.8
291(9) 0.01113 329.7 1.8
347(10) 0.00862 329.8 1.8
336(10) 0.00967 329.8 1.9
354(10) 0.00960 329.8 1.9
358(10) 0.00959 329.9 1.9
354(10) 0.00904 329.9 1.9
337(10) 0.00912 329.9 1.9
340(10) 0.00965 329.9 2.0
342(10) 0.00995 330.0 2.0
352(10) 0.00945 330.0 2.0
337(10) 0.00968 330.0 2.1
359(11) 0.00828 330.1 2.1
358(10) 0.00855 330.1 2.1
352(10) 0.00969 330.1 3.4
327(9) 0.01010 330.2 3.4
309(9) 0.01037 330.2 3.5
341(10) 0.00869 330.2 3.6
366(10) 0.00845 330.3 3.7
324(9) 0.01035 330.3 3.7
336(10) 0.00985 330.3 3.8
322(9) 0.01021 330.4 3.9
345(10) 0.00881 330.4 4.1
346(10) 0.00931 330.4 4.2
371(10) 0.00915 330.5 4.3
316(9) 0.01061 330.5 4.4
344(10) 0.00910 330.5 4.6
350(10) 0.00879 330.5 4.7
351(10) 0.00926 330.6 4.9
361(10) 0.00944 330.6 5.1
350(10) 0.00926 330.6 5.3
336(10) 0.00915 330.7 5.5
367(11) 0.00825 330.7 5.7
334(10) 0.01001 330.7 5.9
329(9) 0.01028 330.8 6.1
355(10) 0.00887 330.8 6.3
309(9) 0.01026 330.8 6.6
343(10) 0.00886 330.9 6.8
333(10) 0.00990 330.9 7.1
315(9) 0.01068 330.9 7.3
333(10) 0.00926 331.0 7.6
325(10) 0.00940 331.0 7.8
353(10) 0.00917 331.0 8.0
353(10) 0.00956 331.1 8.2
348(10) 0.00970 331.1 8.4
352(10) 0.00907 331.1 8.6
359(10) 0.00841 331.1 8.7
334(10) 0.00961 331.2 8.8
345(10) 0.00963 331.2 8.9
312(9) 0.01079 331.2 9.0
316(10) 0.01000 331.3 9.0
332(10) 0.00893 331.3 9.1
369(10) 0.00865 331.3 9.1
360(10) 0.00948 331.4 9.2
333(9) 0.01009 331.4 9.3
355(10) 0.00920 331.4 9.3
353(10) 0.00879 331.5 9.4
369(10) 0.00858 331.5 9.6
343(10) 0.00976 331.5 9.7
362(10) 0.00918 331.6 9.9
334(10) 0.00948 331.6 10.1
310(10) 0.00996 331.6 10.3
344(10) 0.00921 331.7 10.6
326(9) 0.01040 331.7 10.9
334(10) 0.00953 331.7 11.3
357(10) 0.00874 331.7 11.7
342(10) 0.00900 331.8 12.1
360(10) 0.00895 331.8 12.6
346(10) 0.00979 331.8 13.1
328(9) 0.01008 331.9 13.7
361(10) 0.00860 331.9 14.4
350(10) 0.00886 331.9 15.3
327(10) 0.01004 332.0 16.1
344(10) 0.00989 332.0 17.0
341(10) 0.00950 332.0 18.1
385(11) 0.00791 332.1 19.2
358(10) 0.00870 332.1 20.5
363(10) 0.00907 332.1 22.0
375(10) 0.00905 332.2 23.6
383(10) 0.00857 332.2 25.5
362(10) 0.00887 332.2 27.7
380(10) 0.00848 332.3 30.2
376(10) 0.00892 332.3 33.1
383(10) 0.00898 332.3 36.5
378(10) 0.00844 332.3 40.6
404(11) 0.00771 332.4 45.4
414(11) 0.00799 332.4 51.5
466(11) 0.00724 332.4 59.3
441(11) 0.00783 332.5 70.0
439(11) 0.00766 332.5 85.4
516(13) 0.00594 332.5 109.0
511(12) 0.00632 332.6 145.7
572(13) 0.00596 332.6 202.1
623(13) 0.00570 332.6 285.7
723(14) 0.00467 332.7 402.3
881(16) 0.00366 332.7 553.9
1019(17) 0.003325 332.7 733.6
1168(18) 0.003061 332.8 923.0
1418(19) 0.002574 332.8 1088.3
1645(22) 0.002066 332.8 1181.8
1689(23) 0.001837 332.9 1167.5
1518(21) 0.002258 332.9 1051.9
1212(18) 0.002991 332.9 877.0
946(16) 0.00376 332.9 687.6
751(15) 0.00445 333.0 514.4
622(14) 0.00514 333.0 371.9
571(13) 0.00578 333.0 264.6
497(12) 0.00703 333.1 189.2
506(12) 0.00681 333.1 138.9
464(12) 0.00695 333.1 106.7
424(11) 0.00750 333.2 86.1
417(11) 0.00798 333.2 72.6
399(10) 0.00856 333.2 63.3
391(10) 0.00866 333.3 56.6
375(10) 0.00874 333.3 51.5
413(11) 0.00756 333.3 47.5
399(11) 0.00801 333.4 44.2
374(10) 0.00917 333.4 41.6
386(11) 0.00834 333.4 39.5
395(11) 0.00795 333.5 37.9
359(10) 0.00891 333.5 36.5
361(10) 0.00873 333.5 35.5
384(10) 0.00892 333.5 34.8
373(10) 0.00900 333.6 34.3
384(11) 0.00812 333.6 34.0
405(11) 0.00788 333.6 34.0
384(10) 0.00858 333.7 34.1
363(10) 0.00951 333.7 34.4
346(10) 0.00941 333.7 34.9
382(10) 0.00851 333.8 35.6
369(10) 0.00890 333.8 36.5
376(10) 0.00870 333.8 37.5
360(10) 0.00946 333.9 38.8
362(10) 0.00882 333.9 40.3
385(11) 0.00814 333.9 42.0
386(10) 0.00856 334.0 44.1
386(10) 0.00862 334.0 46.4
365(10) 0.00934 334.0 49.1
389(11) 0.00826 334.1 52.2
392(11) 0.00755 334.1 55.8
405(11) 0.00774 334.1 60.1
389(10) 0.00881 334.1 65.1
388(10) 0.00891 334.2 71.1
394(11) 0.00836 334.2 78.4
424(11) 0.00711 334.2 87.1
418(11) 0.00778 334.3 97.8
421(11) 0.00806 334.3 110.8
432(11) 0.00792 334.3 126.6
460(12) 0.00705 334.4 145.7
484(12) 0.00626 334.4 168.7
508(12) 0.00625 334.4 196.1
511(12) 0.00679 334.5 228.3
573(12) 0.00611 334.5 265.5
636(13) 0.00524 334.5 308.0
677(15) 0.00448 334.6 355.4
715(14) 0.00467 334.6 407.2
804(15) 0.00446 334.6 461.7
880(15) 0.00402 334.7 516.7
886(16) 0.00387 334.7 568.8
953(17) 0.003350 334.7 613.3
995(17) 0.003393 334.7 645.3
1001(16) 0.00359 334.8 660.1
968(16) 0.00367 334.8 655.6
938(16) 0.00357 334.8 632.4
815(15) 0.00404 334.9 594.1
821(15) 0.00402 334.9 545.7
780(14) 0.00457 334.9 492.1
711(14) 0.00474 335.0 437.5
656(14) 0.00490 335.0 384.6
613(14) 0.00520 335.0 335.5
624(13) 0.00526 335.1 291.2
585(13) 0.00599 335.1 252.1
532(12) 0.00634 335.1 218.4
529(12) 0.00613 335.2 189.9
513(12) 0.00623 335.2 166.4
471(12) 0.00702 335.2 147.6
487(11) 0.00713 335.3 133.6
507(12) 0.00654 335.3 124.7
473(12) 0.00679 335.3 122.1
456(12) 0.00703 335.3 127.8
469(11) 0.00717 335.4 144.6
509(12) 0.00690 335.4 175.2
516(12) 0.00629 335.4 220.4
612(13) 0.00532 335.5 277.9
721(15) 0.00454 335.5 339.8
804(15) 0.00432 335.5 391.9
833(15) 0.00427 335.6 415.0
770(15) 0.00432 335.6 397.4
707(15) 0.00443 335.6 345.9
623(13) 0.00541 335.7 278.8
546(12) 0.00641 335.7 212.2
474(11) 0.00738 335.7 155.6
461(12) 0.00693 335.8 112.5
415(11) 0.00740 335.8 82.6
411(11) 0.00770 335.8 63.2
379(10) 0.00886 335.9 51.0
410(11) 0.00824 335.9 43.3
399(11) 0.00807 335.9 38.2
405(11) 0.00723 335.9 34.5
374(10) 0.00866 336.0 31.6
366(10) 0.00911 336.0 29.3
362(10) 0.00912 336.0 27.3
382(11) 0.00815 336.1 25.5
373(11) 0.00799 336.1 24.0
349(10) 0.00916 336.1 22.6
348(10) 0.00955 336.2 21.4
349(10) 0.00984 336.2 20.4
340(10) 0.00925 336.2 19.4
341(10) 0.00874 336.3 18.5
347(10) 0.00916 336.3 17.7
345(10) 0.00983 336.3 17.0
379(10) 0.00885 336.4 16.3
356(10) 0.00896 336.4 15.7
342(10) 0.00910 336.4 15.1
353(10) 0.00927 336.5 14.6
356(10) 0.00952 336.5 14.1
361(10) 0.00921 336.5 13.6
353(10) 0.00863 336.5 13.2
339(10) 0.00875 336.6 12.8
350(10) 0.00876 336.6 12.4
354(10) 0.00961 336.6 12.1
342(10) 0.00958 336.7 11.8
372(11) 0.00810 336.7 11.5
356(10) 0.00861 336.7 11.2
354(10) 0.00906 336.8 10.9
336(9) 0.01011 336.8 10.7
353(10) 0.00932 336.8 10.5
331(10) 0.00992 336.9 10.2
343(10) 0.00958 336.9 10.0
355(10) 0.00886 336.9 9.8
342(10) 0.01001 337.0 9.7
344(10) 0.00914 337.0 9.5
359(10) 0.00869 337.0 9.3
372(10) 0.00854 337.1 9.2
349(10) 0.00964 337.1 9.1
360(10) 0.00937 337.1 8.9
344(10) 0.00910 337.1 8.8
358(10) 0.00857 337.2 8.7
323(10) 0.00988 337.2 8.6
340(10) 0.00967 337.2 8.5
370(10) 0.00920 337.3 8.4
341(10) 0.00906 337.3 8.3
326(10) 0.00946 337.3 8.3
346(10) 0.00919 337.4 8.2
344(10) 0.00971 337.4 8.1
360(10) 0.00952 337.4 8.1
364(10) 0.00867 337.5 8.0
355(11) 0.00826 337.5 8.0
371(10) 0.00865 337.5 7.9
375(10) 0.00912 337.6 7.9
354(10) 0.00973 337.6 7.9
347(10) 0.00925 337.6 7.9
369(11) 0.00779 337.7 7.8
325(10) 0.00964 337.7 7.8
346(10) 0.00978 337.7 7.8
367(10) 0.00917 337.7 7.8
347(10) 0.00941 337.8 7.8
340(10) 0.00894 337.8 7.8
334(10) 0.00934 337.8 7.9
346(10) 0.00983 337.9 7.9
339(10) 0.00983 337.9 7.9
349(10) 0.00917 337.9 7.9
313(10) 0.00944 338.0 8.0
334(10) 0.00884 338.0 8.0
359(10) 0.00954 338.0 8.1
359(10) 0.00910 338.1 8.1
368(10) 0.00854 338.1 8.2
322(10) 0.00957 338.1 8.3
349(10) 0.00899 338.1 8.3
365(10) 0.00932 338.1 8.4
353(10) 0.00935 338.0 8.5
351(10) 0.00898 338.0 8.6
363(10) 0.00876 338.0 8.7
387(11) 0.00823 338.0 8.9
351(10) 0.00972 338.0 9.0
336(10) 0.00996 338.0 9.1
350(10) 0.00927 338.0 9.3
330(10) 0.00983 338.0 9.4
357(10) 0.00923 338.0 9.6
366(10) 0.00929 338.0 9.8
311(10) 0.01002 338.0 10.0
337(10) 0.00904 338.0 10.2
354(10) 0.00866 338.0 10.4
353(10) 0.00931 338.0 10.6
372(10) 0.00913 338.0 10.8
348(10) 0.00940 338.0 11.1
360(10) 0.00864 338.0 11.4
337(10) 0.00936 338.0 11.7
360(10) 0.00883 338.0 12.0
348(10) 0.00982 338.0 12.3
363(10) 0.00870 338.0 12.6
382(11) 0.00812 338.0 13.0
373(10) 0.00857 338.0 13.4
357(10) 0.00940 338.0 13.8
366(10) 0.00936 338.0 14.2
382(10) 0.00847 338.0 14.7
351(10) 0.00875 338.0 15.2
397(11) 0.00784 338.0 15.7
360(10) 0.00946 338.0 16.3
354(10) 0.00957 338.0 16.8
345(10) 0.00923 338.0 17.5
383(11) 0.00762 338.0 18.1
381(11) 0.00826 338.0 18.8
378(10) 0.00892 338.0 19.6
362(10) 0.00931 338.0 20.4
385(11) 0.00815 338.0 21.2
398(11) 0.00772 338.0 22.1
378(10) 0.00874 338.0 23.1
341(10) 0.00994 338.0 24.2
378(10) 0.00868 338.0 25.3
379(11) 0.00833 338.0 26.6
350(10) 0.00896 338.0 28.0
392(11) 0.00832 337.9 29.6
383(10) 0.00896 337.9 31.3
408(11) 0.00837 337.9 33.2
392(11) 0.00812 337.9 35.3
369(10) 0.00844 337.9 37.6
345(10) 0.00920 337.9 40.2
391(10) 0.00878 337.9 43.1
374(10) 0.00898 337.9 46.8
383(11) 0.00832 337.9 50.3
399(11) 0.00802 337.9 54.1
435(11) 0.00748 337.9 58.2
419(11) 0.00823 337.9 62.7
396(11) 0.00812 337.9 67.3
435(11) 0.00732 337.9 72.2
414(11) 0.00767 337.9 77.1
414(11) 0.00778 337.9 82.0
441(11) 0.00782 337.9 86.9
442(11) 0.00757 337.9 91.1
457(12) 0.00693 337.9 94.5
442(11) 0.00721 337.9 96.9
435(11) 0.00779 337.9 98.8
445(11) 0.00775 337.9 98.9
451(11) 0.00724 337.9 97.9
442(11) 0.00709 337.9 95.9
439(11) 0.00744 337.9 93.2
424(11) 0.00772 337.9 90.0
454(11) 0.00765 337.9 86.6
454(11) 0.00717 337.9 83.0
419(11) 0.00715 337.9 79.6
395(11) 0.00814 337.9 76.3
404(10) 0.00843 337.9 73.3
418(11) 0.00825 337.9 70.6
425(11) 0.00763 337.9 68.2
405(11) 0.00763 337.9 66.1
406(11) 0.00792 337.9 64.5
398(10) 0.00861 337.9 63.2
398(10) 0.00855 337.9 62.3
406(11) 0.00825 337.9 61.8
407(11) 0.00753 337.9 61.6
414(11) 0.00767 337.9 62.0
407(11) 0.00833 337.9 62.8
415(11) 0.00829 337.9 64.1
417(11) 0.00766 337.8 65.9
412(11) 0.00729 337.8 68.4
430(11) 0.00757 337.8 71.6
417(11) 0.00826 337.8 75.6
437(11) 0.00792 337.8 80.5
461(11) 0.00708 337.8 86.3
454(12) 0.00694 337.8 93.2
440(11) 0.00758 337.8 101.2
455(11) 0.00769 337.8 110.4
445(11) 0.00774 337.8 120.8
504(12) 0.00640 337.8 132.5
496(12) 0.00645 337.8 145.3
509(12) 0.00607 337.8 159.3
505(12) 0.00692 337.8 174.1
558(12) 0.00610 337.8 189.4
543(13) 0.00602 337.8 204.8
566(13) 0.00576 337.8 219.5
583(13) 0.00574 337.8 232.7
584(12) 0.00606 337.8 243.5
586(13) 0.00591 337.8 250.8
589(13) 0.00553 337.8 253.9
568(13) 0.00580 337.8 252.5
591(13) 0.00581 337.8 246.6
590(13) 0.00593 337.8 236.8
594(13) 0.00575 337.8 223.9
567(13) 0.00595 337.8 209.1
572(13) 0.00567 337.8 193.1
532(12) 0.00633 337.8 176.8
505(12) 0.00689 337.8 160.7
483(12) 0.00664 337.8 145.3
465(12) 0.00666 337.8 131.2
413(11) 0.00792 337.8 117.9
424(11) 0.00804 337.8 105.8
425(11) 0.00815 337.8 94.9
405(11) 0.00781 337.8 85.2
398(11) 0.00802 337.8 76.7
422(11) 0.00764 337.8 69.3
407(11) 0.00832 337.8 62.8
379(10) 0.00908 337.8 57.2
389(11) 0.00828 337.8 52.4
390(11) 0.00768 337.8 48.3
370(10) 0.00873 337.8 44.7
379(10) 0.00894 337.8 41.7
378(10) 0.00901 337.7 39.1
369(10) 0.00858 337.7 36.9
368(11) 0.00819 337.7 35.0
376(10) 0.00867 337.7 33.4
406(10) 0.00843 337.7 32.0
370(10) 0.00911 337.7 30.8
399(11) 0.00786 337.7 29.7
371(11) 0.00765 337.7 28.9
374(10) 0.00865 337.7 28.1
356(10) 0.00952 337.7 27.4
370(10) 0.00920 337.7 26.9
367(10) 0.00865 337.7 26.5
382(11) 0.00782 337.7 26.1
362(10) 0.00908 337.7 25.9
369(10) 0.00922 337.7 25.7
358(10) 0.00917 337.7 25.7
378(11) 0.00826 337.7 25.7
369(11) 0.00817 337.7 25.8
376(11) 0.00822 337.7 26.0
397(10) 0.00862 337.7 26.4
343(10) 0.00965 337.7 26.8
345(10) 0.00944 337.7 27.4
394(11) 0.00787 337.7 28.1
385(11) 0.00825 337.7 28.9
348(10) 0.00985 337.7 30.0
378(10) 0.00873 337.7 31.2
388(11) 0.00835 337.7 32.8
377(11) 0.00836 337.7 34.8
406(11) 0.00802 337.7 37.4
393(10) 0.00878 337.7 40.7
371(10) 0.00870 337.7 45.0
375(10) 0.00846 337.7 50.3
376(10) 0.00859 337.7 56.6
385(10) 0.00868 337.7 63.9
419(11) 0.00821 337.7 71.7
413(11) 0.00784 337.7 80.3
430(11) 0.00761 337.7 90.5
437(11) 0.00757 337.7 104.2
457(11) 0.00747 337.7 124.0
502(12) 0.00694 337.7 152.4
531(12) 0.00615 337.7 191.6
617(14) 0.00514 337.7 243.5
663(14) 0.00499 337.6 308.5
768(15) 0.00451 337.6 385.6
906(16) 0.00397 337.6 471.0
1035(17) 0.003335 337.6 557.2
1193(19) 0.002619 337.6 632.0
1232(19) 0.002728 337.6 679.0
1195(18) 0.002961 337.6 684.8
1119(17) 0.003258 337.6 647.6
1012(17) 0.003251 337.6 578.5
868(16) 0.00373 337.6 493.6
778(15) 0.00435 337.6 406.8
723(14) 0.00490 337.6 326.5
698(14) 0.00503 337.6 257.5
640(14) 0.00522 337.6 201.0
559(13) 0.00561 337.6 156.9
527(12) 0.00621 337.6 123.7
486(11) 0.00710 337.6 99.4
456(11) 0.00761 337.6 81.9
438(11) 0.00740 337.6 69.2
424(11) 0.00757 337.6 60.1
426(11) 0.00760 337.6 53.3
411(11) 0.00834 337.6 48.1
453(11) 0.00752 337.6 43.9
444(11) 0.00728 337.6 40.6
422(11) 0.00740 337.6 37.9
417(11) 0.00774 337.6 35.5
376(10) 0.00915 337.6 33.6
400(10) 0.00851 337.6 32.0
388(11) 0.00824 337.6 30.6
400(11) 0.00787 337.6 29.4
366(10) 0.00855 337.6 28.5
382(10) 0.00905 337.6 27.7
401(11) 0.00820 337.6 27.1
405(11) 0.00806 337.6 26.7
395(11) 0.00827 337.6 26.4
408(11) 0.00797 337.6 26.2
384(10) 0.00891 337.6 26.1
409(11) 0.00809 337.6 26.1
404(11) 0.00805 337.6 26.3
410(11) 0.00801 337.6 26.5
403(11) 0.00806 337.6 26.9
406(10) 0.00844 337.6 27.5
374(10) 0.00863 337.5 28.2
383(11) 0.00818 337.5 29.1
409(11) 0.00770 337.5 30.1
392(10) 0.00844 337.5 31.4
365(10) 0.00937 337.5 32.9
389(11) 0.00817 337.5 34.7
411(11) 0.00746 337.5 36.9
374(10) 0.00875 337.5 39.6
410(11) 0.00815 337.5 42.8
422(11) 0.00817 337.5 47.0
420(11) 0.00785 337.5 52.3
440(12) 0.00682 337.5 59.2
449(11) 0.00717 337.5 68.2
433(11) 0.00791 337.5 79.9
504(12) 0.00698 337.5 95.1
500(12) 0.00661 337.5 114.6
519(12) 0.00605 337.5 139.1
553(13) 0.00603 337.5 169.2
585(13) 0.00599 337.5 204.9
619(13) 0.00566 337.5 246.0
679(14) 0.00489 337.5 291.3
725(15) 0.00419 337.5 338.3
739(14) 0.00459 337.5 383.0
846(15) 0.00422 337.5 419.4
876(15) 0.00404 337.5 441.0
866(16) 0.00393 337.5 442.8
877(17) 0.00352 337.5 424.5
803(15) 0.00413 337.5 390.2
719(14) 0.00498 337.5 346.6
649(13) 0.00538 337.5 299.6
552(13) 0.00603 337.5 253.9
545(13) 0.00581 337.5 212.0
511(12) 0.00651 337.5 175.3
508(12) 0.00686 337.5 144.3
452(11) 0.00747 337.5 118.9
436(11) 0.00748 337.5 98.7
399(11) 0.00785 337.5 82.8
431(11) 0.00773 337.5 70.6
438(11) 0.00791 337.5 61.2
375(10) 0.00900 337.5 54.1
406(11) 0.00797 337.5 48.6
397(11) 0.00779 337.5 44.4
396(11) 0.00817 337.5 41.0
372(10) 0.00911 337.4 38.4
382(10) 0.00868 337.4 36.2
382(10) 0.00840 337.4 34.5
391(11) 0.00811 337.4 33.1
377(10) 0.00848 337.4 31.9
372(10) 0.00918 337.4 31.0
373(10) 0.00896 337.4 30.3
368(10) 0.00857 337.4 29.8
380(11) 0.00818 337.4 29.5
416(11) 0.00792 337.4 29.3
366(10) 0.00936 337.4 29.3
378(10) 0.00840 337.4 29.5
388(11) 0.00824 337.4 29.9
391(11) 0.00829 337.4 30.5
400(11) 0.00827 337.4 31.3
387(10) 0.00882 337.4 32.3
386(11) 0.00796 337.4 33.5
363(10) 0.00839 337.4 35.1
410(11) 0.00759 337.4 37.0
384(10) 0.00880 337.4 39.4
379(10) 0.00903 337.4 42.3
393(11) 0.00810 337.4 46.1
385(11) 0.00800 337.4 50.9
385(11) 0.00820 337.4 57.4
387(10) 0.00865 337.4 66.3
415(11) 0.00837 337.4 78.5
442(11) 0.00732 337.4 95.3
420(11) 0.00746 337.4 118.0
487(12) 0.00672 337.4 148.3
504(12) 0.00698 337.4 187.1
520(12) 0.00669 337.4 234.9
582(13) 0.00571 337.4 291.2
660(14) 0.00479 337.4 353.1
790(15) 0.00418 337.4 415.6
833(15) 0.00427 337.4 469.7
874(15) 0.00407 337.4 503.6
840(15) 0.00404 337.4 507.7
783(15) 0.00419 337.4 480.7
749(15) 0.00453 337.4 430.7
644(13) 0.00551 337.4 369.3
589(13) 0.00575 337.4 306.6
577(13) 0.00564 337.4 248.4
564(13) 0.00540 337.3 198.3
543(12) 0.00605 337.3 157.2
487(11) 0.00715 337.3 124.7
454(11) 0.00746 337.3 100.1
440(11) 0.00722 337.3 81.9
454(12) 0.00685 337.3 68.6
408(11) 0.00790 337.3 58.9
384(10) 0.00893 337.3 51.8
388(10) 0.00852 337.3 46.5
390(11) 0.00828 337.3 42.4
403(11) 0.00779 337.3 39.2
405(11) 0.00823 337.3 36.5
408(10) 0.00839 337.3 34.4
391(10) 0.00850 337.3 32.6
392(11) 0.00792 337.3 31.0
385(11) 0.00823 337.3 29.8
395(10) 0.00847 337.3 28.8
381(10) 0.00899 337.3 28.0
376(10) 0.00877 337.3 27.3
412(11) 0.00775 337.3 27.0
385(11) 0.00836 337.3 26.9
363(10) 0.00910 337.3 27.3
399(10) 0.00862 337.3 28.3
383(11) 0.00826 337.3 30.3
396(11) 0.00795 337.3 33.7
380(10) 0.00886 337.3 38.8
380(10) 0.00892 337.3 46.1
393(10) 0.00865 337.3 55.6
408(11) 0.00796 337.3 66.8
425(11) 0.00730 337.3 78.4
457(11) 0.00736 337.3 88.2
462(11) 0.00741 337.3 93.3
439(11) 0.00794 337.3 91.6
466(12) 0.00685 337.3 83.7
425(11) 0.00721 337.3 72.2
401(11) 0.00809 337.3 60.1
396(10) 0.00862 337.3 49.0
412(11) 0.00829 337.3 39.8
417(11) 0.00786 337.3 32.9
403(11) 0.00737 337.3 27.9
380(10) 0.00852 337.3 24.5
361(10) 0.00947 337.3 22.3
379(10) 0.00902 337.2 20.8
388(11) 0.00824 337.2 19.9
351(10) 0.00861 337.2 19.2
374(10) 0.00848 337.2 18.7
373(10) 0.00932 337.2 18.3
371(10) 0.00896 337.2 18.0
390(11) 0.00821 337.2 17.8
392(11) 0.00812 337.2 17.7
381(10) 0.00844 337.2 17.6
385(10) 0.00874 337.2 17.5
374(10) 0.00897 337.2 17.5
365(10) 0.00881 337.2 17.4
375(11) 0.00821 337.2 17.5
384(10) 0.00856 337.2 17.5
396(10) 0.00865 337.2 17.6
381(10) 0.00885 337.2 17.7
364(10) 0.00885 337.2 17.8
367(10) 0.00879 337.2 17.9
339(10) 0.00949 337.2 18.1
336(9) 0.01013 337.2 18.2
363(10) 0.00900 337.2 18.4
370(10) 0.00858 337.2 18.7
367(10) 0.00852 337.2 18.9
380(10) 0.00865 337.2 19.1
376(10) 0.00910 337.2 19.4
393(11) 0.00835 337.2 19.7
399(11) 0.00790 337.2 20.0
360(10) 0.00888 337.2 20.4
382(11) 0.00838 337.2 20.7
366(10) 0.00930 337.2 21.1
381(11) 0.00832 337.2 21.5
372(11) 0.00823 337.2 21.9
361(10) 0.00875 337.2 22.3
378(10) 0.00876 337.2 22.8
390(10) 0.00886 337.2 23.3
374(11) 0.00817 337.2 23.8
374(11) 0.00790 337.2 24.4
357(10) 0.00893 337.2 25.0
355(10) 0.00949 337.2 25.6
359(10) 0.00948 337.2 26.3
374(10) 0.00841 337.2 26.9
366(11) 0.00829 337.2 27.7
362(10) 0.00902 337.2 28.4
378(10) 0.00902 337.1 29.2
369(10) 0.00932 337.1 30.1
358(10) 0.00924 337.1 31.0
374(11) 0.00803 337.1 31.9
365(10) 0.00882 337.1 32.9
381(10) 0.00912 337.1 34.0
365(10) 0.00939 337.1 35.1
391(11) 0.00805 337.1 36.3
399(11) 0.00745 337.1 37.6
375(11) 0.00826 337.1 38.9
368(10) 0.00917 337.1 40.4
377(10) 0.00902 337.1 41.9
378(10) 0.00845 337.1 43.5
400(11) 0.00749 337.1 45.3
382(10) 0.00839 337.1 47.1
381(10) 0.00903 337.1 49.2
406(11) 0.00833 337.1 51.3
390(11) 0.00810 337.1 53.7
376(11) 0.00813 337.1 56.2
395(11) 0.00806 337.1 59.0
416(11) 0.00824 337.1 62.0
391(10) 0.00854 337.1 65.3
407(11) 0.00784 337.1 68.9
410(11) 0.00757 337.1 72.9
397(11) 0.00808 337.1 77.4
426(11) 0.00816 337.1 82.3
423(11) 0.00771 337.1 87.7
456(11) 0.00709 337.1 93.8
429(11) 0.00765 337.1 100.5
433(11) 0.00769 337.1 108.0
425(11) 0.00805 337.1 116.4
459(12) 0.00700 337.1 125.7
497(12) 0.00625 337.1 136.1
465(12) 0.00704 337.1 147.6
505(12) 0.00666 337.1 160.3
482(11) 0.00719 337.1 174.4
517(12) 0.00626 337.1 189.9
522(13) 0.00602 337.1 207.0
528(12) 0.00610 337.1 225.6
530(12) 0.00647 337.1 245.9
576(12) 0.00609 337.1 267.8
607(13) 0.00534 337.1 291.4
641(14) 0.00498 337.0 316.7
652(13) 0.00532 337.0 343.5
703(14) 0.00499 337.0 371.7
717(14) 0.00496 337.0 401.1
768(15) 0.00435 337.0 431.4
807(16) 0.00385 337.0 462.1
842(16) 0.00389 337.0 492.7
865(15) 0.00408 337.0 522.5
936(16) 0.00384 337.0 550.6
971(17) 0.003448 337.0 576.0
918(17) 0.003348 337.0 597.8
968(17) 0.003444 337.0 614.9
930(16) 0.00386 337.0 626.4
951(16) 0.00375 337.0 631.8
920(16) 0.00366 337.0 630.8
927(17) 0.003390 337.0 623.4
891(16) 0.00377 337.0 610.0
867(15) 0.00412 337.0 591.4
862(15) 0.00407 337.0 568.6
831(16) 0.00400 337.0 542.4
759(15) 0.00420 337.0 514.0
783(15) 0.00422 337.0 484.4
723(14) 0.00493 337.0 454.1
737(14) 0.00473 337.0 424.0
699(14) 0.00487 337.0 394.6
715(15) 0.00438 337.0 366.2
666(14) 0.00497 337.0 339.1
665(13) 0.00533 337.0 313.6
617(13) 0.00555 337.0 289.7
623(13) 0.00527 337.0 267.6
604(13) 0.00541 337.0 247.3
565(13) 0.00577 337.0 228.8
547(12) 0.00643 337.0 212.1
555(13) 0.00605 337.0 197.3
547(13) 0.00601 337.0 184.2
523(12) 0.00623 337.0 172.9
527(12) 0.00620 337.0 163.4
531(12) 0.00664 337.0 155.6
489(12) 0.00675 337.0 149.6
506(12) 0.00626 337.0 145.2
490(12) 0.00644 337.0 142.3
496(12) 0.00680 337.0 140.9
532(12) 0.00655 336.9 140.8
492(12) 0.00672 336.9 141.7
517(12) 0.00608 336.9 143.0
493(12) 0.00662 336.9 144.3
517(12) 0.00649 336.9 144.7
520(12) 0.00672 336.9 143.7
496(12) 0.00660 336.9 140.7
490(12) 0.00667 336.9 135.7
482(12) 0.00685 336.9 129.3
469(11) 0.00723 336.9 122.1
482(11) 0.00715 336.9 114.6
471(12) 0.00687 336.9 107.5
455(12) 0.00670 336.9 101.0
431(11) 0.00758 336.9 95.3
435(11) 0.00784 336.9 90.4
474(11) 0.00733 336.9 86.6
439(11) 0.00733 336.9 83.6
432(12) 0.00691 336.9 81.6
442(11) 0.00748 336.9 80.4
438(11) 0.00784 336.9 80.1
430(11) 0.00806 336.9 80.6
436(11) 0.00748 336.9 81.8
428(12) 0.00704 336.9 83.8
434(11) 0.00743 336.9 86.6
435(11) 0.00799 336.9 90.1
429(11) 0.00806 336.9 94.4
463(12) 0.00687 336.9 99.4
421(11) 0.00738 336.9 105.2
445(11) 0.00715 336.9 111.7
459(11) 0.00750 336.9 119.0
489(12) 0.00705 336.9 126.6
462(11) 0.00713 336.9 134.5
494(12) 0.00616 336.9 142.5
503(12) 0.00636 336.9 150.2
539(12) 0.00651 336.9 157.0
521(12) 0.00654 336.9 162.5
497(12) 0.00647 336.9 166.2
497(12) 0.00649 336.9 167.6
518(12) 0.00617 336.9 166.6
509(12) 0.00686 336.9 163.3
521(12) 0.00639 336.9 158.1
489(12) 0.00664 336.9 151.4
462(12) 0.00695 336.9 143.7
493(12) 0.00654 336.8 135.6
468(11) 0.00741 336.8 127.4
454(11) 0.00733 336.8 119.3
427(11) 0.00762 336.8 111.7
444(11) 0.00727 336.8 104.5
479(12) 0.00696 336.8 97.9
439(11) 0.00785 336.8 92.0
466(12) 0.00698 336.8 86.6
430(11) 0.00733 336.8 81.7
422(11) 0.00762 336.8 77.5
446(11) 0.00752 336.8 73.7
457(11) 0.00762 336.8 70.3
396(11) 0.00816 336.8 67.3
404(11) 0.00781 336.8 64.7
401(11) 0.00811 336.8 62.3
410(11) 0.00812 336.8 60.1
413(10) 0.00840 336.8 58.0
408(11) 0.00782 336.8 56.1
389(11) 0.00781 336.8 54.3
395(11) 0.00820 336.8 52.6
392(10) 0.00858 336.8 51.0
407(10) 0.00848 336.8 49.3
393(11) 0.00833 336.8 47.7
396(11) 0.00772 336.8 46.2
410(11) 0.00797 336.8 44.6
409(11) 0.00834 336.8 43.1
387(10) 0.00880 336.8 41.6
356(10) 0.00911 336.8 40.2
400(11) 0.00766 336.8 38.8
401(11) 0.00818 336.8 37.4
398(10) 0.00868 336.8 36.0
385(10) 0.00878 336.8 34.8
408(11) 0.00805 336.8 33.5
370(10) 0.00869 336.8 32.3
373(10) 0.00878 336.8 31.2
347(10) 0.00975 336.8 30.1
400(10) 0.00859 336.8 29.0
382(11) 0.00831 336.8 28.0
377(11) 0.00835 336.8 27.1
378(10) 0.00868 336.8 26.2
395(10) 0.00870 336.8 25.3
370(10) 0.00898 336.8 24.5
360(10) 0.00886 336.7 23.8
385(11) 0.00800 336.7 23.1
377(10) 0.00864 336.7 22.4
357(10) 0.00953 336.7 21.8
367(10) 0.00892 336.7 21.2
368(10) 0.00857 336.7 20.6
364(10) 0.00849 336.7 20.1
381(11) 0.00836 336.7 19.6
366(10) 0.00936 336.7 19.2
378(10) 0.00879 336.7 18.8
378(11) 0.00835 336.7 18.4
361(10) 0.00879 336.7 18.0
363(10) 0.00888 336.7 17.7
363(10) 0.00926 336.7 17.4
369(10) 0.00874 336.7 17.2
345(10) 0.00881 336.7 17.0
350(10) 0.00891 336.7 16.7
367(10) 0.00915 336.7 16.6
358(10) 0.00935 336.7 16.4
358(10) 0.00892 336.7 16.3
352(10) 0.00892 336.7 16.2
373(10) 0.00867 336.7 16.1
369(10) 0.00894 336.7 16.1
354(10) 0.00956 336.7 16.0
380(10) 0.00851 336.7 16.1
381(11) 0.00793 336.7 16.1
379(11) 0.00837 336.7 16.2
383(10) 0.00867 336.7 16.3
376(10) 0.00908 336.7 16.4
372(11) 0.00833 336.7 16.6
355(10) 0.00869 336.7 16.8
383(10) 0.00858 336.7 17.1
372(10) 0.00909 336.7 17.4
340(10) 0.01007 336.7 17.8
381(11) 0.00812 336.7 18.2
353(10) 0.00848 336.7 18.8
370(10) 0.00842 336.7 19.4
389(10) 0.00869 336.7 20.1
387(10) 0.00869 336.7 21.0
382(11) 0.00829 336.7 21.9
388(11) 0.00789 336.7 23.1
415(11) 0.00775 336.7 24.3
413(11) 0.00818 336.7 25.8
405(11) 0.00825 336.6 27.4
364(10) 0.00898 336.6 29.2
393(11) 0.00762 336.6 31.3
385(11) 0.00822 336.6 33.5
385(10) 0.00886 336.6 36.0
398(10) 0.00851 336.6 38.8
422(11) 0.00767 336.6 41.8
409(11) 0.00754 336.6 45.0
409(11) 0.00782 336.6 48.5
424(11) 0.00822 336.6 52.1
425(11) 0.00796 336.6 55.9
431(11) 0.00748 336.6 59.9
444(11) 0.00726 336.6 63.8
462(12) 0.00705 336.6 67.7
455(11) 0.00764 336.6 71.4
460(11) 0.00715 336.6 74.8
463(12) 0.00694 336.6 77.7
463(12) 0.00679 336.6 80.0
472(12) 0.00696 336.6 81.4
463(11) 0.00753 336.6 82.0
481(12) 0.00684 336.6 81.7
451(12) 0.00693 336.6 80.5
454(11) 0.00711 336.6 78.4
456(11) 0.00744 336.6 75.7
481(11) 0.00720 336.6 72.4
482(12) 0.00668 336.6 68.7
430(11) 0.00739 336.6 64.8
434(11) 0.00740 336.6 60.8
399(10) 0.00850 336.6 56.8
411(11) 0.00834 336.6 52.9
403(11) 0.00809 336.6 49.1
402(11) 0.00776 336.6 45.5
409(11) 0.00816 336.6 42.1
386(10) 0.00869 336.6 39.0
427(11) 0.00807 336.6 36.1
386(11) 0.00821 336.6 33.5
381(11) 0.00817 336.6 31.0
384(11) 0.00836 336.6 28.9
358(10) 0.00948 336.6 26.9
358(10) 0.00962 336.6 25.1
376(10) 0.00882 336.6 23.6
388(11) 0.00761 336.6 22.2
377(10) 0.00850 336.5 21.0
376(10) 0.00911 336.5 19.9
362(10) 0.00932 336.5 18.9
386(11) 0.00811 336.5 18.1
389(11) 0.00747 336.5 17.4
344(10) 0.00947 336.5 16.8
382(10) 0.00891 336.5 16.3
366(10) 0.00926 336.5 15.8
372(10) 0.00870 336.5 15.5
348(10) 0.00894 336.5 15.2
389(11) 0.00821 336.5 14.9
373(10) 0.00919 336.5 14.7
372(10) 0.00907 336.5 14.6
354(10) 0.00919 336.5 14.5
330(10) 0.00911 336.5 14.4
340(10) 0.00901 336.5 14.4
377(10) 0.00905 336.5 14.5
379(10) 0.00880 336.5 14.6
373(10) 0.00860 336.5 14.7
387(11) 0.00798 336.5 14.9
389(10) 0.00856 336.5 15.2
381(10) 0.00895 336.5 15.5
329(10) 0.00983 336.5 15.9
342(10) 0.00910 336.5 16.3
373(10) 0.00840 336.5 16.9
361(10) 0.00898 336.5 17.5
355(10) 0.00958 336.5 18.2
370(10) 0.00886 336.5 18.9
366(10) 0.00851 336.5 19.8
348(10) 0.00911 336.5 20.7
387(10) 0.00847 336.5 21.8
356(10) 0.00957 336.5 22.9
368(10) 0.00860 336.5 24.2
371(10) 0.00842 336.5 25.5
365(10) 0.00849 336.5 27.0
379(10) 0.00883 336.5 28.5
374(10) 0.00911 336.5 30.1
376(11) 0.00801 336.5 31.8
375(11) 0.00804 336.5 33.6
390(11) 0.00821 336.5 35.4
355(10) 0.00942 336.5 37.2
377(10) 0.00902 336.5 39.0
365(10) 0.00882 336.4 40.7
402(11) 0.00765 336.4 42.3
370(10) 0.00883 336.4 43.8
375(10) 0.00898 336.4 45.0
409(10) 0.00840 336.4 46.0
385(11) 0.00815 336.4 46.7
372(11) 0.00833 336.4 47.0
418(11) 0.00767 336.4 47.0
390(10) 0.00883 336.4 46.7
398(10) 0.00844 336.4 46.0
392(11) 0.00819 336.4 45.1
383(11) 0.00786 336.4 43.9
389(11) 0.00829 336.4 42.5
406(10) 0.00846 336.4 41.0
377(10) 0.00917 336.4 39.4
390(11) 0.00822 336.4 37.8
390(11) 0.00775 336.4 36.2
377(10) 0.00849 336.4 34.6
379(10) 0.00912 336.4 33.1
350(10) 0.00954 336.4 31.7
362(10) 0.00879 336.4 30.4
388(11) 0.00786 336.4 29.2
370(10) 0.00864 336.4 28.1
370(10) 0.00931 336.4 27.2
380(10) 0.00885 336.4 26.4
359(10) 0.00882 336.4 25.8
349(10) 0.00865 336.4 25.3
371(10) 0.00862 336.4 25.0
399(10) 0.00861 336.4 24.9
342(10) 0.00970 336.4 25.0
383(11) 0.00827 336.4 25.4
360(10) 0.00882 336.4 26.0
334(10) 0.00988 336.4 26.9
388(10) 0.00882 336.4 28.2
384(10) 0.00857 336.4 30.0
349(10) 0.00917 336.4 32.2
374(11) 0.00838 336.4 35.0
361(10) 0.00909 336.4 38.4
376(10) 0.00904 336.4 42.6
389(11) 0.00810 336.4 47.8
372(10) 0.00845 336.4 53.6
396(11) 0.00810 336.4 60.4
399(11) 0.00825 336.4 68.0
397(10) 0.00859 336.3 76.5
425(11) 0.00753 336.3 85.6
443(12) 0.00704 336.3 95.2
430(11) 0.00760 336.3 104.9
449(11) 0.00744 336.3 114.0
464(11) 0.00755 336.3 121.8
452(11) 0.00708 336.3 127.5
451(12) 0.00678 336.3 130.3
432(11) 0.00773 336.3 129.9
433(11) 0.00796 336.3 126.4
464(11) 0.00746 336.3 120.1
444(12) 0.00703 336.3 111.9
414(11) 0.00730 336.3 102.7
394(11) 0.00799 336.3 93.0
426(11) 0.00814 336.3 83.6
433(11) 0.00793 336.3 74.7
423(11) 0.00792 336.3 66.6
412(11) 0.00733 336.3 59.4
400(11) 0.00799 336.3 53.2
373(10) 0.00917 336.3 48.0
374(10) 0.00926 336.3 43.9
403(11) 0.00795 336.3 40.9
379(11) 0.00811 336.3 39.3
380(10) 0.00858 336.3 39.3
417(11) 0.00825 336.3 41.5
395(10) 0.00843 336.3 46.5
442(11) 0.00719 336.3 55.1
451(12) 0.00686 336.3 67.6
489(12) 0.00667 336.3 84.0
514(12) 0.00679 336.3 103.1
545(12) 0.00619 336.3 122.6
594(13) 0.00562 336.3 138.3
643(14) 0.00493 336.3 144.8
651(14) 0.00494 336.3 139.4
557(12) 0.00632 336.3 123.9
482(11) 0.00711 336.3 103.3
465(12) 0.00696 336.3 82.3
442(11) 0.00728 336.3 63.5
402(11) 0.00828 336.3 48.2
388(10) 0.00881 336.3 36.7
359(10) 0.00921 336.3 28.5
402(11) 0.00778 336.3 22.9
417(11) 0.00762 336.2 19.2
372(10) 0.00887 336.2 16.7
382(10) 0.00905 336.2 14.9
399(11) 0.00793 336.2 13.6
386(11) 0.00812 336.2 12.6
337(10) 0.00973 336.2 11.7
375(10) 0.00892 336.2 11.0
387(10) 0.00891 336.2 10.4
374(10) 0.00869 336.2 9.9
353(10) 0.00877 336.2 9.4
341(10) 0.00958 336.2 9.0
364(10) 0.00924 336.2 8.7
334(9) 0.01013 336.2 8.3
346(10) 0.00910 336.2 8.0
369(11) 0.00812 336.2 7.8
392(11) 0.00815 336.2 7.5
373(10) 0.00898 336.2 7.3
340(10) 0.01000 336.2 7.1
316(10) 0.00998 336.2 6.9
331(10) 0.00881 336.2 6.8
351(10) 0.00899 336.2 6.6
351(10) 0.00973 336.2 6.5
355(10) 0.00968 336.2 6.3
357(10) 0.00913 336.2 6.2
346(10) 0.00897 336.2 6.1
376(10) 0.00899 336.2 6.0
371(10) 0.00907 336.2 5.9
354(10) 0.00949 336.2 5.8
349(10) 0.00917 336.2 5.7
349(10) 0.00875 336.2 5.6
351(10) 0.00902 336.2 5.6
351(10) 0.00976 336.2 5.5
337(10) 0.00999 336.2 5.5
336(10) 0.00946 336.2 5.4
343(10) 0.00886 336.2 5.3
364(10) 0.00894 336.2 5.3
340(10) 0.00991 336.2 5.3
356(10) 0.00934 336.2 5.2
335(10) 0.00931 336.2 5.2
334(10) 0.00891 336.2 5.1
350(10) 0.00859 336.2 5.1
366(10) 0.00934 336.2 5.2
335(10) 0.00981 336.1 5.1
320(9) 0.01010 336.1 5.1
337(10) 0.00940 336.1 5.1
361(10) 0.00889 336.1 5.1
351(10) 0.00969 336.1 5.1
366(10) 0.00887 336.0 5.1
334(10) 0.00954 336.0 5.1
331(10) 0.00960 336.0 5.1
342(10) 0.00945 336.0 5.1
351(10) 0.00974 335.9 5.1
343(10) 0.00918 335.9 5.1
322(10) 0.00971 335.9 5.1
347(10) 0.00901 335.9 5.1
354(10) 0.00943 335.9 5.2
329(9) 0.01036 335.8 5.2
321(10) 0.00977 335.8 5.2
329(10) 0.00946 335.8 5.2
310(9) 0.01013 335.8 5.3
344(10) 0.00965 335.7 5.3
359(10) 0.00955 335.7 5.4
337(10) 0.00931 335.7 5.4
337(10) 0.00883 335.7 5.5
342(10) 0.00911 335.7 5.6
350(10) 0.00972 335.6 5.6
352(10) 0.00950 335.6 5.7
334(10) 0.00948 335.6 5.8
340(10) 0.00905 335.6 5.9
367(10) 0.00845 335.5 6.1
367(10) 0.00922 335.5 6.2
361(10) 0.00945 335.5 6.4
333(10) 0.00988 335.5 6.5
360(10) 0.00843 335.5 6.7
345(10) 0.00950 335.4 6.9
335(10) 0.01001 335.4 7.2
362(10) 0.00943 335.4 7.5
351(10) 0.00945 335.4 7.8
356(11) 0.00831 335.3 8.2
392(11) 0.00813 335.3 8.7
359(10) 0.00952 335.3 9.3
365(10) 0.00919 335.3 10.0
357(10) 0.00915 335.2 11.0
347(10) 0.00887 335.2 12.3
379(10) 0.00856 335.2 14.2
398(10) 0.00865 335.2 16.7
385(10) 0.00865 335.2 20.2
381(10) 0.00855 335.1 24.8
401(11) 0.00769 335.1 30.8
399(11) 0.00809 335.1 38.2
427(11) 0.00809 335.1 46.8
455(11) 0.00728 335.0 56.2
480(12) 0.00646 335.0 65.4
503(12) 0.00622 335.0 72.9
511(12) 0.00647 335.0 76.8
486(11) 0.00719 335.0 75.9
484(12) 0.00698 334.9 70.6
464(11) 0.00718 334.9 62.4
421(11) 0.00761 334.9 53.1
397(11) 0.00831 334.9 44.0
406(10) 0.00845 334.8 36.0
373(10) 0.00890 334.8 29.3
376(11) 0.00828 334.8 23.9
342(10) 0.00963 334.8 19.9
359(10) 0.00914 334.8 16.9
345(10) 0.00988 334.7 14.8
359(10) 0.00919 334.7 13.3
368(10) 0.00862 334.7 12.2
352(10) 0.00890 334.7 11.5
333(10) 0.00995 334.6 11.0
352(10) 0.00961 334.6 10.6
355(10) 0.00922 334.6 10.3
363(10) 0.00867 334.6 10.1
347(10) 0.00903 334.6 9.9
362(10) 0.00916 334.5 9.8
370(10) 0.00918 334.5 9.8
386(11) 0.00785 334.5 9.8
341(10) 0.00883 334.5 9.8
328(10) 0.00996 334.4 9.8
333(9) 0.01016 334.4 9.9
344(10) 0.00979 334.4 9.9
320(9) 0.01025 334.4 10.1
360(11) 0.00837 334.3 10.2
349(10) 0.00930 334.3 10.3
363(10) 0.00937 334.3 10.5
322(9) 0.01026 334.3 10.7
348(10) 0.00916 334.3 11.0
353(10) 0.00860 334.2 11.2
350(10) 0.00918 334.2 11.5
348(10) 0.00973 334.2 11.8
311(9) 0.01078 334.2 12.2
327(10) 0.00953 334.1 12.6
332(10) 0.00921 334.1 13.0
363(10) 0.00874 334.1 13.5
346(10) 0.00983 334.1 14.1
349(10) 0.00953 334.1 14.7
331(10) 0.00986 334.0 15.4
336(10) 0.00913 334.0 16.1
365(10) 0.00872 334.0 16.9
354(10) 0.00959 334.0 17.8
365(10) 0.00931 333.9 18.8
364(10) 0.00921 333.9 19.9
374(11) 0.00826 333.9 21.1
359(10) 0.00876 333.9 22.3
337(10) 0.00998 333.9 23.7
335(10) 0.00994 333.8 25.1
358(10) 0.00880 333.8 26.6
355(10) 0.00887 333.8 28.2
355(10) 0.00900 333.8 29.8
347(10) 0.00981 333.7 31.4
343(10) 0.00955 333.7 32.9
367(10) 0.00854 333.7 34.4
361(10) 0.00881 333.7 35.7
364(10) 0.00902 333.7 36.9
375(10) 0.00908 333.6 37.8
384(11) 0.00821 333.6 38.6
378(11) 0.00832 333.6 39.2
397(11) 0.00776 333.6 39.7
362(10) 0.00920 333.5 40.1
369(10) 0.00923 333.5 40.5
392(11) 0.00823 333.5 40.9
351(10) 0.00893 333.5 41.4
358(10) 0.00874 333.5 42.1
354(10) 0.00943 333.4 43.0
362(10) 0.00941 333.4 44.2
380(10) 0.00849 333.4 45.6
387(11) 0.00785 333.4 47.4
397(11) 0.00798 333.3 49.6
366(10) 0.00926 333.3 52.3
397(10) 0.00879 333.3 55.6
419(11) 0.00758 333.3 59.6
401(11) 0.00764 333.2 64.6
388(10) 0.00859 333.2 70.7
425(11) 0.00803 333.2 78.3
434(11) 0.00793 333.2 87.5
466(12) 0.00706 333.2 98.9
476(12) 0.00618 333.1 112.7
471(12) 0.00696 333.1 129.4
495(12) 0.00703 333.1 149.3
496(12) 0.00704 333.1 172.7
557(13) 0.00580 333.0 199.7
595(13) 0.00523 333.0 230.3
645(14) 0.00508 333.0 264.0
680(14) 0.00520 333.0 300.1
742(14) 0.00476 333.0 336.9
807(15) 0.00416 332.9 372.2
825(16) 0.00384 332.9 402.9
867(16) 0.00383 332.9 424.9
876(15) 0.00410 332.9 435.3
843(15) 0.00413 332.8 432.3
850(16) 0.00389 332.8 416.8
767(15) 0.00428 332.8 391.5
765(15) 0.00438 332.8 360.1
673(13) 0.00529 332.8 325.9
660(14) 0.00510 332.7 291.9
634(14) 0.00512 332.7 259.7
601(13) 0.00553 332.7 230.4
561(13) 0.00604 332.7 204.6
549(12) 0.00637 332.6 182.3
513(12) 0.00656 332.6 163.6
520(12) 0.00613 332.6 148.1
483(12) 0.00672 332.6 135.6
504(12) 0.00661 332.6 125.7
505(12) 0.00692 332.5 117.9
457(11) 0.00726 332.5 112.0
479(12) 0.00650 332.5 107.4
484(12) 0.00676 332.5 104.0
500(12) 0.00672 332.4 101.4
473(11) 0.00737 332.4 99.5
485(12) 0.00665 332.4 97.9
460(12) 0.00704 332.4 96.7
454(11) 0.00728 332.4 95.6
492(12) 0.00690 332.3 94.6
475(11) 0.00733 332.3 93.5
465(11) 0.00711 332.3 92.4
465(12) 0.00674 332.3 91.2
451(11) 0.00721 332.2 89.8
417(11) 0.00808 332.2 88.3
460(11) 0.00748 332.2 86.7
478(12) 0.00675 332.2 84.9
461(12) 0.00669 332.1 83.1
417(11) 0.00794 332.1 81.2
436(11) 0.00793 332.1 79.2
451(11) 0.00763 332.1 77.2
424(11) 0.00760 332.1 75.1
422(12) 0.00694 332.0 73.1
417(11) 0.00782 332.0 71.0
418(11) 0.00823 332.0 68.9
409(11) 0.00831 332.0 66.8
411(11) 0.00810 331.9 64.8
416(11) 0.00746 331.9 62.7
428(11) 0.00756 331.9 60.6
399(10) 0.00865 331.9 58.6
392(10) 0.00861 331.9 56.5
399(11) 0.00817 331.8 54.5
417(12) 0.00697 331.8 52.5
388(11) 0.00802 331.8 50.4
378(10) 0.00912 331.8 48.5
389(10) 0.00864 331.7 46.5
389(10) 0.00843 331.7 44.6
409(11) 0.00772 331.7 42.8
374(10) 0.00849 331.7 41.0
366(10) 0.00938 331.7 39.2
361(10) 0.00923 331.6 37.5
368(10) 0.00879 331.6 35.9
385(11) 0.00827 331.6 34.3
393(11) 0.00832 331.6 32.8
383(10) 0.00887 331.5 31.3
341(10) 0.00972 331.5 29.9
382(11) 0.00824 331.5 28.6
336(10) 0.00956 331.5 27.4
351(10) 0.00924 331.5 26.2
368(10) 0.00925 331.4 25.0
363(10) 0.00870 331.4 23.9
345(10) 0.00907 331.4 22.9
377(10) 0.00843 331.4 21.9
366(10) 0.00888 331.3 21.0
328(9) 0.01032 331.3 20.1
352(10) 0.00910 331.3 19.2
363(10) 0.00843 331.3 18.4
342(10) 0.00950 331.3 17.7
348(10) 0.00960 331.2 17.0
358(10) 0.00941 331.2 16.3
340(10) 0.00913 331.2 15.6
343(10) 0.00906 331.2 15.0
365(10) 0.00890 331.1 14.5
353(10) 0.00929 331.1 13.9
340(10) 0.01006 331.1 13.4
339(10) 0.00915 331.1 12.9
347(10) 0.00855 331.0 12.5
330(10) 0.00947 331.0 12.1
323(9) 0.01029 331.0 11.6
319(9) 0.01059 331.0 11.3
323(10) 0.00993 331.0 10.9
319(10) 0.00934 330.9 10.6
335(10) 0.00908 330.9 10.2
357(10) 0.00937 330.9 9.9
335(10) 0.01005 330.9 9.6
376(10) 0.00840 330.8 9.3
331(10) 0.00933 330.8 9.1
319(10) 0.00998 330.8 8.8
322(9) 0.01043 330.8 8.6
370(10) 0.00915 330.8 8.4
353(10) 0.00899 330.7 8.2
330(10) 0.00931 330.7 8.0
361(10) 0.00862 330.7 7.8
344(10) 0.00980 330.7 7.6
340(10) 0.00992 330.6 7.4
340(10) 0.00963 330.6 7.2
344(10) 0.00894 330.6 7.1
329(10) 0.00938 330.6 6.9
337(9) 0.01012 330.6 6.8
347(10) 0.00959 330.5 6.6
345(10) 0.00878 330.5 6.5
324(10) 0.00909 330.5 6.3
345(10) 0.00896 330.5 6.3
330(9) 0.01010 330.4 6.2
354(10) 0.00923 330.4 6.1
334(10) 0.00933 330.4 6.0
328(10) 0.00926 330.4 5.9
329(10) 0.00946 330.4 5.8
311(9) 0.01081 330.3 5.7
322(9) 0.01019 330.3 5.6
332(10) 0.00943 330.3 5.5
358(10) 0.00860 330.3 5.4
324(9) 0.01019 330.2 5.3
367(10) 0.00936 330.2 5.2
335(10) 0.00941 330.2 5.2
352(10) 0.00874 330.2 5.1
332(10) 0.00965 330.2 5.0
344(10) 0.00935 330.1 4.9
296(9) 0.01127 330.1 4.8
334(10) 0.00918 330.1 4.8
343(10) 0.00879 330.1 4.7
356(10) 0.00878 330.0 4.6
337(10) 0.00996 330.0 4.6
335(9) 0.01012 330.0 4.5
360(10) 0.00881 330.0 4.5
330(10) 0.00922 329.9 4.4
332(10) 0.00959 329.9 4.3
312(9) 0.01070 329.9 4.3
312(9) 0.01060 329.9 4.2
303(9) 0.01047 329.9 4.2
302(10) 0.00993 329.8 4.1
341(10) 0.00960 329.8 4.1
373(10) 0.00897 329.8 4.0
318(9) 0.01072 329.8 4.0
317(10) 0.00997 329.7 4.0
314(10) 0.00944 329.7 3.9
337(10) 0.00951 329.7 3.9
315(9) 0.01064 329.7 3.8
316(9) 0.01046 329.7 3.8
324(10) 0.00989 329.6 3.8
328(10) 0.00925 329.6 3.7
302(9) 0.01078 329.6 3.7
330(9) 0.01010 329.6 3.7
345(10) 0.00976 329.5 3.6
348(10) 0.00915 329.5 3.6
312(10) 0.01007 329.5 3.6
314(9) 0.01036 329.5 3.5
337(9) 0.01009 329.5 3.5
340(10) 0.00976 329.4 3.5
316(10) 0.00979 329.4 3.5
334(10) 0.00893 329.4 3.4
335(10) 0.00932 329.4 3.4
335(10) 0.01006 329.3 3.4
351(10) 0.00952 329.3 3.4
316(9) 0.01016 329.3 3.3
339(10) 0.00907 329.3 3.3
325(10) 0.00958 329.3 3.3
325(9) 0.01049 329.2 3.3
314(10) 0.00997 329.2 3.2
333(10) 0.00945 329.2 3.2
338(10) 0.00909 329.2 3.2
320(10) 0.00985 329.1 3.2
334(9) 0.01008 329.1 3.2
338(10) 0.00935 329.1 3.2
308(9) 0.01034 329.1 3.1
332(10) 0.00970 329.1 3.1
354(10) 0.00945 329.0 3.1
331(10) 0.01002 329.0 3.1
310(10) 0.00984 329.0 3.1
323(10) 0.00947 329.0 3.1
341(10) 0.00922 328.9 3.1
333(9) 0.01008 328.9 3.1
345(10) 0.00978 328.9 3.0
332(10) 0.00960 328.9 3.0
331(10) 0.00924 328.8 3.0
335(10) 0.00956 328.8 3.0
321(9) 0.01029 328.8 3.0
330(9) 0.01024 328.8 3.0
336(10) 0.00956 328.8 3.0
313(10) 0.00972 328.7 3.0
341(10) 0.00953 328.7 3.0
332(9) 0.01019 328.7 3.0
313(9) 0.01080 328.7 3.0
322(10) 0.01001 328.6 3.0
334(10) 0.00895 328.6 3.0
338(10) 0.00949 328.6 3.0
332(9) 0.01027 328.6 3.0
348(10) 0.00954 328.6 3.0
319(10) 0.01005 328.5 3.0
331(10) 0.00879 328.5 3.0
329(10) 0.00989 328.4 3.0
348(10) 0.00974 328.4 3.0
335(10) 0.00955 328.4 3.0
326(10) 0.00933 328.3 3.0
326(10) 0.00919 328.3 3.0
329(10) 0.00949 328.2 3.0
316(9) 0.01053 328.2 3.0
324(9) 0.01042 328.1 3.0
318(10) 0.00978 328.1 3.0
313(10) 0.00970 328.0 3.0
311(9) 0.01045 328.0 3.0
314(9) 0.01077 328.0 3.0
324(9) 0.01012 327.9 3.0
310(9) 0.01029 327.9 3.0
323(10) 0.00941 327.8 3.0
339(10) 0.00923 327.8 3.0
324(9) 0.01054 327.7 3.1
321(9) 0.01036 327.7 3.1
319(10) 0.00964 327.6 3.1
311(10) 0.00998 327.6 3.1
312(9) 0.01017 327.5 3.1
333(9) 0.01019 327.5 3.1
310(9) 0.01046 327.5 3.1
311(9) 0.01018 327.4 3.2
327(10) 0.00963 327.4 3.2
314(9) 0.01040 327.3 3.2
342(10) 0.00995 327.3 3.2
310(9) 0.01043 327.2 3.2
319(10) 0.00973 327.2 3.3
351(10) 0.00906 327.1 3.3
337(10) 0.00980 327.1 3.3
328(9) 0.01030 327.1 3.3
316(10) 0.00995 327.0 3.4
325(10) 0.00899 327.0 3.4
333(10) 0.00935 326.9 3.4
304(9) 0.01080 326.9 3.5
291(9) 0.01141 326.8 3.5
304(9) 0.01011 326.8 3.5
307(10) 0.00970 326.7 3.6
326(10) 0.00954 326.7 3.6
314(9) 0.01066 326.6 3.7
336(9) 0.01009 326.6 3.7
317(10) 0.00997 326.6 3.8
327(10) 0.00910 326.5 3.8
301(9) 0.01083 326.5 3.9
349(10) 0.00957 326.4 3.9
342(10) 0.01006 326.4 4.0
328(9) 0.01011 326.3 4.0
338(10) 0.00888 326.3 4.1
343(10) 0.00910 326.2 4.2
322(9) 0.01056 326.2 4.2
329(10) 0.00996 326.2 4.3
322(9) 0.01024 326.1 4.4
348(10) 0.00857 326.1 4.4
328(10) 0.00952 326.0 4.5
322(9) 0.01045 326.0 4.6
356(10) 0.00938 325.9 4.7
332(10) 0.00939 325.9 4.8
330(10) 0.00924 325.8 4.8
337(10) 0.00953 325.8 4.9
304(9) 0.01092 325.7 5.0
324(9) 0.01025 325.7 5.1
353(10) 0.00931 325.7 5.3
328(10) 0.00933 325.6 5.4
332(10) 0.00952 325.6 5.5
334(10) 0.01005 325.5 5.6
340(10) 0.00968 325.5 5.8
351(10) 0.00895 325.4 5.9
332(10) 0.00953 325.4 6.0
326(10) 0.00996 325.3 6.2
332(9) 0.01014 325.3 6.4
316(9) 0.01014 325.3 6.6
323(10) 0.00960 325.2 6.7
320(10) 0.00971 325.2 7.0
340(10) 0.00942 325.1 7.2
317(9) 0.01066 325.1 7.4
316(10) 0.01006 325.0 7.7
317(10) 0.00967 325.0 7.9
338(10) 0.00947 324.9 8.2
354(10) 0.00939 324.9 8.5
343(10) 0.00984 324.8 8.9
340(10) 0.00920 324.8 9.2
356(10) 0.00843 324.8 9.6
350(10) 0.00909 324.7 10.0
327(10) 0.00986 324.7 10.5
339(10) 0.01005 324.6 11.0
342(10) 0.00919 324.6 11.6
359(10) 0.00839 324.5 12.2
355(10) 0.00889 324.5 12.8
347(10) 0.00956 324.4 13.5
345(10) 0.00965 324.4 14.3
344(10) 0.00938 324.4 15.2
331(10) 0.00901 324.3 16.1
343(10) 0.00912 324.3 17.1
352(10) 0.00959 324.2 18.2
365(10) 0.00940 324.2 19.3
354(10) 0.00905 324.1 20.6
357(11) 0.00808 324.1 22.0
352(10) 0.00912 324.0 23.4
366(10) 0.00921 324.0 25.0
358(10) 0.00930 323.9 26.7
355(10) 0.00892 323.9 28.5
353(10) 0.00859 323.9 30.4
360(10) 0.00872 323.8 32.4
351(10) 0.00979 323.8 34.6
366(10) 0.00917 323.7 36.9
345(10) 0.00923 323.7 39.2
365(11) 0.00828 323.6 41.7
372(10) 0.00865 323.6 44.2
378(10) 0.00894 323.5 46.8
355(10) 0.00931 323.5 49.5
362(10) 0.00852 323.4 52.2
346(10) 0.00881 323.4 55.0
373(10) 0.00852 323.4 57.8
365(10) 0.00931 323.3 60.6
396(10) 0.00840 323.3 63.6
384(11) 0.00826 323.2 67.1
377(10) 0.00849 323.2 71.7
404(11) 0.00799 323.1 78.2
399(10) 0.00866 323.1 87.6
428(11) 0.00772 323.0 100.5
433(11) 0.00744 323.0 116.4
472(12) 0.00672 323.0 133.4
476(12) 0.00690 322.9 147.8
518(12) 0.00677 322.9 154.2
507(12) 0.00646 322.8 149.4
476(12) 0.00661 322.8 134.6
443(11) 0.00726 322.7 115.5
425(11) 0.00775 322.7 96.5
422(11) 0.00817 322.6 80.3
372(10) 0.00839 322.6 67.8
380(11) 0.00803 322.5 58.9
378(10) 0.00839 322.5 52.6
359(10) 0.00929 322.5 48.0
364(10) 0.00944 322.4 44.4
373(10) 0.00844 322.4 41.4
343(10) 0.00907 322.3 38.7
325(10) 0.00978 322.3 36.2
345(10) 0.00957 322.2 33.9
355(10) 0.00956 322.2 31.7
337(10) 0.00975 322.1 29.7
341(10) 0.00868 322.1 27.8
353(10) 0.00906 322.1 26.0
367(10) 0.00918 322.0 24.4
344(10) 0.00982 322.0 22.9
362(10) 0.00889 321.9 21.5
352(11) 0.00821 321.9 20.2
324(10) 0.00982 321.8 19.0
350(10) 0.00957 321.8 17.9
336(10) 0.01002 321.7 16.9
317(10) 0.00999 321.7 16.0
340(10) 0.00871 321.6 15.1
353(10) 0.00906 321.6 14.3
325(9) 0.01040 321.6 13.6
342(10) 0.00979 321.5 13.0
311(9) 0.01043 321.5 12.4
330(10) 0.00899 321.4 11.9
311(9) 0.01018 321.4 11.4
298(9) 0.01120 321.3 10.9
328(9) 0.01010 321.3 10.5
322(10) 0.00981 321.2 10.1
308(10) 0.00977 321.2 9.8
302(9) 0.01045 321.2 9.5
325(9) 0.01042 321.1 9.2
328(9) 0.01017 321.1 9.0
325(10) 0.01002 321.0 8.7
331(10) 0.00926 321.0 8.5
332(10) 0.00993 320.9 8.3
336(10) 0.01001 320.9 8.1
320(9) 0.01009 320.8 8.0
325(10) 0.00973 320.8 7.8
321(10) 0.00960 320.7 7.7
342(10) 0.00925 320.7 7.6
291(9) 0.01151 320.7 7.5
341(10) 0.00906 320.6 7.4
321(10) 0.00986 320.6 7.3
334(10) 0.00916 320.5 7.2
314(9) 0.01052 320.5 7.1
313(9) 0.01078 320.4 7.1
298(9) 0.01069 320.4 7.0
330(10) 0.00927 320.3 7.0
344(10) 0.00896 320.3 6.9
312(9) 0.01041 320.3 6.9
296(9) 0.01129 320.2 6.9
315(10) 0.00975 320.2 6.9
322(10) 0.00908 320.1 6.8
322(10) 0.00954 320.1 6.8
311(9) 0.01038 320.0 6.9
312(9) 0.01088 320.0 6.9
297(9) 0.01074 319.9 6.9
334(10) 0.00880 319.9 6.9
326(10) 0.00944 319.8 6.9
295(9) 0.01133 319.8 7.0
317(9) 0.01061 319.8 7.0
327(10) 0.00949 319.7 7.1
328(10) 0.00875 319.7 7.1
321(10) 0.00966 319.6 7.2
334(9) 0.01009 319.6 7.3
313(9) 0.01073 319.6 7.4
316(9) 0.01027 319.6 7.4
348(10) 0.00844 319.6 7.5
318(10) 0.01007 319.6 7.6
314(9) 0.01055 319.6 7.7
339(10) 0.00986 319.6 7.9
311(9) 0.01040 319.6 8.0
323(10) 0.00946 319.6 8.1
306(9) 0.01059 319.6 8.2
329(9) 0.01026 319.6 8.4
334(9) 0.01019 319.6 8.5
327(9) 0.01014 319.6 8.7
330(10) 0.00917 319.6 8.8
321(10) 0.00998 319.6 9.0
316(9) 0.01063 319.6 9.2
334(10) 0.01003 319.6 9.4
341(10) 0.00936 319.6 9.6
333(10) 0.00919 319.6 9.8
339(10) 0.00918 319.6 10.0
345(10) 0.00984 319.6 10.2
360(10) 0.00882 319.6 10.5
336(10) 0.00950 319.6 10.7
326(10) 0.00956 319.6 11.0
319(10) 0.00988 319.6 11.2
316(9) 0.01066 319.6 11.5
322(9) 0.01018 319.6 11.8
341(10) 0.00897 319.6 12.1
313(9) 0.01025 319.6 12.4
321(9) 0.01033 319.6 12.8
327(9) 0.01033 319.6 13.2
332(10) 0.00928 319.6 13.6
317(10) 0.00966 319.6 14.0
332(10) 0.00945 319.6 14.5
312(9) 0.01064 319.6 15.0
333(9) 0.01015 319.6 15.6
320(10) 0.00978 319.6 16.2
302(9) 0.01018 319.6 16.9
309(9) 0.01029 319.6 17.7
352(10) 0.00953 319.6 18.5
335(10) 0.00998 319.6 19.5
346(10) 0.00882 319.6 20.5
325(10) 0.00914 319.6 21.7
301(9) 0.01061 319.6 23.0
326(10) 0.01006 319.6 24.3
328(9) 0.01036 319.6 25.8
336(10) 0.00940 319.6 27.4
358(11) 0.00819 319.6 29.1
335(10) 0.00980 319.6 30.8
339(10) 0.01000 319.6 32.5
327(9) 0.01048 319.6 34.2
332(10) 0.00955 319.6 35.8
359(11) 0.00817 319.6 37.1
337(10) 0.00946 319.6 38.3
367(10) 0.00941 319.6 39.1
374(10) 0.00887 319.6 39.6
345(10) 0.00944 319.6 39.8
367(11) 0.00836 319.6 39.7
337(10) 0.00959 319.6 39.4
345(10) 0.00994 319.6 39.1
377(10) 0.00908 319.6 38.7
342(10) 0.00962 319.6 38.4
345(10) 0.00879 319.6 38.3
326(10) 0.00983 319.6 38.4
336(9) 0.01009 319.6 38.7
345(10) 0.00952 319.6 39.4
342(10) 0.00932 319.6 40.4
361(10) 0.00841 319.6 41.8
359(10) 0.00901 319.6 43.7
366(10) 0.00929 319.6 46.0
358(10) 0.00919 319.6 48.8
356(10) 0.00901 319.6 52.2
385(11) 0.00819 319.6 56.1
384(10) 0.00852 319.6 60.7
360(10) 0.00946 319.6 65.9
376(10) 0.00866 319.6 71.7
414(11) 0.00754 319.6 78.1
388(11) 0.00801 319.6 85.3
409(11) 0.00804 319.6 93.0
423(11) 0.00816 319.6 101.3
449(12) 0.00707 319.6 110.1
444(11) 0.00710 319.6 119.3
479(12) 0.00687 319.6 128.6
508(12) 0.00662 319.6 137.9
511(12) 0.00680 319.6 146.7
524(12) 0.00625 319.6 154.8
480(12) 0.00659 319.6 161.7
500(12) 0.00649 319.6 167.0
519(12) 0.00661 319.6 170.4
516(12) 0.00677 319.6 171.6
490(12) 0.00677 319.6 170.7
505(12) 0.00609 319.6 167.6
500(12) 0.00659 319.6 162.6
497(12) 0.00681 319.6 156.0
464(11) 0.00743 319.6 148.2
457(11) 0.00725 319.6 139.5
470(12) 0.00637 319.6 130.3
446(11) 0.00739 319.6 121.0
434(11) 0.00800 319.6 111.8
439(11) 0.00795 319.6 102.7
428(11) 0.00770 319.6 94.1
399(11) 0.00756 319.6 86.0
371(10) 0.00858 319.6 78.4
404(10) 0.00841 319.6 71.3
413(11) 0.00820 319.6 64.9
395(11) 0.00818 319.6 59.0
390(11) 0.00780 319.6 53.7
395(11) 0.00808 319.6 48.8
357(10) 0.00956 319.6 44.5
378(10) 0.00892 319.6 40.7
356(10) 0.00899 319.6 37.2
368(10) 0.00848 319.6 34.1
364(10) 0.00889 319.6 31.4
361(10) 0.00946 319.6 29.0
346(10) 0.00957 319.6 26.9
344(10) 0.00919 319.6 25.0
319(10) 0.00946 319.6 23.3
343(10) 0.00909 319.6 21.8
346(10) 0.00984 319.6 20.5
357(10) 0.00901 319.6 19.3
327(10) 0.00984 319.6 18.2
351(10) 0.00865 319.6 17.2
351(10) 0.00902 319.6 16.3
329(9) 0.01014 319.6 15.7
312(9) 0.01021 319.6 14.9
323(10) 0.00963 319.6 14.3
331(10) 0.00946 319.6 13.7
316(9) 0.01014 319.6 13.1
330(9) 0.01021 319.6 12.6
331(10) 0.00985 319.6 12.1
318(9) 0.01012 319.6 11.7
345(10) 0.00923 319.6 11.2
349(10) 0.00938 319.6 10.8
339(10) 0.01001 319.6 10.5
335(10) 0.00916 319.6 10.1
308(10) 0.00986 319.6 9.8
347(10) 0.00914 319.6 9.5
335(10) 0.01001 319.6 9.2
338(9) 0.01017 319.6 9.0
324(10) 0.00954 319.6 8.7
287(9) 0.01056 319.6 8.5
322(10) 0.00996 319.6 8.3
329(9) 0.01017 319.6 8.1
327(9) 0.01034 319.6 7.9
314(10) 0.01003 319.6 7.7
298(10) 0.00974 319.6 7.5
315(10) 0.01003 319.6 7.4
328(10) 0.01003 319.6 7.2
321(9) 0.01060 319.6 7.1
315(9) 0.01016 319.6 6.9
305(10) 0.01006 319.6 6.8
365(10) 0.00867 319.6 6.6
325(9) 0.01039 319.6 6.5
330(9) 0.01029 319.6 6.4
332(10) 0.00952 319.6 6.3
329(10) 0.00939 319.6 6.2
337(10) 0.00971 319.6 6.1
317(9) 0.01066 319.6 6.0
345(10) 0.00947 319.6 5.9
322(10) 0.00955 319.6 5.8
306(10) 0.00989 319.6 5.8
315(10) 0.00981 319.6 5.7
320(9) 0.01061 319.6 5.7
323(9) 0.01025 319.6 5.6
337(10) 0.00954 319.6 5.5
334(10) 0.00923 319.6 5.5
302(9) 0.01075 319.6 5.4
352(10) 0.00964 319.6 5.4
348(10) 0.00936 319.6 5.3
323(10) 0.00964 319.6 5.3
313(10) 0.00970 319.6 5.3
305(10) 0.01000 319.6 5.2
291(9) 0.01147 319.6 5.2
330(10) 0.00974 319.6 5.2
309(9) 0.01036 319.6 5.1
364(10) 0.00865 319.6 5.1
338(10) 0.00975 319.6 5.1
319(9) 0.01067 319.6 5.1
318(10) 0.00987 319.6 5.0
343(10) 0.00895 319.6 5.0
319(10) 0.00954 319.6 5.0
319(10) 0.01004 319.6 5.0
335(10) 0.00992 319.6 5.0
334(10) 0.00952 319.5 5.0
332(10) 0.00916 319.5 5.0
309(9) 0.01015 319.5 5.0
316(9) 0.01034 319.5 5.0
306(9) 0.01112 319.5 5.0
334(10) 0.00918 319.5 5.0
349(10) 0.00860 319.5 5.1
300(9) 0.01075 319.5 5.1
311(9) 0.01068 319.5 5.1
333(9) 0.01020 319.5 5.1
313(10) 0.00976 319.5 5.2
304(10) 0.00991 319.5 5.2
310(9) 0.01014 319.5 5.2
315(9) 0.01046 319.5 5.3
305(9) 0.01093 319.5 5.3
324(10) 0.00965 319.4 5.4
317(10) 0.00954 319.4 5.4
303(9) 0.01050 319.4 5.5
335(10) 0.00993 319.4 5.5
331(9) 0.01024 319.4 5.6
330(10) 0.00960 319.4 5.7
321(10) 0.00956 319.4 5.8
330(10) 0.00954 319.4 5.9
323(9) 0.01024 319.4 6.0
301(9) 0.01094 319.4 6.1
304(9) 0.01040 319.4 6.2
321(10) 0.00938 319.4 6.3
320(10) 0.00981 319.4 6.4
335(9) 0.01011 319.4 6.6
312(9) 0.01068 319.3 6.7
326(10) 0.00941 319.3 6.9
321(10) 0.00930 319.3 7.0
297(9) 0.01084 319.3 7.2
330(9) 0.01022 319.3 7.4
342(10) 0.00971 319.3 7.7
331(10) 0.00936 319.3 7.9
339(10) 0.00868 319.3 8.2
323(10) 0.00994 319.3 8.5
331(9) 0.01019 319.3 8.8
337(10) 0.00963 319.3 9.2
317(10) 0.01001 319.3 9.6
320(10) 0.00963 319.3 10.1
333(10) 0.00932 319.3 10.6
336(9) 0.01010 319.3 11.2
334(10) 0.00945 319.2 11.8
329(10) 0.00931 319.2 12.7
329(10) 0.00963 319.2 13.5
349(10) 0.00956 319.2 14.5
362(10) 0.00939 319.2 15.7
339(10) 0.00928 319.2 17.1
305(9) 0.01009 319.2 18.9
327(10) 0.00977 319.2 21.2
333(9) 0.01017 319.2 24.1
338(9) 0.01015 319.2 28.0
373(11) 0.00832 319.2 33.2
367(11) 0.00828 319.2 40.1
350(10) 0.00926 319.2 49.1
409(11) 0.00803 319.2 60.7
389(10) 0.00884 319.1 75.1
412(11) 0.00791 319.1 92.3
430(11) 0.00713 319.1 112.1
452(11) 0.00727 319.1 133.2
488(12) 0.00700 319.1 154.2
503(12) 0.00695 319.1 172.8
517(12) 0.00624 319.1 186.2
542(13) 0.00555 319.1 191.8
563(13) 0.00596 319.1 188.0
544(12) 0.00656 319.1 175.4
477(11) 0.00716 319.1 156.7
464(12) 0.00701 319.1 135.3
446(12) 0.00688 319.1 114.1
429(11) 0.00753 319.1 94.9
417(11) 0.00828 319.1 78.5
415(11) 0.00810 319.0 65.3
399(11) 0.00801 319.0 55.4
370(11) 0.00832 319.0 48.4
382(10) 0.00846 319.0 44.2
376(10) 0.00907 319.0 42.4
398(10) 0.00859 319.0 42.9
415(11) 0.00776 319.0 45.3
382(11) 0.00837 319.0 49.5
383(11) 0.00832 319.0 55.1
374(10) 0.00922 319.0 61.5
375(10) 0.00879 319.0 67.6
397(11) 0.00800 319.0 72.2
396(11) 0.00787 319.0 73.8
380(11) 0.00825 319.0 71.6
390(10) 0.00888 318.9 66.4
374(10) 0.00890 318.9 59.3
361(10) 0.00882 318.9 51.9
392(11) 0.00778 318.9 45.0
379(10) 0.00848 318.9 39.0
352(10) 0.00967 318.9 34.2
367(10) 0.00876 318.9 30.6
346(10) 0.00892 318.9 28.0
356(10) 0.00869 318.9 26.3
352(10) 0.00939 318.9 25.3
341(10) 0.00994 318.9 24.8
347(10) 0.00920 318.9 24.8
374(11) 0.00827 318.9 25.1
351(10) 0.00896 318.9 25.8
350(10) 0.00941 318.9 26.8
352(10) 0.00959 318.8 28.1
342(10) 0.00946 318.8 30.0
347(10) 0.00898 318.8 32.5
379(10) 0.00852 318.8 35.7
347(10) 0.00968 318.8 40.1
349(10) 0.00981 318.8 45.7
362(10) 0.00888 318.8 53.0
382(11) 0.00794 318.8 62.1
400(11) 0.00826 318.8 73.3
425(11) 0.00814 318.8 86.7
458(11) 0.00757 318.8 102.1
433(11) 0.00744 318.8 119.2
458(12) 0.00657 318.8 136.8
487(12) 0.00661 318.8 153.5
533(12) 0.00659 318.8 167.0
529(12) 0.00654 318.7 174.7
498(12) 0.00650 318.7 174.9
481(12) 0.00646 318.7 167.7
486(12) 0.00686 318.7 154.6
443(11) 0.00790 318.7 138.3
426(11) 0.00794 318.7 121.1
412(11) 0.00774 318.7 104.5
400(11) 0.00746 318.7 89.5
387(11) 0.00819 318.7 76.5
393(10) 0.00861 318.7 65.7
379(10) 0.00876 318.7 56.9
365(10) 0.00863 318.7 49.9
374(11) 0.00832 318.7 44.6
359(10) 0.00903 318.7 40.5
372(10) 0.00910 318.6 37.4
369(10) 0.00911 318.6 35.1
357(10) 0.00911 318.6 33.4
348(10) 0.00900 318.6 32.1
348(10) 0.00926 318.6 31.1
343(10) 0.00980 318.6 30.3
334(10) 0.00982 318.6 29.7
331(10) 0.00945 318.6 29.2
354(10) 0.00863 318.6 28.8
346(10) 0.00933 318.6 28.5
348(10) 0.00972 318.6 28.3
379(10) 0.00857 318.6 28.2
363(10) 0.00861 318.6 28.1
346(10) 0.00895 318.6 28.1
331(10) 0.00939 318.6 28.3
348(10) 0.00977 318.5 28.4
359(10) 0.00904 318.5 28.5
334(10) 0.00934 318.5 28.7
351(10) 0.00897 318.5 28.9
326(9) 0.01032 318.5 29.2
350(10) 0.00974 318.5 29.6
335(10) 0.00962 318.5 30.0
331(10) 0.00882 318.5 30.4
339(10) 0.00902 318.5 30.9
358(10) 0.00943 318.5 31.4
356(10) 0.00958 318.5 32.0
343(10) 0.00937 318.5 32.7
367(11) 0.00838 318.5 33.3
343(10) 0.00936 318.5 34.1
331(9) 0.01008 318.4 34.8
310(9) 0.01082 318.4 35.6
370(10) 0.00863 318.4 36.5
357(10) 0.00848 318.4 37.4
361(10) 0.00882 318.4 38.3
352(10) 0.00964 318.4 39.2
361(10) 0.00948 318.4 40.2
355(10) 0.00929 318.4 41.2
367(11) 0.00803 318.4 42.1
366(10) 0.00885 318.4 43.1
356(10) 0.00951 318.4 44.1
368(10) 0.00921 318.4 45.1
346(10) 0.00900 318.4 46.1
379(11) 0.00774 318.4 47.0
352(10) 0.00951 318.4 47.9
361(10) 0.00947 318.3 48.8
363(10) 0.00922 318.3 49.6
361(10) 0.00878 318.3 50.4
345(10) 0.00868 318.3 51.2
396(11) 0.00775 318.3 52.1
379(10) 0.00901 318.3 53.0
364(10) 0.00935 318.3 54.4
375(11) 0.00832 318.3 56.2
346(10) 0.00905 318.3 59.0
398(11) 0.00783 318.3 63.0
406(11) 0.00838 318.3 68.7
412(11) 0.00808 318.3 76.2
408(11) 0.00800 318.3 85.5
404(11) 0.00788 318.3 95.8
440(11) 0.00744 318.2 105.7
431(11) 0.00803 318.2 113.2
469(11) 0.00714 318.2 115.6
457(11) 0.00735 318.2 111.8
425(11) 0.00778 318.2 103.1
402(11) 0.00806 318.2 92.1
406(10) 0.00845 318.2 81.0
397(11) 0.00819 318.2 71.2
389(11) 0.00780 318.2 63.4
366(10) 0.00881 318.2 57.8
368(10) 0.00895 318.2 54.3
367(10) 0.00923 318.2 52.5
366(10) 0.00869 318.2 52.2
379(11) 0.00793 318.2 53.1
395(11) 0.00807 318.2 55.0
412(11) 0.00796 318.1 57.7
391(10) 0.00882 318.1 61.1
384(10) 0.00851 318.1 65.0
415(11) 0.00735 318.1 69.4
390(10) 0.00859 318.1 73.8
426(11) 0.00792 318.1 77.8
416(11) 0.00838 318.1 81.0
437(11) 0.00756 318.1 82.8
435(11) 0.00710 318.1 82.7
415(11) 0.00795 318.1 80.7
400(10) 0.00848 318.1 77.1
403(10) 0.00845 318.1 72.3
384(10) 0.00841 318.1 66.8
389(11) 0.00796 318.1 61.3
386(10) 0.00849 318.0 55.9
371(10) 0.00907 318.0 50.9
371(10) 0.00906 318.0 46.4
379(10) 0.00852 318.0 42.6
370(11) 0.00827 318.0 39.3
368(10) 0.00880 318.0 36.5
356(10) 0.00955 318.0 34.3
358(10) 0.00934 318.0 32.5
368(10) 0.00856 318.0 31.1
350(10) 0.00871 318.0 30.0
372(10) 0.00840 318.0 29.2
368(10) 0.00917 318.0 28.7
360(10) 0.00921 318.0 28.3
321(10) 0.00995 318.0 28.1
323(10) 0.00978 318.0 28.1
340(10) 0.00915 317.9 28.1
360(10) 0.00951 317.9 28.3
339(10) 0.00958 317.9 28.6
385(11) 0.00814 317.9 28.9
349(10) 0.00915 317.9 29.4
340(10) 0.00929 317.9 29.9
344(10) 0.00981 317.9 30.5
343(10) 0.00962 317.9 31.2
338(10) 0.00912 317.9 31.9
358(10) 0.00845 317.9 32.8
357(10) 0.00885 317.9 33.7
330(9) 0.01034 317.9 34.7
342(10) 0.00949 317.9 35.8
361(10) 0.00860 317.9 37.0
353(10) 0.00909 317.8 38.2
354(10) 0.00907 317.8 39.6
357(10) 0.00970 317.8 41.1
343(10) 0.00945 317.8 42.6
377(11) 0.00818 317.8 44.2
379(11) 0.00833 317.8 46.0
355(10) 0.00907 317.8 47.8
359(10) 0.00950 317.8 49.8
355(10) 0.00916 317.8 51.8
343(10) 0.00890 317.8 54.0
349(10) 0.00925 317.8 56.2
377(10) 0.00872 317.8 58.6
383(10) 0.00889 317.8 61.0
355(10) 0.00908 317.8 63.6
351(10) 0.00865 317.8 66.3
389(11) 0.00811 317.7 69.0
369(10) 0.00909 317.7 71.9
375(10) 0.00911 317.7 74.9
365(10) 0.00878 317.7 78.0
379(11) 0.00790 317.7 81.2
384(11) 0.00827 317.7 84.5
398(10) 0.00857 317.7 87.9
396(10) 0.00875 317.7 91.3
392(11) 0.00820 317.7 94.9
367(10) 0.00839 317.7 98.5
394(11) 0.00792 317.7 102.3
363(10) 0.00939 317.7 106.2
388(10) 0.00878 317.7 110.2
405(11) 0.00800 317.7 114.3
412(11) 0.00740 317.7 118.6
391(11) 0.00835 317.6 123.1
416(11) 0.00828 317.6 127.8
412(11) 0.00813 317.6 132.6
395(11) 0.00813 317.6 137.6
428(11) 0.00716 317.6 142.7
419(11) 0.00781 317.6 147.8
439(11) 0.00790 317.6 152.7
439(11) 0.00765 317.6 157.4
447(12) 0.00705 317.6 161.6
437(11) 0.00730 317.6 165.0
466(12) 0.00692 317.6 167.4
463(11) 0.00743 317.6 168.6
447(11) 0.00752 317.6 168.3
457(12) 0.00708 317.6 166.5
444(11) 0.00722 317.5 163.3
427(11) 0.00747 317.5 158.7
392(10) 0.00876 317.5 153.0
434(11) 0.00752 317.5 146.4
406(11) 0.00765 317.5 139.2
424(11) 0.00746 317.5 131.7
419(11) 0.00780 317.5 124.1
396(10) 0.00868 317.5 116.6
395(11) 0.00812 317.5 109.4
369(11) 0.00829 317.5 102.5
386(11) 0.00820 317.5 96.1
390(10) 0.00846 317.5 90.1
381(10) 0.00897 317.5 84.7
373(10) 0.00863 317.5 79.8
394(11) 0.00802 317.5 75.4
368(10) 0.00896 317.4 71.5
389(10) 0.00869 317.4 68.2
354(10) 0.00968 317.4 65.3
368(10) 0.00862 317.4 62.8
388(11) 0.00782 317.4 60.6
376(10) 0.00852 317.4 58.8
366(10) 0.00898 317.4 57.2
390(10) 0.00886 317.4 55.7
380(10) 0.00865 317.4 54.2
372(11) 0.00808 317.4 52.8
387(11) 0.00801 317.4 51.3
360(10) 0.00942 317.4 49.8
371(10) 0.00911 317.4 48.2
360(10) 0.00887 317.4 46.6
341(10) 0.00859 317.3 45.0
329(10) 0.00970 317.3 43.4
361(10) 0.00931 317.3 41.9
361(10) 0.00926 317.3 40.4
355(10) 0.00902 317.3 39.1
376(11) 0.00812 317.3 37.9
365(10) 0.00888 317.3 36.8
352(10) 0.00971 317.3 35.8
356(10) 0.00950 317.3 34.8
349(10) 0.00961 317.3 34.0
364(11) 0.00816 317.3 33.2
320(10) 0.00991 317.3 32.5
367(10) 0.00928 317.3 31.9
356(10) 0.00952 317.3 31.3
340(10) 0.00948 317.3 30.8
338(10) 0.00914 317.2 30.3
325(10) 0.00977 317.2 29.9
347(10) 0.00967 317.2 29.4
339(10) 0.00999 317.2 29.0
349(10) 0.00914 317.2 28.6
345(10) 0.00867 317.2 28.2
314(9) 0.01009 317.2 27.8
338(10) 0.00988 317.2 27.5
335(10) 0.00942 317.2 27.2
340(10) 0.00939 317.2 26.8
370(11) 0.00831 317.2 26.5
341(10) 0.00970 317.2 26.2
363(10) 0.00940 317.2 25.9
354(10) 0.00900 317.2 25.7
344(10) 0.00913 317.1 25.5
343(10) 0.00910 317.1 25.2
341(10) 0.00946 317.1 25.1
359(10) 0.00949 317.1 24.9
322(10) 0.00943 317.1 24.8
326(10) 0.00932 317.1 24.8
357(10) 0.00882 317.1 24.8
369(10) 0.00892 317.1 24.9
348(10) 0.00965 317.1 25.0
336(10) 0.00920 317.1 25.2
351(10) 0.00873 317.1 25.6
364(10) 0.00894 317.1 26.1
376(10) 0.00899 317.1 26.7
348(10) 0.00982 317.1 27.5
357(10) 0.00896 317.1 28.6
375(11) 0.00787 317.0 30.0
377(11) 0.00835 317.0 31.8
346(10) 0.00952 317.0 34.0
370(10) 0.00908 317.0 36.7
377(10) 0.00847 317.0 40.1
390(11) 0.00766 317.0 44.2
380(10) 0.00859 317.0 49.0
415(11) 0.00812 317.0 54.8
382(10) 0.00880 317.0 61.4
377(10) 0.00872 317.0 68.8
434(12) 0.00694 317.0 77.1
445(11) 0.00740 317.0 86.0
433(11) 0.00788 317.0 95.3
458(11) 0.00748 317.0 104.4
440(11) 0.00723 316.9 112.8
489(12) 0.00640 316.9 119.5
483(12) 0.00674 316.9 123.8
468(11) 0.00738 316.9 125.0
476(11) 0.00713 316.9 123.0
512(12) 0.00634 316.9 117.9
481(12) 0.00646 316.9 110.4
447(11) 0.00712 316.9 101.5
438(11) 0.00791 316.9 92.0
407(11) 0.00827 316.9 82.4
423(11) 0.00750 316.9 73.1
388(11) 0.00815 316.9 64.6
395(11) 0.00798 316.9 56.9
355(10) 0.00946 316.9 50.0
342(10) 0.00960 316.9 44.0
374(11) 0.00824 316.8 38.9
336(10) 0.00937 316.8 34.5
350(10) 0.00911 316.8 30.8
338(10) 0.01008 316.8 27.8
319(10) 0.01004 316.8 25.2
348(10) 0.00906 316.8 23.1
348(10) 0.00925 316.8 21.3
359(10) 0.00936 316.8 19.8
348(10) 0.00978 316.8 18.6
343(10) 0.00919 316.8 17.6
330(10) 0.00924 316.8 16.7
341(10) 0.00913 316.8 15.9
325(10) 0.01000 316.8 15.2
318(9) 0.01058 316.8 14.6
335(10) 0.00957 316.7 14.1
319(10) 0.00949 316.7 13.6
340(10) 0.00911 316.7 13.2
328(9) 0.01008 316.7 12.8
319(9) 0.01063 316.7 12.5
322(10) 0.00965 316.7 12.2
311(10) 0.00980 316.7 11.9
337(10) 0.00947 316.7 11.7
330(9) 0.01020 316.7 11.5
325(9) 0.01040 316.7 11.3
357(10) 0.00888 316.7 11.2
291(9) 0.01085 316.7 11.0
322(10) 0.01001 316.7 10.9
332(9) 0.01019 316.7 10.8
298(9) 0.01137 316.7 10.7
314(10) 0.00999 316.6 10.7
330(10) 0.00887 316.6 10.7
333(10) 0.00969 316.6 10.6
340(10) 0.00991 316.6 10.7
347(10) 0.00956 316.6 10.7
313(9) 0.01030 316.6 10.8
325(10) 0.00917 316.6 10.8
315(9) 0.01019 316.6 11.0
337(10) 0.00996 316.6 11.1
322(9) 0.01045 316.6 11.2
335(10) 0.00963 316.6 11.4
345(10) 0.00892 316.6 11.6
303(9) 0.01029 316.6 11.8
333(9) 0.01017 316.6 12.0
330(10) 0.00973 316.6 12.3
318(10) 0.01001 316.5 12.5
355(10) 0.00891 316.5 12.7
331(10) 0.00987 316.5 12.9
303(9) 0.01106 316.5 13.1
311(9) 0.01032 316.5 13.3
319(10) 0.00958 316.5 13.4
308(10) 0.01003 316.5 13.5
322(10) 0.00995 316.5 13.5
312(9) 0.01074 316.5 13.5
326(10) 0.00977 316.5 13.5
321(10) 0.00966 316.5 13.4
357(10) 0.00878 316.5 13.4
345(10) 0.00947 316.5 13.4
329(9) 0.01026 316.5 13.4
318(10) 0.00987 316.4 13.4
288(9) 0.01023 316.4 13.4
297(9) 0.01050 316.4 13.5
338(10) 0.00994 316.4 13.5
336(9) 0.01009 316.4 13.7
327(10) 0.00946 316.4 13.8
340(10) 0.00895 316.4 14.0
334(10) 0.00955 316.4 14.3
364(10) 0.00906 316.4 14.5
344(10) 0.01003 316.4 14.8
336(10) 0.00966 316.4 15.2
340(10) 0.00882 316.4 15.6
320(10) 0.00991 316.4 16.1
336(10) 0.00997 316.4 16.6
348(10) 0.00982 316.4 17.2
336(10) 0.00939 316.3 17.8
307(10) 0.00996 316.3 18.5
350(10) 0.00898 316.3 19.3
322(9) 0.01036 316.3 20.1
337(10) 0.00999 316.3 21.1
319(9) 0.01010 316.3 22.1
332(10) 0.00887 316.3 23.3
339(10) 0.00937 316.3 24.6
338(10) 0.00997 316.3 25.9
323(9) 0.01033 316.3 27.5
327(10) 0.00962 316.3 29.1
324(10) 0.00958 316.3 31.0
340(10) 0.00941 316.3 32.9
324(9) 0.01045 316.3 35.1
372(10) 0.00902 316.2 37.4
368(10) 0.00889 316.2 40.0
347(10) 0.00876 316.2 42.7
349(10) 0.00904 316.2 45.6
335(10) 0.01002 316.2 48.7
344(10) 0.00954 316.2 52.1
366(10) 0.00856 316.2 55.6
358(10) 0.00848 316.2 59.3
362(10) 0.00889 316.2 63.2
381(10) 0.00887 316.2 67.3
385(10) 0.00852 316.2 71.6
357(10) 0.00907 316.2 75.9
398(11) 0.00780 316.2 80.3
387(11) 0.00826 316.2 84.8
421(11) 0.00818 316.2 89.2
408(11) 0.00813 316.1 93.5
410(11) 0.00772 316.1 97.6
417(11) 0.00769 316.1 101.4
437(11) 0.00766 316.1 104.8
401(10) 0.00854 316.1 107.7
410(11) 0.00794 316.1 110.0
440(12) 0.00705 316.1 111.5
370(10) 0.00881 316.1 112.4
399(11) 0.00829 316.1 112.4
383(10) 0.00891 316.1 111.7
405(11) 0.00792 316.1 110.1
383(10) 0.00842 316.1 107.9
425(11) 0.00783 316.1 105.1
402(11) 0.00815 316.1 101.8
366(10) 0.00935 316.0 98.1
385(11) 0.00821 316.0 94.0
392(11) 0.00779 316.0 89.7
385(10) 0.00858 316.0 85.4
383(10) 0.00887 316.0 80.9
363(10) 0.00931 316.0 76.5
375(10) 0.00848 316.0 72.2
372(11) 0.00806 316.0 68.0
400(11) 0.00787 316.0 64.0
388(10) 0.00885 316.0 60.1
342(10) 0.01002 316.0 56.4
357(10) 0.00912 316.0 52.8
354(11) 0.00836 316.0 49.5
353(10) 0.00898 316.0 46.4
329(9) 0.01036 316.0 43.5
371(10) 0.00911 315.9 40.8
340(10) 0.00909 315.9 38.3
339(10) 0.00893 315.9 36.0
345(10) 0.00946 315.9 33.9
330(9) 0.01012 315.9 32.0
337(9) 0.01009 315.9 30.2
334(10) 0.00948 315.9 28.5
350(10) 0.00858 315.9 27.0
326(10) 0.00970 315.9 25.7
349(10) 0.00974 315.9 24.5
335(10) 0.01000 315.9 23.3
340(10) 0.00913 315.9 22.3
304(10) 0.00976 315.9 21.4
324(10) 0.00962 315.9 20.6
359(10) 0.00945 315.8 19.8
347(10) 0.00953 315.8 19.2
328(10) 0.00986 315.8 18.6
326(10) 0.00949 315.8 18.0
348(10) 0.00910 315.8 17.5
316(9) 0.01070 315.8 17.1
341(10) 0.00938 315.8 16.7
344(10) 0.00908 315.8 16.3
323(10) 0.00974 315.8 16.0
345(10) 0.00932 315.8 15.7
324(9) 0.01039 315.8 15.5
331(10) 0.00988 315.8 15.3
313(10) 0.01004 315.8 15.1
313(9) 0.01009 315.8 14.9
339(10) 0.00980 315.8 14.8
334(10) 0.01003 315.7 14.7
333(10) 0.00952 315.7 14.6
332(10) 0.00927 315.7 14.5
320(9) 0.01010 315.7 14.5
350(10) 0.00956 315.7 14.4
318(9) 0.01072 315.7 14.4
321(10) 0.00994 315.7 14.4
328(10) 0.00979 315.7 14.5
354(10) 0.00933 315.7 14.5
326(9) 0.01023 315.7 14.6
315(9) 0.01065 315.7 14.7
327(10) 0.00979 315.7 14.8
329(10) 0.00930 315.7 14.9
316(9) 0.01015 315.7 15.1
337(10) 0.00981 315.6 15.3
310(9) 0.01087 315.6 15.5
320(10) 0.00978 315.6 15.7
320(10) 0.00913 315.6 16.0
314(10) 0.00987 315.6 16.3
326(9) 0.01030 315.6 16.7
302(9) 0.01106 315.6 17.0
350(10) 0.00905 315.6 17.4
339(10) 0.00872 315.6 17.9
328(10) 0.00982 315.6 18.4
328(9) 0.01015 315.6 18.9
345(10) 0.00969 315.6 19.5
331(10) 0.00961 315.6 20.1
332(10) 0.00920 315.6 20.8
341(10) 0.00916 315.6 21.6
313(9) 0.01076 315.5 22.4
359(10) 0.00906 315.5 23.3
344(10) 0.00928 315.5 24.3
330(10) 0.00931 315.5 25.3
329(10) 0.00979 315.5 26.4
332(9) 0.01015 315.5 27.6
347(10) 0.00934 315.5 28.9
321(10) 0.00962 315.5 30.3
334(10) 0.00923 315.5 31.8
347(10) 0.00954 315.5 33.5
348(10) 0.00979 315.5 35.2
359(10) 0.00924 315.5 37.0
355(10) 0.00889 315.5 38.9
340(10) 0.00919 315.5 41.0
355(10) 0.00887 315.4 43.2
367(10) 0.00935 315.4 45.5
357(10) 0.00897 315.4 48.0
362(10) 0.00868 315.4 50.5
344(10) 0.00921 315.4 53.2
368(10) 0.00883 315.4 56.0
332(9) 0.01022 315.4 59.0
352(10) 0.00921 315.4 62.0
377(11) 0.00819 315.4 65.1
368(10) 0.00867 315.4 68.4
391(10) 0.00848 315.4 71.6
424(11) 0.00813 315.4 75.0
392(11) 0.00814 315.4 78.3
397(11) 0.00799 315.4 81.6
394(10) 0.00846 315.4 84.9
409(11) 0.00834 315.3 88.1
416(11) 0.00829 315.3 91.2
410(11) 0.00786 315.3 94.1
420(11) 0.00744 315.3 96.8
424(11) 0.00769 315.3 99.3
467(11) 0.00736 315.3 101.4
447(11) 0.00776 315.3 103.3
419(11) 0.00780 315.3 104.9
421(11) 0.00722 315.3 106.1
433(11) 0.00734 315.3 107.0
429(11) 0.00804 315.3 107.5
435(11) 0.00801 315.3 107.7
461(11) 0.00713 315.3 107.5
435(12) 0.00693 315.3 107.1
427(11) 0.00774 315.3 106.3
418(11) 0.00823 315.2 105.2
437(11) 0.00780 315.2 103.9
439(11) 0.00739 315.2 102.2
417(11) 0.00790 315.2 100.3
441(11) 0.00746 315.2 98.0
424(11) 0.00802 315.2 95.6
408(11) 0.00809 315.2 92.9
388(11) 0.00828 315.2 89.9
389(11) 0.00817 315.2 86.8
391(11) 0.00833 315.2 83.5
376(10) 0.00907 315.2 80.1
422(11) 0.00781 315.2 76.7
390(11) 0.00830 315.2 73.2
367(10) 0.00885 315.2 69.7
396(11) 0.00792 315.1 66.2
371(10) 0.00918 315.1 62.8
356(10) 0.00895 315.1 59.4
377(10) 0.00849 315.1 56.2
358(10) 0.00889 315.1 53.1
378(10) 0.00881 315.1 50.1
368(10) 0.00923 315.1 47.3
347(10) 0.00935 315.1 44.6
338(10) 0.00960 315.1 42.1
353(10) 0.00907 315.1 39.7
346(10) 0.00929 315.1 37.4
337(9) 0.01009 315.1 35.3
372(11) 0.00827 315.1 33.3
343(10) 0.00925 315.1 31.5
342(10) 0.00920 315.1 29.7
351(10) 0.00936 315.0 28.1
327(9) 0.01035 315.0 26.7
347(10) 0.00918 315.0 25.3
363(11) 0.00826 315.0 24.0
360(10) 0.00872 315.0 22.8
326(9) 0.01027 315.0 21.7
333(10) 0.00997 315.0 20.7
344(10) 0.00919 315.0 19.8
326(10) 0.00946 315.0 18.9
341(10) 0.00951 315.0 18.1
334(9) 0.01012 315.0 17.4
347(10) 0.00977 315.0 16.7
347(10) 0.00926 315.0 16.1
330(10) 0.00910 315.0 15.5
333(10) 0.00957 314.9 15.0
357(10) 0.00944 314.9 14.5
346(10) 0.00983 314.9 14.1
336(10) 0.00953 314.9 13.7
298(10) 0.00998 314.9 13.3
331(10) 0.00910 314.9 12.9
313(9) 0.01085 314.9 12.6
346(10) 0.00960 314.9 12.3
301(9) 0.01066 314.9 12.0
312(10) 0.00949 314.9 11.7
316(10) 0.00995 314.9 11.4
340(10) 0.01004 314.9 11.2
312(9) 0.01061 314.9 10.9
339(10) 0.00936 314.9 10.7
320(10) 0.00971 314.9 10.5
333(10) 0.00925 314.8 10.3
299(9) 0.01116 314.8 10.2
311(9) 0.01048 314.8 10.0
313(10) 0.00992 314.8 9.8
328(10) 0.00911 314.8 9.7
307(9) 0.01023 314.8 9.6
309(9) 0.01062 314.8 9.4
338(10) 0.00938 314.8 9.3
318(10) 0.00966 314.8 9.2
306(9) 0.01029 314.9 9.1
307(9) 0.01054 314.9 9.1
308(9) 0.01088 314.9 9.0
309(9) 0.01043 315.0 8.9
345(10) 0.00886 315.0 8.9
332(10) 0.00963 315.0 8.8
330(10) 0.00971 315.0 8.8
327(9) 0.01028 315.1 8.8
316(9) 0.01020 315.1 8.7
337(10) 0.00931 315.1 8.7
324(10) 0.00981 315.1 8.7
325(10) 0.00999 315.2 8.8
312(9) 0.01067 315.2 8.8
312(10) 0.01000 315.2 8.9
330(10) 0.00940 315.3 8.9
305(9) 0.01045 315.3 9.0
319(10) 0.01007 315.3 9.2
306(9) 0.01103 315.3 9.3
327(10) 0.00989 315.4 9.6
336(10) 0.00905 315.4 9.9
324(10) 0.00959 315.4 10.3
327(9) 0.01021 315.5 11.2
353(10) 0.00968 315.5 13.0
342(10) 0.00932 315.5 16.7
321(10) 0.00908 315.5 24.0
341(10) 0.00924 315.6 36.6
360(10) 0.00955 315.6 55.2
393(10) 0.00862 315.6 78.1
418(11) 0.00790 315.6 100.2
429(11) 0.00723 315.7 114.1
403(11) 0.00835 315.7 113.4
366(10) 0.00925 315.7 98.6
338(10) 0.01007 315.8 76.3
348(10) 0.00918 315.8 54.1
341(10) 0.00872 315.8 36.4
340(10) 0.00934 315.8 24.8
332(9) 0.01022 315.9 18.3
347(10) 0.00956 315.9 15.2
347(10) 0.00931 315.9 13.9
335(10) 0.00883 315.9 13.5
335(10) 0.00943 316.0 13.5
325(9) 0.01041 316.0 13.6
350(10) 0.00956 316.0 13.9
325(10) 0.00999 316.1 14.2
311(10) 0.01006 316.1 14.6
320(10) 0.00997 316.1 15.1
315(9) 0.01062 316.1 15.6
328(10) 0.00991 316.2 16.2
325(10) 0.00950 316.2 16.9
315(10) 0.00973 316.2 17.6
350(10) 0.00930 316.3 18.4
325(9) 0.01041 316.3 19.2
322(10) 0.01007 316.3 20.1
328(10) 0.00945 316.3 21.0
342(10) 0.00908 316.4 22.1
354(10) 0.00914 316.4 23.1
342(10) 0.00986 316.4 24.3
341(10) 0.00940 316.4 25.5
308(10) 0.00997 316.5 26.8
339(10) 0.00952 316.5 28.1
334(10) 0.00989 316.5 29.5
349(10) 0.00974 316.6 30.9
351(10) 0.00893 316.6 32.4
352(10) 0.00848 316.6 34.0
342(10) 0.00934 316.6 35.5
348(10) 0.00955 316.7 37.1
363(10) 0.00935 316.7 38.8
391(11) 0.00820 316.7 40.4
350(10) 0.00903 316.8 42.0
383(11) 0.00829 316.8 43.5
387(10) 0.00847 316.8 45.0
377(10) 0.00901 316.8 46.4
382(11) 0.00824 316.9 47.7
358(10) 0.00862 316.9 48.9
370(10) 0.00887 316.9 50.0
373(10) 0.00917 316.9 50.8
382(10) 0.00897 317.0 51.4
381(10) 0.00856 317.0 51.8
376(11) 0.00790 317.0 51.9
366(10) 0.00883 317.1 51.9
395(10) 0.00858 317.1 51.6
351(10) 0.00962 317.1 51.0
359(10) 0.00892 317.1 50.3
383(11) 0.00774 317.2 49.3
364(10) 0.00860 317.2 48.2
337(9) 0.01013 317.2 46.9
361(10) 0.00932 317.2 45.6
344(10) 0.00943 317.3 44.1
346(10) 0.00880 317.3 42.5
374(11) 0.00809 317.3 40.9
365(10) 0.00930 317.4 39.3
357(10) 0.00953 317.4 37.6
347(10) 0.00898 317.4 36.0
358(10) 0.00845 317.4 34.4
352(10) 0.00897 317.5 32.8
346(10) 0.00970 317.5 31.2
363(10) 0.00896 317.5 29.7
347(10) 0.00934 317.6 28.3
357(10) 0.00897 317.6 26.9
352(10) 0.00927 317.6 25.5
371(10) 0.00932 317.6 24.3
346(10) 0.00931 317.7 23.1
328(10) 0.00946 317.7 21.9
344(10) 0.00914 317.7 20.8
359(10) 0.00899 317.7 19.8
316(9) 0.01070 317.8 18.8
307(9) 0.01049 317.8 17.9
332(10) 0.00918 317.8 17.1
337(10) 0.00964 317.9 16.3
344(10) 0.00919 317.9 15.6
322(9) 0.01042 317.9 14.9
344(10) 0.00931 317.9 14.2
303(9) 0.01017 318.0 13.7
323(10) 0.00945 318.0 13.1
318(9) 0.01018 318.0 12.6
319(9) 0.01061 318.1 12.2
349(10) 0.00902 318.1 11.8
342(10) 0.00882 318.1 11.4
331(10) 0.00928 318.1 11.0
323(9) 0.01019 318.2 10.7
333(9) 0.01010 318.2 10.4
337(10) 0.00913 318.2 10.2
317(10) 0.00947 318.2 10.0
337(10) 0.00937 318.3 9.7
328(10) 0.01002 318.3 9.6
345(10) 0.00981 318.3 9.4
332(10) 0.00942 318.4 9.2
329(10) 0.00898 318.4 9.1
340(10) 0.00949 318.4 8.9
328(9) 0.01022 318.4 8.8
300(9) 0.01099 318.5 8.7
325(10) 0.00960 318.5 8.6
351(11) 0.00833 318.5 8.5
320(10) 0.00978 318.6 8.3
314(9) 0.01064 318.6 8.3
324(9) 0.01024 318.6 8.2
315(10) 0.01005 318.6 8.1
318(10) 0.00965 318.7 8.0
329(10) 0.01005 318.7 8.0
323(9) 0.01046 318.7 8.0
328(9) 0.01009 318.7 8.0
298(9) 0.01069 318.8 8.0
319(10) 0.00984 318.8 8.1
299(9) 0.01061 318.8 8.2
325(9) 0.01040 318.9 8.4
329(10) 0.00986 318.9 8.6
314(10) 0.01004 318.9 9.0
304(9) 0.01012 318.9 9.4
324(10) 0.00974 319.0 10.1
330(9) 0.01025 319.0 11.1
369(10) 0.00868 319.0 12.8
338(10) 0.00917 319.0 15.8
351(10) 0.00891 319.1 21.0
358(10) 0.00913 319.1 29.6
367(10) 0.00938 319.1 42.9
423(11) 0.00757 319.2 61.3
414(11) 0.00790 319.2 84.1
481(12) 0.00667 319.2 108.4
500(12) 0.00671 319.2 128.7
533(12) 0.00653 319.3 138.0
504(12) 0.00643 319.3 132.0
464(12) 0.00677 319.3 113.5
412(11) 0.00803 319.4 89.4
381(10) 0.00870 319.4 65.8
370(10) 0.00929 319.4 46.2
356(10) 0.00867 319.4 31.7
343(10) 0.00875 319.5 22.1
348(10) 0.00909 319.5 16.1
334(10) 0.01005 319.5 12.6
330(9) 0.01010 319.5 10.5
326(10) 0.00975 319.6 9.3
313(10) 0.00999 319.6 8.4
324(10) 0.00986 319.6 7.8
333(10) 0.01006 319.7 7.4
332(9) 0.01016 319.7 7.0
297(9) 0.01079 319.7 6.7
329(10) 0.00898 319.7 6.5
332(10) 0.00950 319.8 6.3
326(9) 0.01034 319.8 6.1
360(10) 0.00941 319.8 6.0
343(10) 0.00928 319.9 5.9
320(10) 0.00920 319.9 5.8
325(10) 0.00970 319.9 5.7
308(9) 0.01097 319.9 5.7
323(9) 0.01038 320.0 5.7
316(9) 0.01031 320.0 5.6
348(10) 0.00853 320.0 5.6
321(10) 0.00978 320.0 5.6
324(9) 0.01046 320.1 5.7
305(9) 0.01076 320.1 5.7
319(10) 0.00976 320.1 5.7
317(10) 0.00929 320.2 5.8
327(10) 0.00934 320.2 5.9
311(9) 0.01075 320.2 5.9
328(9) 0.01030 320.2 6.0
312(10) 0.00999 320.3 6.1
328(10) 0.00941 320.3 6.2
318(9) 0.01012 320.3 6.3
313(9) 0.01071 320.3 6.4
305(9) 0.01086 320.4 6.5
308(9) 0.01078 320.4 6.7
304(9) 0.01036 320.4 6.8
325(10) 0.00952 320.5 7.0
330(9) 0.01024 320.5 7.1
324(10) 0.00985 320.5 7.3
342(10) 0.00879 320.5 7.5
339(10) 0.00950 320.6 7.7
307(9) 0.01085 320.6 7.9
324(9) 0.01039 320.6 8.2
351(10) 0.00907 320.7 8.4
330(10) 0.00931 320.7 8.7
315(10) 0.00992 320.7 9.1
333(10) 0.00997 320.7 9.7
367(10) 0.00938 320.8 10.5
339(10) 0.00940 320.8 11.8
341(10) 0.00868 320.8 13.7
326(10) 0.00967 320.8 16.4
374(10) 0.00899 320.9 19.7
367(10) 0.00934 320.9 23.2
373(10) 0.00869 320.9 26.1
408(11) 0.00749 321.0 27.6
370(10) 0.00895 321.0 27.1
394(10) 0.00861 321.0 24.7
370(10) 0.00918 321.0 21.6
368(10) 0.00868 321.1 18.5
357(11) 0.00834 321.1 16.0
323(10) 0.01000 321.1 14.2
332(10) 0.01006 321.2 13.1
330(9) 0.01023 321.2 12.4
330(10) 0.00945 321.2 12.1
331(10) 0.00913 321.2 12.0
348(10) 0.00928 321.3 11.9
351(10) 0.00959 321.3 12.0
347(10) 0.00989 321.3 12.0
321(10) 0.00981 321.3 12.1
302(10) 0.00986 321.4 12.2
330(10) 0.00947 321.4 12.3
349(10) 0.00965 321.4 12.4
329(10) 0.00993 321.5 12.5
319(10) 0.00996 321.5 12.6
339(10) 0.00896 321.5 12.8
331(10) 0.00953 321.5 12.9
323(9) 0.01045 321.6 13.1
337(10) 0.00988 321.6 13.2
342(10) 0.00915 321.6 13.4
336(10) 0.00928 321.7 13.5
352(10) 0.00919 321.7 13.7
347(10) 0.00974 321.7 13.8
356(10) 0.00930 321.7 13.9
335(10) 0.00963 321.8 13.9
328(10) 0.00983 321.8 14.0
325(10) 0.00977 321.8 13.9
332(9) 0.01026 321.8 13.9
354(10) 0.00934 321.9 13.8
343(10) 0.00938 321.9 13.6
318(10) 0.01002 321.9 13.4
329(10) 0.00939 322.0 13.2
326(9) 0.01041 322.0 12.9
311(9) 0.01037 322.0 12.6
339(10) 0.00917 322.0 12.3
338(10) 0.00949 322.1 12.0
319(9) 0.01043 322.1 11.6
337(10) 0.00993 322.1 11.3
337(10) 0.00938 322.1 10.9
300(9) 0.01045 322.2 10.6
317(10) 0.01006 322.2 10.3
344(10) 0.00968 322.2 10.0
340(10) 0.01000 322.3 9.7
357(10) 0.00872 322.3 9.4
330(10) 0.00947 322.3 9.2
315(10) 0.00995 322.3 9.0
311(9) 0.01088 322.4 8.8
318(9) 0.01045 322.4 8.6
332(10) 0.00953 322.4 8.4
326(10) 0.00943 322.4 8.3
334(10) 0.00960 322.4 8.2
329(10) 0.00999 322.4 8.2
330(9) 0.01029 322.4 8.1
304(9) 0.01063 322.3 8.1
342(10) 0.00869 322.3 8.1
328(10) 0.00970 322.3 8.2
303(9) 0.01097 322.3 8.3
313(9) 0.01081 322.3 8.4
316(10) 0.01000 322.2 8.5
325(10) 0.00906 322.2 8.7
317(10) 0.01004 322.2 8.9
344(10) 0.00978 322.2 9.1
337(10) 0.00982 322.1 9.3
320(10) 0.01001 322.1 9.6
309(10) 0.00978 322.1 10.0
309(9) 0.01018 322.1 10.3
319(9) 0.01058 322.1 10.7
324(9) 0.01034 322.0 11.1
348(10) 0.00919 322.0 11.5
325(10) 0.00931 322.0 12.0
317(10) 0.00995 322.0 12.5
320(9) 0.01052 322.0 13.0
341(10) 0.00972 321.9 13.5
346(10) 0.00918 321.9 14.1
326(10) 0.00931 321.9 14.7
336(10) 0.00937 321.9 15.2
369(10) 0.00927 321.9 15.8
309(9) 0.01051 321.8 16.4
334(10) 0.00936 321.8 17.0
311(9) 0.01035 321.8 17.5
327(10) 0.00976 321.8 18.0
333(9) 0.01019 321.8 18.5
321(10) 0.00995 321.7 18.9
344(10) 0.00907 321.7 19.3
338(10) 0.00922 321.7 19.6
338(10) 0.00974 321.7 19.9
340(10) 0.00992 321.7 20.0
317(10) 0.01000 321.6 20.1
333(10) 0.00926 321.6 20.1
354(10) 0.00884 321.6 20.0
355(10) 0.00917 321.6 19.8
337(10) 0.01002 321.6 19.5
333(10) 0.00956 321.5 19.3
336(10) 0.00897 321.5 18.9
310(9) 0.01036 321.5 18.5
354(10) 0.00935 321.5 18.1
330(9) 0.01029 321.5 17.6
353(10) 0.00889 321.4 17.1
338(10) 0.00890 321.4 16.6
336(10) 0.00954 321.4 16.1
324(9) 0.01041 321.4 15.6
318(9) 0.01053 321.4 15.2
318(10) 0.00999 321.3 14.8
304(10) 0.00968 321.3 14.4
321(10) 0.00988 321.3 14.0
332(10) 0.01007 321.3 13.8
318(9) 0.01065 321.3 13.6
320(9) 0.01025 321.2 13.4
322(10) 0.00942 321.2 13.4
333(10) 0.00930 321.2 13.5
324(9) 0.01052 321.2 13.8
347(10) 0.00973 321.2 14.4
354(10) 0.00869 321.1 15.4
309(10) 0.00983 321.1 17.1
331(10) 0.00969 321.1 19.6
321(9) 0.01050 321.1 23.2
329(10) 0.01007 321.1 28.3
332(10) 0.00927 321.0 35.1
358(10) 0.00850 321.0 43.4
343(10) 0.00911 321.0 53.0
366(10) 0.00937 321.0 63.1
368(10) 0.00903 320.9 72.2
387(11) 0.00812 320.9 78.1
393(11) 0.00762 320.9 79.1
388(11) 0.00821 320.9 74.9
403(10) 0.00844 320.9 67.2
378(10) 0.00875 320.8 58.1
371(10) 0.00841 320.8 49.1
373(11) 0.00821 320.8 41.0
380(10) 0.00874 320.8 34.1
365(10) 0.00926 320.8 28.2
386(11) 0.00822 320.7 23.4
338(10) 0.00901 320.7 19.6
338(10) 0.00898 320.7 16.6
329(10) 0.00983 320.7 14.3
329(9) 0.01023 320.7 12.6
312(9) 0.01038 320.6 11.3
317(10) 0.00980 320.6 10.3
327(10) 0.00958 320.6 9.6
325(9) 0.01024 320.6 9.0
320(9) 0.01043 320.6 8.6
325(10) 0.00986 320.5 8.3
326(10) 0.00944 320.5 8.1
330(10) 0.00965 320.5 8.0
338(10) 0.00967 320.5 7.9
300(9) 0.01114 320.5 7.9
343(10) 0.00920 320.4 7.9
328(10) 0.00910 320.4 7.9
317(10) 0.00976 320.4 8.0
323(9) 0.01032 320.4 8.2
313(9) 0.01081 320.4 8.4
340(10) 0.00925 320.3 8.6
338(10) 0.00917 320.3 9.0
310(9) 0.01049 320.3 9.5
316(9) 0.01074 320.3 10.1
335(10) 0.00991 320.3 10.8
345(10) 0.00908 320.2 11.8
330(10) 0.00916 320.2 12.9
351(10) 0.00920 320.2 14.4
306(9) 0.01106 320.2 16.1
325(9) 0.01049 320.2 18.1
342(10) 0.00961 320.1 20.5
348(10) 0.00851 320.1 23.2
342(10) 0.00935 320.1 26.1
332(9) 0.01015 320.1 29.2
343(10) 0.00978 320.1 32.3
319(9) 0.01028 320.0 35.1
356(10) 0.00852 320.0 37.3
337(10) 0.00952 320.0 38.5
318(9) 0.01059 320.0 38.6
310(9) 0.01045 320.0 37.5
337(10) 0.00950 319.9 35.5
350(10) 0.00881 319.9 32.9
354(10) 0.00887 319.9 30.0
360(10) 0.00950 319.9 27.1
341(10) 0.00950 319.9 24.3
329(10) 0.00983 319.8 21.8
306(9) 0.01034 319.8 19.6
353(10) 0.00878 319.8 17.7
311(9) 0.01080 319.8 16.1
323(10) 0.00974 319.7 14.8
344(10) 0.00878 319.7 13.8
327(10) 0.00984 319.7 12.9
321(9) 0.01022 319.7 12.3
353(10) 0.00962 319.7 11.8
376(10) 0.00841 319.6 11.4
309(9) 0.01011 319.6 11.1
349(10) 0.00885 319.6 10.8
328(9) 0.01028 319.6 10.8
351(10) 0.00913 319.6 10.6
355(10) 0.00872 319.5 10.5
326(10) 0.00971 319.5 10.3
315(9) 0.01056 319.5 10.2
338(10) 0.00993 319.5 10.1
308(10) 0.00993 319.5 10.0
303(10) 0.00968 319.4 9.9
324(10) 0.00960 319.4 9.8
309(9) 0.01059 319.4 9.7
319(9) 0.01071 319.4 9.6
327(10) 0.00968 319.4 9.5
327(10) 0.00915 319.3 9.4
335(10) 0.00939 319.3 9.2
326(9) 0.01018 319.3 9.1
323(9) 0.01029 319.3 9.0
321(10) 0.00946 319.3 8.8
337(10) 0.00886 319.2 8.7
327(10) 0.00977 319.2 8.5
318(9) 0.01064 319.2 8.4
350(10) 0.00966 319.2 8.2
327(10) 0.00971 319.2 8.0
344(10) 0.00859 319.1 7.9
317(9) 0.01012 319.1 7.7
339(10) 0.00994 319.1 7.6
346(10) 0.00960 319.1 7.4
323(10) 0.00979 319.1 7.3
320(10) 0.00914 319.0 7.1
356(10) 0.00873 319.0 6.9
336(10) 0.00990 319.0 6.8
322(9) 0.01023 319.0 6.7
298(9) 0.01066 319.0 6.5
321(10) 0.00938 318.9 6.4
310(9) 0.01040 318.9 6.2
307(9) 0.01067 318.9 6.1
310(9) 0.01041 318.9 6.1
323(10) 0.00950 318.9 6.0
322(10) 0.00972 318.8 5.9
325(10) 0.00986 318.8 5.7
315(9) 0.01059 318.8 5.6
320(10) 0.00974 318.8 5.5
323(10) 0.00968 318.8 5.5
338(10) 0.00950 318.7 5.4
317(9) 0.01038 318.7 5.3
324(9) 0.01054 318.7 5.2
307(9) 0.01033 318.7 5.1
302(9) 0.01012 318.7 5.0
325(10) 0.00921 318.6 5.0
310(9) 0.01041 318.6 4.9
318(9) 0.01056 318.7 4.9
311(9) 0.01041 318.7 4.8
337(10) 0.00931 318.7 4.8
329(10) 0.00941 318.7 4.7
322(9) 0.01031 318.8 4.7
351(10) 0.00956 318.8 4.7
310(9) 0.01042 318.8 4.6
326(10) 0.00927 318.8 4.6
358(10) 0.00873 318.9 4.6
343(10) 0.00977 318.9 4.6
329(9) 0.01013 318.9 4.6
326(10) 0.00978 318.9 4.6
350(10) 0.00851 319.0 4.6
318(10) 0.00992 319.0 4.6
327(9) 0.01018 319.0 4.6
308(9) 0.01087 319.0 4.6
313(9) 0.01038 319.1 4.6
335(10) 0.00913 319.1 4.7
328(10) 0.00970 319.1 4.7
342(10) 0.00984 319.1 4.7
325(9) 0.01019 319.2 4.8
323(10) 0.00977 319.2 4.8
330(10) 0.00888 319.2 4.8
320(10) 0.00948 319.2 4.9
296(9) 0.01112 319.3 5.0
329(9) 0.01024 319.3 5.0
338(10) 0.00930 319.3 5.1
320(10) 0.00936 319.3 5.2
300(9) 0.01060 319.4 5.3
305(9) 0.01071 319.4 5.4
336(10) 0.01000 319.4 5.5
335(10) 0.00971 319.4 5.6
328(10) 0.00924 319.5 5.7
311(9) 0.01019 319.5 5.8
320(9) 0.01044 319.5 6.0
324(9) 0.01020 319.5 6.1
314(9) 0.01008 319.6 6.3
332(10) 0.00950 319.6 6.4
325(10) 0.00962 319.6 6.6
341(10) 0.00983 319.6 6.8
332(10) 0.00979 319.7 7.1
328(10) 0.00956 319.7 7.3
321(10) 0.00965 319.7 7.6
347(10) 0.00946 319.7 7.9
339(10) 0.01006 319.8 8.2
351(10) 0.00914 319.8 8.5
329(10) 0.00932 319.8 8.8
339(10) 0.00896 319.8 9.2
327(10) 0.01006 319.9 9.6
323(9) 0.01032 319.9 10.1
321(10) 0.00956 319.9 10.6
333(10) 0.00935 319.9 11.1
356(10) 0.00895 320.0 11.7
323(9) 0.01010 320.0 12.4
306(9) 0.01091 320.0 13.2
307(9) 0.01051 320.0 14.1
333(10) 0.00922 320.1 15.1
369(10) 0.00873 320.1 16.2
365(10) 0.00907 320.1 17.6
334(10) 0.01002 320.1 19.2
351(10) 0.00846 320.2 21.3
345(10) 0.00856 320.2 24.0
355(10) 0.00891 320.2 27.7
355(10) 0.00947 320.2 33.2
381(10) 0.00899 320.3 41.1
409(11) 0.00780 320.3 52.5
405(11) 0.00737 320.3 67.9
429(11) 0.00763 320.3 87.7
464(11) 0.00742 320.4 111.3
494(12) 0.00703 320.4 137.0
468(12) 0.00708 320.4 161.4
482(13) 0.00605 320.4 181.0
485(12) 0.00658 320.5 195.0
472(11) 0.00730 320.5 206.2
496(12) 0.00698 320.5 217.8
512(12) 0.00639 320.5 230.0
541(13) 0.00566 320.6 239.9
506(12) 0.00640 320.6 242.5
507(12) 0.00689 320.6 234.9
484(12) 0.00695 320.6 219.3
473(12) 0.00694 320.7 200.9
473(12) 0.00662 320.7 184.3
455(11) 0.00710 320.7 171.9
479(11) 0.00717 320.7 164.5
460(11) 0.00751 320.8 161.2
470(12) 0.00675 320.8 160.2
461(12) 0.00683 320.8 159.9
451(12) 0.00693 320.8 159.1
449(11) 0.00775 320.9 157.8
450(11) 0.00749 320.9 155.6
440(11) 0.00729 320.9 152.2
445(11) 0.00722 320.9 147.1
477(12) 0.00696 321.0 140.1
481(11) 0.00720 321.0 131.4
455(11) 0.00724 321.0 121.4
431(11) 0.00738 321.0 110.8
433(11) 0.00743 321.1 100.0
456(11) 0.00724 321.1 89.5
407(11) 0.00838 321.1 79.6
387(11) 0.00824 321.1 70.5
388(11) 0.00807 321.2 62.3
376(10) 0.00879 321.2 55.0
397(11) 0.00835 321.2 48.6
365(10) 0.00934 321.2 43.1
371(10) 0.00857 321.3 38.4
359(10) 0.00858 321.3 34.4
362(10) 0.00852 321.3 31.0
361(10) 0.00921 321.3 28.1
328(9) 0.01026 321.4 25.7
330(10) 0.00944 321.4 23.7
353(10) 0.00850 321.4 22.0
361(10) 0.00858 321.4 20.5
341(10) 0.00964 321.5 19.3
355(10) 0.00963 321.5 18.2
369(10) 0.00886 321.5 17.2
344(10) 0.00891 321.5 16.4
332(10) 0.00953 321.6 15.6
328(9) 0.01028 321.6 15.0
330(9) 0.01020 321.6 14.3
327(10) 0.01003 321.6 13.8
353(10) 0.00848 321.7 13.3
361(10) 0.00877 321.7 12.8
317(9) 0.01073 321.7 12.4
323(9) 0.01035 321.7 12.0
346(10) 0.00923 321.8 11.6
341(10) 0.00862 321.8 11.2
328(10) 0.00957 321.8 10.9
312(9) 0.01065 321.8 10.6
355(10) 0.00955 321.9 10.3
351(10) 0.00907 321.9 10.3
348(10) 0.00876 321.9 10.0
363(10) 0.00867 321.9 9.8
337(10) 0.00992 322.0 9.6
340(10) 0.00979 322.0 9.4
332(10) 0.00938 322.0 9.3
339(10) 0.00886 322.0 9.1
352(10) 0.00883 322.1 9.0
348(10) 0.00973 322.1 8.9
335(10) 0.00958 322.1 8.8
338(10) 0.00920 322.1 8.8
328(10) 0.00932 322.2 8.7
348(10) 0.00917 322.2 8.7
344(10) 0.00976 322.2 8.8
327(10) 0.00981 322.2 8.9
339(10) 0.00918 322.3 9.1
338(10) 0.00922 322.3 9.3
349(10) 0.00929 322.3 9.7
362(10) 0.00942 322.3 10.1
348(10) 0.00946 322.4 10.8
336(10) 0.00946 322.4 11.5
350(10) 0.00924 322.4 12.4
343(10) 0.00970 322.4 13.5
330(9) 0.01025 322.5 14.8
330(10) 0.00973 322.5 16.1
323(10) 0.00970 322.5 17.5
342(10) 0.00916 322.5 18.8
338(10) 0.00988 322.6 19.9
341(10) 0.00991 322.6 20.6
325(10) 0.00989 322.6 20.8
374(11) 0.00797 322.6 20.4
339(10) 0.00941 322.7 19.5
332(10) 0.00990 322.7 18.2
342(10) 0.00977 322.7 16.8
330(10) 0.00973 322.7 15.3
341(10) 0.00877 322.8 13.9
322(10) 0.00970 322.8 12.6
344(10) 0.00978 322.8 11.5
361(10) 0.00928 322.8 10.5
314(9) 0.01038 322.9 9.7
338(10) 0.00884 322.9 9.0
343(10) 0.00934 322.9 8.4
331(10) 0.01005 322.9 8.0
317(9) 0.01060 323.0 7.7
332(10) 0.00945 323.0 7.4
333(10) 0.00892 323.0 7.2
320(10) 0.00988 323.0 7.0
324(9) 0.01019 323.1 6.9
315(9) 0.01051 323.1 6.8
326(10) 0.00985 323.1 6.8
344(10) 0.00867 323.1 6.7
341(10) 0.00926 323.2 6.7
314(9) 0.01073 323.2 6.7
333(10) 0.00987 323.2 6.7
325(10) 0.00973 323.2 6.7
353(10) 0.00863 323.3 6.7
356(10) 0.00878 323.3 6.8
354(10) 0.00962 323.3 6.8
343(10) 0.00973 323.3 6.8
315(9) 0.01019 323.4 6.9
317(10) 0.00992 323.4 6.9
346(10) 0.00926 323.4 7.0
375(10) 0.00914 323.4 7.1
331(10) 0.00966 323.5 7.2
317(10) 0.00965 323.5 7.2
309(10) 0.01002 323.5 7.3
343(10) 0.00954 323.5 7.5
368(10) 0.00922 323.6 7.6
335(10) 0.00982 323.6 7.7
324(10) 0.00965 323.6 7.8
328(10) 0.00958 323.6 8.0
355(10) 0.00905 323.7 8.1
339(10) 0.00996 323.7 8.3
326(10) 0.00976 323.7 8.4
375(11) 0.00809 323.7 8.6
332(10) 0.00973 323.8 8.8
334(10) 0.01006 323.8 9.0
317(9) 0.01067 323.8 9.2
322(10) 0.01001 323.8 9.5
337(10) 0.00930 323.9 9.7
339(10) 0.00944 323.9 10.0
341(10) 0.00975 323.9 10.3
343(10) 0.00984 323.9 10.5
321(10) 0.00996 324.0 10.9
352(10) 0.00844 324.0 11.2
336(10) 0.00947 324.0 11.5
318(9) 0.01058 324.0 11.9
347(10) 0.00956 324.1 12.3
343(10) 0.00908 324.1 12.7
328(10) 0.00911 324.1 13.1
301(9) 0.01054 324.1 13.5
304(9) 0.01104 324.2 13.9
335(10) 0.00988 324.2 14.4
332(10) 0.00993 324.2 14.9
367(11) 0.00801 324.2 15.4
333(10) 0.00958 324.3 15.8
378(10) 0.00893 324.3 16.3
329(10) 0.00993 324.3 16.8
338(10) 0.00938 324.3 17.4
335(10) 0.00885 324.4 17.9
332(10) 0.00925 324.4 18.5
331(9) 0.01022 324.4 19.0
327(9) 0.01009 324.4 19.7
365(10) 0.00879 324.5 20.4
354(10) 0.00862 324.5 21.1
353(10) 0.00868 324.5 21.9
329(9) 0.01026 324.5 22.9
359(10) 0.00932 324.6 23.9
339(10) 0.00947 324.6 25.0
371(11) 0.00830 324.6 26.3
366(10) 0.00866 324.6 27.8
368(10) 0.00915 324.7 29.6
350(10) 0.00912 324.7 31.6
352(10) 0.00871 324.7 34.1
343(10) 0.00895 324.7 37.2
362(10) 0.00895 324.8 41.2
383(10) 0.00887 324.8 46.7
391(10) 0.00842 324.8 54.1
386(10) 0.00843 324.8 64.3
425(11) 0.00753 324.9 78.1
425(11) 0.00761 324.9 96.2
436(11) 0.00790 324.9 119.2
454(11) 0.00725 324.9 146.9
479(12) 0.00677 325.0 178.3
502(12) 0.00652 325.0 210.9
563(13) 0.00594 325.0 240.2
540(12) 0.00645 325.0 260.2
552(13) 0.00593 325.1 265.2
552(13) 0.00565 325.1 254.2
520(12) 0.00634 325.1 231.4
497(12) 0.00701 325.1 203.2
436(11) 0.00785 325.2 175.0
432(11) 0.00735 325.2 150.2
436(11) 0.00725 325.2 130.4
461(12) 0.00685 325.2 116.1
432(11) 0.00793 325.3 107.3
426(11) 0.00814 325.3 103.5
443(11) 0.00745 325.3 103.7
466(12) 0.00650 325.3 107.3
446(11) 0.00747 325.4 113.4
460(11) 0.00745 325.4 121.4
469(11) 0.00737 325.4 130.3
476(12) 0.00671 325.4 139.3
467(12) 0.00648 325.5 147.1
467(12) 0.00683 325.5 152.5
460(11) 0.00758 325.5 154.3
437(11) 0.00769 325.5 152.1
485(12) 0.00684 325.6 146.0
465(12) 0.00665 325.6 136.9
456(11) 0.00710 325.6 125.9
435(11) 0.00789 325.6 114.3
421(11) 0.00814 325.7 102.7
416(11) 0.00775 325.7 91.8
380(11) 0.00831 325.7 81.9
400(11) 0.00816 325.7 73.2
380(10) 0.00895 325.8 65.7
381(10) 0.00869 325.8 59.3
371(10) 0.00842 325.8 54.1
354(10) 0.00890 325.8 49.9
375(10) 0.00840 325.9 46.5
350(10) 0.00959 325.9 43.9
363(10) 0.00897 325.9 42.0
381(11) 0.00834 325.9 40.5
362(10) 0.00888 326.0 39.5
390(11) 0.00820 326.0 38.8
380(10) 0.00905 326.0 38.5
356(10) 0.00924 326.0 38.4
393(11) 0.00767 326.1 38.6
376(10) 0.00839 326.1 39.1
375(10) 0.00885 326.1 39.9
395(10) 0.00866 326.1 41.1
407(11) 0.00810 326.2 42.8
349(10) 0.00912 326.2 45.2
387(11) 0.00814 326.2 48.6
372(10) 0.00888 326.2 53.2
383(10) 0.00891 326.3 59.2
393(11) 0.00801 326.3 66.8
417(11) 0.00732 326.3 76.1
399(11) 0.00800 326.3 86.7
396(10) 0.00865 326.4 98.0
431(11) 0.00800 326.4 108.6
383(10) 0.00863 326.4 116.8
401(11) 0.00769 326.4 120.4
405(11) 0.00807 326.5 118.5
433(11) 0.00774 326.5 112.1
416(11) 0.00833 326.5 103.1
419(11) 0.00767 326.5 93.5
400(11) 0.00782 326.6 84.7
386(10) 0.00858 326.6 77.3
382(10) 0.00879 326.6 71.6
388(10) 0.00881 326.6 67.7
393(11) 0.00829 326.7 65.5
413(11) 0.00725 326.7 64.6
420(11) 0.00763 326.7 64.8
390(10) 0.00881 326.7 66.0
391(10) 0.00848 326.8 67.7
377(10) 0.00855 326.8 69.8
413(11) 0.00733 326.8 71.9
408(11) 0.00764 326.8 73.8
372(10) 0.00923 326.9 75.0
404(11) 0.00835 326.9 75.3
390(11) 0.00774 326.9 74.3
389(11) 0.00777 326.9 72.1
394(11) 0.00810 327.0 68.9
378(10) 0.00903 327.0 65.1
368(10) 0.00933 327.0 61.0
381(10) 0.00853 327.0 56.8
367(10) 0.00861 327.1 52.9
385(11) 0.00818 327.1 49.1
375(10) 0.00918 327.1 45.7
389(10) 0.00849 327.2 42.7
390(11) 0.00816 327.2 39.9
389(11) 0.00796 327.2 37.5
365(10) 0.00874 327.2 35.3
361(10) 0.00940 327.3 33.4
369(10) 0.00907 327.3 31.7
392(11) 0.00816 327.3 30.1
363(10) 0.00895 327.3 28.7
382(10) 0.00849 327.4 27.5
370(10) 0.00921 327.4 26.3
362(10) 0.00909 327.4 25.2
371(10) 0.00851 327.4 24.1
356(10) 0.00889 327.5 23.2
338(10) 0.00976 327.5 22.3
355(10) 0.00956 327.5 21.4
356(10) 0.00881 327.5 20.6
345(10) 0.00907 327.6 19.8
355(10) 0.00893 327.6 19.0
329(9) 0.01015 327.6 18.3
342(10) 0.00980 327.6 17.7
360(10) 0.00907 327.7 17.0
355(10) 0.00860 327.7 16.4
350(10) 0.00899 327.7 15.8
366(10) 0.00916 327.7 15.3
357(10) 0.00945 327.8 14.8
345(10) 0.00917 327.8 14.3
358(11) 0.00820 327.8 13.8
349(10) 0.00936 327.8 13.4
362(10) 0.00929 327.9 13.0
345(10) 0.00982 327.9 12.6
349(10) 0.00926 327.9 12.2
367(11) 0.00794 327.9 11.8
326(10) 0.00965 328.0 11.5
340(10) 0.00985 328.0 11.2
329(9) 0.01012 328.0 10.8
348(10) 0.00922 328.0 10.6
360(11) 0.00806 328.1 10.3
339(10) 0.00898 328.1 10.1
348(10) 0.00976 328.1 9.8
315(9) 0.01047 328.1 9.6
308(10) 0.00995 328.2 9.4
350(11) 0.00836 328.2 9.2
332(10) 0.00966 328.2 9.0
347(10) 0.00981 328.2 8.8
351(10) 0.00956 328.3 8.6
351(10) 0.00878 328.3 8.5
343(10) 0.00897 328.3 8.3
356(10) 0.00888 328.3 8.2
356(10) 0.00954 328.4 8.0
359(10) 0.00912 328.4 7.9
343(10) 0.00930 328.4 7.8
358(10) 0.00882 328.4 7.7
363(10) 0.00893 328.5 7.6
352(10) 0.00963 328.5 7.5
335(10) 0.00965 328.5 7.4
310(9) 0.01018 328.5 7.3
349(10) 0.00890 328.6 7.2
337(10) 0.00979 328.6 7.2
340(10) 0.00996 328.6 7.1
361(10) 0.00872 328.6 7.0
360(10) 0.00872 328.7 7.0
356(10) 0.00885 328.7 6.9
346(10) 0.00932 328.7 6.9
366(10) 0.00930 328.7 6.8
342(10) 0.00942 328.8 6.8
352(10) 0.00874 328.8 6.7
349(10) 0.00909 328.8 6.7
343(10) 0.00949 328.8 6.7
373(10) 0.00915 328.9 6.7
346(10) 0.00925 328.9 6.6
332(10) 0.00941 328.9 6.6
337(10) 0.00960 328.9 6.6
330(10) 0.00997 329.0 6.6
335(9) 0.01012 329.0 6.6
341(10) 0.00926 329.0 6.6
359(11) 0.00831 329.0 6.6
340(10) 0.00924 329.1 6.6
306(9) 0.01106 329.1 6.6
343(10) 0.00986 329.1 6.6
355(10) 0.00889 329.1 6.6
350(10) 0.00849 329.2 6.6
319(10) 0.00970 329.2 6.6
354(10) 0.00945 329.2 6.6
336(10) 0.01002 329.3 6.6
334(10) 0.00938 329.3 6.7
324(10) 0.00924 329.3 6.7
357(10) 0.00876 329.3 6.7
326(9) 0.01034 329.4 6.8
356(10) 0.00921 329.4 6.8
329(10) 0.00965 329.4 6.8
327(10) 0.00942 329.5 6.9
328(10) 0.00964 329.5 6.9
343(10) 0.00973 329.5 7.0
325(9) 0.01023 329.5 7.1
351(10) 0.00870 329.6 7.1
337(10) 0.00884 329.6 7.2
341(10) 0.00910 329.6 7.3
331(9) 0.01015 329.7 7.3
319(9) 0.01032 329.7 7.4
354(10) 0.00888 329.7 7.5
333(10) 0.00940 329.8 7.6
341(10) 0.00952 329.8 7.7
385(10) 0.00892 329.8 7.8
349(10) 0.00946 329.8 7.9
353(10) 0.00870 329.9 8.0
350(10) 0.00866 329.9 8.2
334(10) 0.00930 329.9 8.3
346(10) 0.00985 330.0 8.4
345(10) 0.00935 330.0 8.6
342(10) 0.00895 330.0 8.8
343(10) 0.00888 330.0 8.9
327(10) 0.00988 330.1 9.1
331(9) 0.01024 330.1 9.3
341(10) 0.00922 330.1 9.5
321(10) 0.00975 330.2 9.7
358(10) 0.00905 330.2 10.0
369(10) 0.00897 330.2 10.2
357(10) 0.00948 330.3 10.5
311(9) 0.01021 330.3 10.8
325(10) 0.00937 330.3 11.2
360(10) 0.00853 330.3 11.5
346(10) 0.00976 330.4 11.9
338(10) 0.00997 330.4 12.4
358(10) 0.00904 330.4 12.8
368(11) 0.00834 330.5 13.4
348(10) 0.00907 330.5 13.9
343(10) 0.00944 330.5 14.6
350(10) 0.00969 330.6 15.2
331(10) 0.00966 330.6 16.0
348(11) 0.00834 330.6 16.8
323(10) 0.00958 330.6 17.7
343(10) 0.00990 330.7 18.6
355(10) 0.00949 330.7 19.6
345(10) 0.00895 330.7 20.7
352(10) 0.00861 330.8 21.8
350(10) 0.00936 330.8 23.0
354(10) 0.00962 330.8 24.2
330(9) 0.01017 330.8 25.4
353(10) 0.00903 330.9 26.6
385(11) 0.00785 330.9 27.7
364(10) 0.00906 330.9 28.7
391(10) 0.00877 331.0 29.7
387(10) 0.00886 331.0 30.5
368(10) 0.00882 331.0 31.3
346(10) 0.00874 331.1 32.0
390(11) 0.00806 331.1 32.7
380(10) 0.00897 331.1 33.3
359(10) 0.00940 331.1 34.0
393(11) 0.00777 331.2 34.7
368(11) 0.00825 331.2 35.6
382(10) 0.00846 331.2 36.5
370(10) 0.00916 331.3 37.6
371(10) 0.00873 331.3 38.7
367(10) 0.00847 331.3 40.0
374(11) 0.00802 331.3 41.4
347(10) 0.00917 331.4 42.9
371(10) 0.00912 331.4 44.5
333(10) 0.00994 331.4 46.3
380(10) 0.00842 331.5 48.2
403(11) 0.00795 331.5 50.2
391(10) 0.00852 331.5 52.3
395(10) 0.00863 331.6 54.5
415(11) 0.00770 331.6 56.7
386(11) 0.00781 331.6 59.1
391(11) 0.00783 331.6 61.5
388(10) 0.00842 331.7 64.0
418(11) 0.00820 331.7 66.5
410(11) 0.00810 331.7 69.0
374(10) 0.00841 331.8 71.6
394(11) 0.00812 331.8 74.1
398(10) 0.00851 331.8 76.6
419(11) 0.00818 331.8 79.0
435(11) 0.00755 331.9 81.4
419(11) 0.00754 331.9 83.8
432(11) 0.00734 331.9 86.0
447(11) 0.00747 332.0 88.2
445(11) 0.00774 332.0 90.4
412(11) 0.00807 332.0 92.5
434(12) 0.00695 332.1 94.6
448(11) 0.00719 332.1 96.7
442(11) 0.00768 332.1 98.8
436(11) 0.00796 332.1 100.9
418(11) 0.00803 332.2 103.0
449(12) 0.00678 332.2 105.2
468(12) 0.00698 332.2 107.4
476(11) 0.00721 332.3 109.7
428(11) 0.00804 332.3 112.0
441(11) 0.00735 332.3 114.2
433(12) 0.00691 332.4 116.4
438(11) 0.00715 332.4 118.4
449(11) 0.00778 332.4 120.2
436(11) 0.00769 332.4 121.6
425(11) 0.00765 332.5 122.6
452(12) 0.00699 332.5 123.1
449(11) 0.00744 332.5 122.9
454(11) 0.00769 332.6 122.1
459(11) 0.00735 332.6 120.5
433(11) 0.00728 332.6 118.3
433(11) 0.00743 332.6 115.3
421(11) 0.00755 332.7 111.8
398(10) 0.00856 332.7 107.8
377(10) 0.00896 332.7 103.3
414(11) 0.00760 332.8 98.6
423(11) 0.00731 332.8 93.7
419(11) 0.00763 332.8 88.8
391(10) 0.00874 332.9 83.8
385(10) 0.00864 332.9 79.0
391(11) 0.00802 332.9 74.2
396(11) 0.00795 332.9 69.6
393(10) 0.00844 333.0 65.3
377(10) 0.00906 333.0 61.1
373(10) 0.00890 333.0 57.2
404(11) 0.00772 333.1 53.5
375(10) 0.00855 333.1 50.1
397(11) 0.00834 333.1 47.0
338(10) 0.00999 333.1 44.2
364(10) 0.00841 333.2 41.8
363(11) 0.00831 333.2 40.7
374(11) 0.00836 333.2 42.4
405(11) 0.00800 333.3 49.6
395(10) 0.00869 333.3 64.7
432(11) 0.00723 333.3 86.0
415(11) 0.00758 333.4 105.6
451(11) 0.00718 333.4 112.4
378(10) 0.00900 333.4 100.9
398(10) 0.00860 333.4 77.7
392(11) 0.00798 333.5 53.8
387(11) 0.00790 333.5 36.6
368(10) 0.00875 333.5 27.0
345(10) 0.00976 333.6 22.6
355(10) 0.00962 333.6 20.6
376(10) 0.00859 333.6 19.5
344(10) 0.00868 333.6 18.7
361(10) 0.00850 333.7 18.1
341(10) 0.00977 333.7 17.5
363(10) 0.00936 333.7 17.0
386(10) 0.00849 333.8 16.6
385(11) 0.00768 333.8 16.2
338(10) 0.00953 333.8 15.8
378(10) 0.00896 333.9 15.5
373(10) 0.00913 333.9 15.2
374(11) 0.00835 333.9 14.9
350(10) 0.00893 333.9 14.7
375(11) 0.00838 334.0 14.5
340(10) 0.01005 334.0 14.3
340(10) 0.00988 334.0 14.1
368(11) 0.00830 334.1 14.0
342(10) 0.00869 334.1 13.9
345(10) 0.00896 334.1 13.8
361(10) 0.00945 334.2 13.8
344(10) 0.00961 334.2 13.8
357(10) 0.00879 334.2 13.8
372(11) 0.00810 334.2 13.8
362(10) 0.00855 334.3 13.9
340(10) 0.00980 334.3 14.0
395(11) 0.00831 334.3 14.2
372(10) 0.00858 334.4 14.4
354(10) 0.00902 334.4 14.6
346(10) 0.00904 334.4 14.9
371(10) 0.00921 334.4 15.3
392(11) 0.00833 334.5 15.7
362(10) 0.00905 334.5 16.3
352(10) 0.00893 334.5 17.0
362(10) 0.00900 334.6 17.9
360(10) 0.00939 334.6 19.1
371(10) 0.00877 334.6 20.8
371(11) 0.00836 334.7 23.4
406(11) 0.00770 334.7 27.3
407(11) 0.00819 334.7 33.0
430(11) 0.00792 334.7 41.5
419(11) 0.00791 334.8 53.3
439(11) 0.00713 334.8 69.1
464(11) 0.00712 334.8 88.5
483(11) 0.00729 334.9 110.3
540(12) 0.00643 334.9 131.6
527(12) 0.00618 334.9 147.8
541(13) 0.00581 334.9 153.7
530(12) 0.00631 335.0 146.9
487(11) 0.00713 335.0 130.3
463(11) 0.00753 335.0 109.1
433(11) 0.00732 335.1 87.9
396(11) 0.00758 335.1 69.3
395(11) 0.00822 335.1 54.5
367(10) 0.00921 335.2 43.5
379(10) 0.00894 335.2 36.0
367(10) 0.00906 335.2 31.1
390(11) 0.00780 335.2 28.3
389(10) 0.00848 335.3 26.7
390(10) 0.00878 335.3 25.9
373(10) 0.00915 335.3 25.8
363(10) 0.00869 335.4 26.1
376(11) 0.00803 335.4 26.7
365(10) 0.00873 335.4 27.5
345(10) 0.00984 335.5 28.6
372(10) 0.00900 335.5 29.9
411(11) 0.00786 335.5 31.4
390(11) 0.00799 335.5 33.0
386(11) 0.00824 335.6 34.7
390(10) 0.00876 335.6 36.5
387(10) 0.00885 335.6 38.3
365(10) 0.00887 335.7 39.9
388(11) 0.00789 335.7 41.3
396(11) 0.00801 335.7 42.4
386(10) 0.00889 335.7 43.0
384(11) 0.00836 335.8 43.1
391(11) 0.00812 335.8 42.7
371(10) 0.00845 335.8 42.0
363(10) 0.00877 335.9 40.9
384(10) 0.00896 335.9 39.6
392(10) 0.00847 335.9 38.2
391(11) 0.00827 336.0 36.8
388(11) 0.00815 336.0 35.5
381(10) 0.00855 336.0 34.3
364(10) 0.00939 336.0 33.2
390(11) 0.00827 336.1 32.2
397(11) 0.00775 336.1 31.5
377(10) 0.00842 336.1 30.9
413(11) 0.00792 336.2 30.5
380(10) 0.00897 336.2 30.3
377(11) 0.00833 336.2 30.2
367(10) 0.00849 336.2 30.3
389(11) 0.00803 336.3 30.5
372(10) 0.00883 336.3 30.8
372(10) 0.00919 336.3 31.3
383(11) 0.00837 336.4 31.9
387(11) 0.00775 336.4 32.6
379(11) 0.00812 336.4 33.4
396(10) 0.00861 336.5 34.5
370(10) 0.00918 336.5 35.7
394(11) 0.00830 336.5 37.2
372(11) 0.00822 336.5 39.0
362(10) 0.00886 336.6 41.4
382(10) 0.00887 336.6 44.5
400(10) 0.00840 336.6 48.5
421(11) 0.00754 336.7 53.7
425(12) 0.00696 336.7 60.4
413(11) 0.00782 336.7 68.8
446(11) 0.00757 336.7 79.0
412(11) 0.00834 336.8 91.2
462(11) 0.00721 336.8 105.1
502(13) 0.00604 336.8 120.2
517(12) 0.00638 336.9 135.4
527(12) 0.00658 336.9 149.2
551(12) 0.00615 336.9 159.1
532(12) 0.00617 337.0 163.1
519(13) 0.00605 337.0 159.9
486(12) 0.00678 337.0 150.2
476(11) 0.00728 337.0 136.1
451(11) 0.00757 337.1 119.9
453(11) 0.00708 337.1 103.4
415(11) 0.00767 337.1 88.0
426(11) 0.00748 337.2 74.3
434(11) 0.00788 337.2 62.5
397(11) 0.00834 337.2 52.6
426(11) 0.00732 337.3 44.6
369(10) 0.00874 337.3 38.2
379(11) 0.00803 337.3 33.2
383(10) 0.00892 337.3 29.3
403(11) 0.00790 337.4 26.1
358(10) 0.00885 337.4 23.7
372(11) 0.00836 337.4 21.7
370(10) 0.00877 337.5 20.0
388(10) 0.00884 337.5 18.7
351(10) 0.00914 337.5 17.5
363(10) 0.00881 337.5 16.5
413(11) 0.00737 337.6 15.6
354(10) 0.00929 337.6 14.9
338(10) 0.01002 337.6 14.2
350(10) 0.00888 337.7 13.7
380(11) 0.00799 337.7 13.2
377(11) 0.00822 337.7 12.8
385(11) 0.00837 337.8 12.4
354(10) 0.00960 337.8 12.1
367(10) 0.00859 337.8 11.8
351(10) 0.00880 337.8 11.6
358(10) 0.00887 337.9 11.5
341(10) 0.00993 337.9 11.3
348(10) 0.00971 337.9 11.1
366(10) 0.00906 338.0 11.0
336(10) 0.00901 338.0 10.8
344(10) 0.00913 338.0 10.6
350(10) 0.00949 338.0 10.4
368(10) 0.00931 338.1 10.1
367(10) 0.00872 338.1 9.8
327(10) 0.00903 338.1 9.5
353(10) 0.00920 338.2 9.2
326(9) 0.01016 338.2 8.9
340(10) 0.00978 338.2 8.7
346(10) 0.00909 338.3 8.4
346(10) 0.00865 338.3 8.2
347(10) 0.00939 338.3 7.9
348(10) 0.00974 338.3 7.7
357(10) 0.00945 338.4 7.6
335(10) 0.00965 338.4 7.4
378(11) 0.00780 338.4 7.3
358(10) 0.00880 338.5 7.2
391(10) 0.00880 338.5 7.1
334(10) 0.01003 338.5 7.0
362(10) 0.00844 338.5 7.0
335(10) 0.00920 338.6 6.9
347(10) 0.00901 338.6 6.9
366(10) 0.00933 338.6 6.9
362(10) 0.00919 338.7 6.9
349(10) 0.00912 338.7 6.9
357(10) 0.00853 338.7 6.9
335(10) 0.00958 338.8 7.0
336(10) 0.01002 338.8 7.1
344(10) 0.00935 338.8 7.1
349(10) 0.00911 338.8 7.2
370(10) 0.00840 338.9 7.3
339(10) 0.00934 338.9 7.5
355(10) 0.00953 338.9 7.6
385(10) 0.00840 339.0 7.8
348(10) 0.00913 339.0 7.9
334(10) 0.00922 339.0 8.2
350(10) 0.00918 339.1 8.4
371(10) 0.00922 339.1 8.7
352(10) 0.00884 339.1 9.0
350(10) 0.00890 339.1 9.3
383(11) 0.00830 339.2 9.7
371(10) 0.00903 339.2 10.1
359(10) 0.00935 339.2 10.6
366(10) 0.00858 339.3 11.2
364(10) 0.00846 339.3 11.8
342(10) 0.00950 339.3 12.6
358(10) 0.00949 339.3 13.5
365(10) 0.00930 339.4 14.5
378(11) 0.00838 339.4 15.7
374(11) 0.00805 339.4 17.2
366(10) 0.00875 339.5 19.1
384(10) 0.00884 339.5 21.4
390(10) 0.00873 339.5 24.5
382(10) 0.00856 339.6 28.5
395(11) 0.00761 339.6 33.8
410(11) 0.00795 339.6 40.8
423(11) 0.00798 339.6 49.8
417(11) 0.00831 339.7 61.2
391(11) 0.00833 339.7 75.2
430(12) 0.00697 339.7 92.0
413(11) 0.00809 339.8 111.4
453(11) 0.00762 339.8 132.4
476(11) 0.00724 339.8 153.7
490(12) 0.00664 339.8 172.9
502(12) 0.00615 339.9 186.7
502(12) 0.00645 339.9 191.9
510(12) 0.00683 339.9 187.3
509(12) 0.00682 340.0 174.0
469(12) 0.00687 340.0 155.3
435(11) 0.00727 340.0 134.2
425(11) 0.00768 340.1 113.3
445(11) 0.00769 340.1 94.2
437(11) 0.00786 340.1 77.6
410(11) 0.00797 340.1 63.7
395(11) 0.00796 340.2 52.6
393(11) 0.00813 340.2 43.9
396(10) 0.00872 340.2 37.3
386(10) 0.00854 340.3 32.5
369(10) 0.00864 340.3 29.0
362(10) 0.00869 340.3 26.6
356(10) 0.00934 340.3 25.0
378(10) 0.00906 340.4 23.9
372(10) 0.00888 340.4 23.4
379(10) 0.00858 340.4 23.2
344(10) 0.00938 340.5 23.3
341(10) 0.00944 340.5 23.6
338(10) 0.00995 340.5 24.2
368(11) 0.00828 340.6 24.9
354(10) 0.00874 340.6 25.7
381(11) 0.00836 340.6 26.5
372(10) 0.00883 340.6 27.4
348(10) 0.00979 340.7 28.2
375(11) 0.00834 340.7 28.8
368(11) 0.00835 340.7 29.2
348(10) 0.00885 340.8 29.2
336(10) 0.00983 340.8 29.0
348(10) 0.00983 340.8 28.4
385(11) 0.00838 340.9 27.4
363(10) 0.00842 340.9 26.2
334(10) 0.00954 340.9 24.9
362(10) 0.00908 340.9 23.4
374(10) 0.00917 341.0 21.8
374(10) 0.00877 341.0 20.3
374(11) 0.00796 341.0 18.8
386(11) 0.00836 341.1 17.4
360(10) 0.00942 341.1 16.0
369(10) 0.00919 341.1 14.8
336(10) 0.01004 341.1 13.7
338(10) 0.00905 341.2 12.6
339(10) 0.00950 341.2 11.7
361(10) 0.00932 341.2 10.9
349(10) 0.00978 341.3 10.2
368(10) 0.00884 341.3 9.5
361(10) 0.00842 341.3 8.9
349(10) 0.00919 341.4 8.4
341(10) 0.00993 341.4 8.0
354(10) 0.00931 341.4 7.6
339(10) 0.00951 341.4 7.3
347(10) 0.00860 341.5 7.0
318(10) 0.00988 341.5 6.7
346(10) 0.00985 341.5 6.5
369(10) 0.00873 341.6 6.3
367(10) 0.00854 341.6 6.1
347(10) 0.00938 341.6 6.0
330(10) 0.00988 341.6 5.8
354(10) 0.00956 341.7 5.7
364(10) 0.00911 341.7 5.6
365(10) 0.00885 341.7 5.5
357(10) 0.00871 341.8 5.4
349(10) 0.00921 341.8 5.3
331(9) 0.01017 341.8 5.2
392(11) 0.00815 341.9 5.2
357(10) 0.00888 341.9 5.1
367(10) 0.00857 341.9 5.1
374(10) 0.00875 341.9 5.0
355(10) 0.00969 342.0 5.0
336(10) 0.00995 342.0 4.9
379(11) 0.00807 342.0 4.9
369(10) 0.00856 342.1 4.9
363(10) 0.00923 342.1 4.9
365(10) 0.00935 342.1 4.8
353(10) 0.00910 342.1 4.8
339(10) 0.00915 342.2 4.8
343(10) 0.00913 342.2 4.8
343(10) 0.00962 342.2 4.8
367(10) 0.00927 342.3 4.8
335(10) 0.00980 342.3 4.8
345(10) 0.00886 342.3 4.8
371(10) 0.00856 342.4 4.8
350(10) 0.00962 342.4 4.8
341(10) 0.00987 342.4 4.8
365(10) 0.00877 342.4 4.9
366(11) 0.00807 342.5 4.9
334(10) 0.00970 342.5 4.9
359(10) 0.00934 342.5 4.9
376(10) 0.00907 342.6 5.0
362(10) 0.00875 342.6 5.0
337(10) 0.00889 342.6 5.0
330(10) 0.01001 342.7 5.1
357(10) 0.00947 342.7 5.1
340(10) 0.00997 342.7 5.2
335(10) 0.00960 342.8 5.2
356(11) 0.00824 342.8 5.3
351(10) 0.00932 342.8 5.3
363(10) 0.00935 342.9 5.4
359(10) 0.00924 342.9 5.5
354(10) 0.00911 342.9 5.5
379(11) 0.00770 343.0 5.6
362(10) 0.00879 343.0 5.7
344(10) 0.00987 343.0 5.8
361(10) 0.00916 343.1 5.9
374(10) 0.00851 343.1 6.0
376(11) 0.00827 343.1 6.1
346(10) 0.00910 343.2 6.2
356(10) 0.00952 343.2 6.3
360(10) 0.00922 343.2 6.4
358(10) 0.00880 343.3 6.5
351(10) 0.00919 343.3 6.7
361(10) 0.00913 343.3 6.8
357(10) 0.00950 343.4 6.9
358(10) 0.00912 343.4 7.1
345(10) 0.00894 343.4 7.3
352(10) 0.00877 343.5 7.5
383(11) 0.00822 343.5 7.7
390(10) 0.00874 343.5 7.9
353(10) 0.00881 343.6 8.1
345(10) 0.00885 343.6 8.3
375(11) 0.00828 343.6 8.6
363(10) 0.00928 343.7 8.9
353(10) 0.00952 343.7 9.2
333(10) 0.00920 343.7 9.5
352(10) 0.00868 343.8 9.8
362(10) 0.00864 343.8 10.2
351(10) 0.00940 343.8 10.6
336(10) 0.01007 343.9 11.0
369(10) 0.00865 343.9 11.5
339(10) 0.00934 343.9 12.0
341(10) 0.00910 344.0 12.5
352(10) 0.00949 344.0 13.1
350(10) 0.00963 344.0 13.7
364(10) 0.00857 344.1 14.3
372(11) 0.00793 344.1 15.0
370(10) 0.00845 344.1 15.8
360(10) 0.00943 344.2 16.6
348(10) 0.00961 344.2 17.4
386(11) 0.00831 344.2 18.3
375(11) 0.00791 344.2 19.3
355(10) 0.00905 344.3 20.3
347(10) 0.00978 344.3 21.3
357(10) 0.00945 344.3 22.4
393(11) 0.00825 344.4 23.5
381(11) 0.00808 344.4 24.7
378(10) 0.00877 344.4 25.8
360(10) 0.00953 344.5 27.0
355(10) 0.00954 344.5 28.3
363(10) 0.00879 344.5 29.5
370(11) 0.00809 344.6 30.8
377(11) 0.00830 344.6 32.0
363(10) 0.00940 344.6 33.3
396(11) 0.00837 344.7 34.6
355(10) 0.00896 344.7 35.9
380(11) 0.00816 344.7 37.2
415(11) 0.00799 344.8 38.6
419(11) 0.00818 344.8 40.0
370(10) 0.00905 344.8 41.4
357(10) 0.00916 344.9 42.9
374(10) 0.00849 344.9 44.3
408(11) 0.00772 344.9 45.8
386(10) 0.00890 345.0 47.2
378(10) 0.00887 345.0 48.6
407(11) 0.00782 345.0 50.0
391(11) 0.00836 345.1 51.3
370(10) 0.00875 345.1 52.4
364(10) 0.00937 345.1 53.5
387(11) 0.00833 345.2 54.4
384(11) 0.00800 345.2 55.1
411(11) 0.00769 345.2 55.7
393(10) 0.00858 345.3 56.0
390(10) 0.00880 345.3 56.1
385(10) 0.00849 345.3 56.0
380(11) 0.00829 345.4 55.7
382(11) 0.00831 345.4 55.2
362(10) 0.00935 345.4 54.5
367(10) 0.00927 345.5 53.8
388(10) 0.00848 345.5 52.9
390(11) 0.00801 345.5 52.0
377(10) 0.00853 345.6 51.0
387(10) 0.00857 345.6 50.1
421(11) 0.00819 345.6 49.2
387(11) 0.00822 345.7 48.4
395(11) 0.00764 345.7 47.7
400(11) 0.00781 345.7 47.1
383(10) 0.00889 345.8 46.8
385(10) 0.00875 345.8 46.6
407(11) 0.00784 345.8 46.6
424(12) 0.00698 345.9 46.8
397(11) 0.00787 345.9 47.3
415(11) 0.00818 345.9 48.0
418(11) 0.00826 346.0 48.9
435(11) 0.00759 346.0 49.9
431(12) 0.00684 346.0 51.1
413(11) 0.00757 346.1 52.3
413(11) 0.00825 346.1 53.4
436(11) 0.00793 346.1 54.4
444(11) 0.00712 346.2 55.2
426(11) 0.00725 346.2 55.5
412(11) 0.00787 346.2 55.4
431(11) 0.00800 346.2 54.8
425(11) 0.00785 346.3 53.8
409(11) 0.00789 346.3 52.5
406(11) 0.00777 346.3 51.0
438(12) 0.00701 346.4 49.5
382(10) 0.00885 346.4 48.1
402(11) 0.00827 346.4 46.9
429(11) 0.00764 346.5 45.9
389(11) 0.00823 346.5 45.2
421(11) 0.00748 346.5 44.7
390(10) 0.00880 346.6 44.4
411(11) 0.00790 346.6 44.0
405(11) 0.00787 346.6 43.5
394(11) 0.00790 346.7 42.9
392(11) 0.00818 346.7 42.2
382(10) 0.00892 346.7 41.6
386(10) 0.00851 346.8 41.2
416(11) 0.00768 346.8 41.0
410(11) 0.00770 346.8 41.0
395(11) 0.00829 346.9 41.2
430(11) 0.00798 346.9 41.6
393(11) 0.00810 346.9 42.2
373(10) 0.00867 347.0 42.8
421(11) 0.00766 347.0 43.5
382(10) 0.00871 347.0 44.3
402(10) 0.00847 347.1 45.0
406(11) 0.00803 347.1 45.8
417(11) 0.00769 347.1 46.5
440(11) 0.00719 347.2 47.2
397(10) 0.00841 347.2 47.8
422(11) 0.00810 347.2 48.3
393(10) 0.00847 347.3 48.7
395(11) 0.00759 347.3 49.0
370(10) 0.00879 347.3 49.3
440(11) 0.00775 347.4 49.4
429(11) 0.00794 347.4 49.3
406(11) 0.00800 347.4 49.2
384(11) 0.00813 347.5 48.9
423(11) 0.00765 347.5 48.5
398(10) 0.00856 347.5 48.0
419(11) 0.00810 347.6 47.4
384(10) 0.00857 347.6 46.7
398(11) 0.00762 347.6 45.9
397(11) 0.00790 347.7 45.1
402(10) 0.00848 347.7 44.1
395(10) 0.00866 347.7 43.1
406(11) 0.00803 347.8 42.1
424(11) 0.00715 347.8 41.1
402(11) 0.00822 347.8 40.0
387(10) 0.00889 347.9 38.9
388(10) 0.00884 347.9 37.8
395(11) 0.00803 347.9 36.7
382(11) 0.00783 348.0 35.7
386(11) 0.00801 348.0 34.6
388(10) 0.00882 348.0 33.6
407(10) 0.00845 348.1 32.6
395(11) 0.00834 348.1 31.6
381(10) 0.00851 348.1 30.6
401(11) 0.00782 348.2 29.7
391(10) 0.00887 348.2 28.8
404(11) 0.00798 348.2 27.9
379(10) 0.00841 348.3 27.1
375(11) 0.00820 348.3 26.3
344(10) 0.00892 348.3 25.5
353(10) 0.00968 348.3 24.7
379(10) 0.00847 348.4 24.0
372(10) 0.00863 348.4 23.3
385(11) 0.00824 348.4 22.6
391(11) 0.00818 348.5 22.0
376(10) 0.00905 348.5 21.4
382(10) 0.00849 348.5 20.8
369(10) 0.00859 348.6 20.2
372(10) 0.00856 348.6 19.7
344(10) 0.00953 348.6 19.1
340(10) 0.00993 348.7 18.6
391(11) 0.00800 348.7 18.1
373(11) 0.00838 348.7 17.6
345(10) 0.00937 348.8 17.2
365(10) 0.00901 348.8 16.8
385(10) 0.00873 348.8 16.4
389(11) 0.00815 348.9 16.0
368(11) 0.00831 348.9 15.6
341(10) 0.00921 348.9 15.3
369(10) 0.00887 349.0 14.9
356(10) 0.00974 349.0 14.6
353(10) 0.00905 349.0 14.3
383(11) 0.00788 349.1 14.1
372(10) 0.00878 349.1 13.8
385(10) 0.00879 349.1 13.5
372(10) 0.00910 349.2 13.3
345(10) 0.00908 349.2 13.1
357(11) 0.00821 349.2 12.9
378(10) 0.00845 349.3 12.8
382(10) 0.00897 349.3 12.6
375(10) 0.00912 349.3 12.5
392(11) 0.00795 349.4 12.4
364(11) 0.00824 349.4 12.3
355(10) 0.00904 349.4 12.2
361(10) 0.00924 349.5 12.2
349(10) 0.00963 349.5 12.1
367(10) 0.00874 349.5 12.1
358(10) 0.00843 349.6 12.1
369(10) 0.00870 349.6 12.2
385(10) 0.00887 349.6 12.2
365(10) 0.00917 349.7 12.3
341(10) 0.00961 349.7 12.4
357(10) 0.00857 349.7 12.6
373(11) 0.00820 349.8 12.7
357(10) 0.00950 349.8 12.9
341(10) 0.00939 349.8 13.1
335(10) 0.00919 349.9 13.3
363(11) 0.00837 349.9 13.5
352(10) 0.00887 349.9 13.7
359(10) 0.00947 350.0 13.9
375(10) 0.00865 350.0 14.1
355(10) 0.00913 350.0 14.2
340(10) 0.00934 350.1 14.4
375(11) 0.00836 350.1 14.6
358(10) 0.00945 350.1 14.7
362(10) 0.00870 350.2 14.9
366(10) 0.00878 350.2 15.1
393(11) 0.00819 350.2 15.3
347(10) 0.00974 350.3 15.6
374(10) 0.00911 350.3 15.9
332(10) 0.00936 350.3 16.4
372(11) 0.00825 350.3 17.0
374(10) 0.00863 350.4 17.8
362(10) 0.00892 350.4 18.7
370(10) 0.00922 350.4 19.9
360(10) 0.00855 350.5 21.4
368(11) 0.00806 350.5 23.1
399(11) 0.00774 350.5 25.1
371(10) 0.00919 350.6 27.4
373(10) 0.00916 350.6 29.9
373(10) 0.00870 350.6 32.5
361(10) 0.00865 350.7 35.1
399(11) 0.00826 350.7 37.6
410(10) 0.00841 350.7 39.6
378(10) 0.00903 350.8 40.8
388(11) 0.00836 350.8 41.2
377(11) 0.00803 350.8 40.5
397(10) 0.00842 350.9 38.9
402(10) 0.00855 350.9 36.7
391(10) 0.00862 350.9 34.0
385(11) 0.00836 351.0 31.1
394(11) 0.00746 351.0 28.3
352(10) 0.00913 351.0 25.6
374(10) 0.00906 351.1 23.2
376(10) 0.00878 351.1 21.0
355(10) 0.00882 351.1 19.1
373(11) 0.00802 351.2 17.5
347(10) 0.00918 351.2 16.1
378(10) 0.00889 351.2 15.0
384(10) 0.00886 351.3 14.1
363(10) 0.00897 351.3 13.4
374(11) 0.00788 351.3 12.9
342(10) 0.00911 351.4 12.5
364(10) 0.00932 351.4 12.1
373(10) 0.00901 351.4 11.9
369(10) 0.00859 351.5 11.8
350(10) 0.00884 351.5 11.7
361(10) 0.00875 351.5 11.7
381(10) 0.00896 351.6 11.8
388(10) 0.00848 351.6 11.9
376(11) 0.00818 351.6 12.0
363(10) 0.00858 351.7 12.2
353(10) 0.00918 351.7 12.5
361(10) 0.00946 351.7 12.8
355(10) 0.00900 351.8 13.1
369(10) 0.00840 351.8 13.5
369(10) 0.00863 351.8 14.0
374(10) 0.00898 351.9 14.6
379(10) 0.00894 351.9 15.3
344(10) 0.00937 351.9 16.1
361(10) 0.00859 352.0 17.0
359(10) 0.00884 352.0 18.2
369(10) 0.00888 352.0 19.6
398(10) 0.00859 352.1 21.3
383(11) 0.00832 352.1 23.3
405(11) 0.00780 352.1 25.9
407(11) 0.00794 352.2 29.0
381(10) 0.00877 352.2 32.7
396(10) 0.00869 352.2 37.1
396(11) 0.00819 352.3 42.4
412(11) 0.00736 352.3 48.5
404(11) 0.00804 352.3 55.4
430(11) 0.00789 352.3 63.2
453(11) 0.00757 352.4 71.7
415(11) 0.00790 352.4 80.6
429(11) 0.00732 352.4 89.5
458(11) 0.00724 352.5 97.8
491(12) 0.00691 352.5 104.6
498(12) 0.00701 352.5 109.1
473(12) 0.00701 352.6 110.6
514(13) 0.00603 352.6 108.9
510(12) 0.00648 352.6 104.2
462(11) 0.00746 352.7 97.4
434(11) 0.00777 352.7 89.3
412(11) 0.00774 352.7 80.7
431(11) 0.00719 352.8 72.2
401(11) 0.00830 352.8 64.2
434(11) 0.00785 352.8 56.9
396(10) 0.00851 352.9 50.4
392(11) 0.00817 352.9 44.8
348(10) 0.00873 352.9 40.0
380(10) 0.00849 353.0 36.1
370(10) 0.00920 353.0 32.8
369(10) 0.00911 353.0 30.2
374(10) 0.00850 353.1 28.1
391(11) 0.00760 353.1 26.4
373(10) 0.00843 353.1 25.1
363(10) 0.00935 353.2 24.0
379(10) 0.00891 353.2 23.2
365(10) 0.00881 353.2 22.6
396(11) 0.00779 353.3 22.1
361(10) 0.00904 353.3 21.8
372(10) 0.00913 353.3 21.5
376(10) 0.00859 353.4 21.3
387(11) 0.00815 353.4 21.2
390(11) 0.00808 353.4 21.1
373(10) 0.00880 353.5 21.0
345(10) 0.00979 353.5 21.0
359(10) 0.00905 353.5 21.0
385(11) 0.00797 353.6 21.0
381(11) 0.00833 353.6 21.1
421(11) 0.00796 353.6 21.1
400(10) 0.00854 353.7 21.2
382(11) 0.00828 353.7 21.2
368(11) 0.00827 353.7 21.3
392(11) 0.00809 353.8 21.4
405(11) 0.00835 353.8 21.5
427(11) 0.00801 353.8 21.5
410(11) 0.00782 353.9 21.6
404(11) 0.00752 353.9 21.7
376(10) 0.00891 353.9 21.7
384(10) 0.00879 354.0 21.8
379(10) 0.00897 354.0 21.8
372(10) 0.00880 354.0 21.9
395(11) 0.00729 354.1 21.9
369(10) 0.00864 354.1 21.9
360(10) 0.00953 354.1 21.9
386(10) 0.00875 354.2 21.9
393(10) 0.00843 354.2 21.9
351(10) 0.00875 354.2 21.9
390(11) 0.00794 354.3 21.8
364(10) 0.00941 354.3 21.8
377(10) 0.00887 354.3 21.7
380(11) 0.00831 354.4 21.6
380(11) 0.00796 354.4 21.6
352(10) 0.00894 354.4 21.5
378(10) 0.00897 354.4 21.4
363(10) 0.00915 354.5 21.3
374(11) 0.00834 354.5 21.2
349(10) 0.00902 354.5 21.1
392(11) 0.00823 354.6 20.9
394(10) 0.00869 354.6 20.8
387(10) 0.00843 354.6 20.6
385(11) 0.00832 354.7 20.5
389(11) 0.00782 354.7 20.3
374(11) 0.00829 354.7 20.2
379(10) 0.00893 354.8 20.0
386(10) 0.00874 354.8 19.8
372(10) 0.00869 354.8 19.6
358(10) 0.00878 354.9 19.5
389(11) 0.00803 354.9 19.3
382(10) 0.00890 354.9 19.1
365(10) 0.00902 355.0 18.9
367(10) 0.00870 355.0 18.7
383(11) 0.00815 355.0 18.5
383(10) 0.00843 355.1 18.3
377(10) 0.00914 355.1 18.1
349(10) 0.00918 355.1 17.9
349(10) 0.00927 355.2 17.7
388(11) 0.00793 355.2 17.5
372(10) 0.00889 355.2 17.4
382(10) 0.00894 355.3 17.2
368(11) 0.00829 355.3 17.0
398(11) 0.00764 355.3 16.8
384(11) 0.00791 355.4 16.7
349(10) 0.00961 355.4 16.5
370(10) 0.00921 355.4 16.3
369(10) 0.00867 355.5 16.2
362(10) 0.00843 355.5 16.1
378(10) 0.00879 355.5 15.9
380(10) 0.00879 355.6 15.8
360(10) 0.00951 355.6 15.7
368(10) 0.00850 355.6 15.6
369(11) 0.00805 355.7 15.5
353(10) 0.00921 355.7 15.5
347(10) 0.00973 355.7 15.4
389(10) 0.00853 355.8 15.3
363(10) 0.00856 355.8 15.3
370(11) 0.00778 355.8 15.3
355(10) 0.00915 355.9 15.2
374(10) 0.00908 355.9 15.2
373(10) 0.00904 355.9 15.2
387(11) 0.00821 356.0 15.2
365(11) 0.00796 356.0 15.3
375(11) 0.00815 356.0 15.3
386(10) 0.00892 356.1 15.4
370(10) 0.00917 356.1 15.4
349(10) 0.00925 356.1 15.5
359(10) 0.00847 356.2 15.6
369(10) 0.00858 356.2 15.6
352(10) 0.00965 356.2 15.7
375(10) 0.00878 356.3 15.8
372(11) 0.00836 356.3 15.9
380(11) 0.00780 356.3 16.0
387(11) 0.00827 356.4 16.1
369(10) 0.00930 356.4 16.2
370(10) 0.00905 356.4 16.3
363(10) 0.00883 356.4 16.4
356(10) 0.00874 356.5 16.5
342(10) 0.00969 356.5 16.6
367(10) 0.00920 356.5 16.7
368(10) 0.00894 356.6 16.8
347(10) 0.00915 356.6 16.9
379(10) 0.00841 356.6 16.9
360(10) 0.00921 356.7 17.0
370(10) 0.00936 356.7 17.0
378(10) 0.00854 356.7 17.0
390(11) 0.00828 356.8 17.0
387(11) 0.00815 356.8 17.0
371(10) 0.00871 356.8 17.0
392(10) 0.00868 356.9 16.9
391(11) 0.00815 356.9 16.9
343(10) 0.00921 356.9 16.8
353(10) 0.00921 357.0 16.7
380(10) 0.00866 357.0 16.5
391(10) 0.00875 357.0 16.3
368(10) 0.00840 357.1 16.2
362(10) 0.00853 357.1 16.0
342(10) 0.00957 357.1 15.7
387(10) 0.00879 357.2 15.5
375(10) 0.00900 357.2 15.2
367(10) 0.00907 357.2 15.0
376(11) 0.00805 357.3 14.7
344(10) 0.00944 357.3 14.4
370(10) 0.00895 357.3 14.1
371(10) 0.00908 357.4 13.8
381(10) 0.00855 357.4 13.6
351(11) 0.00826 357.4 13.3
351(10) 0.00911 357.5 13.0
391(10) 0.00868 357.5 12.7
412(11) 0.00825 357.5 12.4
371(10) 0.00881 357.6 12.1
372(11) 0.00774 357.6 11.9
340(10) 0.00963 357.6 11.6
356(10) 0.00938 357.7 11.4
367(10) 0.00924 357.7 11.1
348(10) 0.00947 357.7 10.9
353(10) 0.00840 357.8 10.7
369(10) 0.00882 357.8 10.5
363(10) 0.00939 357.8 10.3
349(10) 0.00970 357.9 10.1
357(10) 0.00895 357.9 10.0
366(11) 0.00838 357.9 9.9
352(10) 0.00916 358.0 9.7
370(10) 0.00915 358.0 9.7
354(10) 0.00937 358.0 9.6
330(10) 0.01000 358.1 9.6
359(10) 0.00883 358.1 9.6
376(10) 0.00861 358.1 9.7
369(10) 0.00914 358.2 9.8
354(10) 0.00931 358.2 10.0
363(10) 0.00874 358.2 10.4
376(11) 0.00794 358.3 11.1
324(10) 0.01001 358.3 12.0
366(10) 0.00922 358.3 13.4
387(10) 0.00840 358.4 15.4
377(10) 0.00849 358.4 18.1
376(11) 0.00824 358.4 21.6
382(10) 0.00870 358.4 25.7
428(11) 0.00792 358.5 30.3
442(11) 0.00716 358.5 34.7
411(11) 0.00763 358.5 38.3
394(10) 0.00840 358.6 39.9
419(11) 0.00798 358.6 39.0
401(10) 0.00850 358.6 36.0
380(10) 0.00850 358.7 31.6
376(11) 0.00813 358.7 27.0
395(11) 0.00824 358.7 22.6
392(10) 0.00863 358.8 18.8
349(10) 0.00982 358.8 15.8
372(10) 0.00861 358.8 13.5
359(10) 0.00855 358.9 11.8
348(10) 0.00920 358.9 10.7
338(10) 0.00963 358.9 9.9
352(10) 0.00964 359.0 9.4
358(10) 0.00902 359.0 9.0
336(10) 0.00907 359.0 8.8
380(11) 0.00827 359.1 8.6
369(10) 0.00918 359.1 8.5
348(10) 0.00971 359.1 8.5
384(11) 0.00821 359.2 8.5
393(11) 0.00768 359.2 8.5
382(10) 0.00867 359.2 8.5
377(10) 0.00892 359.3 8.6
376(10) 0.00895 359.3 8.7
355(10) 0.00917 359.3 8.8
382(11) 0.00798 359.4 9.0
370(10) 0.00875 359.4 9.1
355(10) 0.00944 359.4 9.3
331(10) 0.01004 359.5 9.5
339(10) 0.00925 359.5 9.7
369(11) 0.00832 359.5 10.0
354(10) 0.00906 359.6 10.2
361(10) 0.00941 359.6 10.5
357(10) 0.00934 359.6 10.8
363(10) 0.00866 359.7 11.2
344(10) 0.00917 359.7 11.5
346(10) 0.00930 359.7 11.9
352(10) 0.00962 359.8 12.3
367(10) 0.00892 359.8 12.7
372(10) 0.00846 359.8 13.2
365(10) 0.00865 359.9 13.6
407(11) 0.00792 359.9 14.1
374(10) 0.00911 359.9 14.7
370(10) 0.00855 360.0 15.2
375(10) 0.00853 360.0 15.8
387(11) 0.00821 360.0 16.4
359(10) 0.00926 360.1 17.0
374(10) 0.00913 360.1 17.6
365(10) 0.00875 360.1 18.2
384(11) 0.00813 360.2 18.9
381(11) 0.00833 360.2 19.5
365(10) 0.00885 360.2 20.3
383(10) 0.00884 360.3 20.9
377(10) 0.00848 360.3 21.6
360(10) 0.00878 360.3 22.2
368(10) 0.00910 360.4 22.8
387(10) 0.00879 360.4 23.4
386(10) 0.00873 360.4 23.9
380(10) 0.00843 360.4 24.4
372(11) 0.00836 360.5 24.9
389(11) 0.00834 360.5 25.2
371(10) 0.00906 360.5 25.5
376(10) 0.00911 360.6 25.7
395(11) 0.00828 360.6 25.8
353(10) 0.00907 360.6 25.8
386(11) 0.00831 360.7 25.8
379(10) 0.00870 360.7 25.6
383(10) 0.00902 360.7 25.4
386(10) 0.00840 360.8 25.1
365(11) 0.00838 360.8 24.7
373(10) 0.00874 360.8 24.3
388(10) 0.00880 360.9 23.9
388(10) 0.00869 360.9 23.4
366(10) 0.00874 360.9 22.9
385(11) 0.00780 361.0 22.5
371(10) 0.00860 361.0 22.0
361(10) 0.00944 361.0 21.6
357(10) 0.00927 361.1 21.2
361(10) 0.00866 361.1 20.9
347(10) 0.00864 361.1 20.6
350(10) 0.00906 361.2 20.3
363(10) 0.00941 361.2 20.1
382(10) 0.00863 361.2 20.0
350(10) 0.00928 361.3 20.0
361(11) 0.00831 361.3 20.1
351(10) 0.00866 361.3 20.4
372(10) 0.00917 361.4 20.8
356(10) 0.00941 361.4 21.4
384(10) 0.00851 361.4 22.4
394(11) 0.00808 361.5 23.7
382(10) 0.00839 361.5 25.6
367(10) 0.00924 361.5 28.0
350(10) 0.00945 361.6 31.3
388(11) 0.00817 361.6 35.5
380(10) 0.00839 361.6 40.7
382(10) 0.00851 361.7 46.9
389(10) 0.00871 361.7 54.0
422(11) 0.00772 361.7 62.0
405(11) 0.00780 361.8 70.2
417(11) 0.00738 361.8 78.0
424(11) 0.00769 361.8 84.2
428(11) 0.00801 361.9 87.6
427(11) 0.00760 361.9 87.6
419(11) 0.00761 361.9 84.1
430(11) 0.00745 362.0 78.1
425(11) 0.00785 362.0 70.7
418(11) 0.00827 362.0 63.1
405(11) 0.00781 362.1 55.9
407(11) 0.00746 362.1 49.7
377(10) 0.00869 362.1 44.5
397(11) 0.00819 362.2 40.6
368(10) 0.00933 362.2 37.8
378(10) 0.00841 362.2 36.1
382(11) 0.00783 362.3 35.3
394(11) 0.00818 362.3 35.4
420(11) 0.00796 362.3 36.3
407(11) 0.00839 362.4 37.8
407(11) 0.00798 362.4 39.8
391(11) 0.00757 362.4 42.3
398(11) 0.00798 362.5 45.0
403(10) 0.00850 362.5 47.9
386(10) 0.00884 362.5 50.6
389(11) 0.00830 362.5 52.9
400(11) 0.00758 362.6 54.7
384(11) 0.00815 362.6 55.6
399(10) 0.00864 362.6 55.7
415(11) 0.00823 362.7 55.0
424(11) 0.00753 362.7 53.8
412(11) 0.00763 362.7 52.3
395(11) 0.00825 362.8 50.8
401(10) 0.00851 362.8 49.3
414(11) 0.00817 362.8 47.9
420(11) 0.00770 362.9 46.8
431(11) 0.00724 362.9 46.0
369(10) 0.00866 362.9 45.4
408(11) 0.00830 363.0 44.9
386(10) 0.00870 363.0 44.5
402(11) 0.00776 363.0 44.3
382(10) 0.00849 363.1 44.0
399(11) 0.00828 363.1 43.6
387(10) 0.00885 363.1 43.1
401(11) 0.00819 363.2 42.4
399(11) 0.00781 363.2 41.5
388(11) 0.00789 363.2 40.5
403(11) 0.00830 363.3 39.2
375(10) 0.00908 363.3 37.8
371(10) 0.00858 363.3 36.3
371(10) 0.00883 363.4 34.7
364(10) 0.00903 363.4 33.0
380(10) 0.00857 363.4 31.3
393(10) 0.00869 363.5 29.5
388(10) 0.00851 363.5 28.0
343(10) 0.00904 363.5 26.4
380(11) 0.00832 363.6 24.8
393(10) 0.00852 363.6 23.3
347(10) 0.00971 363.6 21.9
341(10) 0.00914 363.7 20.6
360(10) 0.00856 363.7 19.3
397(11) 0.00814 363.7 18.2
372(10) 0.00903 363.8 17.1
366(10) 0.00919 363.8 16.1
365(10) 0.00886 363.8 15.2
361(11) 0.00836 363.9 14.3
353(10) 0.00892 363.9 13.6
367(10) 0.00929 363.9 12.9
375(10) 0.00898 364.0 12.2
415(11) 0.00767 364.0 11.7
362(11) 0.00835 364.0 11.1
354(10) 0.00892 364.1 10.6
347(10) 0.00983 364.1 10.2
359(10) 0.00952 364.1 9.8
369(10) 0.00865 364.2 9.5
359(10) 0.00846 364.2 9.2
376(10) 0.00849 364.2 8.9
354(10) 0.00965 364.3 8.6
377(10) 0.00885 364.3 8.4
371(10) 0.00871 364.3 8.2
372(11) 0.00832 364.4 8.0
383(11) 0.00816 364.4 7.8
363(10) 0.00942 364.4 7.7
379(10) 0.00876 364.5 7.5
397(11) 0.00802 364.5 7.4
397(11) 0.00753 364.5 7.3
349(10) 0.00905 364.5 7.3
337(10) 0.00996 364.6 7.2
351(10) 0.00959 364.6 7.1
357(10) 0.00917 364.6 7.1
338(10) 0.00911 364.7 7.0
350(10) 0.00897 364.7 7.0
341(10) 0.00993 364.7 6.9
338(10) 0.00977 364.8 6.9
355(10) 0.00906 364.8 6.9
370(10) 0.00844 364.8 6.9
362(10) 0.00903 364.9 6.9
341(10) 0.00986 364.9 6.9
363(10) 0.00912 364.9 6.9
345(10) 0.00938 365.0 6.9
375(10) 0.00859 365.0 7.0
392(10) 0.00840 365.0 7.0
377(10) 0.00896 365.1 7.1
366(10) 0.00893 365.1 7.2
340(10) 0.00969 365.1 7.2
350(10) 0.00949 365.2 7.3
358(10) 0.00894 365.2 7.4
341(10) 0.00994 365.2 7.5
358(10) 0.00904 365.3 7.7
369(10) 0.00859 365.3 7.8
387(10) 0.00841 365.3 8.0
385(10) 0.00872 365.2 8.1
379(10) 0.00901 365.2 8.3
339(10) 0.00946 365.1 8.5
353(10) 0.00883 365.1 8.7
363(10) 0.00913 365.0 8.9
367(10) 0.00933 364.9 9.1
359(10) 0.00944 364.9 9.3
356(10) 0.00885 364.8 9.6
363(11) 0.00810 364.8 9.9
372(10) 0.00848 364.7 10.1
367(10) 0.00927 364.7 10.4
351(10) 0.00969 364.6 10.7
372(10) 0.00862 364.5 11.0
387(11) 0.00768 364.5 11.3
347(10) 0.00957 364.4 11.6
343(10) 0.00996 364.4 11.9
346(10) 0.00968 364.3 12.3
379(10) 0.00851 364.3 12.6
375(11) 0.00804 364.2 12.9
380(10) 0.00853 364.1 13.2
376(10) 0.00906 364.1 13.4
349(10) 0.00961 364.0 13.7
386(11) 0.00814 364.0 13.9
378(11) 0.00825 363.9 14.1
379(10) 0.00854 363.9 14.3
362(10) 0.00950 363.8 14.4
359(10) 0.00888 363.7 14.5
393(11) 0.00810 363.7 14.6
369(10) 0.00856 363.6 14.6
396(11) 0.00795 363.6 14.7
345(10) 0.00982 363.5 14.7
364(10) 0.00913 363.4 14.6
369(10) 0.00844 363.4 14.6
380(11) 0.00823 363.3 14.6
363(10) 0.00905 363.3 14.5
339(10) 0.00991 363.2 14.5
353(10) 0.00938 363.2 14.5
350(10) 0.00903 363.1 14.5
385(11) 0.00825 363.0 14.5
379(10) 0.00860 363.0 14.6
364(10) 0.00936 362.9 14.7
370(10) 0.00865 362.9 14.8
381(11) 0.00814 362.8 15.0
387(11) 0.00813 362.8 15.3
363(10) 0.00912 362.7 15.8
376(10) 0.00912 362.6 16.3
374(10) 0.00864 362.6 17.0
385(11) 0.00801 362.5 17.8
366(10) 0.00889 362.5 18.8
374(10) 0.00887 362.4 20.0
401(10) 0.00857 362.4 21.5
391(11) 0.00802 362.3 23.2
389(11) 0.00785 362.2 25.1
403(11) 0.00806 362.2 27.2
379(10) 0.00882 362.1 29.5
361(10) 0.00944 362.1 32.0
385(11) 0.00822 362.0 34.7
411(11) 0.00734 361.9 37.5
424(11) 0.00758 361.9 40.8
428(11) 0.00782 361.8 45.1
412(11) 0.00833 361.8 51.0
433(11) 0.00758 361.7 59.8
451(12) 0.00685 361.7 72.8
494(12) 0.00654 361.6 91.8
501(12) 0.00690 361.5 118.1
528(12) 0.00663 361.5 152.8
562(13) 0.00581 361.4 195.0
633(14) 0.00487 361.4 241.4
679(14) 0.00485 361.3 284.9
719(14) 0.00494 361.3 314.4
656(13) 0.00541 361.2 318.9
608(13) 0.00532 361.1 295.9
569(13) 0.00533 361.1 254.0
537(13) 0.00599 361.0 205.3
502(12) 0.00692 361.0 158.7
492(12) 0.00697 360.9 119.0
449(11) 0.00733 360.9 88.1
447(12) 0.00693 360.8 65.8
434(11) 0.00731 360.7 50.6
387(10) 0.00890 360.7 40.7
441(11) 0.00755 360.6 34.4
425(11) 0.00745 360.6 30.4
401(11) 0.00786 360.5 27.7
412(11) 0.00790 360.4 25.8
389(10) 0.00889 360.4 24.5
407(11) 0.00804 360.3 23.5
393(11) 0.00834 360.3 22.8
349(10) 0.00903 360.2 22.3
346(10) 0.00961 360.2 22.0
384(10) 0.00894 360.1 21.8
373(10) 0.00872 360.0 21.7
395(11) 0.00799 360.0 21.7
373(10) 0.00877 359.9 21.9
378(10) 0.00888 359.9 22.1
385(10) 0.00884 359.8 22.4
377(10) 0.00858 359.8 22.8
388(11) 0.00791 359.7 23.3
408(11) 0.00774 359.6 23.8
416(11) 0.00800 359.6 24.4
410(11) 0.00833 359.5 25.1
405(11) 0.00794 359.5 25.9
375(11) 0.00830 359.4 26.7
374(10) 0.00863 359.4 27.6
385(10) 0.00849 359.3 28.6
388(10) 0.00889 359.2 29.6
375(10) 0.00854 359.2 30.7
373(11) 0.00822 359.1 31.9
366(10) 0.00896 359.1 33.1
406(10) 0.00842 359.0 34.5
377(10) 0.00893 359.0 35.9
358(10) 0.00907 358.9 37.3
376(11) 0.00808 358.8 38.9
394(11) 0.00825 358.8 40.5
384(10) 0.00886 358.7 42.2
373(10) 0.00898 358.7 43.9
375(11) 0.00839 358.6 45.8
418(11) 0.00716 358.5 47.7
411(11) 0.00790 358.5 49.7
396(10) 0.00872 358.4 51.7
435(11) 0.00775 358.4 53.8
400(11) 0.00800 358.3 56.1
416(11) 0.00725 358.3 58.4
424(11) 0.00737 358.2 60.8
451(11) 0.00772 358.1 63.2
425(11) 0.00794 358.1 65.9
399(11) 0.00806 358.0 68.6
426(11) 0.00737 358.0 71.5
425(11) 0.00760 357.9 74.6
465(11) 0.00735 357.9 78.0
484(12) 0.00683 357.8 81.5
452(12) 0.00707 357.7 85.4
466(12) 0.00681 357.7 89.5
496(12) 0.00637 357.6 94.0
461(11) 0.00753 357.6 98.8
461(11) 0.00724 357.5 103.9
473(12) 0.00680 357.5 109.4
499(12) 0.00642 357.4 115.1
523(12) 0.00637 357.3 121.0
527(12) 0.00664 357.3 126.9
527(12) 0.00639 357.2 132.5
530(12) 0.00626 357.2 137.6
519(12) 0.00637 357.1 141.7
479(12) 0.00697 357.0 144.5
523(12) 0.00664 357.0 145.5
513(12) 0.00650 356.9 144.6
472(12) 0.00687 356.9 141.7
490(12) 0.00653 356.8 137.1
470(11) 0.00720 356.8 131.0
448(11) 0.00772 356.7 124.0
443(11) 0.00722 356.6 116.4
476(12) 0.00642 356.6 108.6
465(12) 0.00686 356.5 100.9
455(11) 0.00740 356.5 93.4
453(11) 0.00759 356.4 86.3
450(11) 0.00728 356.4 79.7
444(12) 0.00672 356.3 73.7
421(11) 0.00752 356.2 68.1
456(11) 0.00762 356.2 63.1
442(11) 0.00784 356.1 58.6
419(11) 0.00786 356.1 54.6
402(11) 0.00757 356.0 51.0
410(11) 0.00792 356.0 47.8
374(10) 0.00919 355.9 45.0
398(10) 0.00856 355.8 42.4
424(11) 0.00744 355.8 40.2
407(11) 0.00723 355.7 38.2
399(11) 0.00827 355.7 36.4
433(11) 0.00805 355.6 34.8
377(10) 0.00893 355.5 33.4
367(10) 0.00876 355.5 32.1
380(11) 0.00785 355.4 30.9
370(10) 0.00874 355.4 29.9
398(10) 0.00848 355.3 28.9
375(10) 0.00910 355.3 28.1
373(10) 0.00849 355.2 27.3
375(11) 0.00826 355.1 26.6
388(11) 0.00825 355.1 25.9
379(10) 0.00903 355.0 25.4
373(10) 0.00883 355.0 24.9
393(11) 0.00797 354.9 24.5
375(11) 0.00815 354.9 24.1
363(10) 0.00880 354.8 23.9
396(10) 0.00863 354.7 23.7
385(10) 0.00847 354.7 23.6
368(10) 0.00859 354.6 23.5
368(10) 0.00875 354.6 23.5
391(10) 0.00844 354.5 23.7
377(10) 0.00908 354.5 23.9
389(11) 0.00836 354.4 24.3
383(11) 0.00834 354.3 24.8
398(11) 0.00811 354.3 25.5
377(10) 0.00870 354.2 26.4
372(10) 0.00919 354.2 27.5
371(10) 0.00890 354.1 28.9
371(10) 0.00849 354.1 30.6
400(11) 0.00813 354.0 32.7
407(11) 0.00822 353.9 35.3
431(11) 0.00788 353.9 38.4
414(11) 0.00741 353.8 42.1
405(11) 0.00791 353.8 46.5
446(11) 0.00739 353.7 51.7
402(10) 0.00844 353.6 57.6
413(11) 0.00833 353.6 64.4
437(11) 0.00753 353.5 71.9
463(12) 0.00682 353.5 80.3
444(11) 0.00750 353.4 89.3
473(11) 0.00723 353.4 98.8
461(11) 0.00759 353.3 108.4
510(12) 0.00640 353.2 117.7
497(12) 0.00624 353.2 126.0
570(13) 0.00567 353.1 132.8
541(12) 0.00639 353.1 137.3
527(12) 0.00659 353.0 139.1
546(13) 0.00591 353.0 137.9
496(12) 0.00619 352.9 133.9
480(12) 0.00692 352.8 127.5
492(11) 0.00713 352.8 119.4
493(12) 0.00697 352.7 110.2
481(12) 0.00672 352.7 100.6
458(12) 0.00667 352.6 90.9
433(11) 0.00747 352.6 81.5
442(11) 0.00772 352.5 72.7
427(11) 0.00804 352.4 64.6
405(11) 0.00795 352.4 57.3
407(11) 0.00742 352.3 50.7
405(11) 0.00792 352.3 45.0
396(10) 0.00860 352.2 40.0
383(10) 0.00878 352.1 35.7
384(11) 0.00818 352.1 32.0
358(10) 0.00840 352.0 28.9
369(10) 0.00845 352.0 26.3
369(10) 0.00920 351.9 24.0
386(10) 0.00856 351.9 22.1
380(10) 0.00851 351.8 20.5
370(10) 0.00858 351.7 19.1
375(10) 0.00862 351.7 18.0
350(10) 0.00966 351.6 17.0
343(10) 0.00918 351.6 16.1
383(11) 0.00826 351.5 15.4
375(10) 0.00854 351.5 14.8
368(10) 0.00892 351.4 14.3
370(10) 0.00928 351.3 13.8
382(10) 0.00857 351.3 13.4
364(10) 0.00873 351.2 13.1
374(10) 0.00862 351.2 12.8
379(10) 0.00866 351.1 12.6
355(10) 0.00959 351.1 12.4
368(10) 0.00863 351.0 12.2
360(10) 0.00858 350.9 12.1
360(10) 0.00868 350.9 12.0
360(10) 0.00918 350.8 11.9
380(10) 0.00897 350.8 11.8
355(10) 0.00894 350.7 11.7
356(11) 0.00831 350.7 11.6
372(10) 0.00845 350.6 11.5
388(10) 0.00854 350.5 11.4
362(10) 0.00935 350.5 11.2
321(10) 0.01001 350.4 11.0
377(11) 0.00778 350.4 10.9
374(10) 0.00855 350.3 10.6
351(10) 0.00948 350.2 10.4
339(10) 0.00986 350.2 10.2
392(11) 0.00796 350.1 9.9
370(11) 0.00831 350.1 9.7
387(10) 0.00839 350.0 9.4
386(10) 0.00880 350.0 9.2
372(10) 0.00915 349.9 9.0
353(10) 0.00917 349.8 8.7
326(10) 0.00924 349.8 8.5
341(10) 0.00935 349.7 8.3
367(10) 0.00934 349.7 8.0
378(10) 0.00893 349.6 7.8
360(10) 0.00870 349.6 7.6
331(10) 0.00913 349.5 7.4
350(10) 0.00899 349.4 7.2
354(10) 0.00959 349.4 7.0
361(10) 0.00940 349.3 6.8
349(10) 0.00945 349.3 6.6
357(10) 0.00874 349.2 6.5
385(11) 0.00825 349.2 6.3
372(10) 0.00919 349.1 6.2
355(10) 0.00944 349.0 6.1
360(10) 0.00874 349.0 5.9
352(10) 0.00892 348.9 5.8
343(10) 0.00930 348.9 5.7
353(10) 0.00963 348.8 5.6
369(10) 0.00901 348.7 5.5
380(10) 0.00842 348.7 5.4
352(10) 0.00927 348.6 5.3
368(10) 0.00884 348.6 5.2
353(10) 0.00963 348.5 5.1
333(10) 0.00969 348.5 5.0
314(10) 0.00982 348.4 4.9
331(10) 0.00954 348.3 4.8
358(10) 0.00920 348.3 4.7
378(10) 0.00898 348.2 4.7
349(10) 0.00928 348.2 4.6
379(11) 0.00803 348.1 4.5
366(10) 0.00875 348.1 4.4
342(10) 0.00973 348.0 4.4
348(10) 0.00972 347.9 4.3
369(11) 0.00838 347.9 4.2
364(11) 0.00817 347.8 4.2
355(10) 0.00902 347.8 4.1
332(10) 0.01005 347.7 4.1
355(10) 0.00960 347.7 4.0
354(10) 0.00918 347.6 4.0
374(11) 0.00809 347.5 4.0
324(10) 0.00993 347.5 3.9
336(10) 0.00994 347.4 3.9
356(10) 0.00955 347.4 3.9
345(10) 0.00948 347.3 3.8
328(10) 0.00921 347.2 3.8
344(10) 0.00921 347.2 3.8
356(10) 0.00950 347.1 3.8
361(10) 0.00908 347.1 3.8
358(10) 0.00881 347.0 3.7
350(11) 0.00833 347.0 3.7
348(10) 0.00925 346.9 3.7
364(10) 0.00911 346.8 3.7
335(9) 0.01017 346.8 3.7
365(10) 0.00895 346.7 3.7
369(10) 0.00859 346.7 3.7
351(10) 0.00930 346.6 3.7
351(10) 0.00963 346.6 3.7
351(10) 0.00948 346.5 3.7
364(10) 0.00850 346.4 3.7
369(11) 0.00814 346.4 3.7
373(10) 0.00865 346.3 3.7
347(10) 0.00969 346.3 3.7
348(10) 0.00936 346.3 3.7
335(10) 0.00937 346.3 3.7
348(10) 0.00887 346.3 3.7
331(10) 0.00937 346.3 3.7
333(9) 0.01018 346.3 3.7
378(10) 0.00863 346.3 3.8
348(10) 0.00887 346.3 3.8
320(10) 0.00927 346.3 3.8
322(10) 0.01000 346.3 3.8
338(10) 0.01002 346.3 3.8
337(10) 0.00974 346.3 3.9
322(10) 0.00999 346.3 3.9
361(10) 0.00863 346.3 3.9
354(10) 0.00941 346.3 3.9
344(10) 0.00984 346.3 4.0
360(10) 0.00888 346.3 4.0
335(10) 0.00931 346.3 4.0
355(10) 0.00887 346.3 4.1
344(10) 0.00965 346.3 4.1
357(10) 0.00949 346.3 4.2
336(10) 0.00950 346.3 4.2
365(11) 0.00811 346.3 4.3
365(10) 0.00857 346.3 4.3
349(10) 0.00968 346.3 4.4
354(10) 0.00953 346.3 4.4
361(10) 0.00887 346.3 4.5
375(11) 0.00814 346.3 4.5
338(10) 0.00957 346.3 4.6
332(10) 0.00994 346.3 4.7
332(9) 0.01016 346.3 4.8
360(10) 0.00892 346.3 4.8
330(10) 0.00921 346.3 4.9
343(10) 0.00914 346.3 5.0
345(10) 0.00972 346.3 5.1
363(10) 0.00943 346.3 5.2
347(10) 0.00889 346.3 5.3
350(10) 0.00841 346.3 5.4
385(11) 0.00828 346.3 5.5
370(10) 0.00922 346.3 5.6
357(10) 0.00946 346.3 5.7
362(10) 0.00885 346.3 5.9
349(10) 0.00920 346.3 6.0
378(10) 0.00841 346.3 6.1
350(10) 0.00970 346.3 6.3
355(10) 0.00945 346.3 6.4
349(10) 0.00917 346.3 6.6
377(11) 0.00790 346.3 6.8
358(10) 0.00883 346.3 6.9
360(10) 0.00948 346.3 7.1
346(10) 0.00942 346.3 7.3
351(10) 0.00895 346.3 7.5
349(10) 0.00898 346.3 7.7
363(10) 0.00879 346.3 7.9
379(10) 0.00904 346.3 8.1
348(10) 0.00938 346.3 8.3
337(10) 0.00925 346.3 8.5
374(11) 0.00813 346.3 8.8
363(10) 0.00890 346.3 9.1
375(10) 0.00910 346.3 9.3
358(10) 0.00910 346.3 9.6
377(11) 0.00830 346.3 9.9
353(10) 0.00868 346.3 10.2
322(10) 0.00997 346.3 10.6
343(10) 0.00989 346.3 10.9
367(10) 0.00857 346.3 11.3
355(10) 0.00867 346.3 11.7
342(10) 0.00948 346.3 12.2
363(10) 0.00904 346.3 12.7
368(10) 0.00928 346.3 13.2
344(10) 0.00890 346.3 13.8
346(10) 0.00897 346.3 14.4
362(10) 0.00883 346.3 15.1
352(10) 0.00970 346.3 15.8
349(10) 0.00966 346.3 16.6
391(11) 0.00818 346.3 17.5
369(11) 0.00833 346.3 18.4
363(10) 0.00879 346.3 19.4
363(10) 0.00930 346.3 20.5
374(10) 0.00925 346.3 21.7
379(11) 0.00825 346.3 22.9
366(11) 0.00807 346.3 24.3
381(10) 0.00839 346.3 25.7
369(10) 0.00906 346.3 27.2
364(10) 0.00931 346.3 28.8
362(10) 0.00887 346.3 30.5
371(11) 0.00796 346.3 32.3
402(11) 0.00794 346.3 34.2
382(10) 0.00885 346.3 36.2
417(11) 0.00821 346.3 38.2
409(11) 0.00786 346.3 40.3
374(11) 0.00823 346.3 42.4
388(11) 0.00838 346.3 44.6
416(11) 0.00829 346.3 46.7
390(10) 0.00873 346.3 48.9
418(11) 0.00760 346.3 50.9
426(11) 0.00710 346.3 52.9
382(10) 0.00841 346.3 54.8
392(10) 0.00880 346.3 56.5
411(11) 0.00813 346.3 58.0
391(11) 0.00836 346.3 59.2
376(11) 0.00811 346.3 60.2
375(11) 0.00838 346.3 60.8
396(10) 0.00866 346.3 61.1
388(10) 0.00853 346.3 61.0
409(11) 0.00792 346.3 60.6
386(11) 0.00815 346.3 59.9
397(11) 0.00786 346.3 58.9
382(10) 0.00895 346.3 57.6
393(10) 0.00845 346.3 56.1
416(11) 0.00760 346.3 54.4
408(11) 0.00774 346.3 52.5
371(10) 0.00899 346.3 50.6
390(10) 0.00873 346.3 48.5
388(11) 0.00833 346.3 46.5
392(11) 0.00793 346.3 44.4
401(11) 0.00793 346.3 42.4
361(10) 0.00910 346.3 40.4
360(10) 0.00935 346.3 38.4
367(10) 0.00878 346.3 36.5
373(11) 0.00821 346.3 34.7
366(10) 0.00876 346.3 33.0
367(10) 0.00895 346.3 31.4
360(10) 0.00944 346.3 29.8
373(11) 0.00837 346.3 28.4
359(11) 0.00826 346.3 27.0
374(10) 0.00844 346.3 25.7
395(10) 0.00866 346.3 24.5
366(10) 0.00933 346.3 23.4
362(10) 0.00876 346.3 22.3
348(10) 0.00863 346.3 21.3
355(10) 0.00913 346.3 20.3
372(10) 0.00916 346.3 19.5
343(10) 0.01001 346.3 18.6
343(10) 0.00903 346.3 17.8
340(10) 0.00868 346.3 17.0
336(10) 0.00950 346.3 16.3
337(10) 0.01001 346.3 15.6
353(10) 0.00949 346.3 14.9
355(10) 0.00910 346.3 14.2
332(10) 0.00911 346.3 13.6
362(10) 0.00858 346.3 13.0
364(10) 0.00930 346.3 12.5
373(10) 0.00912 346.3 12.0
352(10) 0.00907 346.3 11.5
342(10) 0.00880 346.3 11.0
359(10) 0.00901 346.3 10.6
349(10) 0.00984 346.3 10.2
369(10) 0.00898 346.3 9.9
332(10) 0.00986 346.3 9.5
367(11) 0.00808 346.3 9.2
333(10) 0.00945 346.3 8.9
344(10) 0.00988 346.3 8.6
349(10) 0.00929 346.3 8.3
351(10) 0.00887 346.3 8.1
336(10) 0.00904 346.3 7.9
353(10) 0.00887 346.3 7.7
339(10) 0.00996 346.3 7.5
375(10) 0.00878 346.3 7.3
368(10) 0.00879 346.3 7.1
360(10) 0.00876 346.3 7.0
355(10) 0.00893 346.3 6.8
346(10) 0.00988 346.3 6.7
346(10) 0.00885 346.3 6.6
336(10) 0.00886 346.3 6.5
322(10) 0.00993 346.3 6.4
322(9) 0.01021 346.3 6.3
344(10) 0.00992 346.3 6.2
340(10) 0.00957 346.3 6.1
333(10) 0.00956 346.3 6.1
348(10) 0.00881 346.3 6.0
364(10) 0.00903 346.3 5.9
356(10) 0.00952 346.3 5.9
353(10) 0.00884 346.3 5.9
350(10) 0.00885 346.3 5.8
366(10) 0.00872 346.3 5.8
362(10) 0.00924 346.3 5.8
349(10) 0.00967 346.3 5.7
347(10) 0.00897 346.3 5.7
348(10) 0.00858 346.3 5.7
345(10) 0.00909 346.3 5.7
344(10) 0.00959 346.3 5.7
356(10) 0.00955 346.3 5.7
387(11) 0.00836 346.4 5.7
337(10) 0.00920 346.4 5.8
373(10) 0.00871 346.4 5.8
355(10) 0.00961 346.5 5.8
365(10) 0.00919 346.5 5.9
322(9) 0.01017 346.5 5.9
360(11) 0.00824 346.6 6.0
349(10) 0.00906 346.6 6.0
351(10) 0.00963 346.6 6.1
367(10) 0.00911 346.7 6.2
334(9) 0.01011 346.7 6.3
354(10) 0.00877 346.7 6.4
364(10) 0.00876 346.8 6.5
340(10) 0.01006 346.8 6.7
381(10) 0.00875 346.8 6.8
350(10) 0.00926 346.9 7.0
352(10) 0.00878 346.9 7.2
341(10) 0.00942 346.9 7.5
350(10) 0.00970 346.9 7.7
341(10) 0.00971 347.0 8.1
355(10) 0.00868 347.0 8.5
349(10) 0.00872 347.0 8.9
343(10) 0.00929 347.1 9.5
368(10) 0.00933 347.1 10.3
372(10) 0.00889 347.1 11.3
370(10) 0.00846 347.2 13.0
359(10) 0.00857 347.2 15.7
375(10) 0.00864 347.2 20.2
371(10) 0.00912 347.3 27.4
391(11) 0.00834 347.3 38.3
420(11) 0.00767 347.3 53.2
423(11) 0.00760 347.4 71.3
451(12) 0.00704 347.4 90.4
449(11) 0.00775 347.4 106.0
444(11) 0.00729 347.5 112.8
443(11) 0.00709 347.5 107.8
431(11) 0.00729 347.5 93.5
405(11) 0.00835 347.5 75.4
420(11) 0.00819 347.6 57.9
397(11) 0.00811 347.6 43.7
366(10) 0.00871 347.6 33.5
389(10) 0.00846 347.7 27.0
401(10) 0.00850 347.7 23.4
384(10) 0.00889 347.7 21.7
372(10) 0.00848 347.8 21.2
409(11) 0.00726 347.8 21.2
397(11) 0.00823 347.8 21.4
391(10) 0.00874 347.9 21.8
359(10) 0.00943 347.9 22.1
385(11) 0.00821 347.9 22.5
361(11) 0.00825 348.0 23.0
381(10) 0.00855 348.0 23.5
395(10) 0.00875 348.0 24.1
384(10) 0.00878 348.0 24.6
397(11) 0.00797 348.1 25.1
387(11) 0.00799 348.1 25.4
423(11) 0.00756 348.1 25.7
397(10) 0.00842 348.2 25.8
411(11) 0.00827 348.2 25.8
402(11) 0.00812 348.2 25.6
399(11) 0.00794 348.3 25.3
390(11) 0.00827 348.3 24.8
387(10) 0.00883 348.3 24.2
407(11) 0.00833 348.4 23.5
404(11) 0.00795 348.4 22.7
391(11) 0.00806 348.4 21.8
385(11) 0.00834 348.5 21.0
392(10) 0.00874 348.5 20.1
397(11) 0.00825 348.5 19.1
373(11) 0.00826 348.6 18.3
360(10) 0.00862 348.6 17.4
356(10) 0.00876 348.6 16.5
366(10) 0.00922 348.6 15.7
332(10) 0.00971 348.7 15.0
384(11) 0.00806 348.7 14.3
356(10) 0.00874 348.7 13.6
349(10) 0.00926 348.8 13.0
345(10) 0.00981 348.8 12.4
367(10) 0.00890 348.8 11.9
381(11) 0.00838 348.9 11.5
361(10) 0.00893 348.9 11.0
378(10) 0.00877 348.9 10.6
344(10) 0.00984 349.0 10.3
338(10) 0.00957 349.0 10.0
357(10) 0.00843 349.0 9.7
337(10) 0.00937 349.1 9.5
364(10) 0.00926 349.1 9.3
367(10) 0.00919 349.1 9.2
368(10) 0.00870 349.2 9.0
373(11) 0.00807 349.2 9.0
351(10) 0.00912 349.2 8.9
339(10) 0.00950 349.2 8.8
360(10) 0.00943 349.3 8.8
333(10) 0.00972 349.3 8.8
341(10) 0.00894 349.3 8.9
362(10) 0.00895 349.4 8.9
339(10) 0.00980 349.4 9.0
364(10) 0.00934 349.4 9.1
359(10) 0.00898 349.5 9.2
348(10) 0.00844 349.5 9.4
331(10) 0.00956 349.5 9.5
345(10) 0.00976 349.6 9.7
380(10) 0.00881 349.6 9.9
382(10) 0.00845 349.6 10.1
387(11) 0.00782 349.7 10.4
398(11) 0.00787 349.7 10.7
353(10) 0.00974 349.7 11.0
337(10) 0.00985 349.7 11.3
359(10) 0.00889 349.8 11.7
379(11) 0.00789 349.8 12.1
350(10) 0.00934 349.8 12.5
364(10) 0.00934 349.9 13.0
366(10) 0.00932 349.9 13.5
360(10) 0.00899 349.9 14.0
375(11) 0.00802 350.0 14.6
352(10) 0.00912 350.0 15.2
369(10) 0.00927 350.0 15.9
373(10) 0.00903 350.1 16.7
349(10) 0.00940 350.1 17.5
334(10) 0.00942 350.1 18.5
367(10) 0.00858 350.2 19.5
379(10) 0.00903 350.2 20.6
372(10) 0.00901 350.2 21.8
383(10) 0.00851 350.3 23.0
373(11) 0.00833 350.3 24.3
364(10) 0.00866 350.3 25.6
405(10) 0.00847 350.3 26.9
351(10) 0.00930 350.4 28.1
350(10) 0.00918 350.4 29.1
369(10) 0.00868 350.4 29.8
359(10) 0.00927 350.5 30.1
367(10) 0.00921 350.5 30.1
354(10) 0.00919 350.5 29.7
391(11) 0.00810 350.6 29.0
369(10) 0.00843 350.6 28.2
332(10) 0.01006 350.6 27.3
387(10) 0.00879 350.7 26.5
354(10) 0.00895 350.7 25.7
367(11) 0.00831 350.7 24.9
387(11) 0.00821 350.8 24.3
401(10) 0.00857 350.8 23.8
384(10) 0.00881 350.8 23.5
368(10) 0.00866 350.8 23.3
378(11) 0.00822 350.9 23.2
382(11) 0.00838 350.9 23.2
350(10) 0.00956 350.9 23.3
351(10) 0.00964 351.0 23.4
365(10) 0.00852 351.0 23.5
371(11) 0.00763 351.0 23.5
370(10) 0.00860 351.1 23.5
362(10) 0.00941 351.1 23.3
339(10) 0.01005 351.1 23.1
364(10) 0.00871 351.2 22.9
374(11) 0.00794 351.2 22.7
363(10) 0.00874 351.2 22.6
360(10) 0.00931 351.3 22.6
377(10) 0.00897 351.3 22.6
372(10) 0.00864 351.3 22.7
359(10) 0.00858 351.4 22.9
368(10) 0.00853 351.4 23.2
371(10) 0.00911 351.4 23.4
362(10) 0.00941 351.4 23.7
368(10) 0.00879 351.5 24.1
354(10) 0.00870 351.5 24.4
392(11) 0.00811 351.5 24.8
369(10) 0.00917 351.6 25.2
359(10) 0.00944 351.6 25.6
361(10) 0.00876 351.6 26.0
370(11) 0.00825 351.7 26.3
326(10) 0.00964 351.7 26.7
367(10) 0.00925 351.7 27.1
386(10) 0.00863 351.8 27.4
358(10) 0.00880 351.8 27.8
368(11) 0.00823 351.8 28.1
389(11) 0.00827 351.9 28.4
367(10) 0.00921 351.9 28.7
360(10) 0.00917 351.9 29.0
347(10) 0.00922 352.0 29.4
347(10) 0.00901 352.0 29.7
362(10) 0.00893 352.0 30.2
361(10) 0.00943 352.0 30.9
379(10) 0.00849 352.1 31.9
423(11) 0.00722 352.1 33.7
418(11) 0.00762 352.1 36.7
378(10) 0.00871 352.2 41.2
350(10) 0.00968 352.2 47.7
409(11) 0.00792 352.2 55.8
411(11) 0.00757 352.3 64.8
407(11) 0.00780 352.3 73.0
424(11) 0.00794 352.3 77.7
415(11) 0.00839 352.4 77.1
401(11) 0.00817 352.4 71.7
409(11) 0.00771 352.4 63.9
393(11) 0.00838 352.5 56.0
387(10) 0.00861 352.5 49.4
394(10) 0.00866 352.5 44.6
384(11) 0.00823 352.5 41.6
394(11) 0.00776 352.6 39.7
392(11) 0.00811 352.6 38.5
382(10) 0.00870 352.6 37.5
384(10) 0.00896 352.7 36.5
386(10) 0.00846 352.7 35.7
379(11) 0.00795 352.7 35.0
405(11) 0.00805 352.8 34.5
394(10) 0.00868 352.8 34.3
370(10) 0.00919 352.8 34.3
375(11) 0.00833 352.9 34.6
369(11) 0.00829 352.9 35.1
400(11) 0.00803 352.9 35.7
415(11) 0.00838 353.0 36.3
388(10) 0.00865 353.0 37.0
388(11) 0.00821 353.0 37.6
369(11) 0.00821 353.1 38.3
382(11) 0.00832 353.1 39.0
370(10) 0.00924 353.1 39.7
411(11) 0.00816 353.1 40.5
399(11) 0.00752 353.2 41.3
384(11) 0.00794 353.2 42.1
387(10) 0.00846 353.2 42.7
387(10) 0.00879 353.3 43.2
370(10) 0.00894 353.3 43.5
370(10) 0.00853 353.3 43.5
403(11) 0.00770 353.4 43.3
424(11) 0.00772 353.4 42.8
388(10) 0.00877 353.4 42.2
402(11) 0.00835 353.5 41.6
371(10) 0.00869 353.5 41.1
356(10) 0.00865 353.5 40.8
358(10) 0.00882 353.6 41.0
361(10) 0.00950 353.6 41.6
388(10) 0.00850 353.6 42.8
370(10) 0.00854 353.7 44.6
367(10) 0.00875 353.7 47.0
370(10) 0.00884 353.7 49.7
395(10) 0.00870 353.7 52.5
386(11) 0.00826 353.8 54.9
425(11) 0.00732 353.8 56.1
392(11) 0.00827 353.8 55.7
390(10) 0.00857 353.9 53.6
370(10) 0.00920 353.9 50.0
396(11) 0.00799 353.9 45.6
384(11) 0.00808 354.0 41.1
387(11) 0.00822 354.0 36.7
351(10) 0.00936 354.0 32.7
368(10) 0.00933 354.1 29.3
389(11) 0.00799 354.1 26.5
363(11) 0.00833 354.1 24.3
374(10) 0.00850 354.2 22.5
381(10) 0.00884 354.2 21.2
377(10) 0.00906 354.2 20.3
358(10) 0.00910 354.2 19.6
368(11) 0.00807 354.3 19.1
360(10) 0.00880 354.3 18.8
333(10) 0.01007 354.3 18.6
367(10) 0.00926 354.4 18.6
397(11) 0.00820 354.4 18.6
401(11) 0.00734 354.4 18.7
368(10) 0.00878 354.5 19.0
358(10) 0.00966 354.5 19.3
365(10) 0.00906 354.5 19.7
383(11) 0.00823 354.6 20.3
367(10) 0.00842 354.6 21.1
389(11) 0.00820 354.6 22.2
367(10) 0.00929 354.7 23.7
356(10) 0.00946 354.7 25.7
386(11) 0.00829 354.7 28.3
368(10) 0.00843 354.8 31.7
398(11) 0.00783 354.8 35.9
380(10) 0.00898 354.8 40.6
411(11) 0.00820 354.8 45.4
420(11) 0.00733 354.9 49.8
381(11) 0.00833 354.9 52.8
402(11) 0.00771 354.9 53.5
380(10) 0.00893 355.0 51.9
392(10) 0.00843 355.0 48.6
415(11) 0.00739 355.0 44.8
408(11) 0.00762 355.1 41.0
388(10) 0.00854 355.1 37.6
371(10) 0.00923 355.1 35.0
347(10) 0.00912 355.2 33.1
375(10) 0.00844 355.2 31.7
393(11) 0.00807 355.2 30.9
359(10) 0.00881 355.3 30.4
367(10) 0.00932 355.3 30.1
367(10) 0.00859 355.3 30.0
360(10) 0.00879 355.4 30.0
382(11) 0.00820 355.4 29.9
382(10) 0.00858 355.4 29.9
370(10) 0.00917 355.4 29.9
388(11) 0.00827 355.5 29.8
384(11) 0.00776 355.5 29.7
359(11) 0.00838 355.5 29.6
384(10) 0.00873 355.6 29.5
358(10) 0.00946 355.6 29.2
364(10) 0.00881 355.6 29.0
373(11) 0.00833 355.7 28.7
371(10) 0.00839 355.7 28.4
347(10) 0.00977 355.7 28.0
358(10) 0.00939 355.8 27.5
377(10) 0.00854 355.8 27.1
331(10) 0.00890 355.8 26.6
336(10) 0.00947 355.9 26.1
375(10) 0.00897 355.9 25.6
353(10) 0.00968 355.9 25.1
361(10) 0.00880 355.9 24.5
320(10) 0.00968 356.0 24.0
361(10) 0.00890 356.0 23.5
380(10) 0.00888 356.0 23.0
366(10) 0.00934 356.1 22.5
377(10) 0.00844 356.1 22.1
378(11) 0.00765 356.1 21.6
344(10) 0.00925 356.2 21.2
361(10) 0.00946 356.2 20.8
328(9) 0.01010 356.2 20.4
331(10) 0.00948 356.3 20.1
333(10) 0.00925 356.3 19.7
355(10) 0.00868 356.3 19.4
373(10) 0.00905 356.4 19.1
337(10) 0.01006 356.4 18.8
370(10) 0.00874 356.4 18.6
364(10) 0.00854 356.5 18.3
334(10) 0.00971 356.5 18.1
368(10) 0.00928 356.5 17.9
352(10) 0.00946 356.5 17.7
349(10) 0.00902 356.6 17.6
367(10) 0.00842 356.6 17.5
376(10) 0.00847 356.6 17.4
349(10) 0.00973 356.7 17.3
343(10) 0.00946 356.7 17.2
379(11) 0.00832 356.7 17.2
369(10) 0.00871 356.7 17.2
355(10) 0.00911 356.7 17.2
363(10) 0.00934 356.6 17.2
375(10) 0.00882 356.6 17.2
348(10) 0.00925 356.5 17.3
349(10) 0.00918 356.5 17.4
333(10) 0.00987 356.5 17.5
351(10) 0.00953 356.4 17.6
364(10) 0.00872 356.4 17.7
377(11) 0.00814 356.3 17.9
362(10) 0.00880 356.3 18.1
371(10) 0.00908 356.3 18.3
377(10) 0.00907 356.2 18.5
359(10) 0.00860 356.2 18.7
364(10) 0.00846 356.1 19.0
365(10) 0.00889 356.1 19.3
368(10) 0.00906 356.1 19.6
361(10) 0.00939 356.0 20.0
335(10) 0.00963 356.0 20.3
359(10) 0.00850 355.9 20.8
380(10) 0.00854 355.9 21.2
370(10) 0.00915 355.9 21.7
357(10) 0.00963 355.8 22.2
374(11) 0.00823 355.8 22.8
367(11) 0.00804 355.7 23.4
353(10) 0.00911 355.7 24.1
354(10) 0.00950 355.7 24.9
347(10) 0.00956 355.6 25.7
361(10) 0.00890 355.6 26.5
349(10) 0.00853 355.5 27.4
363(10) 0.00873 355.5 28.4
394(10) 0.00869 355.5 29.3
385(10) 0.00880 355.4 30.3
380(10) 0.00839 355.4 31.3
385(11) 0.00788 355.3 32.2
361(10) 0.00902 355.3 33.0
371(10) 0.00910 355.3 33.7
391(10) 0.00867 355.2 34.2
384(10) 0.00844 355.2 34.6
377(11) 0.00824 355.1 34.9
361(10) 0.00911 355.1 35.1
387(10) 0.00875 355.1 35.2
372(10) 0.00900 355.0 35.2
361(10) 0.00883 355.0 35.3
375(11) 0.00827 354.9 35.4
367(10) 0.00885 354.9 35.5
412(11) 0.00834 354.9 35.6
382(10) 0.00861 354.8 35.9
388(11) 0.00828 354.8 36.2
383(11) 0.00838 354.7 36.6
387(11) 0.00819 354.7 37.0
385(10) 0.00889 354.7 37.5
390(11) 0.00836 354.6 38.1
376(10) 0.00840 354.6 38.7
385(11) 0.00815 354.5 39.4
390(11) 0.00818 354.5 40.1
398(10) 0.00865 354.5 40.8
372(10) 0.00861 354.4 41.6
384(11) 0.00805 354.4 42.4
413(11) 0.00779 354.3 43.1
407(11) 0.00830 354.3 43.9
396(10) 0.00864 354.3 44.7
381(11) 0.00827 354.2 45.4
397(11) 0.00802 354.2 46.2
400(11) 0.00820 354.1 46.8
400(10) 0.00846 354.1 47.5
411(11) 0.00833 354.1 48.1
408(11) 0.00793 354.0 48.7
398(11) 0.00777 354.0 49.2
383(10) 0.00855 353.9 49.6
396(10) 0.00852 353.9 50.0
416(11) 0.00817 353.9 50.4
416(11) 0.00787 353.8 50.7
431(12) 0.00683 353.8 50.9
402(11) 0.00803 353.7 51.1
416(11) 0.00823 353.7 51.2
403(10) 0.00844 353.7 51.2
384(11) 0.00837 353.6 51.2
385(11) 0.00775 353.6 51.1
400(11) 0.00798 353.5 50.9
441(11) 0.00788 353.5 50.7
369(10) 0.00909 353.5 50.4
373(10) 0.00864 353.4 50.0
414(11) 0.00731 353.4 49.6
405(11) 0.00810 353.3 49.1
384(10) 0.00892 353.3 48.6
394(10) 0.00853 353.3 48.0
379(10) 0.00863 353.2 47.3
378(11) 0.00822 353.2 46.6
376(10) 0.00854 353.1 45.8
382(10) 0.00894 353.1 45.0
365(10) 0.00919 353.0 44.2
404(11) 0.00786 353.0 43.3
390(11) 0.00774 353.0 42.4
380(11) 0.00822 352.9 41.5
388(10) 0.00884 352.9 40.5
372(10) 0.00859 352.8 39.6
373(10) 0.00856 352.8 38.6
389(11) 0.00811 352.8 37.7
356(10) 0.00907 352.7 36.7
381(10) 0.00892 352.7 35.8
356(10) 0.00934 352.6 34.9
358(10) 0.00905 352.6 34.0
393(11) 0.00792 352.6 33.1
411(11) 0.00806 352.5 32.3
376(10) 0.00908 352.5 31.5
367(10) 0.00880 352.4 30.7
367(10) 0.00864 352.4 30.0
368(10) 0.00863 352.4 29.3
374(10) 0.00860 352.3 28.7
369(10) 0.00916 352.3 28.0
370(11) 0.00835 352.2 27.4
373(11) 0.00820 352.2 26.9
344(10) 0.00933 352.2 26.4
370(10) 0.00917 352.1 25.9
350(10) 0.00959 352.1 25.5
394(11) 0.00796 352.0 25.1
380(10) 0.00854 352.0 24.8
371(10) 0.00902 352.0 24.5
364(10) 0.00926 351.9 24.2
359(10) 0.00948 351.9 24.0
371(10) 0.00850 351.8 23.9
353(10) 0.00855 351.8 23.7
368(10) 0.00884 351.8 23.7
380(10) 0.00887 351.7 23.7
403(10) 0.00854 351.7 23.7
378(10) 0.00851 351.6 23.9
395(11) 0.00751 351.6 24.1
371(10) 0.00898 351.6 24.4
397(10) 0.00856 351.5 24.7
350(10) 0.00970 351.5 25.2
393(11) 0.00823 351.4 25.8
354(10) 0.00857 351.4 26.6
378(10) 0.00855 351.4 27.4
382(10) 0.00893 351.3 28.5
373(10) 0.00903 351.3 29.8
384(10) 0.00846 351.2 31.3
379(11) 0.00781 351.2 33.0
370(10) 0.00844 351.2 35.1
384(10) 0.00898 351.1 37.4
413(11) 0.00808 351.1 40.0
372(10) 0.00848 351.0 43.0
360(10) 0.00851 351.0 46.2
397(11) 0.00778 351.0 49.8
376(10) 0.00919 350.9 53.7
397(11) 0.00820 350.9 57.8
381(11) 0.00813 350.8 62.0
403(11) 0.00751 350.8 66.2
391(10) 0.00845 350.8 70.2
397(10) 0.00866 350.7 73.9
415(11) 0.00781 350.7 76.9
406(11) 0.00759 350.6 78.9
420(11) 0.00759 350.6 79.9
427(11) 0.00761 350.6 79.5
433(11) 0.00801 350.5 77.9
424(11) 0.00753 350.5 75.3
441(12) 0.00706 350.4 71.8
401(11) 0.00804 350.4 67.7
405(11) 0.00814 350.4 63.4
401(10) 0.00850 350.3 59.0
398(11) 0.00817 350.3 54.7
385(11) 0.00799 350.2 50.7
341(10) 0.00947 350.2 46.9
384(10) 0.00874 350.2 43.5
377(10) 0.00905 350.1 40.4
405(11) 0.00796 350.1 37.6
369(11) 0.00832 350.0 35.2
362(10) 0.00881 350.0 33.1
373(10) 0.00894 350.0 31.2
329(9) 0.01023 349.9 29.6
368(10) 0.00868 349.9 28.1
407(11) 0.00744 349.8 26.9
408(11) 0.00805 349.8 25.8
387(10) 0.00874 349.8 24.9
373(10) 0.00911 349.7 24.0
364(10) 0.00864 349.7 23.2
338(10) 0.00896 349.6 22.5
364(10) 0.00891 349.6 21.8
376(10) 0.00900 349.6 21.2
355(10) 0.00955 349.5 20.6
357(10) 0.00914 349.5 20.0
389(11) 0.00765 349.4 19.4
358(10) 0.00891 349.4 18.9
331(9) 0.01019 349.4 18.3
322(9) 0.01040 349.3 17.8
345(10) 0.00927 349.3 17.3
371(11) 0.00812 349.2 16.8
363(10) 0.00895 349.2 16.4
358(10) 0.00945 349.2 15.9
330(10) 0.00986 349.1 15.5
359(10) 0.00900 349.1 15.1
355(10) 0.00863 349.0 14.6
321(10) 0.00990 349.0 14.3
356(10) 0.00950 349.0 13.9
358(10) 0.00925 348.9 13.5
377(10) 0.00849 348.9 13.2
364(10) 0.00866 348.8 12.8
338(10) 0.00937 348.8 12.5
360(10) 0.00939 348.7 12.2
363(10) 0.00889 348.7 12.0
321(10) 0.00979 348.7 11.7
364(10) 0.00872 348.6 11.4
351(10) 0.00925 348.6 11.2
341(10) 0.00991 348.5 11.0
362(10) 0.00886 348.5 10.8
360(10) 0.00883 348.5 10.6
331(10) 0.00980 348.4 10.4
341(10) 0.00957 348.4 10.2
366(10) 0.00930 348.3 10.0
330(10) 0.00956 348.3 9.9
351(10) 0.00856 348.3 9.7
365(10) 0.00866 348.2 9.6
371(10) 0.00900 348.2 9.5
342(10) 0.00983 348.1 9.4
360(10) 0.00869 348.1 9.3
360(10) 0.00840 348.1 9.2
343(10) 0.00939 348.0 9.2
352(10) 0.00943 348.0 9.1
356(10) 0.00953 347.9 9.1
383(10) 0.00848 347.9 9.0
351(10) 0.00863 347.9 9.0
344(10) 0.00917 347.8 9.0
378(10) 0.00895 347.8 9.0
381(10) 0.00890 347.7 9.1
380(10) 0.00844 347.7 9.1
360(11) 0.00832 347.7 9.2
336(10) 0.00920 347.6 9.2
349(10) 0.00956 347.6 9.3
349(10) 0.00947 347.5 9.4
381(11) 0.00821 347.5 9.6
368(11) 0.00810 347.5 9.7
349(10) 0.00915 347.4 9.9
333(9) 0.01021 347.4 10.1
383(10) 0.00875 347.3 10.4
327(10) 0.00984 347.3 10.7
366(11) 0.00829 347.3 11.3
360(10) 0.00894 347.2 12.2
366(10) 0.00928 347.2 13.5
372(10) 0.00917 347.1 15.4
374(10) 0.00868 347.1 18.2
377(11) 0.00808 347.1 22.0
369(10) 0.00843 347.0 26.9
392(10) 0.00869 347.0 32.8
395(10) 0.00854 346.9 39.0
394(11) 0.00797 346.9 44.6
385(11) 0.00798 346.9 48.2
372(10) 0.00850 346.8 48.5
377(10) 0.00890 346.8 45.5
386(10) 0.00844 346.7 40.3
389(11) 0.00811 346.7 34.4
389(11) 0.00797 346.7 28.8
349(10) 0.00917 346.6 24.2
388(10) 0.00881 346.6 20.6
347(10) 0.00950 346.5 18.1
343(10) 0.00934 346.5 16.5
396(11) 0.00788 346.5 15.5
345(10) 0.00921 346.4 15.0
362(10) 0.00932 346.4 14.8
355(10) 0.00920 346.3 14.8
376(11) 0.00827 346.3 14.9
352(10) 0.00896 346.3 15.2
343(10) 0.00967 346.2 15.5
348(10) 0.00970 346.2 15.8
366(10) 0.00877 346.1 16.2
329(10) 0.00941 346.1 16.6
353(10) 0.00918 346.1 17.0
360(10) 0.00918 346.0 17.5
357(10) 0.00943 346.0 18.0
377(10) 0.00841 345.9 18.5
355(10) 0.00860 345.9 19.0
357(10) 0.00897 345.9 19.5
381(10) 0.00896 345.8 20.0
373(10) 0.00916 345.8 20.5
372(10) 0.00864 345.7 20.9
380(11) 0.00758 345.7 21.3
359(10) 0.00882 345.7 21.7
370(10) 0.00913 345.6 22.0
376(10) 0.00917 345.6 22.3
358(10) 0.00894 345.5 22.5
356(11) 0.00807 345.5 22.7
342(10) 0.00927 345.5 22.7
368(10) 0.00925 345.4 22.7
368(10) 0.00926 345.4 22.7
369(10) 0.00865 345.3 22.5
358(11) 0.00834 345.3 22.4
403(11) 0.00808 345.3 22.1
376(10) 0.00909 345.2 21.9
373(10) 0.00869 345.2 21.6
358(10) 0.00861 345.1 21.2
364(10) 0.00845 345.1 20.9
360(10) 0.00880 345.1 20.5
359(10) 0.00945 345.0 20.2
348(10) 0.00939 345.0 19.8
373(10) 0.00845 344.9 19.5
326(10) 0.00970 344.9 19.2
358(10) 0.00907 344.9 18.9
371(10) 0.00917 344.8 18.7
355(10) 0.00911 344.8 18.4
343(10) 0.00929 344.7 18.2
354(10) 0.00865 344.7 18.1
371(10) 0.00878 344.7 17.9
369(10) 0.00920 344.6 17.8
346(10) 0.00926 344.6 17.8
350(10) 0.00882 344.5 17.7
360(10) 0.00863 344.5 17.7
364(10) 0.00874 344.5 17.7
370(10) 0.00923 344.4 17.8
364(10) 0.00902 344.4 17.8
340(10) 0.00907 344.3 17.9
345(10) 0.00908 344.3 18.0
368(10) 0.00876 344.2 18.1
374(10) 0.00916 344.2 18.3
351(10) 0.00903 344.2 18.4
382(11) 0.00798 344.1 18.5
374(10) 0.00867 344.1 18.5
339(10) 0.00976 344.0 18.4
349(10) 0.00973 344.0 18.3
351(10) 0.00883 344.0 18.0
362(10) 0.00850 343.9 17.7
349(10) 0.00931 343.9 17.3
349(10) 0.00939 343.8 16.8
378(10) 0.00887 343.8 16.3
368(10) 0.00859 343.8 15.9
340(10) 0.00909 343.7 15.4
359(10) 0.00893 343.7 14.9
329(9) 0.01025 343.6 14.4
330(9) 0.01018 343.6 13.9
336(10) 0.00962 343.6 13.4
368(11) 0.00799 343.5 12.9
371(10) 0.00853 343.5 12.4
358(10) 0.00952 343.4 11.9
366(10) 0.00914 343.4 11.5
317(9) 0.01010 343.4 11.0
339(10) 0.00851 343.3 10.6
345(10) 0.00910 343.3 10.2
359(10) 0.00943 343.2 9.8
360(10) 0.00946 343.2 9.4
353(10) 0.00907 343.2 9.0
354(10) 0.00853 343.1 8.7
367(10) 0.00876 343.1 8.4
392(10) 0.00859 343.0 8.1
333(10) 0.01003 343.0 7.8
376(10) 0.00841 343.0 7.5
372(11) 0.00826 342.9 7.3
340(10) 0.00937 342.9 7.0
328(9) 0.01021 342.8 6.8
355(10) 0.00918 342.8 6.6
372(11) 0.00829 342.8 6.5
353(10) 0.00898 342.7 6.3
365(10) 0.00890 342.7 6.1
369(10) 0.00921 342.6 6.0
338(10) 0.00939 342.6 5.9
344(10) 0.00891 342.6 5.8
361(10) 0.00872 342.5 5.7
340(10) 0.00954 342.5 5.6
336(10) 0.01004 342.4 5.5
359(10) 0.00901 342.4 5.5
361(10) 0.00864 342.4 5.4
342(10) 0.00935 342.3 5.4
325(9) 0.01017 342.3 5.4
345(10) 0.00989 342.2 5.4
341(10) 0.00938 342.2 5.5
347(10) 0.00882 342.2 5.5
352(10) 0.00924 342.1 5.6
354(10) 0.00950 342.1 5.8
357(10) 0.00946 342.0 6.0
356(10) 0.00890 342.0 6.3
373(11) 0.00796 342.0 6.8
357(10) 0.00892 341.9 7.3
339(10) 0.00988 341.9 8.0
362(10) 0.00940 341.8 9.0
344(10) 0.00933 341.8 10.1
393(11) 0.00782 341.8 11.5
367(10) 0.00886 341.7 13.1
339(10) 0.00979 341.7 14.9
375(10) 0.00915 341.6 16.7
355(10) 0.00901 341.6 18.6
372(11) 0.00795 341.6 20.1
349(10) 0.00927 341.5 21.2
352(10) 0.00953 341.5 21.5
390(10) 0.00872 341.4 20.9
360(10) 0.00897 341.4 19.6
352(10) 0.00849 341.4 17.9
327(10) 0.00978 341.3 16.0
366(10) 0.00924 341.3 14.1
329(9) 0.01010 341.2 12.3
368(10) 0.00851 341.2 10.7
349(10) 0.00878 341.2 9.3
346(10) 0.00938 341.1 8.2
356(10) 0.00958 341.1 7.2
326(9) 0.01017 341.0 6.5
340(10) 0.00945 341.0 5.9
328(10) 0.00974 341.0 5.5
343(10) 0.00922 340.9 5.1
342(10) 0.00988 340.9 4.8
372(10) 0.00893 340.8 4.6
352(10) 0.00918 340.8 4.4
344(10) 0.00922 340.8 4.3
345(10) 0.00940 340.7 4.2
333(10) 0.01007 340.7 4.1
351(10) 0.00922 340.6 4.0
349(10) 0.00897 340.6 4.0
347(10) 0.00895 340.6 3.9
367(10) 0.00863 340.5 3.8
357(10) 0.00952 340.5 3.8
328(10) 0.00977 340.4 3.7
340(10) 0.00901 340.4 3.7
355(10) 0.00883 340.4 3.7
371(10) 0.00901 340.3 3.6
344(10) 0.00990 340.3 3.6
347(10) 0.00921 340.2 3.5
320(10) 0.00963 340.2 3.5
348(10) 0.00910 340.2 3.5
356(10) 0.00927 340.1 3.4
361(10) 0.00939 340.1 3.4
332(10) 0.00980 340.0 3.4
355(10) 0.00849 340.0 3.3
337(10) 0.00958 339.9 3.3
356(10) 0.00920 339.9 3.3
348(10) 0.00981 339.9 3.2
376(11) 0.00829 339.8 3.2
360(11) 0.00817 339.8 3.2
356(10) 0.00874 339.7 3.2
331(10) 0.00996 339.7 3.2
347(10) 0.00975 339.7 3.1
362(10) 0.00888 339.6 3.1
355(10) 0.00843 339.6 3.1
348(10) 0.00904 339.5 3.1
321(9) 0.01048 339.5 3.1
336(9) 0.01009 339.5 3.1
353(10) 0.00931 339.4 3.1
348(10) 0.00888 339.4 3.1
375(11) 0.00834 339.3 3.1
375(10) 0.00907 339.3 3.1
343(10) 0.00970 339.3 3.1
361(10) 0.00857 339.2 3.1
349(10) 0.00865 339.2 3.1
338(10) 0.00940 339.1 3.1
325(9) 0.01038 339.1 3.2
326(9) 0.01036 339.1 3.2
358(10) 0.00894 339.0 3.2
368(10) 0.00861 339.0 3.2
346(10) 0.00954 338.9 3.2
352(10) 0.00962 338.9 3.2
346(10) 0.00953 338.9 3.2
334(10) 0.00934 338.8 3.2
335(10) 0.00938 338.8 3.2
345(10) 0.00937 338.7 3.3
352(10) 0.00958 338.7 3.3
341(10) 0.00941 338.7 3.3
325(10) 0.00953 338.6 3.3
344(10) 0.00881 338.6 3.3
340(10) 0.00952 338.7 3.3
355(10) 0.00960 338.7 3.3
359(10) 0.00878 338.7 3.3
332(10) 0.00942 338.7 3.3
325(10) 0.00957 338.7 3.3
356(10) 0.00901 338.7 3.3
353(10) 0.00958 338.7 3.2
341(10) 0.00929 338.7 3.2
375(11) 0.00835 338.7 3.2
337(10) 0.00957 338.8 3.2
364(10) 0.00899 338.8 3.2
353(10) 0.00949 338.8 3.2
354(10) 0.00876 338.8 3.1
337(10) 0.00889 338.8 3.1
323(10) 0.00946 338.8 3.1
339(10) 0.00968 338.8 3.1
327(9) 0.01036 338.8 3.1
350(10) 0.00892 338.9 3.0
372(11) 0.00793 338.9 3.0
349(10) 0.00921 338.9 3.0
341(10) 0.00968 338.9 3.0
304(9) 0.01121 338.9 3.0
341(10) 0.00952 338.9 2.9
356(10) 0.00860 338.9 2.9
362(10) 0.00894 338.9 2.9
337(10) 0.00995 338.9 2.9
349(10) 0.00975 339.0 2.8
356(10) 0.00904 339.0 2.8
354(10) 0.00866 339.0 2.8
336(10) 0.00968 339.0 2.8
354(10) 0.00946 339.0 2.8
333(9) 0.01014 339.0 2.8
339(10) 0.00945 339.0 2.7
322(10) 0.00974 339.0 2.7
341(10) 0.00908 339.0 2.7
344(10) 0.00976 339.1 2.7
361(10) 0.00925 339.1 2.7
338(10) 0.00947 339.1 2.7
334(10) 0.00922 339.1 2.7
339(10) 0.00965 339.1 2.7
366(10) 0.00936 339.1 2.7
344(10) 0.00941 339.1 2.7
359(10) 0.00875 339.1 2.6
322(10) 0.00963 339.1 2.6
348(10) 0.00925 339.2 2.6
327(9) 0.01036 339.2 2.6
325(10) 0.00995 339.2 2.6
323(10) 0.00986 339.2 2.6
338(10) 0.00900 339.2 2.6
340(10) 0.00948 339.2 2.6
325(9) 0.01032 339.2 2.6
370(10) 0.00883 339.2 2.6
343(10) 0.00906 339.3 2.6
343(10) 0.00916 339.3 2.6
341(10) 0.00951 339.3 2.6
298(9) 0.01121 339.3 2.6
339(10) 0.00952 339.3 2.6
347(10) 0.00898 339.3 2.6
332(10) 0.00964 339.3 2.6
365(10) 0.00881 339.3 2.6
364(10) 0.00928 339.3 2.6
355(10) 0.00871 339.4 2.6
353(10) 0.00858 339.4 2.6
333(10) 0.00945 339.4 2.6
348(10) 0.00956 339.4 2.6
326(9) 0.01031 339.4 2.7
330(10) 0.00984 339.4 2.7
340(10) 0.00917 339.4 2.7
362(10) 0.00887 339.4 2.7
352(10) 0.00962 339.4 2.7
327(9) 0.01017 339.5 2.8
344(10) 0.00902 339.5 2.8
324(10) 0.00933 339.5 2.8
340(10) 0.00946 339.5 2.8
329(9) 0.01028 339.5 2.9
341(10) 0.00991 339.5 2.9
352(10) 0.00896 339.5 2.9
339(10) 0.00888 339.5 3.0
352(10) 0.00916 339.6 3.0
346(10) 0.00991 339.6 3.1
365(10) 0.00916 339.6 3.1
376(10) 0.00846 339.6 3.2
359(11) 0.00835 339.6 3.3
347(10) 0.00934 339.6 3.3
342(10) 0.00989 339.6 3.4
346(10) 0.00952 339.6 3.5
327(10) 0.00982 339.6 3.6
344(10) 0.00892 339.7 3.6
336(10) 0.00985 339.7 3.7
329(9) 0.01031 339.7 3.8
347(10) 0.00954 339.7 3.9
345(10) 0.00912 339.7 4.0
360(11) 0.00832 339.7 4.2
358(10) 0.00876 339.7 4.3
355(10) 0.00953 339.7 4.4
356(10) 0.00938 339.7 4.6
344(10) 0.00892 339.8 4.7
333(10) 0.00934 339.8 4.9
336(10) 0.00964 339.8 5.0
344(10) 0.00989 339.8 5.2
352(10) 0.00949 339.8 5.4
332(10) 0.00981 339.8 5.6
344(10) 0.00891 339.8 5.9
360(10) 0.00897 339.8 6.1
359(10) 0.00940 339.8 6.3
364(10) 0.00891 339.9 6.6
349(10) 0.00916 339.9 6.9
354(10) 0.00908 339.9 7.1
349(10) 0.00949 339.9 7.5
363(10) 0.00940 339.9 7.8
335(10) 0.00920 339.9 8.1
368(11) 0.00838 339.9 8.5
342(10) 0.00934 339.9 8.9
334(10) 0.00995 340.0 9.3
375(10) 0.00909 340.0 9.7
373(10) 0.00863 340.0 10.2
376(11) 0.00813 340.0 10.7
378(10) 0.00854 340.0 11.2
343(10) 0.00984 340.0 11.8
321(9) 0.01045 340.0 12.4
365(10) 0.00869 340.0 13.1
362(11) 0.00838 340.0 13.8
347(10) 0.00924 340.1 14.6
368(10) 0.00918 340.1 15.4
367(10) 0.00927 340.1 16.3
375(10) 0.00865 340.1 17.2
376(11) 0.00812 340.1 18.3
364(10) 0.00888 340.1 19.4
347(10) 0.00970 340.1 20.6
385(10) 0.00896 340.1 21.9
373(10) 0.00889 340.1 23.2
366(10) 0.00853 340.2 24.7
364(10) 0.00895 340.2 26.2
360(10) 0.00944 340.2 27.9
382(10) 0.00888 340.2 29.5
371(10) 0.00875 340.2 31.3
368(11) 0.00831 340.2 33.0
354(10) 0.00902 340.2 34.7
374(10) 0.00915 340.2 36.3
401(11) 0.00817 340.3 37.7
379(10) 0.00848 340.3 39.0
405(11) 0.00768 340.3 40.0
383(11) 0.00833 340.3 40.7
397(10) 0.00849 340.3 41.0
382(10) 0.00886 340.3 41.0
390(11) 0.00819 340.3 40.7
400(11) 0.00774 340.3 40.1
363(10) 0.00897 340.3 39.2
383(10) 0.00890 340.4 38.1
387(10) 0.00859 340.4 36.9
404(11) 0.00780 340.4 35.6
389(11) 0.00806 340.4 34.3
375(10) 0.00878 340.4 33.0
380(10) 0.00901 340.4 31.7
374(10) 0.00845 340.4 30.4
368(11) 0.00837 340.4 29.2
357(10) 0.00884 340.4 28.0
354(10) 0.00914 340.5 26.9
370(10) 0.00928 340.5 25.7
355(10) 0.00901 340.5 24.7
335(10) 0.00923 340.5 23.6
364(10) 0.00856 340.5 22.6
379(10) 0.00865 340.5 21.5
322(9) 0.01042 340.5 20.6
349(10) 0.00904 340.5 19.6
357(10) 0.00886 340.5 18.7
360(10) 0.00890 340.6 17.8
333(10) 0.00994 340.6 16.9
331(9) 0.01014 340.6 16.1
331(10) 0.00934 340.6 15.3
363(11) 0.00814 340.6 14.6
331(10) 0.00982 340.6 13.9
356(10) 0.00957 340.6 13.2
369(10) 0.00903 340.6 12.6
343(10) 0.00911 340.7 12.0
351(11) 0.00835 340.7 11.5
350(10) 0.00908 340.7 11.0
342(10) 0.00970 340.7 10.5
319(9) 0.01054 340.7 10.1
349(10) 0.00935 340.7 9.7
339(10) 0.00892 340.7 9.4
358(10) 0.00881 340.7 9.1
333(9) 0.01008 340.7 8.8
336(10) 0.00989 340.8 8.5
352(10) 0.00893 340.8 8.3
336(10) 0.00886 340.8 8.1
325(10) 0.00962 340.8 7.9
355(10) 0.00964 340.8 7.8
338(10) 0.00955 340.8 7.7
330(10) 0.00948 340.8 7.6
356(10) 0.00854 340.8 7.5
355(10) 0.00910 340.8 7.4
362(10) 0.00946 340.9 7.4
330(10) 0.00993 340.9 7.4
313(9) 0.01018 340.9 7.4
331(10) 0.00938 340.9 7.4
358(10) 0.00881 340.9 7.4
349(10) 0.00965 340.9 7.5
338(10) 0.00970 340.9 7.5
339(10) 0.00952 340.9 7.6
353(10) 0.00870 341.0 7.7
367(10) 0.00872 341.0 7.8
342(10) 0.00994 341.0 7.9
356(10) 0.00910 341.0 8.1
370(10) 0.00842 341.0 8.2
364(10) 0.00840 341.0 8.4
342(10) 0.00929 341.0 8.5
325(9) 0.01035 341.0 8.7
361(10) 0.00907 341.0 8.9
358(10) 0.00906 341.1 9.1
352(10) 0.00919 341.1 9.4
356(10) 0.00916 341.1 9.6
352(10) 0.00964 341.1 9.8
325(10) 0.00978 341.1 10.1
328(10) 0.00922 341.1 10.4
345(10) 0.00916 341.1 10.8
330(9) 0.01018 341.1 11.2
367(10) 0.00926 341.1 11.7
366(10) 0.00859 341.2 12.3
336(10) 0.00889 341.2 13.2
338(10) 0.00958 341.2 14.3
344(10) 0.00982 341.2 15.7
342(10) 0.00987 341.2 17.5
336(10) 0.00954 341.2 19.5
361(10) 0.00840 341.2 21.7
341(10) 0.00945 341.2 23.9
376(10) 0.00901 341.3 25.6
374(10) 0.00914 341.3 26.6
402(11) 0.00794 341.3 26.4
372(11) 0.00819 341.3 25.1
369(10) 0.00847 341.3 23.2
347(10) 0.00954 341.3 21.0
345(10) 0.00967 341.3 18.8
338(10) 0.00963 341.3 16.9
342(10) 0.00878 341.3 15.3
357(10) 0.00866 341.4 14.0
345(10) 0.00985 341.4 13.1
359(10) 0.00925 341.4 12.3
363(10) 0.00899 341.4 11.8
375(11) 0.00820 341.4 11.4
348(10) 0.00927 341.4 11.1
341(10) 0.00990 341.4 10.9
354(10) 0.00943 341.4 10.7
350(10) 0.00918 341.4 10.6
343(10) 0.00897 341.5 10.4
320(10) 0.00991 341.5 10.3
338(10) 0.00997 341.5 10.2
338(10) 0.00975 341.5 10.2
362(10) 0.00845 341.5 10.1
346(10) 0.00899 341.5 10.0
360(10) 0.00888 341.5 10.0
352(10) 0.00967 341.5 10.0
347(10) 0.00930 341.5 9.9
347(10) 0.00906 341.6 9.9
342(10) 0.00921 341.6 9.9
340(10) 0.00940 341.6 9.9
363(10) 0.00943 341.6 9.9
362(10) 0.00867 341.6 9.9
330(10) 0.00971 341.6 9.9
372(10) 0.00858 341.6 9.9
337(10) 0.00985 341.6 9.9
342(10) 0.00991 341.7 9.9
321(10) 0.00990 341.7 10.0
339(10) 0.00899 341.7 10.0
353(10) 0.00907 341.7 10.0
343(10) 0.00959 341.7 10.0
364(10) 0.00941 341.7 10.0
348(10) 0.00920 341.7 10.1
350(10) 0.00888 341.7 10.2
318(9) 0.01021 341.7 10.2
332(9) 0.01010 341.8 10.3
322(9) 0.01044 341.8 10.4
343(10) 0.00909 341.8 10.5
349(10) 0.00866 341.8 10.6
351(10) 0.00901 341.8 10.8
342(10) 0.00982 341.8 10.9
369(10) 0.00923 341.8 11.0
363(10) 0.00894 341.8 11.2
370(11) 0.00821 341.8 11.4
382(11) 0.00830 341.9 11.5
359(10) 0.00928 341.9 11.7
376(10) 0.00902 341.9 11.9
363(10) 0.00886 341.9 12.1
378(11) 0.00776 341.9 12.3
346(10) 0.00912 341.9 12.5
363(10) 0.00924 341.9 12.8
365(10) 0.00921 341.9 13.1
371(10) 0.00859 342.0 13.6
358(10) 0.00840 342.0 14.2
358(10) 0.00895 342.0 15.1
334(9) 0.01019 342.0 16.3
364(10) 0.00910 342.0 18.0
363(10) 0.00917 342.0 19.9
387(11) 0.00787 342.0 21.7
376(10) 0.00841 342.0 23.0
370(10) 0.00915 342.0 23.3
364(10) 0.00922 342.1 22.6
365(10) 0.00892 342.1 21.1
367(10) 0.00875 342.1 19.5
378(11) 0.00837 342.1 18.1
368(10) 0.00923 342.1 17.1
353(10) 0.00928 342.1 16.4
339(10) 0.00954 342.1 16.0
335(10) 0.00969 342.1 15.9
346(10) 0.00923 342.1 15.8
348(10) 0.00982 342.2 15.7
347(10) 0.00951 342.2 15.6
343(10) 0.00923 342.2 15.5
334(10) 0.00930 342.2 15.3
331(10) 0.00991 342.2 15.1
343(10) 0.00982 342.2 14.8
369(10) 0.00871 342.2 14.6
362(10) 0.00849 342.2 14.3
353(10) 0.00932 342.2 14.0
365(10) 0.00926 342.3 13.7
329(9) 0.01018 342.3 13.5
353(10) 0.00931 342.3 13.2
371(10) 0.00841 342.3 13.0
346(10) 0.00938 342.3 12.7
354(10) 0.00938 342.3 12.5
364(10) 0.00925 342.3 12.3
341(10) 0.00914 342.3 12.1
347(10) 0.00865 342.4 12.0
355(10) 0.00887 342.4 11.8
355(10) 0.00954 342.4 11.7
401(10) 0.00863 342.4 11.6
369(10) 0.00874 342.4 11.6
341(10) 0.00870 342.4 11.5
355(10) 0.00894 342.4 11.5
354(10) 0.00960 342.4 11.6
342(10) 0.00967 342.4 11.6
353(10) 0.00903 342.5 11.7
338(10) 0.00899 342.5 11.8
348(10) 0.00914 342.5 12.0
355(10) 0.00951 342.5 12.2
325(9) 0.01029 342.5 12.4
356(10) 0.00897 342.5 12.6
367(10) 0.00843 342.5 12.9
340(10) 0.00962 342.5 13.1
347(10) 0.00987 342.5 13.2
352(10) 0.00940 342.6 13.3
367(10) 0.00848 342.6 13.3
321(10) 0.00960 342.6 13.3
345(10) 0.00880 342.6 13.2
348(10) 0.00965 342.6 13.0
357(10) 0.00929 342.6 12.8
355(10) 0.00886 342.6 12.6
343(10) 0.00912 342.6 12.4
379(11) 0.00828 342.7 12.2
328(9) 0.01021 342.7 12.0
351(10) 0.00911 342.7 11.9
359(10) 0.00841 342.7 11.8
319(10) 0.01002 342.7 11.8
360(10) 0.00881 342.7 11.9
363(10) 0.00940 342.7 12.2
358(10) 0.00905 342.7 12.7
371(10) 0.00867 342.7 13.5
384(11) 0.00828 342.8 14.8
361(10) 0.00913 342.8 16.6
342(10) 0.00990 342.8 19.2
395(11) 0.00802 342.8 22.7
368(11) 0.00834 342.8 27.3
360(10) 0.00876 342.8 33.1
396(11) 0.00836 342.8 40.0
420(11) 0.00808 342.8 47.7
383(10) 0.00851 342.8 55.6
423(12) 0.00696 342.9 62.8
405(11) 0.00804 342.9 67.7
417(11) 0.00814 342.9 69.1
370(10) 0.00916 342.9 66.5
366(10) 0.00897 342.9 60.7
385(11) 0.00792 342.9 53.2
398(11) 0.00814 342.9 45.4
415(11) 0.00820 342.9 38.2
375(10) 0.00903 343.0 32.1
339(10) 0.00936 343.0 27.3
337(10) 0.00915 343.0 24.0
388(11) 0.00825 343.0 22.1
378(10) 0.00890 343.0 21.4
370(10) 0.00904 343.0 21.9
371(10) 0.00850 343.0 23.2
377(11) 0.00785 343.0 25.0
370(10) 0.00856 343.0 26.7
371(10) 0.00932 343.1 27.8
398(10) 0.00847 343.1 27.7
395(11) 0.00810 343.1 26.3
343(10) 0.00891 343.1 23.8
357(10) 0.00886 343.1 20.9
354(10) 0.00963 343.1 18.0
333(10) 0.00977 343.1 15.3
334(10) 0.00965 343.1 13.1
358(10) 0.00865 343.1 11.3
357(10) 0.00851 343.2 10.0
352(10) 0.00943 343.2 9.0
352(10) 0.00943 343.2 8.3
342(10) 0.00934 343.2 7.7
340(10) 0.00913 343.2 7.3
352(10) 0.00881 343.2 7.1
355(10) 0.00964 343.2 6.8
339(10) 0.00961 343.2 6.6
324(10) 0.00932 343.2 6.5
347(10) 0.00866 343.3 6.3
347(10) 0.00913 343.3 6.2
369(10) 0.00920 343.3 6.1
307(9) 0.01047 343.3 6.0
330(10) 0.00910 343.3 5.9
345(10) 0.00887 343.3 5.7
335(10) 0.00981 343.3 5.6
332(9) 0.01021 343.3 5.5
362(10) 0.00891 343.4 5.4
305(9) 0.01018 343.4 5.3
315(10) 0.01004 343.4 5.2
349(10) 0.00934 343.4 5.1
356(10) 0.00956 343.4 5.0
342(10) 0.00918 343.4 4.8
332(10) 0.00893 343.4 4.7
334(10) 0.00954 343.4 4.6
340(10) 0.00981 343.4 4.5
362(10) 0.00940 343.4 4.4
383(11) 0.00813 343.4 4.3
346(10) 0.00879 343.4 4.2
330(10) 0.00974 343.4 4.1
364(10) . . .
315(9) . . .
352(10) . . .
337(10) . . .
338(10) . . .
337(10) . . .
348(10) . . .
333(10) . . .
373(11) . . .
345(10) . . .
337(9) . . .
329(9) . . .
338(10) . . .
328(10) . . .
326(10) . . .
329(9) . . .
333(9) . . .
320(10) . . .
333(10) . . .
353(10) . . .
332(9) . . .
323(10) . . .
341(10) . . .
333(10) . . .
341(10) . . .
347(10) . . .
360(10) . . .
338(10) . . .
355(10) . . .
352(10) . . .
354(10) . . .
334(10) . . .
340(10) . . .
355(10) . . .
353(10) . . .
352(10) . . .
338(10) . . .
344(10) . . .
355(10) . . .
320(9) . . .
343(10) . . .
351(10) . . .
359(10) . . .
378(11) . . .
343(10) . . .
346(10) . . .
325(10) . . .
348(10) . . .
342(10) . . .
318(9) . . .
321(9) . . .
332(10) . . .
333(10) . . .
335(10) . . .
344(10) . . .
357(10) . . .
323(9) . . .
346(10) . . .
327(10) . . .
329(9) . . .
331(10) . . .
314(10) . . .
322(10) . . .
347(10) . . .
370(10) . . .
325(9) . . .
363(10) . . .
371(11) . . .
349(10) . . .
334(9) . . .
331(10) . . .
312(9) . . .
338(10) . . .
331(10) . . .
346(10) . . .
345(10) . . .
350(10) . . .
344(10) . . .
339(10) . . .
349(10) . . .
318(10) . . .
336(10) . . .
339(10) . . .
355(10) . . .
341(10) . . .
347(10) . . .
338(10) . . .
368(10) . . .
338(10) . . .
351(10) . . .
365(10) . . .
339(10) . . .
373(10) . . .
369(10) . . .
346(10) . . .
333(10) . . .
343(10) . . .
342(10) . . .
348(10) . . .
344(10) . . .
307(9) . . .
361(11) . . .
368(10) . . .
337(9) . . .
347(10) . . .
352(10) . . .
363(11) . . .
317(10) . . .
333(10) . . .
345(10) . . .
338(10) . . .
348(11) . . .
343(10) . . .
343(10) . . .
317(9) . . .
338(10) . . .
368(11) . . .
353(10) . . .
362(10) . . .
362(10) . . .
345(10) . . .
369(11) . . .
362(10) . . .
359(10) . . .
372(10) . . .
351(10) . . .
351(10) . . .
352(10) . . .
353(10) . . .
346(10) . . .
377(11) . . .
379(10) . . .
383(10) . . .
347(10) . . .
395(11) . . .
376(10) . . .
361(10) . . .
342(10) . . .
358(10) . . .
375(10) . . .
361(10) . . .
348(10) . . .
375(10) . . .
367(10) . . .
379(11) . . .
382(11) . . .
363(10) . . .
370(10) . . .
363(10) . . .
341(10) . . .
339(10) . . .
375(10) . . .
379(10) . . .
330(9) . . .
338(10) . . .
346(10) . . .
328(10) . . .
344(10) . . .
323(9) . . .
357(10) . . .
356(10) . . .
357(10) . . .
354(10) . . .
360(10) . . .
352(10) . . .
343(10) . . .
361(10) . . .
360(10) . . .
336(10) . . .
341(10) . . .
344(10) . . .
346(10) . . .
383(10) . . .
357(10) . . .
342(10) . . .
358(11) . . .
334(10) . . .
342(10) . . .
317(9) . . .
333(10) . . .
343(10) . . .
322(10) . . .
363(10) . . .
321(10) . . .
311(10) . . .
320(10) . . .
349(10) . . .
340(10) . . .
334(10) . . .
333(10) . . .
359(10) . . .
363(10) . . .
337(10) . . .
340(10) . . .
336(10) . . .
330(10) . . .
354(10) . . .
351(10) . . .
340(10) . . .
303(10) . . .
332(10) . . .
316(9) . . .
316(9) . . .
308(9) . . .
327(10) . . .
318(10) . . .
336(9) . . .
358(10) . . .
328(10) . . .
326(10) . . .
357(10) . . .
350(10) . . .
352(10) . . .
329(10) . . .
342(10) . . .
348(10) . . .
355(10) . . .
365(10) . . .
367(10) . . .
358(10) . . .
344(10) . . .
344(10) . . .
338(10) . . .
346(10) . . .
375(11) . . .
332(10) . . .
338(10) . . .
355(10) . . .
344(10) . . .
318(10) . . .
335(10) . . .
337(10) . . .
352(10) . . .
352(10) . . .
352(10) . . .
367(10) . . .
337(9) . . .
322(10) . . .
340(10) . . .
365(10) . . .
357(10) . . .
334(9) . . .
339(10) . . .
333(10) . . .
334(10) . . .
337(10) . . .
317(9) . . .
341(10) . . .
340(10) . . .
339(10) . . .
345(10) . . .
340(10) . . .
333(10) . . .
359(11) . . .
354(10) . . .
346(10) . . .
359(10) . . .
337(10) . . .
351(10) . . .
393(11) . . .
365(10) . . .
388(10) . . .
347(10) . . .
379(11) . . .
355(10) . . .
371(10) . . .
409(11) . . .
407(11) . . .
408(11) . . .
437(11) . . .
413(11) . . .
406(10) . . .
428(11) . . .
434(12) . . .
435(11) . . .
413(10) . . .
411(11) . . .
389(11) . . .
385(11) . . .
413(11) . . .
421(11) . . .
390(10) . . .
360(10) . . .
359(10) . . .
358(10) . . .
368(10) . . .
383(11) . . .
357(10) . . .
379(11) . . .
350(10) . . .
347(10) . . .
332(10) . . .
336(10) . . .
308(9) . . .
342(10) . . .
367(10) . . .
363(10) . . .
342(10) . . .
340(10) . . .
340(10) . . .
335(9) . . .
342(10) . . .
310(10) . . .
355(10) . . .
334(9) . . .
337(10) . . .
312(9) . . .
334(10) . . .
323(10) . . .
323(9) . . .
321(9) . . .
332(10) . . .
306(10) . . .
331(10) . . .
349(10) . . .
336(10) . . .
323(9) . . .
325(10) . . .
340(10) . . .
313(9) . . .
316(9) . . .
339(10) . . .
352(10) . . .
325(10) . . .
350(10) . . .
320(9) . . .
327(10) . . .
337(10) . . .
332(10) . . .
340(10) . . .
326(9) . . .
317(10) . . .
307(9) . . .
311(9) . . .
311(9) . . .
330(10) . . .
340(10) . . .
332(10) . . .
311(9) . . .
339(10) . . .
330(10) . . .
358(10) . . .
340(10) . . .
325(9) . . .
345(10) . . .
335(10) . . .
330(10) . . .
342(10) . . .
326(10) . . .
349(10) . . .
367(10) . . .
331(10) . . .
320(9) . . .
319(9) . . .
349(10) . . .
339(10) . . .
340(10) . . .
344(10) . . .
312(9) . . .
310(9) . . .
343(10) . . .
341(10) . . .
315(9) . . .
334(10) . . .
303(9) . . .
300(9) . . .
340(10) . . .
339(10) . . .
302(9) . . .
347(10) . . .
325(10) . . .
320(10) . . .
315(9) . . .
344(10) . . .
338(10) . . .
314(9) . . .
313(10) . . .
336(10) . . .
323(9) . . .
330(10) . . .
336(10) . . .
340(10) . . .
322(10) . . .
344(10) . . .
321(9) . . .
320(10) . . .
308(10) . . .
291(9) . . .
308(9) . . .
319(9) . . .
309(10) . . .
312(10) . . .
300(9) . . .
322(9) . . .
333(10) . . .
323(10) . . .
343(10) . . .
374(10) . . .
320(9) . . .
303(9) . . .
330(10) . . .
319(9) . . .
311(9) . . .
330(9) . . .
321(10) . . .
307(10) . . .
280(9) . . .
311(9) . . .
323(9) . . .
300(9) . . .
346(11) . . .
305(9) . . .
304(9) . . .
308(9) . . .
347(10) . . .
329(10) . . .
330(10) . . .
306(9) . . .
285(9) . . .
314(10) . . .
306(10) . . .
304(10) . . .
314(9) . . .
306(9) . . .
319(9) . . .
320(10) . . .
312(9) . . .
293(9) . . .
295(9) . . .
318(10) . . .
318(10) . . .
313(10) . . .
321(9) . . .
335(10) . . .
313(10) . . .
299(9) . . .
347(10) . . .
315(9) . . .
342(10) . . .
347(10) . . .
310(9) . . .
303(9) . . .
332(9) . . .
325(10) . . .
381(11) . . .
345(10) . . .
350(10) . . .
344(10) . . .
360(10) . . .
345(10) . . .
354(10) . . .
339(10) . . .
347(10) . . .
329(10) . . .
317(10) . . .
333(10) . . .
344(10) . . .
367(10) . . .
357(10) . . .
367(11) . . .
369(10) . . .
349(10) . . .
376(10) . . .
371(10) . . .
335(10) . . .
362(10) . . .
362(10) . . .
367(10) . . .
380(10) . . .
370(10) . . .
386(11) . . .
362(10) . . .
376(10) . . .
383(11) . . .
377(11) . . .
401(11) . . .
372(10) . . .
377(10) . . .
360(10) . . .
362(10) . . .
371(10) . . .
343(10) . . .
373(10) . . .
357(10) . . .
316(10) . . .
337(10) . . .
326(9) . . .
338(10) . . .
327(10) . . .
325(10) . . .
322(9) . . .
337(10) . . .
328(10) . . .
334(10) . . .
342(10) . . .
309(9) . . .
302(9) . . .
324(10) . . .
318(10) . . .
308(9) . . .
327(9) . . .
319(9) . . .
307(9) . . .
301(10) . . .
308(9) . . .
323(9) . . .
298(9) . . .
280(9) . . .
321(10) . . .
309(9) . . .
325(9) . . .
322(9) . . .
327(10) . . .
284(9) . . .
278(9) . . .
313(9) . . .
321(9) . . .
313(10) . . .
321(10) . . .
311(10) . . .
304(9) . . .
308(9) . . .
325(10) . . .
310(10) . . .
287(9) . . .
313(9) . . .
316(9) . . .
307(9) . . .
326(10) . . .
293(9) . . .
295(9) . . .
322(9) . . .
321(10) . . .
311(10) . . .
329(10) . . .
278(9) . . .
307(9) . . .
286(9) . . .
296(9) . . .
308(10) . . .
290(9) . . .
291(9) . . .
288(9) . . .
282(9) . . .
276(9) . . .
296(9) . . .
311(10) . . .
300(10) . . .
297(9) . . .
306(9) . . .
289(9) . . .
314(10) . . .
306(10) . . .
295(9) . . .
294(9) . . .
288(9) . . .
293(9) . . .
295(10) . . .
303(9) . . .
300(9) . . .
341(10) . . .
310(9) . . .
298(10) . . .
305(9) . . .
336(10) . . .
335(10) . . .
307(10) . . .
309(10) . . .
305(9) . . .
297(9) . . .
301(9) . . .
295(9) . . .
340(10) . . .
295(9) . . .
291(9) . . .
322(10) . . .
342(10) . . .
332(10) . . .
309(10) . . .
323(9) . . .
301(9) . . .
289(9) . . .
328(10) . . .
329(10) . . .
303(9) . . .
324(10) . . .
359(10) . . .
318(10) . . .
285(9) . . .
295(9) . . .
288(9) . . .
338(10) . . .
301(9) . . .
296(9) . . .
330(9) . . .
320(10) . . .
303(9) . . .
314(9) . . .
325(9) . . .
310(9) . . .
329(10) . . .
304(9) . . .
297(9) . . .
302(9) . . .
310(9) . . .
296(9) . . .
316(10) . . .
308(9) . . .
303(9) . . .
277(9) . . .
290(9) . . .
287(9) . . .
307(10) . . .
300(9) . . .
307(9) . . .
311(10) . . .
303(10) . . .
302(9) . . .
285(9) . . .
297(9) . . .
338(10) . . .
282(9) . . .
296(9) . . .
301(9) . . .
294(9) . . .
295(9) . . .
270(9) . . .
282(9) . . .
286(9) . . .
282(9) . . .
315(10) . . .
284(9) . . .
305(10) . . .
287(9) . . .
317(10) . . .
297(9) . . .
290(9) . . .
302(9) . . .
327(9) . . .
301(9) . . .
280(9) . . .
295(9) . . .
290(9) . . .
281(9) . . .
308(9) . . .
308(10) . . .
324(10) . . .
340(10) . . .
338(10) . . .
306(9) . . .
300(10) . . .
313(10) . . .
342(10) . . .
345(10) . . .
329(10) . . .
331(10) . . .
346(10) . . .
348(10) . . .
294(9) . . .
333(10) . . .
303(10) . . .
318(10) . . .
314(9) . . .
315(9) . . .
288(9) . . .
293(9) . . .
330(10) . . .
310(9) . . .
280(9) . . .
294(9) . . .
321(10) . . .
285(9) . . .
322(9) . . .
303(9) . . .
277(9) . . .
287(9) . . .
304(10) . . .
325(9) . . .
308(9) . . .
316(10) . . .
330(10) . . .
332(10) . . .
324(9) . . .
346(10) . . .
309(9) . . .
330(10) . . .
329(10) . . .
335(10) . . .
358(10) . . .
334(10) . . .
314(9) . . .
318(9) . . .
322(9) . . .
323(10) . . .
317(10) . . .
297(9) . . .
321(9) . . .
331(9) . . .
318(10) . . .
297(9) . . .
313(10) . . .
305(9) . . .
292(9) . . .
299(9) . . .
276(9) . . .
301(9) . . .
292(9) . . .
287(9) . . .
284(9) . . .
271(9) . . .
282(9) . . .
293(9) . . .
298(9) . . .
318(10) . . .
298(10) . . .
280(9) . . .
290(9) . . .
285(9) . . .
281(9) . . .
272(9) . . .
281(9) . . .
289(9) . . .
294(9) . . .
268(9) . . .
285(9) . . .
295(9) . . .
283(9) . . .
274(9) . . .
285(9) . . .
314(10) . . .
300(9) . . .
292(9) . . .
283(9) . . .
290(9) . . .
315(10) . . .
284(9) . . .
292(9) . . .
298(9) . . .
273(9) . . .
287(9) . . .
285(9) . . .
284(9) . . .
275(9) . . .
286(9) . . .
268(9) . . .
284(9) . . .
297(9) . . .
284(9) . . .
279(9) . . .
285(9) . . .
285(9) . . .
288(9) . . .
304(9) . . .
294(9) . . .
301(9) . . .
259(8) . . .
278(9) . . .
269(9) . . .
277(9) . . .
269(9) . . .
283(9) . . .
300(9) . . .
300(9) . . .
292(9) . . .
281(9) . . .
279(9) . . .
277(9) . . .
279(9) . . .
291(9) . . .
278(9) . . .
287(9) . . .
270(9) . . .
276(9) . . .
275(9) . . .
292(9) . . .
288(9) . . .
281(9) . . .
269(9) . . .
275(9) . . .
280(9) . . .
275(9) . . .
300(9) . . .
311(10) . . .
276(9) . . .
282(9) . . .
280(9) . . .
300(9) . . .
279(9) . . .
288(9) . . .
273(9) . . .
312(9) . . .
288(9) . . .
263(9) . . .
288(9) . . .
310(9) . . .
290(9) . . .
304(9) . . .
299(9) . . .
290(9) . . .
298(9) . . .
299(9) . . .
302(10) . . .
306(10) . . .
292(9) . . .
319(9) . . .
312(9) . . .
308(9) . . .
316(10) . . .
310(9) . . .
304(9) . . .
313(9) . . .
292(9) . . .
305(10) . . .
304(9) . . .
320(9) . . .
338(10) . . .
325(10) . . .
329(10) . . .
314(10) . . .
290(9) . . .
308(9) . . .
311(10) . . .
301(9) . . .
332(10) . . .
281(9) . . .
337(10) . . .
310(9) . . .
305(10) . . .
312(10) . . .
280(9) . . .
283(9) . . .
300(9) . . .
308(10) . . .
299(9) . . .
302(9) . . .
293(9) . . .
313(10) . . .
307(9) . . .
301(9) . . .
317(9) . . .
313(9) . . .
288(9) . . .
313(10) . . .
310(9) . . .
324(9) . . .
312(9) . . .
310(10) . . .
293(9) . . .
326(10) . . .
307(9) . . .
310(10) . . .
322(10) . . .
297(9) . . .
309(9) . . .
311(9) . . .
302(9) . . .
320(10) . . .
315(10) . . .
306(9) . . .
326(9) . . .
313(9) . . .
313(10) . . .
297(9) . . .
305(9) . . .
290(9) . . .
284(9) . . .
299(10) . . .
325(10) . . .
309(9) . . .
283(9) . . .
316(10) . . .
303(10) . . .
292(9) . . .
308(9) . . .
306(9) . . .
283(9) . . .
283(9) . . .
262(9) . . .
288(9) . . .
280(9) . . .
293(9) . . .
273(9) . . .
293(9) . . .
281(9) . . .
278(9) . . .
263(9) . . .
280(9) . . .
276(9) . . .
262(8) . . .
258(9) . . .
278(9) . . .
285(9) . . .
277(9) . . .
274(9) . . .
297(9) . . .
264(9) . . .
268(9) . . .
277(9) . . .
266(9) . . .
290(9) . . .
280(9) . . .
281(9) . . .
288(9) . . .
280(9) . . .
279(9) . . .
266(9) . . .
272(9) . . .
279(9) . . .
285(9) . . .
277(9) . . .
277(9) . . .
264(9) . . .
260(8) . . .
267(8) . . .
272(9) . . .
258(9) . . .
268(9) . . .
259(8) . . .
261(8) . . .
274(9) . . .
267(9) . . .
267(9) . . .
252(8) . . .
260(8) . . .
259(8) . . .
257(9) . . .
263(9) . . .
270(9) . . .
252(8) . . .
261(9) . . .
263(9) . . .
251(8) . . .
251(8) . . .
243(8) . . .
260(9) . . .
259(9) . . .
273(9) . . .
247(8) . . .
270(9) . . .
277(9) . . .
266(9) . . .
270(9) . . .
261(8) . . .
281(9) . . .
248(9) . . .
245(8) . . .
266(9) . . .
289(9) . . .
257(9) . . .
253(9) . . .
266(9) . . .
274(9) . . .
265(8) . . .
257(8) . . .
272(9) . . .
266(9) . . .
241(8) . . .
247(8) . . .
263(9) . . .
270(9) . . .
274(9) . . .
255(8) . . .
261(8) . . .
248(8) . . .
260(9) . . .
254(9) . . .
279(9) . . .
254(8) . . .
231(8) . . .
260(9) . . .
265(9) . . .
253(8) . . .
253(8) . . .
258(9) . . .
285(10) . . .
257(9) . . .
263(8) . . .
254(8) . . .
253(9) . . .
263(9) . . .
259(9) . . .
254(8) . . .
260(9) . . .
248(8) . . .
263(9) . . .
257(9) . . .
248(8) . . .
243(8) . . .
250(9) . . .
274(9) . . .
257(8) . . .
243(8) . . .
251(9) . . .
272(9) . . .
275(9) . . .
249(8) . . .
249(8) . . .
256(9) . . .
259(9) . . .
255(9) . . .
248(8) . . .
296(9) . . .
248(8) . . .
259(9) . . .
245(8) . . .
236(8) . . .
262(8) . . .
240(8) . . .
278(9) . . .
256(8) . . .
260(8) . . .
255(8) . . .
263(9) . . .
263(9) . . .
269(9) . . .
269(8) . . .
291(9) . . .
265(9) . . .
276(9) . . .
264(9) . . .
271(9) . . .
268(9) . . .
259(8) . . .
253(9) . . .
261(9) . . .
275(9) . . .
301(9) . . .
271(9) . . .
266(9) . . .
255(9) . . .
260(8) . . .
275(9) . . .
269(9) . . .
252(9) . . .
243(8) . . .
251(8) . . .
256(9) . . .
245(8) . . .
277(9) . . .
275(9) . . .
274(9) . . .
279(9) . . .
260(9) . . .
259(9) . . .
237(8) . . .
251(8) . . .
234(8) . . .
262(9) . . .
237(8) . . .
262(8) . . .
253(8) . . .
249(8) . . .
248(9) . . .
259(9) . . .
265(8) . . .
243(8) . . .
267(9) . . .
237(8) . . .
268(9) . . .
262(9) . . .
249(8) . . .
253(8) . . .
239(9) . . .
244(8) . . .
248(8) . . .
289(9) . . .
261(9) . . .
251(9) . . .
253(8) . . .
275(9) . . .
248(8) . . .
257(9) . . .
247(9) . . .
255(9) . . .
252(8) . . .
266(9) . . .
265(9) . . .
252(9) . . .
260(9) . . .
238(8) . . .
249(8) . . .
247(9) . . .
247(9) . . .
245(9) . . .
238(8) . . .
251(8) . . .
245(8) . . .
278(9) . . .
255(8) . . .
254(8) . . .
247(8) . . .
257(9) . . .
250(9) . . .
246(8) . . .
243(8) . . .
267(9) . . .
261(9) . . .
252(9) . . .
251(8) . . .
238(8) . . .
224(8) . . .
251(9) . . .
250(9) . . .
246(8) . . .
262(8) . . .
233(8) . . .
221(8) . . .
242(8) . . .
248(8) . . .
249(8) . . .
250(9) . . .
251(9) . . .
244(8) . . .
236(8) . . .
241(8) . . .
271(9) . . .
238(9) . . .
266(9) . . .
281(9) . . .
253(8) . . .
276(9) . . .
275(9) . . .
265(9) . . .
267(8) . . .
275(9) . . .
278(9) . . .
260(9) . . .
262(9) . . .
258(8) . . .
251(8) . . .
246(8) . . .
270(9) . . .
268(9) . . .
268(8) . . .
266(9) . . .
251(9) . . .
254(9) . . .
259(8) . . .
258(8) . . .
250(8) . . .
262(9) . . .
257(8) . . .
280(9) . . .
257(8) . . .
273(9) . . .
241(8) . . .
294(9) . . .
264(9) . . .
245(8) . . .
256(9) . . .
248(8) . . .
277(9) . . .
232(8) . . .
261(8) . . .
259(9) . . .
244(9) . . .
234(8) . . .
262(9) . . .
250(8) . . .
245(8) . . .
230(8) . . .
255(9) . . .
238(8) . . .
226(8) . . .
231(8) . . .
239(9) . . .
245(8) . . .
233(8) . . .
221(8) . . .
241(8) . . .
242(9) . . .
255(9) . . .
264(8) . . .
241(8) . . .
242(8) . . .
218(8) . . .
239(8) . . .
247(8) . . .
234(8) . . .
235(8) . . .
225(8) . . .
239(8) . . .
255(8) . . .
227(8) . . .
247(9) . . .
233(8) . . .
232(8) . . .
232(8) . . .
229(8) . . .
249(9) . . .
234(8) . . .
244(8) . . .
241(8) . . .
250(8) . . .
246(9) . . .
243(9) . . .
241(8) . . .
252(8) . . .
247(8) . . .
264(9) . . .
231(8) . . .
267(8) . . .
258(8) . . .
235(8) . . .
252(9) . . .
229(8) . . .
213(8) . . .
262(8) . . .
222(8) . . .
240(9) . . .
232(8) . . .
238(8) . . .
251(8) . . .
240(8) . . .
237(9) . . .
242(9) . . .
249(8) . . .
234(8) . . .
251(8) . . .
241(9) . . .
228(8) . . .
239(8) . . .
254(8) . . .
251(9) . . .
232(8) . . .
254(9) . . .
220(8) . . .
228(8) . . .
251(8) . . .
228(8) . . .
224(8) . . .
243(8) . . .
246(8) . . .
237(8) . . .
241(8) . . .
254(9) . . .
238(8) . . .
239(8) . . .
230(8) . . .
242(9) . . .
226(8) . . .
219(8) . . .
227(8) . . .
260(9) . . .
253(9) . . .
242(8) . . .
219(8) . . .
223(8) . . .
219(8) . . .
249(9) . . .
229(8) . . .
229(8) . . .
249(8) . . .
225(8) . . .
249(8) . . .
247(8) . . .
243(8) . . .
237(8) . . .
223(8) . . .
231(8) . . .
201(7) . . .
225(8) . . .
231(8) . . .
213(8) . . .
225(8) . . .
227(8) . . .
246(8) . . .
257(9) . . .
232(9) . . .
231(8) . . .
233(8) . . .
232(8) . . .
221(8) . . .
227(8) . . .
245(8) . . .
261(8) . . .
226(8) . . .
204(8) . . .
254(9) . . .
252(9) . . .
250(8) . . .
237(8) . . .
239(8) . . .
243(8) . . .
243(9) . . .
228(8) . . .
258(8) . . .
267(9) . . .
264(9) . . .
267(9) . . .
280(9) . . .
267(9) . . .
239(8) . . .
271(9) . . .
294(9) . . .
313(9) . . .
296(9) . . .
297(10) . . .
280(9) . . .
286(9) . . .
252(8) . . .
270(9) . . .
251(9) . . .
250(9) . . .
280(9) . . .
256(8) . . .
272(9) . . .
249(9) . . .
242(8) . . .
264(8) . . .
256(8) . . .
266(9) . . .
257(9) . . .
253(9) . . .
241(8) . . .
254(8) . . .
247(8) . . .
245(9) . . .
246(8) . . .
276(9) . . .
257(8) . . .
235(8) . . .
274(9) . . .
268(9) . . .
249(8) . . .
266(8) . . .
250(9) . . .
253(9) . . .
252(9) . . .
232(8) . . .
231(8) . . .
247(8) . . .
236(8) . . .
242(8) . . .
259(8) . . .
256(9) . . .
239(8) . . .
247(9) . . .
231(8) . . .
232(8) . . .
263(9) . . .
243(8) . . .
246(8) . . .
261(9) . . .
247(8) . . .
257(9) . . .
256(8) . . .
252(8) . . .
236(8) . . .
246(8) . . .
243(8) . . .
234(8) . . .
234(8) . . .
235(8) . . .
240(8) . . .
227(8) . . .
234(8) . . .
245(8) . . .
226(8) . . .
250(8) . . .
238(8) . . .
226(8) . . .
233(8) . . .
258(8) . . .
245(8) . . .
242(9) . . .
247(9) . . .
238(8) . . .
243(8) . . .
252(8) . . .
246(8) . . .
245(9) . . .
239(8) . . .
256(8) . . .
257(8) . . .
261(9) . . .
265(9) . . .
223(8) . . .
239(8) . . .
263(9) . . .
246(9) . . .
240(9) . . .
260(9) . . .
243(8) . . .
269(9) . . .
253(8) . . .
274(9) . . .
242(8) . . .
255(8) . . .
284(9) . . .
244(9) . . .
250(9) . . .
252(9) . . .
276(9) . . .
273(9) . . .
243(8) . . .
252(9) . . .
232(8) . . .
268(9) . . .
272(9) . . .
241(8) . . .
274(9) . . .
274(9) . . .
264(8) . . .
260(9) . . .
277(9) . . .
243(8) . . .
264(9) . . .
264(8) . . .
245(8) . . .
264(9) . . .
273(9) . . .
251(8) . . .
259(8) . . .
250(8) . . .
251(9) . . .
264(9) . . .
255(8) . . .
252(8) . . .
255(9) . . .
237(8) . . .
251(8) . . .
244(8) . . .
249(8) . . .
260(9) . . .
249(9) . . .
245(9) . . .
253(8) . . .
271(9) . . .
255(8) . . .
270(9) . . .
262(9) . . .
239(8) . . .
257(8) . . .
248(8) . . .
248(8) . . .
233(8) . . .
244(8) . . .
248(8) . . .
265(9) . . .
256(9) . . .
249(8) . . .
239(8) . . .
225(8) . . .
271(9) . . .
243(8) . . .
248(8) . . .
231(8) . . .
243(8) . . .
221(8) . . .
233(8) . . .
245(8) . . .
223(8) . . .
243(9) . . .
250(9) . . .
236(8) . . .
232(8) . . .
231(8) . . .
239(8) . . .
228(8) . . .
221(8) . . .
226(8) . . .
241(8) . . .
255(9) . . .
242(9) . . .
211(8) . . .
234(8) . . .
216(8) . . .
223(8) . . .
246(9) . . .
222(8) . . .
232(8) . . .
215(8) . . .
226(8) . . .
225(8) . . .
258(9) . . .
223(8) . . .
214(8) . . .
237(8) . . .
219(8) . . .
242(8) . . .
243(8) . . .
258(9) . . .
221(8) . . .
235(8) . . .
233(8) . . .
230(8) . . .
239(8) . . .
244(8) . . .
225(8) . . .
229(8) . . .
224(8) . . .
246(8) . . .
226(8) . . .
236(8) . . .
226(8) . . .
216(8) . . .
220(8) . . .
215(8) . . .
226(8) . . .
231(8) . . .
229(8) . . .
243(8) . . .
226(8) . . .
215(8) . . .
223(8) . . .
226(8) . . .
214(8) . . .
208(8) . . .
212(8) . . .
208(8) . . .
213(8) . . .
234(8) . . .
232(9) . . .
215(8) . . .
202(7) . . .
236(8) . . .
229(8) . . .
222(8) . . .
219(8) . . .
215(8) . . .
225(8) . . .
235(8) . . .
218(8) . . .
236(8) . . .
227(8) . . .
244(8) . . .
243(9) . . .
248(9) . . .
229(8) . . .
245(8) . . .
224(8) . . .
222(8) . . .
215(8) . . .
228(8) . . .
228(8) . . .
215(8) . . .
198(7) . . .
225(8) . . .
240(8) . . .
222(8) . . .
220(8) . . .
224(8) . . .
230(8) . . .
242(8) . . .
222(8) . . .
224(8) . . .
207(8) . . .
219(8) . . .
227(8) . . .
239(8) . . .
235(8) . . .
220(8) . . .
230(8) . . .
233(8) . . .
239(8) . . .
227(8) . . .
229(8) . . .
214(8) . . .
226(8) . . .
214(8) . . .
237(8) . . .
225(8) . . .
221(8) . . .
211(7) . . .
244(8) . . .
244(8) . . .
220(8) . . .
226(8) . . .
212(8) . . .
231(8) . . .
224(8) . . .
227(8) . . .
247(8) . . .
237(8) . . .
223(8) . . .
213(8) . . .
213(8) . . .
205(8) . . .
222(8) . . .
215(8) . . .
215(8) . . .
229(8) . . .
238(9) . . .
226(8) . . .
211(8) . . .
217(8) . . .
206(8) . . .
229(8) . . .
203(7) . . .
212(8) . . .
248(9) . . .
236(8) . . .
229(8) . . .
211(8) . . .
236(8) . . .
202(8) . . .
217(8) . . .
219(8) . . .
207(8) . . .
220(8) . . .
252(9) . . .
242(8) . . .
226(8) . . .
213(8) . . .
219(8) . . .
243(8) . . .
229(8) . . .
201(7) . . .
230(8) . . .
248(9) . . .
240(8) . . .
240(8) . . .
215(8) . . .
214(8) . . .
240(8) . . .
244(9) . . .
219(8) . . .
210(8) . . .
231(8) . . .
243(9) . . .
226(8) . . .
218(8) . . .
223(8) . . .
223(8) . . .
217(8) . . .
229(8) . . .
217(8) . . .
241(8) . . .
244(8) . . .
234(8) . . .
238(9) . . .
233(8) . . .
232(8) . . .
246(8) . . .
246(8) . . .
239(9) . . .
203(8) . . .
239(8) . . .
233(8) . . .
244(8) . . .
221(8) . . .
239(8) . . .
213(8) . . .
220(8) . . .
219(8) . . .
257(9) . . .
260(9) . . .
249(8) . . .
231(8) . . .
265(9) . . .
266(9) . . .
233(8) . . .
246(8) . . .
241(9) . . .
224(8) . . .
218(8) . . .
257(8) . . .
229(8) . . .
218(8) . . .
243(9) . . .
221(8) . . .
243(8) . . .
226(8) . . .
218(8) . . .
218(8) . . .
215(8) . . .
205(8) . . .
215(8) . . .
216(8) . . .
227(8) . . .
221(8) . . .
217(8) . . .
235(8) . . .
223(8) . . .
236(9) . . .
244(8) . . .
209(7) . . .
232(8) . . .
226(8) . . .
201(8) . . .
203(8) . . .
216(8) . . .
209(8) . . .
222(8) . . .
229(8) . . .
218(8) . . .
228(8) . . .
218(8) . . .
226(8) . . .
225(8) . . .
210(8) . . .
206(7) . . .
208(8) . . .
227(8) . . .
228(8) . . .
223(8) . . .
237(8) . . .
238(8) . . .
250(8) . . .
240(8) . . .
201(8) . . .
218(8) . . .
239(8) . . .
228(8) . . .
218(8) . . .
206(7) . . .
225(8) . . .
230(8) . . .
219(8) . . .
218(8) . . .
232(8) . . .
236(8) . . .
225(8) . . .
213(8) . . .
223(8) . . .
217(8) . . .
221(8) . . .
230(8) . . .
218(8) . . .
215(8) . . .
223(8) . . .
209(8) . . .
222(8) . . .
222(8) . . .
223(8) . . .
207(8) . . .
206(7) . . .
216(8) . . .
234(9) . . .
209(8) . . .
216(8) . . .
211(8) . . .
230(8) . . .
237(8) . . .
226(8) . . .
204(7) . . .
206(7) . . .
218(8) . . .
199(8) . . .
192(8) . . .
196(7) . . .
208(8) . . .
216(8) . . .
222(8) . . .
224(8) . . .
219(8) . . .
239(8) . . .
214(8) . . .
201(8) . . .
216(8) . . .
228(8) . . .
202(7) . . .
243(9) . . .
200(8) . . .
208(7) . . .
217(8) . . .
227(8) . . .
223(8) . . .
222(8) . . .
219(8) . . .
220(8) . . .
223(8) . . .
198(8) . . .
187(7) . . .
210(8) . . .
212(8) . . .
202(8) . . .
217(8) . . .
207(8) . . .
225(8) . . .
209(8) . . .
208(8) . . .
205(8) . . .
207(8) . . .
230(8) . . .
190(7) . . .
203(7) . . .
228(9) . . .
220(8) . . .
233(8) . . .
237(8) . . .
211(8) . . .
210(8) . . .
211(8) . . .
242(8) . . .
223(8) . . .
196(7) . . .
195(8) . . .
198(8) . . .
217(8) . . .
228(8) . . .
205(8) . . .
239(8) . . .
236(8) . . .
188(7) . . .
224(8) . . .
218(8) . . .
215(8) . . .
221(8) . . .
216(8) . . .
214(8) . . .
215(8) . . .
225(8) . . .
231(8) . . .
194(7) . . .
225(8) . . .
213(8) . . .
225(8) . . .
220(8) . . .
227(8) . . .
217(8) . . .
225(8) . . .
219(8) . . .
215(8) . . .
220(8) . . .
233(8) . . .
242(9) . . .
209(8) . . .
235(8) . . .
253(8) . . .
224(8) . . .
222(8) . . .
243(8) . . .
226(8) . . .
219(8) . . .
249(9) . . .
219(8) . . .
238(8) . . .
216(8) . . .
221(8) . . .
240(8) . . .
225(8) . . .
249(8) . . .
261(8) . . .
243(8) . . .
282(9) . . .
251(9) . . .
257(9) . . .
260(8) . . .
252(8) . . .
238(8) . . .
255(8) . . .
251(8) . . .
227(8) . . .
240(8) . . .
235(8) . . .
241(8) . . .
241(8) . . .
247(8) . . .
251(9) . . .
211(8) . . .
209(8) . . .
217(8) . . .
197(7) . . .
211(8) . . .
232(8) . . .
230(8) . . .
225(8) . . .
205(7) . . .
223(8) . . .
232(8) . . .
223(8) . . .
231(8) . . .
223(8) . . .
204(8) . . .
206(8) . . .
209(8) . . .
198(7) . . .
208(8) . . .
210(8) . . .
217(8) . . .
213(8) . . .
201(7) . . .
210(8) . . .
241(8) . . .
237(9) . . .
206(8) . . .
209(8) . . .
209(8) . . .
215(8) . . .
215(8) . . .
224(8) . . .
205(7) . . .
194(7) . . .
200(8) . . .
213(8) . . .
198(8) . . .
208(7) . . .
214(8) . . .
219(8) . . .
210(8) . . .
201(7) . . .
227(8) . . .
216(8) . . .
210(8) . . .
213(8) . . .
206(8) . . .
196(7) . . .
220(8) . . .
218(8) . . .
210(8) . . .
210(8) . . .
209(8) . . .
217(8) . . .
218(8) . . .
218(8) . . .
233(8) . . .
213(8) . . .
211(8) . . .
216(8) . . .
216(8) . . .
227(8) . . .
201(7) . . .
208(8) . . .
195(8) . . .
198(8) . . .
214(8) . . .
225(8) . . .
208(8) . . .
223(9) . . .
216(8) . . .
221(8) . . .
194(7) . . .
214(8) . . .
217(8) . . .
211(8) . . .
204(7) . . .
196(7) . . .
222(8) . . .
206(8) . . .
219(8) . . .
232(8) . . .
223(8) . . .
201(8) . . .
221(8) . . .
218(8) . . .
215(8) . . .
202(7) . . .
219(8) . . .
200(7) . . .
224(8) . . .
214(8) . . .
199(8) . . .
231(8) . . .
238(8) . . .
241(8) . . .
212(8) . . .
216(8) . . .
205(8) . . .
215(8) . . .
214(8) . . .
207(7) . . .
207(8) . . .
195(7) . . .
242(8) . . .
220(8) . . .
222(8) . . .
195(7) . . .
209(8) . . .
213(8) . . .
197(7) . . .
211(8) . . .
207(8) . . .
205(8) . . .
199(8) . . .
217(8) . . .
204(7) . . .
218(8) . . .
191(8) . . .
194(8) . . .
213(8) . . .
216(8) . . .
215(8) . . .
218(8) . . .
217(8) . . .
228(8) . . .
198(7) . . .
228(8) . . .
199(8) . . .
222(8) . . .
215(8) . . .
211(8) . . .
205(8) . . .
215(8) . . .
197(7) . . .
211(8) . . .
215(8) . . .
217(8) . . .
184(7) . . .
207(8) . . .
198(7) . . .
208(8) . . .
218(8) . . .
216(8) . . .
236(8) . . .
224(8) . . .
201(7) . . .
210(8) . . .
203(8) . . .
203(8) . . .
210(8) . . .
211(8) . . .
209(8) . . .
205(8) . . .
211(8) . . .
214(8) . . .
181(7) . . .
214(8) . . .
219(8) . . .
198(7) . . .
195(7) . . .
209(8) . . .
213(8) . . .
234(8) . . .
225(8) . . .
215(8) . . .
223(8) . . .
214(8) . . .
219(8) . . .
219(8) . . .
216(8) . . .
195(7) . . .
215(8) . . .
232(8) . . .
192(7) . . .
210(8) . . .
219(8) . . .
224(8) . . .
209(8) . . .
201(7) . . .
213(8) . . .
210(8) . . .
215(8) . . .
196(7) . . .
229(8) . . .
232(8) . . .
243(8) . . .
219(8) . . .
238(8) . . .
222(8) . . .
231(8) . . .
258(9) . . .
240(8) . . .
244(8) . . .
241(8) . . .
251(9) . . .
242(9) . . .
243(9) . . .
248(8) . . .
225(8) . . .
236(8) . . .
237(8) . . .
208(8) . . .
235(8) . . .
212(8) . . .
206(8) . . .
212(8) . . .
208(8) . . .
250(8) . . .
230(8) . . .
216(8) . . .
225(8) . . .
217(8) . . .
212(8) . . .
217(8) . . .
198(7) . . .
215(8) . . .
220(8) . . .
233(8) . . .
235(8) . . .
234(8) . . .
209(8) . . .
219(8) . . .
238(8) . . .
205(7) . . .
205(8) . . .
208(8) . . .
198(8) . . .
225(8) . . .
205(7) . . .
196(7) . . .
214(8) . . .
209(8) . . .
223(8) . . .
218(8) . . .
197(7) . . .
226(8) . . .
202(8) . . .
215(8) . . .
203(7) . . .
195(7) . . .
224(8) . . .
203(8) . . .
204(7) . . .
214(8) . . .
208(8) . . .
200(8) . . .
199(7) . . .
220(8) . . .
199(7) . . .
208(8) . . .
221(8) . . .
225(8) . . .
217(8) . . .
216(8) . . .
242(9) . . .
212(8) . . .
217(8) . . .
233(8) . . .
217(8) . . .
198(8) . . .
218(8) . . .
212(8) . . .
219(8) . . .
203(8) . . .
209(8) . . .
219(8) . . .
228(8) . . .
208(8) . . .
216(8) . . .
242(9) . . .
239(8) . . .
221(8) . . .
221(8) . . .
204(8) . . .
222(8) . . .
200(7) . . .
216(8) . . .
242(8) . . .
225(8) . . .
235(9) . . .
224(8) . . .
236(8) . . .
233(8) . . .
238(8) . . .
213(8) . . .
216(8) . . .
220(8) . . .
201(7) . . .
221(8) . . .
219(8) . . .
220(8) . . .
224(8) . . .
207(7) . . .
214(8) . . .
234(8) . . .
217(8) . . .
202(7) . . .
208(8) . . .
238(8) . . .
218(8) . . .
219(8) . . .
231(8) . . .
219(8) . . .
226(8) . . .
229(8) . . .
210(8) . . .
215(8) . . .
237(8) . . .
218(8) . . .
218(8) . . .
231(8) . . .
212(8) . . .
251(9) . . .
236(9) . . .
212(8) . . .
226(8) . . .
237(8) . . .
262(9) . . .
237(9) . . .
241(8) . . .
252(8) . . .
261(8) . . .
204(8) . . .
237(9) . . .
243(8) . . .
237(8) . . .
237(8) . . .
232(8) . . .
239(9) . . .
241(8) . . .
249(8) . . .
237(8) . . .
244(8) . . .
230(8) . . .
236(8) . . .
246(8) . . .
239(8) . . .
216(8) . . .
224(8) . . .
228(8) . . .
226(8) . . .
230(8) . . .
226(8) . . .
220(8) . . .
215(8) . . .
207(7) . . .
200(8) . . .
212(8) . . .
216(8) . . .
218(8) . . .
221(8) . . .
228(8) . . .
227(8) . . .
214(8) . . .
203(7) . . .
220(8) . . .
223(8) . . .
214(8) . . .
201(8) . . .
195(7) . . .
208(7) . . .
220(8) . . .
204(8) . . .
207(8) . . .
202(7) . . .
222(8) . . .
195(7) . . .
195(8) . . .
209(8) . . .
208(8) . . .
218(8) . . .
231(8) . . .
230(8) . . .
215(8) . . .
231(8) . . .
222(8) . . .
212(8) . . .
227(8) . . .
218(8) . . .
214(8) . . .
214(8) . . .
196(8) . . .
196(8) . . .
208(8) . . .
210(8) . . .
206(8) . . .
218(8) . . .
218(8) . . .
233(8) . . .
193(7) . . .
215(8) . . .
214(8) . . .
201(8) . . .
219(8) . . .
222(8) . . .
218(8) . . .
213(8) . . .
206(8) . . .
197(7) . . .
222(8) . . .
199(8) . . .
201(8) . . .
213(8) . . .
231(8) . . .
227(8) . . .
220(8) . . .
219(8) . . .
226(8) . . .
221(8) . . .
208(8) . . .
201(8) . . .
206(8) . . .
206(8) . . .
209(8) . . .
202(7) . . .
206(8) . . .
204(8) . . .
211(8) . . .
223(8) . . .
223(8) . . .
223(8) . . .
216(8) . . .
201(8) . . .
215(8) . . .
200(7) . . .
221(8) . . .
203(8) . . .
202(8) . . .
190(7) . . .
210(8) . . .
206(8) . . .
234(9) . . .
215(8) . . .
200(7) . . .
206(8) . . .
201(8) . . .
201(8) . . .
202(8) . . .
234(8) . . .
211(8) . . .
226(8) . . .
216(8) . . .
217(8) . . .
237(8) . . .
190(7) . . .
225(8) . . .
209(8) . . .
209(8) . . .
202(7) . . .
226(8) . . .
226(8) . . .
214(8) . . .
214(8) . . .
226(8) . . .
223(8) . . .
238(8) . . .
194(7) . . .
215(8) . . .
242(8) . . .
245(8) . . .
255(9) . . .
240(8) . . .
254(8) . . .
252(8) . . .
253(9) . . .
268(9) . . .
245(9) . . .
245(8) . . .
259(8) . . .
246(8) . . .
244(9) . . .
223(8) . . .
243(8) . . .
217(8) . . .
220(8) . . .
237(9) . . .
236(9) . . .
213(8) . . .
240(8) . . .
211(8) . . .
213(8) . . .
220(8) . . .
221(8) . . .
222(8) . . .
218(8) . . .
208(8) . . .
217(8) . . .
198(7) . . .
224(8) . . .
239(8) . . .
199(8) . . .
214(8) . . .
229(8) . . .
200(8) . . .
208(8) . . .
227(8) . . .
207(8) . . .
214(8) . . .
219(8) . . .
215(8) . . .
216(8) . . .
215(8) . . .
195(7) . . .
218(8) . . .
224(8) . . .
224(8) . . .
206(8) . . .
205(7) . . .
198(7) . . .
205(8) . . .
207(8) . . .
184(7) . . .
209(7) . . .
209(8) . . .
180(7) . . .
196(7) . . .
212(8) . . .
210(7) . . .
200(8) . . .
207(8) . . .
221(8) . . .
204(7) . . .
236(8) . . .
203(8) . . .
190(7) . . .
204(7) . . .
199(7) . . .
208(8) . . .
201(8) . . .
208(8) . . .
201(7) . . .
188(7) . . .
219(8) . . .
207(8) . . .
215(8) . . .
199(8) . . .
209(8) . . .
223(8) . . .
201(7) . . .
220(8) . . .
208(8) . . .
204(7) . . .
222(8) . . .
224(8) . . .
224(8) . . .
229(8) . . .
208(7) . . .
227(8) . . .
221(8) . . .
213(8) . . .
201(7) . . .
217(8) . . .
199(8) . . .
236(8) . . .
231(8) . . .
228(8) . . .
200(7) . . .
217(8) . . .
209(8) . . .
211(8) . . .
207(7) . . .
202(7) . . .
216(8) . . .
209(8) . . .
212(8) . . .
222(8) . . .
191(7) . . .
215(8) . . .
211(8) . . .
225(8) . . .
207(8) . . .
218(8) . . .
221(8) . . .
226(8) . . .
194(7) . . .
183(7) . . .
198(7) . . .
185(7) . . .
192(8) . . .
210(8) . . .
199(7) . . .
186(7) . . .
193(7) . . .
207(8) . . .
214(8) . . .
200(7) . . .
195(7) . . .
203(8) . . .
199(8) . . .
212(8) . . .
199(7) . . .
224(8) . . .
213(8) . . .
199(8) . . .
212(8) . . .
215(8) . . .
230(8) . . .
197(8) . . .
194(8) . . .
214(8) . . .
226(8) . . .
210(8) . . .
238(8) . . .
225(8) . . .
228(8) . . .
240(8) . . .
233(8) . . .
227(8) . . .
225(8) . . .
236(8) . . .
247(8) . . .
233(8) . . .
270(9) . . .
267(9) . . .
260(8) . . .
257(8) . . .
245(8) . . .
263(9) . . .
259(9) . . .
231(8) . . .
251(8) . . .
226(8) . . .
232(9) . . .
233(8) . . .
197(7) . . .
198(7) . . .
203(8) . . .
194(8) . . .
213(8) . . .
224(8) . . .
209(8) . . .
212(8) . . .
221(8) . . .
189(7) . . .
198(7) . . .
209(8) . . .
218(8) . . .
228(8) . . .
220(8) . . .
210(8) . . .
205(8) . . .
215(8) . . .
202(8) . . .
192(7) . . .
205(7) . . .
208(8) . . .
246(9) . . .
233(8) . . .
208(8) . . .
213(8) . . .
215(8) . . .
223(8) . . .
228(8) . . .
204(8) . . .
198(7) . . .
190(7) . . .
209(8) . . .
201(8) . . .
220(8) . . .
216(8) . . .
207(8) . . .
210(8) . . .
225(8) . . .
202(7) . . .
209(7) . . .
209(8) . . .
217(8) . . .
205(8) . . .
194(7) . . .
183(7) . . .
207(8) . . .
202(8) . . .
201(8) . . .
206(7) . . .
191(7) . . .
196(8) . . .
204(8) . . .
220(8) . . .
202(7) . . .
199(7) . . .
200(8) . . .
213(8) . . .
208(8) . . .
204(7) . . .
202(7) . . .
204(8) . . .
213(8) . . .
212(8) . . .
224(8) . . .
214(8) . . .
190(7) . . .
202(8) . . .
197(8) . . .
210(7) . . .
205(8) . . .
200(8) . . .
188(7) . . .
199(7) . . .
228(8) . . .
190(7) . . .
197(8) . . .
193(8) . . .
194(7) . . .
229(8) . . .
215(8) . . .
194(7) . . .
205(8) . . .
187(7) . . .
192(7) . . .
197(8) . . .
216(8) . . .
188(7) . . .
210(8) . . .
206(7) . . .
211(8) . . .
195(8) . . .
196(7) . . .
228(8) . . .
211(8) . . .
203(8) . . .
227(8) . . .
207(8) . . .
190(7) . . .
196(7) . . .
185(7) . . .
215(8) . . .
223(8) . . .
178(7) . . .
200(7) . . .
208(8) . . .
206(8) . . .
210(8) . . .
190(7) . . .
194(7) . . .
214(8) . . .
206(8) . . .
203(8) . . .
215(8) . . .
213(8) . . .
209(8) . . .
233(8) . . .
219(8) . . .
225(8) . . .
196(7) . . .
220(8) . . .
208(8) . . .
227(8) . . .
204(7) . . .
232(8) . . .
215(8) . . .
234(8) . . .
236(8) . . .
229(8) . . .
212(8) . . .
219(8) . . .
221(8) . . .
207(7) . . .
225(8) . . .
206(8) . . .
201(8) . . .
217(8) . . .
207(8) . . .
222(8) . . .
220(8) . . .
208(8) . . .
218(8) . . .
189(7) . . .
219(8) . . .
206(8) . . .
197(8) . . .
202(8) . . .
200(7) . . .
210(8) . . .
213(8) . . .
215(8) . . .
193(7) . . .
195(7) . . .
205(8) . . .
210(8) . . .
218(8) . . .
202(8) . . .
197(7) . . .
204(8) . . .
200(7) . . .
224(8) . . .
193(8) . . .
206(7) . . .
200(7) . . .
230(8) . . .
203(8) . . .
204(8) . . .
210(8) . . .
197(7) . . .
225(8) . . .
211(8) . . .
197(7) . . .
210(7) . . .
214(8) . . .
212(8) . . .
210(8) . . .
213(8) . . .
196(7) . . .
202(8) . . .
192(8) . . .
194(7) . . .
234(8) . . .
205(7) . . .
200(8) . . .
211(8) . . .
203(7) . . .
214(8) . . .
220(8) . . .
230(8) . . .
222(8) . . .
240(8) . . .
217(8) . . .
232(8) . . .
210(8) . . .
204(8) . . .
208(8) . . .
224(8) . . .
211(8) . . .
214(8) . . .
214(8) . . .
214(8) . . .
243(8) . . .
240(8) . . .
237(8) . . .
242(9) . . .
236(8) . . .
239(8) . . .
210(8) . . .
212(8) . . .
218(8) . . .
215(8) . . .
224(8) . . .
233(8) . . .
225(8) . . .
222(8) . . .
211(8) . . .
219(8) . . .
213(8) . . .
222(8) . . .
255(9) . . .
241(8) . . .
240(8) . . .
235(8) . . .
229(8) . . .
228(8) . . .
255(9) . . .
242(8) . . .
252(8) . . .
246(9) . . .
252(9) . . .
275(9) . . .
241(8) . . .
239(8) . . .
236(8) . . .
244(8) . . .
234(8) . . .
259(8) . . .
240(8) . . .
246(9) . . .
232(8) . . .
236(8) . . .
236(8) . . .
243(8) . . .
228(8) . . .
200(8) . . .
216(8) . . .
220(8) . . .
212(8) . . .
231(8) . . .
243(8) . . .
234(8) . . .
221(8) . . .
226(8) . . .
230(9) . . .
209(8) . . .
220(8) . . .
187(7) . . .
214(8) . . .
200(8) . . .
213(8) . . .
211(8) . . .
199(7) . . .
203(8) . . .
207(8) . . .
192(7) . . .
233(8) . . .
220(8) . . .
217(8) . . .
214(8) . . .
211(8) . . .
233(8) . . .
203(8) . . .
215(8) . . .
200(8) . . .
188(8) . . .
211(7) . . .
205(8) . . .
222(8) . . .
225(8) . . .
212(8) . . .
206(7) . . .
210(8) . . .
218(8) . . .
206(8) . . .
202(8) . . .
217(8) . . .
195(7) . . .
196(7) . . .
222(8) . . .
221(8) . . .
220(8) . . .
199(8) . . .
226(8) . . .
205(8) . . .
215(8) . . .
206(7) . . .
214(8) . . .
234(9) . . .
211(8) . . .
216(8) . . .
230(8) . . .
207(8) . . .
216(8) . . .
203(8) . . .
239(8) . . .
212(8) . . .
201(8) . . .
216(8) . . .
192(7) . . .
202(7) . . .
186(7) . . .
199(8) . . .
182(7) . . .
205(8) . . .
208(7) . . .
224(8) . . .
222(8) . . .
221(8) . . .
199(8) . . .
235(8) . . .
235(8) . . .
224(8) . . .
224(8) . . .
216(8) . . .
214(8) . . .
218(8) . . .
206(8) . . .
201(8) . . .
223(8) . . .
206(7) . . .
217(8) . . .
204(8) . . .
203(8) . . .
204(8) . . .
190(7) . . .
199(8) . . .
198(8) . . .
204(8) . . .
179(7) . . .
208(7) . . .
221(8) . . .
206(8) . . .
178(7) . . .
214(8) . . .
209(7) . . .
202(8) . . .
210(8) . . .
201(8) . . .
205(7) . . .
181(7) . . .
200(8) . . .
213(8) . . .
189(7) . . .
175(7) . . .
198(7) . . .
201(8) . . .
209(8) . . .
218(8) . . .
202(7) . . .
186(7) . . .
214(8) . . .
223(8) . . .
206(8) . . .
205(7) . . .
195(7) . . .
195(7) . . .
198(8) . . .
197(8) . . .
224(8) . . .
213(8) . . .
207(8) . . .
220(8) . . .
212(8) . . .
221(8) . . .
204(8) . . .
200(8) . . .
220(8) . . .
224(8) . . .
210(7) . . .
231(8) . . .
228(8) . . .
226(8) . . .
217(8) . . .
230(8) . . .
208(8) . . .
234(9) . . .
210(8) . . .
227(8) . . .
207(7) . . .
197(8) . . .
205(8) . . .
207(8) . . .
200(7) . . .
194(7) . . .
193(7) . . .
197(8) . . .
225(8) . . .
215(8) . . .
210(8) . . .
196(7) . . .
241(9) . . .
210(8) . . .
219(8) . . .
232(8) . . .
232(8) . . .
217(8) . . .
223(8) . . .
227(8) . . .
214(8) . . .
213(8) . . .
227(8) . . .
234(8) . . .
238(8) . . .
197(7) . . .
211(8) . . .
200(8) . . .
205(8) . . .
204(7) . . .
228(8) . . .
231(8) . . .
190(7) . . .
212(8) . . .
217(8) . . .
211(8) . . .
206(8) . . .
205(8) . . .
205(8) . . .
204(7) . . .
206(8) . . .
209(8) . . .
199(8) . . .
210(8) . . .
203(7) . . .
213(8) . . .
223(8) . . .
225(8) . . .
214(8) . . .
198(7) . . .
218(8) . . .
200(8) . . .
214(8) . . .
190(7) . . .
226(8) . . .
230(8) . . .
215(8) . . .
207(8) . . .
246(8) . . .
230(8) . . .
231(8) . . .
236(9) . . .
237(8) . . .
231(8) . . .
241(8) . . .
232(8) . . .
203(8) . . .
209(8) . . .
217(8) . . .
226(8) . . .
225(8) . . .
232(8) . . .
207(8) . . .
208(8) . . .
224(8) . . .
194(7) . . .
207(8) . . .
214(8) . . .
215(8) . . .
200(7) . . .
218(8) . . .
241(9) . . .
229(8) . . .
210(7) . . .
226(8) . . .
204(8) . . .
225(8) . . .
234(8) . . .
217(8) . . .
233(8) . . .
225(8) . . .
239(8) . . .
224(8) . . .
237(8) . . .
224(8) . . .
223(8) . . .
219(8) . . .
209(8) . . .
216(8) . . .
245(8) . . .
209(8) . . .
212(8) . . .
215(8) . . .
237(8) . . .
215(8) . . .
199(8) . . .
214(8) . . .
230(8) . . .
216(8) . . .
220(8) . . .
211(8) . . .
219(8) . . .
203(7) . . .
215(8) . . .
222(8) . . .
209(8) . . .
209(8) . . .
217(8) . . .
213(8) . . .
217(8) . . .
222(8) . . .
220(8) . . .
210(8) . . .
199(7) . . .
197(8) . . .
219(8) . . .
183(7) . . .
207(8) . . .
190(7) . . .
212(8) . . .
196(8) . . .
195(7) . . .
204(7) . . .
189(7) . . .
179(7) . . .
192(8) . . .
214(8) . . .
204(7) . . .
205(8) . . .
209(8) . . .
188(8) . . .
196(7) . . .
201(7) . . .
210(8) . . .
217(8) . . .
231(8) . . .
222(8) . . .
206(7) . . .
195(7) . . .
202(8) . . .
225(8) . . .
211(8) . . .
201(7) . . .
206(8) . . .
198(8) . . .
196(7) . . .
209(7) . . .
202(7) . . .
201(8) . . .
193(7) . . .
206(8) . . .
211(8) . . .
200(7) . . .
209(8) . . .
196(8) . . .
214(8) . . .
192(7) . . .
211(8) . . .
204(8) . . .
193(8) . . .
212(8) . . .
214(8) . . .
240(8) . . .
199(7) . . .
204(8) . . .
205(8) . . .
205(7) . . .
218(8) . . .
232(8) . . .
203(8) . . .
198(7) . . .
197(7) . . .
206(8) . . .
210(8) . . .
207(8) . . .
209(8) . . .
191(7) . . .
209(8) . . .
220(8) . . .
209(8) . . .
188(7) . . .
198(7) . . .
219(8) . . .
206(8) . . .
209(8) . . .
226(8) . . .
212(8) . . .
216(8) . . .
215(8) . . .
205(8) . . .
215(8) . . .
202(7) . . .
212(8) . . .
216(8) . . .
208(8) . . .
200(8) . . .
223(8) . . .
208(8) . . .
208(8) . . .
230(8) . . .
210(8) . . .
207(7) . . .
208(8) . . .
212(8) . . .
194(7) . . .
226(8) . . .
219(8) . . .
225(8) . . .
234(8) . . .
212(8) . . .
216(8) . . .
188(7) . . .
214(8) . . .
222(8) . . .
225(8) . . .
219(8) . . .
229(8) . . .
219(8) . . .
213(8) . . .
196(7) . . .
197(7) . . .
198(8) . . .
213(8) . . .
216(8) . . .
209(8) . . .
221(8) . . .
195(7) . . .
221(8) . . .
224(8) . . .
216(8) . . .
201(7) . . .
201(8) . . .
228(8) . . .
220(8) . . .
216(8) . . .
212(8) . . .
204(8) . . .
206(8) . . .
208(8) . . .
209(7) . . .
223(8) . . .
193(7) . . .
223(8) . . .
222(8) . . .
212(8) . . .
207(7) . . .
200(8) . . .
199(8) . . .
200(8) . . .
184(7) . . .
192(7) . . .
205(8) . . .
197(8) . . .
197(8) . . .
223(8) . . .
205(7) . . .
205(8) . . .
198(8) . . .
205(8) . . .
187(7) . . .
212(8) . . .
201(7) . . .
219(8) . . .
211(8) . . .
212(8) . . .
178(7) . . .
197(8) . . .
221(8) . . .
209(8) . . .
222(8) . . .
187(7) . . .
208(8) . . .
202(8) . . .
212(8) . . .
195(7) . . .
175(7) . . .
191(8) . . .
195(8) . . .
210(8) . . .
208(7) . . .
227(8) . . .
203(8) . . .
211(8) . . .
189(7) . . .
207(8) . . .
186(7) . . .
185(7) . . .
208(8) . . .
208(8) . . .
204(7) . . .
188(7) . . .
200(8) . . .
199(8) . . .
195(7) . . .
193(7) . . .
189(7) . . .
208(8) . . .
226(8) . . .
194(7) . . .
211(8) . . .
192(7) . . .
198(8) . . .
205(8) . . .
181(7) . . .
230(8) . . .
201(7) . . .
212(8) . . .
218(8) . . .
214(8) . . .
213(8) . . .
193(7) . . .
201(8) . . .
205(8) . . .
239(8) . . .
225(8) . . .
205(8) . . .
195(8) . . .
202(8) . . .
199(7) . . .
196(7) . . .
226(8) . . .
210(8) . . .
212(8) . . .
206(7) . . .
197(7) . . .
209(8) . . .
194(8) . . .
212(8) . . .
225(8) . . .
221(8) . . .
201(8) . . .
218(8) . . .
221(8) . . .
212(8) . . .
201(8) . . .
203(8) . . .
204(8) . . .
211(8) . . .
213(8) . . .
204(8) . . .
218(8) . . .
198(8) . . .
209(8) . . .
200(7) . . .
199(8) . . .
207(8) . . .
197(7) . . .
197(7) . . .
190(7) . . .
212(8) . . .
223(8) . . .
209(8) . . .
209(8) . . .
204(7) . . .
181(7) . . .
215(8) . . .
198(7) . . .
208(8) . . .
210(8) . . .
206(8) . . .
210(8) . . .
192(7) . . .
223(8) . . .
226(8) . . .
212(8) . . .
192(8) . . .
208(8) . . .
218(8) . . .
217(8) . . .
203(7) . . .
197(8) . . .
202(8) . . .
207(7) . . .
209(8) . . .
188(7) . . .
221(8) . . .
215(8) . . .
214(8) . . .
201(8) . . .
221(8) . . .
218(8) . . .
189(7) . . .
212(8) . . .
213(8) . . .
227(8) . . .
228(8) . . .
198(7) . . .
209(8) . . .
209(8) . . .
205(8) . . .
204(8) . . .
212(8) . . .
207(7) . . .
212(8) . . .
181(7) . . .
185(7) . . .
213(8) . . .
191(7) . . .
205(8) . . .
208(8) . . .
224(8) . . .
218(8) . . .
212(8) . . .
195(7) . . .
207(8) . . .
204(8) . . .
197(7) . . .
199(7) . . .
194(7) . . .
200(8) . . .
208(8) . . .
203(7) . . .
202(8) . . .
196(7) . . .
207(8) . . .
207(8) . . .
195(7) . . .
202(7) . . .
193(7) . . .
208(8) . . .
203(8) . . .
189(7) . . .
193(7) . . .
196(8) . . .
200(8) . . .
219(8) . . .
193(7) . . .
205(8) . . .
206(8) . . .
211(8) . . .
231(8) . . .
213(8) . . .
209(8) . . .
208(8) . . .
203(8) . . .
220(8) . . .
199(7) . . .
193(7) . . .
222(8) . . .
202(8) . . .
204(8) . . .
191(7) . . .
191(8) . . .
191(7) . . .
211(8) . . .
221(8) . . .
197(7) . . .
193(8) . . .
204(8) . . .
191(7) . . .
203(8) . . .
180(7) . . .
196(7) . . .
209(8) . . .
199(7) . . .
214(8) . . .
198(7) . . .
193(7) . . .
194(8) . . .
204(8) . . .
213(8) . . .
208(8) . . .
189(7) . . .
196(8) . . .
211(8) . . .
223(8) . . .
208(8) . . .
189(7) . . .
186(8) . . .
181(7) . . .
195(7) . . .
177(7) . . .
192(8) . . .
186(8) . . .
205(8) . . .
194(7) . . .
192(7) . . .
194(7) . . .
190(7) . . .
202(8) . . .
169(7) . . .
183(7) . . .
204(8) . . .
197(7) . . .
204(8) . . .
210(7) . . .
209(8) . . .
202(8) . . .
193(7) . . .
189(7) . . .
190(7) . . .
187(7) . . .
203(8) . . .
202(8) . . .
199(7) . . .
197(7) . . .
225(8) . . .
212(8) . . .
204(8) . . .
212(8) . . .
212(8) . . .
197(7) . . .
202(8) . . .
212(8) . . .
212(7) . . .
203(8) . . .
192(8) . . .
201(8) . . .
199(8) . . .
216(8) . . .
204(7) . . .
210(8) . . .
194(8) . . .
188(8) . . .
200(7) . . .
194(7) . . .
203(8) . . .
223(9) . . .
202(8) . . .
190(7) . . .
194(7) . . .
182(7) . . .
211(8) . . .
225(8) . . .
209(7) . . .
179(7) . . .
207(8) . . .
208(8) . . .
196(7) . . .
191(7) . . .
201(7) . . .
196(7) . . .
210(8) . . .
177(7) . . .
173(7) . . .
197(8) . . .
205(8) . . .
212(8) . . .
189(7) . . .
184(7) . . .
205(8) . . .
196(8) . . .
195(7) . . .
188(7) . . .
190(7) . . .
201(8) . . .
168(7) . . .
206(8) . . .
213(8) . . .
195(7) . . .
169(7) . . .
202(8) . . .
220(8) . . .
196(7) . . .
222(8) . . .
189(7) . . .
205(8) . . .
187(7) . . .
206(7) . . .
182(7) . . .
197(8) . . .
204(8) . . .
199(8) . . .
201(7) . . .
225(8) . . .
198(8) . . .
191(8) . . .
188(7) . . .
207(7) . . .
218(8) . . .
206(8) . . .
206(8) . . .
196(7) . . .
196(7) . . .
211(8) . . .
194(7) . . .
189(8) . . .
209(8) . . .
202(7) . . .
202(8) . . .
187(7) . . .
195(8) . . .
195(7) . . .
186(7) . . .
185(7) . . .
171(7) . . .
180(7) . . .
222(8) . . .
198(7) . . .
219(8) . . .
201(8) . . .
191(7) . . .
219(8) . . .
202(7) . . .
210(8) . . .
202(8) . . .
179(7) . . .
195(7) . . .
207(7) . . .
217(8) . . .
180(7) . . .
203(8) . . .
205(8) . . .
195(7) . . .
194(7) . . .
198(8) . . .
204(8) . . .
206(8) . . .
197(7) . . .
194(8) . . .
186(8) . . .
193(7) . . .
185(7) . . .
193(7) . . .
207(8) . . .
202(8) . . .
178(7) . . .
176(7) . . .
186(7) . . .
195(7) . . .
197(8) . . .
206(8) . . .
184(7) . . .
207(8) . . .
180(7) . . .
200(8) . . .
190(7) . . .
213(8) . . .
204(8) . . .
203(8) . . .
195(8) . . .
189(7) . . .
188(7) . . .
189(7) . . .
199(8) . . .
185(7) . . .
227(8) . . .
205(7) . . .
173(7) . . .
174(7) . . .
179(7) . . .
187(7) . . .
197(7) . . .
179(7) . . .
186(8) . . .
162(7) . . .
204(8) . . .
188(7) . . .
203(8) . . .
206(8) . . .
204(8) . . .
212(8) . . .
170(7) . . .
185(7) . . .
192(8) . . .
187(7) . . .
176(7) . . .
187(7) . . .
189(8) . . .
195(8) . . .
198(8) . . .
184(7) . . .
175(7) . . .
198(7) . . .
189(8) . . .
202(8) . . .
192(7) . . .
192(7) . . .
215(8) . . .
202(8) . . .
203(8) . . .
201(7) . . .
211(8) . . .
187(7) . . .
187(7) . . .
201(8) . . .
181(7) . . .
189(7) . . .
186(8) . . .
178(7) . . .
195(8) . . .
191(7) . . .
176(7) . . .
183(7) . . .
177(7) . . .
188(7) . . .
181(7) . . .
183(7) . . .
178(7) . . .
176(7) . . .
211(8) . . .
196(7) . . .
168(7) . . .
191(8) . . .
168(7) . . .
183(7) . . .
209(8) . . .
194(7) . . .
196(8) . . .
195(8) . . .
188(7) . . .
218(8) . . .
199(8) . . .
189(8) . . .
204(8) . . .
189(7) . . .
202(7) . . .
188(7) . . .
189(8) . . .
202(8) . . .
189(7) . . .
186(7) . . .
196(8) . . .
187(7) . . .
181(7) . . .
181(7) . . .
200(7) . . .
189(7) . . .
198(8) . . .
190(7) . . .
180(7) . . .
194(7) . . .
189(7) . . .
176(7) . . .
204(8) . . .
198(7) . . .
193(7) . . .
184(7) . . .
191(7) . . .
202(8) . . .
185(7) . . .
186(7) . . .
176(7) . . .
182(7) . . .
185(7) . . .
202(7) . . .
188(7) . . .
190(7) . . .
206(8) . . .
201(8) . . .
179(7) . . .
181(7) . . .
190(8) . . .
197(8) . . .
180(7) . . .
191(7) . . .
201(8) . . .
188(8) . . .
189(7) . . .
187(7) . . .
190(7) . . .
191(8) . . .
194(8) . . .
198(7) . . .
180(7) . . .
198(7) . . .
198(8) . . .
186(7) . . .
215(8) . . .
194(7) . . .
184(7) . . .
205(8) . . .
208(8) . . .
180(7) . . .
193(7) . . .
197(7) . . .
203(8) . . .
186(8) . . .
192(8) . . .
196(7) . . .
188(7) . . .
197(8) . . .
211(8) . . .
221(8) . . .
203(7) . . .
197(7) . . .
179(7) . . .
214(8) . . .
197(7) . . .
201(7) . . .
191(7) . . .
197(8) . . .
203(8) . . .
197(7) . . .
212(8) . . .
188(7) . . .
198(8) . . .
184(7) . . .
199(7) . . .
176(7) . . .
203(8) . . .
195(8) . . .
187(7) . . .
201(7) . . .
211(8) . . .
212(8) . . .
202(8) . . .
207(8) . . .
202(7) . . .
202(7) . . .
205(8) . . .
188(7) . . .
196(8) . . .
197(7) . . .
199(7) . . .
195(8) . . .
210(8) . . .
193(7) . . .
196(7) . . .
218(8) . . .
206(8) . . .
208(8) . . .
201(8) . . .
192(7) . . .
187(7) . . .
199(8) . . .
173(7) . . .
190(8) . . .
193(7) . . .
171(7) . . .
194(8) . . .
185(7) . . .
189(7) . . .
199(7) . . .
201(8) . . .
200(8) . . .
189(7) . . .
183(7) . . .
194(7) . . .
194(7) . . .
215(8) . . .
193(8) . . .
207(8) . . .
196(7) . . .
197(8) . . .
192(8) . . .
192(7) . . .
208(8) . . .
198(7) . . .
191(8) . . .
184(7) . . .
196(7) . . .
213(8) . . .
176(7) . . .
178(7) . . .
174(7) . . .
185(7) . . .
209(8) . . .
197(7) . . .
203(8) . . .
207(8) . . .
202(8) . . .
200(7) . . .
190(7) . . .
195(7) . . .
201(8) . . .
186(7) . . .
219(8) . . .
195(7) . . .
202(8) . . .
184(7) . . .
203(8) . . .
206(7) . . .
202(7) . . .
213(8) . . .
185(7) . . .
200(8) . . .
184(7) . . .
193(7) . . .
221(8) . . .
210(8) . . .
209(8) . . .
191(7) . . .
219(8) . . .
198(8) . . .
214(8) . . .
228(8) . . .
212(8) . . .
215(8) . . .
191(7) . . .
203(8) . . .
185(7) . . .
198(7) . . .
197(7) . . .
196(7) . . .
196(8) . . .
185(7) . . .
181(7) . . .
199(8) . . .
183(7) . . .
192(7) . . .
209(8) . . .
203(7) . . .
225(8) . . .
199(8) . . .
189(7) . . .
203(7) . . .
207(7) . . .
195(7) . . .
196(8) . . .
195(8) . . .
203(7) . . .
184(7) . . .
191(7) . . .
193(8) . . .
198(8) . . .
186(7) . . .
190(7) . . .
204(8) . . .
184(7) . . .
182(7) . . .
188(7) . . .
182(7) . . .
200(8) . . .
197(8) . . .
184(8) . . .
184(7) . . .
202(8) . . .
210(8) . . .
195(8) . . .
181(7) . . .
180(7) . . .
179(7) . . .
197(8) . . .
193(8) . . .
197(7) . . .
173(7) . . .
191(7) . . .
216(8) . . .
200(8) . . .
191(8) . . .
197(7) . . .
190(7) . . .
197(8) . . .
166(7) . . .
187(7) . . .
195(7) . . .
195(7) . . .
200(8) . . .
200(8) . . .
194(7) . . .
190(7) . . .
200(8) . . .
174(7) . . .
170(7) . . .
179(7) . . .
205(7) . . .
181(7) . . .
197(8) . . .
201(8) . . .
183(7) . . .
193(7) . . .
194(7) . . .
214(8) . . .
188(7) . . .
191(7) . . .
176(7) . . .
190(7) . . .
194(8) . . .
197(7) . . .
195(7) . . .
176(7) . . .
199(8) . . .
189(8) . . .
192(7) . . .
195(7) . . .
168(7) . . .
189(8) . . .
199(8) . . .
202(8) . . .
176(7) . . .
187(7) . . .
192(7) . . .
187(7) . . .
200(8) . . .
177(7) . . .
187(7) . . .
199(8) . . .
174(7) . . .
193(8) . . .
208(7) . . .
198(7) . . .
187(7) . . .
189(8) . . .
189(7) . . .
184(7) . . .
187(7) . . .
193(8) . . .
181(7) . . .
186(7) . . .
203(7) . . .
197(8) . . .
188(7) . . .
194(7) . . .
183(7) . . .
195(7) . . .
193(7) . . .
182(7) . . .
211(8) . . .
182(7) . . .
177(7) . . .
184(7) . . .
197(8) . . .
193(7) . . .
160(7) . . .
165(7) . . .
174(7) . . .
199(8) . . .
185(7) . . .
200(7) . . .
155(6) . . .
197(8) . . .
179(7) . . .
203(8) . . .
209(7) . . .
195(7) . . .
212(8) . . .
194(8) . . .
185(7) . . .
196(7) . . .
196(7) . . .
198(8) . . .
188(7) . . .
193(7) . . .
186(7) . . .
191(7) . . .
180(7) . . .
181(7) . . .
188(7) . . .
183(7) . . .
209(8) . . .
190(7) . . .
166(7) . . .
177(7) . . .
188(7) . . .
201(7) . . .
203(8) . . .
183(7) . . .
188(7) . . .
202(7) . . .
197(8) . . .
166(7) . . .
192(7) . . .
198(7) . . .
186(7) . . .
197(8) . . .
198(8) . . .
197(8) . . .
209(8) . . .
223(8) . . .
201(8) . . .
182(8) . . .
205(8) . . .
196(7) . . .
219(8) . . .
225(8) . . .
197(8) . . .
203(8) . . .
201(7) . . .
219(8) . . .
210(8) . . .
217(9) . . .
179(7) . . .
206(7) . . .
200(7) . . .
193(8) . . .
206(8) . . .
218(8) . . .
206(7) . . .
207(7) . . .
197(8) . . .
201(8) . . .
226(8) . . .
195(7) . . .
216(8) . . .
189(8) . . .
214(8) . . .
211(8) . . .
202(7) . . .
212(8) . . .
211(8) . . .
197(8) . . .
218(8) . . .
219(8) . . .
209(8) . . .
211(8) . . .
193(8) . . .
193(7) . . .
200(7) . . .
191(7) . . .
200(8) . . .
202(8) . . .
216(8) . . .
199(7) . . .
193(8) . . .
218(8) . . .
208(8) . . .
223(8) . . .
195(7) . . .
186(7) . . .
202(8) . . .
180(7) . . .
193(7) . . .
177(7) . . .
206(8) . . .
206(8) . . .
213(8) . . .
193(7) . . .
191(7) . . .
189(7) . . .
210(8) . . .
193(8) . . .
186(7) . . .
191(7) . . .
184(7) . . .
185(8) . . .
156(7) . . .
195(7) . . .
202(7) . . .
198(7) . . .
230(9) . . .
206(8) . . .
186(7) . . .
200(7) . . .
179(7) . . .
190(8) . . .
179(7) . . .
207(8) . . .
176(7) . . .
187(7) . . .
194(8) . . .
187(7) . . .
186(7) . . .
180(7) . . .
172(7) . . .
190(8) . . .
180(7) . . .
181(7) . . .
194(8) . . .
174(7) . . .
198(8) . . .
215(8) . . .
181(7) . . .
177(7) . . .
189(7) . . .
168(7) . . .
183(7) . . .
188(7) . . .
160(7) . . .
206(8) . . .
177(7) . . .
187(7) . . .
180(7) . . .
194(7) . . .
188(8) . . .
190(7) . . .
199(7) . . .
182(7) . . .
186(8) . . .
182(8) . . .
188(8) . . .
193(7) . . .
193(7) . . .
199(8) . . .
165(7) . . .
165(7) . . .
178(7) . . .
193(7) . . .
183(7) . . .
188(8) . . .
195(7) . . .
185(7) . . .
181(7) . . .
177(7) . . .
189(7) . . .
199(8) . . .
203(7) . . .
167(7) . . .
188(7) . . .
193(7) . . .
183(7) . . .
190(7) . . .
189(7) . . .
189(7) . . .
175(7) . . .
160(7) . . .
184(7) . . .
193(8) . . .
200(8) . . .
190(7) . . .
179(7) . . .
183(7) . . .
172(7) . . .
191(8) . . .
186(8) . . .
180(7) . . .
202(7) . . .
188(7) . . .
181(7) . . .
175(7) . . .
178(7) . . .
188(7) . . .
198(8) . . .
182(7) . . .
197(7) . . .
196(7) . . .
186(7) . . .
194(8) . . .
192(8) . . .
198(8) . . .
177(7) . . .
188(7) . . .
198(7) . . .
198(8) . . .
197(8) . . .
194(7) . . .
183(7) . . .
183(7) . . .
202(8) . . .
188(7) . . .
193(7) . . .
185(7) . . .
175(7) . . .
189(8) . . .
206(8) . . .
175(7) . . .
182(7) . . .
186(7) . . .
186(7) . . .
193(8) . . .
178(7) . . .
174(7) . . .
192(8) . . .
180(7) . . .
194(8) . . .
188(7) . . .
181(7) . . .
183(7) . . .
192(8) . . .
173(7) . . .
198(7) . . .
172(7) . . .
172(7) . . .
185(7) . . .
199(8) . . .
207(7) . . .
194(8) . . .
177(7) . . .
171(7) . . .
186(7) . . .
189(7) . . .
207(8) . . .
202(8) . . .
207(8) . . .
193(7) . . .
182(7) . . .
201(8) . . .
185(7) . . .
202(8) . . .
191(7) . . .
193(7) . . .
199(8) . . .
195(8) . . .
175(7) . . .
194(7) . . .
167(7) . . .
186(7) . . .
187(7) . . .
189(7) . . .
208(7) . . .
189(7) . . .
183(7) . . .
177(7) . . .
196(8) . . .
184(7) . . .
194(7) . . .
185(8) . . .
181(7) . . .
199(8) . . .
190(7) . . .
197(7) . . .
199(8) . . .
190(7) . . .
183(7) . . .
186(7) . . .
187(7) . . .
173(7) . . .
184(7) . . .
202(7) . . .
197(7) . . .
192(8) . . .
183(7) . . .
176(7) . . .
186(7) . . .
199(7) . . .
231(8) . . .
192(8) . . .
189(8) . . .
176(7) . . .
206(7) . . .
180(7) . . .
201(8) . . .
188(7) . . .
196(7) . . .
193(7) . . .
180(7) . . .
177(7) . . .
193(7) . . .
179(7) . . .
163(7) . . .
182(7) . . .
195(8) . . .
167(7) . . .
185(7) . . .
188(7) . . .
198(8) . . .
186(7) . . .
167(7) . . .
180(7) . . .
191(7) . . .
193(7) . . .
184(8) . . .
187(7) . . .
189(7) . . .
186(7) . . .
169(7) . . .
186(8) . . .
177(7) . . .
190(7) . . .
191(7) . . .
194(8) . . .
187(7) . . .
163(7) . . .
176(7) . . .
190(7) . . .
178(7) . . .
188(7) . . .
203(8) . . .
176(7) . . .
170(7) . . .
183(7) . . .
191(7) . . .
179(7) . . .
172(7) . . .
193(7) . . .
194(8) . . .
165(7) . . .
195(7) . . .
167(7) . . .
183(7) . . .
190(8) . . .
169(7) . . .
185(7) . . .
183(7) . . .
169(7) . . .
182(7) . . .
197(7) . . .
185(7) . . .
182(7) . . .
208(8) . . .
190(8) . . .
188(7) . . .
167(7) . . .
180(7) . . .
193(7) . . .
178(7) . . .
168(7) . . .
187(7) . . .
175(7) . . .
167(7) . . .
176(7) . . .
191(7) . . .
201(7) . . .
183(7) . . .
193(8) . . .
187(7) . . .
191(8) . . .
183(7) . . .
187(7) . . .
191(8) . . .
193(8) . . .
169(7) . . .
193(7) . . .
190(7) . . .
194(8) . . .
211(8) . . .
200(8) . . .
195(7) . . .
196(7) . . .
207(8) . . .
197(8) . . .
206(8) . . .
185(7) . . .
180(7) . . .
180(7) . . .
169(7) . . .
179(7) . . .
193(7) . . .
194(7) . . .
189(7) . . .
203(8) . . .
190(7) . . .
181(7) . . .
202(8) . . .
182(7) . . .
192(7) . . .
195(7) . . .
205(8) . . .
186(7) . . .
207(8) . . .
178(7) . . .
164(7) . . .
206(8) . . .
201(8) . . .
182(7) . . .
194(8) . . .
191(7) . . .
169(7) . . .
185(7) . . .
181(7) . . .
202(8) . . .
173(7) . . .
182(7) . . .
178(7) . . .
171(7) . . .
165(7) . . .
193(7) . . .
182(7) . . .
185(7) . . .
210(8) . . .
187(7) . . .
180(7) . . .
170(7) . . .
179(7) . . .
184(7) . . .
184(7) . . .
191(7) . . .
187(7) . . .
194(8) . . .
188(7) . . .
191(7) . . .
178(7) . . .
191(7) . . .
170(7) . . .
190(8) . . .
184(7) . . .
172(7) . . .
193(8) . . .
170(7) . . .
186(7) . . .
186(7) . . .
178(7) . . .
206(8) . . .
182(7) . . .
189(7) . . .
202(8) . . .
193(7) . . .
189(7) . . .
198(8) . . .
175(7) . . .
203(8) . . .
208(7) . . .
188(7) . . .
178(8) . . .
197(8) . . .
187(7) . . .
190(7) . . .
177(7) . . .
191(8) . . .
198(8) . . .
191(7) . . .
197(7) . . .
184(7) . . .
187(7) . . .
181(7) . . .
197(7) . . .
187(7) . . .
162(7) . . .
200(8) . . .
183(7) . . .
182(7) . . .
212(8) . . .
172(7) . . .
193(7) . . .
202(8) . . .
167(7) . . .
175(7) . . .
185(7) . . .
188(7) . . .
191(7) . . .
198(7) . . .
192(7) . . .
199(8) . . .
194(8) . . .
187(7) . . .
177(7) . . .
200(8) . . .
209(8) . . .
204(8) . . .
201(8) . . .
191(7) . . .
182(7) . . .
174(7) . . .
190(7) . . .
195(7) . . .
207(7) . . .
209(8) . . .
191(8) . . .
195(7) . . .
201(7) . . .
182(7) . . .
183(7) . . .
185(8) . . .
175(7) . . .
195(7) . . .
195(7) . . .
187(7) . . .
210(8) . . .
187(7) . . .
177(7) . . .
185(7) . . .
183(7) . . .
184(8) . . .
165(7) . . .
199(7) . . .
211(8) . . .
185(7) . . .
167(7) . . .
197(8) . . .
187(7) . . .
188(7) . . .
180(7) . . .
166(7) . . .
163(7) . . .
180(7) . . .
205(8) . . .
174(7) . . .
179(7) . . .
199(7) . . .
207(7) . . .
193(7) . . .
185(7) . . .
188(7) . . .
202(7) . . .
196(7) . . .
180(7) . . .
190(7) . . .
190(7) . . .
192(7) . . .
188(7) . . .
194(7) . . .
180(7) . . .
179(7) . . .
186(7) . . .
197(7) . . .
201(8) . . .
215(8) . . .
219(8) . . .
234(8) . . .
200(7) . . .
201(7) . . .
197(8) . . .
195(7) . . .
184(7) . . .
191(7) . . .
184(7) . . .
198(8) . . .
198(7) . . .
184(7) . . .
202(7) . . .
188(7) . . .
193(8) . . .
194(8) . . .
195(7) . . .
165(7) . . .
174(7) . . .
199(8) . . .
190(7) . . .
209(8) . . .
181(7) . . .
185(7) . . .
182(8) . . .
165(7) . . .
182(7) . . .
200(8) . . .
178(7) . . .
185(7) . . .
187(7) . . .
186(7) . . .
194(8) . . .
174(7) . . .
183(7) . . .
194(8) . . .
171(7) . . .
191(7) . . .
186(8) . . .
161(7) . . .
185(7) . . .
178(7) . . .
177(7) . . .
185(8) . . .
191(7) . . .
181(7) . . .
185(7) . . .
183(7) . . .
190(8) . . .
188(7) . . .
192(7) . . .
185(7) . . .
190(7) . . .
209(8) . . .
173(7) . . .
196(7) . . .
181(7) . . .
202(8) . . .
228(8) . . .
213(8) . . .
201(7) . . .
201(7) . . .
194(7) . . .
213(8) . . .
193(7) . . .
184(7) . . .
209(7) . . .
183(7) . . .
184(7) . . .
199(8) . . .
204(7) . . .
215(8) . . .
178(7) . . .
180(7) . . .
201(8) . . .
194(7) . . .
205(8) . . .
208(8) . . .
190(8) . . .
188(7) . . .
189(7) . . .
170(7) . . .
208(8) . . .
216(8) . . .
195(7) . . .
201(7) . . .
182(7) . . .
194(8) . . .
204(8) . . .
181(7) . . .
206(7) . . .
184(7) . . .
193(8) . . .
186(7) . . .
197(7) . . .
178(7) . . .
182(7) . . .
187(8) . . .
207(8) . . .
175(7) . . .
199(7) . . .
198(7) . . .
187(8) . . .
186(7) . . .
173(7) . . .
169(7) . . .
187(7) . . .
185(8) . . .
160(7) . . .
155(6) . . .
169(7) . . .
172(7) . . .
172(7) . . .
183(7) . . .
173(7) . . .
191(7) . . .
201(8) . . .
169(7) . . .
168(7) . . .
185(7) . . .
179(7) . . .
181(7) . . .
185(7) . . .
179(7) . . .
180(7) . . .
199(8) . . .
166(7) . . .
175(7) . . .
164(7) . . .
173(7) . . .
183(7) . . .
191(7) . . .
162(7) . . .
171(7) . . .
194(7) . . .
193(7) . . .
187(7) . . .
172(7) . . .
194(8) . . .
170(7) . . .
198(8) . . .
203(8) . . .
188(7) . . .
221(8) . . .
226(8) . . .
197(7) . . .
194(8) . . .
194(7) . . .
209(7) . . .
191(7) . . .
193(7) . . .
175(7) . . .
199(8) . . .
179(7) . . .
158(7) . . .
166(7) . . .
193(8) . . .
162(7) . . .
174(7) . . .
182(7) . . .
194(7) . . .
188(8) . . .
190(8) . . .
195(7) . . .
191(7) . . .
179(7) . . .
173(7) . . .
177(7) . . .
171(7) . . .
177(7) . . .
169(7) . . .
175(7) . . .
187(7) . . .
180(7) . . .
189(7) . . .
194(8) . . .
198(8) . . .
194(7) . . .
178(7) . . .
176(7) . . .
192(8) . . .
198(8) . . .
206(8) . . .
166(7) . . .
186(7) . . .
171(7) . . .
175(7) . . .
181(7) . . .
184(7) . . .
193(8) . . .
187(7) . . .
200(8) . . .
167(7) . . .
209(8) . . .
180(7) . . .
184(7) . . .
171(7) . . .
172(7) . . .
176(7) . . .
195(7) . . .
177(7) . . .
184(7) . . .
182(7) . . .
182(7) . . .
180(7) . . .
175(8) . . .
172(7) . . .
179(7) . . .
159(7) . . .
184(7) . . .
187(7) . . .
186(8) . . .
211(8) . . .
186(7) . . .
184(7) . . .
193(8) . . .
192(8) . . .
175(7) . . .
186(7) . . .
184(8) . . .
160(7) . . .
179(7) . . .
181(7) . . .
181(7) . . .
182(7) . . .
178(8) . . .
180(7) . . .
184(7) . . .
171(7) . . .
169(7) . . .
172(7) . . .
189(7) . . .
187(7) . . .
187(7) . . .
177(7) . . .
182(7) . . .
167(7) . . .
178(7) . . .
190(7) . . .
191(7) . . .
178(7) . . .
183(7) . . .
168(7) . . .
181(7) . . .
178(7) . . .
175(7) . . .
192(7) . . .
170(7) . . .
175(7) . . .
192(8) . . .
164(7) . . .
187(7) . . .
185(7) . . .
193(8) . . .
186(7) . . .
180(7) . . .
177(7) . . .
185(7) . . .
203(8) . . .
193(8) . . .
175(7) . . .
205(7) . . .
192(7) . . .
182(7) . . .
170(7) . . .
166(7) . . .
182(7) . . .
176(7) . . .
185(7) . . .
186(8) . . .
164(7) . . .
171(7) . . .
184(7) . . .
185(7) . . .
202(8) . . .
212(8) . . .
173(7) . . .
183(7) . . .
184(7) . . .
180(7) . . .
174(7) . . .
184(7) . . .
158(7) . . .
170(7) . . .
168(7) . . .
167(7) . . .
160(7) . . .
182(7) . . .
161(7) . . .
154(7) . . .
179(7) . . .
188(7) . . .
176(7) . . .
182(8) . . .
183(7) . . .
199(7) . . .
185(7) . . .
180(7) . . .
180(7) . . .
178(7) . . .
168(7) . . .
174(7) . . .
178(7) . . .
195(8) . . .
171(7) . . .
168(7) . . .
170(7) . . .
181(7) . . .
183(8) . . .
196(8) . . .
181(7) . . .
184(7) . . .
180(7) . . .
192(8) . . .
179(7) . . .
172(7) . . .
157(6) . . .
174(7) . . .
167(7) . . .
188(7) . . .
181(7) . . .
183(7) . . .
182(7) . . .
189(8) . . .
187(7) . . .
187(7) . . .
184(7) . . .
183(7) . . .
190(8) . . .
163(7) . . .
183(7) . . .
193(8) . . .
171(7) . . .
187(7) . . .
196(7) . . .
172(7) . . .
168(7) . . .
184(7) . . .
199(8) . . .
185(7) . . .
176(7) . . .
188(7) . . .
153(7) . . .
176(7) . . .
164(7) . . .
178(7) . . .
168(7) . . .
183(7) . . .
176(7) . . .
187(7) . . .
160(7) . . .
190(7) . . .
187(7) . . .
191(7) . . .
186(7) . . .
180(7) . . .
173(7) . . .
171(7) . . .
192(8) . . .
158(6) . . .
168(7) . . .
166(7) . . .
171(7) . . .
165(7) . . .
185(7) . . .
170(7) . . .
174(7) . . .
207(8) . . .
200(8) . . .
179(7) . . .
167(7) . . .
188(8) . . .
180(7) . . .
179(7) . . .
170(7) . . .
188(7) . . .
180(7) . . .
190(8) . . .
177(7) . . .
170(7) . . .
178(7) . . .
186(7) . . .
186(7) . . .
195(7) . . .
165(7) . . .
170(7) . . .
205(8) . . .
179(7) . . .
184(7) . . .
187(7) . . .
176(7) . . .
189(8) . . .
178(7) . . .
180(7) . . .
181(7) . . .
161(7) . . .
160(7) . . .
192(8) . . .
193(7) . . .
179(7) . . .
179(7) . . .
155(7) . . .
175(7) . . .
188(7) . . .
146(6) . . .
163(7) . . .
182(8) . . .
174(7) . . .
175(7) . . .
162(7) . . .
173(7) . . .
161(7) . . .
177(7) . . .
169(7) . . .
179(7) . . .
176(7) . . .
178(7) . . .
164(7) . . .
174(7) . . .
187(7) . . .
177(7) . . .
155(7) . . .
169(7) . . .
156(7) . . .
187(7) . . .
147(7) . . .
164(7) . . .
153(7) . . .
186(7) . . .
182(7) . . .
170(7) . . .
174(7) . . .
177(7) . . .
173(7) . . .
174(7) . . .
170(7) . . .
163(7) . . .
186(7) . . .
181(7) . . .
176(7) . . .
162(7) . . .
159(7) . . .
159(7) . . .
181(7) . . .
167(7) . . .
165(7) . . .
154(7) . . .
173(7) . . .
167(7) . . .
190(8) . . .
182(7) . . .
168(7) . . .
161(7) . . .
177(7) . . .
171(7) . . .
165(7) . . .
189(7) . . .
190(7) . . .
164(7) . . .
151(7) . . .
160(7) . . .
171(7) . . .
158(7) . . .
166(7) . . .
165(7) . . .
159(7) . . .
157(7) . . .
168(7) . . .
184(7) . . .
183(7) . . .
186(8) . . .
200(8) . . .
168(7) . . .
185(7) . . .
172(7) . . .
189(8) . . .
173(7) . . .
154(6) . . .
154(7) . . .
144(6) . . .
193(8) . . .
165(7) . . .
169(7) . . .
159(7) . . .
152(7) . . .
160(7) . . .
160(7) . . .
161(7) . . .
161(7) . . .
170(7) . . .
176(7) . . .
156(7) . . .
158(6) . . .
157(7) . . .
146(6) . . .
153(7) . . .
151(6) . . .
173(7) . . .
171(7) . . .
154(7) . . .
155(7) . . .
168(7) . . .
169(7) . . .
173(7) . . .
167(7) . . .
171(7) . . .
177(7) . . .
184(7) . . .
163(7) . . .
168(7) . . .
160(7) . . .
171(7) . . .
170(7) . . .
172(7) . . .
174(7) . . .
172(7) . . .
173(7) . . .
161(7) . . .
166(7) . . .
183(7) . . .
166(7) . . .
163(7) . . .
160(7) . . .
175(7) . . .
183(7) . . .
167(7) . . .
159(7) . . .
168(7) . . .
161(7) . . .
165(7) . . .
153(7) . . .
162(7) . . .
175(7) . . .
166(7) . . .
161(7) . . .
164(7) . . .
157(7) . . .
181(8) . . .
160(7) . . .
165(7) . . .
177(7) . . .
171(7) . . .
168(7) . . .
182(7) . . .
173(7) . . .
153(7) . . .
158(6) . . .
189(7) . . .
176(7) . . .
164(7) . . .
176(7) . . .
200(7) . . .
165(7) . . .
174(7) . . .
163(7) . . .
165(7) . . .
166(7) . . .
159(7) . . .
179(8) . . .
162(7) . . .
168(7) . . .
175(7) . . .
172(7) . . .
162(7) . . .
165(7) . . .
192(7) . . .
182(7) . . .
166(7) . . .
167(7) . . .
163(7) . . .
165(7) . . .
170(7) . . .
186(7) . . .
167(7) . . .
163(7) . . .
168(7) . . .
182(7) . . .
166(7) . . .
159(7) . . .
166(7) . . .
156(6) . . .
186(7) . . .
180(7) . . .
167(7) . . .
158(7) . . .
182(7) . . .
187(7) . . .
179(7) . . .
178(7) . . .
168(7) . . .
179(7) . . .
158(7) . . .
147(7) . . .
176(7) . . .
159(7) . . .
155(6) . . .
162(7) . . .
161(7) . . .
180(7) . . .
169(7) . . .
170(7) . . .
194(8) . . .
175(7) . . .
199(8) . . .
183(7) . . .
168(7) . . .
167(7) . . .
171(7) . . .
165(7) . . .
158(7) . . .
178(7) . . .
169(7) . . .
164(7) . . .
176(7) . . .
173(7) . . .
162(7) . . .
178(7) . . .
159(7) . . .
160(7) . . .
153(6) . . .
167(7) . . .
181(7) . . .
177(7) . . .
186(7) . . .
186(7) . . .
162(7) . . .
165(7) . . .
162(7) . . .
172(7) . . .
166(7) . . .
171(7) . . .
170(7) . . .
165(7) . . .
181(7) . . .
173(7) . . .
169(7) . . .
171(7) . . .
169(7) . . .
168(7) . . .
152(6) . . .
186(7) . . .
187(7) . . .
174(7) . . .
183(7) . . .
176(7) . . .
179(7) . . .
191(8) . . .
159(7) . . .
178(7) . . .
184(7) . . .
180(7) . . .
179(7) . . .
181(7) . . .
177(7) . . .
181(7) . . .
173(7) . . .
189(8) . . .
183(7) . . .
142(6) . . .
174(7) . . .
156(7) . . .
162(7) . . .
171(7) . . .
168(7) . . .
170(7) . . .
156(7) . . .
170(7) . . .
173(7) . . .
163(7) . . .
161(7) . . .
168(7) . . .
181(7) . . .
136(6) . . .
167(7) . . .
183(7) . . .
159(7) . . .
181(8) . . .
162(7) . . .
187(7) . . .
178(7) . . .
192(8) . . .
170(7) . . .
172(7) . . .
169(7) . . .
170(7) . . .
166(7) . . .
178(7) . . .
184(7) . . .
177(7) . . .
189(7) . . .
193(8) . . .
174(7) . . .
182(7) . . .
181(7) . . .
181(7) . . .
191(7) . . .
203(8) . . .
182(7) . . .
187(7) . . .
187(8) . . .
169(7) . . .
183(7) . . .
165(7) . . .
175(7) . . .
170(7) . . .
168(7) . . .
166(7) . . .
157(7) . . .
150(6) . . .
171(7) . . .
183(7) . . .
171(7) . . .
163(7) . . .
175(7) . . .
180(7) . . .
180(7) . . .
181(7) . . .
183(7) . . .
173(7) . . .
168(7) . . .
180(7) . . .
163(7) . . .
164(7) . . .
158(7) . . .
169(7) . . .
164(7) . . .
152(7) . . .
167(7) . . .
179(7) . . .
158(7) . . .
154(7) . . .
186(7) . . .
169(7) . . .
164(7) . . .
159(7) . . .
187(8) . . .
163(7) . . .
163(7) . . .
182(7) . . .
173(7) . . .
170(7) . . .
171(7) . . .
183(7) . . .
168(7) . . .
186(7) . . .
159(7) . . .
170(7) . . .
184(7) . . .
187(7) . . .
165(7) . . .
178(7) . . .
179(7) . . .
162(7) . . .
170(7) . . .
185(8) . . .
161(7) . . .
153(6) . . .
152(6) . . .
171(7) . . .
170(7) . . .
160(7) . . .
173(7) . . .
180(7) . . .
158(7) . . .
151(7) . . .
174(7) . . .
175(7) . . .
165(7) . . .
163(7) . . .
156(7) . . .
151(6) . . .
158(7) . . .
172(7) . . .
158(7) . . .
170(7) . . .
163(7) . . .
171(7) . . .
159(7) . . .
150(7) . . .
173(7) . . .
159(7) . . .
152(6) . . .
174(7) . . .
173(7) . . .
164(7) . . .
148(7) . . .
155(7) . . .
143(6) . . .
179(7) . . .
187(7) . . .
168(7) . . .
165(7) . . .
164(7) . . .
159(7) . . .
170(7) . . .
163(7) . . .
143(6) . . .
174(7) . . .
186(7) . . .
161(7) . . .
143(6) . . .
153(6) . . .
166(7) . . .
166(7) . . .
158(7) . . .
173(7) . . .
159(7) . . .
168(7) . . .
176(7) . . .
173(7) . . .
153(6) . . .
156(6) . . .
162(7) . . .
168(7) . . .
169(7) . . .
164(7) . . .
175(7) . . .
174(7) . . .
175(7) . . .
171(7) . . .
151(6) . . .
157(7) . . .
145(6) . . .
165(7) . . .
159(7) . . .
144(6) . . .
168(7) . . .
176(7) . . .
155(7) . . .
173(7) . . .
174(7) . . .
156(6) . . .
161(7) . . .
168(7) . . .
182(7) . . .
166(7) . . .
164(7) . . .
156(7) . . .
150(7) . . .
147(6) . . .
171(7) . . .
173(7) . . .
176(7) . . .
159(7) . . .
156(7) . . .
167(7) . . .
161(7) . . .
169(7) . . .
162(7) . . .
159(7) . . .
162(7) . . .
166(7) . . .
161(7) . . .
166(7) . . .
175(7) . . .
150(6) . . .
176(7) . . .
141(7) . . .
163(7) . . .
156(6) . . .
166(7) . . .
170(7) . . .
148(7) . . .
148(6) . . .
157(7) . . .
165(7) . . .
162(7) . . .
179(7) . . .
148(7) . . .
154(6) . . .
164(7) . . .
151(6) . . .
163(7) . . .
175(7) . . .
161(7) . . .
179(7) . . .
172(7) . . .
159(7) . . .
178(7) . . .
163(7) . . .
168(7) . . .
175(7) . . .
157(7) . . .
160(7) . . .
161(7) . . .
168(7) . . .
173(7) . . .
163(7) . . .
173(7) . . .
164(7) . . .
160(7) . . .
165(7) . . .
157(7) . . .
165(7) . . .
160(7) . . .
163(7) . . .
174(7) . . .
165(7) . . .
164(7) . . .
176(7) . . .
163(7) . . .
176(7) . . .
170(7) . . .
172(7) . . .
165(7) . . .
165(7) . . .
163(7) . . .
174(7) . . .
148(6) . . .
155(7) . . .
165(7) . . .
171(7) . . .
161(7) . . .
153(6) . . .
166(7) . . .
172(7) . . .
165(7) . . .
151(7) . . .
167(7) . . .
170(7) . . .
159(7) . . .
176(7) . . .
173(7) . . .
174(7) . . .
170(7) . . .
178(7) . . .
170(7) . . .
163(7) . . .
156(6) . . .
164(7) . . .
161(7) . . .
171(7) . . .
175(7) . . .
174(7) . . .
169(7) . . .
154(7) . . .
185(7) . . .
170(7) . . .
168(7) . . .
169(7) . . .
170(7) . . .
175(7) . . .
173(7) . . .
197(7) . . .
181(7) . . .
174(7) . . .
177(7) . . .
183(7) . . .
179(7) . . .
160(7) . . .
163(7) . . .
161(7) . . .
154(7) . . .
159(7) . . .
181(7) . . .
154(7) . . .
172(7) . . .
162(7) . . .
181(7) . . .
171(7) . . .
175(7) . . .
181(7) . . .
191(7) . . .
164(7) . . .
171(7) . . .
149(6) . . .
170(7) . . .
189(7) . . .
152(6) . . .
177(7) . . .
178(7) . . .
192(7) . . .
188(7) . . .
157(6) . . .
169(7) . . .
148(7) . . .
166(7) . . .
154(6) . . .
181(7) . . .
168(7) . . .
173(7) . . .
162(7) . . .
171(7) . . .
162(7) . . .
175(7) . . .
173(7) . . .
166(7) . . .
169(7) . . .
160(7) . . .
176(7) . . .
162(7) . . .
170(7) . . .
158(6) . . .
181(7) . . .
153(7) . . .
161(7) . . .
179(7) . . .
170(7) . . .
169(7) . . .
168(7) . . .
163(7) . . .
143(6) . . .
175(7) . . .
166(7) . . .
171(7) . . .
156(7) . . .
161(7) . . .
171(7) . . .
154(7) . . .
165(7) . . .
164(7) . . .
169(7) . . .
177(7) . . .
167(7) . . .
149(7) . . .
177(7) . . .
163(7) . . .
157(6) . . .
163(7) . . .
163(7) . . .
181(7) . . .
167(7) . . .
169(7) . . .
182(7) . . .
154(7) . . .
149(7) . . .
162(7) . . .
167(7) . . .
148(6) . . .
164(7) . . .
174(7) . . .
155(6) . . .
181(7) . . .
158(7) . . .
170(7) . . .
157(7) . . .
159(7) . . .
151(7) . . .
157(7) . . .
162(7) . . .
157(7) . . .
169(7) . . .
169(7) . . .
159(7) . . .
160(7) . . .
153(7) . . .
179(7) . . .
161(7) . . .
162(7) . . .
172(7) . . .
173(7) . . .
150(6) . . .
163(7) . . .
154(7) . . .
151(6) . . .
163(7) . . .
161(7) . . .
157(7) . . .
131(6) . . .
179(7) . . .
153(6) . . .
171(7) . . .
173(7) . . .
143(7) . . .
132(6) . . .
160(7) . . .
168(7) . . .
158(7) . . .
149(7) . . .
158(7) . . .
161(7) . . .
161(7) . . .
162(7) . . .
156(7) . . .
167(7) . . .
156(6) . . .
161(7) . . .
162(7) . . .
148(7) . . .
175(7) . . .
172(7) . . .
167(7) . . .
174(7) . . .
155(7) . . .
168(7) . . .
168(7) . . .
162(7) . . .
147(6) . . .
169(7) . . .
152(7) . . .
170(7) . . .
163(7) . . .
157(7) . . .
147(7) . . .
156(7) . . .
146(6) . . .
150(7) . . .
165(7) . . .
163(7) . . .
167(7) . . .
153(6) . . .
154(7) . . .
169(7) . . .
166(7) . . .
176(7) . . .
163(7) . . .
161(7) . . .
148(7) . . .
171(7) . . .
173(7) . . .
139(6) . . .
173(7) . . .
162(7) . . .
160(7) . . .
157(6) . . .
155(7) . . .
152(7) . . .
148(7) . . .
155(7) . . .
157(6) . . .
157(6) . . .
167(7) . . .
158(7) . . .
143(6) . . .
169(7) . . .
167(7) . . .
146(6) . . .
154(7) . . .
161(7) . . .
161(7) . . .
176(7) . . .
148(6) . . .
174(7) . . .
166(7) . . .
161(7) . . .
154(7) . . .
149(6) . . .
153(7) . . .
155(6) . . .
162(7) . . .
163(7) . . .
145(7) . . .
160(7) . . .
162(7) . . .
151(6) . . .
158(7) . . .
186(7) . . .
169(7) . . .
175(7) . . .
175(7) . . .
151(7) . . .
171(8) . . .
162(7) . . .
154(6) . . .
133(6) . . .
155(7) . . .
170(7) . . .
165(7) . . .
154(7) . . .
156(6) . . .
169(7) . . .
148(7) . . .
148(7) . . .
153(6) . . .
157(7) . . .
153(7) . . .
171(8) . . .
150(7) . . .
153(6) . . .
162(7) . . .
165(7) . . .
161(7) . . .
151(7) . . .
160(7) . . .
163(7) . . .
154(7) . . .
161(7) . . .
171(7) . . .
162(7) . . .
151(6) . . .
161(7) . . .
164(7) . . .
176(7) . . .
160(7) . . .
182(7) . . .
155(7) . . .
162(7) . . .
149(6) . . .
153(6) . . .
179(7) . . .
160(7) . . .
166(7) . . .
150(7) . . .
167(7) . . .
183(7) . . .
167(7) . . .
162(7) . . .
164(7) . . .
164(7) . . .
171(7) . . .
165(7) . . .
160(7) . . .
175(7) . . .
160(7) . . .
143(6) . . .
149(7) . . .
169(7) . . .
153(6) . . .
156(6) . . .
153(6) . . .
155(7) . . .
162(7) . . .
154(6) . . .
145(6) . . .
161(7) . . .
164(7) . . .
138(6) . . .
151(6) . . .
162(7) . . .
155(7) . . .
150(7) . . .
143(6) . . .
155(7) . . .
139(6) . . .
150(7) . . .
170(7) . . .
151(7) . . .
162(7) . . .
150(6) . . .
159(7) . . .
168(7) . . .
159(7) . . .
156(6) . . .
147(6) . . .
150(6) . . .
164(7) . . .
177(7) . . .
162(7) . . .
162(7) . . .
174(7) . . .
179(7) . . .
156(7) . . .
156(6) . . .
151(7) . . .
167(7) . . .
184(8) . . .
145(6) . . .
169(7) . . .
168(7) . . .
160(7) . . .
158(7) . . .
171(7) . . .
160(7) . . .
161(7) . . .
165(7) . . .
154(7) . . .
150(6) . . .
149(6) . . .
163(7) . . .
177(7) . . .
164(7) . . .
171(7) . . .
199(7) . . .
166(7) . . .
168(7) . . .
152(6) . . .
176(7) . . .
171(7) . . .
157(7) . . .
179(8) . . .
168(7) . . .
186(7) . . .
159(7) . . .
153(7) . . .
157(7) . . .
161(7) . . .
182(7) . . .
165(7) . . .
177(7) . . .
177(7) . . .
160(7) . . .
158(6) . . .
175(7) . . .
173(7) . . .
159(7) . . .
172(7) . . .
169(7) . . .
175(7) . . .
174(7) . . .
164(7) . . .
187(7) . . .
161(7) . . .
162(7) . . .
163(7) . . .
171(7) . . .
159(7) . . .
161(7) . . .
165(7) . . .
159(7) . . .
158(7) . . .
158(7) . . .
163(7) . . .
160(7) . . .
155(7) . . .
180(7) . . .
185(7) . . .
174(7) . . .
165(7) . . .
170(7) . . .
165(7) . . .
170(7) . . .
161(7) . . .
166(7) . . .
168(7) . . .
163(7) . . .
146(6) . . .
152(6) . . .
169(7) . . .
161(7) . . .
178(7) . . .
158(7) . . .
149(6) . . .
162(7) . . .
168(7) . . .
154(7) . . .
137(6) . . .
157(7) . . .
164(7) . . .
155(7) . . .
162(7) . . .
169(7) . . .
145(6) . . .
147(6) . . .
156(7) . . .
140(6) . . .
149(6) . . .
153(7) . . .
176(7) . . .
174(7) . . .
161(7) . . .
158(7) . . .
179(7) . . .
147(6) . . .
162(7) . . .
159(7) . . .
160(7) . . .
175(7) . . .
157(7) . . .
176(7) . . .
158(7) . . .
175(7) . . .
177(7) . . .
143(7) . . .
159(7) . . .
159(7) . . .
156(6) . . .
134(6) . . .
134(6) . . .
143(6) . . .
156(7) . . .
145(6) . . .
161(7) . . .
152(7) . . .
152(7) . . .
173(7) . . .
180(7) . . .
160(7) . . .
164(7) . . .
171(7) . . .
166(7) . . .
172(7) . . .
141(6) . . .
155(7) . . .
151(7) . . .
142(6) . . .
148(6) . . .
151(7) . . .
152(7) . . .
143(7) . . .
149(6) . . .
153(7) . . .
166(7) . . .
161(7) . . .
179(7) . . .
156(7) . . .
157(7) . . .
147(7) . . .
147(7) . . .
140(6) . . .
165(7) . . .
145(6) . . .
151(7) . . .
146(7) . . .
145(6) . . .
162(7) . . .
132(6) . . .
142(6) . . .
168(7) . . .
147(6) . . .
158(6) . . .
144(6) . . .
154(7) . . .
152(7) . . .
148(7) . . .
163(7) . . .
159(7) . . .
170(7) . . .
172(7) . . .
158(7) . . .
161(7) . . .
163(7) . . .
153(7) . . .
157(7) . . .
167(7) . . .
167(7) . . .
172(7) . . .
177(8) . . .
161(7) . . .
177(7) . . .
158(6) . . .
152(7) . . .
136(7) . . .
151(7) . . .
145(6) . . .
147(6) . . .
144(6) . . .
146(7) . . .
154(7) . . .
149(6) . . .
156(7) . . .
161(7) . . .
146(7) . . .
167(7) . . .
150(6) . . .
156(7) . . .
146(6) . . .
158(7) . . .
134(6) . . .
151(6) . . .
150(6) . . .
164(7) . . .
163(7) . . .
140(6) . . .
163(7) . . .
161(7) . . .
143(6) . . .
152(7) . . .
158(7) . . .
168(7) . . .
163(7) . . .
167(7) . . .
167(7) . . .
158(7) . . .
147(6) . . .
154(7) . . .
149(7) . . .
149(7) . . .
159(7) . . .
163(7) . . .
158(7) . . .
148(7) . . .
147(7) . . .
132(6) . . .
174(7) . . .
143(6) . . .
149(7) . . .
150(7) . . .
155(6) . . .
160(7) . . .
167(7) . . .
165(7) . . .
166(7) . . .
166(7) . . .
154(7) . . .
156(7) . . .
146(7) . . .
169(7) . . .
166(7) . . .
141(6) . . .
166(7) . . .
157(7) . . .
166(7) . . .
151(6) . . .
161(7) . . .
150(7) . . .
148(7) . . .
143(7) . . .
153(6) . . .
147(7) . . .
135(6) . . .
175(7) . . .
144(6) . . .
163(7) . . .
166(7) . . .
142(6) . . .
150(7) . . .
148(6) . . .
147(6) . . .
141(6) . . .
152(7) . . .
163(7) . . .
172(7) . . .
160(7) . . .
155(7) . . .
164(7) . . .
168(7) . . .
129(6) . . .
157(6) . . .
169(7) . . .
158(7) . . .
154(7) . . .
161(7) . . .
150(6) . . .
156(7) . . .
153(7) . . .
152(7) . . .
163(7) . . .
159(7) . . .
138(6) . . .
140(6) . . .
174(7) . . .
169(7) . . .
169(7) . . .
154(7) . . .
136(6) . . .
145(7) . . .
148(6) . . .
160(7) . . .
156(7) . . .
147(7) . . .
155(7) . . .
164(7) . . .
158(7) . . .
158(7) . . .
142(7) . . .
156(7) . . .
168(7) . . .
147(6) . . .
159(7) . . .
141(7) . . .
151(6) . . .
181(7) . . .
151(6) . . .
148(6) . . .
145(6) . . .
153(7) . . .
156(6) . . .
162(7) . . .
170(7) . . .
150(6) . . .
155(7) . . .
153(6) . . .
141(6) . . .
164(7) . . .
140(6) . . .
144(6) . . .
150(6) . . .
160(7) . . .
160(7) . . .
141(6) . . .
148(6) . . .
167(7) . . .
168(7) . . .
182(8) . . .
160(7) . . .
166(7) . . .
162(7) . . .
148(6) . . .
148(7) . . .
144(6) . . .
171(7) . . .
156(7) . . .
154(7) . . .
146(7) . . .
153(7) . . .
151(6) . . .
152(6) . . .
147(6) . . .
147(7) . . .
169(7) . . .
170(7) . . .
165(7) . . .
160(7) . . .
149(6) . . .
166(7) . . .
174(7) . . .
172(7) . . .
164(7) . . .
164(7) . . .
164(7) . . .
150(6) . . .
146(7) . . .
155(7) . . .
147(6) . . .
154(7) . . .
152(6) . . .
158(7) . . .
167(7) . . .
167(7) . . .
176(7) . . .
152(6) . . .
177(7) . . .
170(7) . . .
166(7) . . .
162(7) . . .
153(6) . . .
153(6) . . .
166(7) . . .
152(7) . . .
128(6) . . .
156(6) . . .
159(7) . . .
157(7) . . .
163(7) . . .
168(7) . . .
152(6) . . .
167(7) . . .
183(8) . . .
154(7) . . .
157(7) . . .
167(7) . . .
155(7) . . .
159(7) . . .
155(7) . . .
171(7) . . .
156(6) . . .
152(7) . . .
146(7) . . .
159(7) . . .
180(7) . . .
178(7) . . .
175(7) . . .
173(7) . . .
175(7) . . .
191(7) . . .
187(7) . . .
188(7) . . .
159(7) . . .
183(8) . . .
167(7) . . .
179(7) . . .
170(7) . . .
155(7) . . .
168(7) . . .
157(7) . . .
160(7) . . .
135(6) . . .
155(7) . . .
156(7) . . .
171(7) . . .
169(7) . . .
164(7) . . .
157(7) . . .
168(7) . . .
142(6) . . .
148(7) . . .
135(6) . . .
161(7) . . .
153(6) . . .
157(6) . . .
167(7) . . .
170(7) . . .
173(7) . . .
167(7) . . .
165(7) . . .
160(7) . . .
172(7) . . .
168(7) . . .
153(6) . . .
164(7) . . .
166(7) . . .
157(7) . . .
143(6) . . .
182(7) . . .
185(7) . . .
160(7) . . .
172(7) . . .
163(7) . . .
159(7) . . .
157(7) . . .
169(7) . . .
169(7) . . .
157(7) . . .
167(7) . . .
194(7) . . .
175(7) . . .
164(7) . . .
188(7) . . .
193(7) . . .
198(7) . . .
187(7) . . .
178(7) . . .
162(7) . . .
201(7) . . .
171(7) . . .
159(7) . . .
190(7) . . .
186(7) . . .
172(7) . . .
147(7) . . .
164(7) . . .
167(7) . . .
168(7) . . .
163(7) . . .
189(8) . . .
159(7) . . .
175(7) . . .
157(7) . . .
186(7) . . .
179(7) . . .
176(7) . . .
144(6) . . .
162(7) . . .
166(7) . . .
166(7) . . .
171(8) . . .
179(7) . . .
163(7) . . .
169(7) . . .
176(7) . . .
164(7) . . .
169(7) . . .
174(7) . . .
164(7) . . .
178(7) . . .
161(7) . . .
165(7) . . .
163(7) . . .
175(7) . . .
173(7) . . .
189(8) . . .
193(8) . . .
164(7) . . .
176(7) . . .
180(7) . . .
177(7) . . .
179(7) . . .
153(6) . . .
167(7) . . .
183(7) . . .
169(7) . . .
173(7) . . .
155(6) . . .
156(7) . . .
193(8) . . .
186(8) . . .
188(7) . . .
189(7) . . .
182(7) . . .
184(7) . . .
178(7) . . .
160(7) . . .
175(7) . . .
184(7) . . .
197(8) . . .
186(7) . . .
188(7) . . .
188(7) . . .
197(8) . . .
173(7) . . .
161(7) . . .
192(7) . . .
161(7) . . .
164(7) . . .
154(7) . . .
181(7) . . .
161(7) . . .
173(7) . . .
172(7) . . .
174(7) . . .
157(7) . . .
154(7) . . .
164(7) . . .
159(7) . . .
151(7) . . .
155(7) . . .
181(7) . . .
158(7) . . .
150(6) . . .
181(8) . . .
169(7) . . .
163(7) . . .
178(7) . . .
164(7) . . .
178(7) . . .
166(7) . . .
170(7) . . .
156(6) . . .
147(6) . . .
172(7) . . .
148(6) . . .
168(7) . . .
157(7) . . .
152(7) . . .
166(7) . . .
150(7) . . .
142(6) . . .
156(7) . . .
127(6) . . .
144(6) . . .
165(7) . . .
160(7) . . .
160(7) . . .
163(7) . . .
153(7) . . .
170(7) . . .
161(7) . . .
146(6) . . .
168(7) . . .
159(7) . . .
164(7) . . .
157(7) . . .
143(6) . . .
153(7) . . .
157(7) . . .
152(6) . . .
164(7) . . .
172(7) . . .
162(7) . . .
188(7) . . .
172(7) . . .
160(7) . . .
163(7) . . .
192(8) . . .
164(7) . . .
152(6) . . .
165(7) . . .
169(7) . . .
160(7) . . .
157(7) . . .
164(7) . . .
171(7) . . .
178(7) . . .
174(7) . . .
140(6) . . .
156(6) . . .
159(7) . . .
154(7) . . .
165(7) . . .
145(6) . . .
148(6) . . .
165(7) . . .
156(7) . . .
156(7) . . .
165(7) . . .
151(6) . . .
154(6) . . .
177(7) . . .
149(6) . . .
174(7) . . .
174(7) . . .
165(7) . . .
179(7) . . .
164(7) . . .
164(7) . . .
163(7) . . .
173(7) . . .
149(7) . . .
157(7) . . .
168(7) . . .
137(6) . . .
149(6) . . .
149(7) . . .
138(6) . . .
152(6) . . .
153(6) . . .
150(7) . . .
154(7) . . .
151(6) . . .
156(6) . . .
150(6) . . .
143(6) . . .
145(7) . . .
156(7) . . .
167(7) . . .
159(7) . . .
149(6) . . .
170(7) . . .
151(7) . . .
182(7) . . .
169(7) . . .
148(6) . . .
171(7) . . .
151(7) . . .
165(7) . . .
148(7) . . .
167(7) . . .
162(7) . . .
159(7) . . .
152(6) . . .
155(7) . . .
156(7) . . .
146(7) . . .
158(7) . . .
167(7) . . .
165(7) . . .
175(7) . . .
164(7) . . .
171(7) . . .
171(7) . . .
159(7) . . .
158(7) . . .
167(7) . . .
151(7) . . .
159(7) . . .
164(7) . . .
150(7) . . .
145(6) . . .
169(7) . . .
174(7) . . .
152(7) . . .
162(7) . . .
155(7) . . .
173(7) . . .
157(6) . . .
167(7) . . .
164(7) . . .
146(6) . . .
169(7) . . .
162(7) . . .
151(7) . . .
168(7) . . .
170(7) . . .
167(7) . . .
164(7) . . .
147(6) . . .
168(7) . . .
159(7) . . .
160(7) . . .
140(6) . . .
160(7) . . .
163(7) . . .
151(7) . . .
173(7) . . .
151(6) . . .
159(7) . . .
170(7) . . .
181(7) . . .
150(6) . . .
152(7) . . .
155(7) . . .
160(7) . . .
154(7) . . .
163(7) . . .
163(7) . . .
163(7) . . .
179(7) . . .
155(7) . . .
155(6) . . .
153(7) . . .
142(6) . . .
189(8) . . .
164(7) . . .
140(6) . . .
164(7) . . .
156(7) . . .
155(7) . . .
178(7) . . .
183(7) . . .
167(7) . . .
164(7) . . .
165(7) . . .
184(7) . . .
173(7) . . .
160(7) . . .
164(7) . . .
153(6) . . .
177(7) . . .
173(7) . . .
152(7) . . .
170(8) . . .
170(7) . . .
170(7) . . .
161(7) . . .
159(7) . . .
175(7) . . .
156(7) . . .
154(6) . . .
178(7) . . .
165(7) . . .
157(7) . . .
158(7) . . .
161(7) . . .
158(7) . . .
165(7) . . .
157(7) . . .
146(6) . . .
161(7) . . .
158(7) . . .
156(7) . . .
157(7) . . .
156(7) . . .
158(6) . . .
157(7) . . .
168(7) . . .
173(7) . . .
178(7) . . .
151(6) . . .
166(7) . . .
170(7) . . .
157(7) . . .
148(6) . . .
156(7) . . .
159(7) . . .
150(7) . . .
144(7) . . .
150(6) . . .
155(6) . . .
157(7) . . .
145(7) . . .
149(6) . . .
150(6) . . .
153(6) . . .
161(7) . . .
158(7) . . .
175(7) . . .
155(6) . . .
155(7) . . .
151(6) . . .
140(6) . . .
142(7) . . .
160(7) . . .
143(6) . . .
154(7) . . .
151(7) . . .
158(7) . . .
153(6) . . .
167(7) . . .
144(6) . . .
148(7) . . .
136(6) . . .
182(7) . . .
180(7) . . .
169(7) . . .
148(6) . . .
161(7) . . .
161(7) . . .
155(7) . . .
163(7) . . .
151(7) . . .
163(7) . . .
145(6) . . .
155(7) . . .
159(7) . . .
152(7) . . .
153(7) . . .
148(6) . . .
183(7) . . .
159(7) . . .
169(7) . . .
156(7) . . .
157(7) . . .
146(6) . . .
161(7) . . .
142(6) . . .
168(7) . . .
158(7) . . .
145(6) . . .
175(7) . . .
173(7) . . .
156(7) . . .
144(6) . . .
149(6) . . .
165(7) . . .
141(6) . . .
150(6) . . .
148(6) . . .
162(7) . . .
153(7) . . .
151(7) . . .
148(6) . . .
152(6) . . .
155(7) . . .
148(7) . . .
144(7) . . .
149(6) . . .
148(6) . . .
135(6) . . .
156(7) . . .
150(7) . . .
170(7) . . .
154(6) . . .
151(7) . . .
147(7) . . .
164(7) . . .
174(7) . . .
166(7) . . .
167(7) . . .
150(7) . . .
164(7) . . .
159(7) . . .
162(7) . . .
149(7) . . .
153(7) . . .
138(6) . . .
157(7) . . .
145(6) . . .
171(7) . . .
163(7) . . .
144(6) . . .
143(6) . . .
156(7) . . .
142(6) . . .
180(7) . . .
155(7) . . .
150(6) . . .
159(7) . . .
167(7) . . .
159(7) . . .
148(6) . . .
148(6) . . .
141(6) . . .
138(6) . . .
156(7) . . .
144(6) . . .
153(6) . . .
159(7) . . .
136(6) . . .
152(7) . . .
167(7) . . .
163(7) . . .
146(7) . . .
143(7) . . .
156(7) . . .
139(6) . . .
138(6) . . .
135(6) . . .
141(7) . . .
157(7) . . .
173(7) . . .
157(7) . . .
152(7) . . .
146(7) . . .
154(7) . . .
164(7) . . .
156(7) . . .
173(7) . . .
148(7) . . .
159(7) . . .
161(7) . . .
151(6) . . .
165(7) . . .
140(6) . . .
152(7) . . .
154(6) . . .
154(6) . . .
165(7) . . .
157(7) . . .
155(7) . . .
150(6) . . .
162(7) . . .
152(7) . . .
168(7) . . .
164(7) . . .
149(6) . . .
157(7) . . .
138(6) . . .
173(7) . . .
154(6) . . .
166(7) . . .
145(7) . . .
146(7) . . .
159(7) . . .
139(6) . . .
179(7) . . .
146(6) . . .
167(7) . . .
149(6) . . .
158(7) . . .
141(6) . . .
160(7) . . .
154(7) . . .
154(7) . . .
148(6) . . .
158(7) . . .
160(7) . . .
158(7) . . .
158(7) . . .
163(7) . . .
146(6) . . .
155(6) . . .
163(7) . . .
170(7) . . .
158(6) . . .
173(7) . . .
163(7) . . .
150(7) . . .
169(7) . . .
158(7) . . .
160(7) . . .
158(7) . . .
159(7) . . .
140(6) . . .
158(7) . . .
164(7) . . .
140(6) . . .
156(7) . . .
154(7) . . .
150(6) . . .
156(7) . . .
158(7) . . .
167(7) . . .
160(7) . . .
167(7) . . .
145(7) . . .
153(7) . . .
182(7) . . .
166(7) . . .
159(7) . . .
157(7) . . .
164(7) . . .
160(7) . . .
164(7) . . .
152(6) . . .
167(7) . . .
162(7) . . .
155(7) . . .
154(6) . . .
156(7) . . .
168(7) . . .
166(7) . . .
178(7) . . .
156(6) . . .
152(6) . . .
162(7) . . .
164(7) . . .
140(6) . . .
177(7) . . .
166(7) . . .
143(6) . . .
165(7) . . .
178(7) . . .
156(7) . . .
170(7) . . .
164(7) . . .
149(6) . . .
164(7) . . .
158(7) . . .
159(7) . . .
143(6) . . .
146(6) . . .
143(6) . . .
173(7) . . .
154(7) . . .
157(7) . . .
135(6) . . .
158(7) . . .
151(7) . . .
152(7) . . .
145(6) . . .
161(7) . . .
150(7) . . .
160(7) . . .
155(7) . . .
152(6) . . .
147(7) . . .
146(6) . . .
152(7) . . .
143(6) . . .
149(6) . . .
169(7) . . .
148(7) . . .
152(7) . . .
156(7) . . .
150(6) . . .
143(6) . . .
169(7) . . .
166(7) . . .
170(7) . . .
158(7) . . .
172(7) . . .
159(7) . . .
134(6) . . .
144(6) . . .
155(7) . . .
142(7) . . .
132(6) . . .
146(7) . . .
140(6) . . .
140(6) . . .
136(6) . . .
136(6) . . .
141(6) . . .
149(6) . . .
156(7) . . .
154(7) . . .
155(7) . . .
140(6) . . .
136(6) . . .
144(6) . . .
141(6) . . .
148(6) . . .
159(7) . . .
160(7) . . .
155(7) . . .
145(6) . . .
143(6) . . .
142(6) . . .
146(6) . . .
126(6) . . .
143(7) . . .
137(6) . . .
136(6) . . .
144(6) . . .
146(7) . . .
147(7) . . .
145(6) . . .
138(6) . . .
155(6) . . .
136(6) . . .
153(7) . . .
148(7) . . .
140(6) . . .
143(6) . . .
127(6) . . .
154(7) . . .
154(7) . . .
145(6) . . .
126(6) . . .
142(6) . . .
137(6) . . .
151(7) . . .
157(7) . . .
150(6) . . .
153(6) . . .
151(7) . . .
151(7) . . .
157(7) . . .
153(6) . . .
142(6) . . .
150(7) . . .
153(7) . . .
156(7) . . .
147(6) . . .
146(7) . . .
158(7) . . .
127(6) . . .
147(6) . . .
143(6) . . .
143(7) . . .
156(7) . . .
166(7) . . .
155(7) . . .
145(6) . . .
149(6) . . .
152(7) . . .
153(7) . . .
146(6) . . .
132(6) . . .
145(7) . . .
161(7) . . .
172(7) . . .
136(6) . . .
132(6) . . .
125(6) . . .
153(7) . . .
163(7) . . .
148(6) . . .
157(7) . . .
145(6) . . .
139(6) . . .
151(6) . . .
163(7) . . .
149(7) . . .
138(6) . . .
150(7) . . .
143(6) . . .
140(6) . . .
143(6) . . .
143(7) . . .
134(6) . . .
134(6) . . .
150(6) . . .
151(7) . . .
163(7) . . .
143(6) . . .
158(7) . . .
146(6) . . .
139(6) . . .
140(7) . . .
164(7) . . .
161(7) . . .
148(6) . . .
158(7) . . .
172(7) . . .
150(7) . . .
151(6) . . .
140(6) . . .
147(7) . . .
134(6) . . .
160(7) . . .
157(7) . . .
148(6) . . .
147(7) . . .
137(6) . . .
136(6) . . .
138(6) . . .
145(6) . . .
153(7) . . .
149(6) . . .
153(6) . . .
145(6) . . .
134(6) . . .
145(7) . . .
136(6) . . .
135(6) . . .
120(6) . . .
142(7) . . .
137(7) . . .
160(7) . . .
148(6) . . .
151(6) . . .
147(6) . . .
139(6) . . .
143(6) . . .
151(6) . . .
159(7) . . .
144(6) . . .
151(7) . . .
157(7) . . .
148(6) . . .
143(6) . . .
152(7) . . .
150(7) . . .
145(6) . . .
149(6) . . .
147(6) . . .
140(6) . . .
140(7) . . .
146(7) . . .
158(6) . . .
144(6) . . .
128(6) . . .
120(6) . . .
135(6) . . .
174(7) . . .
147(6) . . .
152(7) . . .
138(7) . . .
126(6) . . .
127(6) . . .
141(6) . . .
137(6) . . .
143(7) . . .
136(6) . . .
157(7) . . .
162(7) . . .
151(7) . . .
148(7) . . .
141(6) . . .
154(6) . . .
139(6) . . .
147(7) . . .
125(6) . . .
136(6) . . .
157(7) . . .
154(7) . . .
142(6) . . .
153(7) . . .
138(6) . . .
161(7) . . .
148(7) . . .
141(7) . . .
149(7) . . .
148(6) . . .
143(6) . . .
154(7) . . .
152(7) . . .
150(7) . . .
129(6) . . .
136(6) . . .
139(6) . . .
151(7) . . .
134(6) . . .
137(6) . . .
149(6) . . .
130(6) . . .
133(6) . . .
151(6) . . .
138(6) . . .
158(7) . . .
140(6) . . .
151(7) . . .
146(6) . . .
141(6) . . .
136(6) . . .
140(6) . . .
149(7) . . .
143(6) . . .
146(6) . . .
138(6) . . .
138(7) . . .
152(7) . . .
154(7) . . .
158(6) . . .
150(7) . . .
152(7) . . .
147(7) . . .
139(6) . . .
161(7) . . .
145(7) . . .
153(7) . . .
139(6) . . .
132(6) . . .
126(6) . . .
159(7) . . .
144(6) . . .
147(7) . . .
153(6) . . .
136(6) . . .
144(7) . . .
140(6) . . .
152(7) . . .
144(6) . . .
135(6) . . .
148(7) . . .
161(7) . . .
141(6) . . .
153(6) . . .
145(6) . . .
138(6) . . .
151(7) . . .
135(6) . . .
145(6) . . .
139(6) . . .
135(6) . . .
157(7) . . .
137(6) . . .
133(6) . . .
155(7) . . .
149(7) . . .
142(6) . . .
144(6) . . .
146(6) . . .
152(7) . . .
136(6) . . .
142(6) . . .
131(6) . . .
147(6) . . .
155(7) . . .
131(6) . . .
141(6) . . .
117(6) . . .
131(6) . . .
144(6) . . .
138(6) . . .
139(7) . . .
125(6) . . .
128(6) . . .
151(7) . . .
135(6) . . .
137(6) . . .
139(6) . . .
145(6) . . .
141(6) . . .
152(7) . . .
151(6) . . .
168(7) . . .
146(6) . . .
146(6) . . .
154(7) . . .
140(6) . . .
141(6) . . .
148(6) . . .
144(7) . . .
146(7) . . .
135(6) . . .
143(6) . . .
148(6) . . .
157(7) . . .
144(7) . . .
147(7) . . .
143(6) . . .
154(6) . . .
133(6) . . .
146(7) . . .
136(6) . . .
136(6) . . .
143(6) . . .
147(6) . . .
143(7) . . .
151(7) . . .
139(6) . . .
146(6) . . .
153(7) . . .
143(7) . . .
143(6) . . .
147(6) . . .
149(6) . . .
149(7) . . .
154(7) . . .
137(6) . . .
152(6) . . .
150(6) . . .
163(7) . . .
145(7) . . .
153(7) . . .
144(6) . . .
147(6) . . .
140(6) . . .
135(6) . . .
143(6) . . .
152(6) . . .
139(6) . . .
146(6) . . .
156(7) . . .
142(6) . . .
164(7) . . .
167(7) . . .
136(6) . . .
146(6) . . .
149(6) . . .
143(6) . . .
141(6) . . .
126(6) . . .
148(7) . . .
141(6) . . .
149(6) . . .
161(7) . . .
152(7) . . .
160(7) . . .
138(6) . . .
146(6) . . .
140(6) . . .
164(7) . . .
144(6) . . .
152(6) . . .
135(6) . . .
144(6) . . .
149(7) . . .
160(7) . . .
160(7) . . .
149(6) . . .
126(6) . . .
143(7) . . .
149(7) . . .
148(6) . . .
138(6) . . .
151(7) . . .
147(7) . . .
129(6) . . .
139(6) . . .
153(7) . . .
156(7) . . .
142(6) . . .
140(6) . . .
147(6) . . .
160(7) . . .
150(7) . . .
164(7) . . .
140(6) . . .
144(6) . . .
163(7) . . .
148(7) . . .
145(6) . . .
149(6) . . .
157(6) . . .
149(7) . . .
131(6) . . .
159(7) . . .
156(7) . . .
139(6) . . .
150(7) . . .
156(7) . . .
141(6) . . .
149(6) . . .
144(6) . . .
144(6) . . .
166(7) . . .
158(7) . . .
163(7) . . .
149(6) . . .
157(7) . . .
160(7) . . .
142(7) . . .
144(6) . . .
139(6) . . .
129(6) . . .
145(7) . . .
144(6) . . .
142(6) . . .
149(6) . . .
163(7) . . .
158(7) . . .
125(6) . . .
157(6) . . .
147(6) . . .
146(7) . . .
131(6) . . .
148(7) . . .
145(6) . . .
159(7) . . .
157(7) . . .
141(7) . . .
155(7) . . .
153(6) . . .
149(6) . . .
145(6) . . .
138(6) . . .
125(6) . . .
138(6) . . .
145(6) . . .
146(7) . . .
135(6) . . .
151(7) . . .
156(7) . . .
156(7) . . .
131(6) . . .
172(7) . . .
171(7) . . .
150(6) . . .
148(7) . . .
144(7) . . .
136(6) . . .
122(6) . . .
143(6) . . .
143(6) . . .
148(7) . . .
149(7) . . .
142(6) . . .
162(7) . . .
140(6) . . .
151(7) . . .
155(7) . . .
148(6) . . .
155(7) . . .
146(6) . . .
148(7) . . .
139(6) . . .
166(7) . . .
142(6) . . .
131(6) . . .
152(7) . . .
135(6) . . .
143(6) . . .
138(6) . . .
150(6) . . .
156(7) . . .
140(6) . . .
139(6) . . .
150(7) . . .
147(7) . . .
146(7) . . .
133(6) . . .
167(7) . . .
152(6) . . .
159(7) . . .
132(6) . . .
144(7) . . .
155(6) . . .
153(7) . . .
159(7) . . .
151(7) . . .
152(7) . . .
147(6) . . .
149(6) . . .
137(6) . . .
162(7) . . .
161(7) . . .
155(6) . . .
150(7) . . .
169(7) . . .
162(7) . . .
151(6) . . .
169(7) . . .
175(7) . . .
167(7) . . .
165(7) . . .
158(7) . . .
168(7) . . .
174(7) . . .
156(7) . . .
158(7) . . .
155(6) . . .
157(7) . . .
155(7) . . .
144(7) . . .
163(7) . . .
153(6) . . .
150(6) . . .
142(6) . . .
162(7) . . .
156(7) . . .
142(6) . . .
140(6) . . .
151(7) . . .
139(6) . . .
166(7) . . .
144(6) . . .
139(6) . . .
155(7) . . .
138(6) . . .
169(7) . . .
158(7) . . .
136(6) . . .
158(7) . . .
155(7) . . .
165(7) . . .
165(7) . . .
151(7) . . .
158(7) . . .
133(6) . . .
146(6) . . .
157(7) . . .
162(7) . . .
180(7) . . .
168(7) . . .
170(7) . . .
178(7) . . .
162(7) . . .
146(6) . . .
154(7) . . .
176(7) . . .
141(6) . . .
143(6) . . .
156(7) . . .
156(7) . . .
161(7) . . .
158(7) . . .
154(7) . . .
141(7) . . .
150(7) . . .
147(6) . . .
155(6) . . .
155(7) . . .
150(7) . . .
155(7) . . .
155(7) . . .
159(7) . . .
164(7) . . .
148(7) . . .
179(7) . . .
160(7) . . .
150(7) . . .
147(7) . . .
140(6) . . .
142(6) . . .
152(6) . . .
155(7) . . .
164(7) . . .
157(7) . . .
161(7) . . .
147(6) . . .
140(6) . . .
153(7) . . .
167(7) . . .
148(6) . . .
151(6) . . .
158(7) . . .
149(7) . . .
177(7) . . .
153(6) . . .
163(7) . . .
156(7) . . .
148(7) . . .
158(7) . . .
161(7) . . .
158(7) . . .
143(6) . . .
161(7) . . .
147(7) . . .
149(7) . . .
165(7) . . .
175(7) . . .
140(6) . . .
160(7) . . .
150(6) . . .
163(7) . . .
165(7) . . .
156(7) . . .
180(7) . . .
187(7) . . .
172(7) . . .
157(7) . . .
158(7) . . .
163(7) . . .
168(7) . . .
174(7) . . .
161(7) . . .
154(7) . . .
163(7) . . .
147(6) . . .
142(6) . . .
158(7) . . .
166(7) . . .
170(7) . . .
171(7) . . .
159(7) . . .
137(6) . . .
174(7) . . .
167(7) . . .
153(6) . . .
158(7) . . .
152(7) . . .
128(6) . . .
156(7) . . .
158(7) . . .
144(6) . . .
138(6) . . .
145(7) . . .
137(6) . . .
139(6) . . .
146(6) . . .
153(7) . . .
163(7) . . .
150(6) . . .
149(6) . . .
136(6) . . .
146(7) . . .
139(6) . . .
161(7) . . .
148(6) . . .
145(6) . . .
146(7) . . .
136(6) . . .
147(6) . . .
143(6) . . .
157(7) . . .
148(7) . . .
157(7) . . .
138(6) . . .
143(6) . . .
140(6) . . .
158(7) . . .
140(6) . . .
146(6) . . .
152(6) . . .
146(6) . . .
164(7) . . .
133(6) . . .
145(6) . . .
144(6) . . .
130(6) . . .
136(6) . . .
140(6) . . .
159(7) . . .
156(7) . . .
155(7) . . .
149(7) . . .
150(7) . . .
142(6) . . .
175(7) . . .
146(6) . . .
164(7) . . .
142(6) . . .
139(6) . . .
137(6) . . .
145(7) . . .
159(7) . . .
146(6) . . .
155(6) . . .
141(6) . . .
140(6) . . .
148(7) . . .
137(6) . . .
153(6) . . .
144(7) . . .
152(7) . . .
148(7) . . .
166(7) . . .
146(6) . . .
149(7) . . .
148(7) . . .
162(7) . . .
168(7) . . .
147(6) . . .
134(6) . . .
146(7) . . .
140(6) . . .
132(6) . . .
158(7) . . .
148(6) . . .
147(7) . . .
162(7) . . .
161(7) . . .
152(6) . . .
148(7) . . .
160(7) . . .
162(7) . . .
147(6) . . .
159(7) . . .
150(7) . . .
153(7) . . .
185(7) . . .
169(7) . . .
138(6) . . .
158(7) . . .
149(7) . . .
160(7) . . .
146(6) . . .
167(7) . . .
153(7) . . .
172(7) . . .
159(7) . . .
167(7) . . .
157(7) . . .
160(7) . . .
161(7) . . .
159(7) . . .
148(6) . . .
149(7) . . .
159(7) . . .
153(7) . . .
137(6) . . .
148(6) . . .
141(6) . . .
149(7) . . .
147(6) . . .
157(7) . . .
138(6) . . .
146(6) . . .
134(6) . . .
152(6) . . .
153(6) . . .
153(7) . . .
157(7) . . .
159(7) . . .
168(7) . . .
166(7) . . .
150(6) . . .
152(7) . . .
146(7) . . .
171(7) . . .
157(7) . . .
156(6) . . .
155(7) . . .
157(7) . . .
144(6) . . .
129(6) . . .
153(7) . . .
150(6) . . .
154(7) . . .
152(7) . . .
153(6) . . .
154(6) . . .
179(7) . . .
145(7) . . .
144(7) . . .
153(6) . . .
138(6) . . .
164(7) . . .
164(7) . . .
148(7) . . .
155(6) . . .
155(6) . . .
143(6) . . .
146(7) . . .
149(7) . . .
157(7) . . .
136(6) . . .
164(7) . . .
157(7) . . .
160(7) . . .
152(6) . . .
154(7) . . .
152(7) . . .
134(6) . . .
135(6) . . .
146(6) . . .
148(7) . . .
154(7) . . .
136(6) . . .
151(6) . . .
131(6) . . .
150(7) . . .
152(7) . . .
160(7) . . .
161(7) . . .
158(6) . . .
155(7) . . .
146(7) . . .
156(7) . . .
154(6) . . .
147(6) . . .
142(6) . . .
140(7) . . .
128(6) . . .
155(7) . . .
164(7) . . .
149(6) . . .
156(7) . . .
153(7) . . .
146(6) . . .
145(6) . . .
150(7) . . .
155(7) . . .
137(6) . . .
157(6) . . .
142(6) . . .
147(7) . . .
149(7) . . .
150(7) . . .
156(7) . . .
145(6) . . .
135(6) . . .
151(7) . . .
169(7) . . .
139(6) . . .
143(6) . . .
150(7) . . .
160(7) . . .
145(6) . . .
150(6) . . .
158(7) . . .
144(7) . . .
134(6) . . .
150(6) . . .
153(6) . . .
163(7) . . .
162(7) . . .
157(7) . . .
168(7) . . .
158(7) . . .
163(7) . . .
161(7) . . .
166(7) . . .
153(6) . . .
142(6) . . .
157(7) . . .
158(7) . . .
150(7) . . .
144(6) . . .
163(7) . . .
166(7) . . .
152(7) . . .
161(7) . . .
154(7) . . .
161(6) . . .
144(6) . . .
141(6) . . .
155(6) . . .
158(6) . . .
149(6) . . .
143(6) . . .
137(6) . . .
145(7) . . .
151(6) . . .
154(7) . . .
145(6) . . .
161(7) . . .
155(6) . . .
153(6) . . .
152(6) . . .
150(7) . . .
159(7) . . .
138(6) . . .
148(6) . . .
145(6) . . .
150(7) . . .
124(6) . . .
133(6) . . .
160(7) . . .
136(6) . . .
143(6) . . .
143(6) . . .
148(6) . . .
147(6) . . .
152(7) . . .
140(6) . . .
148(7) . . .
144(6) . . .
143(6) . . .
147(6) . . .
140(6) . . .
145(6) . . .
161(7) . . .
141(6) . . .
145(7) . . .
151(7) . . .
164(7) . . .
124(6) . . .
140(6) . . .
144(7) . . .
131(6) . . .
142(6) . . .
153(6) . . .
153(6) . . .
154(7) . . .
161(7) . . .
151(7) . . .
150(6) . . .
159(7) . . .
156(7) . . .
141(7) . . .
133(6) . . .
155(7) . . .
138(6) . . .
156(7) . . .
152(7) . . .
154(7) . . .
162(7) . . .
151(6) . . .
133(6) . . .
158(7) . . .
158(7) . . .
146(6) . . .
137(6) . . .
144(7) . . .
134(6) . . .
154(7) . . .
135(6) . . .
150(6) . . .
130(6) . . .
142(7) . . .
143(6) . . .
150(6) . . .
128(6) . . .
156(7) . . .
138(6) . . .
161(7) . . .
137(6) . . .
174(7) . . .
148(7) . . .
146(7) . . .
147(6) . . .
151(6) . . .
147(7) . . .
148(6) . . .
161(7) . . .
147(6) . . .
156(7) . . .
177(7) . . .
146(7) . . .
150(7) . . .
141(6) . . .
143(6) . . .
148(7) . . .
144(7) . . .
139(6) . . .
134(6) . . .
155(7) . . .
142(6) . . .
161(7) . . .
143(6) . . .
150(6) . . .
156(7) . . .
136(6) . . .
143(7) . . .
166(7) . . .
154(6) . . .
150(6) . . .
133(6) . . .
149(7) . . .
153(7) . . .
142(6) . . .
139(6) . . .
151(7) . . .
149(7) . . .
158(7) . . .
151(6) . . .
157(7) . . .
144(6) . . .
146(7) . . .
135(6) . . .
131(6) . . .
142(6) . . .
152(7) . . .
151(7) . . .
146(6) . . .
157(6) . . .
168(7) . . .
148(7) . . .
130(6) . . .
140(6) . . .
141(6) . . .
158(7) . . .
155(7) . . .
146(6) . . .
150(6) . . .
156(6) . . .
139(6) . . .
140(6) . . .
141(6) . . .
151(7) . . .
153(6) . . .
129(6) . . .
144(7) . . .
138(6) . . .
143(6) . . .
151(6) . . .
142(7) . . .
137(7) . . .
145(6) . . .
145(6) . . .
148(6) . . .
147(6) . . .
143(6) . . .
157(7) . . .
154(6) . . .
153(7) . . .
150(6) . . .
161(7) . . .
142(6) . . .
143(6) . . .
144(6) . . .
152(7) . . .
140(7) . . .
142(6) . . .
156(6) . . .
161(7) . . .
152(7) . . .
162(7) . . .
148(6) . . .
157(6) . . .
155(7) . . .
154(7) . . .
157(7) . . .
156(7) . . .
166(7) . . .
143(6) . . .
151(7) . . .
161(7) . . .
177(7) . . .
154(7) . . .
151(7) . . .
154(7) . . .
162(7) . . .
150(6) . . .
152(6) . . .
146(7) . . .
143(7) . . .
150(7) . . .
156(6) . . .
156(7) . . .
135(6) . . .
152(7) . . .
163(7) . . .
150(6) . . .
150(6) . . .
170(7) . . .
158(7) . . .
159(7) . . .
145(6) . . .
142(6) . . .
145(7) . . .
154(7) . . .
155(7) . . .
152(6) . . .
162(7) . . .
158(7) . . .
158(7) . . .
150(7) . . .
146(6) . . .
142(6) . . .
157(7) . . .
158(7) . . .
151(7) . . .
159(7) . . .
138(6) . . .
151(7) . . .
132(6) . . .
132(6) . . .
149(6) . . .
156(7) . . .
147(6) . . .
150(7) . . .
124(6) . . .
141(6) . . .
161(7) . . .
153(7) . . .
149(7) . . .
151(6) . . .
139(6) . . .
147(7) . . .
153(7) . . .
155(7) . . .
131(6) . . .
150(6) . . .
151(7) . . .
146(7) . . .
137(6) . . .
145(6) . . .
162(7) . . .
145(6) . . .
137(7) . . .
129(6) . . .
143(6) . . .
137(6) . . .
145(7) . . .
152(7) . . .
154(7) . . .
153(6) . . .
138(6) . . .
150(7) . . .
153(7) . . .
153(7) . . .
153(6) . . .
150(6) . . .
147(7) . . .
143(7) . . .
141(6) . . .
148(6) . . .
146(6) . . .
156(7) . . .
147(7) . . .
147(7) . . .
153(6) . . .
145(6) . . .
158(7) . . .
155(7) . . .
145(7) . . .
154(6) . . .
138(6) . . .
143(6) . . .
156(7) . . .
149(7) . . .
136(6) . . .
139(6) . . .
142(6) . . .
138(6) . . .
143(6) . . .
162(7) . . .
170(7) . . .
156(7) . . .
139(6) . . .
139(6) . . .
151(6) . . .
175(7) . . .
171(7) . . .
148(6) . . .
167(7) . . .
153(6) . . .
141(7) . . .
144(7) . . .
141(6) . . .
162(7) . . .
160(7) . . .
151(7) . . .
154(7) . . .
125(6) . . .
139(6) . . .
159(7) . . .
139(6) . . .
140(6) . . .
162(7) . . .
137(6) . . .
133(6) . . .
154(7) . . .
147(7) . . .
138(6) . . .
159(7) . . .
147(6) . . .
163(7) . . .
153(7) . . .
141(6) . . .
160(7) . . .
163(7) . . .
150(7) . . .
142(7) . . .
168(7) . . .
156(7) . . .
147(6) . . .
173(7) . . .
148(7) . . .
142(6) . . .
144(6) . . .
154(6) . . .
157(7) . . .
151(7) . . .
154(6) . . .
156(6) . . .
147(6) . . .
146(6) . . .
151(7) . . .
154(7) . . .
143(6) . . .
132(6) . . .
139(6) . . .
150(7) . . .
141(6) . . .
156(7) . . .
148(7) . . .
156(7) . . .
152(7) . . .
148(6) . . .
149(6) . . .
141(6) . . .
144(7) . . .
143(7) . . .
159(7) . . .
151(6) . . .
142(6) . . .
143(6) . . .
156(7) . . .
159(7) . . .
158(7) . . .
133(6) . . .
136(6) . . .
152(6) . . .
158(7) . . .
165(7) . . .
163(7) . . .
154(7) . . .
159(7) . . .
150(6) . . .
171(7) . . .
174(7) . . .
157(7) . . .
167(7) . . .
188(7) . . .
158(7) . . .
160(7) . . .
151(6) . . .
154(7) . . .
142(6) . . .
164(7) . . .
154(7) . . .
176(7) . . .
155(7) . . .
153(6) . . .
158(7) . . .
147(7) . . .
151(7) . . .
153(6) . . .
144(6) . . .
159(7) . . .
153(7) . . .
164(7) . . .
170(7) . . .
154(6) . . .
140(6) . . .
147(7) . . .
152(7) . . .
133(6) . . .
144(6) . . .
155(7) . . .
171(7) . . .
157(7) . . .
161(7) . . .
149(6) . . .
152(7) . . .
155(7) . . .
157(7) . . .
159(7) . . .
146(6) . . .
149(6) . . .
143(7) . . .
159(7) . . .
139(6) . . .
154(6) . . .
135(6) . . .
142(6) . . .
140(6) . . .
145(6) . . .
165(7) . . .
149(6) . . .
139(6) . . .
148(7) . . .
141(6) . . .
141(6) . . .
155(7) . . .
148(7) . . .
149(7) . . .
145(6) . . .
155(7) . . .
157(7) . . .
159(7) . . .
153(6) . . .
151(6) . . .
144(6) . . .
145(7) . . .
141(6) . . .
140(6) . . .
156(6) . . .
137(6) . . .
149(7) . . .
136(6) . . .
128(6) . . .
134(6) . . .
151(7) . . .
131(6) . . .
130(6) . . .
145(6) . . .
141(6) . . .
140(6) . . .
148(7) . . .
141(6) . . .
147(6) . . .
151(6) . . .
148(6) . . .
148(7) . . .
150(6) . . .
154(6) . . .
150(6) . . .
146(7) . . .
133(6) . . .
127(6) . . .
142(6) . . .
152(7) . . .
151(7) . . .
156(7) . . .
147(7) . . .
148(6) . . .
135(6) . . .
154(7) . . .
149(7) . . .
149(7) . . .
148(6) . . .
156(7) . . .
155(7) . . .
142(6) . . .
141(6) . . .
149(6) . . .
152(7) . . .
156(7) . . .
154(7) . . .
161(7) . . .
142(6) . . .
149(7) . . .
157(7) . . .
141(6) . . .
140(6) . . .
130(6) . . .
153(7) . . .
146(7) . . .
146(6) . . .
153(6) . . .
143(6) . . .
144(7) . . .
147(7) . . .
157(7) . . .
143(6) . . .
145(6) . . .
141(6) . . .
155(7) . . .
147(7) . . .
151(6) . . .
161(7) . . .
157(7) . . .
166(7) . . .
143(6) . . .
163(7) . . .
153(6) . . .
157(7) . . .
151(7) . . .
143(6) . . .
157(7) . . .
132(6) . . .
151(7) . . .
156(7) . . .
142(6) . . .
158(6) . . .
159(7) . . .
142(7) . . .
146(7) . . .
169(7) . . .
155(6) . . .
140(6) . . .
154(7) . . .
146(6) . . .
151(7) . . .
158(7) . . .
154(7) . . .
134(6) . . .
148(7) . . .
145(7) . . .
151(6) . . .
159(7) . . .
145(6) . . .
147(7) . . .
151(7) . . .
145(6) . . .
144(6) . . .
142(7) . . .
144(6) . . .
145(6) . . .
150(6) . . .
148(7) . . .
148(7) . . .
139(6) . . .
144(6) . . .
156(6) . . .
140(6) . . .
134(6) . . .
163(7) . . .
155(7) . . .
135(6) . . .
157(7) . . .
163(7) . . .
159(7) . . .
142(6) . . .
151(6) . . .
160(7) . . .
137(7) . . .
132(6) . . .
151(6) . . .
146(6) . . .
145(6) . . .
136(7) . . .
127(6) . . .
153(6) . . .
142(6) . . .
142(6) . . .
146(7) . . .
142(6) . . .
151(6) . . .
138(6) . . .
153(7) . . .
144(7) . . .
130(6) . . .
148(6) . . .
145(6) . . .
145(7) . . .
133(6) . . .
150(7) . . .
149(6) . . .
139(6) . . .
134(6) . . .
132(6) . . .
139(6) . . .
139(6) . . .
135(6) . . .
135(6) . . .
139(6) . . .
135(6) . . .
141(6) . . .
145(7) . . .
136(6) . . .
157(7) . . .
144(6) . . .
150(6) . . .
151(7) . . .
141(6) . . .
145(6) . . .
151(6) . . .
158(7) . . .
158(7) . . .
127(6) . . .
150(7) . . .
139(6) . . .
148(6) . . .
117(6) . . .
140(7) . . .
142(6) . . .
147(6) . . .
158(7) . . .
153(7) . . .
136(6) . . .
128(6) . . .
148(6) . . .
157(7) . . .
153(7) . . .
152(7) . . .
140(6) . . .
129(6) . . .
154(7) . . .
150(7) . . .
141(7) . . .
140(6) . . .
152(6) . . .
142(6) . . .
142(6) . . .
130(6) . . .
148(7) . . .
147(6) . . .
151(6) . . .
144(7) . . .
137(6) . . .
160(7) . . .
163(7) . . .
145(7) . . .
155(7) . . .
165(7) . . .
152(7) . . .
141(6) . . .
150(7) . . .
133(6) . . .
158(7) . . .
145(6) . . .
151(6) . . .
156(7) . . .
147(6) . . .
154(7) . . .
152(6) . . .
137(6) . . .
135(6) . . .
149(7) . . .
143(6) . . .
159(7) . . .
149(6) . . .
159(7) . . .
136(6) . . .
153(7) . . .
144(6) . . .
152(7) . . .
146(6) . . .
156(7) . . .
153(7) . . .
154(6) . . .
137(6) . . .
140(6) . . .
150(7) . . .
164(7) . . .
159(7) . . .
155(7) . . .
138(6) . . .
127(6) . . .
129(6) . . .
128(6) . . .
135(6) . . .
140(6) . . .
132(6) . . .
129(6) . . .
146(6) . . .
149(6) . . .
160(7) . . .
129(6) . . .
140(6) . . .
144(6) . . .
156(7) . . .
139(6) . . .
140(6) . . .
131(6) . . .
135(6) . . .
143(6) . . .
149(7) . . .
132(6) . . .
137(6) . . .
147(6) . . .
151(7) . . .
154(7) . . .
164(7) . . .
171(7) . . .
155(7) . . .
160(7) . . .
147(7) . . .
152(7) . . .
137(6) . . .
154(7) . . .
141(6) . . .
139(6) . . .
141(6) . . .
137(6) . . .
156(6) . . .
146(7) . . .
158(7) . . .
147(7) . . .
137(6) . . .
134(6) . . .
147(7) . . .
161(7) . . .
130(6) . . .
151(6) . . .
148(6) . . .
149(6) . . .
131(6) . . .
143(6) . . .
166(7) . . .
131(6) . . .
153(7) . . .
141(6) . . .
154(7) . . .
146(6) . . .
157(7) . . .
147(6) . . .
148(7) . . .
152(6) . . .
156(6) . . .
142(6) . . .
155(7) . . .
145(7) . . .
148(6) . . .
142(6) . . .
140(6) . . .
135(6) . . .
150(6) . . .
150(6) . . .
159(7) . . .
140(6) . . .
167(7) . . .
149(7) . . .
150(6) . . .
135(6) . . .
163(7) . . .
157(7) . . .
142(7) . . .
158(7) . . .
149(6) . . .
139(6) . . .
155(7) . . .
149(7) . . .
154(6) . . .
148(6) . . .
141(6) . . .
140(7) . . .
130(6) . . .
147(6) . . .
136(6) . . .
127(6) . . .
143(7) . . .
147(7) . . .
151(6) . . .
139(6) . . .
150(7) . . .
143(6) . . .
145(6) . . .
138(6) . . .
141(6) . . .
154(7) . . .
139(6) . . .
159(7) . . .
155(6) . . .
159(7) . . .
140(6) . . .
142(7) . . .
138(6) . . .
142(6) . . .
141(6) . . .
142(6) . . .
157(7) . . .
138(6) . . .
145(6) . . .
143(6) . . .
149(6) . . .
155(7) . . .
148(7) . . .
134(6) . . .
159(7) . . .
158(7) . . .
157(7) . . .
141(6) . . .
139(6) . . .
143(7) . . .
139(7) . . .
150(7) . . .
136(6) . . .
154(6) . . .
126(6) . . .
138(7) . . .
145(6) . . .
165(7) . . .
149(6) . . .
131(6) . . .
138(6) . . .
152(6) . . .
134(6) . . .
159(7) . . .
169(7) . . .
144(7) . . .
133(6) . . .
148(6) . . .
132(6) . . .
136(6) . . .
138(6) . . .
150(7) . . .
161(7) . . .
158(7) . . .
164(7) . . .
142(6) . . .
154(7) . . .
141(6) . . .
148(6) . . .
146(7) . . .
138(6) . . .
149(7) . . .
145(6) . . .
136(6) . . .
146(7) . . .
140(7) . . .
135(6) . . .
129(6) . . .
144(6) . . .
146(7) . . .
140(6) . . .
127(6) . . .
150(6) . . .
150(7) . . .
151(7) . . .
131(6) . . .
147(7) . . .
148(6) . . .
157(7) . . .
163(7) . . .
169(7) . . .
160(7) . . .
149(6) . . .
138(6) . . .
156(7) . . .
138(6) . . .
150(6) . . .
158(7) . . .
144(6) . . .
153(7) . . .
148(7) . . .
153(7) . . .
160(7) . . .
157(7) . . .
162(7) . . .
141(7) . . .
141(6) . . .
144(6) . . .
150(7) . . .
151(7) . . .
167(7) . . .
144(6) . . .
139(6) . . .
141(6) . . .
152(7) . . .
142(6) . . .
149(6) . . .
158(7) . . .
143(7) . . .
130(6) . . .
153(7) . . .
148(6) . . .
132(6) . . .
130(6) . . .
133(6) . . .
145(7) . . .
158(7) . . .
144(6) . . .
145(6) . . .
163(7) . . .
137(6) . . .
144(6) . . .
156(7) . . .
139(6) . . .
149(6) . . .
145(6) . . .
146(6) . . .
144(7) . . .
133(6) . . .
132(6) . . .
142(6) . . .
138(6) . . .
141(6) . . .
146(7) . . .
147(7) . . .
141(6) . . .
150(6) . . .
148(6) . . .
129(6) . . .
140(6) . . .
145(6) . . .
148(6) . . .
151(7) . . .
155(7) . . .
137(6) . . .
119(6) . . .
120(6) . . .
147(7) . . .
146(7) . . .
126(6) . . .
136(6) . . .
151(6) . . .
155(7) . . .
152(7) . . .
132(6) . . .
133(6) . . .
126(6) . . .
139(6) . . .
137(6) . . .
153(7) . . .
157(7) . . .
153(7) . . .
139(6) . . .
153(7) . . .
134(6) . . .
143(6) . . .
134(6) . . .
134(6) . . .
137(6) . . .
160(7) . . .
135(6) . . .
129(6) . . .
132(6) . . .
139(6) . . .
126(6) . . .
123(6) . . .
155(7) . . .
156(7) . . .
150(7) . . .
149(6) . . .
146(6) . . .
140(6) . . .
155(7) . . .
159(7) . . .
152(6) . . .
134(6) . . .
156(7) . . .
143(7) . . .
138(6) . . .
143(6) . . .
159(7) . . .
152(7) . . .
147(7) . . .
151(7) . . .
137(6) . . .
139(6) . . .
170(7) . . .
150(7) . . .
145(6) . . .
154(7) . . .
146(6) . . .
159(7) . . .
159(7) . . .
157(7) . . .
146(6) . . .
157(7) . . .
158(7) . . .
154(7) . . .
148(6) . . .
157(7) . . .
148(6) . . .
155(7) . . .
164(7) . . .
159(7) . . .
150(6) . . .
130(6) . . .
145(6) . . .
149(7) . . .
150(6) . . .
159(7) . . .
164(7) . . .
157(7) . . .
139(6) . . .
142(6) . . .
139(6) . . .
159(7) . . .
144(7) . . .
137(6) . . .
141(6) . . .
142(6) . . .
162(7) . . .
137(6) . . .
141(6) . . .
159(7) . . .
156(6) . . .
148(7) . . .
131(6) . . .
144(6) . . .
140(6) . . .
128(6) . . .
138(6) . . .
139(7) . . .
135(6) . . .
144(6) . . .
162(7) . . .
150(7) . . .
137(6) . . .
129(6) . . .
122(6) . . .
140(6) . . .
145(7) . . .
138(7) . . .
132(6) . . .
145(6) . . .
150(6) . . .
149(7) . . .
148(7) . . .
138(6) . . .
134(6) . . .
143(6) . . .
158(7) . . .
152(7) . . .
153(7) . . .
149(6) . . .
130(6) . . .
141(7) . . .
156(7) . . .
141(6) . . .
136(6) . . .
156(7) . . .
127(6) . . .
136(6) . . .
141(6) . . .
147(6) . . .
152(7) . . .
152(7) . . .
131(6) . . .
146(6) . . .
142(6) . . .
141(6) . . .
149(7) . . .
139(6) . . .
152(6) . . .
152(6) . . .
146(7) . . .
154(7) . . .
134(6) . . .
135(6) . . .
154(6) . . .
144(6) . . .
151(7) . . .
162(7) . . .
147(6) . . .
152(6) . . .
147(7) . . .
148(7) . . .
142(6) . . .
153(6) . . .
150(6) . . .
149(7) . . .
144(7) . . .
167(7) . . .
158(7) . . .
132(6) . . .
154(7) . . .
147(6) . . .
145(6) . . .
144(6) . . .
142(6) . . .
150(7) . . .
133(6) . . .
137(6) . . .
160(7) . . .
156(7) . . .
145(6) . . .
154(7) . . .
156(7) . . .
161(7) . . .
155(7) . . .
144(7) . . .
162(7) . . .
149(6) . . .
139(6) . . .
145(6) . . .
161(7) . . .
157(7) . . .
159(7) . . .
155(6) . . .
165(7) . . .
154(7) . . .
141(6) . . .
156(6) . . .
162(7) . . .
166(7) . . .
151(7) . . .
136(6) . . .
138(6) . . .
143(6) . . .
148(7) . . .
147(7) . . .
138(6) . . .
145(6) . . .
136(6) . . .
133(6) . . .
138(7) . . .
141(7) . . .
153(6) . . .
148(6) . . .
146(6) . . .
142(7) . . .
142(7) . . .
127(6) . . .
123(6) . . .
156(7) . . .
135(6) . . .
139(6) . . .
141(6) . . .
135(6) . . .
153(7) . . .
144(7) . . .
137(6) . . .
136(6) . . .
139(6) . . .
158(7) . . .
139(6) . . .
132(6) . . .
140(6) . . .
148(7) . . .
137(6) . . .
146(7) . . .
146(6) . . .
139(6) . . .
163(7) . . .
136(6) . . .
130(6) . . .
150(7) . . .
131(6) . . .
163(7) . . .
150(6) . . .
158(7) . . .
137(6) . . .
140(6) . . .
150(7) . . .
141(6) . . .
139(6) . . .
128(6) . . .
141(6) . . .
143(6) . . .
152(7) . . .
149(7) . . .
139(6) . . .
137(6) . . .
149(7) . . .
139(7) . . .
151(7) . . .
160(7) . . .
141(6) . . .
132(6) . . .
137(7) . . .
150(7) . . .
149(6) . . .
152(6) . . .
130(6) . . .
135(6) . . .
156(7) . . .
148(6) . . .
139(6) . . .
149(7) . . .
149(7) . . .
139(6) . . .
149(6) . . .
152(6) . . .
153(7) . . .
148(7) . . .
128(6) . . .
152(6) . . .
141(6) . . .
145(7) . . .
135(6) . . .
132(6) . . .
150(6) . . .
149(7) . . .
118(6) . . .
136(6) . . .
133(6) . . .
157(7) . . .
154(7) . . .
155(7) . . .
152(7) . . .
147(7) . . .
154(6) . . .
139(6) . . .
145(7) . . .
159(7) . . .
145(6) . . .
135(6) . . .
143(6) . . .
152(7) . . .
143(6) . . .
134(6) . . .
149(6) . . .
149(7) . . .
133(6) . . .
135(6) . . .
150(6) . . .
137(6) . . .
148(7) . . .
138(7) . . .
140(7) . . .
142(6) . . .
129(6) . . .
142(6) . . .
149(7) . . .
133(6) . . .
160(7) . . .
150(6) . . .
148(7) . . .
152(7) . . .
141(6) . . .
119(6) . . .
130(6) . . .
132(6) . . .
119(6) . . .
152(7) . . .
145(6) . . .
138(6) . . .
142(7) . . .
135(6) . . .
139(6) . . .
133(6) . . .
136(6) . . .
156(7) . . .
143(7) . . .
133(6) . . .
145(6) . . .
140(6) . . .
134(6) . . .
153(7) . . .
142(6) . . .
134(6) . . .
128(6) . . .
144(7) . . .
129(6) . . .
130(6) . . .
151(6) . . .
146(6) . . .
140(7) . . .
149(7) . . .
139(6) . . .
139(6) . . .
147(7) . . .
149(7) . . .
137(6) . . .
135(6) . . .
140(6) . . .
152(7) . . .
156(7) . . .
146(7) . . .
138(6) . . .
125(6) . . .
129(6) . . .
117(6) . . .
138(6) . . .
149(6) . . .
143(6) . . .
144(6) . . .
135(6) . . .
155(7) . . .
142(6) . . .
142(6) . . .
149(6) . . .
147(7) . . .
144(7) . . .
132(6) . . .
136(6) . . .
138(6) . . .
143(7) . . .
149(7) . . .
151(6) . . .
147(7) . . .
148(7) . . .
139(6) . . .
145(6) . . .
134(6) . . .
156(7) . . .
134(6) . . .
143(6) . . .
130(6) . . .
139(6) . . .
140(6) . . .
144(7) . . .
140(6) . . .
152(6) . . .
153(6) . . .
158(7) . . .
132(6) . . .
132(6) . . .
142(6) . . .
136(6) . . .
126(6) . . .
146(7) . . .
159(7) . . .
139(6) . . .
148(6) . . .
140(6) . . .
139(6) . . .
141(6) . . .
140(6) . . .
140(6) . . .
148(7) . . .
139(6) . . .
131(6) . . .
139(6) . . .
149(7) . . .
136(6) . . .
146(6) . . .
138(6) . . .
120(6) . . .
120(6) . . .
125(6) . . .
141(6) . . .
131(6) . . .
134(6) . . .
146(6) . . .
146(7) . . .
116(6) . . .
139(6) . . .
129(6) . . .
127(6) . . .
143(6) . . .
146(7) . . .
140(6) . . .
144(6) . . .
142(7) . . .
130(6) . . .
152(7) . . .
123(6) . . .
135(6) . . .
140(6) . . .
146(6) . . .
142(6) . . .
121(6) . . .
140(6) . . .
133(6) . . .
154(7) . . .
145(6) . . .
129(6) . . .
146(6) . . .
149(7) . . .
161(7) . . .
146(6) . . .
134(6) . . .
139(6) . . .
141(6) . . .
146(7) . . .
146(6) . . .
129(6) . . .
118(6) . . .
130(6) . . .
134(7) . . .
125(6) . . .
130(6) . . .
137(6) . . .
141(6) . . .
143(6) . . .
149(7) . . .
148(6) . . .
136(6) . . .
148(7) . . .
137(6) . . .
128(6) . . .
138(6) . . .
148(6) . . .
130(6) . . .
142(7) . . .
146(7) . . .
145(6) . . .
141(6) . . .
148(7) . . .
150(7) . . .
140(6) . . .
146(6) . . .
127(6) . . .
132(6) . . .
150(7) . . .
131(6) . . .
127(6) . . .
125(6) . . .
134(6) . . .
135(6) . . .
127(6) . . .
127(6) . . .
137(6) . . .
150(7) . . .
149(7) . . .
143(6) . . .
142(6) . . .
121(6) . . .
138(7) . . .
136(6) . . .
118(6) . . .
138(6) . . .
154(7) . . .
153(7) . . .
141(6) . . .
157(7) . . .
156(7) . . .
133(6) . . .
141(7) . . .
138(6) . . .
145(6) . . .
150(6) . . .
156(7) . . .
152(7) . . .
129(6) . . .
138(6) . . .
129(6) . . .
139(6) . . .
142(6) . . .
140(6) . . .
131(6) . . .
135(6) . . .
141(6) . . .
156(7) . . .
120(6) . . .
131(6) . . .
138(6) . . .
143(6) . . .
134(6) . . .
136(6) . . .
141(6) . . .
133(6) . . .
137(6) . . .
141(6) . . .
127(6) . . .
131(6) . . .
146(6) . . .
144(7) . . .
132(6) . . .
138(6) . . .
153(6) . . .
136(6) . . .
140(7) . . .
129(6) . . .
141(6) . . .
126(6) . . .
134(6) . . .
131(6) . . .
146(6) . . .
144(6) . . .
138(6) . . .
147(7) . . .
132(6) . . .
135(6) . . .
136(6) . . .
143(6) . . .
143(6) . . .
145(7) . . .
138(6) . . .
163(7) . . .
138(6) . . .
144(7) . . .
141(7) . . .
152(7) . . .
156(7) . . .
144(6) . . .
133(6) . . .
128(6) . . .
137(6) . . .
127(6) . . .
143(6) . . .
153(7) . . .
143(6) . . .
129(6) . . .
146(6) . . .
139(6) . . .
144(7) . . .
127(6) . . .
135(6) . . .
133(6) . . .
141(6) . . .
151(7) . . .
129(6) . . .
135(6) . . .
135(6) . . .
147(6) . . .
129(6) . . .
129(6) . . .
148(6) . . .
135(6) . . .
138(7) . . .
142(7) . . .
155(7) . . .
144(6) . . .
146(6) . . .
146(6) . . .
130(6) . . .
141(6) . . .
157(7) . . .
130(6) . . .
158(7) . . .
167(7) . . .
144(6) . . .
139(6) . . .
134(6) . . .
132(6) . . .
139(6) . . .
141(6) . . .
137(6) . . .
141(6) . . .
141(6) . . .
125(6) . . .
141(6) . . .
134(6) . . .
135(6) . . .
144(6) . . .
125(6) . . .
141(6) . . .
128(6) . . .
145(6) . . .
146(7) . . .
140(6) . . .
148(7) . . .
141(6) . . .
134(6) . . .
152(7) . . .
155(7) . . .
137(6) . . .
138(6) . . .
150(7) . . .
134(6) . . .
139(6) . . .
130(6) . . .
131(6) . . .
155(7) . . .
143(6) . . .
135(6) . . .
121(6) . . .
138(6) . . .
121(6) . . .
161(7) . . .
137(6) . . .
121(6) . . .
134(6) . . .
130(6) . . .
142(6) . . .
128(6) . . .
132(6) . . .
130(6) . . .
132(6) . . .
141(7) . . .
145(6) . . .
139(6) . . .
129(6) . . .
134(6) . . .
139(7) . . .
152(7) . . .
134(6) . . .
144(6) . . .
147(7) . . .
127(6) . . .
141(6) . . .
160(7) . . .
129(6) . . .
135(6) . . .
146(7) . . .
136(6) . . .
142(6) . . .
147(6) . . .
139(6) . . .
132(6) . . .
145(7) . . .
127(6) . . .
133(6) . . .
130(6) . . .
138(6) . . .
153(7) . . .
131(6) . . .
145(6) . . .
143(7) . . .
148(7) . . .
142(6) . . .
152(6) . . .
141(6) . . .
134(6) . . .
128(6) . . .
129(6) . . .
150(6) . . .
134(6) . . .
151(7) . . .
142(6) . . .
136(6) . . .
149(6) . . .
141(6) . . .
133(6) . . .
141(6) . . .
139(6) . . .
136(6) . . .
138(6) . . .
141(7) . . .
142(6) . . .
140(6) . . .
127(6) . . .
127(6) . . .
131(6) . . .
146(7) . . .
120(6) . . .
129(6) . . .
126(6) . . .
140(7) . . .
142(6) . . .
133(6) . . .
154(6) . . .
139(6) . . .
133(6) . . .
133(6) . . .
142(6) . . .
122(6) . . .
147(7) . . .
136(7) . . .
121(6) . . .
119(6) . . .
133(6) . . .
146(7) . . .
139(6) . . .
143(6) . . .
130(6) . . .
136(6) . . .
127(6) . . .
142(7) . . .
126(6) . . .
136(6) . . .
135(6) . . .
135(6) . . .
138(6) . . .
147(7) . . .
145(6) . . .
141(6) . . .
145(7) . . .
147(7) . . .
134(6) . . .
144(6) . . .
133(6) . . .
131(6) . . .
144(6) . . .
141(6) . . .
140(6) . . .
124(6) . . .
120(6) . . .
140(7) . . .
135(6) . . .
124(6) . . .
139(6) . . .
138(7) . . .
139(6) . . .
144(6) . . .
149(6) . . .
138(6) . . .
139(7) . . .
134(6) . . .
147(6) . . .
136(6) . . .
126(6) . . .
148(7) . . .
161(7) . . .
148(6) . . .
131(6) . . .
139(6) . . .
142(7) . . .
138(6) . . .
133(6) . . .
149(6) . . .
132(6) . . .
136(7) . . .
119(6) . . .
131(6) . . .
115(6) . . .
142(6) . . .
128(6) . . .
125(6) . . .
134(6) . . .
137(6) . . .
135(6) . . .
151(7) . . .
129(6) . . .
139(6) . . .
135(6) . . .
140(7) . . .
131(6) . . .
146(6) . . .
125(6) . . .
124(6) . . .
156(7) . . .
129(6) . . .
112(6) . . .
115(6) . . .
134(6) . . .
125(6) . . .
127(6) . . .
130(6) . . .
129(6) . . .
138(6) . . .
124(6) . . .
127(6) . . .
139(6) . . .
136(6) . . .
125(6) . . .
135(6) . . .
140(6) . . .
135(6) . . .
130(6) . . .
147(7) . . .
144(7) . . .
116(6) . . .
142(6) . . .
131(6) . . .
125(6) . . .
131(6) . . .
129(6) . . .
133(6) . . .
140(6) . . .
132(6) . . .
142(7) . . .
144(6) . . .
142(6) . . .
141(6) . . .
129(6) . . .
147(7) . . .
133(6) . . .
128(6) . . .
135(6) . . .
145(7) . . .
130(6) . . .
134(6) . . .
138(6) . . .
131(6) . . .
143(6) . . .
140(6) . . .
116(6) . . .
134(6) . . .
132(6) . . .
145(7) . . .
143(6) . . .
123(6) . . .
123(6) . . .
136(6) . . .
143(7) . . .
129(6) . . .
143(6) . . .
142(6) . . .
130(6) . . .
117(6) . . .
130(6) . . .
136(6) . . .
118(6) . . .
134(6) . . .
149(7) . . .
139(6) . . .
136(6) . . .
131(6) . . .
131(6) . . .
134(6) . . .
135(6) . . .
139(6) . . .
144(6) . . .
133(6) . . .
130(6) . . .
126(6) . . .
137(6) . . .
132(6) . . .
126(6) . . .
151(7) . . .
130(6) . . .
148(6) . . .
123(6) . . .
125(6) . . .
132(6) . . .
130(6) . . .
138(6) . . .
129(6) . . .
134(6) . . .
137(6) . . .
126(6) . . .
122(6) . . .
111(6) . . .
146(7) . . .
142(6) . . .
129(6) . . .
133(6) . . .
144(6) . . .
138(6) . . .
136(6) . . .
132(6) . . .
121(6) . . .
131(6) . . .
132(6) . . .
130(6) . . .
138(6) . . .
137(6) . . .
139(6) . . .
138(7) . . .
145(6) . . .
141(6) . . .
125(6) . . .
125(6) . . .
140(7) . . .
136(6) . . .
147(6) . . .
147(6) . . .
142(7) . . .
125(6) . . .
148(6) . . .
137(6) . . .
151(6) . . .
129(6) . . .
115(6) . . .
140(6) . . .
135(6) . . .
138(6) . . .
135(6) . . .
142(7) . . .
135(6) . . .
127(6) . . .
133(6) . . .
130(6) . . .
132(6) . . .
134(6) . . .
139(6) . . .
135(6) . . .
122(6) . . .
117(6) . . .
143(6) . . .
122(6) . . .
136(6) . . .
132(6) . . .
143(7) . . .
123(6) . . .
140(6) . . .
120(6) . . .
126(6) . . .
141(6) . . .
137(6) . . .
125(6) . . .
140(6) . . .
143(7) . . .
131(6) . . .
131(6) . . .
149(6) . . .
149(7) . . .
141(7) . . .
135(6) . . .
135(6) . . .
121(6) . . .
140(6) . . .
145(7) . . .
127(6) . . .
136(6) . . .
139(6) . . .
125(6) . . .
124(6) . . .
146(7) . . .
116(6) . . .
139(6) . . .
127(6) . . .
135(6) . . .
137(6) . . .
129(6) . . .
130(6) . . .
131(6) . . .
131(6) . . .
133(6) . . .
133(6) . . .
136(6) . . .
125(6) . . .
125(6) . . .
165(7) . . .
144(6) . . .
128(6) . . .
146(6) . . .
128(6) . . .
136(6) . . .
129(6) . . .
134(6) . . .
143(6) . . .
130(6) . . .
129(6) . . .
130(6) . . .
141(7) . . .
138(6) . . .
132(6) . . .
128(6) . . .
134(6) . . .
143(6) . . .
120(6) . . .
132(6) . . .
148(6) . . .
123(6) . . .
133(6) . . .
125(6) . . .
137(6) . . .
124(6) . . .
133(6) . . .
135(6) . . .
146(7) . . .
122(6) . . .
143(6) . . .
156(7) . . .
124(6) . . .
140(7) . . .
132(6) . . .
129(6) . . .
122(6) . . .
146(7) . . .
122(6) . . .
137(7) . . .
121(6) . . .
137(6) . . .
121(6) . . .
136(6) . . .
137(6) . . .
126(6) . . .
125(6) . . .
140(6) . . .
139(7) . . .
137(6) . . .
121(6) . . .
127(6) . . .
140(7) . . .
133(6) . . .
135(6) . . .
130(6) . . .
132(6) . . .
141(7) . . .
126(6) . . .
140(6) . . .
133(6) . . .
133(6) . . .
115(6) . . .
129(6) . . .
144(6) . . .
128(6) . . .
138(6) . . .
127(6) . . .
131(6) . . .
143(6) . . .
125(6) . . .
134(6) . . .
119(6) . . .
113(6) . . .
135(6) . . .
122(6) . . .
118(6) . . .
122(6) . . .
127(6) . . .
120(6) . . .
124(6) . . .
131(6) . . .
124(6) . . .
116(6) . . .
119(6) . . .
135(6) . . .
131(6) . . .
129(6) . . .
117(6) . . .
151(6) . . .
137(6) . . .
137(6) . . .
139(7) . . .
121(6) . . .
137(6) . . .
119(6) . . .
130(6) . . .
124(6) . . .
127(6) . . .
123(6) . . .
127(6) . . .
122(6) . . .
126(6) . . .
113(6) . . .
126(6) . . .
126(6) . . .
133(6) . . .
127(6) . . .
120(6) . . .
125(6) . . .
132(6) . . .
128(6) . . .
140(6) . . .
137(6) . . .
135(6) . . .
131(6) . . .
123(6) . . .
138(6) . . .
120(6) . . .
113(6) . . .
135(6) . . .
128(6) . . .
116(6) . . .
137(6) . . .
129(6) . . .
127(6) . . .
135(6) . . .
129(6) . . .
132(6) . . .
123(6) . . .
121(6) . . .
117(6) . . .
124(6) . . .
124(6) . . .
148(6) . . .
139(6) . . .
136(7) . . .
140(6) . . .
137(6) . . .
135(6) . . .
128(6) . . .
135(6) . . .
118(6) . . .
148(6) . . .
127(6) . . .
141(7) . . .
141(6) . . .
147(6) . . .
135(6) . . .
130(6) . . .
137(6) . . .
129(6) . . .
124(6) . . .
128(6) . . .
135(6) . . .
142(7) . . .
139(7) . . .
126(6) . . .
119(6) . . .
134(6) . . .
123(6) . . .
116(6) . . .
137(6) . . .
115(6) . . .
122(6) . . .
131(6) . . .
134(6) . . .
126(6) . . .
132(6) . . .
117(6) . . .
141(7) . . .
125(6) . . .
115(6) . . .
118(6) . . .
129(6) . . .
139(7) . . .
125(6) . . .
116(6) . . .
119(6) . . .
138(6) . . .
128(6) . . .
125(6) . . .
120(6) . . .
130(6) . . .
135(6) . . .
129(6) . . .
137(6) . . .
113(6) . . .
108(5) . . .
128(6) . . .
128(6) . . .
131(6) . . .
131(6) . . .
138(6) . . .
149(7) . . .
135(7) . . .
112(6) . . .
131(6) . . .
136(6) . . .
157(7) . . .
123(6) . . .
147(7) . . .
128(6) . . .
127(6) . . .
129(6) . . .
128(6) . . .
124(6) . . .
123(6) . . .
143(6) . . .
126(6) . . .
126(6) . . .
130(6) . . .
139(6) . . .
121(6) . . .
134(6) . . .
126(6) . . .
121(6) . . .
123(6) . . .
131(6) . . .
137(6) . . .
131(6) . . .
132(6) . . .
122(6) . . .
114(6) . . .
131(6) . . .
138(6) . . .
136(6) . . .
128(6) . . .
118(6) . . .
131(6) . . .
127(6) . . .
125(6) . . .
117(6) . . .
141(6) . . .
135(6) . . .
119(6) . . .
121(6) . . .
122(6) . . .
131(6) . . .
122(6) . . .
129(6) . . .
117(6) . . .
124(6) . . .
128(6) . . .
129(6) . . .
118(6) . . .
114(6) . . .
110(5) . . .
122(6) . . .
141(7) . . .
124(6) . . .
117(6) . . .
121(6) . . .
113(6) . . .
131(6) . . .
129(6) . . .
143(6) . . .
134(6) . . .
140(7) . . .
113(6) . . .
120(6) . . .
131(6) . . .
115(6) . . .
120(6) . . .
138(6) . . .
132(6) . . .
147(6) . . .
141(6) . . .
131(6) . . .
139(6) . . .
131(6) . . .
148(6) . . .
141(6) . . .
132(7) . . .
115(6) . . .
136(6) . . .
138(6) . . .
134(6) . . .
113(6) . . .
112(6) . . .
128(6) . . .
139(6) . . .
142(6) . . .
150(7) . . .
128(6) . . .
136(6) . . .
125(6) . . .
121(6) . . .
137(7) . . .
143(7) . . .
121(6) . . .
133(6) . . .
122(6) . . .
118(6) . . .
122(6) . . .
128(6) . . .
107(5) . . .
123(6) . . .
137(6) . . .
154(7) . . .
131(6) . . .
139(6) . . .
123(6) . . .
122(6) . . .
131(6) . . .
124(6) . . .
114(6) . . .
116(6) . . .
130(6) . . .
127(6) . . .
126(6) . . .
127(6) . . .
137(6) . . .
142(6) . . .
123(6) . . .
126(6) . . .
126(6) . . .
128(6) . . .
130(6) . . .
139(6) . . .
127(6) . . .
122(6) . . .
138(6) . . .
135(6) . . .
135(6) . . .
133(6) . . .
120(6) . . .
139(7) . . .
131(6) . . .
127(6) . . .
121(6) . . .
132(6) . . .
122(6) . . .
138(6) . . .
126(6) . . .
112(5) . . .
125(6) . . .
110(6) . . .
132(6) . . .
121(6) . . .
126(6) . . .
130(6) . . .
141(7) . . .
135(6) . . .
134(6) . . .
138(6) . . .
115(6) . . .
121(6) . . .
118(6) . . .
134(6) . . .
122(6) . . .
135(6) . . .
151(7) . . .
143(6) . . .
130(6) . . .
131(6) . . .
121(6) . . .
116(6) . . .
111(6) . . .
123(6) . . .
132(6) . . .
110(5) . . .
137(6) . . .
135(6) . . .
130(6) . . .
126(6) . . .
136(6) . . .
129(6) . . .
120(6) . . .
136(6) . . .
132(6) . . .
126(6) . . .
130(6) . . .
120(6) . . .
134(6) . . .
136(6) . . .
133(6) . . .
125(6) . . .
131(6) . . .
129(6) . . .
139(6) . . .
131(6) . . .
140(6) . . .
119(6) . . .
123(6) . . .
107(5) . . .
135(7) . . .
136(6) . . .
123(6) . . .
137(6) . . .
136(6) . . .
134(6) . . .
135(6) . . .
124(6) . . .
143(6) . . .
126(6) . . .
120(6) . . .
140(6) . . .
138(6) . . .
130(6) . . .
126(6) . . .
138(6) . . .
134(6) . . .
137(6) . . .
135(6) . . .
143(7) . . .
124(6) . . .
141(6) . . .
128(6) . . .
125(6) . . .
146(7) . . .
131(6) . . .
130(6) . . .
121(6) . . .
135(6) . . .
123(6) . . .
131(6) . . .
134(6) . . .
133(6) . . .
138(6) . . .
143(7) . . .
141(7) . . .
129(6) . . .
122(6) . . .
128(6) . . .
124(6) . . .
145(7) . . .
131(6) . . .
131(6) . . .
134(6) . . .
127(6) . . .
129(6) . . .
131(6) . . .
145(6) . . .
129(6) . . .
127(6) . . .
120(6) . . .
129(6) . . .
147(6) . . .
144(6) . . .
141(6) . . .
136(6) . . .
142(6) . . .
113(6) . . .
128(6) . . .
136(6) . . .
133(6) . . .
115(6) . . .
123(6) . . .
122(6) . . .
129(6) . . .
142(7) . . .
132(6) . . .
124(6) . . .
120(6) . . .
135(6) . . .
126(6) . . .
133(6) . . .
123(6) . . .
128(6) . . .
130(6) . . .
122(6) . . .
142(6) . . .
134(6) . . .
132(6) . . .
148(7) . . .
121(6) . . .
132(6) . . .
126(6) . . .
126(6) . . .
117(6) . . .
146(6) . . .
129(6) . . .
134(6) . . .
122(6) . . .
131(6) . . .
132(6) . . .
131(6) . . .
132(6) . . .
135(6) . . .
124(6) . . .
127(6) . . .
123(6) . . .
132(6) . . .
119(6) . . .
122(6) . . .
139(6) . . .
137(6) . . .
135(6) . . .
128(6) . . .
115(6) . . .
129(6) . . .
140(6) . . .
125(6) . . .
133(6) . . .
137(6) . . .
144(6) . . .
129(6) . . .
130(6) . . .
115(6) . . .
143(6) . . .
112(5) . . .
127(6) . . .
120(6) . . .
125(6) . . .
115(6) . . .
131(6) . . .
124(6) . . .
122(6) . . .
120(6) . . .
129(6) . . .
140(6) . . .
132(6) . . .
121(6) . . .
108(6) . . .
119(6) . . .
129(6) . . .
114(6) . . .
136(6) . . .
127(6) . . .
128(6) . . .
131(6) . . .
135(6) . . .
131(6) . . .
126(6) . . .
135(6) . . .
140(6) . . .
126(6) . . .
121(6) . . .
131(6) . . .
131(6) . . .
120(6) . . .
135(6) . . .
122(6) . . .
136(6) . . .
121(6) . . .
122(6) . . .
124(6) . . .
130(7) . . .
109(6) . . .
135(6) . . .
137(6) . . .
120(6) . . .
138(7) . . .
139(6) . . .
140(6) . . .
129(6) . . .
125(6) . . .
127(6) . . .
121(6) . . .
123(6) . . .
129(6) . . .
128(6) . . .
141(6) . . .
136(6) . . .
126(6) . . .
138(6) . . .
122(6) . . .
141(6) . . .
150(7) . . .
120(6) . . .
122(6) . . .
115(6) . . .
140(6) . . .
121(6) . . .
123(6) . . .
131(6) . . .
130(6) . . .
135(6) . . .
127(6) . . .
119(6) . . .
118(6) . . .
129(6) . . .
130(6) . . .
132(6) . . .
136(6) . . .
135(6) . . .
128(6) . . .
136(6) . . .
131(6) . . .
128(6) . . .
132(6) . . .
135(7) . . .
125(6) . . .
122(6) . . .
120(6) . . .
117(6) . . .
115(6) . . .
127(6) . . .
113(6) . . .
119(6) . . .
121(6) . . .
113(6) . . .
122(6) . . .
126(6) . . .
144(6) . . .
140(6) . . .
143(7) . . .
129(6) . . .
129(6) . . .
142(6) . . .
120(6) . . .
118(6) . . .
113(6) . . .
126(6) . . .
121(6) . . .
122(6) . . .
118(6) . . .
129(6) . . .
120(6) . . .
135(6) . . .
118(6) . . .
115(6) . . .
113(6) . . .
139(6) . . .
123(6) . . .
136(7) . . .
122(6) . . .
131(6) . . .
116(6) . . .
124(6) . . .
112(6) . . .
125(6) . . .
122(6) . . .
122(6) . . .
126(6) . . .
126(6) . . .
122(6) . . .
106(5) . . .
108(5) . . .
121(6) . . .
115(6) . . .
130(6) . . .
115(6) . . .
110(6) . . .
105(5) . . .
136(7) . . .
125(6) . . .
132(6) . . .
124(6) . . .
112(6) . . .
120(6) . . .
133(6) . . .
119(6) . . .
127(6) . . .
127(6) . . .
125(6) . . .
127(6) . . .
140(6) . . .
142(6) . . .
113(6) . . .
116(6) . . .
143(6) . . .
127(6) . . .
126(6) . . .
141(6) . . .
129(6) . . .
128(6) . . .
139(6) . . .
123(6) . . .
127(6) . . .
150(7) . . .
120(6) . . .
126(6) . . .
131(6) . . .
129(6) . . .
119(6) . . .
120(6) . . .
134(6) . . .
116(6) . . .
106(6) . . .
132(6) . . .
134(6) . . .
127(6) . . .
142(6) . . .
131(6) . . .
138(6) . . .
119(6) . . .
126(6) . . .
128(6) . . .
131(6) . . .
141(6) . . .
117(6) . . .
124(6) . . .
131(6) . . .
135(7) . . .
125(6) . . .
119(6) . . .
119(6) . . .
136(6) . . .
119(6) . . .
140(6) . . .
127(6) . . .
130(6) . . .
122(6) . . .
107(6) . . .
120(6) . . .
124(6) . . .
121(6) . . .
127(6) . . .
128(6) . . .
119(6) . . .
132(6) . . .
119(6) . . .
117(6) . . .
113(6) . . .
127(6) . . .
117(6) . . .
129(6) . . .
134(7) . . .
134(6) . . .
127(6) . . .
133(6) . . .
141(6) . . .
119(6) . . .
123(6) . . .
121(6) . . .
142(6) . . .
134(6) . . .
139(6) . . .
128(6) . . .
108(5) . . .
103(5) . . .
121(6) . . .
110(6) . . .
122(6) . . .
128(6) . . .
122(6) . . .
118(6) . . .
120(6) . . .
129(6) . . .
130(6) . . .
133(6) . . .
141(7) . . .
119(6) . . .
123(6) . . .
115(6) . . .
133(6) . . .
125(6) . . .
129(6) . . .
114(6) . . .
128(6) . . .
135(6) . . .
119(6) . . .
115(6) . . .
124(6) . . .
133(6) . . .
119(6) . . .
132(6) . . .
129(6) . . .
129(6) . . .
109(5) . . .
124(6) . . .
141(6) . . .
129(6) . . .
128(6) . . .
128(6) . . .
134(6) . . .
129(6) . . .
127(6) . . .
136(6) . . .
128(6) . . .
114(6) . . .
111(6) . . .
137(6) . . .
123(6) . . .
120(6) . . .
131(6) . . .
125(6) . . .
117(6) . . .
116(6) . . .
129(6) . . .
108(6) . . .
123(6) . . .
126(6) . . .
135(6) . . .
130(6) . . .
126(6) . . .
128(6) . . .
120(6) . . .
111(5) . . .
111(5) . . .
134(6) . . .
131(6) . . .
130(6) . . .
134(6) . . .
121(6) . . .
114(6) . . .
126(6) . . .
118(6) . . .
135(6) . . .
120(6) . . .
115(6) . . .
109(6) . . .
131(6) . . .
117(6) . . .
129(6) . . .
119(6) . . .
127(6) . . .
127(6) . . .
116(6) . . .
113(6) . . .
121(6) . . .
134(6) . . .
116(6) . . .
112(6) . . .
135(6) . . .
126(6) . . .
123(6) . . .
125(6) . . .
131(6) . . .
111(6) . . .
118(6) . . .
119(6) . . .
111(6) . . .
125(6) . . .
120(6) . . .
140(7) . . .
123(6) . . .
131(6) . . .
130(6) . . .
111(6) . . .
117(6) . . .
117(6) . . .
128(6) . . .
115(6) . . .
105(5) . . .
123(6) . . .
134(6) . . .
119(6) . . .
122(6) . . .
119(6) . . .
117(6) . . .
126(6) . . .
138(6) . . .
137(6) . . .
110(6) . . .
128(6) . . .
117(6) . . .
124(6) . . .
116(6) . . .
123(6) . . .
120(6) . . .
114(6) . . .
119(6) . . .
123(6) . . .
128(6) . . .
116(6) . . .
109(6) . . .
128(6) . . .
113(6) . . .
128(6) . . .
113(6) . . .
129(6) . . .
128(6) . . .
116(6) . . .
130(6) . . .
126(6) . . .
120(6) . . .
117(6) . . .
122(6) . . .
112(6) . . .
118(6) . . .
109(6) . . .
114(6) . . .
121(6) . . .
121(6) . . .
120(6) . . .
146(6) . . .
125(6) . . .
115(6) . . .
120(6) . . .
133(6) . . .
131(6) . . .
105(5) . . .
117(6) . . .
123(6) . . .
138(6) . . .
145(6) . . .
112(6) . . .
129(6) . . .
127(6) . . .
127(6) . . .
123(6) . . .
126(6) . . .
121(6) . . .
111(6) . . .
120(6) . . .
115(6) . . .
110(5) . . .
113(6) . . .
136(7) . . .
119(6) . . .
102(5) . . .
111(6) . . .
131(6) . . .
122(6) . . .
126(6) . . .
126(6) . . .
118(6) . . .
125(6) . . .
122(6) . . .
119(6) . . .
114(6) . . .
120(6) . . .
121(6) . . .
112(6) . . .
123(6) . . .
121(6) . . .
128(6) . . .
122(6) . . .
128(6) . . .
125(6) . . .
115(6) . . .
117(6) . . .
118(6) . . .
113(6) . . .
116(6) . . .
128(6) . . .
143(6) . . .
129(6) . . .
126(6) . . .
139(6) . . .
124(6) . . .
111(6) . . .
122(6) . . .
119(6) . . .
107(5) . . .
114(5) . . .
125(6) . . .
124(6) . . .
116(6) . . .
98(5) . . .
112(5) . . .
120(6) . . .
129(6) . . .
127(6) . . .
116(6) . . .
116(6) . . .
121(6) . . .
129(7) . . .
118(6) . . .
117(6) . . .
119(6) . . .
119(6) . . .
120(6) . . .
130(6) . . .
132(6) . . .
132(6) . . .
121(6) . . .
127(6) . . .
131(6) . . .
118(6) . . .
119(6) . . .
131(6) . . .
129(6) . . .
141(6) . . .
124(6) . . .
108(5) . . .
144(7) . . .
119(6) . . .
112(5) . . .
115(6) . . .
122(6) . . .
129(6) . . .
116(6) . . .
101(5) . . .
134(6) . . .
110(6) . . .
122(6) . . .
111(6) . . .
106(5) . . .
116(6) . . .
126(6) . . .
119(6) . . .
117(6) . . .
121(6) . . .
121(6) . . .
117(6) . . .
124(6) . . .
123(6) . . .
116(6) . . .
114(6) . . .
129(6) . . .
140(7) . . .
120(6) . . .
120(6) . . .
126(6) . . .
125(6) . . .
126(6) . . .
127(6) . . .
117(6) . . .
114(6) . . .
120(6) . . .
141(7) . . .
127(6) . . .
124(6) . . .
122(6) . . .
125(6) . . .
121(6) . . .
116(6) . . .
123(6) . . .
114(6) . . .
112(6) . . .
106(6) . . .
124(6) . . .
117(6) . . .
123(6) . . .
132(6) . . .
118(6) . . .
114(6) . . .
136(6) . . .
127(6) . . .
130(6) . . .
121(6) . . .
128(6) . . .
115(6) . . .
117(6) . . .
133(6) . . .
122(6) . . .
127(6) . . .
124(6) . . .
126(6) . . .
121(6) . . .
126(6) . . .
122(6) . . .
123(6) . . .
123(6) . . .
122(6) . . .
113(6) . . .
123(6) . . .
132(6) . . .
135(6) . . .
117(6) . . .
128(6) . . .
130(6) . . .
115(6) . . .
125(6) . . .
123(6) . . .
132(6) . . .
112(6) . . .
106(5) . . .
115(6) . . .
119(6) . . .
123(6) . . .
114(6) . . .
120(6) . . .
120(6) . . .
131(6) . . .
129(6) . . .
119(6) . . .
127(6) . . .
118(6) . . .
122(6) . . .
133(6) . . .
136(6) . . .
118(6) . . .
132(6) . . .
121(6) . . .
119(6) . . .
120(6) . . .
116(6) . . .
118(6) . . .
117(6) . . .
130(6) . . .
132(6) . . .
108(6) . . .
109(6) . . .
128(6) . . .
115(6) . . .
115(6) . . .
124(6) . . .
119(6) . . .
136(6) . . .
127(6) . . .
107(5) . . .
126(6) . . .
108(6) . . .
125(6) . . .
120(6) . . .
118(6) . . .
106(5) . . .
125(6) . . .
136(6) . . .
127(6) . . .
112(6) . . .
119(6) . . .
124(6) . . .
125(6) . . .
113(6) . . .
125(6) . . .
122(6) . . .
126(6) . . .
117(6) . . .
131(6) . . .
123(6) . . .
105(5) . . .
119(6) . . .
108(6) . . .
104(5) . . .
108(6) . . .
103(5) . . .
127(6) . . .
123(6) . . .
120(6) . . .
125(6) . . .
103(5) . . .
104(6) . . .
116(6) . . .
126(6) . . .
130(6) . . .
133(6) . . .
116(6) . . .
133(6) . . .
134(6) . . .
127(6) . . .
118(6) . . .
126(6) . . .
124(6) . . .
112(6) . . .
120(6) . . .
108(6) . . .
117(6) . . .
124(6) . . .
105(5) . . .
112(6) . . .
103(5) . . .
118(6) . . .
128(6) . . .
119(6) . . .
112(6) . . .
105(6) . . .
131(6) . . .
124(6) . . .
134(6) . . .
117(6) . . .
126(6) . . .
134(6) . . .
114(6) . . .
123(6) . . .
125(6) . . .
119(6) . . .
125(6) . . .
124(6) . . .
121(6) . . .
120(6) . . .
123(6) . . .
113(6) . . .
124(6) . . .
126(6) . . .
104(6) . . .
111(6) . . .
119(6) . . .
125(6) . . .
127(6) . . .
108(6) . . .
108(6) . . .
105(6) . . .
107(5) . . .
115(6) . . .
115(6) . . .
112(6) . . .
112(6) . . .
122(6) . . .
117(6) . . .
106(6) . . .
114(6) . . .
108(6) . . .
116(6) . . .
123(6) . . .
124(6) . . .
107(5) . . .
112(6) . . .
116(6) . . .
112(6) . . .
114(6) . . .
121(6) . . .
123(6) . . .
130(6) . . .
113(6) . . .
117(6) . . .
119(6) . . .
127(6) . . .
135(6) . . .
114(6) . . .
123(6) . . .
114(6) . . .
112(5) . . .
103(5) . . .
116(6) . . .
114(6) . . .
115(6) . . .
113(5) . . .
102(5) . . .
107(5) . . .
101(6) . . .
124(6) . . .
123(6) . . .
114(6) . . .
112(6) . . .
140(7) . . .
116(6) . . .
105(5) . . .
108(5) . . .
95(5) . . .
119(6) . . .
105(5) . . .
118(6) . . .
114(6) . . .
116(6) . . .
116(6) . . .
124(6) . . .
115(6) . . .
97(5) . . .
120(6) . . .
124(6) . . .
121(6) . . .
107(5) . . .
125(6) . . .
119(6) . . .
132(6) . . .
113(6) . . .
130(6) . . .
96(5) . . .
119(6) . . .
118(6) . . .
110(5) . . .
131(6) . . .
111(6) . . .
112(6) . . .
121(6) . . .
126(6) . . .
107(5) . . .
112(6) . . .
125(6) . . .
121(6) . . .
123(6) . . .
111(6) . . .
136(6) . . .
124(6) . . .
129(6) . . .
119(6) . . .
115(6) . . .
104(5) . . .
110(6) . . .
124(6) . . .
113(6) . . .
119(6) . . .
109(6) . . .
115(6) . . .
132(6) . . .
113(6) . . .
126(6) . . .
116(6) . . .
110(6) . . .
123(6) . . .
121(6) . . .
115(6) . . .
115(6) . . .
118(6) . . .
111(6) . . .
122(6) . . .
118(6) . . .
123(6) . . .
102(6) . . .
121(6) . . .
114(6) . . .
129(6) . . .
132(6) . . .
116(6) . . .
117(6) . . .
127(6) . . .
112(6) . . .
125(6) . . .
113(6) . . .
122(6) . . .
119(6) . . .
122(6) . . .
105(5) . . .
105(5) . . .
120(6) . . .
125(6) . . .
111(6) . . .
121(6) . . .
119(6) . . .
122(6) . . .
122(6) . . .
125(6) . . .
119(6) . . .
127(6) . . .
121(6) . . .
126(6) . . .
118(6) . . .
126(6) . . .
127(6) . . .
126(6) . . .
113(6) . . .
121(6) . . .
132(6) . . .
119(6) . . .
131(6) . . .
125(6) . . .
124(6) . . .
126(6) . . .
115(6) . . .
124(6) . . .
107(5) . . .
121(6) . . .
114(6) . . .
119(6) . . .
122(6) . . .
121(6) . . .
100(5) . . .
111(6) . . .
129(6) . . .
131(6) . . .
112(5) . . .
121(6) . . .
109(6) . . .
121(6) . . .
138(6) . . .
120(6) . . .
131(6) . . .
127(6) . . .
110(5) . . .
131(6) . . .
118(6) . . .
108(6) . . .
112(6) . . .
121(6) . . .
119(6) . . .
112(6) . . .
126(6) . . .
120(6) . . .
122(6) . . .
113(6) . . .
117(6) . . .
125(6) . . .
125(6) . . .
127(6) . . .
122(6) . . .
124(6) . . .
116(6) . . .
135(6) . . .
125(6) . . .
128(6) . . .
116(6) . . .
117(6) . . .
109(5) . . .
116(6) . . .
126(6) . . .
121(6) . . .
135(6) . . .
127(6) . . .
113(5) . . .
105(5) . . .
124(6) . . .
119(6) . . .
121(6) . . .
117(6) . . .
108(6) . . .
123(6) . . .
129(6) . . .
109(5) . . .
122(6) . . .
109(6) . . .
112(6) . . .
125(6) . . .
121(6) . . .
127(6) . . .
129(6) . . .
123(6) . . .
124(6) . . .
102(5) . . .
120(6) . . .
114(6) . . .
122(6) . . .
109(6) . . .
126(6) . . .
123(6) . . .
107(5) . . .
114(6) . . .
127(6) . . .
129(6) . . .
124(6) . . .
124(6) . . .
112(6) . . .
109(6) . . .
123(6) . . .
125(6) . . .
113(6) . . .
114(6) . . .
119(6) . . .
120(6) . . .
123(6) . . .
115(6) . . .
127(6) . . .
117(6) . . .
115(6) . . .
102(5) . . .
117(6) . . .
120(6) . . .
90(5) . . .
103(5) . . .
113(6) . . .
130(6) . . .
124(6) . . .
109(6) . . .
100(5) . . .
107(5) . . .
112(6) . . .
116(6) . . .
128(6) . . .
103(5) . . .
100(5) . . .
112(6) . . .
109(6) . . .
115(6) . . .
121(6) . . .
131(6) . . .
118(6) . . .
122(6) . . .
127(6) . . .
125(6) . . .
93(5) . . .
114(6) . . .
106(6) . . .
123(6) . . .
111(5) . . .
125(6) . . .
123(6) . . .
98(5) . . .
106(5) . . .
116(6) . . .
95(5) . . .
118(6) . . .
119(6) . . .
107(5) . . .
120(6) . . .
111(6) . . .
113(6) . . .
110(5) . . .
119(6) . . .
117(6) . . .
106(6) . . .
117(6) . . .
120(6) . . .
108(5) . . .
105(5) . . .
107(6) . . .
111(6) . . .
117(6) . . .
125(6) . . .
126(6) . . .
122(6) . . .
104(6) . . .
119(6) . . .
115(6) . . .
116(6) . . .
111(6) . . .
110(6) . . .
110(6) . . .
115(6) . . .
121(6) . . .
119(6) . . .
102(5) . . .
113(6) . . .
107(5) . . .
105(6) . . .
113(6) . . .
112(6) . . .
127(6) . . .
116(6) . . .
112(6) . . .
110(6) . . .
120(6) . . .
114(6) . . .
122(6) . . .
110(6) . . .
119(6) . . .
111(6) . . .
114(6) . . .
122(6) . . .
114(6) . . .
112(6) . . .
106(6) . . .
116(6) . . .
135(6) . . .
123(6) . . .
111(6) . . .
120(6) . . .
114(5) . . .
117(6) . . .
118(6) . . .
120(6) . . .
116(6) . . .
115(5) . . .
129(6) . . .
117(6) . . .
133(7) . . .
107(5) . . .
111(5) . . .
127(6) . . .
123(6) . . .
124(6) . . .
128(6) . . .
122(6) . . .
107(5) . . .
123(6) . . .
118(6) . . .
113(6) . . .
122(6) . . .
120(6) . . .
140(7) . . .
123(6) . . .
116(6) . . .
126(6) . . .
114(6) . . .
118(6) . . .
101(5) . . .
101(5) . . .
122(6) . . .
104(5) . . .
118(6) . . .
125(6) . . .
126(6) . . .
115(6) . . .
120(6) . . .
121(6) . . .
132(6) . . .
104(5) . . .
98(5) . . .
106(6) . . .
115(6) . . .
126(6) . . .
113(6) . . .
109(5) . . .
109(6) . . .
105(6) . . .
114(6) . . .
111(6) . . .
116(6) . . .
117(6) . . .
106(6) . . .
101(5) . . .
101(5) . . .
102(5) . . .
113(6) . . .
133(7) . . .
109(6) . . .
108(5) . . .
112(6) . . .
117(6) . . .
119(6) . . .
124(6) . . .
130(6) . . .
131(6) . . .
107(5) . . .
117(6) . . .
120(6) . . .
119(6) . . .
108(5) . . .
107(6) . . .
120(6) . . .
115(6) . . .
120(6) . . .
119(6) . . .
125(6) . . .
113(6) . . .
106(5) . . .
117(6) . . .
114(6) . . .
114(6) . . .
103(5) . . .
115(6) . . .
115(6) . . .
130(6) . . .
118(6) . . .
119(6) . . .
110(5) . . .
113(6) . . .
105(6) . . .
103(6) . . .
106(5) . . .
101(5) . . .
114(6) . . .
110(5) . . .
127(6) . . .
125(6) . . .
103(5) . . .
109(6) . . .
117(6) . . .
122(6) . . .
113(6) . . .
124(6) . . .
108(5) . . .
121(6) . . .
115(6) . . .
108(6) . . .
108(5) . . .
114(6) . . .
100(5) . . .
111(6) . . .
119(6) . . .
109(5) . . .
109(5) . . .
102(5) . . .
118(6) . . .
128(6) . . .
120(6) . . .
110(6) . . .
109(6) . . .
103(5) . . .
128(6) . . .
116(6) . . .
113(6) . . .
116(6) . . .
115(6) . . .
96(5) . . .
99(5) . . .
129(6) . . .
105(6) . . .
106(6) . . .
117(6) . . .
101(5) . . .
134(6) . . .
116(6) . . .
112(6) . . .
117(6) . . .
124(6) . . .
109(6) . . .
111(6) . . .
98(5) . . .
111(5) . . .
125(6) . . .
124(6) . . .
120(6) . . .
111(6) . . .
121(6) . . .
114(6) . . .
110(6) . . .
104(6) . . .
108(6) . . .
118(6) . . .
119(6) . . .
106(6) . . .
110(6) . . .
123(6) . . .
107(5) . . .
105(5) . . .
97(5) . . .
107(6) . . .
110(6) . . .
115(6) . . .
113(6) . . .
120(6) . . .
104(6) . . .
108(6) . . .
112(5) . . .
120(6) . . .
106(6) . . .
115(6) . . .
113(6) . . .
114(6) . . .
118(6) . . .
98(5) . . .
101(5) . . .
111(6) . . .
113(5) . . .
106(5) . . .
114(6) . . .
113(6) . . .
109(6) . . .
103(5) . . .
115(6) . . .
111(6) . . .
108(5) . . .
128(6) . . .
122(6) . . .
115(6) . . .
116(6) . . .
113(6) . . .
107(6) . . .
111(5) . . .
119(6) . . .
119(6) . . .
126(6) . . .
119(6) . . .
103(5) . . .
116(6) . . .
111(6) . . .
114(6) . . .
97(5) . . .
126(6) . . .
123(6) . . .
121(6) . . .
114(6) . . .
105(5) . . .
117(6) . . .
100(5) . . .
105(6) . . .
109(6) . . .
112(6) . . .
109(5) . . .
101(5) . . .
121(6) . . .
104(5) . . .
104(5) . . .
125(6) . . .
103(5) . . .
124(6) . . .
105(5) . . .
109(5) . . .
110(5) . . .
113(6) . . .
112(6) . . .
103(5) . . .
97(5) . . .
101(5) . . .
118(6) . . .
111(6) . . .
103(5) . . .
105(5) . . .
119(6) . . .
115(6) . . .
109(6) . . .
103(5) . . .
107(5) . . .
124(6) . . .
97(6) . . .
103(6) . . .
103(5) . . .
103(5) . . .
109(6) . . .
112(6) . . .
94(5) . . .
107(6) . . .
111(5) . . .
111(6) . . .
101(6) . . .
100(5) . . .
104(5) . . .
129(6) . . .
123(6) . . .
99(6) . . .
118(6) . . .
119(6) . . .
107(5) . . .
112(6) . . .
99(5) . . .
98(5) . . .
109(5) . . .
99(5) . . .
113(6) . . .
101(5) . . .
121(6) . . .
97(5) . . .
104(6) . . .
107(6) . . .
109(6) . . .
109(6) . . .
102(5) . . .
103(6) . . .
119(6) . . .
111(6) . . .
110(6) . . .
114(6) . . .
100(5) . . .
104(6) . . .
101(5) . . .
96(5) . . .
107(5) . . .
111(6) . . .
118(6) . . .
103(5) . . .
118(6) . . .
117(6) . . .
120(6) . . .
117(6) . . .
114(6) . . .
123(6) . . .
113(6) . . .
118(6) . . .
110(6) . . .
120(6) . . .
120(6) . . .
119(6) . . .
126(6) . . .
117(6) . . .
107(6) . . .
123(6) . . .
124(6) . . .
104(5) . . .
120(6) . . .
120(6) . . .
112(6) . . .
117(6) . . .
116(6) . . .
115(6) . . .
135(7) . . .
114(5) . . .
110(6) . . .
114(6) . . .
109(6) . . .
102(5) . . .
113(5) . . .
112(6) . . .
107(6) . . .
118(6) . . .
103(5) . . .
124(6) . . .
117(6) . . .
100(5) . . .
93(5) . . .
115(6) . . .
119(6) . . .
117(6) . . .
116(6) . . .
108(6) . . .
111(6) . . .
109(5) . . .
119(6) . . .
117(6) . . .
112(6) . . .
110(5) . . .
98(5) . . .
114(6) . . .
112(6) . . .
114(6) . . .
124(6) . . .
107(5) . . .
111(6) . . .
109(6) . . .
106(5) . . .
114(6) . . .
116(6) . . .
118(6) . . .
109(6) . . .
105(5) . . .
116(6) . . .
117(6) . . .
119(6) . . .
113(6) . . .
122(6) . . .
102(5) . . .
116(6) . . .
114(6) . . .
112(6) . . .
113(6) . . .
110(5) . . .
108(6) . . .
117(6) . . .
116(6) . . .
96(5) . . .
95(5) . . .
109(6) . . .
120(6) . . .
118(6) . . .
120(6) . . .
114(6) . . .
106(5) . . .
105(5) . . .
117(6) . . .
127(6) . . .
103(5) . . .
119(6) . . .
105(6) . . .
115(6) . . .
116(6) . . .
108(5) . . .
121(6) . . .
99(6) . . .
112(6) . . .
127(6) . . .
123(6) . . .
112(6) . . .
103(5) . . .
115(6) . . .
96(5) . . .
103(5) . . .
99(5) . . .
116(6) . . .
106(5) . . .
106(5) . . .
101(5) . . .
111(6) . . .
121(6) . . .
111(6) . . .
99(5) . . .
98(5) . . .
102(5) . . .
117(6) . . .
94(5) . . .
95(5) . . .
111(6) . . .
107(5) . . .
103(6) . . .
106(6) . . .
106(5) . . .
110(6) . . .
120(6) . . .
109(6) . . .
108(6) . . .
113(6) . . .
111(6) . . .
114(6) . . .
106(6) . . .
122(6) . . .
103(5) . . .
110(6) . . .
107(6) . . .
124(6) . . .
109(6) . . .
124(6) . . .
99(5) . . .
121(6) . . .
119(6) . . .
110(6) . . .
130(6) . . .
110(6) . . .
124(6) . . .
106(6) . . .
108(5) . . .
108(5) . . .
105(6) . . .
120(6) . . .
122(6) . . .
105(6) . . .
98(5) . . .
103(5) . . .
114(6) . . .
90(5) . . .
112(6) . . .
107(5) . . .
111(6) . . .
114(6) . . .
116(6) . . .
115(6) . . .
116(6) . . .
117(6) . . .
101(5) . . .
112(6) . . .
119(6) . . .
130(6) . . .
126(6) . . .
102(6) . . .
96(5) . . .
119(6) . . .
106(5) . . .
113(6) . . .
104(6) . . .
109(6) . . .
93(5) . . .
113(6) . . .
107(5) . . .
112(6) . . .
114(6) . . .
106(5) . . .
101(5) . . .
115(6) . . .
108(6) . . .
102(5) . . .
111(5) . . .
98(5) . . .
109(6) . . .
116(6) . . .
126(6) . . .
121(6) . . .
114(6) . . .
125(6) . . .
110(6) . . .
101(5) . . .
117(6) . . .
104(5) . . .
114(6) . . .
124(6) . . .
100(5) . . .
106(5) . . .
111(6) . . .
104(6) . . .
111(6) . . .
109(5) . . .
99(5) . . .
118(6) . . .
106(6) . . .
107(6) . . .
114(6) . . .
107(5) . . .
106(5) . . .
110(6) . . .
109(6) . . .
104(5) . . .
124(6) . . .
102(5) . . .
119(6) . . .
117(6) . . .
108(5) . . .
101(5) . . .
112(6) . . .
109(6) . . .
114(6) . . .
112(5) . . .
113(5) . . .
96(5) . . .
101(6) . . .
107(6) . . .
110(5) . . .
99(5) . . .
114(6) . . .
121(6) . . .
104(6) . . .
100(5) . . .
99(5) . . .
101(5) . . .
101(5) . . .
103(6) . . .
115(6) . . .
103(5) . . .
112(6) . . .
103(6) . . .
110(6) . . .
116(6) . . .
103(5) . . .
107(6) . . .
112(6) . . .
94(5) . . .
115(6) . . .
118(6) . . .
98(5) . . .
99(5) . . .
90(5) . . .
107(5) . . .
107(6) . . .
116(6) . . .
105(6) . . .
106(5) . . .
124(6) . . .
115(6) . . .
109(6) . . .
95(5) . . .
109(5) . . .
119(6) . . .
103(5) . . .
103(6) . . .
115(6) . . .
98(5) . . .
114(6) . . .
107(6) . . .
103(6) . . .
118(6) . . .
103(5) . . .
94(5) . . .
96(5) . . .
109(6) . . .
98(5) . . .
100(5) . . .
105(5) . . .
105(5) . . .
101(5) . . .
97(5) . . .
119(6) . . .
118(6) . . .
110(6) . . .
100(6) . . .
104(6) . . .
98(5) . . .
110(6) . . .
102(6) . . .
107(6) . . .
110(6) . . .
119(6) . . .
109(6) . . .
101(5) . . .
115(6) . . .
120(6) . . .
124(6) . . .
117(6) . . .
106(6) . . .
116(6) . . .
109(5) . . .
103(5) . . .
108(6) . . .
116(6) . . .
108(6) . . .
98(5) . . .
105(5) . . .
120(6) . . .
102(6) . . .
92(5) . . .
90(5) . . .
97(5) . . .
122(6) . . .
107(6) . . .
105(6) . . .
116(6) . . .
111(5) . . .
105(6) . . .
123(6) . . .
106(5) . . .
104(5) . . .
103(5) . . .
94(5) . . .
108(6) . . .
121(6) . . .
102(5) . . .
108(5) . . .
94(5) . . .
108(6) . . .
103(5) . . .
114(6) . . .
119(6) . . .
113(6) . . .
103(5) . . .
109(6) . . .
110(5) . . .
113(6) . . .
100(5) . . .
107(6) . . .
120(6) . . .
100(5) . . .
113(6) . . .
111(6) . . .
108(6) . . .
104(5) . . .
103(5) . . .
114(6) . . .
106(6) . . .
93(5) . . .
108(5) . . .
104(5) . . .
113(6) . . .
105(6) . . .
104(5) . . .
98(5) . . .
96(5) . . .
110(6) . . .
107(6) . . .
101(5) . . .
108(5) . . .
98(5) . . .
119(6) . . .
103(6) . . .
110(6) . . .
103(5) . . .
105(5) . . .
115(6) . . .
113(6) . . .
107(6) . . .
93(5) . . .
101(5) . . .
122(6) . . .
99(6) . . .
88(5) . . .
101(5) . . .
104(5) . . .
103(5) . . .
107(6) . . .
103(5) . . .
105(5) . . .
110(5) . . .
112(6) . . .
102(5) . . .
111(6) . . .
116(6) . . .
92(5) . . .
102(5) . . .
103(6) . . .
96(5) . . .
94(5) . . .
114(6) . . .
117(6) . . .
111(6) . . .
108(6) . . .
98(5) . . .
105(5) . . .
98(5) . . .
104(6) . . .
109(6) . . .
98(5) . . .
98(5) . . .
112(6) . . .
102(5) . . .
86(5) . . .
109(5) . . .
108(6) . . .
103(6) . . .
101(5) . . .
105(5) . . .
100(5) . . .
92(5) . . .
109(6) . . .
115(6) . . .
109(5) . . .
108(5) . . .
100(5) . . .
97(5) . . .
113(6) . . .
104(5) . . .
103(5) . . .
112(6) . . .
104(6) . . .
111(6) . . .
112(5) . . .
105(5) . . .
93(5) . . .
100(6) . . .
115(6) . . .
108(5) . . .
96(5) . . .
104(6) . . .
100(5) . . .
110(6) . . .
107(5) . . .
107(5) . . .
118(6) . . .
98(6) . . .
92(5) . . .
94(5) . . .
101(5) . . .
110(6) . . .
102(5) . . .
115(6) . . .
107(5) . . .
92(5) . . .
100(5) . . .
110(6) . . .
116(6) . . .
115(6) . . .
122(6) . . .
117(6) . . .
112(6) . . .
94(5) . . .
102(5) . . .
112(6) . . .
109(6) . . .
96(5) . . .
102(5) . . .
113(5) . . .
91(5) . . .
98(5) . . .
108(6) . . .
107(5) . . .
120(6) . . .
110(6) . . .
109(6) . . .
93(5) . . .
112(6) . . .
113(5) . . .
120(6) . . .
110(6) . . .
115(6) . . .
109(5) . . .
116(6) . . .
108(5) . . .
112(6) . . .
110(6) . . .
119(6) . . .
102(5) . . .
96(5) . . .
97(5) . . .
93(5) . . .
100(5) . . .
102(5) . . .
110(6) . . .
118(6) . . .
98(5) . . .
101(5) . . .
111(5) . . .
116(6) . . .
112(6) . . .
109(6) . . .
95(5) . . .
120(6) . . .
119(6) . . .
116(6) . . .
119(6) . . .
95(5) . . .
115(6) . . .
101(5) . . .
95(5) . . .
100(5) . . .
102(5) . . .
91(5) . . .
96(5) . . .
115(6) . . .
110(5) . . .
113(6) . . .
98(6) . . .
101(6) . . .
107(5) . . .
108(6) . . .
105(5) . . .
94(5) . . .
101(6) . . .
110(6) . . .
99(5) . . .
93(5) . . .
108(6) . . .
106(6) . . .
107(6) . . .
107(5) . . .
118(6) . . .
110(6) . . .
112(6) . . .
103(6) . . .
105(5) . . .
95(5) . . .
110(6) . . .
109(6) . . .
108(5) . . .
108(5) . . .
90(5) . . .
97(5) . . .
103(6) . . .
99(5) . . .
94(5) . . .
105(5) . . .
102(5) . . .
125(6) . . .
99(5) . . .
111(5) . . .
117(6) . . .
125(6) . . .
106(5) . . .
104(5) . . .
96(5) . . .
95(5) . . .
104(5) . . .
101(5) . . .
113(6) . . .
107(5) . . .
97(5) . . .
97(6) . . .
102(5) . . .
109(5) . . .
111(5) . . .
112(6) . . .
108(6) . . .
109(6) . . .
105(6) . . .
101(5) . . .
93(5) . . .
113(6) . . .
109(5) . . .
115(6) . . .
97(5) . . .
109(6) . . .
115(6) . . .
110(6) . . .
107(5) . . .
122(6) . . .
111(6) . . .
103(5) . . .
110(6) . . .
109(5) . . .
97(5) . . .
121(6) . . .
123(6) . . .
104(5) . . .
116(6) . . .
104(5) . . .
104(6) . . .
93(5) . . .
98(5) . . .
99(5) . . .
110(6) . . .
89(5) . . .
93(5) . . .
108(6) . . .
113(5) . . .
98(5) . . .
105(6) . . .
106(6) . . .
101(5) . . .
91(5) . . .
102(5) . . .
103(5) . . .
98(5) . . .
102(5) . . .
117(6) . . .
109(6) . . .
115(6) . . .
103(6) . . .
103(5) . . .
98(5) . . .
106(6) . . .
95(5) . . .
101(5) . . .
95(5) . . .
104(5) . . .
99(5) . . .
103(6) . . .
100(5) . . .
115(6) . . .
97(5) . . .
100(6) . . .
97(6) . . .
95(5) . . .
107(5) . . .
83(5) . . .
105(6) . . .
108(6) . . .
108(5) . . .
113(5) . . .
104(5) . . .
102(5) . . .
108(6) . . .
110(6) . . .
110(5) . . .
92(5) . . .
98(5) . . .
108(6) . . .
99(5) . . .
101(5) . . .
107(6) . . .
122(6) . . .
115(6) . . .
109(6) . . .
106(5) . . .
98(5) . . .
103(6) . . .
95(5) . . .
95(5) . . .
111(6) . . .
94(5) . . .
94(5) . . .
99(5) . . .
106(6) . . .
100(5) . . .
94(5) . . .
95(5) . . .
97(5) . . .
110(6) . . .
101(5) . . .
94(5) . . .
116(6) . . .
91(5) . . .
99(5) . . .
110(5) . . .
96(5) . . .
97(5) . . .
107(6) . . .
111(6) . . .
93(5) . . .
103(5) . . .
111(6) . . .
116(6) . . .
122(6) . . .
117(6) . . .
95(5) . . .
115(6) . . .
108(6) . . .
100(5) . . .
97(5) . . .
107(6) . . .
95(5) . . .
104(6) . . .
95(5) . . .
97(5) . . .
93(5) . . .
104(6) . . .
98(6) . . .
116(6) . . .
104(5) . . .
100(6) . . .
100(5) . . .
94(5) . . .
92(5) . . .
99(5) . . .
98(5) . . .
97(6) . . .
99(5) . . .
104(5) . . .
110(6) . . .
107(6) . . .
105(5) . . .
102(6) . . .
88(5) . . .
99(5) . . .
108(6) . . .
109(6) . . .
105(5) . . .
115(6) . . .
122(6) . . .
94(5) . . .
97(5) . . .
98(5) . . .
98(5) . . .
103(5) . . .
100(5) . . .
110(6) . . .
96(5) . . .
99(5) . . .
98(5) . . .
92(5) . . .
113(6) . . .
99(5) . . .
103(5) . . .
111(6) . . .
107(6) . . .
102(5) . . .
99(5) . . .
124(6) . . .
102(6) . . .
105(6) . . .
107(6) . . .
119(6) . . .
96(5) . . .
100(5) . . .
89(5) . . .
95(5) . . .
114(6) . . .
104(5) . . .
90(5) . . .
103(6) . . .
87(5) . . .
97(5) . . .
99(5) . . .
92(5) . . .
100(6) . . .
98(5) . . .
102(5) . . .
97(5) . . .
86(5) . . .
98(5) . . .
117(6) . . .
108(5) . . .
94(5) . . .
92(5) . . .
99(5) . . .
100(5) . . .
116(6) . . .
119(6) . . .
103(5) . . .
102(5) . . .
91(5) . . .
102(5) . . .
112(6) . . .
99(6) . . .
96(5) . . .
92(5) . . .
109(5) . . .
106(6) . . .
98(5) . . .
96(5) . . .
103(5) . . .
109(5) . . .
106(6) . . .
107(6) . . .
95(5) . . .
109(5) . . .
101(5) . . .
114(6) . . .
103(6) . . .
113(6) . . .
105(5) . . .
101(5) . . .
103(5) . . .
110(6) . . .
105(5) . . .
103(5) . . .
112(6) . . .
92(5) . . .
102(5) . . .
100(5) . . .
108(5) . . .
108(5) . . .
113(6) . . .
83(5) . . .
104(6) . . .
93(5) . . .
97(5) . . .
99(5) . . .
108(6) . . .
89(5) . . .
103(5) . . .
102(5) . . .
98(5) . . .
88(5) . . .
92(5) . . .
101(5) . . .
91(5) . . .
95(5) . . .
116(6) . . .
104(5) . . .
116(6) . . .
121(6) . . .
114(6) . . .
95(5) . . .
107(5) . . .
113(6) . . .
94(5) . . .
97(5) . . .
92(5) . . .
93(5) . . .
114(6) . . .
99(5) . . .
102(6) . . .
114(6) . . .
119(6) . . .
106(5) . . .
103(5) . . .
99(5) . . .
104(5) . . .
118(6) . . .
100(5) . . .
101(5) . . .
89(5) . . .
99(5) . . .
110(5) . . .
101(5) . . .
109(6) . . .
107(6) . . .
98(5) . . .
87(5) . . .
93(5) . . .
101(5) . . .
112(6) . . .
111(6) . . .
103(5) . . .
99(5) . . .
100(5) . . .
102(5) . . .
113(6) . . .
105(5) . . .
94(5) . . .
97(5) . . .
109(6) . . .
105(6) . . .
94(5) . . .
100(5) . . .
104(5) . . .
89(5) . . .
93(5) . . .
115(6) . . .
104(5) . . .
124(6) . . .
103(5) . . .
103(5) . . .
106(5) . . .
112(6) . . .
100(5) . . .
106(5) . . .
103(5) . . .
108(5) . . .
95(5) . . .
101(6) . . .
90(5) . . .
84(5) . . .
101(5) . . .
109(6) . . .
96(5) . . .
97(5) . . .
102(5) . . .
96(5) . . .
105(5) . . .
96(5) . . .
104(6) . . .
93(5) . . .
104(5) . . .
112(6) . . .
101(5) . . .
111(6) . . .
96(5) . . .
115(6) . . .
116(6) . . .
112(6) . . .
113(6) . . .
100(5) . . .
98(5) . . .
107(5) . . .
99(6) . . .
98(5) . . .
106(5) . . .
97(5) . . .
103(5) . . .
105(5) . . .
97(5) . . .
107(5) . . .
104(5) . . .
89(5) . . .
91(5) . . .
90(5) . . .
98(5) . . .
88(5) . . .
89(5) . . .
96(5) . . .
101(5) . . .
104(5) . . .
103(6) . . .
93(5) . . .
99(5) . . .
103(5) . . .
103(5) . . .
102(5) . . .
100(6) . . .
100(6) . . .
95(5) . . .
92(5) . . .
99(5) . . .
99(6) . . .
90(5) . . .
97(5) . . .
93(5) . . .
87(5) . . .
103(6) . . .
91(5) . . .
104(5) . . .
110(5) . . .
95(5) . . .
101(6) . . .
97(5) . . .
96(5) . . .
105(5) . . .
105(6) . . .
96(5) . . .
93(5) . . .
97(5) . . .
97(5) . . .
98(5) . . .
112(6) . . .
105(5) . . .
102(5) . . .
107(5) . . .
100(5) . . .
103(5) . . .
95(5) . . .
104(5) . . .
104(5) . . .
112(6) . . .
105(5) . . .
107(5) . . .
103(5) . . .
98(5) . . .
117(6) . . .
101(6) . . .
90(5) . . .
98(5) . . .
107(5) . . .
93(5) . . .
103(6) . . .
92(5) . . .
89(5) . . .
100(5) . . .
99(5) . . .
98(5) . . .
89(5) . . .
94(5) . . .
97(5) . . .
89(5) . . .
99(5) . . .
100(5) . . .
96(5) . . .
97(5) . . .
106(6) . . .
110(6) . . .
93(5) . . .
100(5) . . .
94(5) . . .
91(5) . . .
105(5) . . .
97(5) . . .
83(5) . . .
85(5) . . .
96(5) . . .
93(5) . . .
96(5) . . .
101(5) . . .
105(6) . . .
95(5) . . .
100(5) . . .
91(5) . . .
89(5) . . .
109(6) . . .
108(6) . . .
100(5) . . .
110(5) . . .
98(5) . . .
94(5) . . .
108(6) . . .
104(5) . . .
90(5) . . .
101(5) . . .
103(6) . . .
91(5) . . .
107(6) . . .
98(5) . . .
95(5) . . .
111(6) . . .
100(5) . . .
96(5) . . .
84(5) . . .
95(5) . . .
108(6) . . .
110(6) . . .
97(5) . . .
82(5) . . .
96(6) . . .
99(6) . . .
89(5) . . .
92(5) . . .
99(5) . . .
96(5) . . .
101(6) . . .
95(5) . . .
97(5) . . .
87(5) . . .
98(6) . . .
81(5) . . .
90(5) . . .
99(5) . . .
95(5) . . .
86(5) . . .
93(5) . . .
90(5) . . .
102(5) . . .
98(5) . . .
84(5) . . .
98(6) . . .
103(5) . . .
103(5) . . .
93(5) . . .
103(5) . . .
90(5) . . .
92(5) . . .
91(5) . . .
82(5) . . .
97(5) . . .
113(6) . . .
96(5) . . .
110(5) . . .
102(5) . . .
104(5) . . .
100(5) . . .
97(5) . . .
94(5) . . .
94(5) . . .
91(5) . . .
102(6) . . .
88(5) . . .
96(5) . . .
90(5) . . .
85(5) . . .
100(5) . . .
87(5) . . .
97(5) . . .
100(5) . . .
112(6) . . .
91(5) . . .
89(5) . . .
95(5) . . .
100(5) . . .
100(6) . . .
109(6) . . .
94(5) . . .
91(5) . . .
96(5) . . .
105(6) . . .
103(5) . . .
117(6) . . .
99(5) . . .
102(5) . . .
106(6) . . .
106(6) . . .
95(5) . . .
108(5) . . .
94(5) . . .
80(5) . . .
100(5) . . .
107(5) . . .
101(5) . . .
86(5) . . .
91(5) . . .
106(5) . . .
83(5) . . .
89(5) . . .
98(5) . . .
98(5) . . .
88(5) . . .
108(5) . . .
93(5) . . .
107(6) . . .
104(6) . . .
91(5) . . .
113(6) . . .
95(5) . . .
94(5) . . .
94(5) . . .
96(5) . . .
102(5) . . .
91(5) . . .
105(6) . . .
87(5) . . .
95(5) . . .
87(5) . . .
104(6) . . .
100(6) . . .
99(5) . . .
98(5) . . .
97(5) . . .
99(5) . . .
106(6) . . .
83(5) . . .
86(5) . . .
97(5) . . .
98(5) . . .
90(5) . . .
100(5) . . .
102(5) . . .
96(5) . . .
107(6) . . .
113(6) . . .
96(5) . . .
117(6) . . .
91(5) . . .
97(6) . . .
102(6) . . .
106(5) . . .
96(5) . . .
96(5) . . .
95(5) . . .
93(5) . . .
99(5) . . .
108(5) . . .
105(5) . . .
100(5) . . .
101(5) . . .
98(5) . . .
99(5) . . .
88(5) . . .
100(5) . . .
99(5) . . .
92(5) . . .
106(5) . . .
99(5) . . .
102(5) . . .
100(5) . . .
99(5) . . .
96(5) . . .
104(5) . . .
96(5) . . .
107(6) . . .
90(5) . . .
84(5) . . .
96(5) . . .
91(6) . . .
83(5) . . .
100(5) . . .
97(5) . . .
100(5) . . .
98(6) . . .
108(6) . . .
99(5) . . .
101(5) . . .
98(5) . . .
96(6) . . .
97(5) . . .
92(5) . . .
106(5) . . .
92(5) . . .
87(5) . . .
89(5) . . .
96(5) . . .
97(5) . . .
103(5) . . .
104(6) . . .
101(5) . . .
100(5) . . .
101(5) . . .
110(6) . . .
97(5) . . .
95(5) . . .
88(5) . . .
103(5) . . .
90(5) . . .
97(5) . . .
100(5) . . .
103(5) . . .
85(5) . . .
90(5) . . .
89(5) . . .
92(5) . . .
91(5) . . .
90(5) . . .
113(6) . . .
107(6) . . .
102(5) . . .
108(5) . . .
115(6) . . .
115(6) . . .
101(5) . . .
90(5) . . .
97(5) . . .
105(5) . . .
97(5) . . .
96(5) . . .
94(5) . . .
99(5) . . .
102(5) . . .
105(6) . . .
100(5) . . .
109(5) . . .
99(5) . . .
83(5) . . .
99(6) . . .
95(5) . . .
99(5) . . .
85(5) . . .
87(5) . . .
98(5) . . .
103(5) . . .
98(5) . . .
97(5) . . .
105(6) . . .
103(6) . . .
89(5) . . .
88(5) . . .
97(5) . . .
99(5) . . .
104(5) . . .
98(5) . . .
97(5) . . .
85(5) . . .
101(6) . . .
105(6) . . .
95(5) . . .
101(5) . . .
98(5) . . .
89(5) . . .
82(5) . . .
85(5) . . .
105(5) . . .
94(5) . . .
96(5) . . .
99(5) . . .
103(5) . . .
104(5) . . .
103(6) . . .
93(5) . . .
101(6) . . .
81(5) . . .
101(5) . . .
83(5) . . .
100(6) . . .
99(5) . . .
99(5) . . .
107(5) . . .
113(6) . . .
103(6) . . .
91(5) . . .
94(5) . . .
100(5) . . .
105(5) . . .
103(5) . . .
109(6) . . .
102(5) . . .
100(5) . . .
109(6) . . .
105(6) . . .
103(5) . . .
87(5) . . .
95(5) . . .
98(5) . . .
102(6) . . .
111(6) . . .
96(5) . . .
95(5) . . .
94(5) . . .
100(5) . . .
101(5) . . .
106(5) . . .
100(5) . . .
89(5) . . .
91(5) . . .
109(6) . . .
98(5) . . .
114(6) . . .
112(6) . . .
103(6) . . .
100(5) . . .
102(5) . . .
98(5) . . .
110(6) . . .
93(5) . . .
109(6) . . .
103(5) . . .
96(5) . . .
81(5) . . .
88(5) . . .
92(5) . . .
91(5) . . .
102(5) . . .
103(6) . . .
86(5) . . .
108(5) . . .
88(5) . . .
95(5) . . .
104(6) . . .
106(6) . . .
97(5) . . .
102(5) . . .
100(5) . . .
103(6) . . .
95(5) . . .
103(5) . . .
92(5) . . .
90(5) . . .
90(5) . . .
93(5) . . .
101(5) . . .
90(5) . . .
90(5) . . .
100(6) . . .
105(6) . . .
83(5) . . .
104(5) . . .
94(5) . . .
111(6) . . .
97(5) . . .
100(5) . . .
91(5) . . .
89(5) . . .
98(5) . . .
103(5) . . .
90(5) . . .
90(5) . . .
97(5) . . .
95(5) . . .
88(5) . . .
106(5) . . .
85(5) . . .
91(5) . . .
88(5) . . .
105(5) . . .
97(5) . . .
96(5) . . .
93(5) . . .
100(5) . . .
107(5) . . .
82(5) . . .
85(5) . . .
100(6) . . .
96(5) . . .
94(5) . . .
106(5) . . .
97(5) . . .
96(5) . . .
87(5) . . .
84(5) . . .
94(5) . . .
103(5) . . .
109(6) . . .
95(5) . . .
81(5) . . .
96(5) . . .
90(5) . . .
93(5) . . .
102(5) . . .
100(5) . . .
84(5) . . .
89(5) . . .
98(5) . . .
95(5) . . .
100(5) . . .
85(5) . . .
93(5) . . .
88(5) . . .
99(6) . . .
92(5) . . .
100(5) . . .
90(5) . . .
102(6) . . .
94(5) . . .
88(5) . . .
94(5) . . .
102(6) . . .
91(5) . . .
94(5) . . .
109(5) . . .
108(6) . . .
88(5) . . .
95(5) . . .
101(5) . . .
94(5) . . .
94(5) . . .
96(5) . . .
87(5) . . .
89(5) . . .
102(5) . . .
94(5) . . .
112(6) . . .
110(6) . . .
91(5) . . .
104(5) . . .
86(5) . . .
99(6) . . .
101(5) . . .
99(5) . . .
107(5) . . .
96(5) . . .
88(5) . . .
83(5) . . .
95(5) . . .
91(5) . . .
81(5) . . .
92(5) . . .
98(5) . . .
91(5) . . .
107(5) . . .
102(5) . . .
105(6) . . .
106(5) . . .
91(5) . . .
89(5) . . .
89(5) . . .
98(5) . . .
103(6) . . .
94(5) . . .
99(5) . . .
108(6) . . .
97(5) . . .
84(5) . . .
94(5) . . .
80(5) . . .
90(5) . . .
87(5) . . .
93(5) . . .
99(5) . . .
88(5) . . .
87(5) . . .
90(5) . . .
103(5) . . .
87(5) . . .
97(5) . . .
88(5) . . .
86(5) . . .
96(5) . . .
101(5) . . .
89(5) . . .
81(5) . . .
103(5) . . .
102(5) . . .
86(5) . . .
90(5) . . .
100(6) . . .
92(5) . . .
107(5) . . .
82(5) . . .
102(5) . . .
98(5) . . .
97(5) . . .
105(5) . . .
92(5) . . .
87(5) . . .
93(5) . . .
110(6) . . .
98(5) . . .
82(5) . . .
91(5) . . .
98(5) . . .
89(5) . . .
104(5) . . .
97(5) . . .
91(5) . . .
89(5) . . .
81(5) . . .
75(5) . . .
105(5) . . .
97(5) . . .
83(5) . . .
100(6) . . .
98(5) . . .
94(5) . . .
104(6) . . .
90(5) . . .
95(5) . . .
96(5) . . .
90(5) . . .
97(5) . . .
90(5) . . .
82(5) . . .
88(5) . . .
104(5) . . .
96(5) . . .
98(5) . . .
97(5) . . .
97(5) . . .
99(5) . . .
93(5) . . .
101(5) . . .
98(5) . . .
101(5) . . .
99(6) . . .
109(6) . . .
86(5) . . .
84(5) . . .
91(5) . . .
101(6) . . .
86(5) . . .
107(6) . . .
98(5) . . .
88(5) . . .
115(6) . . .
97(5) . . .
85(5) . . .
96(5) . . .
93(5) . . .
102(5) . . .
96(5) . . .
97(5) . . .
95(5) . . .
95(5) . . .
99(5) . . .
90(5) . . .
97(5) . . .
97(5) . . .
90(5) . . .
102(6) . . .
104(6) . . .
101(5) . . .
90(5) . . .
87(5) . . .
80(5) . . .
78(5) . . .
83(5) . . .
90(5) . . .
101(5) . . .
92(5) . . .
91(5) . . .
97(5) . . .
107(5) . . .
106(5) . . .
100(5) . . .
87(5) . . .
86(5) . . .
90(5) . . .
109(6) . . .
101(6) . . .
92(5) . . .
92(5) . . .
86(5) . . .
108(6) . . .
100(6) . . .
95(5) . . .
88(5) . . .
90(5) . . .
105(6) . . .
95(6) . . .
81(5) . . .
96(5) . . .
99(5) . . .
84(5) . . .
97(6) . . .
87(5) . . .
86(5) . . .
97(5) . . .
85(5) . . .
86(5) . . .
106(5) . . .
104(5) . . .
80(5) . . .
97(5) . . .
101(6) . . .
102(5) . . .
98(5) . . .
99(5) . . .
97(5) . . .
88(5) . . .
105(6) . . .
88(5) . . .
93(5) . . .
85(5) . . .
93(5) . . .
97(5) . . .
97(5) . . .
99(5) . . .
98(5) . . .
107(6) . . .
95(5) . . .
102(5) . . .
96(5) . . .
90(5) . . .
88(5) . . .
93(5) . . .
102(5) . . .
94(5) . . .
97(5) . . .
94(5) . . .
97(5) . . .
85(5) . . .
80(5) . . .
85(5) . . .
97(5) . . .
76(5) . . .
94(5) . . .
97(5) . . .
105(6) . . .
98(5) . . .
88(5) . . .
85(5) . . .
102(6) . . .
98(6) . . .
93(5) . . .
94(5) . . .
111(5) . . .
103(5) . . .
88(5) . . .
96(5) . . .
85(5) . . .
98(5) . . .
103(6) . . .
90(5) . . .
96(5) . . .
92(5) . . .
80(5) . . .
99(6) . . .
85(5) . . .
101(6) . . .
97(5) . . .
102(5) . . .
91(5) . . .
108(6) . . .
96(5) . . .
99(5) . . .
90(5) . . .
101(6) . . .
77(5) . . .
87(5) . . .
85(5) . . .
92(5) . . .
106(6) . . .
102(5) . . .
102(5) . . .
95(5) . . .
92(5) . . .
93(5) . . .
87(5) . . .
85(5) . . .
95(5) . . .
91(5) . . .
103(6) . . .
86(5) . . .
99(5) . . .
100(5) . . .
93(5) . . .
95(5) . . .
83(5) . . .
94(5) . . .
88(5) . . .
95(5) . . .
99(6) . . .
82(5) . . .
84(5) . . .
82(5) . . .
95(5) . . .
102(6) . . .
102(5) . . .
99(5) . . .
95(5) . . .
98(5) . . .
82(5) . . .
82(5) . . .
96(5) . . .
82(5) . . .
88(5) . . .
97(5) . . .
92(5) . . .
93(5) . . .
95(5) . . .
90(5) . . .
89(5) . . .
108(6) . . .
91(5) . . .
96(5) . . .
101(6) . . .
77(5) . . .
84(5) . . .
112(5) . . .
99(5) . . .
93(5) . . .
84(5) . . .
91(5) . . .
85(5) . . .
113(6) . . .
101(5) . . .
92(5) . . .
84(5) . . .
92(5) . . .
92(5) . . .
98(5) . . .
97(5) . . .
88(5) . . .
92(5) . . .
94(5) . . .
93(5) . . .
102(5) . . .
96(5) . . .
91(5) . . .
101(5) . . .
108(6) . . .
103(5) . . .
102(5) . . .
93(5) . . .
88(5) . . .
91(5) . . .
88(5) . . .
94(5) . . .
86(5) . . .
89(5) . . .
94(5) . . .
94(5) . . .
92(5) . . .
96(5) . . .
98(5) . . .
93(5) . . .
79(5) . . .
89(5) . . .
102(5) . . .
104(6) . . .
90(5) . . .
81(5) . . .
101(5) . . .
95(5) . . .
90(5) . . .
95(5) . . .
90(5) . . .
84(5) . . .
102(5) . . .
109(6) . . .
111(6) . . .
107(5) . . .
111(5) . . .
85(5) . . .
107(6) . . .
86(5) . . .
87(5) . . .
95(5) . . .
91(5) . . .
90(5) . . .
92(5) . . .
91(5) . . .
95(5) . . .
102(6) . . .
87(5) . . .
95(5) . . .
95(5) . . .
95(5) . . .
91(5) . . .
99(6) . . .
102(6) . . .
93(5) . . .
99(5) . . .
98(5) . . .
107(6) . . .
90(5) . . .
96(5) . . .
104(5) . . .
99(5) . . .
108(6) . . .
106(6) . . .
110(5) . . .
91(5) . . .
102(5) . . .
99(6) . . .
103(5) . . .
91(5) . . .
91(5) . . .
98(5) . . .
89(5) . . .
94(5) . . .
99(5) . . .
91(5) . . .
97(5) . . .
85(5) . . .
101(5) . . .
94(5) . . .
101(5) . . .
102(6) . . .
86(5) . . .
107(5) . . .
101(5) . . .
91(5) . . .
91(5) . . .
95(5) . . .
82(5) . . .
98(5) . . .
92(5) . . .
97(5) . . .
90(5) . . .
85(5) . . .
87(5) . . .
99(5) . . .
98(5) . . .
96(5) . . .
91(5) . . .
90(5) . . .
89(5) . . .
79(5) . . .
89(5) . . .
87(5) . . .
99(5) . . .
110(6) . . .
109(6) . . .
100(5) . . .
95(5) . . .
87(5) . . .
96(5) . . .
95(5) . . .
92(5) . . .
98(5) . . .
92(5) . . .
86(5) . . .
89(5) . . .
94(5) . . .
97(5) . . .
94(5) . . .
96(5) . . .
92(5) . . .
89(5) . . .
93(5) . . .
92(5) . . .
103(5) . . .
84(5) . . .
87(5) . . .
89(5) . . .
94(5) . . .
93(5) . . .
102(5) . . .
100(5) . . .
110(5) . . .
99(5) . . .
101(5) . . .
97(5) . . .
97(5) . . .
88(5) . . .
81(5) . . .
89(5) . . .
109(6) . . .
88(5) . . .
88(5) . . .
77(5) . . .
89(5) . . .
91(5) . . .
95(5) . . .
94(5) . . .
82(5) . . .
92(5) . . .
85(5) . . .
86(5) . . .
101(5) . . .
80(5) . . .
80(5) . . .
91(5) . . .
81(5) . . .
91(5) . . .
91(5) . . .
75(5) . . .
82(5) . . .
92(5) . . .
79(5) . . .
92(5) . . .
88(5) . . .
87(5) . . .
87(5) . . .
101(5) . . .
94(5) . . .
89(5) . . .
96(5) . . .
102(5) . . .
110(5) . . .
98(5) . . .
91(5) . . .
90(5) . . .
88(5) . . .
100(5) . . .
92(5) . . .
91(5) . . .
74(5) . . .
95(5) . . .
101(5) . . .
76(5) . . .
84(5) . . .
88(5) . . .
89(5) . . .
95(5) . . .
79(5) . . .
91(5) . . .
103(5) . . .
92(5) . . .
97(5) . . .
90(5) . . .
80(5) . . .
99(5) . . .
91(5) . . .
91(5) . . .
100(5) . . .
103(5) . . .
92(5) . . .
100(5) . . .
95(5) . . .
110(6) . . .
105(6) . . .
88(5) . . .
86(5) . . .
90(5) . . .
98(6) . . .
105(5) . . .
95(5) . . .
103(5) . . .
90(5) . . .
102(5) . . .
99(5) . . .
96(5) . . .
88(5) . . .
103(5) . . .
105(6) . . .
87(5) . . .
83(5) . . .
93(5) . . .
109(6) . . .
87(5) . . .
84(5) . . .
100(5) . . .
96(5) . . .
109(6) . . .
104(6) . . .
87(5) . . .
106(5) . . .
107(5) . . .
103(6) . . .
94(5) . . .
91(5) . . .
84(5) . . .
102(6) . . .
86(5) . . .
92(5) . . .
102(5) . . .
98(5) . . .
95(5) . . .
81(5) . . .
82(5) . . .
96(5) . . .
94(5) . . .
94(5) . . .
95(5) . . .
91(5) . . .
105(5) . . .
92(5) . . .
81(5) . . .
99(6) . . .
99(5) . . .
110(6) . . .
100(5) . . .
86(5) . . .
91(5) . . .
92(5) . . .
77(4) . . .
97(5) . . .
85(5) . . .
108(6) . . .
92(5) . . .
87(5) . . .
77(5) . . .
93(5) . . .
87(5) . . .
102(5) . . .
87(5) . . .
91(5) . . .
88(5) . . .
96(6) . . .
87(5) . . .
82(5) . . .
87(5) . . .
90(5) . . .
90(5) . . .
92(5) . . .
78(5) . . .
89(5) . . .
110(6) . . .
89(5) . . .
113(6) . . .
95(5) . . .
81(5) . . .
79(5) . . .
100(6) . . .
80(5) . . .
94(5) . . .
81(5) . . .
86(5) . . .
90(5) . . .
87(5) . . .
85(5) . . .
96(5) . . .
99(6) . . .
90(5) . . .
94(5) . . .
94(5) . . .
98(6) . . .
86(5) . . .
83(5) . . .
90(5) . . .
101(5) . . .
94(5) . . .
85(5) . . .
100(6) . . .
90(5) . . .
98(5) . . .
95(5) . . .
83(5) . . .
86(5) . . .
91(5) . . .
85(5) . . .
95(5) . . .
103(6) . . .
83(5) . . .
93(5) . . .
95(5) . . .
95(5) . . .
110(6) . . .
96(5) . . .
88(5) . . .
93(5) . . .
88(5) . . .
92(5) . . .
92(5) . . .
80(5) . . .
96(5) . . .
105(6) . . .
89(5) . . .
93(5) . . .
94(5) . . .
81(5) . . .
91(5) . . .
94(5) . . .
93(5) . . .
87(5) . . .
83(5) . . .
87(5) . . .
95(5) . . .
102(5) . . .
99(5) . . .
92(5) . . .
83(5) . . .
90(5) . . .
94(5) . . .
86(5) . . .
86(5) . . .
86(5) . . .
88(5) . . .
81(5) . . .
88(5) . . .
76(5) . . .
91(6) . . .
90(5) . . .
84(5) . . .
92(5) . . .
98(6) . . .
104(6) . . .
104(5) . . .
92(5) . . .
98(5) . . .
94(5) . . .
98(6) . . .
90(5) . . .
97(5) . . .
86(5) . . .
84(5) . . .
81(5) . . .
88(5) . . .
81(5) . . .
92(5) . . .
81(5) . . .
86(5) . . .
91(5) . . .
90(5) . . .
97(5) . . .
97(5) . . .
95(5) . . .
74(5) . . .
83(5) . . .
88(5) . . .
80(5) . . .
84(5) . . .
93(5) . . .
88(5) . . .
79(5) . . .
89(5) . . .
88(5) . . .
88(5) . . .
86(5) . . .
79(5) . . .
90(5) . . .
92(5) . . .
82(5) . . .
83(5) . . .
85(5) . . .
95(5) . . .
84(5) . . .
108(5) . . .
92(5) . . .
75(5) . . .
83(5) . . .
84(5) . . .
88(5) . . .
89(5) . . .
91(5) . . .
100(6) . . .
85(5) . . .
95(5) . . .
100(5) . . .
81(5) . . .
73(5) . . .
90(5) . . .
85(5) . . .
90(5) . . .
90(5) . . .
93(5) . . .
81(5) . . .
89(5) . . .
106(5) . . .
93(5) . . .
78(5) . . .
87(5) . . .
88(5) . . .
83(5) . . .
77(5) . . .
85(5) . . .
103(5) . . .
87(5) . . .
101(5) . . .
88(5) . . .
92(5) . . .
93(5) . . .
96(5) . . .
85(5) . . .
95(5) . . .
72(4) . . .
84(5) . . .
88(5) . . .
84(5) . . .
86(5) . . .
92(5) . . .
85(5) . . .
99(5) . . .
100(5) . . .
94(5) . . .
81(5) . . .
91(5) . . .
89(5) . . .
95(5) . . .
87(5) . . .
87(5) . . .
98(5) . . .
95(5) . . .
97(5) . . .
91(5) . . .
93(5) . . .
91(5) . . .
90(5) . . .
90(5) . . .
84(5) . . .
82(5) . . .
78(5) . . .
92(5) . . .
87(5) . . .
70(5) . . .
83(5) . . .
83(5) . . .
93(5) . . .
85(5) . . .
86(5) . . .
84(5) . . .
88(5) . . .
82(5) . . .
94(5) . . .
86(5) . . .
90(5) . . .
87(5) . . .
88(5) . . .
91(5) . . .
100(6) . . .
100(5) . . .
85(5) . . .
71(4) . . .
81(5) . . .
92(5) . . .
96(5) . . .
91(5) . . .
97(5) . . .
87(5) . . .
87(5) . . .
77(5) . . .
77(5) . . .
83(5) . . .
92(5) . . .
101(5) . . .
83(5) . . .
92(5) . . .
85(5) . . .
87(5) . . .
86(5) . . .
83(5) . . .
98(5) . . .
93(5) . . .
97(6) . . .
82(5) . . .
78(5) . . .
76(4) . . .
90(5) . . .
98(5) . . .
85(5) . . .
98(5) . . .
95(5) . . .
81(5) . . .
69(5) . . .
87(5) . . .
77(5) . . .
83(5) . . .
93(5) . . .
91(5) . . .
79(5) . . .
82(5) . . .
81(5) . . .
96(5) . . .
92(5) . . .
88(5) . . .
77(5) . . .
93(5) . . .
98(5) . . .
87(5) . . .
92(5) . . .
78(5) . . .
82(5) . . .
94(5) . . .
92(5) . . .
94(5) . . .
78(5) . . .
76(5) . . .
80(5) . . .
87(5) . . .
92(5) . . .
88(5) . . .
71(5) . . .
90(5) . . .
92(5) . . .
80(5) . . .
85(5) . . .
88(5) . . .
94(5) . . .
97(5) . . .
100(5) . . .
87(5) . . .
95(5) . . .
84(5) . . .
84(5) . . .
77(5) . . .
79(5) . . .
85(5) . . .
92(5) . . .
103(6) . . .
84(5) . . .
92(5) . . .
91(5) . . .
81(5) . . .
83(5) . . .
90(5) . . .
79(5) . . .
80(5) . . .
82(5) . . .
84(5) . . .
80(5) . . .
89(5) . . .
88(5) . . .
85(5) . . .
91(5) . . .
101(5) . . .
76(5) . . .
88(5) . . .
92(5) . . .
79(5) . . .
98(5) . . .
84(5) . . .
66(4) . . .
81(5) . . .
91(5) . . .
90(5) . . .
92(5) . . .
79(5) . . .
91(5) . . .
68(4) . . .
73(5) . . .
81(5) . . .
82(5) . . .
87(5) . . .
101(5) . . .
87(5) . . .
87(5) . . .
88(5) . . .
84(5) . . .
77(5) . . .
79(5) . . .
78(5) . . .
93(5) . . .
86(5) . . .
88(5) . . .
96(5) . . .
93(5) . . .
87(5) . . .
86(5) . . .
88(5) . . .
82(5) . . .
87(5) . . .
85(5) . . .
92(5) . . .
83(5) . . .
82(5) . . .
97(5) . . .
92(5) . . .
82(5) . . .
82(5) . . .
89(5) . . .
93(5) . . .
98(5) . . .
94(5) . . .
68(4) . . .
82(5) . . .
93(5) . . .
97(5) . . .
90(5) . . .
93(5) . . .
79(5) . . .
80(5) . . .
87(5) . . .
92(5) . . .
76(5) . . .
92(5) . . .
89(5) . . .
91(5) . . .
88(5) . . .
90(5) . . .
85(5) . . .
89(5) . . .
92(5) . . .
90(5) . . .
89(5) . . .
89(5) . . .
100(6) . . .
86(5) . . .
89(5) . . .
103(5) . . .
85(5) . . .
87(5) . . .
85(5) . . .
83(5) . . .
96(5) . . .
89(5) . . .
105(6) . . .
81(5) . . .
90(5) . . .
87(5) . . .
90(5) . . .
87(5) . . .
80(5) . . .
87(5) . . .
99(5) . . .
84(5) . . .
80(5) . . .
79(5) . . .
79(5) . . .
80(5) . . .
88(5) . . .
97(5) . . .
94(5) . . .
102(5) . . .
97(5) . . .
91(5) . . .
97(6) . . .
80(5) . . .
76(5) . . .
85(5) . . .
83(5) . . .
86(5) . . .
80(5) . . .
79(5) . . .
90(5) . . .
79(5) . . .
80(5) . . .
91(5) . . .
82(5) . . .
84(5) . . .
89(5) . . .
89(5) . . .
95(5) . . .
87(5) . . .
81(5) . . .
88(5) . . .
80(5) . . .
92(5) . . .
89(5) . . .
93(5) . . .
87(5) . . .
88(5) . . .
80(5) . . .
97(5) . . .
92(5) . . .
84(5) . . .
72(4) . . .
87(5) . . .
93(5) . . .
86(5) . . .
77(5) . . .
90(5) . . .
92(5) . . .
96(5) . . .
84(5) . . .
84(5) . . .
90(5) . . .
92(5) . . .
96(5) . . .
70(5) . . .
88(5) . . .
86(5) . . .
75(4) . . .
83(5) . . .
96(5) . . .
89(5) . . .
93(5) . . .
84(5) . . .
90(5) . . .
78(5) . . .
82(5) . . .
92(5) . . .
90(5) . . .
95(5) . . .
89(5) . . .
90(5) . . .
94(5) . . .
82(5) . . .
88(5) . . .
84(5) . . .
90(5) . . .
86(5) . . .
91(5) . . .
96(5) . . .
83(5) . . .
93(5) . . .
100(5) . . .
81(5) . . .
71(4) . . .
93(5) . . .
87(5) . . .
75(5) . . .
78(5) . . .
85(5) . . .
80(5) . . .
81(5) . . .
88(5) . . .
75(4) . . .
79(5) . . .
73(5) . . .
72(5) . . .
88(5) . . .
79(5) . . .
74(5) . . .
80(5) . . .
85(5) . . .
81(5) . . .
76(5) . . .
84(5) . . .
90(5) . . .
93(5) . . .
93(5) . . .
87(5) . . .
81(5) . . .
82(5) . . .
91(5) . . .
87(5) . . .
94(5) . . .
85(5) . . .
84(5) . . .
93(5) . . .
80(5) . . .
99(5) . . .
75(4) . . .
79(5) . . .
68(4) . . .
95(5) . . .
93(5) . . .
84(5) . . .
83(5) . . .
94(5) . . .
80(5) . . .
72(4) . . .
86(5) . . .
85(5) . . .
78(5) . . .
80(5) . . .
80(5) . . .
83(5) . . .
83(5) . . .
80(5) . . .
88(5) . . .
88(5) . . .
89(5) . . .
81(5) . . .
98(5) . . .
84(5) . . .
86(5) . . .
84(5) . . .
80(5) . . .
77(5) . . .
85(5) . . .
87(5) . . .
86(5) . . .
89(5) . . .
84(5) . . .
87(5) . . .
94(5) . . .
94(5) . . .
84(5) . . .
84(5) . . .
83(5) . . .
86(5) . . .
85(5) . . .
73(4) . . .
75(4) . . .
99(5) . . .
102(6) . . .
71(5) . . .
86(5) . . .
107(5) . . .
79(5) . . .
83(5) . . .
87(5) . . .
84(5) . . .
81(5) . . .
82(5) . . .
90(5) . . .
75(5) . . .
101(5) . . .
78(5) . . .
86(5) . . .
77(5) . . .
72(5) . . .
80(5) . . .
84(5) . . .
81(5) . . .
78(5) . . .
85(5) . . .
89(5) . . .
87(5) . . .
86(5) . . .
82(5) . . .
81(5) . . .
73(4) . . .
82(5) . . .
89(5) . . .
81(5) . . .
83(5) . . .
97(5) . . .
86(5) . . .
76(5) . . .
84(5) . . .
74(4) . . .
76(4) . . .
82(5) . . .
85(5) . . .
85(5) . . .
90(5) . . .
87(5) . . .
86(5) . . .
87(5) . . .
85(5) . . .
87(5) . . .
84(5) . . .
76(5) . . .
85(5) . . .
91(5) . . .
91(5) . . .
80(5) . . .
79(5) . . .
74(4) . . .
84(5) . . .
75(5) . . .
79(5) . . .
88(5) . . .
89(5) . . .
97(5) . . .
99(5) . . .
89(5) . . .
89(5) . . .
75(5) . . .
92(5) . . .
84(5) . . .
77(5) . . .
84(5) . . .
84(5) . . .
94(5) . . .
94(5) . . .
81(5) . . .
89(5) . . .
72(4) . . .
84(5) . . .
77(5) . . .
77(5) . . .
82(5) . . .
87(5) . . .
85(5) . . .
72(4) . . .
84(5) . . .
79(5) . . .
75(5) . . .
81(5) . . .
87(5) . . .
82(5) . . .
83(5) . . .
82(5) . . .
69(4) . . .
80(5) . . .
89(5) . . .
81(5) . . .
88(5) . . .
83(5) . . .
82(5) . . .
86(5) . . .
88(5) . . .
82(5) . . .
98(5) . . .
95(5) . . .
79(5) . . .
86(5) . . .
81(5) . . .
80(5) . . .
84(5) . . .
87(5) . . .
85(5) . . .
81(5) . . .
79(5) . . .
85(5) . . .
84(5) . . .
85(5) . . .
84(5) . . .
97(5) . . .
81(5) . . .
70(5) . . .
84(5) . . .
72(4) . . .
78(5) . . .
67(4) . . .
83(5) . . .
73(4) . . .
69(4) . . .
82(5) . . .
87(5) . . .
77(5) . . .
75(5) . . .
87(5) . . .
92(5) . . .
84(5) . . .
84(5) . . .
83(5) . . .
81(5) . . .
94(5) . . .
83(5) . . .
76(5) . . .
86(5) . . .
85(5) . . .
88(5) . . .
89(5) . . .
72(4) . . .
87(5) . . .
86(5) . . .
83(5) . . .
84(5) . . .
82(5) . . .
93(5) . . .
87(5) . . .
71(4) . . .
74(5) . . .
75(5) . . .
77(5) . . .
93(5) . . .
76(5) . . .
89(5) . . .
86(5) . . .
81(5) . . .
77(5) . . .
87(5) . . .
84(5) . . .
84(5) . . .
79(5) . . .
68(4) . . .
89(5) . . .
86(5) . . .
93(5) . . .
95(5) . . .
95(5) . . .
74(5) . . .
78(5) . . .
75(5) . . .
79(5) . . .
72(4) . . .
66(4) . . .
81(5) . . .
75(5) . . .
79(5) . . .
91(5) . . .
79(5) . . .
83(5) . . .
83(5) . . .
82(5) . . .
88(5) . . .
79(5) . . .
78(5) . . .
93(6) . . .
77(5) . . .
84(5) . . .
92(5) . . .
70(4) . . .
84(5) . . .
82(5) . . .
75(5) . . .
82(5) . . .
89(5) . . .
85(5) . . .
73(5) . . .
90(5) . . .
90(5) . . .
76(5) . . .
82(5) . . .
90(5) . . .
76(5) . . .
73(5) . . .
85(5) . . .
85(5) . . .
74(5) . . .
80(5) . . .
82(5) . . .
67(4) . . .
74(5) . . .
77(5) . . .
76(5) . . .
85(5) . . .
87(5) . . .
74(5) . . .
72(4) . . .
83(5) . . .
87(5) . . .
80(5) . . .
95(5) . . .
88(5) . . .
79(5) . . .
86(5) . . .
77(5) . . .
89(5) . . .
82(5) . . .
92(5) . . .
79(5) . . .
79(5) . . .
81(5) . . .
75(5) . . .
73(4) . . .
79(5) . . .
84(5) . . .
84(5) . . .
97(5) . . .
85(5) . . .
88(5) . . .
87(5) . . .
90(5) . . .
76(5) . . .
78(5) . . .
77(5) . . .
79(5) . . .
79(5) . . .
93(5) . . .
87(5) . . .
94(5) . . .
84(5) . . .
79(5) . . .
87(5) . . .
82(5) . . .
81(5) . . .
74(5) . . .
88(5) . . .
90(5) . . .
95(5) . . .
78(5) . . .
67(4) . . .
84(5) . . .
88(5) . . .
73(4) . . .
79(5) . . .
91(5) . . .
83(5) . . .
79(5) . . .
80(5) . . .
78(5) . . .
75(5) . . .
88(5) . . .
89(5) . . .
81(5) . . .
84(5) . . .
92(6) . . .
88(5) . . .
88(5) . . .
80(5) . . .
83(5) . . .
65(4) . . .
85(5) . . .
89(5) . . .
85(5) . . .
77(5) . . .
87(5) . . .
79(5) . . .
88(5) . . .
81(5) . . .
75(5) . . .
80(5) . . .
85(5) . . .
75(5) . . .
77(5) . . .
83(5) . . .
89(5) . . .
79(5) . . .
79(5) . . .
77(5) . . .
81(5) . . .
78(5) . . .
99(5) . . .
77(5) . . .
79(5) . . .
87(5) . . .
98(5) . . .
76(5) . . .
76(5) . . .
82(5) . . .
84(5) . . .
79(5) . . .
86(5) . . .
80(5) . . .
73(5) . . .
87(5) . . .
77(5) . . .
68(4) . . .
79(5) . . .
75(5) . . .
77(5) . . .
77(5) . . .
78(5) . . .
84(5) . . .
75(5) . . .
77(5) . . .
72(4) . . .
87(5) . . .
84(5) . . .
79(5) . . .
76(5) . . .
74(5) . . .
72(4) . . .
82(5) . . .
82(5) . . .
86(5) . . .
79(5) . . .
77(5) . . .
81(5) . . .
79(5) . . .
89(5) . . .
88(5) . . .
76(4) . . .
83(5) . . .
76(5) . . .
79(5) . . .
77(5) . . .
81(5) . . .
85(5) . . .
82(5) . . .
82(5) . . .
74(4) . . .
78(5) . . .
73(5) . . .
81(5) . . .
94(5) . . .
85(5) . . .
81(5) . . .
70(4) . . .
84(5) . . .
78(5) . . .
78(5) . . .
75(5) . . .
79(5) . . .
74(5) . . .
77(5) . . .
83(5) . . .
84(5) . . .
91(5) . . .
94(5) . . .
79(5) . . .
77(5) . . .
71(5) . . .
72(5) . . .
82(5) . . .
77(5) . . .
80(5) . . .
77(5) . . .
83(5) . . .
73(4) . . .
78(5) . . .
76(5) . . .
87(5) . . .
80(5) . . .
86(5) . . .
88(5) . . .
78(5) . . .
90(5) . . .
93(5) . . .
73(4) . . .
94(5) . . .
83(5) . . .
83(5) . . .
94(5) . . .
92(5) . . .
88(5) . . .
96(5) . . .
81(5) . . .
82(5) . . .
84(5) . . .
87(5) . . .
82(5) . . .
83(5) . . .
86(5) . . .
71(4) . . .
79(5) . . .
71(4) . . .
83(5) . . .
75(4) . . .
75(5) . . .
71(4) . . .
88(5) . . .
79(5) . . .
82(5) . . .
90(5) . . .
88(5) . . .
86(5) . . .
77(5) . . .
71(5) . . .
80(5) . . .
73(5) . . .
77(5) . . .
90(5) . . .
79(5) . . .
76(5) . . .
75(4) . . .
76(5) . . .
86(5) . . .
87(5) . . .
82(5) . . .
79(5) . . .
78(5) . . .
78(5) . . .
96(5) . . .
80(5) . . .
80(5) . . .
83(5) . . .
79(5) . . .
80(5) . . .
86(5) . . .
91(5) . . .
92(5) . . .
89(5) . . .
86(5) . . .
85(5) . . .
90(5) . . .
84(5) . . .
56(4) . . .
83(5) . . .
80(5) . . .
83(5) . . .
92(5) . . .
80(5) . . .
77(5) . . .
78(5) . . .
86(5) . . .
84(5) . . .
73(5) . . .
80(5) . . .
77(5) . . .
84(5) . . .
82(5) . . .
88(5) . . .
70(4) . . .
86(5) . . .
78(5) . . .
74(5) . . .
84(5) . . .
81(5) . . .
72(4) . . .
96(5) . . .
84(5) . . .
74(5) . . .
93(5) . . .
73(4) . . .
83(5) . . .
76(5) . . .
80(5) . . .
79(5) . . .
75(4) . . .
75(5) . . .
88(5) . . .
80(5) . . .
75(4) . . .
83(5) . . .
71(4) . . .
72(5) . . .
78(5) . . .
95(5) . . .
81(5) . . .
89(5) . . .
80(5) . . .
73(5) . . .
81(5) . . .
84(5) . . .
99(5) . . .
83(5) . . .
74(5) . . .
80(5) . . .
70(4) . . .
76(5) . . .
74(5) . . .
78(5) . . .
94(5) . . .
81(5) . . .
72(5) . . .
85(5) . . .
81(5) . . .
69(4) . . .
83(5) . . .
79(5) . . .
73(5) . . .
83(5) . . .
86(5) . . .
77(5) . . .
86(5) . . .
88(5) . . .
90(5) . . .
68(4) . . .
71(5) . . .
85(5) . . .
91(5) . . .
80(5) . . .
91(5) . . .
86(5) . . .
76(5) . . .
80(5) . . .
78(5) . . .
75(5) . . .
85(5) . . .
84(5) . . .
82(5) . . .
83(5) . . .
78(5) . . .
73(5) . . .
78(5) . . .
82(5) . . .
89(5) . . .
83(5) . . .
76(5) . . .
86(5) . . .
71(5) . . .
83(5) . . .
84(5) . . .
84(5) . . .
70(5) . . .
84(5) . . .
82(5) . . .
83(5) . . .
69(4) . . .
70(5) . . .
76(5) . . .
86(5) . . .
84(5) . . .
77(5) . . .
71(5) . . .
71(4) . . .
100(5) . . .
86(5) . . .
73(5) . . .
78(5) . . .
84(5) . . .
84(5) . . .
80(5) . . .
72(5) . . .
77(5) . . .
87(5) . . .
94(5) . . .
75(5) . . .
69(5) . . .
83(5) . . .
71(4) . . .
70(4) . . .
77(5) . . .
76(5) . . .
90(5) . . .
74(4) . . .
81(5) . . .
83(5) . . .
90(5) . . .
88(5) . . .
71(4) . . .
80(5) . . .
84(5) . . .
74(5) . . .
79(5) . . .
87(5) . . .
86(5) . . .
73(5) . . .
78(5) . . .
79(5) . . .
90(5) . . .
86(5) . . .
73(5) . . .
75(5) . . .
69(4) . . .
77(5) . . .
80(5) . . .
78(5) . . .
85(5) . . .
92(5) . . .
78(5) . . .
79(5) . . .
79(5) . . .
69(5) . . .
73(5) . . .
67(4) . . .
82(5) . . .
79(5) . . .
81(5) . . .
68(4) . . .
85(5) . . .
87(5) . . .
77(5) . . .
78(5) . . .
82(5) . . .
72(4) . . .
79(5) . . .
76(5) . . .
85(5) . . .
80(5) . . .
75(5) . . .
71(4) . . .
84(5) . . .
80(5) . . .
66(4) . . .
78(5) . . .
77(5) . . .
89(5) . . .
83(5) . . .
77(5) . . .
80(5) . . .
69(4) . . .
87(5) . . .
75(5) . . .
86(5) . . .
87(5) . . .
78(5) . . .
86(5) . . .
80(5) . . .
78(5) . . .
82(5) . . .
69(4) . . .
80(5) . . .
87(5) . . .
75(4) . . .
73(4) . . .
71(5) . . .
66(5) . . .
75(5) . . .
82(5) . . .
73(5) . . .
77(5) . . .
69(5) . . .
88(5) . . .
83(5) . . .
87(5) . . .
81(5) . . .
80(5) . . .
90(5) . . .
71(4) . . .
91(5) . . .
79(5) . . .
79(5) . . .
71(4) . . .
64(4) . . .
73(5) . . .
78(5) . . .
68(4) . . .
75(5) . . .
78(5) . . .
80(5) . . .
80(5) . . .
85(5) . . .
78(5) . . .
71(4) . . .
89(5) . . .
69(5) . . .
79(5) . . .
80(5) . . .
70(4) . . .
68(4) . . .
72(5) . . .
74(5) . . .
75(5) . . .
75(5) . . .
73(5) . . .
99(6) . . .
77(5) . . .
81(5) . . .
92(5) . . .
83(5) . . .
80(5) . . .
72(5) . . .
82(5) . . .
80(5) . . .
77(5) . . .
78(5) . . .
87(5) . . .
88(5) . . .
84(5) . . .
92(5) . . .
84(5) . . .
77(5) . . .
78(5) . . .
89(5) . . .
76(5) . . .
69(4) . . .
76(5) . . .
79(5) . . .
76(5) . . .
83(5) . . .
69(4) . . .
82(5) . . .
82(5) . . .
73(4) . . .
68(5) . . .
68(5) . . .
85(5) . . .
89(5) . . .
81(5) . . .
82(5) . . .
72(5) . . .
69(4) . . .
77(5) . . .
86(5) . . .
83(5) . . .
83(5) . . .
70(5) . . .
79(5) . . .
77(5) . . .
76(5) . . .
88(5) . . .
82(5) . . .
77(5) . . .
90(5) . . .
80(5) . . .
91(5) . . .
80(5) . . .
82(5) . . .
91(5) . . .
86(5) . . .
91(5) . . .
81(5) . . .
82(5) . . .
63(4) . . .
76(5) . . .
75(5) . . .
80(5) . . .
84(5) . . .
81(5) . . .
73(5) . . .
74(5) . . .
85(5) . . .
86(5) . . .
95(5) . . .
86(5) . . .
80(5) . . .
76(5) . . .
85(5) . . .
83(5) . . .
79(5) . . .
98(6) . . .
73(4) . . .
74(5) . . .
76(5) . . .
80(5) . . .
77(5) . . .
79(5) . . .
91(5) . . .
74(4) . . .
84(5) . . .
74(5) . . .
79(5) . . .
81(5) . . .
82(5) . . .
80(5) . . .
82(5) . . .
75(4) . . .
72(5) . . .
82(5) . . .
93(5) . . .
79(5) . . .
77(5) . . .
69(4) . . .
66(5) . . .
81(5) . . .
80(5) . . .
73(4) . . .
72(5) . . .
86(5) . . .
89(5) . . .
79(5) . . .
71(4) . . .
77(5) . . .
79(5) . . .
66(4) . . .
71(4) . . .
65(4) . . .
90(5) . . .
73(4) . . .
87(5) . . .
95(5) . . .
68(4) . . .
72(5) . . .
66(4) . . .
72(4) . . .
82(5) . . .
90(5) . . .
90(5) . . .
75(5) . . .
76(5) . . .
84(5) . . .
76(5) . . .
67(4) . . .
77(5) . . .
79(5) . . .
85(5) . . .
78(5) . . .
68(4) . . .
75(5) . . .
77(5) . . .
73(4) . . .
72(5) . . .
67(5) . . .
71(4) . . .
79(5) . . .
70(4) . . .
73(5) . . .
75(5) . . .
73(5) . . .
70(4) . . .
78(5) . . .
91(5) . . .
72(5) . . .
93(5) . . .
74(4) . . .
76(5) . . .
73(4) . . .
70(5) . . .
80(5) . . .
87(5) . . .
68(4) . . .
82(5) . . .
71(5) . . .
70(4) . . .
75(4) . . .
84(5) . . .
82(5) . . .
76(5) . . .
73(5) . . .
81(5) . . .
74(4) . . .
86(5) . . .
78(5) . . .
82(5) . . .
81(5) . . .
73(4) . . .
76(5) . . .
83(5) . . .
83(5) . . .
88(5) . . .
80(5) . . .
90(5) . . .
80(5) . . .
76(5) . . .
83(5) . . .
89(5) . . .
84(5) . . .
79(5) . . .
81(5) . . .
72(4) . . .
71(4) . . .
86(5) . . .
99(5) . . .
82(5) . . .
73(4) . . .
68(4) . . .
81(5) . . .
80(5) . . .
83(5) . . .
75(4) . . .
59(4) . . .
88(5) . . .
71(4) . . .
79(5) . . .
79(5) . . .
71(5) . . .
71(5) . . .
69(5) . . .
85(5) . . .
78(5) . . .
76(5) . . .
81(5) . . .
86(5) . . .
83(5) . . .
71(4) . . .
74(5) . . .
84(5) . . .
91(5) . . .
81(5) . . .
88(5) . . .
86(5) . . .
83(5) . . .
86(5) . . .
74(5) . . .
75(4) . . .
84(5) . . .
86(5) . . .
68(4) . . .
78(5) . . .
90(5) . . .
83(5) . . .
73(5) . . .
78(5) . . .
69(4) . . .
81(5) . . .
77(5) . . .
71(5) . . .
71(4) . . .
93(5) . . .
69(4) . . .
76(5) . . .
78(5) . . .
68(4) . . .
66(4) . . .
82(5) . . .
78(5) . . .
73(5) . . .
78(5) . . .
77(5) . . .
77(5) . . .
70(5) . . .
74(4) . . .
80(5) . . .
83(5) . . .
82(5) . . .
70(4) . . .
82(5) . . .
65(4) . . .
75(5) . . .
86(5) . . .
73(5) . . .
84(5) . . .
83(5) . . .
67(4) . . .
77(5) . . .
75(5) . . .
76(5) . . .
71(4) . . .
74(5) . . .
77(5) . . .
82(5) . . .
68(4) . . .
79(5) . . .
81(5) . . .
73(4) . . .
81(5) . . .
83(5) . . .
77(5) . . .
81(5) . . .
73(5) . . .
76(5) . . .
71(5) . . .
79(5) . . .
76(4) . . .
92(5) . . .
85(5) . . .
93(5) . . .
96(5) . . .
82(5) . . .
86(5) . . .
87(5) . . .
75(5) . . .
74(4) . . .
70(4) . . .
72(5) . . .
77(5) . . .
85(5) . . .
71(4) . . .
78(5) . . .
79(5) . . .
82(5) . . .
72(4) . . .
80(5) . . .
77(5) . . .
75(5) . . .
74(5) . . .
75(5) . . .
92(5) . . .
96(6) . . .
77(5) . . .
85(5) . . .
64(4) . . .
86(5) . . .
69(4) . . .
68(4) . . .
72(5) . . .
70(4) . . .
71(4) . . .
59(4) . . .
68(5) . . .
66(4) . . .
79(5) . . .
69(4) . . .
78(5) . . .
74(5) . . .
72(5) . . .
74(4) . . .
75(5) . . .
66(4) . . .
73(5) . . .
73(5) . . .
83(5) . . .
83(5) . . .
92(5) . . .
84(5) . . .
78(5) . . .
77(5) . . .
74(5) . . .
72(5) . . .
79(5) . . .
92(5) . . .
82(5) . . .
63(4) . . .
78(5) . . .
85(5) . . .
61(4) . . .
73(4) . . .
78(5) . . .
71(5) . . .
78(5) . . .
81(5) . . .
92(5) . . .
81(5) . . .
75(5) . . .
74(5) . . .
75(5) . . .
73(4) . . .
78(5) . . .
64(4) . . .
83(5) . . .
77(5) . . .
79(5) . . .
72(5) . . .
72(5) . . .
83(5) . . .
72(4) . . .
69(4) . . .
75(5) . . .
81(5) . . .
77(5) . . .
75(4) . . .
71(4) . . .
76(5) . . .
72(4) . . .
74(5) . . .
78(5) . . .
80(5) . . .
71(4) . . .
88(5) . . .
72(4) . . .
77(5) . . .
67(4) . . .
78(5) . . .
80(5) . . .
78(5) . . .
77(5) . . .
70(5) . . .
77(5) . . .
63(4) . . .
72(5) . . .
70(4) . . .
76(5) . . .
75(5) . . .
81(5) . . .
72(4) . . .
84(5) . . .
74(5) . . .
84(5) . . .
80(5) . . .
76(5) . . .
77(5) . . .
80(5) . . .
82(5) . . .
75(5) . . .
82(5) . . .
76(4) . . .
77(5) . . .
77(5) . . .
82(5) . . .
76(4) . . .
82(5) . . .
75(4) . . .
67(4) . . .
77(5) . . .
84(5) . . .
77(5) . . .
80(5) . . .
83(5) . . .
81(5) . . .
67(4) . . .
72(4) . . .
71(5) . . .
79(5) . . .
72(5) . . .
86(5) . . .
83(5) . . .
78(5) . . .
76(5) . . .
71(5) . . .
82(5) . . .
79(5) . . .
79(5) . . .
65(4) . . .
60(4) . . .
70(4) . . .
75(4) . . .
77(5) . . .
76(5) . . .
71(4) . . .
78(5) . . .
89(5) . . .
73(5) . . .
77(5) . . .
83(5) . . .
65(4) . . .
63(4) . . .
86(5) . . .
85(5) . . .
89(5) . . .
84(5) . . .
76(5) . . .
87(5) . . .
73(5) . . .
83(5) . . .
85(5) . . .
77(5) . . .
67(4) . . .
65(4) . . .
83(5) . . .
91(5) . . .
86(5) . . .
78(5) . . .
91(5) . . .
72(4) . . .
86(5) . . .
82(5) . . .
85(5) . . .
85(5) . . .
73(4) . . .
67(4) . . .
74(5) . . .
70(5) . . .
72(4) . . .
78(5) . . .
74(4) . . .
76(5) . . .
79(5) . . .
91(5) . . .
80(5) . . .
76(5) . . .
79(5) . . .
80(5) . . .
102(5) . . .
76(4) . . .
84(5) . . .
77(5) . . .
73(5) . . .
75(5) . . .
78(5) . . .
74(5) . . .
74(5) . . .
84(5) . . .
85(5) . . .
75(5) . . .
73(5) . . .
74(5) . . .
87(5) . . .
79(5) . . .
73(4) . . .
74(5) . . .
72(5) . . .
89(5) . . .
68(4) . . .
75(4) . . .
75(5) . . .
83(5) . . .
84(5) . . .
76(4) . . .
80(5) . . .
84(5) . . .
83(5) . . .
72(4) . . .
73(4) . . .
83(5) . . .
71(5) . . .
83(5) . . .
77(5) . . .
84(5) . . .
78(5) . . .
80(5) . . .
79(5) . . .
73(5) . . .
73(4) . . .
77(5) . . .
78(5) . . .
68(4) . . .
74(5) . . .
79(5) . . .
81(5) . . .
72(5) . . .
75(5) . . .
72(4) . . .
83(5) . . .
68(4) . . .
84(5) . . .
76(5) . . .
71(5) . . .
81(5) . . .
79(5) . . .
79(5) . . .
73(5) . . .
76(5) . . .
76(5) . . .
68(4) . . .
81(5) . . .
68(4) . . .
75(4) . . .
82(5) . . .
71(4) . . .
72(5) . . .
84(5) . . .
83(5) . . .
70(4) . . .
78(5) . . .
70(5) . . .
76(5) . . .
72(4) . . .
80(5) . . .
77(5) . . .
86(5) . . .
79(5) . . .
61(4) . . .
67(4) . . .
94(5) . . .
71(5) . . .
64(4) . . .
74(5) . . .
78(5) . . .
75(5) . . .
63(4) . . .
75(5) . . .
74(4) . . .
77(5) . . .
77(5) . . .
68(5) . . .
71(4) . . .
67(4) . . .
73(5) . . .
82(5) . . .
74(5) . . .
73(5) . . .
74(4) . . .
81(5) . . .
75(5) . . .
67(4) . . .
75(5) . . .
73(4) . . .
72(4) . . .
59(4) . . .
71(5) . . .
84(5) . . .
73(4) . . .
64(4) . . .
76(5) . . .
71(5) . . .
79(5) . . .
62(4) . . .
66(4) . . .
66(4) . . .
72(5) . . .
71(4) . . .
85(5) . . .
81(5) . . .
67(4) . . .
76(5) . . .
83(5) . . .
67(4) . . .
70(4) . . .
75(5) . . .
76(5) . . .
63(4) . . .
75(5) . . .
84(5) . . .
79(5) . . .
73(5) . . .
79(5) . . .
79(5) . . .
73(5) . . .
74(5) . . .
73(5) . . .
79(5) . . .
88(5) . . .
65(4) . . .
74(5) . . .
71(4) . . .
71(4) . . .
69(4) . . .
74(5) . . .
69(4) . . .
69(4) . . .
73(4) . . .
83(5) . . .
70(4) . . .
80(5) . . .
66(4) . . .
62(4) . . .
81(5) . . .
76(5) . . .
75(5) . . .
76(5) . . .
67(4) . . .
80(5) . . .
66(4) . . .
81(5) . . .
78(5) . . .
67(4) . . .
64(4) . . .
75(5) . . .
71(5) . . .
65(4) . . .
69(4) . . .
69(5) . . .
79(5) . . .
65(4) . . .
73(4) . . .
85(5) . . .
78(5) . . .
70(5) . . .
84(5) . . .
70(4) . . .
74(4) . . .
73(5) . . .
67(4) . . .
72(4) . . .
64(4) . . .
72(4) . . .
75(5) . . .
72(5) . . .
74(5) . . .
67(4) . . .
86(5) . . .
73(5) . . .
66(5) . . .
67(5) . . .
69(4) . . .
73(4) . . .
72(5) . . .
69(4) . . .
66(4) . . .
62(4) . . .
78(5) . . .
75(5) . . .
78(5) . . .
82(5) . . .
68(4) . . .
76(5) . . .
69(5) . . .
75(5) . . .
79(5) . . .
77(5) . . .
76(5) . . .
72(5) . . .
70(5) . . .
68(4) . . .
74(4) . . .
85(5) . . .
83(5) . . .
67(4) . . .
64(4) . . .
71(4) . . .
68(4) . . .
69(5) . . .
66(4) . . .
69(4) . . .
83(5) . . .
80(5) . . .
80(5) . . .
78(5) . . .
66(4) . . .
73(4) . . .
76(5) . . .
66(4) . . .
82(5) . . .
68(4) . . .
76(5) . . .
69(4) . . .
75(5) . . .
76(5) . . .
81(5) . . .
76(5) . . .
76(5) . . .
80(5) . . .
83(5) . . .
66(4) . . .
71(4) . . .
65(4) . . .
74(5) . . .
81(5) . . .
86(5) . . .
78(5) . . .
76(5) . . .
73(4) . . .
78(5) . . .
68(4) . . .
54(4) . . .
79(5) . . .
72(5) . . .
78(5) . . .
70(4) . . .
65(4) . . .
76(5) . . .
80(5) . . .
68(4) . . .
81(5) . . .
83(5) . . .
80(5) . . .
70(4) . . .
82(5) . . .
76(5) . . .
74(5) . . .
84(5) . . .
75(5) . . .
74(4) . . .
68(4) . . .
78(5) . . .
74(5) . . .
67(4) . . .
80(5) . . .
71(4) . . .
87(5) . . .
72(5) . . .
68(4) . . .
61(4) . . .
78(5) . . .
67(4) . . .
76(5) . . .
68(4) . . .
58(4) . . .
70(4) . . .
77(5) . . .
78(5) . . .
76(5) . . .
80(5) . . .
77(5) . . .
69(4) . . .
70(4) . . .
80(5) . . .
73(4) . . .
75(5) . . .
85(5) . . .
75(5) . . .
71(4) . . .
81(5) . . .
72(4) . . .
76(5) . . .
74(5) . . .
73(4) . . .
73(4) . . .
88(5) . . .
90(5) . . .
79(5) . . .
70(4) . . .
74(4) . . .
77(5) . . .
70(4) . . .
75(4) . . .
83(5) . . .
73(4) . . .
91(5) . . .
80(5) . . .
67(4) . . .
79(5) . . .
67(4) . . .
86(5) . . .
80(5) . . .
83(5) . . .
85(5) . . .
83(5) . . .
81(5) . . .
90(5) . . .
72(5) . . .
76(5) . . .
85(5) . . .
80(5) . . .
86(5) . . .
72(4) . . .
66(4) . . .
67(4) . . .
61(4) . . .
75(5) . . .
69(4) . . .
81(5) . . .
66(4) . . .
69(5) . . .
68(4) . . .
80(5) . . .
89(5) . . .
83(5) . . .
75(5) . . .
89(5) . . .
76(5) . . .
82(5) . . .
67(4) . . .
72(5) . . .
76(5) . . .
82(5) . . .
71(4) . . .
81(5) . . .
77(5) . . .
83(5) . . .
86(5) . . .
79(5) . . .
69(5) . . .
74(5) . . .
76(5) . . .
79(5) . . .
73(4) . . .
70(4) . . .
77(5) . . .
89(5) . . .
64(4) . . .
84(5) . . .
72(5) . . .
87(6) . . .
78(5) . . .
70(4) . . .
74(4) . . .
76(5) . . .
84(5) . . .
78(5) . . .
75(5) . . .
87(5) . . .
77(5) . . .
73(5) . . .
84(5) . . .
79(5) . . .
96(5) . . .
86(5) . . .
73(5) . . .
63(4) . . .
73(4) . . .
79(5) . . .
85(5) . . .
63(4) . . .
73(5) . . .
68(4) . . .
76(5) . . .
73(5) . . .
78(5) . . .
67(4) . . .
81(5) . . .
77(5) . . .
72(5) . . .
76(5) . . .
80(5) . . .
78(5) . . .
80(5) . . .
81(5) . . .
79(5) . . .
81(5) . . .
60(4) . . .
73(5) . . .
76(5) . . .
70(5) . . .
72(4) . . .
69(4) . . .
76(5) . . .
82(5) . . .
72(4) . . .
80(5) . . .
71(4) . . .
78(5) . . .
78(5) . . .
83(5) . . .
79(5) . . .
67(4) . . .
58(4) . . .
63(4) . . .
76(5) . . .
75(4) . . .
76(5) . . .
80(5) . . .
78(5) . . .
83(5) . . .
82(5) . . .
82(5) . . .
75(4) . . .
88(5) . . .
74(5) . . .
70(4) . . .
77(5) . . .
71(4) . . .
81(5) . . .
80(5) . . .
66(4) . . .
76(4) . . .
73(5) . . .
79(5) . . .
80(5) . . .
81(5) . . .
63(4) . . .
69(4) . . .
81(5) . . .
71(4) . . .
71(4) . . .
66(4) . . .
73(5) . . .
70(4) . . .
65(4) . . .
74(5) . . .
77(5) . . .
84(5) . . .
71(4) . . .
83(5) . . .
74(4) . . .
71(5) . . .
68(4) . . .
70(5) . . .
69(4) . . .
72(4) . . .
70(4) . . .
77(5) . . .
79(5) . . .
84(5) . . .
78(5) . . .
72(4) . . .
90(5) . . .
74(5) . . .
73(4) . . .
75(4) . . .
74(5) . . .
83(5) . . .
63(4) . . .
71(4) . . .
68(4) . . .
66(4) . . .
71(5) . . .
80(5) . . .
63(4) . . .
78(5) . . .
66(4) . . .
76(5) . . .
61(4) . . .
68(4) . . .
66(4) . . .
75(5) . . .
80(5) . . .
78(5) . . .
66(4) . . .
71(4) . . .
78(5) . . .
79(5) . . .
70(4) . . .
70(4) . . .
89(5) . . .
76(5) . . .
79(5) . . .
79(5) . . .
73(4) . . .
80(5) . . .
82(5) . . .
66(4) . . .
70(4) . . .
61(4) . . .
68(4) . . .
68(5) . . .
67(4) . . .
73(4) . . .
72(4) . . .
75(5) . . .
54(4) . . .
73(5) . . .
71(4) . . .
76(4) . . .
76(5) . . .
77(5) . . .
65(4) . . .
73(4) . . .
72(4) . . .
72(4) . . .
85(5) . . .
73(5) . . .
74(5) . . .
75(4) . . .
78(5) . . .
78(5) . . .
81(5) . . .
76(5) . . .
77(5) . . .
84(5) . . .
61(4) . . .
77(5) . . .
82(5) . . .
72(5) . . .
74(5) . . .
66(4) . . .
69(5) . . .
71(4) . . .
86(5) . . .
77(5) . . .
75(5) . . .
64(4) . . .
75(5) . . .
76(5) . . .
70(5) . . .
78(5) . . .
73(5) . . .
71(4) . . .
72(4) . . .
72(5) . . .
75(5) . . .
73(5) . . .
82(5) . . .
78(5) . . .
73(5) . . .
65(4) . . .
80(5) . . .
70(4) . . .
84(5) . . .
74(5) . . .
83(5) . . .
60(4) . . .
73(4) . . .
75(5) . . .
87(5) . . .
74(5) . . .
68(4) . . .
71(4) . . .
78(5) . . .
76(5) . . .
77(5) . . .
76(5) . . .
76(4) . . .
80(5) . . .
78(5) . . .
61(4) . . .
66(4) . . .
71(4) . . .
72(4) . . .
75(5) . . .
68(4) . . .
89(5) . . .
72(4) . . .
79(5) . . .
75(5) . . .
87(5) . . .
73(4) . . .
74(5) . . .
78(5) . . .
70(5) . . .
72(4) . . .
76(4) . . .
77(5) . . .
76(5) . . .
73(5) . . .
76(5) . . .
78(5) . . .
74(5) . . .
83(5) . . .
77(5) . . .
74(5) . . .
94(5) . . .
85(5) . . .
78(5) . . .
82(5) . . .
82(5) . . .
86(5) . . .
75(5) . . .
74(5) . . .
67(4) . . .
81(5) . . .
76(4) . . .
62(4) . . .
71(5) . . .
68(5) . . .
76(5) . . .
77(5) . . .
85(5) . . .
72(5) . . .
82(5) . . .
77(5) . . .
65(4) . . .
78(5) . . .
73(5) . . .
76(5) . . .
72(4) . . .
77(5) . . .
83(5) . . .
74(5) . . .
76(5) . . .
75(4) . . .
68(4) . . .
63(4) . . .
70(5) . . .
74(5) . . .
67(4) . . .
67(4) . . .
78(5) . . .
71(5) . . .
72(4) . . .
73(4) . . .
67(4) . . .
78(5) . . .
77(5) . . .
77(5) . . .
78(5) . . .
78(5) . . .
71(4) . . .
77(5) . . .
77(5) . . .
81(5) . . .
72(5) . . .
80(5) . . .
72(5) . . .
73(5) . . .
65(4) . . .
66(4) . . .
70(5) . . .
73(5) . . .
85(5) . . .
76(4) . . .
74(5) . . .
62(4) . . .
66(4) . . .
78(5) . . .
68(4) . . .
82(5) . . .
68(5) . . .
65(4) . . .
72(5) . . .
78(5) . . .
69(4) . . .
72(5) . . .
72(4) . . .
72(4) . . .
75(5) . . .
79(5) . . .
65(4) . . .
64(4) . . .
68(4) . . .
70(4) . . .
77(5) . . .
80(5) . . .
73(5) . . .
64(4) . . .
70(4) . . .
69(4) . . .
76(5) . . .
76(5) . . .
78(5) . . .
78(5) . . .
74(4) . . .
71(5) . . .
75(5) . . .
64(4) . . .
74(4) . . .
79(5) . . .
69(4) . . .
79(5) . . .
70(4) . . .
80(5) . . .
74(5) . . .
74(5) . . .
80(5) . . .
71(4) . . .
77(5) . . .
70(4) . . .
80(5) . . .
66(4) . . .
67(4) . . .
65(4) . . .
71(5) . . .
72(5) . . .
68(4) . . .
64(4) . . .
62(4) . . .
68(5) . . .
86(5) . . .
76(4) . . .
70(4) . . .
68(4) . . .
78(5) . . .
73(5) . . .
59(4) . . .
72(4) . . .
65(4) . . .
76(5) . . .
76(5) . . .
81(5) . . .
64(4) . . .
76(5) . . .
69(4) . . .
68(4) . . .
63(4) . . .
82(5) . . .
69(5) . . .
73(5) . . .
63(4) . . .
83(5) . . .
78(5) . . .
80(5) . . .
78(5) . . .
85(5) . . .
73(4) . . .
71(4) . . .
72(5) . . .
64(4) . . .
79(5) . . .
73(4) . . .
80(5) . . .
73(4) . . .
77(5) . . .
69(4) . . .
75(4) . . .
72(5) . . .
79(5) . . .
68(4) . . .
72(5) . . .
63(4) . . .
69(4) . . .
69(5) . . .
53(4) . . .
78(5) . . .
78(5) . . .
71(4) . . .
75(5) . . .
75(5) . . .
64(4) . . .
77(5) . . .
87(5) . . .
73(5) . . .
71(5) . . .
69(4) . . .
79(5) . . .
74(5) . . .
78(5) . . .
70(5) . . .
70(4) . . .
73(5) . . .
69(5) . . .
74(5) . . .
65(4) . . .
76(5) . . .
68(4) . . .
84(5) . . .
82(5) . . .
70(4) . . .
73(4) . . .
74(4) . . .
72(5) . . .
70(4) . . .
69(4) . . .
68(4) . . .
70(5) . . .
71(5) . . .
69(5) . . .
71(5) . . .
77(5) . . .
77(5) . . .
74(5) . . .
66(4) . . .
63(4) . . .
64(4) . . .
72(5) . . .
77(5) . . .
69(5) . . .
64(4) . . .
67(4) . . .
72(4) . . .
75(5) . . .
72(4) . . .
83(5) . . .
72(4) . . .
68(4) . . .
56(4) . . .
68(4) . . .
72(4) . . .
74(4) . . .
63(4) . . .
64(4) . . .
64(4) . . .
69(4) . . .
67(4) . . .
67(4) . . .
73(5) . . .
73(5) . . .
71(4) . . .
72(4) . . .
72(5) . . .
68(4) . . .
82(5) . . .
79(5) . . .
73(4) . . .
74(5) . . .
75(5) . . .
71(5) . . .
79(5) . . .
74(5) . . .
75(5) . . .
75(5) . . .
76(5) . . .
69(4) . . .
73(5) . . .
75(5) . . .
68(4) . . .
81(5) . . .
86(5) . . .
74(5) . . .
75(5) . . .
68(4) . . .
69(4) . . .
67(4) . . .
77(5) . . .
73(5) . . .
71(5) . . .
85(5) . . .
55(4) . . .
70(5) . . .
64(4) . . .
76(5) . . .
72(4) . . .
81(5) . . .
73(5) . . .
70(5) . . .
70(4) . . .
75(5) . . .
72(4) . . .
61(4) . . .
72(5) . . .
82(5) . . .
75(5) . . .
76(4) . . .
82(5) . . .
79(5) . . .
65(4) . . .
74(5) . . .
76(5) . . .
78(5) . . .
76(5) . . .
73(5) . . .
68(4) . . .
72(5) . . .
61(4) . . .
59(4) . . .
70(4) . . .
79(5) . . .
70(4) . . .
80(5) . . .
77(5) . . .
76(5) . . .
72(4) . . .
67(4) . . .
77(5) . . .
71(5) . . .
78(5) . . .
76(5) . . .
71(5) . . .
74(5) . . .
73(5) . . .
64(4) . . .
73(4) . . .
71(4) . . .
79(5) . . .
81(5) . . .
72(5) . . .
90(5) . . .
70(4) . . .
72(5) . . .
74(5) . . .
67(4) . . .
67(4) . . .
62(4) . . .
67(4) . . .
69(5) . . .
59(4) . . .
82(5) . . .
74(5) . . .
64(4) . . .
63(4) . . .
64(4) . . .
65(4) . . .
67(5) . . .
83(5) . . .
70(4) . . .
72(4) . . .
78(5) . . .
73(5) . . .
69(5) . . .
73(5) . . .
74(4) . . .
56(4) . . .
68(5) . . .
90(5) . . .
74(5) . . .
76(5) . . .
77(5) . . .
79(5) . . .
71(4) . . .
71(4) . . .
75(4) . . .
70(4) . . .
66(4) . . .
78(5) . . .
70(5) . . .
70(4) . . .
65(4) . . .
70(5) . . .
70(4) . . .
79(5) . . .
74(5) . . .
73(4) . . .
69(4) . . .
75(5) . . .
73(4) . . .
62(4) . . .
66(4) . . .
72(5) . . .
69(4) . . .
71(4) . . .
74(5) . . .
66(4) . . .
75(5) . . .
69(4) . . .
74(4) . . .
83(5) . . .
82(5) . . .
74(5) . . .
88(5) . . .
76(5) . . .
74(5) . . .
73(4) . . .
75(5) . . .
66(5) . . .
61(4) . . .
72(4) . . .
79(5) . . .
76(5) . . .
76(5) . . .
69(4) . . .
67(4) . . .
62(4) . . .
60(4) . . .
65(4) . . .
76(4) . . .
77(5) . . .
68(4) . . .
68(5) . . .
66(4) . . .
71(4) . . .
78(5) . . .
63(4) . . .
71(5) . . .
65(4) . . .
56(4) . . .
76(5) . . .
62(4) . . .
69(5) . . .
70(4) . . .
65(4) . . .
72(5) . . .
87(5) . . .
71(5) . . .
62(4) . . .
83(5) . . .
61(4) . . .
60(4) . . .
63(4) . . .
63(4) . . .
82(5) . . .
80(5) . . .
87(5) . . .
79(5) . . .
82(5) . . .
79(5) . . .
61(4) . . .
69(5) . . .
77(5) . . .
63(4) . . .
82(5) . . .
67(5) . . .
61(4) . . .
76(5) . . .
67(4) . . .
73(5) . . .
62(4) . . .
65(5) . . .
65(4) . . .
81(5) . . .
61(4) . . .
55(4) . . .
68(5) . . .
72(5) . . .
78(5) . . .
60(4) . . .
58(4) . . .
65(4) . . .
71(4) . . .
64(4) . . .
76(5) . . .
89(5) . . .
74(5) . . .
70(5) . . .
72(4) . . .
71(4) . . .
78(5) . . .
74(5) . . .
68(4) . . .
70(4) . . .
68(4) . . .
89(5) . . .
64(4) . . .
68(5) . . .
64(4) . . .
71(4) . . .
73(4) . . .
75(5) . . .
65(4) . . .
71(4) . . .
63(4) . . .
67(5) . . .
71(5) . . .
70(5) . . .
72(4) . . .
71(4) . . .
67(4) . . .
68(4) . . .
74(4) . . .
78(5) . . .
65(4) . . .
70(4) . . .
72(4) . . .
65(4) . . .
62(4) . . .
73(4) . . .
65(4) . . .
78(5) . . .
72(4) . . .
66(4) . . .
54(4) . . .
78(5) . . .
70(4) . . .
76(4) . . .
72(4) . . .
66(4) . . .
64(4) . . .
67(5) . . .
71(4) . . .
63(4) . . .
75(5) . . .
74(5) . . .
78(5) . . .
77(5) . . .
79(5) . . .
80(5) . . .
71(5) . . .
66(4) . . .
65(4) . . .
71(4) . . .
76(5) . . .
70(5) . . .
67(4) . . .
72(4) . . .
62(4) . . .
88(5) . . .
73(5) . . .
69(4) . . .
67(4) . . .
68(4) . . .
69(5) . . .
71(5) . . .
78(5) . . .
68(4) . . .
71(5) . . .
68(5) . . .
74(5) . . .
72(5) . . .
73(4) . . .
78(5) . . .
75(5) . . .
61(4) . . .
68(4) . . .
73(4) . . .
81(5) . . .
67(5) . . .
66(5) . . .
72(4) . . .
62(4) . . .
64(4) . . .
75(5) . . .
66(4) . . .
70(4) . . .
75(5) . . .
85(5) . . .
88(5) . . .
77(5) . . .
65(4) . . .
73(5) . . .
71(5) . . .
59(4) . . .
68(4) . . .
82(5) . . .
65(4) . . .
75(5) . . .
72(5) . . .
79(5) . . .
71(4) . . .
64(4) . . .
78(5) . . .
87(5) . . .
74(5) . . .
70(4) . . .
70(5) . . .
84(5) . . .
75(5) . . .
60(4) . . .
84(5) . . .
85(5) . . .
75(5) . . .
73(5) . . .
78(5) . . .
70(4) . . .
75(5) . . .
75(5) . . .
69(4) . . .
76(4) . . .
57(4) . . .
66(4) . . .
77(5) . . .
70(5) . . .
77(5) . . .
80(5) . . .
77(5) . . .
74(5) . . .
68(4) . . .
76(4) . . .
70(4) . . .
64(4) . . .
69(5) . . .
68(4) . . .
75(4) . . .
72(4) . . .
75(5) . . .
84(5) . . .
65(4) . . .
78(5) . . .
69(4) . . .
83(5) . . .
74(5) . . .
75(5) . . .
67(4) . . .
71(4) . . .
66(4) . . .
72(5) . . .
83(5) . . .
65(4) . . .
79(5) . . .
80(5) . . .
70(4) . . .
80(5) . . .
75(5) . . .
83(5) . . .
65(4) . . .
75(5) . . .
65(4) . . .
67(4) . . .
71(5) . . .
76(5) . . .
64(4) . . .
72(4) . . .
72(4) . . .
73(5) . . .
70(4) . . .
80(5) . . .
75(5) . . .
85(5) . . .
79(5) . . .
80(5) . . .
77(5) . . .
69(4) . . .
72(4) . . .
74(5) . . .
81(5) . . .
72(5) . . .
81(5) . . .
86(5) . . .
70(5) . . .
79(5) . . .
66(4) . . .
68(4) . . .
73(4) . . .
64(4) . . .
74(5) . . .
67(4) . . .
70(4) . . .
64(4) . . .
73(5) . . .
69(5) . . .
78(5) . . .
62(4) . . .
65(4) . . .
78(5) . . .
90(5) . . .
81(5) . . .
86(5) . . .
76(5) . . .
65(4) . . .
77(5) . . .
77(5) . . .
60(4) . . .
81(5) . . .
74(5) . . .
69(4) . . .
64(4) . . .
69(4) . . .
73(5) . . .
73(5) . . .
72(5) . . .
78(5) . . .
73(4) . . .
72(5) . . .
70(5) . . .
71(5) . . .
71(4) . . .
85(5) . . .
71(5) . . .
78(5) . . .
76(5) . . .
68(4) . . .
83(5) . . .
63(4) . . .
72(5) . . .
68(4) . . .
75(5) . . .
64(4) . . .
79(5) . . .
70(5) . . .
70(5) . . .
65(4) . . .
64(4) . . .
71(5) . . .
69(5) . . .
65(4) . . .
61(4) . . .
77(5) . . .
59(4) . . .
67(5) . . .
88(5) . . .
70(4) . . .
79(5) . . .
83(5) . . .
69(4) . . .
71(4) . . .
68(4) . . .
65(4) . . .
76(5) . . .
64(4) . . .
64(4) . . .
64(4) . . .
74(4) . . .
69(4) . . .
74(5) . . .
71(4) . . .
68(4) . . .
72(4) . . .
68(4) . . .
70(4) . . .
68(4) . . .
77(5) . . .
77(5) . . .
72(4) . . .
73(4) . . .
69(4) . . .
69(4) . . .
66(4) . . .
73(5) . . .
66(4) . . .
67(4) . . .
84(5) . . .
71(5) . . .
70(4) . . .
73(4) . . .
70(4) . . .
75(5) . . .
83(5) . . .
66(4) . . .
57(4) . . .
61(4) . . .
90(5) . . .
71(5) . . .
68(5) . . .
73(5) . . .
79(5) . . .
73(5) . . .
65(4) . . .
72(5) . . .
81(5) . . .
81(5) . . .
83(5) . . .
65(4) . . .
65(4) . . .
66(4) . . .
61(4) . . .
64(4) . . .
80(5) . . .
77(5) . . .
72(5) . . .
54(4) . . .
69(4) . . .
82(5) . . .
88(5) . . .
72(4) . . .
72(4) . . .
65(4) . . .
70(4) . . .
69(4) . . .
66(4) . . .
70(4) . . .
67(4) . . .
76(5) . . .
67(4) . . .
75(5) . . .
76(5) . . .
72(5) . . .
72(5) . . .
72(5) . . .
70(4) . . .
77(5) . . .
68(4) . . .
72(5) . . .
57(4) . . .
68(5) . . .
68(4) . . .
65(4) . . .
62(5) . . .
70(5) . . .
60(4) . . .
74(4) . . .
74(5) . . .
66(5) . . .
79(5) . . .
74(4) . . .
79(5) . . .
86(5) . . .
79(5) . . .
77(5) . . .
73(5) . . .
69(4) . . .
65(4) . . .
75(5) . . .
89(5) . . .
66(4) . . .
75(5) . . .
92(5) . . .
81(5) . . .
73(5) . . .
72(4) . . .
74(4) . . .
66(4) . . .
72(5) . . .
77(5) . . .
73(5) . . .
74(4) . . .
76(5) . . .
76(5) . . .
84(5) . . .
68(4) . . .
82(5) . . .
79(5) . . .
66(4) . . .
78(5) . . .
81(5) . . .
71(4) . . .
63(4) . . .
72(5) . . .
80(5) . . .
77(5) . . .
73(5) . . .
77(5) . . .
61(4) . . .
72(4) . . .
93(5) . . .
77(5) . . .
72(5) . . .
70(4) . . .
63(4) . . .
65(4) . . .
67(4) . . .
75(5) . . .
69(5) . . .
65(4) . . .
66(4) . . .
72(5) . . .
73(5) . . .
89(5) . . .
66(4) . . .
77(5) . . .
73(5) . . .
73(5) . . .
74(5) . . .
72(4) . . .
72(5) . . .
72(5) . . .
62(4) . . .
70(4) . . .
69(4) . . .
67(4) . . .
71(5) . . .
65(4) . . .
62(4) . . .
68(4) . . .
62(4) . . .
69(4) . . .
69(4) . . .
58(4) . . .
67(4) . . .
63(4) . . .
70(5) . . .
75(5) . . .
74(4) . . .
65(4) . . .
67(4) . . .
74(5) . . .
76(5) . . .
62(4) . . .
74(4) . . .
58(4) . . .
58(4) . . .
66(4) . . .
77(5) . . .
84(5) . . .
69(5) . . .
73(5) . . .
78(5) . . .
75(5) . . .
67(4) . . .
60(4) . . .
61(4) . . .
73(5) . . .
77(5) . . .
74(5) . . .
75(5) . . .
78(5) . . .
68(4) . . .
80(5) . . .
59(4) . . .
55(4) . . .
63(4) . . .
62(4) . . .
61(4) . . .
72(5) . . .
73(5) . . .
69(4) . . .
75(5) . . .
64(4) . . .
74(5) . . .
63(4) . . .
73(5) . . .
71(4) . . .
83(5) . . .
69(5) . . .
76(5) . . .
79(5) . . .
86(5) . . .
81(5) . . .
78(5) . . .
68(5) . . .
74(5) . . .
67(4) . . .
81(5) . . .
68(4) . . .
62(4) . . .
61(4) . . .
62(4) . . .
67(4) . . .
73(5) . . .
71(5) . . .
75(5) . . .
67(4) . . .
77(5) . . .
71(4) . . .
57(4) . . .
67(4) . . .
73(4) . . .
75(5) . . .
67(4) . . .
84(5) . . .
69(5) . . .
74(5) . . .
71(4) . . .
74(5) . . .
77(5) . . .
70(4) . . .
68(4) . . .
60(4) . . .
70(5) . . .
69(5) . . .
64(4) . . .
60(4) . . .
67(4) . . .
72(5) . . .
63(4) . . .
69(4) . . .
65(4) . . .
72(5) . . .
82(5) . . .
66(5) . . .
69(4) . . .
76(5) . . .
76(5) . . .
71(5) . . .
58(4) . . .
67(5) . . .
75(5) . . .
76(5) . . .
66(5) . . .
62(4) . . .
70(4) . . .
53(4) . . .
70(5) . . .
66(4) . . .
63(4) . . .
57(4) . . .
74(5) . . .
62(4) . . .
64(5) . . .
61(4) . . .
70(4) . . .
71(4) . . .
65(4) . . .
57(4) . . .
69(5) . . .
69(4) . . .
63(4) . . .
66(5) . . .
67(4) . . .
70(4) . . .
72(4) . . .
77(5) . . .
67(4) . . .
66(5) . . .
55(4) . . .
71(4) . . .
67(4) . . .
70(4) . . .
74(5) . . .
77(5) . . .
71(4) . . .
76(5) . . .
66(4) . . .
85(5) . . .
75(5) . . .
70(4) . . .
66(4) . . .
78(5) . . .
75(5) . . .
81(5) . . .
85(5) . . .
75(5) . . .
78(5) . . .
76(5) . . .
73(5) . . .
67(4) . . .
71(5) . . .
73(5) . . .
65(4) . . .
63(4) . . .
72(4) . . .
65(4) . . .
68(5) . . .
76(5) . . .
63(4) . . .
70(4) . . .
67(4) . . .
78(5) . . .
67(5) . . .
68(4) . . .
74(4) . . .
73(5) . . .
67(5) . . .
75(5) . . .
83(5) . . .
72(4) . . .
68(4) . . .
66(4) . . .
67(4) . . .
67(4) . . .
81(5) . . .
73(5) . . .
66(5) . . .
57(4) . . .
72(4) . . .
72(5) . . .
71(4) . . .
75(5) . . .
67(4) . . .
60(4) . . .
77(5) . . .
72(5) . . .
60(4) . . .
68(5) . . .
60(4) . . .
80(5) . . .
69(5) . . .
62(4) . . .
70(5) . . .
73(4) . . .
78(5) . . .
68(5) . . .
71(5) . . .
69(5) . . .
67(4) . . .
83(5) . . .
77(5) . . .
71(5) . . .
69(4) . . .
62(4) . . .
63(4) . . .
68(4) . . .
66(4) . . .
72(4) . . .
79(5) . . .
68(5) . . .
68(4) . . .
81(5) . . .
75(4) . . .
62(4) . . .
71(5) . . .
79(5) . . .
70(4) . . .
66(4) . . .
67(4) . . .
72(4) . . .
77(5) . . .
67(4) . . .
63(4) . . .
73(4) . . .
74(5) . . .
66(4) . . .
71(5) . . .
78(5) . . .
72(4) . . .
62(4) . . .
75(5) . . .
68(4) . . .
73(4) . . .
64(4) . . .
81(5) . . .
58(4) . . .
75(5) . . .
71(4) . . .
55(4) . . .
58(4) . . .
76(5) . . .
76(5) . . .
86(5) . . .
83(5) . . .
69(4) . . .
84(5) . . .
67(5) . . .
68(4) . . .
74(5) . . .
79(5) . . .
69(5) . . .
75(5) . . .
68(4) . . .
69(4) . . .
73(5) . . .
71(4) . . .
72(5) . . .
68(4) . . .
66(4) . . .
69(5) . . .
79(5) . . .
65(4) . . .
77(5) . . .
69(4) . . .
75(5) . . .
71(5) . . .
68(4) . . .
65(4) . . .
71(5) . . .
67(5) . . .
62(4) . . .
69(4) . . .
55(4) . . .
62(4) . . .
68(4) . . .
80(5) . . .
61(4) . . .
63(5) . . .
64(4) . . .
75(5) . . .
76(5) . . .
67(5) . . .
82(5) . . .
66(4) . . .
76(4) . . .
73(4) . . .
80(5) . . .
72(5) . . .
74(5) . . .
80(5) . . .
72(5) . . .
66(4) . . .
62(4) . . .
62(4) . . .
71(4) . . .
70(4) . . .
81(5) . . .
81(5) . . .
64(4) . . .
74(4) . . .
65(4) . . .
77(5) . . .
75(5) . . .
72(4) . . .
66(4) . . .
75(5) . . .
82(5) . . .
74(5) . . .
59(4) . . .
75(5) . . .
72(5) . . .
67(4) . . .
63(4) . . .
66(4) . . .
74(4) . . .
67(4) . . .
58(4) . . .
57(4) . . .
71(4) . . .
84(5) . . .
82(5) . . .
81(5) . . .
70(4) . . .
74(5) . . .
74(4) . . .
65(4) . . .
75(5) . . .
77(5) . . .
70(4) . . .
69(4) . . .
68(4) . . .
52(4) . . .
70(5) . . .
61(4) . . .
67(4) . . .
63(4) . . .
57(4) . . .
60(4) . . .
74(4) . . .
74(5) . . .
67(4) . . .
62(4) . . .
64(4) . . .
69(4) . . .
64(4) . . .
81(5) . . .
67(4) . . .
78(5) . . .
74(4) . . .
67(4) . . .
73(5) . . .
79(5) . . .
92(5) . . .
74(5) . . .
68(4) . . .
75(5) . . .
62(4) . . .
70(4) . . .
81(5) . . .
89(5) . . .
63(4) . . .
68(4) . . .
67(4) . . .
68(4) . . .
68(4) . . .
75(5) . . .
58(4) . . .
73(4) . . .
74(5) . . .
64(4) . . .
64(4) . . .
61(5) . . .
64(4) . . .
66(4) . . .
69(4) . . .
57(4) . . .
63(4) . . .
57(4) . . .
59(4) . . .
67(4) . . .
75(5) . . .
79(5) . . .
67(4) . . .
63(4) . . .
57(4) . . .
67(5) . . .
65(4) . . .
76(4) . . .
74(5) . . .
81(5) . . .
56(4) . . .
66(4) . . .
75(5) . . .
73(4) . . .
71(5) . . .
71(5) . . .
62(4) . . .
67(4) . . .
79(5) . . .
69(5) . . .
75(5) . . .
73(5) . . .
78(5) . . .
81(5) . . .
70(5) . . .
71(5) . . .
73(5) . . .
80(5) . . .
73(5) . . .
63(4) . . .
63(4) . . .
58(4) . . .
72(4) . . .
74(5) . . .
68(4) . . .
71(4) . . .
64(4) . . .
67(4) . . .
67(4) . . .
78(5) . . .
82(5) . . .
73(4) . . .
67(4) . . .
62(4) . . .
63(5) . . .
67(4) . . .
62(4) . . .
69(4) . . .
66(4) . . .
73(5) . . .
77(5) . . .
66(4) . . .
73(4) . . .
67(4) . . .
77(5) . . .
73(4) . . .
62(4) . . .
70(4) . . .
65(4) . . .
71(5) . . .
83(5) . . .
67(4) . . .
73(5) . . .
68(4) . . .
70(5) . . .
58(4) . . .
65(4) . . .
70(4) . . .
66(4) . . .
59(4) . . .
79(5) . . .
62(4) . . .
84(5) . . .
79(5) . . .
61(4) . . .
57(4) . . .
82(5) . . .
83(5) . . .
69(4) . . .
66(4) . . .
63(4) . . .
66(4) . . .
72(5) . . .
67(4) . . .
65(4) . . .
70(4) . . .
66(4) . . .
74(5) . . .
72(5) . . .
51(4) . . .
80(5) . . .
79(5) . . .
64(4) . . .
67(4) . . .
72(5) . . .
74(5) . . .
61(4) . . .
67(4) . . .
63(4) . . .
62(4) . . .
66(4) . . .
75(5) . . .
71(4) . . .
62(4) . . .
74(5) . . .
73(4) . . .
72(5) . . .
61(4) . . .
63(4) . . .
81(5) . . .
72(4) . . .
59(4) . . .
61(4) . . .
75(5) . . .
72(5) . . .
67(4) . . .
69(4) . . .
70(4) . . .
71(5) . . .
67(4) . . .
65(4) . . .
78(5) . . .
77(5) . . .
81(5) . . .
67(4) . . .
69(4) . . .
73(5) . . .
75(5) . . .
76(5) . . .
78(5) . . .
75(5) . . .
70(5) . . .
83(5) . . .
75(5) . . .
64(4) . . .
60(4) . . .
66(4) . . .
68(4) . . .
67(4) . . .
72(4) . . .
66(4) . . .
70(4) . . .
74(5) . . .
65(4) . . .
71(4) . . .
75(5) . . .
65(4) . . .
72(5) . . .
65(4) . . .
65(4) . . .
76(5) . . .
61(4) . . .
76(5) . . .
68(4) . . .
58(4) . . .
72(4) . . .
74(5) . . .
60(4) . . .
67(4) . . .
63(4) . . .
65(4) . . .
67(4) . . .
74(5) . . .
62(4) . . .
59(4) . . .
70(4) . . .
72(5) . . .
67(5) . . .
69(4) . . .
70(4) . . .
73(4) . . .
64(4) . . .
67(5) . . .
69(4) . . .
73(5) . . .
71(4) . . .
72(5) . . .
58(4) . . .
70(4) . . .
59(4) . . .
73(5) . . .
64(5) . . .
60(4) . . .
78(5) . . .
66(4) . . .
76(5) . . .
74(5) . . .
72(5) . . .
69(4) . . .
64(4) . . .
71(5) . . .
70(5) . . .
65(4) . . .
64(4) . . .
65(4) . . .
71(5) . . .
55(4) . . .
58(4) . . .
74(5) . . .
64(4) . . .
70(4) . . .
73(5) . . .
70(4) . . .
67(4) . . .
81(5) . . .
62(4) . . .
55(4) . . .
69(5) . . .
65(4) . . .
63(4) . . .
73(4) . . .
67(4) . . .
68(4) . . .
58(4) . . .
69(4) . . .
80(5) . . .
61(4) . . .
64(4) . . .
63(4) . . .
74(5) . . .
74(4) . . .
81(5) . . .
63(4) . . .
71(4) . . .
63(4) . . .
66(4) . . .
67(4) . . .
74(5) . . .
63(4) . . .
71(5) . . .
69(5) . . .
79(5) . . .
65(4) . . .
67(4) . . .
64(4) . . .
62(4) . . .
83(5) . . .
66(4) . . .
67(4) . . .
68(5) . . .
70(5) . . .
66(4) . . .
65(4) . . .
66(4) . . .
80(5) . . .
74(5) . . .
71(4) . . .
69(4) . . .
68(4) . . .
70(5) . . .
79(5) . . .
67(4) . . .
62(4) . . .
68(4) . . .
61(4) . . .
86(5) . . .
72(4) . . .
62(4) . . .
71(4) . . .
70(4) . . .
78(5) . . .
68(4) . . .
62(4) . . .
74(5) . . .
70(5) . . .
67(4) . . .
62(4) . . .
65(4) . . .
81(5) . . .
73(5) . . .
63(4) . . .
57(4) . . .
70(4) . . .
60(4) . . .
65(4) . . .
81(5) . . .
73(5) . . .
81(5) . . .
64(4) . . .
61(4) . . .
68(4) . . .
64(4) . . .
65(4) . . .
69(5) . . .
53(4) . . .
72(5) . . .
72(5) . . .
67(4) . . .
70(5) . . .
61(4) . . .
76(5) . . .
72(4) . . .
71(4) . . .
63(4) . . .
71(5) . . .
68(5) . . .
67(4) . . .
76(5) . . .
79(5) . . .
68(5) . . .
67(4) . . .
79(5) . . .
59(4) . . .
65(4) . . .
64(5) . . .
52(4) . . .
59(4) . . .
71(4) . . .
66(4) . . .
66(5) . . .
70(5) . . .
66(4) . . .
68(4) . . .
73(5) . . .
65(4) . . .
72(5) . . .
72(4) . . .
69(4) . . .
65(5) . . .
64(4) . . .
74(5) . . .
76(5) . . .
73(4) . . .
60(4) . . .
67(5) . . .
72(4) . . .
74(4) . . .
64(4) . . .
68(4) . . .
66(5) . . .
58(4) . . .
72(4) . . .
61(4) . . .
61(4) . . .
67(4) . . .
70(4) . . .
61(4) . . .
57(4) . . .
72(5) . . .
66(4) . . .
70(4) . . .
69(4) . . .
72(5) . . .
72(4) . . .
72(5) . . .
67(4) . . .
72(4) . . .
70(5) . . .
66(5) . . .
65(4) . . .
63(4) . . .
79(5) . . .
65(4) . . .
86(6) . . .
70(4) . . .
72(4) . . .
70(4) . . .
72(5) . . .
70(5) . . .
68(5) . . .
71(4) . . .
64(4) . . .
59(4) . . .
69(5) . . .
74(5) . . .
87(5) . . .
77(5) . . .
73(5) . . .
69(5) . . .
62(4) . . .
70(4) . . .
63(4) . . .
66(4) . . .
67(5) . . .
73(5) . . .
71(4) . . .
75(5) . . .
69(4) . . .
70(5) . . .
68(4) . . .
67(4) . . .
68(4) . . .
64(4) . . .
62(4) . . .
66(4) . . .
82(5) . . .
74(5) . . .
71(5) . . .
74(5) . . .
69(4) . . .
74(4) . . .
74(5) . . .
70(5) . . .
66(4) . . .
71(4) . . .
70(4) . . .
63(4) . . .
68(5) . . .
62(4) . . .
65(4) . . .
63(4) . . .
70(5) . . .
73(5) . . .
66(4) . . .
66(4) . . .
70(4) . . .
59(4) . . .
68(5) . . .
74(5) . . .
50(4) . . .
66(4) . . .
77(5) . . .
71(5) . . .
74(4) . . .
68(4) . . .
72(4) . . .
69(4) . . .
71(5) . . .
64(5) . . .
64(4) . . .
66(4) . . .
77(5) . . .
59(4) . . .
67(4) . . .
62(4) . . .
65(4) . . .
61(4) . . .
48(4) . . .
75(5) . . .
68(4) . . .
70(5) . . .
62(4) . . .
68(5) . . .
55(4) . . .
75(4) . . .
64(4) . . .
68(5) . . .
67(4) . . .
73(5) . . .
71(4) . . .
75(5) . . .
66(4) . . .
66(4) . . .
74(5) . . .
66(4) . . .
71(5) . . .
78(5) . . .
73(5) . . .
71(4) . . .
61(4) . . .
75(5) . . .
73(5) . . .
72(5) . . .
65(4) . . .
73(5) . . .
71(5) . . .
68(4) . . .
74(5) . . .
65(4) . . .
75(4) . . .
73(5) . . .
74(5) . . .
66(4) . . .
65(4) . . .
65(4) . . .
64(5) . . .
68(5) . . .
70(5) . . .
73(4) . . .
80(5) . . .
69(4) . . .
71(5) . . .
71(5) . . .
57(4) . . .
64(4) . . .
69(4) . . .
63(4) . . .
55(4) . . .
76(5) . . .
83(5) . . .
69(4) . . .
69(5) . . .
71(4) . . .
54(4) . . .
71(5) . . .
74(5) . . .
72(5) . . .
69(4) . . .
67(4) . . .
68(4) . . .
63(4) . . .
64(4) . . .
82(5) . . .
74(4) . . .
62(4) . . .
66(5) . . .
64(4) . . .
74(5) . . .
62(4) . . .
67(4) . . .
81(5) . . .
77(5) . . .
63(4) . . .
70(5) . . .
66(4) . . .
64(5) . . .
58(4) . . .
63(4) . . .
68(4) . . .
65(4) . . .
68(5) . . .
71(5) . . .
71(4) . . .
68(4) . . .
71(5) . . .
69(5) . . .
77(5) . . .
66(4) . . .
76(5) . . .
73(4) . . .
65(4) . . .
69(5) . . .
69(4) . . .
59(4) . . .
55(4) . . .
57(4) . . .
56(4) . . .
60(4) . . .
61(4) . . .
65(4) . . .
62(4) . . .
66(4) . . .
61(4) . . .
66(4) . . .
65(4) . . .
68(5) . . .
66(4) . . .
84(5) . . .
65(4) . . .
84(5) . . .
63(4) . . .
67(4) . . .
78(5) . . .
64(4) . . .
58(4) . . .
71(5) . . .
68(4) . . .
66(4) . . .
77(5) . . .
69(5) . . .
68(5) . . .
64(4) . . .
69(4) . . .
75(5) . . .
65(4) . . .
68(5) . . .
75(5) . . .
56(4) . . .
70(5) . . .
59(4) . . .
71(5) . . .
69(4) . . .
71(5) . . .
58(4) . . .
68(5) . . .
61(4) . . .
69(4) . . .
72(5) . . .
68(4) . . .
73(5) . . .
69(4) . . .
58(4) . . .
60(4) . . .
75(5) . . .
71(5) . . .
64(4) . . .
65(4) . . .
68(4) . . .
60(4) . . .
72(5) . . .
71(4) . . .
64(4) . . .
61(4) . . .
67(4) . . .
66(4) . . .
58(4) . . .
73(4) . . .
65(4) . . .
72(5) . . .
77(5) . . .
67(4) . . .
65(4) . . .
71(5) . . .
68(5) . . .
64(4) . . .
69(4) . . .
61(4) . . .
71(5) . . .
63(5) . . .
63(4) . . .
66(4) . . .
60(4) . . .
69(5) . . .
66(5) . . .
69(4) . . .
63(4) . . .
66(4) . . .
68(5) . . .
48(4) . . .
61(4) . . .
67(4) . . .
71(4) . . .
72(5) . . .
60(4) . . .
70(4) . . .
68(4) . . .
63(4) . . .
65(4) . . .
65(4) . . .
62(4) . . .
68(4) . . .
65(4) . . .
70(5) . . .
67(4) . . .
58(4) . . .
61(4) . . .
65(4) . . .
64(5) . . .
59(4) . . .
77(5) . . .
71(4) . . .
80(5) . . .
68(4) . . .
59(4) . . .
59(4) . . .
65(4) . . .
73(5) . . .
75(5) . . .
67(4) . . .
70(5) . . .
76(5) . . .
69(4) . . .
61(4) . . .
75(5) . . .
66(4) . . .
57(4) . . .
62(4) . . .
75(5) . . .
77(5) . . .
77(5) . . .
62(4) . . .
68(4) . . .
64(4) . . .
69(5) . . .
65(4) . . .
56(4) . . .
59(4) . . .
62(4) . . .
65(4) . . .
76(5) . . .
60(4) . . .
70(5) . . .
73(5) . . .
76(5) . . .
66(4) . . .
66(4) . . .
57(4) . . .
64(4) . . .
60(4) . . .
74(4) . . .
64(4) . . .
68(5) . . .
64(4) . . .
65(4) . . .
81(5) . . .
69(5) . . .
60(4) . . .
58(4) . . .
58(4) . . .
62(4) . . .
55(4) . . .
56(4) . . .
54(4) . . .
57(4) . . .
63(4) . . .
68(4) . . .
72(5) . . .
61(4) . . .
65(4) . . .
59(4) . . .
57(4) . . .
66(4) . . .
68(5) . . .
56(4) . . .
65(4) . . .
68(4) . . .
61(4) . . .
71(5) . . .
62(4) . . .
61(4) . . .
66(4) . . .
65(5) . . .
74(5) . . .
76(5) . . .
74(5) . . .
66(4) . . .
59(4) . . .
67(4) . . .
76(5) . . .
71(4) . . .
67(4) . . .
74(5) . . .
67(4) . . .
62(4) . . .
76(5) . . .
57(4) . . .
61(4) . . .
58(4) . . .
61(4) . . .
59(4) . . .
68(4) . . .
71(5) . . .
73(5) . . .
61(4) . . .
66(4) . . .
72(4) . . .
69(4) . . .
62(4) . . .
62(4) . . .
68(4) . . .
68(5) . . .
64(4) . . .
61(4) . . .
68(4) . . .
65(4) . . .
58(4) . . .
70(5) . . .
67(4) . . .
58(4) . . .
72(4) . . .
66(4) . . .
56(4) . . .
69(4) . . .
71(4) . . .
64(4) . . .
60(4) . . .
58(4) . . .
69(4) . . .
70(4) . . .
64(4) . . .
66(4) . . .
60(4) . . .
62(4) . . .
76(5) . . .
73(5) . . .
59(4) . . .
63(4) . . .
65(4) . . .
63(4) . . .
62(4) . . .
67(5) . . .
61(4) . . .
70(4) . . .
81(5) . . .
64(4) . . .
68(5) . . .
68(4) . . .
62(4) . . .
75(5) . . .
68(5) . . .
61(5) . . .
54(4) . . .
66(4) . . .
71(4) . . .
74(5) . . .
67(4) . . .
59(4) . . .
68(4) . . .
63(4) . . .
62(4) . . .
65(4) . . .
64(4) . . .
57(4) . . .
53(4) . . .
62(4) . . .
60(4) . . .
65(4) . . .
64(4) . . .
68(5) . . .
69(5) . . .
71(5) . . .
58(4) . . .
61(4) . . .
61(4) . . .
66(5) . . .
65(4) . . .
62(4) . . .
66(4) . . .
66(4) . . .
62(4) . . .
54(4) . . .
67(4) . . .
74(4) . . .
68(4) . . .
57(4) . . .
64(4) . . .
63(4) . . .
64(4) . . .
58(4) . . .
72(5) . . .
52(4) . . .
67(4) . . .
76(5) . . .
75(5) . . .
68(5) . . .
55(4) . . .
65(4) . . .
62(4) . . .
74(5) . . .
63(4) . . .
58(4) . . .
64(4) . . .
71(5) . . .
69(5) . . .
59(4) . . .
60(4) . . .
53(4) . . .
65(4) . . .
62(4) . . .
67(5) . . .
71(5) . . .
55(4) . . .
67(4) . . .
64(4) . . .
73(5) . . .
62(4) . . .
69(4) . . .
65(4) . . .
70(4) . . .
74(5) . . .
64(4) . . .
67(4) . . .
58(4) . . .
66(4) . . .
65(4) . . .
57(4) . . .
80(5) . . .
61(4) . . .
64(4) . . .
70(5) . . .
58(4) . . .
64(4) . . .
66(5) . . .
60(4) . . .
64(4) . . .
65(4) . . .
69(4) . . .
70(5) . . .
69(5) . . .
66(4) . . .
64(4) . . .
69(4) . . .
64(4) . . .
64(4) . . .
69(4) . . .
65(4) . . .
59(4) . . .
59(4) . . .
56(4) . . .
76(5) . . .
69(4) . . .
73(5) . . .
73(5) . . .
61(4) . . .
62(4) . . .
68(4) . . .
64(4) . . .
71(5) . . .
69(5) . . .
78(5) . . .
69(4) . . .
56(4) . . .
57(4) . . .
70(5) . . .
65(4) . . .
68(4) . . .
62(5) . . .
56(4) . . .
61(4) . . .
58(4) . . .
62(4) . . .
85(5) . . .
65(4) . . .
64(4) . . .
57(4) . . .
56(4) . . .
59(4) . . .
64(5) . . .
55(4) . . .
65(4) . . .
71(4) . . .
57(4) . . .
61(4) . . .
54(4) . . .
64(4) . . .
59(4) . . .
68(4) . . .
69(5) . . .
62(4) . . .
66(4) . . .
68(4) . . .
60(4) . . .
63(4) . . .
64(4) . . .
60(4) . . .
66(4) . . .
55(4) . . .
62(4) . . .
65(4) . . .
74(4) . . .
63(4) . . .
58(4) . . .
53(4) . . .
66(4) . . .
61(4) . . .
57(4) . . .
65(4) . . .
58(4) . . .
64(4) . . .
75(5) . . .
70(4) . . .
59(4) . . .
55(4) . . .
64(5) . . .
71(4) . . .
66(4) . . .
69(4) . . .
78(5) . . .
73(5) . . .
70(4) . . .
66(5) . . .
63(4) . . .
66(5) . . .
63(4) . . .
69(4) . . .
62(4) . . .
60(4) . . .
55(4) . . .
60(4) . . .
56(4) . . .
67(4) . . .
67(4) . . .
71(5) . . .
65(4) . . .
60(4) . . .
71(5) . . .
71(5) . . .
62(4) . . .
51(4) . . .
63(4) . . .
57(4) . . .
60(4) . . .
78(5) . . .
74(5) . . .
74(4) . . .
55(4) . . .
67(5) . . .
77(5) . . .
64(4) . . .
56(4) . . .
62(4) . . .
62(4) . . .
55(4) . . .
60(4) . . .
67(4) . . .
66(4) . . .
62(4) . . .
55(4) . . .
54(4) . . .
60(4) . . .
72(5) . . .
59(4) . . .
64(4) . . .
62(4) . . .
62(4) . . .
58(4) . . .
66(4) . . .
64(4) . . .
55(4) . . .
59(4) . . .
70(5) . . .
62(4) . . .
66(4) . . .
68(4) . . .
61(4) . . .
66(5) . . .
66(4) . . .
59(4) . . .
59(4) . . .
61(4) . . .
57(4) . . .
62(4) . . .
65(4) . . .
63(4) . . .
61(4) . . .
63(4) . . .
56(4) . . .
64(4) . . .
80(5) . . .
67(4) . . .
57(4) . . .
68(4) . . .
58(4) . . .
67(4) . . .
63(4) . . .
71(5) . . .
64(4) . . .
67(4) . . .
60(4) . . .
67(5) . . .
65(4) . . .
59(4) . . .
75(5) . . .
57(4) . . .
73(5) . . .
66(4) . . .
67(4) . . .
61(4) . . .
70(4) . . .
51(4) . . .
54(4) . . .
55(4) . . .
58(4) . . .
63(4) . . .
59(4) . . .
72(5) . . .
67(4) . . .
59(4) . . .
64(4) . . .
64(4) . . .
58(4) . . .
62(4) . . .
71(4) . . .
61(4) . . .
51(4) . . .
61(4) . . .
66(4) . . .
75(4) . . .
65(4) . . .
61(4) . . .
60(4) . . .
62(4) . . .
70(4) . . .
65(4) . . .
77(5) . . .
65(4) . . .
66(4) . . .
60(4) . . .
69(5) . . .
59(4) . . .
67(5) . . .
63(4) . . .
62(4) . . .
63(4) . . .
71(5) . . .
59(4) . . .
66(4) . . .
63(4) . . .
63(4) . . .
60(4) . . .
76(5) . . .
66(4) . . .
65(4) . . .
71(4) . . .
73(5) . . .
70(5) . . .
59(4) . . .
62(4) . . .
60(4) . . .
56(4) . . .
55(4) . . .
64(4) . . .
74(5) . . .
68(4) . . .
66(4) . . .
63(4) . . .
65(4) . . .
66(4) . . .
58(4) . . .
75(5) . . .
74(5) . . .
63(4) . . .
63(4) . . .
61(5) . . .
62(4) . . .
63(4) . . .
61(4) . . .
72(5) . . .
62(4) . . .
60(4) . . .
72(4) . . .
61(4) . . .
57(4) . . .
63(4) . . .
59(4) . . .
62(4) . . .
56(4) . . .
61(4) . . .
67(4) . . .
66(4) . . .
62(4) . . .
68(4) . . .
62(4) . . .
61(4) . . .
72(5) . . .
81(5) . . .
72(5) . . .
63(4) . . .
67(5) . . .
74(5) . . .
52(4) . . .
59(4) . . .
60(4) . . .
66(5) . . .
68(5) . . .
62(4) . . .
55(4) . . .
65(4) . . .
65(4) . . .
54(4) . . .
62(4) . . .
66(4) . . .
70(5) . . .
56(4) . . .
66(4) . . .
78(5) . . .
73(4) . . .
65(4) . . .
52(4) . . .
59(4) . . .
68(4) . . .
64(4) . . .
65(5) . . .
65(4) . . .
67(4) . . .
62(4) . . .
68(5) . . .
65(4) . . .
67(5) . . .
63(4) . . .
54(4) . . .
56(4) . . .
60(4) . . .
73(5) . . .
63(4) . . .
70(4) . . .
58(4) . . .
71(5) . . .
68(4) . . .
74(4) . . .
62(4) . . .
63(4) . . .
66(4) . . .
60(4) . . .
52(4) . . .
65(4) . . .
66(4) . . .
67(4) . . .
57(4) . . .
80(5) . . .
55(4) . . .
59(4) . . .
58(4) . . .
70(5) . . .
65(4) . . .
61(4) . . .
70(4) . . .
70(5) . . .
56(4) . . .
66(4) . . .
62(4) . . .
58(4) . . .
66(4) . . .
65(4) . . .
71(4) . . .
63(4) . . .
67(4) . . .
64(4) . . .
57(4) . . .
52(4) . . .
59(4) . . .
70(5) . . .
66(4) . . .
63(4) . . .
65(4) . . .
55(4) . . .
53(4) . . .
64(4) . . .
62(4) . . .
64(4) . . .
59(4) . . .
61(4) . . .
60(4) . . .
55(4) . . .
71(4) . . .
66(4) . . .
69(5) . . .
58(4) . . .
58(4) . . .
57(4) . . .
60(4) . . .
64(5) . . .
56(4) . . .
67(4) . . .
67(4) . . .
65(4) . . .
56(4) . . .
62(4) . . .
58(4) . . .
62(4) . . .
58(4) . . .
61(4) . . .
54(4) . . .
68(4) . . .
62(4) . . .
56(4) . . .
68(5) . . .
54(4) . . .
61(4) . . .
61(4) . . .
65(4) . . .
61(4) . . .
60(4) . . .
54(4) . . .
51(4) . . .
63(4) . . .
50(4) . . .
58(4) . . .
60(4) . . .
54(4) . . .
50(4) . . .
70(5) . . .
62(4) . . .
62(4) . . .
63(4) . . .
66(5) . . .
64(5) . . .
62(4) . . .
63(4) . . .
64(4) . . .
66(4) . . .
70(5) . . .
53(4) . . .
55(4) . . .
65(4) . . .
56(4) . . .
59(4) . . .
65(4) . . .
62(4) . . .
63(4) . . .
69(5) . . .
62(4) . . .
55(4) . . .
60(4) . . .
63(4) . . .
60(4) . . .
58(4) . . .
58(4) . . .
63(4) . . .
54(4) . . .
71(5) . . .
64(4) . . .
71(4) . . .
68(4) . . .
60(4) . . .
57(4) . . .
56(4) . . .
61(4) . . .
54(4) . . .
62(4) . . .
67(5) . . .
64(4) . . .
65(4) . . .
67(4) . . .
64(4) . . .
66(4) . . .
64(4) . . .
65(4) . . .
50(4) . . .
59(4) . . .
60(4) . . .
73(4) . . .
70(4) . . .
53(4) . . .
54(4) . . .
59(4) . . .
53(4) . . .
55(4) . . .
60(4) . . .
62(4) . . .
59(4) . . .
62(4) . . .
66(4) . . .
69(4) . . .
65(4) . . .
71(5) . . .
60(4) . . .
64(4) . . .
64(4) . . .
62(4) . . .
59(4) . . .
64(4) . . .
71(4) . . .
56(4) . . .
63(4) . . .
67(4) . . .
53(4) . . .
67(4) . . .
59(4) . . .
66(4) . . .
55(4) . . .
61(4) . . .
66(4) . . .
57(4) . . .
66(5) . . .
49(4) . . .
65(4) . . .
61(4) . . .
67(4) . . .
60(4) . . .
66(4) . . .
57(4) . . .
62(4) . . .
54(4) . . .
73(5) . . .
72(4) . . .
68(4) . . .
69(5) . . .
50(4) . . .
64(4) . . .
58(4) . . .
56(4) . . .
59(4) . . .
64(4) . . .
65(4) . . .
65(4) . . .
65(4) . . .
60(4) . . .
72(5) . . .
57(4) . . .
58(4) . . .
47(4) . . .
67(4) . . .
63(4) . . .
73(5) . . .
60(4) . . .
63(4) . . .
53(4) . . .
62(5) . . .
51(4) . . .
63(4) . . .
60(4) . . .
65(4) . . .
63(4) . . .
68(4) . . .
64(4) . . .
62(4) . . .
60(4) . . .
60(4) . . .
52(4) . . .
66(4) . . .
57(4) . . .
59(4) . . .
55(4) . . .
64(4) . . .
63(4) . . .
59(4) . . .
64(4) . . .
61(4) . . .
70(5) . . .
65(4) . . .
66(4) . . .
69(4) . . .
61(4) . . .
59(4) . . .
65(4) . . .
57(4) . . .
61(4) . . .
60(4) . . .
70(4) . . .
79(5) . . .
59(4) . . .
64(4) . . .
66(5) . . .
55(4) . . .
53(4) . . .
55(4) . . .
57(4) . . .
56(4) . . .
54(4) . . .
66(4) . . .
67(4) . . .
72(5) . . .
65(4) . . .
59(4) . . .
58(4) . . .
67(5) . . .
60(4) . . .
58(4) . . .
60(4) . . .
67(4) . . .
65(4) . . .
59(4) . . .
66(4) . . .
61(4) . . .
53(4) . . .
47(4) . . .
53(4) . . .
64(4) . . .
65(4) . . .
49(4) . . .
53(4) . . .
57(4) . . .
70(5) . . .
74(4) . . .
72(4) . . .
62(4) . . .
58(4) . . .
64(4) . . .
71(4) . . .
59(4) . . .
74(5) . . .
67(4) . . .
67(4) . . .
59(4) . . .
64(4) . . .
65(4) . . .
73(5) . . .
63(4) . . .
62(4) . . .
66(5) . . .
67(5) . . .
59(4) . . .
60(4) . . .
64(4) . . .
50(4) . . .
60(4) . . .
55(4) . . .
68(4) . . .
59(4) . . .
70(5) . . .
60(4) . . .
61(4) . . .
61(4) . . .
57(4) . . .
56(4) . . .
59(4) . . .
64(4) . . .
63(4) . . .
62(4) . . .
82(5) . . .
59(4) . . .
58(4) . . .
60(4) . . .
76(5) . . .
68(4) . . .
69(5) . . .
62(4) . . .
49(4) . . .
60(4) . . .
63(4) . . .
67(4) . . .
64(4) . . .
60(4) . . .
60(4) . . .
72(5) . . .
59(4) . . .
61(4) . . .
65(4) . . .
69(5) . . .
58(4) . . .
60(4) . . .
51(4) . . .
72(4) . . .
67(4) . . .
65(4) . . .
69(5) . . .
56(4) . . .
58(4) . . .
57(4) . . .
65(4) . . .
65(4) . . .
59(4) . . .
64(4) . . .
70(4) . . .
61(4) . . .
70(5) . . .
55(4) . . .
60(4) . . .
59(4) . . .
64(4) . . .
65(4) . . .
65(4) . . .
61(4) . . .
60(4) . . .
63(4) . . .
59(4) . . .
61(4) . . .
56(4) . . .
56(4) . . .
59(5) . . .
70(5) . . .
66(4) . . .
65(4) . . .
61(4) . . .
65(4) . . .
66(4) . . .
71(4) . . .
57(4) . . .
59(4) . . .
57(4) . . .
51(4) . . .
60(4) . . .
69(4) . . .
66(5) . . .
70(5) . . .
63(4) . . .
69(4) . . .
58(4) . . .
64(4) . . .
59(4) . . .
48(4) . . .
63(4) . . .
59(4) . . .
69(4) . . .
65(4) . . .
62(4) . . .
57(4) . . .
57(4) . . .
60(4) . . .
58(4) . . .
65(4) . . .
51(4) . . .
61(4) . . .
60(4) . . .
62(4) . . .
57(4) . . .
61(4) . . .
67(4) . . .
66(5) . . .
62(4) . . .
62(4) . . .
58(4) . . .
60(4) . . .
63(4) . . .
53(4) . . .
73(5) . . .
56(4) . . .
66(4) . . .
54(4) . . .
58(4) . . .
55(4) . . .
61(4) . . .
51(4) . . .
57(4) . . .
72(5) . . .
61(4) . . .
67(4) . . .
68(4) . . .
63(4) . . .
61(4) . . .
60(4) . . .
61(4) . . .
57(4) . . .
59(4) . . .
61(4) . . .
53(4) . . .
51(4) . . .
61(4) . . .
59(4) . . .
67(5) . . .
57(4) . . .
61(4) . . .
57(4) . . .
57(4) . . .
63(4) . . .
61(4) . . .
62(4) . . .
55(4) . . .
59(4) . . .
64(4) . . .
76(5) . . .
59(4) . . .
58(4) . . .
59(4) . . .
65(4) . . .
65(4) . . .
63(4) . . .
61(4) . . .
52(4) . . .
63(4) . . .
70(4) . . .
62(4) . . .
62(4) . . .
59(4) . . .
49(4) . . .
61(4) . . .
66(4) . . .
70(5) . . .
58(4) . . .
64(4) . . .
61(4) . . .
63(4) . . .
64(5) . . .
61(5) . . .
62(4) . . .
76(4) . . .
55(4) . . .
62(4) . . .
60(4) . . .
64(4) . . .
52(4) . . .
52(4) . . .
56(4) . . .
70(5) . . .
62(4) . . .
59(4) . . .
48(4) . . .
64(5) . . .
62(4) . . .
58(4) . . .
62(4) . . .
54(4) . . .
69(5) . . .
50(4) . . .
58(4) . . .
73(4) . . .
61(4) . . .
65(4) . . .
66(4) . . .
66(4) . . .
74(5) . . .
61(4) . . .
50(4) . . .
63(4) . . .
70(4) . . .
52(4) . . .
54(4) . . .
61(5) . . .
63(4) . . .
61(4) . . .
63(4) . . .
61(4) . . .
66(4) . . .
62(4) . . .
67(4) . . .
55(4) . . .
61(4) . . .
69(4) . . .
64(4) . . .
68(4) . . .
60(4) . . .
60(4) . . .
58(4) . . .
64(4) . . .
59(4) . . .
65(4) . . .
66(4) . . .
56(4) . . .
53(4) . . .
59(4) . . .
61(4) . . .
58(4) . . .
65(4) . . .
59(4) . . .
60(4) . . .
63(4) . . .
67(5) . . .
56(4) . . .
59(4) . . .
65(4) . . .
53(4) . . .
65(5) . . .
66(4) . . .
67(4) . . .
66(4) . . .
63(4) . . .
53(4) . . .
57(4) . . .
65(4) . . .
69(4) . . .
59(4) . . .
58(4) . . .
58(4) . . .
64(4) . . .
64(4) . . .
61(4) . . .
57(4) . . .
55(4) . . .
59(4) . . .
62(4) . . .
56(4) . . .
53(4) . . .
67(4) . . .
67(4) . . .
61(4) . . .
60(4) . . .
63(4) . . .
62(4) . . .
62(4) . . .
60(4) . . .
56(4) . . .
58(4) . . .
57(4) . . .
57(4) . . .
57(4) . . .
54(4) . . .
60(4) . . .
52(4) . . .
61(4) . . .
61(4) . . .
61(4) . . .
56(4) . . .
54(4) . . .
62(4) . . .
49(4) . . .
53(4) . . .
54(4) . . .
65(4) . . .
69(4) . . .
64(4) . . .
57(4) . . .
58(4) . . .
62(4) . . .
64(4) . . .
69(5) . . .
64(4) . . .
66(5) . . .
67(4) . . .
66(4) . . .
50(4) . . .
50(4) . . .
61(4) . . .
57(4) . . .
66(5) . . .
61(4) . . .
51(4) . . .
55(4) . . .
61(4) . . .
57(4) . . .
49(4) . . .
65(5) . . .
56(4) . . .
60(4) . . .
54(4) . . .
57(4) . . .
67(4) . . .
62(4) . . .
60(4) . . .
62(4) . . .
66(5) . . .
67(4) . . .
51(4) . . .
57(4) . . .
66(4) . . .
57(4) . . .
53(4) . . .
53(4) . . .
57(4) . . .
61(4) . . .
61(4) . . .
59(4) . . .
62(4) . . .
60(4) . . .
55(4) . . .
54(4) . . .
63(4) . . .
52(4) . . .
54(4) . . .
55(4) . . .
57(4) . . .
57(4) . . .
59(4) . . .
53(4) . . .
53(4) . . .
61(5) . . .
55(4) . . .
64(4) . . .
54(4) . . .
58(4) . . .
61(4) . . .
66(5) . . .
58(4) . . .
59(4) . . .
56(4) . . .
54(4) . . .
56(4) . . .
55(4) . . .
61(4) . . .
65(4) . . .
65(4) . . .
55(4) . . .
57(4) . . .
61(4) . . .
64(4) . . .
54(4) . . .
58(4) . . .
63(4) . . .
58(4) . . .
52(4) . . .
58(4) . . .
72(4) . . .
61(4) . . .
60(4) . . .
61(4) . . .
63(4) . . .
56(4) . . .
66(4) . . .
55(4) . . .
62(4) . . .
66(4) . . .
62(4) . . .
54(4) . . .
59(4) . . .
63(4) . . .
58(4) . . .
56(4) . . .
52(4) . . .
55(4) . . .
63(5) . . .
53(4) . . .
49(4) . . .
49(4) . . .
62(4) . . .
62(4) . . .
64(4) . . .
58(4) . . .
56(4) . . .
67(4) . . .
65(4) . . .
72(5) . . .
63(4) . . .
65(4) . . .
62(4) . . .
51(4) . . .
47(4) . . .
63(4) . . .
67(4) . . .
73(5) . . .
63(4) . . .
60(4) . . .
58(4) . . .
65(4) . . .
67(5) . . .
54(4) . . .
63(4) . . .
59(4) . . .
50(4) . . .
58(4) . . .
56(4) . . .
58(4) . . .
51(4) . . .
67(4) . . .
63(4) . . .
63(4) . . .
60(4) . . .
53(4) . . .
68(4) . . .
64(4) . . .
68(4) . . .
72(4) . . .
69(4) . . .
67(4) . . .
62(4) . . .
64(4) . . .
62(4) . . .
60(4) . . .
57(4) . . .
58(4) . . .
49(4) . . .
54(4) . . .
55(4) . . .
58(4) . . .
68(5) . . .
64(5) . . .
69(4) . . .
69(5) . . .
56(4) . . .
54(4) . . .
56(4) . . .
72(4) . . .
54(4) . . .
65(5) . . .
60(4) . . .
66(4) . . .
64(4) . . .
53(4) . . .
60(4) . . .
55(4) . . .
60(4) . . .
59(4) . . .
61(4) . . .
50(4) . . .
58(4) . . .
60(4) . . .
62(4) . . .
56(4) . . .
52(4) . . .
62(4) . . .
60(4) . . .
67(4) . . .
65(4) . . .
62(4) . . .
55(4) . . .
68(4) . . .
77(5) . . .
72(5) . . .
57(4) . . .
67(4) . . .
78(5) . . .
67(4) . . .
55(4) . . .
57(4) . . .
54(4) . . .
61(4) . . .
60(4) . . .
66(4) . . .
61(4) . . .
73(5) . . .
59(4) . . .
59(4) . . .
53(4) . . .
58(4) . . .
57(4) . . .
59(4) . . .
56(4) . . .
47(4) . . .
61(4) . . .
70(4) . . .
56(4) . . .
57(4) . . .
61(4) . . .
64(5) . . .
56(4) . . .
64(4) . . .
49(4) . . .
57(4) . . .
52(4) . . .
59(4) . . .
54(4) . . .
67(4) . . .
62(4) . . .
61(5) . . .
60(4) . . .
55(4) . . .
60(4) . . .
63(4) . . .
58(4) . . .
56(4) . . .
50(4) . . .
52(4) . . .
55(4) . . .
49(4) . . .
57(4) . . .
56(4) . . .
59(4) . . .
54(4) . . .
69(4) . . .
57(4) . . .
61(4) . . .
64(4) . . .
63(5) . . .
60(4) . . .
61(4) . . .
66(4) . . .
58(4) . . .
61(4) . . .
62(4) . . .
69(4) . . .
61(4) . . .
65(4) . . .
66(5) . . .
62(4) . . .
60(4) . . .
63(4) . . .
56(4) . . .
59(4) . . .
61(4) . . .
71(4) . . .
62(4) . . .
53(4) . . .
56(4) . . .
61(4) . . .
47(4) . . .
60(4) . . .
58(4) . . .
70(5) . . .
63(4) . . .
57(4) . . .
55(4) . . .
58(4) . . .
54(4) . . .
64(4) . . .
71(4) . . .
74(5) . . .
49(4) . . .
55(4) . . .
57(4) . . .
61(4) . . .
62(4) . . .
73(5) . . .
69(5) . . .
54(4) . . .
63(4) . . .
64(4) . . .
65(4) . . .
57(4) . . .
61(4) . . .
64(4) . . .
61(4) . . .
57(4) . . .
67(4) . . .
63(4) . . .
61(4) . . .
63(4) . . .
73(5) . . .
60(4) . . .
64(4) . . .
53(4) . . .
54(4) . . .
57(4) . . .
61(4) . . .
61(4) . . .
54(4) . . .
63(4) . . .
55(4) . . .
58(4) . . .
53(4) . . .
62(4) . . .
57(4) . . .
60(4) . . .
53(4) . . .
62(4) . . .
66(4) . . .
67(4) . . .
51(4) . . .
55(4) . . .
49(4) . . .
59(4) . . .
65(4) . . .
60(4) . . .
58(4) . . .
59(4) . . .
46(4) . . .
57(4) . . .
75(5) . . .
64(4) . . .
62(4) . . .
54(4) . . .
59(4) . . .
57(4) . . .
66(4) . . .
50(4) . . .
60(4) . . .
61(4) . . .
69(4) . . .
70(4) . . .
71(4) . . .
58(4) . . .
62(4) . . .
60(4) . . .
63(4) . . .
52(4) . . .
59(4) . . .
53(4) . . .
58(4) . . .
78(5) . . .
62(4) . . .
69(5) . . .
52(4) . . .
56(4) . . .
57(4) . . .
64(4) . . .
62(4) . . .
58(4) . . .
67(4) . . .
56(4) . . .
44(4) . . .
61(4) . . .
59(4) . . .
63(4) . . .
47(4) . . .
56(4) . . .
60(4) . . .
53(4) . . .
45(4) . . .
50(4) . . .
56(4) . . .
59(4) . . .
53(4) . . .
54(4) . . .
62(4) . . .
58(4) . . .
60(4) . . .
59(4) . . .
61(4) . . .
57(4) . . .
64(4) . . .
61(4) . . .
66(4) . . .
53(4) . . .
54(4) . . .
69(4) . . .
62(4) . . .
65(4) . . .
51(4) . . .
64(4) . . .
62(4) . . .
56(4) . . .
62(4) . . .
57(4) . . .
57(4) . . .
54(4) . . .
61(4) . . .
65(4) . . .
64(4) . . .
62(4) . . .
61(4) . . .
59(4) . . .
58(4) . . .
56(4) . . .
56(4) . . .
64(4) . . .
62(4) . . .
58(4) . . .
57(4) . . .
49(4) . . .
63(4) . . .
53(4) . . .
60(4) . . .
69(4) . . .
73(5) . . .
64(4) . . .
55(4) . . .
62(4) . . .
59(4) . . .
62(4) . . .
51(4) . . .
61(4) . . .
71(4) . . .
61(4) . . .
61(4) . . .
61(4) . . .
67(4) . . .
52(4) . . .
70(4) . . .
58(4) . . .
57(4) . . .
50(4) . . .
63(4) . . .
63(4) . . .
62(4) . . .
60(4) . . .
58(4) . . .
62(4) . . .
71(4) . . .
62(4) . . .
60(4) . . .
68(4) . . .
59(4) . . .
69(4) . . .
75(5) . . .
64(4) . . .
71(4) . . .
53(4) . . .
55(4) . . .
64(5) . . .
73(5) . . .
61(4) . . .
61(4) . . .
61(4) . . .
63(4) . . .
48(4) . . .
66(4) . . .
57(4) . . .
71(4) . . .
68(4) . . .
65(4) . . .
64(4) . . .
58(4) . . .
67(4) . . .
70(4) . . .
65(4) . . .
65(4) . . .
58(4) . . .
67(4) . . .
63(4) . . .
66(4) . . .
58(4) . . .
60(4) . . .
57(4) . . .
60(4) . . .
64(4) . . .
65(4) . . .
53(4) . . .
63(4) . . .
65(4) . . .
61(4) . . .
65(4) . . .
60(4) . . .
63(4) . . .
62(4) . . .
64(4) . . .
50(4) . . .
53(4) . . .
54(4) . . .
45(4) . . .
62(4) . . .
66(4) . . .
57(4) . . .
74(5) . . .
69(5) . . .
65(4) . . .
58(4) . . .
61(4) . . .
56(4) . . .
63(4) . . .
65(4) . . .
52(4) . . .
59(4) . . .
54(4) . . .
66(5) . . .
50(4) . . .
63(4) . . .
67(4) . . .
58(4) . . .
53(4) . . .
53(4) . . .
60(4) . . .
69(4) . . .
63(4) . . .
55(4) . . .
57(4) . . .
59(4) . . .
58(4) . . .
53(4) . . .
61(4) . . .
57(4) . . .
62(4) . . .
55(4) . . .
58(4) . . .
57(4) . . .
62(4) . . .
64(4) . . .
56(4) . . .
67(5) . . .
58(4) . . .
58(4) . . .
65(4) . . .
54(4) . . .
65(4) . . .
64(4) . . .
58(4) . . .
57(4) . . .
58(4) . . .
57(4) . . .
55(4) . . .
57(4) . . .
54(4) . . .
57(4) . . .
61(4) . . .
68(4) . . .
51(4) . . .
54(4) . . .
52(4) . . .
58(4) . . .
54(4) . . .
51(4) . . .
55(4) . . .
62(4) . . .
62(4) . . .
55(4) . . .
62(4) . . .
61(4) . . .
56(4) . . .
64(4) . . .
55(4) . . .
70(4) . . .
57(4) . . .
58(4) . . .
67(4) . . .
64(4) . . .
73(4) . . .
62(4) . . .
60(4) . . .
56(4) . . .
62(4) . . .
56(4) . . .
62(4) . . .
61(4) . . .
51(4) . . .
50(4) . . .
62(4) . . .
59(4) . . .
62(4) . . .
59(4) . . .
70(4) . . .
58(4) . . .
59(4) . . .
60(4) . . .
55(4) . . .
56(4) . . .
60(4) . . .
64(4) . . .
61(4) . . .
48(4) . . .
57(4) . . .
64(4) . . .
60(4) . . .
57(4) . . .
53(4) . . .
55(4) . . .
56(4) . . .
52(4) . . .
53(4) . . .
65(4) . . .
69(4) . . .
55(4) . . .
65(4) . . .
56(4) . . .
64(4) . . .
60(4) . . .
70(4) . . .
48(4) . . .
54(4) . . .
62(4) . . .
58(4) . . .
56(4) . . .
54(4) . . .
66(4) . . .
67(4) . . .
52(4) . . .
56(4) . . .
62(4) . . .
61(4) . . .
67(4) . . .
58(4) . . .
70(4) . . .
59(4) . . .
71(5) . . .
60(4) . . .
65(4) . . .
51(4) . . .
53(4) . . .
62(4) . . .
61(4) . . .
61(4) . . .
68(5) . . .
60(4) . . .
58(4) . . .
57(4) . . .
61(4) . . .
69(4) . . .
61(5) . . .
55(4) . . .
63(4) . . .
58(4) . . .
58(4) . . .
58(4) . . .
57(4) . . .
62(4) . . .
61(4) . . .
58(4) . . .
57(4) . . .
64(4) . . .
64(4) . . .
48(4) . . .
66(4) . . .
77(5) . . .
55(4) . . .
50(4) . . .
57(4) . . .
63(4) . . .
58(4) . . .
50(4) . . .
63(4) . . .
66(4) . . .
64(4) . . .
63(4) . . .
53(4) . . .
57(4) . . .
73(5) . . .
60(4) . . .
60(4) . . .
56(4) . . .
55(4) . . .
62(4) . . .
70(5) . . .
67(4) . . .
58(4) . . .
66(4) . . .
61(4) . . .
61(4) . . .
54(4) . . .
64(4) . . .
54(4) . . .
51(4) . . .
51(4) . . .
57(4) . . .
58(4) . . .
59(4) . . .
59(4) . . .
59(4) . . .
55(4) . . .
62(4) . . .
64(4) . . .
61(4) . . .
61(5) . . .
53(4) . . .
68(4) . . .
64(4) . . .
62(4) . . .
53(4) . . .
62(4) . . .
58(4) . . .
47(4) . . .
59(4) . . .
60(4) . . .
50(4) . . .
58(4) . . .
62(4) . . .
60(4) . . .
62(5) . . .
56(4) . . .
59(4) . . .
50(4) . . .
59(4) . . .
52(4) . . .
64(4) . . .
58(4) . . .
59(4) . . .
59(4) . . .
59(4) . . .
53(4) . . .
51(4) . . .
54(4) . . .
59(4) . . .
48(4) . . .
60(4) . . .
50(4) . . .
61(4) . . .
68(5) . . .
66(4) . . .
55(4) . . .
60(4) . . .
55(4) . . .
56(4) . . .
51(4) . . .
51(4) . . .
45(4) . . .
74(5) . . .
67(5) . . .
59(4) . . .
59(4) . . .
57(4) . . .
55(4) . . .
64(4) . . .
59(4) . . .
51(4) . . .
57(4) . . .
60(4) . . .
60(4) . . .
59(4) . . .
55(4) . . .
60(4) . . .
54(4) . . .
51(4) . . .
52(4) . . .
60(4) . . .
53(4) . . .
56(4) . . .
59(4) . . .
59(4) . . .
51(4) . . .
59(4) . . .
55(4) . . .
70(5) . . .
58(4) . . .
61(4) . . .
50(4) . . .
66(5) . . .
66(5) . . .
54(4) . . .
54(4) . . .
57(4) . . .
54(4) . . .
67(5) . . .
60(4) . . .
49(4) . . .
54(4) . . .
63(5) . . .
57(4) . . .
56(4) . . .
64(4) . . .
60(4) . . .
54(4) . . .
55(4) . . .
56(4) . . .
52(4) . . .
67(4) . . .
58(4) . . .
54(4) . . .
60(4) . . .
65(4) . . .
69(4) . . .
59(4) . . .
53(4) . . .
65(4) . . .
54(4) . . .
54(4) . . .
58(4) . . .
48(4) . . .
57(4) . . .
62(4) . . .
54(4) . . .
55(4) . . .
56(4) . . .
59(4) . . .
63(4) . . .
62(4) . . .
66(5) . . .
49(4) . . .
46(4) . . .
53(4) . . .
63(4) . . .
59(4) . . .
63(4) . . .
62(4) . . .
61(4) . . .
57(4) . . .
57(4) . . .
56(4) . . .
61(4) . . .
54(4) . . .
50(4) . . .
54(4) . . .
67(4) . . .
58(4) . . .
56(4) . . .
54(4) . . .
61(4) . . .
59(4) . . .
53(4) . . .
53(4) . . .
57(4) . . .
57(4) . . .
50(4) . . .
58(4) . . .
53(4) . . .
56(4) . . .
48(4) . . .
54(4) . . .
58(4) . . .
54(4) . . .
57(4) . . .
53(4) . . .
58(4) . . .
67(4) . . .
61(4) . . .
56(4) . . .
62(4) . . .
55(4) . . .
62(4) . . .
51(4) . . .
59(4) . . .
57(4) . . .
51(4) . . .
50(4) . . .
49(4) . . .
61(4) . . .
58(4) . . .
48(4) . . .
68(5) . . .
66(4) . . .
63(4) . . .
58(4) . . .
57(4) . . .
51(4) . . .
63(4) . . .
58(4) . . .
51(4) . . .
41.9(34) . . .
60(4) . . .
51(4) . . .
61(4) . . .
57(4) . . .
69(4) . . .
65(4) . . .
57(4) . . .
62(4) . . .
64(4) . . .
62(4) . . .
59(4) . . .
56(4) . . .
55(4) . . .
66(4) . . .
55(4) . . .
54(4) . . .
53(4) . . .
62(4) . . .
66(4) . . .
61(4) . . .
53(4) . . .
58(4) . . .
62(4) . . .
73(4) . . .
53(4) . . .
49(4) . . .
49(4) . . .
55(4) . . .
61(4) . . .
57(4) . . .
64(4) . . .
59(4) . . .
59(4) . . .
52(4) . . .
71(4) . . .
56(4) . . .
62(4) . . .
63(4) . . .
61(4) . . .
63(4) . . .
55(4) . . .
50(4) . . .
52(4) . . .
52(4) . . .
59(4) . . .
70(5) . . .
59(4) . . .
70(4) . . .
53(4) . . .
61(4) . . .
57(4) . . .
61(4) . . .
63(4) . . .
63(4) . . .
68(4) . . .
59(4) . . .
53(4) . . .
54(4) . . .
49(4) . . .
55(4) . . .
57(4) . . .
49(4) . . .
55(4) . . .
61(4) . . .
54(4) . . .
53(4) . . .
55(4) . . .
54(4) . . .
59(4) . . .
62(4) . . .
49(4) . . .
67(4) . . .
70(4) . . .
62(4) . . .
55(4) . . .
50(4) . . .
52(4) . . .
62(4) . . .
54(4) . . .
57(4) . . .
52(4) . . .
50(4) . . .
47(4) . . .
56(4) . . .
55(4) . . .
65(4) . . .
64(4) . . .
62(4) . . .
57(4) . . .
62(4) . . .
43(4) . . .
61(4) . . .
51(4) . . .
55(4) . . .
62(4) . . .
57(4) . . .
60(4) . . .
58(4) . . .
66(4) . . .
51(4) . . .
56(4) . . .
62(4) . . .
47(4) . . .
64(4) . . .
59(4) . . .
63(4) . . .
64(4) . . .
58(4) . . .
64(4) . . .
57(4) . . .
49(4) . . .
48(4) . . .
61(4) . . .
66(4) . . .
64(4) . . .
57(4) . . .
52(4) . . .
58(4) . . .
59(4) . . .
50(4) . . .
59(4) . . .
51(4) . . .
63(4) . . .
57(4) . . .
66(5) . . .
54(4) . . .
58(4) . . .
49(4) . . .
50(4) . . .
63(4) . . .
64(4) . . .
68(4) . . .
63(4) . . .
70(4) . . .
63(4) . . .
60(4) . . .
58(4) . . .
57(4) . . .
57(4) . . .
64(4) . . .
65(4) . . .
57(4) . . .
66(4) . . .
62(4) . . .
54(4) . . .
55(4) . . .
64(4) . . .
54(4) . . .
47(4) . . .
49(4) . . .
56(4) . . .
60(4) . . .
60(4) . . .
62(4) . . .
54(4) . . .
55(4) . . .
65(4) . . .
60(4) . . .
59(4) . . .
51(4) . . .
76(5) . . .
53(4) . . .
58(4) . . .
48(4) . . .
69(5) . . .
72(5) . . .
55(4) . . .
60(4) . . .
56(4) . . .
52(4) . . .
58(4) . . .
63(4) . . .
65(5) . . .
59(4) . . .
62(4) . . .
46(4) . . .
60(4) . . .
59(4) . . .
55(4) . . .
55(4) . . .
58(4) . . .
50(4) . . .
61(4) . . .
49(4) . . .
55(4) . . .
60(4) . . .
62(4) . . .
60(4) . . .
53(4) . . .
56(4) . . .
58(4) . . .
48(4) . . .
52(4) . . .
60(4) . . .
63(4) . . .
59(4) . . .
60(4) . . .
59(4) . . .
52(4) . . .
58(4) . . .
62(4) . . .
52(4) . . .
56(4) . . .
55(4) . . .
62(4) . . .
55(4) . . .
57(4) . . .
75(5) . . .
65(4) . . .
55(4) . . .
57(4) . . .
60(4) . . .
56(4) . . .
62(4) . . .
58(4) . . .
65(4) . . .
63(4) . . .
57(4) . . .
57(4) . . .
66(4) . . .
61(4) . . .
63(4) . . .
63(4) . . .
52(4) . . .
64(4) . . .
52(4) . . .
53(4) . . .
45(4) . . .
48(4) . . .
57(4) . . .
49(4) . . .
59(4) . . .
61(4) . . .
55(4) . . .
66(4) . . .
61(4) . . .
51(4) . . .
54(4) . . .
63(4) . . .
60(4) . . .
60(4) . . .
52(4) . . .
50(4) . . .
49(4) . . .
52(4) . . .
57(4) . . .
59(4) . . .
57(4) . . .
47(4) . . .
57(4) . . .
58(4) . . .
58(4) . . .
63(4) . . .
48(4) . . .
46(4) . . .
55(4) . . .
61(4) . . .
49(4) . . .
58(4) . . .
60(4) . . .
51(4) . . .
61(4) . . .
61(4) . . .
53(4) . . .
49(4) . . .
45(4) . . .
54(4) . . .
54(4) . . .
53(4) . . .
53(4) . . .
49(4) . . .
47(4) . . .
58(4) . . .
44(4) . . .
62(4) . . .
61(4) . . .
50(4) . . .
58(4) . . .
59(4) . . .
62(4) . . .
66(4) . . .
60(4) . . .
63(4) . . .
59(4) . . .
58(4) . . .
60(4) . . .
63(4) . . .
56(4) . . .
57(4) . . .
65(4) . . .
63(4) . . .
61(4) . . .
65(4) . . .
57(4) . . .
55(4) . . .
74(5) . . .
64(5) . . .
62(4) . . .
52(4) . . .
55(4) . . .
55(4) . . .
56(4) . . .
56(4) . . .
46(4) . . .
59(4) . . .
48(4) . . .
49(4) . . .
63(4) . . .
66(4) . . .
53(4) . . .
63(4) . . .
51(4) . . .
63(4) . . .
55(4) . . .
61(4) . . .
64(4) . . .
69(5) . . .
59(4) . . .
58(4) . . .
60(4) . . .
42(4) . . .
49(4) . . .
58(4) . . .
57(4) . . .
59(4) . . .
61(4) . . .
64(4) . . .
62(4) . . .
68(4) . . .
70(5) . . .
60(4) . . .
57(4) . . .
63(4) . . .
51(4) . . .
52(4) . . .
63(5) . . .
56(4) . . .
59(4) . . .
66(5) . . .
63(4) . . .
50(4) . . .
51(4) . . .
48(4) . . .
65(4) . . .
60(4) . . .
57(4) . . .
54(4) . . .
59(4) . . .
67(4) . . .
58(4) . . .
54(4) . . .
58(4) . . .
59(4) . . .
49(4) . . .
44(4) . . .
52(4) . . .
51(4) . . .
53(4) . . .
60(4) . . .
60(4) . . .
52(4) . . .
54(4) . . .
61(4) . . .
60(4) . . .
51(4) . . .
55(4) . . .
62(4) . . .
46.0(35) . . .
54(4) . . .
61(4) . . .
54(4) . . .
61(4) . . .
57(4) . . .
58(4) . . .
46(4) . . .
44.3(35) . . .
54(4) . . .
65(4) . . .
56(4) . . .
53(4) . . .
64(4) . . .
49(4) . . .
58(4) . . .
51(4) . . .
53(4) . . .
62(4) . . .
60(4) . . .
49(4) . . .
54(4) . . .
61(4) . . .
54(4) . . .
46(4) . . .
55(4) . . .
62(4) . . .
63(4) . . .
61(4) . . .
68(4) . . .
56(4) . . .
57(4) . . .
70(4) . . .
56(4) . . .
48(4) . . .
50(4) . . .
62(4) . . .
63(4) . . .
57(4) . . .
57(4) . . .
57(4) . . .
60(4) . . .
60(4) . . .
58(4) . . .
54(4) . . .
49(4) . . .
60(4) . . .
61(4) . . .
59(4) . . .
68(4) . . .
50(4) . . .
64(5) . . .
51(4) . . .
51(4) . . .
52(4) . . .
57(4) . . .
60(4) . . .
60(4) . . .
50(4) . . .
64(4) . . .
55(4) . . .
58(4) . . .
59(4) . . .
69(4) . . .
62(4) . . .
57(4) . . .
62(4) . . .
48(4) . . .
51(4) . . .
55(4) . . .
54(4) . . .
65(5) . . .
60(4) . . .
68(4) . . .
53(4) . . .
59(4) . . .
55(4) . . .
53(4) . . .
49(4) . . .
54(4) . . .
57(4) . . .
59(4) . . .
58(4) . . .
58(4) . . .
55(4) . . .
59(4) . . .
62(4) . . .
54(4) . . .
56(4) . . .
52(4) . . .
55(4) . . .
50(4) . . .
57(4) . . .
64(4) . . .
56(4) . . .
60(4) . . .
58(4) . . .
56(4) . . .
48(4) . . .
64(4) . . .
56(4) . . .
67(4) . . .
66(4) . . .
48(4) . . .
49(4) . . .
69(5) . . .
64(4) . . .
57(4) . . .
51(4) . . .
56(4) . . .
57(4) . . .
52(4) . . .
59(4) . . .
69(4) . . .
54(4) . . .
50(4) . . .
58(4) . . .
44.6(35) . . .
67(4) . . .
57(4) . . .
51(4) . . .
54(4) . . .
49(4) . . .
59(4) . . .
48(4) . . .
44(4) . . .
56(4) . . .
63(4) . . .
50(4) . . .
51(4) . . .
55(4) . . .
60(4) . . .
58(4) . . .
53(4) . . .
57(4) . . .
51(4) . . .
57(4) . . .
44.8(35) . . .
58(4) . . .
52(4) . . .
51(4) . . .
59(4) . . .
55(4) . . .
54(4) . . .
53(4) . . .
55(4) . . .
45(4) . . .
55(4) . . .
56(4) . . .
51(4) . . .
60(4) . . .
51(4) . . .
60(4) . . .
47(4) . . .
53(4) . . .
62(4) . . .
49(4) . . .
53(4) . . .
59(4) . . .
69(5) . . .
65(4) . . .
67(4) . . .
56(4) . . .
54(4) . . .
49(4) . . .
62(4) . . .
52(4) . . .
70(4) . . .
52(4) . . .
60(4) . . .
67(4) . . .
62(4) . . .
63(4) . . .
60(4) . . .
52(4) . . .
66(4) . . .
69(4) . . .
58(4) . . .
50(4) . . .
53(4) . . .
59(4) . . .
57(4) . . .
56(4) . . .
53(4) . . .
53(4) . . .
54(4) . . .
57(4) . . .
61(4) . . .
68(4) . . .
56(4) . . .
66(4) . . .
57(4) . . .
56(4) . . .
50(4) . . .
55(4) . . .
56(4) . . .
58(4) . . .
65(4) . . .
63(4) . . .
54(4) . . .
62(4) . . .
52(4) . . .
56(4) . . .
65(4) . . .
59(4) . . .
51(4) . . .
53(4) . . .
52(4) . . .
57(4) . . .
58(4) . . .
55(4) . . .
55(4) . . .
58(4) . . .
55(4) . . .
55(4) . . .
57(4) . . .
61(4) . . .
58(4) . . .
67(5) . . .
63(4) . . .
52(4) . . .
59(4) . . .
50(4) . . .
59(4) . . .
58(4) . . .
53(4) . . .
46(4) . . .
52(4) . . .
56(4) . . .
53(4) . . .
48(4) . . .
44.4(34) . . .
57(4) . . .
56(4) . . .
50(4) . . .
73(4) . . .
59(4) . . .
63(4) . . .
58(4) . . .
52(4) . . .
63(4) . . .
58(4) . . .
51(4) . . .
61(4) . . .
61(4) . . .
63(4) . . .
59(4) . . .
62(4) . . .
59(4) . . .
55(4) . . .
59(4) . . .
53(4) . . .
55(4) . . .
64(4) . . .
64(4) . . .
58(4) . . .
55(4) . . .
58(4) . . .
61(4) . . .
58(4) . . .
61(4) . . .
47(4) . . .
56(4) . . .
64(4) . . .
63(4) . . .
57(4) . . .
68(5) . . .
52(4) . . .
54(4) . . .
54(4) . . .
60(4) . . .
58(4) . . .
50(4) . . .
62(4) . . .
59(4) . . .
54(4) . . .
68(4) . . .
64(4) . . .
54(4) . . .
59(4) . . .
45(4) . . .
65(4) . . .
58(4) . . .
44(4) . . .
52(4) . . .
50(4) . . .
53(4) . . .
57(4) . . .
45(4) . . .
47(4) . . .
60(4) . . .
48(4) . . .
53(4) . . .
60(4) . . .
56(4) . . .
55(4) . . .
49(4) . . .
48(4) . . .
64(4) . . .
63(4) . . .
62(4) . . .
57(4) . . .
51(4) . . .
65(4) . . .
58(4) . . .
71(4) . . .
57(4) . . .
49(4) . . .
53(4) . . .
59(4) . . .
60(4) . . .
59(4) . . .
58(4) . . .
63(4) . . .
61(4) . . .
57(4) . . .
50(4) . . .
60(4) . . .
55(4) . . .
46(4) . . .
56(4) . . .
60(4) . . .
50(4) . . .
49(4) . . .
45(4) . . .
55(4) . . .
55(4) . . .
59(4) . . .
63(4) . . .
60(4) . . .
67(4) . . .
55(4) . . .
54(4) . . .
54(4) . . .
42.8(35) . . .
54(4) . . .
53(4) . . .
60(4) . . .
61(4) . . .
46(4) . . .
53(4) . . .
64(4) . . .
54(4) . . .
45.1(35) . . .
53(4) . . .
59(4) . . .
57(4) . . .
51(4) . . .
54(4) . . .
59(4) . . .
54(4) . . .
52(4) . . .
57(4) . . .
55(4) . . .
58(4) . . .
51(4) . . .
50(4) . . .
54(4) . . .
51(4) . . .
51(4) . . .
67(5) . . .
57(4) . . .
55(4) . . .
51(4) . . .
65(4) . . .
53(4) . . .
59(4) . . .
65(4) . . .
57(4) . . .
64(4) . . .
66(5) . . .
49(4) . . .
50(4) . . .
56(4) . . .
54(4) . . .
48(4) . . .
48(4) . . .
58(4) . . .
59(4) . . .
64(4) . . .
57(4) . . .
54(4) . . .
50(4) . . .
61(4) . . .
59(4) . . .
66(5) . . .
50(4) . . .
54(4) . . .
63(4) . . .
60(4) . . .
63(4) . . .
58(4) . . .
61(4) . . .
64(4) . . .
61(4) . . .
50(4) . . .
56(4) . . .
59(4) . . .
51(4) . . .
62(5) . . .
53(4) . . .
58(4) . . .
52(4) . . .
60(4) . . .
60(4) . . .
50(4) . . .
49(4) . . .
59(4) . . .
46(4) . . .
58(4) . . .
51(4) . . .
48(4) . . .
56(4) . . .
58(4) . . .
58(4) . . .
49(4) . . .
45.6(34) . . .
61(4) . . .
58(4) . . .
60(4) . . .
54(4) . . .
49(4) . . .
55(4) . . .
60(4) . . .
56(4) . . .
57(4) . . .
59(4) . . .
56(4) . . .
61(4) . . .
49(4) . . .
52(4) . . .
64(4) . . .
46(4) . . .
47(4) . . .
54(4) . . .
54(4) . . .
51(4) . . .
58(4) . . .
67(5) . . .
58(4) . . .
64(4) . . .
65(4) . . .
56(4) . . .
59(4) . . .
51(4) . . .
48(4) . . .
58(4) . . .
57(4) . . .
54(4) . . .
53(4) . . .
48(4) . . .
58(4) . . .
60(4) . . .
56(4) . . .
55(4) . . .
63(4) . . .
55(4) . . .
52(4) . . .
59(4) . . .
56(4) . . .
61(4) . . .
46.2(35) . . .
54(4) . . .
61(5) . . .
54(4) . . .
48(4) . . .
59(4) . . .
59(4) . . .
62(4) . . .
65(4) . . .
61(4) . . .
59(4) . . .
60(4) . . .
60(4) . . .
53(4) . . .
57(4) . . .
66(4) . . .
55(4) . . .
51(4) . . .
54(4) . . .
59(4) . . .
66(4) . . .
58(4) . . .
54(4) . . .
47(4) . . .
51(4) . . .
57(4) . . .
60(4) . . .
67(4) . . .
52(4) . . .
52(4) . . .
56(4) . . .
53(4) . . .
53(4) . . .
50(4) . . .
46(4) . . .
52(4) . . .
55(4) . . .
57(4) . . .
63(4) . . .
52(4) . . .
68(4) . . .
60(4) . . .
55(4) . . .
55(4) . . .
59(4) . . .
56(4) . . .
60(4) . . .
58(4) . . .
59(4) . . .
68(4) . . .
53(4) . . .
67(5) . . .
61(4) . . .
54(4) . . .
57(4) . . .
66(4) . . .
65(4) . . .
57(4) . . .
51(4) . . .
55(4) . . .
55(4) . . .
60(4) . . .
67(4) . . .
53(4) . . .
58(4) . . .
51(4) . . .
59(4) . . .
55(4) . . .
53(4) . . .
55(4) . . .
51(4) . . .
61(4) . . .
67(4) . . .
58(4) . . .
53(4) . . .
54(4) . . .
61(4) . . .
51(4) . . .
55(4) . . .
65(4) . . .
59(4) . . .
51(4) . . .
55(4) . . .
51(4) . . .
48(4) . . .
57(4) . . .
56(4) . . .
59(4) . . .
71(4) . . .
48(4) . . .
57(4) . . .
63(4) . . .
60(4) . . .
44.2(35) . . .
55(4) . . .
50(4) . . .
51(4) . . .
61(4) . . .
61(4) . . .
55(4) . . .
53(4) . . .
58(4) . . .
60(4) . . .
54(4) . . .
66(4) . . .
59(4) . . .
64(4) . . .
48(4) . . .
57(4) . . .
62(4) . . .
59(4) . . .
64(4) . . .
54(4) . . .
65(4) . . .
52(4) . . .
59(4) . . .
52(4) . . .
54(4) . . .
59(4) . . .
51(4) . . .
45(4) . . .
40.7(34) . . .
56(4) . . .
63(4) . . .
67(4) . . .
67(4) . . .
63(4) . . .
48(4) . . .
55(4) . . .
61(4) . . .
56(4) . . .
56(4) . . .
61(4) . . .
59(4) . . .
58(4) . . .
56(4) . . .
53(4) . . .
65(4) . . .
55(4) . . .
64(5) . . .
67(5) . . .
53(4) . . .
52(4) . . .
49(4) . . .
55(4) . . .
63(4) . . .
55(4) . . .
54(4) . . .
56(4) . . .
68(5) . . .
55(4) . . .
57(4) . . .
56(4) . . .
59(4) . . .
70(5) . . .
54(4) . . .
54(4) . . .
63(4) . . .
57(4) . . .
55(4) . . .
61(4) . . .
54(4) . . .
51(4) . . .
53(4) . . .
61(4) . . .
58(4) . . .
63(4) . . .
49(4) . . .
52(4) . . .
47(4) . . .
51(4) . . .
54(4) . . .
57(4) . . .
51(4) . . .
57(4) . . .
49(4) . . .
58(4) . . .
52(4) . . .
70(4) . . .
60(4) . . .
54(4) . . .
42.3(34) . . .
53(4) . . .
60(4) . . .
44.6(34) . . .
57(4) . . .
56(4) . . .
63(5) . . .
57(4) . . .
51(4) . . .
55(4) . . .
53(4) . . .
48(4) . . .
64(5) . . .
51(4) . . .
48(4) . . .
53(4) . . .
47(4) . . .
54(4) . . .
51(4) . . .
65(4) . . .
57(4) . . .
53(4) . . .
59(4) . . .
55(4) . . .
53(4) . . .
42.4(34) . . .
53(4) . . .
62(4) . . .
60(4) . . .
49(4) . . .
58(4) . . .
53(4) . . .
44.7(34) . . .
51(4) . . .
54(4) . . .
62(4) . . .
56(4) . . .
57(4) . . .
52(4) . . .
44.6(35) . . .
54(4) . . .
64(4) . . .
64(4) . . .
51(4) . . .
55(4) . . .
50(4) . . .
66(5) . . .
51(4) . . .
57(4) . . .
60(4) . . .
56(4) . . .
60(4) . . .
67(4) . . .
62(4) . . .
56(4) . . .
60(4) . . .
63(4) . . .
56(4) . . .
55(4) . . .
68(4) . . .
53(4) . . .
59(4) . . .
76(5) . . .
59(4) . . .
59(4) . . .
56(4) . . .
62(4) . . .
52(4) . . .
63(4) . . .
62(4) . . .
58(4) . . .
62(4) . . .
60(4) . . .
64(4) . . .
58(4) . . .
61(4) . . .
56(4) . . .
52(4) . . .
59(4) . . .
60(4) . . .
62(4) . . .
58(4) . . .
63(4) . . .
60(4) . . .
58(4) . . .
64(4) . . .
64(4) . . .
57(4) . . .
63(4) . . .
64(4) . . .
59(4) . . .
55(4) . . .
57(4) . . .
60(4) . . .
68(4) . . .
61(4) . . .
66(5) . . .
59(4) . . .
56(4) . . .
58(4) . . .
65(4) . . .
59(4) . . .
54(4) . . .
63(4) . . .
61(4) . . .
60(4) . . .
51(4) . . .
50(4) . . .
57(4) . . .
58(4) . . .
52(4) . . .
60(4) . . .
60(4) . . .
53(4) . . .
58(4) . . .
59(4) . . .
58(4) . . .
61(4) . . .
57(4) . . .
54(4) . . .
50(4) . . .
54(4) . . .
69(4) . . .
53(4) . . .
53(4) . . .
62(4) . . .
55(4) . . .
55(4) . . .
55(4) . . .
56(4) . . .
55(4) . . .
52(4) . . .
59(4) . . .
62(4) . . .
68(5) . . .
50(4) . . .
58(4) . . .
58(4) . . .
67(4) . . .
53(4) . . .
55(4) . . .
61(4) . . .
52(4) . . .
60(4) . . .
51(4) . . .
55(4) . . .
49(4) . . .
47(4) . . .
49(4) . . .
53(4) . . .
61(4) . . .
53(4) . . .
61(4) . . .
57(4) . . .
63(4) . . .
55(4) . . .
61(4) . . .
64(4) . . .
64(4) . . .
50(4) . . .
57(4) . . .
48(4) . . .
51(4) . . .
52(4) . . .
51(4) . . .
56(4) . . .
50(4) . . .
59(4) . . .
58(4) . . .
63(5) . . .
56(4) . . .
57(4) . . .
66(4) . . .
56(4) . . .
57(4) . . .
61(4) . . .
51(4) . . .
53(4) . . .
41.6(34) . . .
63(5) . . .
61(4) . . .
59(4) . . .
55(4) . . .
59(4) . . .
58(4) . . .
58(4) . . .
54(4) . . .
61(4) . . .
59(4) . . .
62(4) . . .
48(4) . . .
54(4) . . .
59(4) . . .
52(4) . . .
61(4) . . .
59(4) . . .
53(4) . . .
66(4) . . .
67(4) . . .
55(4) . . .
55(4) . . .
64(4) . . .
63(4) . . .
56(4) . . .
54(4) . . .
56(4) . . .
52(4) . . .
65(4) . . .
49(4) . . .
64(4) . . .
63(4) . . .
62(4) . . .
60(4) . . .
47(4) . . .
51(4) . . .
53(4) . . .
51(4) . . .
62(4) . . .
53(4) . . .
61(4) . . .
66(4) . . .
53(4) . . .
55(4) . . .
61(4) . . .
49(4) . . .
46(4) . . .
54(4) . . .
63(5) . . .
47(4) . . .
56(4) . . .
49(4) . . .
38.7(32) . . .
62(4) . . .
57(4) . . .
53(4) . . .
64(4) . . .
57(4) . . .
51(4) . . .
57(4) . . .
56(4) . . .
63(4) . . .
52(4) . . .
58(4) . . .
47(4) . . .
50(4) . . .
71(4) . . .
55(4) . . .
65(5) . . .
55(4) . . .
54(4) . . .
58(4) . . .
54(4) . . .
62(4) . . .
61(4) . . .
55(4) . . .
55(4) . . .
52(4) . . .
48(4) . . .
60(4) . . .
59(4) . . .
60(4) . . .
53(4) . . .
53(4) . . .
49(4) . . .
59(4) . . .
63(4) . . .
58(4) . . .
60(4) . . .
59(4) . . .
58(4) . . .
58(4) . . .
67(4) . . .
62(4) . . .
43.8(35) . . .
56(4) . . .
59(4) . . .
47(4) . . .
54(4) . . .
50(4) . . .
56(4) . . .
60(4) . . .
53(4) . . .
62(4) . . .
61(4) . . .
49(4) . . .
57(4) . . .
56(4) . . .
63(4) . . .
53(4) . . .
52(4) . . .
50(4) . . .
67(5) . . .
52(4) . . .
63(4) . . .
53(4) . . .
53(4) . . .
53(4) . . .
50(4) . . .
61(4) . . .
56(4) . . .
49(4) . . .
53(4) . . .
51(4) . . .
46.0(35) . . .
62(4) . . .
43.0(35) . . .
50(4) . . .
50(4) . . .
53(4) . . .
53(4) . . .
46(4) . . .
57(4) . . .
66(4) . . .
56(4) . . .
55(4) . . .
41(4) . . .
59(4) . . .
58(4) . . .
50(4) . . .
63(4) . . .
51(4) . . .
59(4) . . .
60(4) . . .
55(4) . . .
56(4) . . .
56(4) . . .
55(4) . . .
64(5) . . .
58(4) . . .
50(4) . . .
48(4) . . .
54(4) . . .
62(4) . . .
67(4) . . .
60(4) . . .
54(4) . . .
62(4) . . .
66(4) . . .
59(4) . . .
55(4) . . .
54(4) . . .
51(4) . . .
52(4) . . .
49(4) . . .
61(4) . . .
51(4) . . .
54(4) . . .
56(4) . . .
42.1(34) . . .
52(4) . . .
50(4) . . .
64(5) . . .
62(4) . . .
42.2(34) . . .
52(4) . . .
65(4) . . .
64(4) . . .
60(4) . . .
51(4) . . .
59(4) . . .
55(4) . . .
52(4) . . .
55(4) . . .
49(4) . . .
49(4) . . .
60(4) . . .
67(4) . . .
57(4) . . .
54(4) . . .
58(4) . . .
44(4) . . .
47(4) . . .
52(4) . . .
48(4) . . .
56(4) . . .
47(4) . . .
55(4) . . .
64(4) . . .
58(4) . . .
56(4) . . .
58(4) . . .
65(4) . . .
60(4) . . .
63(4) . . .
63(4) . . .
51(4) . . .
51(4) . . .
62(4) . . .
58(4) . . .
51(4) . . .
60(4) . . .
48(4) . . .
54(4) . . .
59(4) . . .
58(4) . . .
61(4) . . .
51(4) . . .
53(4) . . .
50(4) . . .
49(4) . . .
57(4) . . .
65(4) . . .
46(4) . . .
55(4) . . .
49(4) . . .
43(4) . . .
46(4) . . .
47(4) . . .
50(4) . . .
48(4) . . .
63(4) . . .
52(4) . . .
43.3(34) . . .
49(4) . . .
54(4) . . .
49(4) . . .
56(4) . . .
61(4) . . .
58(4) . . .
51(4) . . .
54(4) . . .
52(4) . . .
57(4) . . .
63(4) . . .
65(5) . . .
63(4) . . .
56(4) . . .
65(4) . . .
50(4) . . .
57(4) . . .
54(4) . . .
49(4) . . .
54(4) . . .
52(4) . . .
49(4) . . .
53(4) . . .
48(4) . . .
51(4) . . .
67(4) . . .
59(4) . . .
53(4) . . .
61(4) . . .
66(4) . . .
46(4) . . .
59(4) . . .
63(4) . . .
62(4) . . .
59(4) . . .
67(5) . . .
57(4) . . .
62(4) . . .
57(4) . . .
60(4) . . .
55(4) . . .
56(4) . . .
57(4) . . .
59(4) . . .
64(4) . . .
53(4) . . .
70(4) . . .
65(4) . . .
56(4) . . .
56(4) . . .
56(4) . . .
49(4) . . .
58(4) . . .
50(4) . . .
48(4) . . .
53(4) . . .
69(4) . . .
59(4) . . .
51(4) . . .
56(4) . . .
54(4) . . .
54(4) . . .
59(4) . . .
53(4) . . .
60(4) . . .
53(4) . . .
69(4) . . .
57(4) . . .
57(4) . . .
52(4) . . .
47(4) . . .
52(4) . . .
60(4) . . .
55(4) . . .
51(4) . . .
54(4) . . .
52(4) . . .
58(4) . . .
51(4) . . .
56(4) . . .
54(4) . . .
73(5) . . .
60(4) . . .
51(4) . . .
65(4) . . .
52(4) . . .
58(4) . . .
62(4) . . .
52(4) . . .
72(5) . . .
58(4) . . .
54(4) . . .
62(4) . . .
53(4) . . .
52(4) . . .
64(4) . . .
62(4) . . .
60(4) . . .
56(4) . . .
59(4) . . .
52(4) . . .
52(4) . . .
58(4) . . .
48(4) . . .
54(4) . . .
68(4) . . .
55(4) . . .
53(4) . . .
50(4) . . .
56(4) . . .
57(4) . . .
59(4) . . .
54(4) . . .
63(4) . . .
55(4) . . .
59(4) . . .
67(4) . . .
46.4(35) . . .
54(4) . . .
57(4) . . .
53(4) . . .
66(4) . . .
72(5) . . .
60(4) . . .
51(4) . . .
64(4) . . .
48(4) . . .
55(4) . . .
61(4) . . .
56(4) . . .
56(4) . . .
54(4) . . .
56(4) . . .
54(4) . . .
42.4(33) . . .
53(4) . . .
50(4) . . .
57(4) . . .
50(4) . . .
56(4) . . .
58(4) . . .
55(4) . . .
64(4) . . .
57(4) . . .
60(4) . . .
60(4) . . .
53(4) . . .
51(4) . . .
58(4) . . .
59(4) . . .
57(4) . . .
51(4) . . .
45(4) . . .
54(4) . . .
68(5) . . .
63(4) . . .
67(4) . . .
53(4) . . .
61(4) . . .
59(4) . . .
54(4) . . .
59(4) . . .
51(4) . . .
58(5) . . .
51(4) . . .
58(4) . . .
63(4) . . .
62(4) . . .
63(4) . . .
54(4) . . .
67(4) . . .
62(4) . . .
59(4) . . .
50(4) . . .
45(4) . . .
47(4) . . .
61(4) . . .
63(4) . . .
55(4) . . .
53(4) . . .
53(4) . . .
60(4) . . .
48(4) . . .
55(4) . . .
51(4) . . .
52(4) . . .
55(4) . . .
53(4) . . .
50(4) . . .
53(4) . . .
66(4) . . .
57(4) . . .
53(4) . . .
62(4) . . .
59(4) . . .
60(4) . . .
59(4) . . .
66(5) . . .
50(4) . . .
68(4) . . .
52(4) . . .
55(4) . . .
53(4) . . .
60(4) . . .
59(4) . . .
57(4) . . .
58(4) . . .
54(4) . . .
50(4) . . .
61(4) . . .
49(4) . . .
58(4) . . .
54(4) . . .
46(4) . . .
45(4) . . .
52(4) . . .
50(4) . . .
56(4) . . .
54(4) . . .
52(4) . . .
59(4) . . .
60(4) . . .
57(4) . . .
57(4) . . .
49(4) . . .
54(4) . . .
71(4) . . .
59(4) . . .
56(4) . . .
44.3(35) . . .
57(4) . . .
69(5) . . .
68(5) . . .
55(4) . . .
63(4) . . .
52(4) . . .
58(4) . . .
52(4) . . .
61(4) . . .
55(4) . . .
53(4) . . .
61(4) . . .
61(4) . . .
57(4) . . .
52(4) . . .
55(4) . . .
61(4) . . .
56(4) . . .
54(4) . . .
57(4) . . .
53(4) . . .
64(4) . . .
67(5) . . .
55(4) . . .
55(4) . . .
52(4) . . .
53(4) . . .
49(4) . . .
54(4) . . .
56(4) . . .
43.2(35) . . .
56(4) . . .
57(4) . . .
61(4) . . .
53(4) . . .
52(4) . . .
53(4) . . .
49(4) . . .
57(4) . . .
47(4) . . .
59(4) . . .
70(5) . . .
61(4) . . .
54(4) . . .
52(4) . . .
59(4) . . .
54(4) . . .
58(4) . . .
57(4) . . .
54(4) . . .
57(4) . . .
63(4) . . .
59(4) . . .
48(4) . . .
53(4) . . .
56(4) . . .
60(4) . . .
58(4) . . .
55(4) . . .
60(4) . . .
64(4) . . .
60(4) . . .
55(4) . . .
51(4) . . .
60(4) . . .
66(4) . . .
50(4) . . .
60(4) . . .
68(4) . . .
62(4) . . .
60(4) . . .
49(4) . . .
54(4) . . .
52(4) . . .
58(4) . . .
62(4) . . .
67(5) . . .
52(4) . . .
56(4) . . .
59(4) . . .
72(5) . . .
52(4) . . .
61(4) . . .
60(4) . . .
61(4) . . .
70(5) . . .
53(4) . . .
52(4) . . .
54(4) . . .
51(4) . . .
55(4) . . .
57(4) . . .
55(4) . . .
54(4) . . .
52(4) . . .
63(5) . . .
53(4) . . .
59(4) . . .
56(4) . . .
56(4) . . .
47(4) . . .
51(4) . . .
63(4) . . .
62(4) . . .
61(4) . . .
57(4) . . .
53(4) . . .
62(4) . . .
45(4) . . .
51(4) . . .
54(4) . . .
64(4) . . .
52(4) . . .
55(4) . . .
50(4) . . .
56(4) . . .
51(4) . . .
56(4) . . .
54(4) . . .
51(4) . . .
66(4) . . .
61(4) . . .
57(4) . . .
56(4) . . .
51(4) . . .
55(4) . . .
61(4) . . .
50(4) . . .
57(4) . . .
51(4) . . .
58(4) . . .
55(4) . . .
52(4) . . .
53(4) . . .
64(5) . . .
62(4) . . .
58(4) . . .
58(4) . . .
57(4) . . .
56(4) . . .
64(4) . . .
59(4) . . .
59(4) . . .
57(4) . . .
60(4) . . .
51(4) . . .
56(4) . . .
62(4) . . .
62(4) . . .
49(4) . . .
57(4) . . .
60(4) . . .
46.7(35) . . .
57(4) . . .
64(4) . . .
71(4) . . .
52(4) . . .
62(4) . . .
58(4) . . .
54(4) . . .
56(4) . . .
56(4) . . .
53(4) . . .
62(4) . . .
56(4) . . .
46(4) . . .
55(4) . . .
55(4) . . .
58(4) . . .
58(4) . . .
60(4) . . .
68(4) . . .
53(4) . . .
44(4) . . .
54(4) . . .
55(4) . . .
54(4) . . .
62(4) . . .
55(4) . . .
66(4) . . .
61(4) . . .
55(4) . . .
66(4) . . .
61(4) . . .
60(4) . . .
65(4) . . .
63(4) . . .
56(4) . . .
52(4) . . .
56(4) . . .
65(4) . . .
65(4) . . .
62(4) . . .
57(4) . . .
55(4) . . .
67(4) . . .
62(4) . . .
48(4) . . .
51(4) . . .
52(4) . . .
43.5(34) . . .
53(4) . . .
57(4) . . .
52(4) . . .
51(4) . . .
44.1(35) . . .
52(4) . . .
66(4) . . .
56(4) . . .
50(4) . . .
64(4) . . .
63(4) . . .
52(4) . . .
52(4) . . .
54(4) . . .
55(4) . . .
59(4) . . .
54(4) . . .
51(4) . . .
51(4) . . .
51(4) . . .
61(4) . . .
58(4) . . .
56(4) . . .
54(4) . . .
43.8(35) . . .
53(4) . . .
59(4) . . .
57(4) . . .
52(4) . . .
53(4) . . .
60(4) . . .
61(4) . . .
59(4) . . .
47(4) . . .
55(4) . . .
55(4) . . .
46(4) . . .
72(5) . . .
58(4) . . .
54(4) . . .
55(4) . . .
49(4) . . .
64(4) . . .
60(4) . . .
50(4) . . .
60(4) . . .
48(4) . . .
45(4) . . .
62(4) . . .
60(4) . . .
49(4) . . .
59(4) . . .
59(4) . . .
54(4) . . .
61(4) . . .
70(5) . . .
66(4) . . .
45(4) . . .
46(4) . . .
47(4) . . .
62(4) . . .
60(4) . . .
63(4) . . .
46(4) . . .
46(4) . . .
58(4) . . .
60(4) . . .
67(4) . . .
60(4) . . .
55(4) . . .
52(4) . . .
48(4) . . .
62(4) . . .
66(4) . . .
57(4) . . .
49(4) . . .
54(4) . . .
54(4) . . .
48(4) . . .
60(4) . . .
58(4) . . .
55(4) . . .
55(4) . . .
52(4) . . .
48(4) . . .
57(4) . . .
62(4) . . .
77(5) . . .
57(4) . . .
45.1(35) . . .
54(4) . . .
57(4) . . .
60(4) . . .
55(4) . . .
46.5(35) . . .
56(4) . . .
57(4) . . .
59(4) . . .
54(4) . . .
64(4) . . .
66(5) . . .
52(4) . . .
59(4) . . .
55(4) . . .
57(4) . . .
50(4) . . .
61(4) . . .
65(4) . . .
59(4) . . .
55(4) . . .
57(4) . . .
57(4) . . .
57(4) . . .
56(4) . . .
56(4) . . .
61(4) . . .
58(4) . . .
47(4) . . .
49(4) . . .
57(4) . . .
59(4) . . .
53(4) . . .
48(4) . . .
65(5) . . .
64(4) . . .
57(4) . . .
54(4) . . .
49(4) . . .
56(4) . . .
52(4) . . .
56(4) . . .
56(4) . . .
53(4) . . .
53(4) . . .
53(4) . . .
55(4) . . .
57(4) . . .
50(4) . . .
46(4) . . .
49(4) . . .
56(4) . . .
61(4) . . .
57(4) . . .
52(4) . . .
55(4) . . .
56(4) . . .
50(4) . . .
49(4) . . .
55(4) . . .
61(4) . . .
55(4) . . .
53(4) . . .
58(4) . . .
52(4) . . .
67(5) . . .
50(4) . . .
53(4) . . .
44.5(34) . . .
62(5) . . .
50(4) . . .
56(4) . . .
55(4) . . .
57(4) . . .
63(4) . . .
54(4) . . .
51(4) . . .
54(4) . . .
58(4) . . .
66(5) . . .
62(4) . . .
54(4) . . .
59(4) . . .
53(4) . . .
61(4) . . .
63(4) . . .
50(4) . . .
58(4) . . .
57(4) . . .
51(4) . . .
61(4) . . .
64(4) . . .
43.8(34) . . .
53(4) . . .
61(4) . . .
62(4) . . .
55(4) . . .
48(4) . . .
60(4) . . .
54(4) . . .
63(4) . . .
54(4) . . .
59(4) . . .
61(4) . . .
60(4) . . .
60(4) . . .
52(4) . . .
56(4) . . .
61(4) . . .
68(5) . . .
49(4) . . .
56(4) . . .
46(4) . . .
59(4) . . .
61(4) . . .
61(4) . . .
63(4) . . .
64(4) . . .
52(4) . . .
56(4) . . .
53(4) . . .
64(4) . . .
57(4) . . .
57(4) . . .
47(4) . . .
52(4) . . .
47(4) . . .
61(4) . . .
41.2(32) . . .
50(4) . . .
49(4) . . .
62(4) . . .
59(4) . . .
57(4) . . .
56(4) . . .
51(4) . . .
51(4) . . .
56(4) . . .
61(4) . . .
68(4) . . .
56(4) . . .
52(4) . . .
61(4) . . .
53(4) . . .
59(4) . . .
61(4) . . .
55(4) . . .
44(4) . . .
59(4) . . .
48(4) . . .
66(4) . . .
56(4) . . .
51(4) . . .
60(4) . . .
56(4) . . .
51(4) . . .
55(4) . . .
53(4) . . .
48(4) . . .
55(4) . . .
60(4) . . .
52(4) . . .
58(4) . . .
53(4) . . .
54(4) . . .
59(4) . . .
54(4) . . .
68(5) . . .
54(4) . . .
53(4) . . .
44(4) . . .
55(4) . . .
66(4) . . .
58(4) . . .
55(4) . . .
67(4) . . .
53(4) . . .
53(4) . . .
52(4) . . .
54(4) . . .
60(4) . . .
56(4) . . .
65(4) . . .
59(4) . . .
49(4) . . .
61(4) . . .
48(4) . . .
55(4) . . .
50(4) . . .
62(4) . . .
57(4) . . .
54(4) . . .
61(4) . . .
50(4) . . .
58(4) . . .
55(4) . . .
51(4) . . .
52(4) . . .
49(4) . . .
64(4) . . .
62(4) . . .
52(4) . . .
59(4) . . .
61(4) . . .
50(4) . . .
59(4) . . .
51(4) . . .
55(4) . . .
40.4(34) . . .
45.6(35) . . .
55(4) . . .
58(4) . . .
53(4) . . .
58(4) . . .
49(4) . . .
49(4) . . .
46(4) . . .
53(4) . . .
55(4) . . .
55(4) . . .
50(4) . . .
54(4) . . .
50(4) . . .
64(4) . . .
53(4) . . .
59(4) . . .
59(4) . . .
48(4) . . .
57(4) . . .
48(4) . . .
55(4) . . .
59(4) . . .
50(4) . . .
56(4) . . .
57(4) . . .
51(4) . . .
47(4) . . .
44(4) . . .
61(4) . . .
61(4) . . .
61(4) . . .
62(5) . . .
48(4) . . .
52(4) . . .
57(4) . . .
66(4) . . .
64(4) . . .
63(4) . . .
52(4) . . .
55(4) . . .
57(4) . . .
55(4) . . .
51(4) . . .
58(4) . . .
55(4) . . .
50(4) . . .
46(4) . . .
58(4) . . .
60(4) . . .
55(4) . . .
58(4) . . .
55(4) . . .
55(4) . . .
54(4) . . .
51(4) . . .
51(4) . . .
67(4) . . .
70(5) . . .
63(4) . . .
66(4) . . .
56(4) . . .
62(4) . . .
61(4) . . .
60(4) . . .
60(4) . . .
51(4) . . .
51(4) . . .
48(4) . . .
57(4) . . .
58(4) . . .
57(4) . . .
62(4) . . .
56(4) . . .
59(4) . . .
55(4) . . .
59(4) . . .
60(4) . . .
54(4) . . .
60(4) . . .
68(4) . . .
52(4) . . .
58(4) . . .
61(4) . . .
48(4) . . .
52(4) . . .
57(4) . . .
46(4) . . .
51(4) . . .
53(4) . . .
40.2(33) . . .
50(4) . . .
56(4) . . .
63(4) . . .
53(4) . . .
62(4) . . .
51(4) . . .
47(4) . . .
51(4) . . .
55(4) . . .
58(4) . . .
55(4) . . .
56(4) . . .
57(4) . . .
51(4) . . .
55(4) . . .
51(4) . . .
59(4) . . .
63(4) . . .
55(4) . . .
56(4) . . .
50(4) . . .
48(4) . . .
51(4) . . .
57(4) . . .
56(4) . . .
49(4) . . .
55(4) . . .
50(4) . . .
53(4) . . .
50(4) . . .
52(4) . . .
44(4) . . .
55(4) . . .
53(4) . . .
51(4) . . .
54(4) . . .
56(4) . . .
54(4) . . .
54(4) . . .
56(4) . . .
51(4) . . .
59(4) . . .
59(4) . . .
57(4) . . .
57(4) . . .
65(4) . . .
59(4) . . .
53(4) . . .
57(4) . . .
62(4) . . .
60(4) . . .
58(4) . . .
62(4) . . .
60(4) . . .
56(4) . . .
56(4) . . .
57(4) . . .
58(4) . . .
40.9(34) . . .
59(4) . . .
53(4) . . .
56(4) . . .
50(4) . . .
66(5) . . .
61(4) . . .
54(4) . . .
52(4) . . .
61(4) . . .
55(4) . . .
58(4) . . .
60(4) . . .
48(4) . . .
51(4) . . .
53(4) . . .
52(4) . . .
58(4) . . .
59(4) . . .
54(4) . . .
58(4) . . .
59(4) . . .
64(4) . . .
56(4) . . .
56(4) . . .
59(4) . . .
57(4) . . .
48(4) . . .
54(4) . . .
56(4) . . .
58(4) . . .
55(4) . . .
52(4) . . .
54(4) . . .
60(4) . . .
50(4) . . .
54(4) . . .
57(4) . . .
51(4) . . .
56(4) . . .
56(4) . . .
58(4) . . .
62(4) . . .
56(4) . . .
58(4) . . .
57(4) . . .
58(4) . . .
49(4) . . .
51(4) . . .
68(5) . . .
56(4) . . .
55(4) . . .
54(4) . . .
53(4) . . .
61(4) . . .
59(4) . . .
55(4) . . .
52(4) . . .
54(4) . . .
52(4) . . .
51(4) . . .
54(4) . . .
57(4) . . .
49(4) . . .
54(4) . . .
54(4) . . .
57(4) . . .
60(4) . . .
52(4) . . .
47(4) . . .
54(4) . . .
49(4) . . .
56(4) . . .
49(4) . . .
54(4) . . .
49(4) . . .
57(4) . . .
59(4) . . .
54(4) . . .
53(4) . . .
68(4) . . .
53(4) . . .
48(4) . . .
49(4) . . .
54(4) . . .
53(4) . . .
53(4) . . .
63(4) . . .
50(4) . . .
66(5) . . .
54(4) . . .
53(4) . . .
52(4) . . .
36.4(31) . . .
50(4) . . .
58(4) . . .
57(4) . . .
67(4) . . .
64(4) . . .
56(4) . . .
50(4) . . .
66(4) . . .
61(4) . . .
58(4) . . .
63(4) . . .
49(4) . . .
50(4) . . .
52(4) . . .
54(4) . . .
59(4) . . .
53(4) . . .
61(4) . . .
54(4) . . .
61(4) . . .
49(4) . . .
61(4) . . .
55(4) . . .
56(4) . . .
47(4) . . .
45(4) . . .
53(4) . . .
61(4) . . .
60(4) . . .
54(4) . . .
46(4) . . .
54(4) . . .
62(4) . . .
59(4) . . .
54(4) . . .
54(4) . . .
60(4) . . .
59(4) . . .
50(4) . . .
57(4) . . .
57(4) . . .
48(4) . . .
56(4) . . .
67(4) . . .
66(5) . . .
57(4) . . .
64(4) . . .
52(4) . . .
54(4) . . .
51(4) . . .
51(4) . . .
62(4) . . .
60(4) . . .
61(4) . . .
57(4) . . .
60(4) . . .
72(4) . . .
68(4) . . .
57(4) . . .
55(4) . . .
57(4) . . .
49(4) . . .
49(4) . . .
43.0(34) . . .
61(4) . . .
46(4) . . .
58(4) . . .
60(4) . . .
55(4) . . .
54(4) . . .
56(4) . . .
57(4) . . .
56(4) . . .
59(4) . . .
60(4) . . .
43.1(34) . . .
49(4) . . .
53(4) . . .
69(5) . . .
57(4) . . .
58(4) . . .
51(4) . . .
54(4) . . .
54(4) . . .
54(4) . . .
56(4) . . .
62(4) . . .
77(5) . . .
55(4) . . .
59(4) . . .
60(4) . . .
49(4) . . .
48(4) . . .
47(4) . . .
56(4) . . .
50(4) . . .
54(4) . . .
52(4) . . .
63(5) . . .
56(4) . . .
58(4) . . .
63(4) . . .
62(4) . . .
62(4) . . .
56(4) . . .
55(4) . . .
57(4) . . .
64(4) . . .
56(4) . . .
59(4) . . .
50(4) . . .
65(4) . . .
56(4) . . .
64(5) . . .
54(4) . . .
53(4) . . .
46(4) . . .
57(4) . . .
57(4) . . .
55(4) . . .
62(4) . . .
56(4) . . .
52(4) . . .
56(4) . . .
55(4) . . .
58(4) . . .
56(4) . . .
49(4) . . .
52(4) . . .
51(4) . . .
48(4) . . .
53(4) . . .
51(4) . . .
55(4) . . .
54(4) . . .
60(4) . . .
55(4) . . .
62(5) . . .
43.5(35) . . .
53(4) . . .
62(4) . . .
53(4) . . .
46(4) . . .
53(4) . . .
51(4) . . .
60(4) . . .
53(4) . . .
52(4) . . .
53(4) . . .
56(4) . . .
57(4) . . .
58(4) . . .
60(4) . . .
54(4) . . .
60(4) . . .
63(4) . . .
62(4) . . .
60(4) . . .
56(4) . . .
57(4) . . .
58(4) . . .
59(4) . . .
47(4) . . .
64(4) . . .
63(4) . . .
56(4) . . .
56(4) . . .
58(4) . . .
63(4) . . .
47(4) . . .
63(4) . . .
54(4) . . .
57(4) . . .
51(4) . . .
49(4) . . .
65(4) . . .
61(4) . . .
56(4) . . .
56(4) . . .
57(4) . . .
50(4) . . .
59(4) . . .
52(4) . . .
48(4) . . .
60(4) . . .
60(4) . . .
53(4) . . .
65(4) . . .
52(4) . . .
63(4) . . .
67(4) . . .
51(4) . . .
51(4) . . .
52(4) . . .
49(4) . . .
46(4) . . .
50(4) . . .
46(4) . . .
56(4) . . .
56(4) . . .
54(4) . . .
61(4) . . .
55(4) . . .
51(4) . . .
56(4) . . .
64(4) . . .
61(5) . . .
55(4) . . .
53(4) . . .
62(4) . . .
62(4) . . .
52(4) . . .
59(4) . . .
53(4) . . .
61(4) . . .
49(4) . . .
57(4) . . .
54(4) . . .
60(4) . . .
52(4) . . .
52(4) . . .
56(4) . . .
52(4) . . .
40.7(34) . . .
43.7(35) . . .
62(4) . . .
50(4) . . .
68(4) . . .
65(4) . . .
61(4) . . .
49(4) . . .
55(4) . . .
53(4) . . .
52(4) . . .
63(4) . . .
55(4) . . .
56(4) . . .
54(4) . . .
57(4) . . .
51(4) . . .
49(4) . . .
56(4) . . .
60(4) . . .
62(4) . . .
62(4) . . .
56(4) . . .
58(4) . . .
51(4) . . .
47(4) . . .
65(5) . . .
60(4) . . .
57(4) . . .
53(4) . . .
55(4) . . .
54(4) . . .
60(5) . . .
55(4) . . .
48(4) . . .
52(4) . . .
45(4) . . .
56(4) . . .
49(4) . . .
58(4) . . .
49(4) . . .
46(4) . . .
49(4) . . .
44(4) . . .
54(4) . . .
50(4) . . .
63(4) . . .
60(4) . . .
53(4) . . .
62(4) . . .
64(4) . . .
63(4) . . .
57(4) . . .
54(4) . . .
49(4) . . .
57(4) . . .
61(4) . . .
57(4) . . .
54(4) . . .
66(4) . . .
55(4) . . .
56(4) . . .
55(4) . . .
55(4) . . .
50(4) . . .
53(4) . . .
48(4) . . .
56(4) . . .
59(4) . . .
62(4) . . .
56(4) . . .
64(4) . . .
43.8(34) . . .
63(4) . . .
56(4) . . .
53(4) . . .
57(4) . . .
49(4) . . .
54(4) . . .
55(4) . . .
58(4) . . .
59(4) . . .
56(4) . . .
58(4) . . .
50(4) . . .
59(4) . . .
61(5) . . .
56(4) . . .
61(4) . . .
54(4) . . .
56(4) . . .
53(4) . . .
58(4) . . .
48(4) . . .
60(4) . . .
56(4) . . .
57(4) . . .
51(4) . . .
56(4) . . .
54(4) . . .
47(4) . . .
42.0(34) . . .
52(4) . . .
57(4) . . .
51(4) . . .
51(4) . . .
56(4) . . .
51(4) . . .
48(4) . . .
55(4) . . .
55(4) . . .
55(4) . . .
60(4) . . .
54(4) . . .
49(4) . . .
52(4) . . .
66(5) . . .
49(4) . . .
60(4) . . .
59(4) . . .
54(4) . . .
54(4) . . .
51(4) . . .
62(4) . . .
57(4) . . .
57(4) . . .
53(4) . . .
46(4) . . .
49(4) . . .
50(4) . . .
60(4) . . .
56(4) . . .
52(4) . . .
52(4) . . .
62(4) . . .
50(4) . . .
55(4) . . .
48(4) . . .
52(4) . . .
50(4) . . .
53(4) . . .
59(4) . . .
49(4) . . .
58(4) . . .
49(4) . . .
52(4) . . .
52(4) . . .
57(4) . . .
69(5) . . .
58(4) . . .
59(4) . . .
67(4) . . .
57(4) . . .
57(4) . . .
60(4) . . .
52(4) . . .
56(4) . . .
64(4) . . .
62(4) . . .
52(4) . . .
51(4) . . .
52(4) . . .
53(4) . . .
57(4) . . .
64(4) . . .
59(4) . . .
62(4) . . .
61(4) . . .
45(4) . . .
55(4) . . .
54(4) . . .
58(4) . . .
58(4) . . .
53(4) . . .
56(4) . . .
56(4) . . .
60(4) . . .
47(4) . . .
70(5) . . .
62(4) . . .
57(4) . . .
53(4) . . .
52(4) . . .
62(4) . . .
58(4) . . .
64(4) . . .
54(4) . . .
58(4) . . .
58(4) . . .
51(4) . . .
60(4) . . .
48(4) . . .
54(4) . . .
45(4) . . .
59(4) . . .
68(5) . . .
47(4) . . .
57(4) . . .
64(4) . . .
49(4) . . .
41.5(34) . . .
57(4) . . .
60(4) . . .
55(4) . . .
58(4) . . .
52(4) . . .
58(4) . . .
49(4) . . .
47(4) . . .
45(4) . . .
50(4) . . .
45.7(35) . . .
54(4) . . .
60(4) . . .
55(4) . . .
51(4) . . .
52(4) . . .
58(4) . . .
51(4) . . .
61(4) . . .
53(4) . . .
49(4) . . .
61(4) . . .
65(4) . . .
62(4) . . .
60(4) . . .
67(4) . . .
54(4) . . .
56(4) . . .
52(4) . . .
42.1(34) . . .
62(4) . . .
49(4) . . .
65(5) . . .
61(4) . . .
47(4) . . .
49(4) . . .
48(4) . . .
51(4) . . .
51(4) . . .
71(4) . . .
58(4) . . .
62(4) . . .
63(4) . . .
53(4) . . .
58(4) . . .
58(4) . . .
51(4) . . .
45.5(34) . . .
53(4) . . .
61(4) . . .
59(4) . . .
61(4) . . .
63(4) . . .
55(4) . . .
59(4) . . .
61(4) . . .
58(4) . . .
60(4) . . .
54(4) . . .
40.7(34) . . .
53(4) . . .
53(4) . . .
51(4) . . .
50(4) . . .
60(4) . . .
55(4) . . .
48(4) . . .
53(4) . . .
61(4) . . .
49(4) . . .
56(4) . . .
60(4) . . .
64(4) . . .
60(4) . . .
60(4) . . .
52(4) . . .
47(4) . . .
56(4) . . .
57(4) . . .
58(4) . . .
56(4) . . .
59(4) . . .
49(4) . . .
49(4) . . .
55(4) . . .
56(4) . . .
47(4) . . .
55(4) . . .
52(4) . . .
64(4) . . .
68(4) . . .
58(4) . . .
44(4) . . .
51(4) . . .
56(4) . . .
44.2(34) . . .
51(4) . . .
48(4) . . .
46(4) . . .
49(4) . . .
62(4) . . .
55(4) . . .
57(4) . . .
54(4) . . .
57(4) . . .
62(4) . . .
61(4) . . .
52(4) . . .
59(4) . . .
53(4) . . .
48(4) . . .
47(4) . . .
52(4) . . .
55(4) . . .
53(4) . . .
51(4) . . .
48(4) . . .
51(4) . . .
56(4) . . .
57(4) . . .
57(4) . . .
49(4) . . .
51(4) . . .
48(4) . . .
47(4) . . .
56(4) . . .
59(4) . . .
62(4) . . .
53(4) . . .
53(4) . . .
62(5) . . .
51(4) . . .
53(4) . . .
55(4) . . .
56(4) . . .
58(4) . . .
58(4) . . .
49(4) . . .
57(4) . . .
56(4) . . .
63(5) . . .
48(4) . . .
54(4) . . .
44.6(35) . . .
61(4) . . .
49(4) . . .
57(4) . . .
52(4) . . .
59(4) . . .
56(4) . . .
56(4) . . .
57(4) . . .
59(4) . . .
58(4) . . .
53(4) . . .
53(4) . . .
60(4) . . .
73(4) . . .
68(4) . . .
55(4) . . .
47(4) . . .
58(4) . . .
57(4) . . .
58(4) . . .
60(4) . . .
65(4) . . .
53(4) . . .
42.2(34) . . .
54(4) . . .
53(4) . . .
51(4) . . .
62(4) . . .
54(4) . . .
54(4) . . .
61(4) . . .
56(4) . . .
57(4) . . .
49(4) . . .
65(5) . . .
61(4) . . .
59(4) . . .
59(4) . . .
57(4) . . .
50(4) . . .
60(4) . . .
63(4) . . .
54(4) . . .
52(4) . . .
54(4) . . .
58(4) . . .
50(4) . . .
56(4) . . .
50(4) . . .
60(4) . . .
68(5) . . .
50(4) . . .
58(4) . . .
49(4) . . .
61(4) . . .
53(4) . . .
53(4) . . .
59(4) . . .
49(4) . . .
58(4) . . .
55(4) . . .
58(4) . . .
58(4) . . .
59(4) . . .
52(4) . . .
44(4) . . .
55(4) . . .
63(4) . . .
58(4) . . .
62(4) . . .
58(4) . . .
56(4) . . .
54(4) . . .
54(4) . . .
51(4) . . .
68(4) . . .
68(4) . . .
51(4) . . .
46(4) . . .
58(4) . . .
60(5) . . .
59(4) . . .
52(4) . . .
55(4) . . .
58(4) . . .
51(4) . . .
65(4) . . .
63(4) . . .
53(4) . . .
49(4) . . .
51(4) . . .
66(4) . . .
54(4) . . .
64(4) . . .
60(4) . . .
53(4) . . .
47(4) . . .
53(4) . . .
52(4) . . .
61(4) . . .
58(4) . . .
53(4) . . .
51(4) . . .
55(4) . . .
63(4) . . .
57(4) . . .
49(4) . . .
51(4) . . .
59(4) . . .
59(4) . . .
59(4) . . .
52(4) . . .
52(4) . . .
58(4) . . .
61(4) . . .
58(4) . . .
53(4) . . .
65(4) . . .
58(4) . . .
57(4) . . .
59(4) . . .
59(4) . . .
57(4) . . .
58(4) . . .
60(4) . . .
63(4) . . .
43.0(34) . . .
59(4) . . .
65(5) . . .
52(4) . . .
63(4) . . .
57(4) . . .
57(4) . . .
64(5) . . .
58(4) . . .
52(4) . . .
55(4) . . .
49(4) . . .
52(4) . . .
59(4) . . .
56(4) . . .
59(4) . . .
64(4) . . .
51(4) . . .
61(4) . . .
60(4) . . .
48(4) . . .
48(4) . . .
54(4) . . .
60(4) . . .
52(4) . . .
56(4) . . .
61(4) . . .
63(4) . . .
43.1(34) . . .
62(4) . . .
63(4) . . .
58(4) . . .
49(4) . . .
49(4) . . .
67(4) . . .
56(4) . . .
51(4) . . .
56(4) . . .
49(4) . . .
55(4) . . .
59(4) . . .
58(4) . . .
55(4) . . .
67(4) . . .
62(4) . . .
60(4) . . .
42.3(34) . . .
50(4) . . .
52(4) . . .
55(4) . . .
54(4) . . .
56(4) . . .
62(4) . . .
57(4) . . .
53(4) . . .
55(4) . . .
55(4) . . .
69(4) . . .
51(4) . . .
54(4) . . .
54(4) . . .
61(4) . . .
65(4) . . .
51(4) . . .
56(4) . . .
54(4) . . .
55(4) . . .
53(4) . . .
50(4) . . .
57(4) . . .
61(4) . . .
60(4) . . .
62(4) . . .
62(4) . . .
50(4) . . .
51(4) . . .
58(4) . . .
68(4) . . .
52(4) . . .
57(4) . . .
49(4) . . .
57(4) . . .
51(4) . . .
52(4) . . .
55(4) . . .
53(4) . . .
54(4) . . .
57(4) . . .
48(4) . . .
51(4) . . .
48(4) . . .
56(4) . . .
58(4) . . .
63(4) . . .
55(4) . . .
51(4) . . .
58(4) . . .
49(4) . . .
56(4) . . .
60(4) . . .
52(4) . . .
56(4) . . .
53(4) . . .
58(4) . . .
49(4) . . .
54(4) . . .
65(4) . . .
56(4) . . .
63(4) . . .
53(4) . . .
58(4) . . .
53(4) . . .
57(4) . . .
65(4) . . .
58(4) . . .
60(4) . . .
60(4) . . .
50(4) . . .
60(4) . . .
56(4) . . .
52(4) . . .
54(4) . . .
52(4) . . .
52(4) . . .
52(4) . . .
59(4) . . .
49(4) . . .
58(4) . . .
66(5) . . .
57(4) . . .
61(4) . . .
48(4) . . .
59(4) . . .
59(4) . . .
63(4) . . .
63(4) . . .
62(4) . . .
68(4) . . .
50(4) . . .
63(5) . . .
55(4) . . .
57(4) . . .
55(4) . . .
51(4) . . .
54(4) . . .
49(4) . . .
49(4) . . .
52(4) . . .
48(4) . . .
52(4) . . .
71(5) . . .
56(4) . . .
68(4) . . .
49(4) . . .
62(5) . . .
51(4) . . .
53(4) . . .
57(4) . . .
61(4) . . .
59(4) . . .
51(4) . . .
54(4) . . .
56(4) . . .
47(4) . . .
51(4) . . .
52(4) . . .
55(4) . . .
53(4) . . .
51(4) . . .
46(4) . . .
54(4) . . .
57(4) . . .
54(4) . . .
58(4) . . .
55(4) . . .
65(4) . . .
51(4) . . .
60(4) . . .
47(4) . . .
50(4) . . .
42.5(34) . . .
49(4) . . .
50(4) . . .
45.0(33) . . .
56(4) . . .
42.6(34) . . .
50(4) . . .
55(4) . . .
61(4) . . .
58(4) . . .
55(4) . . .
61(4) . . .
53(4) . . .
52(4) . . .
56(4) . . .
57(4) . . .
65(4) . . .
66(5) . . .
47(4) . . .
52(4) . . .
54(4) . . .
65(4) . . .
54(4) . . .
55(4) . . .
50(4) . . .
51(4) . . .
59(4) . . .
55(4) . . .
52(4) . . .
59(4) . . .
53(4) . . .
54(4) . . .
50(4) . . .
55(4) . . .
60(4) . . .
61(4) . . .
55(4) . . .
48(4) . . .
44(4) . . .
53(4) . . .
67(4) . . .
59(4) . . .
54(4) . . .
63(4) . . .
52(4) . . .
52(4) . . .
59(4) . . .
59(4) . . .
57(4) . . .
49(4) . . .
47(4) . . .
57(4) . . .
58(4) . . .
55(4) . . .
62(4) . . .
59(4) . . .
66(4) . . .
47.7(35) . . .
61(4) . . .
56(4) . . .
58(4) . . .
62(4) . . .
53(4) . . .
55(4) . . .
50(4) . . .
59(4) . . .
50(4) . . .
53(4) . . .
56(4) . . .
51(4) . . .
62(4) . . .
57(4) . . .
58(4) . . .
58(4) . . .
59(4) . . .
46(4) . . .
66(4) . . .
54(4) . . .
48(4) . . .
50(4) . . .
55(4) . . .
62(4) . . .
55(4) . . .
47(4) . . .
59(4) . . .
60(4) . . .
40.9(33) . . .
56(4) . . .
56(4) . . .
56(4) . . .
60(4) . . .
59(4) . . .
54(4) . . .
66(5) . . .
66(4) . . .
49(4) . . .
52(4) . . .
49(4) . . .
47(4) . . .
59(4) . . .
54(4) . . .
56(4) . . .
52(4) . . .
67(4) . . .
56(4) . . .
52(4) . . .
60(4) . . .
53(4) . . .
52(4) . . .
60(4) . . .
40.6(32) . . .
50(4) . . .
57(4) . . .
55(4) . . .
52(4) . . .
59(4) . . .
48(4) . . .
55(4) . . .
60(4) . . .
48(4) . . .
63(4) . . .
55(4) . . .
58(4) . . .
61(4) . . .
65(4) . . .
66(4) . . .
48(4) . . .
48(4) . . .
52(4) . . .
53(4) . . .
56(4) . . .
46(4) . . .
65(4) . . .
58(4) . . .
59(4) . . .
57(4) . . .
45(4) . . .
57(4) . . .
63(4) . . .
54(4) . . .
60(4) . . .
51(4) . . .
60(4) . . .
55(4) . . .
50(4) . . .
50(4) . . .
57(4) . . .
55(4) . . .
49(4) . . .
56(4) . . .
53(4) . . .
52(4) . . .
68(4) . . .
54(4) . . .
49(4) . . .
55(4) . . .
56(4) . . .
48(4) . . .
58(4) . . .
56(4) . . .
46(4) . . .
59(4) . . .
42.5(34) . . .
52(4) . . .
52(4) . . .
56(4) . . .
55(4) . . .
53(4) . . .
48(4) . . .
55(4) . . .
63(4) . . .
54(4) . . .
42.0(34) . . .
49(4) . . .
50(4) . . .
53(4) . . .
50(4) . . .
51(4) . . .
49(4) . . .
50(4) . . .
66(5) . . .
51(4) . . .
50(4) . . .
57(4) . . .
52(4) . . .
59(4) . . .
56(4) . . .
49(4) . . .
62(4) . . .
49(4) . . .
52(4) . . .
56(4) . . .
59(4) . . .
61(4) . . .
46(4) . . .
50(4) . . .
60(4) . . .
60(4) . . .
61(4) . . .
53(4) . . .
64(4) . . .
49(4) . . .
49(4) . . .
50(4) . . .
46(4) . . .
47(4) . . .
66(4) . . .
57(4) . . .
54(4) . . .
52(4) . . .
57(4) . . .
59(4) . . .
63(4) . . .
48(4) . . .
59(4) . . .
46(4) . . .
48(4) . . .
50(4) . . .
51(4) . . .
54(4) . . .
58(4) . . .
55(4) . . .
50(4) . . .
51(4) . . .
52(4) . . .
49(4) . . .
59(4) . . .
51(4) . . .
43.5(35) . . .
58(4) . . .
56(4) . . .
60(4) . . .
53(4) . . .
61(4) . . .
53(4) . . .
47(4) . . .
59(4) . . .
64(4) . . .
63(4) . . .
56(4) . . .
54(4) . . .
54(4) . . .
61(4) . . .
44(4) . . .
60(4) . . .
54(4) . . .
48(4) . . .
50(4) . . .
54(4) . . .
54(4) . . .
65(4) . . .
57(4) . . .
49(4) . . .
53(4) . . .
62(4) . . .
47(4) . . .
51(4) . . .
39.2(33) . . .
49(4) . . .
46.5(35) . . .
48(4) . . .
51(4) . . .
50(4) . . .
47(4) . . .
42.3(34) . . .
53(4) . . .
61(4) . . .
51(4) . . .
53(4) . . .
52(4) . . .
48(4) . . .
52(4) . . .
52(4) . . .
49(4) . . .
69(4) . . .
68(4) . . .
55(4) . . .
52(4) . . .
54(4) . . .
51(4) . . .
50(4) . . .
56(4) . . .
51(4) . . .
51(4) . . .
57(4) . . .
54(4) . . .
48(4) . . .
49(4) . . .
41(4) . . .
57(4) . . .
61(4) . . .
54(4) . . .
54(4) . . .
49(4) . . .
54(4) . . .
54(4) . . .
60(4) . . .
57(4) . . .
51(4) . . .
59(4) . . .
47(4) . . .
55(4) . . .
57(4) . . .
50(4) . . .
52(4) . . .
66(4) . . .
58(4) . . .
51(4) . . .
56(4) . . .
46(4) . . .
54(4) . . .
52(4) . . .
52(4) . . .
55(4) . . .
46(4) . . .
56(4) . . .
46(4) . . .
46(4) . . .
44(4) . . .
52(4) . . .
48(4) . . .
49(4) . . .
50(4) . . .
56(4) . . .
61(4) . . .
63(4) . . .
69(5) . . .
58(4) . . .
38.1(32) . . .
53(4) . . .
51(4) . . .
42.9(35) . . .
52(4) . . .
51(4) . . .
51(4) . . .
57(4) . . .
62(4) . . .
61(4) . . .
64(4) . . .
68(4) . . .
64(4) . . .
50(4) . . .
65(5) . . .
53(4) . . .
59(4) . . .
51(4) . . .
63(4) . . .
54(4) . . .
56(4) . . .
54(4) . . .
44(4) . . .
52(4) . . .
57(4) . . .
56(4) . . .
59(4) . . .
55(4) . . .
63(4) . . .
55(4) . . .
54(4) . . .
52(4) . . .
63(4) . . .
61(4) . . .
65(4) . . .
60(4) . . .
50(4) . . .
48(4) . . .
52(4) . . .
50(4) . . .
56(4) . . .
50(4) . . .
56(4) . . .
55(4) . . .
59(4) . . .
50(4) . . .
50(4) . . .
55(4) . . .
55(4) . . .
49(4) . . .
49(4) . . .
57(4) . . .
61(4) . . .
53(4) . . .
57(4) . . .
61(4) . . .
56(4) . . .
62(4) . . .
59(4) . . .
54(4) . . .
55(4) . . .
51(4) . . .
57(4) . . .
64(4) . . .
57(4) . . .
48(4) . . .
48(4) . . .
45.4(35) . . .
58(4) . . .
56(4) . . .
54(4) . . .
54(4) . . .
58(4) . . .
58(4) . . .
67(5) . . .
67(4) . . .
55(4) . . .
45(4) . . .
55(4) . . .
52(4) . . .
49(4) . . .
54(4) . . .
54(4) . . .
47(4) . . .
48(4) . . .
52(4) . . .
57(4) . . .
62(4) . . .
64(4) . . .
61(4) . . .
61(4) . . .
51(4) . . .
56(4) . . .
54(4) . . .
59(4) . . .
64(4) . . .
63(4) . . .
64(5) . . .
63(4) . . .
54(4) . . .
51(4) . . .
62(4) . . .
60(4) . . .
58(4) . . .
58(4) . . .
51(4) . . .
48(4) . . .
53(4) . . .
63(4) . . .
53(4) . . .
57(4) . . .
49(4) . . .
57(5) . . .
53(4) . . .
70(4) . . .
47(4) . . .
48(4) . . .
56(4) . . .
53(4) . . .
53(4) . . .
53(4) . . .
51(4) . . .
53(4) . . .
52(4) . . .
52(4) . . .
50(4) . . .
53(4) . . .
50(4) . . .
52(4) . . .
62(4) . . .
65(4) . . .
56(4) . . .
57(4) . . .
50(4) . . .
49(4) . . .
50(4) . . .
59(4) . . .
62(4) . . .
58(4) . . .
62(4) . . .
50(4) . . .
47(4) . . .
49(4) . . .
59(4) . . .
59(4) . . .
58(4) . . .
57(4) . . .
56(4) . . .
52(4) . . .
50(4) . . .
58(4) . . .
54(4) . . .
55(4) . . .
46(4) . . .
53(4) . . .
55(4) . . .
62(4) . . .
58(4) . . .
55(4) . . .
47(4) . . .
54(4) . . .
53(4) . . .
58(4) . . .
59(4) . . .
65(4) . . .
60(4) . . .
57(4) . . .
55(4) . . .
59(4) . . .
73(4) . . .
65(4) . . .
55(4) . . .
60(4) . . .
61(4) . . .
57(4) . . .
46(4) . . .
50(4) . . .
57(4) . . .
61(4) . . .
59(4) . . .
54(4) . . .
46(4) . . .
60(4) . . .
56(4) . . .
58(4) . . .
55(4) . . .
52(4) . . .
55(4) . . .
52(4) . . .
51(4) . . .
54(4) . . .
52(4) . . .
50(4) . . .
63(4) . . .
53(4) . . .
51(4) . . .
57(4) . . .
49(4) . . .
51(4) . . .
64(4) . . .
57(4) . . .
54(4) . . .
48(4) . . .
50(4) . . .
61(4) . . .
59(4) . . .
45(4) . . .
51(4) . . .
49(4) . . .
56(4) . . .
62(4) . . .
54(4) . . .
48(4) . . .
48(4) . . .
44(4) . . .
55(4) . . .
57(4) . . .
52(4) . . .
47(4) . . .
47(4) . . .
51(4) . . .
55(4) . . .
57(4) . . .
58(4) . . .
49(4) . . .
49(4) . . .
54(4) . . .
48(4) . . .
60(4) . . .
59(4) . . .
55(4) . . .
50(4) . . .
49(4) . . .
47(4) . . .
60(4) . . .
46(4) . . .
55(4) . . .
53(4) . . .
53(4) . . .
48(4) . . .
49(4) . . .
53(4) . . .
46.7(35) . . .
54(4) . . .
51(4) . . .
56(4) . . .
58(4) . . .
57(4) . . .
45.0(35) . . .
63(4) . . .
63(4) . . .
50(4) . . .
53(4) . . .
55(4) . . .
61(4) . . .
58(4) . . .
47(4) . . .
51(4) . . .
64(4) . . .
49(4) . . .
57(4) . . .
64(4) . . .
60(4) . . .
55(4) . . .
56(4) . . .
55(4) . . .
60(4) . . .
62(4) . . .
55(4) . . .
60(4) . . .
59(4) . . .
59(4) . . .
45(4) . . .
59(4) . . .
62(4) . . .
53(4) . . .
56(4) . . .
58(4) . . .
56(4) . . .
55(4) . . .
55(4) . . .
55(4) . . .
59(4) . . .
51(4) . . .
50(4) . . .
42.6(34) . . .
56(4) . . .
55(4) . . .
55(4) . . .
63(4) . . .
53(4) . . .
55(4) . . .
43.4(35) . . .
49(4) . . .
52(4) . . .
43.8(35) . . .
52(4) . . .
62(4) . . .
56(4) . . .
50(4) . . .
54(4) . . .
54(4) . . .
53(4) . . .
67(5) . . .
55(4) . . .
49(4) . . .
60(4) . . .
61(4) . . .
55(4) . . .
53(4) . . .
57(4) . . .
52(4) . . .
56(4) . . .
54(4) . . .
57(4) . . .
59(4) . . .
61(4) . . .
59(4) . . .
57(4) . . .
53(4) . . .
49(4) . . .
51(4) . . .
58(4) . . .
61(4) . . .
64(4) . . .
58(4) . . .
57(4) . . .
56(4) . . .
54(4) . . .
62(4) . . .
52(4) . . .
59(4) . . .
59(4) . . .
50(4) . . .
49(4) . . .
55(4) . . .
61(4) . . .
54(4) . . .
57(4) . . .
45(4) . . .
39.9(33) . . .
41.1(34) . . .
49(4) . . .
50(4) . . .
53(4) . . .
56(4) . . .
55(4) . . .
54(4) . . .
55(4) . . .
47(4) . . .
55(4) . . .
53(4) . . .
59(4) . . .
59(4) . . .
52(4) . . .
59(4) . . .
53(4) . . .
55(4) . . .
54(4) . . .
57(4) . . .
64(4) . . .
67(4) . . .
57(4) . . .
46(4) . . .
50(4) . . .
55(4) . . .
58(4) . . .
52(4) . . .
62(4) . . .
60(4) . . .
46(4) . . .
59(4) . . .
60(4) . . .
57(4) . . .
56(4) . . .
52(4) . . .
54(4) . . .
48(4) . . .
49(4) . . .
59(4) . . .
53(4) . . .
59(4) . . .
60(4) . . .
56(4) . . .
66(4) . . .
52(4) . . .
47(4) . . .
50(4) . . .
49(4) . . .
58(4) . . .
51(4) . . .
52(4) . . .
56(4) . . .
57(4) . . .
55(4) . . .
52(4) . . .
46(4) . . .
48(4) . . .
44.8(35) . . .
46(4) . . .
53(4) . . .
54(4) . . .
50(4) . . .
53(4) . . .
55(4) . . .
59(4) . . .
56(4) . . .
46(4) . . .
49(4) . . .
57(4) . . .
63(4) . . .
56(4) . . .
53(4) . . .
45(4) . . .
59(4) . . .
51(4) . . .
58(4) . . .
64(4) . . .
56(4) . . .
59(4) . . .
48(4) . . .
55(4) . . .
62(4) . . .
51(4) . . .
51(4) . . .
55(4) . . .
56(4) . . .
47(4) . . .
43.8(35) . . .
51(4) . . .
48(4) . . .
52(4) . . .
52(4) . . .
52(4) . . .
55(4) . . .
42.5(34) . . .
58(4) . . .
48(4) . . .
56(4) . . .
58(4) . . .
53(4) . . .
57(4) . . .
59(4) . . .
58(4) . . .
62(4) . . .
52(4) . . .
50(4) . . .
60(4) . . .
51(4) . . .
51(4) . . .
55(4) . . .
53(4) . . .
53(4) . . .
61(4) . . .
55(4) . . .
52(4) . . .
53(4) . . .
56(4) . . .
70(4) . . .
53(4) . . .
44(4) . . .
58(4) . . .
58(4) . . .
63(4) . . .
58(4) . . .
53(4) . . .
57(4) . . .
49(4) . . .
63(4) . . .
58(4) . . .
58(4) . . .
55(4) . . .
58(4) . . .
50(4) . . .
57(4) . . .
60(4) . . .
52(4) . . .
49(4) . . .
59(4) . . .
57(4) . . .
47(4) . . .
57(4) . . .
42.3(34) . . .
55(4) . . .
56(4) . . .
56(4) . . .
50(4) . . .
42.1(34) . . .
60(4) . . .
56(4) . . .
58(4) . . .
48(4) . . .
53(4) . . .
60(4) . . .
53(4) . . .
51(4) . . .
58(4) . . .
58(4) . . .
52(4) . . .
50(4) . . .
49(4) . . .
56(4) . . .
49(4) . . .
59(4) . . .
60(4) . . .
53(4) . . .
60(4) . . .
63(4) . . .
59(4) . . .
62(4) . . .
54(4) . . .
54(4) . . .
53(4) . . .
50(4) . . .
63(5) . . .
60(4) . . .
58(4) . . .
53(4) . . .
46(4) . . .
55(4) . . .
57(4) . . .
59(4) . . .
61(4) . . .
60(4) . . .
55(4) . . .
50(4) . . .
43.6(34) . . .
55(4) . . .
43(4) . . .
44.5(35) . . .
60(4) . . .
64(4) . . .
54(4) . . .
55(4) . . .
59(4) . . .
61(4) . . .
57(4) . . .
53(4) . . .
57(4) . . .
62(4) . . .
52(4) . . .
54(4) . . .
58(4) . . .
57(4) . . .
54(4) . . .
48(4) . . .
64(4) . . .
54(4) . . .
64(5) . . .
50(4) . . .
50(4) . . .
54(4) . . .
65(5) . . .
55(4) . . .
62(4) . . .
55(4) . . .
46(4) . . .
56(4) . . .
52(4) . . .
51(4) . . .
42.8(34) . . .
50(4) . . .
53(4) . . .
54(4) . . .
39.3(33) . . .
53(4) . . .
52(4) . . .
57(4) . . .
56(4) . . .
61(4) . . .
58(4) . . .
55(4) . . .
55(4) . . .
50(4) . . .
50(4) . . .
50(4) . . .
51(4) . . .
48(4) . . .
42(4) . . .
56(4) . . .
57(4) . . .
46(4) . . .
46(4) . . .
60(4) . . .
56(4) . . .
60(4) . . .
59(4) . . .
57(4) . . .
75(5) . . .
57(4) . . .
52(4) . . .
48(4) . . .
59(4) . . .
50(4) . . .
48(4) . . .
61(4) . . .
50(4) . . .
60(4) . . .
52(4) . . .
46(4) . . .
47(4) . . .
51(4) . . .
50(4) . . .
53(4) . . .
58(4) . . .
58(4) . . .
60(4) . . .
61(4) . . .
58(4) . . .
51(4) . . .
65(4) . . .
61(4) . . .
45(4) . . .
42.9(34) . . .
47(4) . . .
48(4) . . .
45(4) . . .
52(4) . . .
60(4) . . .
52(4) . . .
51(4) . . .
54(4) . . .
57(4) . . .
47(4) . . .
44(4) . . .
59(4) . . .
65(5) . . .
48(4) . . .
53(4) . . .
60(4) . . .
59(4) . . .
63(4) . . .
53(4) . . .
48(4) . . .
63(4) . . .
61(4) . . .
52(4) . . .
56(4) . . .
52(4) . . .
55(4) . . .
58(4) . . .
49(4) . . .
48(4) . . .
58(4) . . .
49(4) . . .
46(4) . . .
50(4) . . .
53(4) . . .
48(4) . . .
55(4) . . .
60(4) . . .
52(4) . . .
51(4) . . .
55(4) . . .
57(4) . . .
48(4) . . .
45(4) . . .
53(4) . . .
43.7(35) . . .
53(4) . . .
61(4) . . .
51(4) . . .
57(4) . . .
53(4) . . .
51(4) . . .
53(4) . . .
56(4) . . .
55(4) . . .
59(4) . . .
56(4) . . .
53(4) . . .
48(4) . . .
53(4) . . .
60(4) . . .
57(4) . . .
54(4) . . .
56(4) . . .
67(4) . . .
57(4) . . .
55(4) . . .
56(4) . . .
49(4) . . .
53(4) . . .
56(4) . . .
48(4) . . .
51(4) . . .
56(4) . . .
56(4) . . .
58(4) . . .
56(4) . . .
56(4) . . .
59(4) . . .
63(4) . . .
57(4) . . .
53(4) . . .
57(4) . . .
61(4) . . .
64(4) . . .
60(4) . . .
55(4) . . .
60(4) . . .
52(4) . . .
55(4) . . .
59(4) . . .
65(4) . . .
61(4) . . .
59(4) . . .
57(4) . . .
53(4) . . .
51(4) . . .
57(4) . . .
49(4) . . .
53(4) . . .
49(4) . . .
54(4) . . .
55(4) . . .
52(4) . . .
50(4) . . .
39.8(34) . . .
47(4) . . .
58(4) . . .
47(4) . . .
46.2(35) . . .
64(4) . . .
62(4) . . .
53(4) . . .
54(4) . . .
58(4) . . .
59(4) . . .
49(4) . . .
50(4) . . .
54(4) . . .
55(4) . . .
41.8(33) . . .
57(4) . . .
59(4) . . .
58(4) . . .
58(4) . . .
58(4) . . .
59(4) . . .
55(4) . . .
60(4) . . .
58(4) . . .
57(4) . . .
61(4) . . .
63(4) . . .
52(4) . . .
52(4) . . .
60(4) . . .
56(4) . . .
48(4) . . .
52(4) . . .
50(4) . . .
54(4) . . .
47(4) . . .
52(4) . . .
66(4) . . .
61(4) . . .
63(4) . . .
53(4) . . .
54(4) . . .
48(4) . . .
59(4) . . .
63(4) . . .
60(4) . . .
53(4) . . .
54(4) . . .
57(4) . . .
58(4) . . .
64(4) . . .
56(4) . . .
57(4) . . .
52(4) . . .
50(4) . . .
53(4) . . .
50(4) . . .
43.7(35) . . .
49(4) . . .
53(4) . . .
55(4) . . .
52(4) . . .
55(4) . . .
52(4) . . .
52(4) . . .
46(4) . . .
51(4) . . .
57(4) . . .
57(4) . . .
53(4) . . .
56(4) . . .
58(4) . . .
51(4) . . .
53(4) . . .
55(4) . . .
55(4) . . .
48(4) . . .
46(4) . . .
49(4) . . .
66(5) . . .
60(4) . . .
46(4) . . .
54(4) . . .
53(4) . . .
57(4) . . .
46(4) . . .
66(4) . . .
67(4) . . .
59(4) . . .
49(4) . . .
45(4) . . .
69(4) . . .
53(4) . . .
49(4) . . .
55(4) . . .
53(4) . . .
40.7(33) . . .
51(4) . . .
50(4) . . .
53(4) . . .
61(4) . . .
50(4) . . .
56(4) . . .
54(4) . . .
69(5) . . .
55(4) . . .
54(4) . . .
60(4) . . .
53(4) . . .
48(4) . . .
65(4) . . .
51(4) . . .
56(4) . . .
58(4) . . .
51(4) . . .
50(4) . . .
62(4) . . .
69(4) . . .
57(4) . . .
48(4) . . .
45(4) . . .
40.3(33) . . .
47(4) . . .
57(4) . . .
52(4) . . .
55(4) . . .
58(4) . . .
58(4) . . .
59(4) . . .
58(4) . . .
50(4) . . .
54(4) . . .
55(4) . . .
47(4) . . .
47(4) . . .
48(4) . . .
61(4) . . .
59(4) . . .
51(4) . . .
58(4) . . .
52(4) . . .
45(4) . . .
54(4) . . .
59(4) . . .
63(4) . . .
60(4) . . .
57(4) . . .
57(4) . . .
55(4) . . .
59(4) . . .
51(4) . . .
63(4) . . .
50(4) . . .
58(4) . . .
57(4) . . .
51(4) . . .
44.7(35) . . .
51(4) . . .
55(4) . . .
46(4) . . .
56(4) . . .
50(4) . . .
55(4) . . .
58(4) . . .
56(4) . . .
50(4) . . .
54(4) . . .
51(4) . . .
50(4) . . .
56(4) . . .
53(4) . . .
50(4) . . .
64(5) . . .
57(4) . . .
56(4) . . .
50(4) . . .
51(4) . . .
62(4) . . .
60(4) . . .
68(4) . . .
46(4) . . .
57(4) . . .
45(4) . . .
51(4) . . .
60(4) . . .
57(4) . . .
59(4) . . .
51(4) . . .
46(4) . . .
64(4) . . .
66(4) . . .
54(4) . . .
49(4) . . .
61(4) . . .
47(4) . . .
58(4) . . .
57(4) . . .
43(4) . . .
47(4) . . .
45(4) . . .
54(4) . . .
60(4) . . .
58(4) . . .
48(4) . . .
59(4) . . .
52(4) . . .
47(4) . . .
56(4) . . .
64(4) . . .
61(4) . . .
58(4) . . .
55(4) . . .
51(4) . . .
53(4) . . .
56(4) . . .
57(4) . . .
51(4) . . .
53(4) . . .
61(4) . . .
56(4) . . .
50(4) . . .
60(4) . . .
60(4) . . .
54(4) . . .
48(4) . . .
55(4) . . .
64(4) . . .
57(4) . . .
51(4) . . .
46(4) . . .
57(4) . . .
59(4) . . .
64(4) . . .
58(4) . . .
57(4) . . .
45(4) . . .
50(4) . . .
49(4) . . .
68(4) . . .
50(4) . . .
61(4) . . .
52(4) . . .
44(4) . . .
50(4) . . .
57(4) . . .
59(4) . . .
50(4) . . .
51(4) . . .
44.3(34) . . .
56(4) . . .
53(4) . . .
54(4) . . .
48(4) . . .
46(4) . . .
53(4) . . .
52(4) . . .
51(4) . . .
61(5) . . .
56(4) . . .
51(4) . . .
54(4) . . .
51(4) . . .
58(4) . . .
66(4) . . .
60(4) . . .
51(4) . . .
65(4) . . .
54(4) . . .
52(4) . . .
50(4) . . .
53(4) . . .
52(4) . . .
55(4) . . .
53(4) . . .
56(4) . . .
54(4) . . .
54(4) . . .
53(4) . . .
51(4) . . .
50(4) . . .
52(4) . . .
51(4) . . .
56(4) . . .
44.6(35) . . .
57(4) . . .
52(4) . . .
53(4) . . .
54(4) . . .
53(4) . . .
52(4) . . .
55(4) . . .
53(4) . . .
57(4) . . .
59(4) . . .
52(4) . . .
51(4) . . .
52(4) . . .
50(4) . . .
52(4) . . .
44.0(34) . . .
50(4) . . .
45(4) . . .
56(4) . . .
57(4) . . .
55(4) . . .
62(4) . . .
49(4) . . .
55(4) . . .
60(4) . . .
55(4) . . .
68(5) . . .
60(4) . . .
54(4) . . .
55(4) . . .
51(4) . . .
53(4) . . .
56(4) . . .
60(4) . . .
53(4) . . .
49(4) . . .
53(4) . . .
48(4) . . .
54(4) . . .
61(4) . . .
57(4) . . .
53(4) . . .
53(4) . . .
54(4) . . .
54(4) . . .
62(4) . . .
51(4) . . .
52(4) . . .
52(4) . . .
51(4) . . .
54(4) . . .
59(4) . . .
49(4) . . .
53(4) . . .
49(4) . . .
59(4) . . .
48(4) . . .
45.0(35) . . .
49(4) . . .
55(4) . . .
47(4) . . .
56(4) . . .
57(4) . . .
55(4) . . .
52(4) . . .
47(4) . . .
55(4) . . .
54(4) . . .
60(4) . . .
58(4) . . .
61(4) . . .
48(4) . . .
50(4) . . .
58(4) . . .
55(4) . . .
58(4) . . .
48(4) . . .
52(4) . . .
54(4) . . .
49(4) . . .
49(4) . . .
50(4) . . .
51(4) . . .
50(4) . . .
53(4) . . .
54(4) . . .
58(4) . . .
54(4) . . .
51(4) . . .
61(4) . . .
52(4) . . .
56(4) . . .
60(4) . . .
58(4) . . .
55(4) . . .
50(4) . . .
56(4) . . .
55(4) . . .
51(4) . . .
71(5) . . .
54(4) . . .
56(4) . . .
47(4) . . .
51(4) . . .
49(4) . . .
50(4) . . .
48(4) . . .
46(4) . . .
49(4) . . .
44(4) . . .
45(4) . . .
48(4) . . .
62(4) . . .
51(4) . . .
70(5) . . .
59(4) . . .
50(4) . . .
55(4) . . .
56(4) . . .
55(4) . . .
60(4) . . .
47(4) . . .
45(4) . . .
63(4) . . .
60(4) . . .
52(4) . . .
44.9(35) . . .
52(4) . . .
58(4) . . .
56(4) . . .
49(4) . . .
44.0(35) . . .
56(4) . . .
53(4) . . .
54(4) . . .
50(4) . . .
49(4) . . .
46(4) . . .
51(4) . . .
67(5) . . .
54(4) . . .
48(4) . . .
53(4) . . .
50(4) . . .
55(4) . . .
53(4) . . .
52(4) . . .
56(4) . . .
60(4) . . .
57(4) . . .
59(4) . . .
50(4) . . .
53(4) . . .
58(4) . . .
57(4) . . .
49(4) . . .
49(4) . . .
43.7(34) . . .
57(4) . . .
50(4) . . .
51(4) . . .
63(4) . . .
53(4) . . .
51(4) . . .
53(4) . . .
53(4) . . .
55(4) . . .
51(4) . . .
56(4) . . .
52(4) . . .
50(4) . . .
51(4) . . .
49(4) . . .
48(4) . . .
47(4) . . .
44.4(35) . . .
56(4) . . .
55(4) . . .
55(4) . . .
57(4) . . .
53(4) . . .
46(4) . . .
44(4) . . .
52(4) . . .
51(4) . . .
46(4) . . .
52(4) . . .
57(4) . . .
64(4) . . .
49(4) . . .
55(4) . . .
48(4) . . .
60(4) . . .
48(4) . . .
50(4) . . .
39.9(32) . . .
47(4) . . .
55(4) . . .
47(4) . . .
51(4) . . .
57(4) . . .
52(4) . . .
48(4) . . .
46(4) . . .
47(4) . . .
52(4) . . .
60(4) . . .
62(4) . . .
55(4) . . .
59(4) . . .
55(4) . . .
50(4) . . .
55(4) . . .
51(4) . . .
51(4) . . .
50(4) . . .
54(4) . . .
48(4) . . .
56(4) . . .
53(4) . . .
54(4) . . .
48(4) . . .
48(4) . . .
56(4) . . .
48(4) . . .
40.6(33) . . .
52(4) . . .
55(4) . . .
50(4) . . .
52(4) . . .
47(4) . . .
43(4) . . .
46(4) . . .
52(4) . . .
64(4) . . .
52(4) . . .
54(4) . . .
60(4) . . .
49(4) . . .
54(4) . . .
61(4) . . .
56(4) . . .
58(4) . . .
55(4) . . .
53(4) . . .
53(4) . . .
62(4) . . .
53(4) . . .
53(4) . . .
53(4) . . .
46(4) . . .
49(4) . . .
49(4) . . .
48(4) . . .
51(4) . . .
46(4) . . .
48(4) . . .
55(4) . . .
48(4) . . .
54(4) . . .
53(4) . . .
55(4) . . .
42.2(34) . . .
43.4(35) . . .
47(4) . . .
61(4) . . .
49(4) . . .
48(4) . . .
66(4) . . .
51(4) . . .
52(4) . . .
48(4) . . .
43(4) . . .
49(4) . . .
46(4) . . .
43.3(34) . . .
56(4) . . .
65(4) . . .
56(4) . . .
53(4) . . .
55(4) . . .
47(4) . . .
33.0(30) . . .
47(4) . . .
58(4) . . .
52(4) . . .
56(4) . . .
40.4(33) . . .
49(4) . . .
50(4) . . .
46(4) . . .
55(4) . . .
57(4) . . .
52(4) . . .
50(4) . . .
55(4) . . .
47.4(35) . . .
51(4) . . .
53(4) . . .
56(4) . . .
52(4) . . .
47(4) . . .
52(4) . . .
53(4) . . .
50(4) . . .
50(4) . . .
54(4) . . .
53(4) . . .
46(4) . . .
56(4) . . .
55(4) . . .
49(4) . . .
54(4) . . .
41.8(33) . . .
63(4) . . .
57(4) . . .
56(4) . . .
59(4) . . .
59(4) . . .
54(4) . . .
55(4) . . .
55(4) . . .
55(4) . . .
61(4) . . .
55(4) . . .
48(4) . . .
48(4) . . .
59(4) . . .
47(4) . . .
61(4) . . .
49(4) . . .
52(4) . . .
57(4) . . .
63(4) . . .
58(4) . . .
66(4) . . .
63(4) . . .
56(4) . . .
51(4) . . .
60(4) . . .
65(4) . . .
54(4) . . .
45(4) . . .
45(4) . . .
50(4) . . .
53(4) . . .
51(4) . . .
59(4) . . .
52(4) . . .
49(4) . . .
62(4) . . .
53(4) . . .
54(4) . . .
55(4) . . .
49(4) . . .
49(4) . . .
53(4) . . .
54(4) . . .
58(4) . . .
55(4) . . .
58(4) . . .
51(4) . . .
51(4) . . .
53(4) . . .
45(4) . . .
58(4) . . .
59(4) . . .
54(4) . . .
48(4) . . .
57(4) . . .
47(4) . . .
48(4) . . .
51(4) . . .
55(4) . . .
48(4) . . .
60(4) . . .
57(4) . . .
53(4) . . .
58(4) . . .
49(4) . . .
42.4(35) . . .
46(4) . . .
58(4) . . .
60(4) . . .
53(4) . . .
57(4) . . .
56(4) . . .
52(4) . . .
54(4) . . .
61(4) . . .
51(4) . . .
52(4) . . .
47(4) . . .
55(4) . . .
58(4) . . .
61(4) . . .
61(4) . . .
58(4) . . .
51(4) . . .
50(4) . . .
42.0(34) . . .
52(4) . . .
50(4) . . .
55(4) . . .
52(4) . . .
51(4) . . .
44.2(35) . . .
51(4) . . .
55(4) . . .
55(4) . . .
56(4) . . .
59(4) . . .
49(4) . . .
46(4) . . .
49(4) . . .
52(4) . . .
58(4) . . .
63(4) . . .
49(4) . . .
50(4) . . .
51(4) . . .
58(4) . . .
44(4) . . .
43(4) . . .
51(4) . . .
48(4) . . .
50(4) . . .
40.4(34) . . .
48(4) . . .
60(4) . . .
53(4) . . .
44(4) . . .
55(4) . . .
48(4) . . .
52(4) . . .
50(4) . . .
55(4) . . .
43.0(34) . . .
53(4) . . .
54(4) . . .
57(4) . . .
53(4) . . .
53(4) . . .
49(4) . . .
61(4) . . .
55(4) . . .
53(4) . . .
55(4) . . .
53(4) . . .
42.5(35) . . .
52(4) . . .
47(4) . . .
56(4) . . .
42.8(34) . . .
53(4) . . .
55(4) . . .
53(4) . . .
48(4) . . .
51(4) . . .
49(4) . . .
52(4) . . .
59(4) . . .
48(4) . . .
56(4) . . .
56(4) . . .
57(4) . . .
54(4) . . .
49(4) . . .
49(4) . . .
50(4) . . .
51(4) . . .
48(4) . . .
53(4) . . .
50(4) . . .
57(4) . . .
54(4) . . .
59(4) . . .
44(4) . . .
48(4) . . .
59(4) . . .
46(4) . . .
54(4) . . .
53(4) . . .
57(4) . . .
46(4) . . .
47(4) . . .
49(4) . . .
49(4) . . .
57(4) . . .
71(4) . . .
53(4) . . .
48(4) . . .
57(4) . . .
53(4) . . .
50(4) . . .
54(4) . . .
53(4) . . .
52(4) . . .
49(4) . . .
50(4) . . .
53(4) . . .
55(4) . . .
51(4) . . .
54(4) . . .
63(4) . . .
51(4) . . .
52(4) . . .
46(4) . . .
49(4) . . .
50(4) . . .
56(4) . . .
52(4) . . .
49(4) . . .
55(4) . . .
50(4) . . .
46(4) . . .
42.8(34) . . .
61(4) . . .
47(4) . . .
49(4) . . .
54(4) . . .
41.7(35) . . .
47(4) . . .
49(4) . . .
43(4) . . .
54(4) . . .
57(4) . . .
48(4) . . .
49(4) . . .
51(4) . . .
41.0(34) . . .
49(4) . . .
50(4) . . .
51(4) . . .
57(4) . . .
54(4) . . .
45(4) . . .
48(4) . . .
61(4) . . .
49(4) . . .
51(4) . . .
45(4) . . .
54(4) . . .
50(4) . . .
52(4) . . .
46(4) . . .
57(4) . . .
60(4) . . .
48(4) . . .
55(4) . . .
53(4) . . .
47(4) . . .
47(4) . . .
61(4) . . .
52(4) . . .
56(4) . . .
47(4) . . .
55(4) . . .
60(4) . . .
54(4) . . .
43(4) . . .
34.7(30) . . .
50(4) . . .
55(4) . . .
50(4) . . .
45(4) . . .
50(4) . . .
48(4) . . .
52(4) . . .
53(4) . . .
46(4) . . .
48(4) . . .
55(4) . . .
48(4) . . .
51(4) . . .
52(4) . . .
56(4) . . .
45(4) . . .
44.1(35) . . .
48(4) . . .
57(4) . . .
55(4) . . .
52(4) . . .
56(4) . . .
49(4) . . .
50(4) . . .
50(4) . . .
40.9(34) . . .
53(4) . . .
45(4) . . .
53(4) . . .
50(4) . . .
50(4) . . .
52(4) . . .
54(4) . . .
56(4) . . .
61(4) . . .
62(4) . . .
62(4) . . .
52(4) . . .
48(4) . . .
49(4) . . .
49(4) . . .
46(4) . . .
62(4) . . .
52(4) . . .
52(4) . . .
54(4) . . .
54(4) . . .
45(4) . . .
40.3(33) . . .
57(4) . . .
52(4) . . .
54(4) . . .
52(4) . . .
55(4) . . .
56(4) . . .
42.5(34) . . .
42.0(34) . . .
52(4) . . .
54(4) . . .
53(4) . . .
49(4) . . .
51(4) . . .
48(4) . . .
42.7(35) . . .
43.5(35) . . .
60(4) . . .
56(4) . . .
51(4) . . .
58(4) . . .
46(4) . . .
53(4) . . .
48(4) . . .
58(4) . . .
52(4) . . .
46(4) . . .
49(4) . . .
53(4) . . .
44(4) . . .
47(4) . . .
48(4) . . .
57(4) . . .
43(4) . . .
42.7(35) . . .
40.7(34) . . .
55(4) . . .
49(4) . . .
60(4) . . .
51(4) . . .
52(4) . . .
45.7(35) . . .
42(4) . . .
42(4) . . .
51(4) . . .
51(4) . . .
49(4) . . .
47(4) . . .
52(4) . . .
52(4) . . .
48(4) . . .
50(4) . . .
40.2(32) . . .
59(5) . . .
45(4) . . .
51(4) . . .
43.1(34) . . .
52(4) . . .
41(4) . . .
46(4) . . .
66(4) . . .
59(4) . . .
46(4) . . .
47(4) . . .
54(4) . . .
60(4) . . .
53(4) . . .
52(4) . . .
43.2(35) . . .
54(4) . . .
65(4) . . .
48(4) . . .
45(4) . . .
51(4) . . .
52(4) . . .
43.6(35) . . .
52(4) . . .
40.2(32) . . .
46(4) . . .
46(4) . . .
53(4) . . .
43(4) . . .
53(4) . . .
56(4) . . .
48(4) . . .
59(4) . . .
51(4) . . .
58(4) . . .
59(4) . . .
50(4) . . .
50(4) . . .
57(4) . . .
50(4) . . .
56(4) . . .
51(4) . . .
51(4) . . .
51(4) . . .
54(4) . . .
52(4) . . .
43.3(34) . . .
53(4) . . .
53(4) . . .
53(4) . . .
59(4) . . .
53(4) . . .
52(4) . . .
50(4) . . .
43.4(34) . . .
50(4) . . .
48(4) . . .
41.6(33) . . .
58(4) . . .
48(4) . . .
47(4) . . .
59(4) . . .
64(4) . . .
55(4) . . .
48(4) . . .
55(4) . . .
49(4) . . .
55(4) . . .
45(4) . . .
47(4) . . .
53(4) . . .
54(4) . . .
50(4) . . .
47(4) . . .
46(4) . . .
62(4) . . .
44.9(35) . . .
52(4) . . .
44.5(35) . . .
52(4) . . .
64(4) . . .
52(4) . . .
43.5(34) . . .
55(4) . . .
55(4) . . .
49(4) . . .
57(4) . . .
62(4) . . .
52(4) . . .
56(4) . . .
58(4) . . .
41.5(34) . . .
51(4) . . .
50(4) . . .
58(4) . . .
54(4) . . .
51(4) . . .
49(4) . . .
38.2(32) . . .
51(4) . . .
49(4) . . .
51(4) . . .
54(4) . . .
55(4) . . .
48(4) . . .
66(4) . . .
51(4) . . .
58(4) . . .
43.7(35) . . .
53(4) . . .
49(4) . . .
52(4) . . .
56(4) . . .
50(4) . . .
55(4) . . .
44.6(35) . . .
47(4) . . .
51(4) . . .
44.8(35) . . .
52(4) . . .
46(4) . . .
56(4) . . .
59(4) . . .
52(4) . . .
48(4) . . .
52(4) . . .
49(4) . . .
44(4) . . .
46(4) . . .
46(4) . . .
48(4) . . .
45(4) . . .
54(4) . . .
47(4) . . .
46(4) . . .
58(4) . . .
47(4) . . .
54(4) . . .
55(4) . . .
52(4) . . .
46(4) . . .
39.2(32) . . .
65(5) . . .
44.7(35) . . .
48(4) . . .
51(4) . . .
54(4) . . .
54(4) . . .
51(4) . . .
49(4) . . .
53(4) . . .
43.3(34) . . .
46(4) . . .
51(4) . . .
49(4) . . .
52(4) . . .
51(4) . . .
54(4) . . .
47(4) . . .
49(4) . . .
50(4) . . .
53(4) . . .
53(4) . . .
46(4) . . .
39.6(33) . . .
51(4) . . .
45(4) . . .
49(4) . . .
61(4) . . .
48(4) . . .
50(4) . . .
40.8(34) . . .
46(4) . . .
55(4) . . .
45(4) . . .
53(4) . . .
46(4) . . .
63(4) . . .
49(4) . . .
49(4) . . .
52(4) . . .
48(4) . . .
60(4) . . .
65(4) . . .
62(4) . . .
45(4) . . .
54(4) . . .
51(4) . . .
45.2(35) . . .
52(4) . . .
49(4) . . .
54(4) . . .
52(4) . . .
43.3(34) . . .
48(4) . . .
54(4) . . .
60(4) . . .
45(4) . . .
45.5(35) . . .
60(4) . . .
65(4) . . .
54(4) . . .
53(4) . . .
47(4) . . .
42.7(33) . . .
51(4) . . .
56(4) . . .
54(4) . . .
54(4) . . .
52(4) . . .
51(4) . . .
50(4) . . .
52(4) . . .
42.8(35) . . .
48(4) . . .
58(4) . . .
49(4) . . .
61(4) . . .
54(4) . . .
63(4) . . .
52(4) . . .
57(4) . . .
55(4) . . .
56(4) . . .
55(4) . . .
47(4) . . .
47(4) . . .
45(4) . . .
48(4) . . .
53(4) . . .
55(4) . . .
57(4) . . .
51(4) . . .
43.3(34) . . .
51(4) . . .
61(4) . . .
46(4) . . .
43.6(34) . . .
59(4) . . .
52(4) . . .
55(4) . . .
47(4) . . .
49(4) . . .
46.0(35) . . .
53(4) . . .
51(4) . . .
48(4) . . .
40.2(33) . . .
52(4) . . .
55(4) . . .
47(4) . . .
49(4) . . .
55(4) . . .
55(4) . . .
59(4) . . .
49(4) . . .
57(4) . . .
52(4) . . .
50(4) . . .
44.0(34) . . .
57(4) . . .
50(4) . . .
46(4) . . .
53(4) . . .
51(4) . . .
44(4) . . .
52(4) . . .
47(4) . . .
53(4) . . .
52(4) . . .
52(4) . . .
63(4) . . .
51(4) . . .
51(4) . . .
61(4) . . .
54(4) . . .
52(4) . . .
55(4) . . .
55(4) . . .
45(4) . . .
49(4) . . .
49(4) . . .
51(4) . . .
57(4) . . .
45(4) . . .
48(4) . . .
47(4) . . .
48(4) . . .
49(4) . . .
42(4) . . .
40.3(34) . . .
50(4) . . .
41.1(33) . . .
48(4) . . .
51(4) . . .
48(4) . . .
55(4) . . .
56(4) . . .
44.6(34) . . .
47(4) . . .
55(4) . . .
57(4) . . .
47(4) . . .
54(4) . . .
57(4) . . .
56(4) . . .
43.8(35) . . .
59(4) . . .
39.2(33) . . .
41(4) . . .
48(4) . . .
49(4) . . .
46(4) . . .
50(4) . . .
49(4) . . .
52(4) . . .
50(4) . . .
48(4) . . .
54(4) . . .
47(4) . . .
43.3(34) . . .
53(4) . . .
54(4) . . .
48(4) . . .
44(4) . . .
47(4) . . .
52(4) . . .
56(4) . . .
56(4) . . .
67(4) . . .
50(4) . . .
47(4) . . .
49(4) . . .
49(4) . . .
33.9(30) . . .
45.4(35) . . .
39.7(33) . . .
44(4) . . .
50(4) . . .
44(4) . . .
49(4) . . .
53(4) . . .
48(4) . . .
55(4) . . .
53(4) . . .
52(4) . . .
49(4) . . .
52(4) . . .
48(4) . . .
45(4) . . .
42.3(33) . . .
52(4) . . .
45(4) . . .
48(4) . . .
60(4) . . .
48(4) . . .
53(4) . . .
50(4) . . .
56(4) . . .
50(4) . . .
49(4) . . .
51(4) . . .
52(4) . . .
52(4) . . .
40.9(33) . . .
52(4) . . .
43.6(35) . . .
58(4) . . .
52(4) . . .
46(4) . . .
41.3(33) . . .
64(5) . . .
41.0(34) . . .
52(4) . . .
51(4) . . .
52(4) . . .
54(4) . . .
53(4) . . .
54(4) . . .
49(4) . . .
56(4) . . .
54(4) . . .
47(4) . . .
40.3(32) . . .
56(4) . . .
39.1(33) . . .
42(4) . . .
52(4) . . .
50(4) . . .
51(4) . . .
43.8(34) . . .
44(4) . . .
53(4) . . .
50(4) . . .
55(4) . . .
56(4) . . .
57(4) . . .
54(4) . . .
49(4) . . .
54(4) . . .
46(4) . . .
55(4) . . .
46(4) . . .
60(4) . . .
54(4) . . .
44.9(35) . . .
52(4) . . .
45(4) . . .
48(4) . . .
59(4) . . .
58(4) . . .
50(4) . . .
42(4) . . .
57(4) . . .
52(4) . . .
48(4) . . .
38.7(32) . . .
48(4) . . .
55(4) . . .
56(4) . . .
50(4) . . .
50(4) . . .
58(4) . . .
58(4) . . .
55(4) . . .
50(4) . . .
50(4) . . .
40.4(33) . . .
58(4) . . .
43.4(34) . . .
42(4) . . .
57(4) . . .
51(4) . . .
50(4) . . .
47(4) . . .
57(4) . . .
48(4) . . .
53(4) . . .
49(4) . . .
44.7(35) . . .
49(4) . . .
59(4) . . .
43.4(35) . . .
43(4) . . .
52(4) . . .
52(4) . . .
45(4) . . .
52(4) . . .
64(4) . . .
52(4) . . .
50(4) . . .
44(4) . . .
59(4) . . .
45.1(35) . . .
41.3(34) . . .
48(4) . . .
46(4) . . .
48(4) . . .
37.4(32) . . .
44.1(35) . . .
58(4) . . .
63(4) . . .
58(4) . . .
54(4) . . .
40.1(33) . . .
51(4) . . .
49(4) . . .
45(4) . . .
48(4) . . .
58(4) . . .
46.8(34) . . .
51(4) . . .
55(4) . . .
53(4) . . .
60(4) . . .
52(4) . . .
39(4) . . .
44(4) . . .
51(4) . . .
54(4) . . .
46(4) . . .
50(4) . . .
53(4) . . .
53(4) . . .
40(4) . . .
43(4) . . .
43(4) . . .
41.6(34) . . .
58(4) . . .
64(4) . . .
44.1(35) . . .
44(4) . . .
48(4) . . .
40.6(33) . . .
45(4) . . .
53(4) . . .
50(4) . . .
55(4) . . .
51(4) . . .
43(4) . . .
46(4) . . .
42.0(35) . . .
50(4) . . .
46(4) . . .
47(4) . . .
54(4) . . .
39.8(33) . . .
41.1(34) . . .
47(4) . . .
43.1(35) . . .
46(4) . . .
56(4) . . .
55(4) . . .
51(4) . . .
54(4) . . .
56(4) . . .
50(4) . . .
62(4) . . .
47(4) . . .
50(4) . . .
46(4) . . .
46(4) . . .
51(4) . . .
52(4) . . .
55(4) . . .
53(4) . . .
47(4) . . .
45.5(35) . . .
43(4) . . .
49(4) . . .
67(4) . . .
55(4) . . .
42.9(33) . . .
51(4) . . .
50(4) . . .
45(4) . . .
49(4) . . .
48(4) . . .
48(4) . . .
50(4) . . .
47(4) . . .
41.8(33) . . .
56(4) . . .
41.9(34) . . .
55(4) . . .
54(4) . . .
47(4) . . .
44.3(35) . . .
37.0(31) . . .
47(4) . . .
46(4) . . .
57(4) . . .
56(4) . . .
47(4) . . .
49(4) . . .
48(4) . . .
42.4(34) . . .
42(4) . . .
45(4) . . .
49(4) . . .
47(4) . . .
48(4) . . .
56(4) . . .
47(4) . . .
59(4) . . .
53(4) . . .
53(4) . . .
51(4) . . .
51(4) . . .
58(4) . . .
58(4) . . .
61(4) . . .
44(4) . . .
51(4) . . .
47(4) . . .
53(4) . . .
55(4) . . .
45(4) . . .
53(4) . . .
63(4) . . .
52(4) . . .
45.0(35) . . .
48(4) . . .
56(4) . . .
46(4) . . .
42.5(34) . . .
51(4) . . .
55(4) . . .
54(4) . . .
45(4) . . .
49(4) . . .
61(4) . . .
52(4) . . .
50(4) . . .
56(4) . . .
51(4) . . .
52(4) . . .
60(4) . . .
52(4) . . .
45(4) . . .
48(4) . . .
58(4) . . .
51(4) . . .
46(4) . . .
53(4) . . .
57(4) . . .
43.9(35) . . .
47(4) . . .
52(4) . . .
48(4) . . .
54(4) . . .
52(4) . . .
47(4) . . .
54(4) . . .
58(4) . . .
56(4) . . .
43.1(35) . . .
40.8(33) . . .
50(4) . . .
42.0(34) . . .
52(4) . . .
58(4) . . .
43.8(34) . . .
39.1(32) . . .
39.3(34) . . .
45.6(35) . . .
53(4) . . .
53(4) . . .
49(4) . . .
57(4) . . .
53(4) . . .
46(4) . . .
61(4) . . .
46(4) . . .
46(4) . . .
63(4) . . .
52(4) . . .
55(4) . . .
53(4) . . .
37.8(32) . . .
48(4) . . .
48(4) . . .
57(4) . . .
48(4) . . .
39.9(33) . . .
39.4(33) . . .
47(4) . . .
47(4) . . .
57(4) . . .
55(4) . . .
57(4) . . .
49(4) . . .
60(4) . . .
44(4) . . .
49(4) . . .
48(4) . . .
55(4) . . .
53(4) . . .
50(4) . . .
53(4) . . .
48(4) . . .
48(4) . . .
47(4) . . .
47(4) . . .
52(4) . . .
47(4) . . .
58(4) . . .
45(4) . . .
50(4) . . .
53(4) . . .
59(4) . . .
54(4) . . .
40(4) . . .
46(4) . . .
47(4) . . .
47(4) . . .
45(4) . . .
49(4) . . .
45(4) . . .
53(4) . . .
49(4) . . .
54(4) . . .
57(4) . . .
56(4) . . .
43.2(34) . . .
43.6(35) . . .
43.6(35) . . .
51(4) . . .
54(4) . . .
55(4) . . .
57(4) . . .
51(4) . . .
46(4) . . .
57(4) . . .
53(4) . . .
54(4) . . .
46(4) . . .
54(4) . . .
50(4) . . .
48(4) . . .
52(4) . . .
50(4) . . .
48(4) . . .
47(4) . . .
41.3(33) . . .
50(4) . . .
50(4) . . .
45(4) . . .
56(4) . . .
46(4) . . .
52(4) . . .
50(4) . . .
53(4) . . .
46(4) . . .
57(4) . . .
53(4) . . .
45(4) . . .
49(4) . . .
58(4) . . .
61(4) . . .
50(4) . . .
49(4) . . .
41.9(35) . . .
53(4) . . .
50(4) . . .
50(4) . . .
54(4) . . .
52(4) . . .
51(4) . . .
52(4) . . .
52(4) . . .
46.0(35) . . .
52(4) . . .
50(4) . . .
47(4) . . .
49(4) . . .
45(4) . . .
50(4) . . .
49(4) . . .
41.8(35) . . .
45(4) . . .
47(4) . . .
39.3(33) . . .
46(4) . . .
50(4) . . .
45(4) . . .
50(4) . . .
54(4) . . .
55(4) . . .
43(4) . . .
49(4) . . .
40.7(34) . . .
48(4) . . .
65(4) . . .
58(4) . . .
47(4) . . .
54(4) . . .
50(4) . . .
64(4) . . .
57(4) . . .
48(4) . . .
51(4) . . .
48(4) . . .
55(4) . . .
52(4) . . .
50(4) . . .
63(4) . . .
47(4) . . .
45(4) . . .
62(4) . . .
51(4) . . .
45(4) . . .
41.6(34) . . .
49(4) . . .
50(4) . . .
45(4) . . .
36.8(33) . . .
47(4) . . .
49(4) . . .
48(4) . . .
58(4) . . .
55(4) . . .
51(4) . . .
45(4) . . .
50(4) . . .
63(4) . . .
47(4) . . .
41.3(33) . . .
47(4) . . .
47(4) . . .
47(4) . . .
43.4(34) . . .
68(4) . . .
48(4) . . .
51(4) . . .
58(4) . . .
55(4) . . .
54(4) . . .
44.5(35) . . .
54(4) . . .
48(4) . . .
49(4) . . .
56(4) . . .
44(4) . . .
47(4) . . .
48(4) . . .
42.7(34) . . .
53(4) . . .
47(4) . . .
50(4) . . .
42(4) . . .
44.8(35) . . .
59(4) . . .
52(4) . . .
64(4) . . .
50(4) . . .
50(4) . . .
50(4) . . .
47(4) . . .
46(4) . . .
47(4) . . .
54(4) . . .
45.1(35) . . .
59(4) . . .
52(4) . . .
55(4) . . .
46(4) . . .
41.4(34) . . .
44(4) . . .
47(4) . . .
46(4) . . .
45(4) . . .
47(4) . . .
46(4) . . .
50(4) . . .
35.8(31) . . .
41.8(34) . . .
41.0(34) . . .
44(4) . . .
39.3(35) . . .
49(4) . . .
46(4) . . .
56(4) . . .
49(4) . . .
44(4) . . .
49(4) . . .
43.7(34) . . .
62(4) . . .
53(4) . . .
47(4) . . .
44.5(35) . . .
50(4) . . .
53(4) . . .
44(4) . . .
42(4) . . .
46(4) . . .
53(4) . . .
43(4) . . .
48(4) . . .
54(4) . . .
51(4) . . .
49(4) . . .
52(4) . . .
49(4) . . .
50(4) . . .
52(4) . . .
45(4) . . .
54(4) . . .
54(4) . . .
46(4) . . .
52(4) . . .
53(4) . . .
52(4) . . .
54(4) . . .
47(4) . . .
59(4) . . .
54(4) . . .
36.8(31) . . .
42(4) . . .
45(4) . . .
48(4) . . .
38.3(33) . . .
51(4) . . .
52(4) . . .
41.4(33) . . .
49(4) . . .
44.2(35) . . .
47(4) . . .
52(4) . . .
49(4) . . .
53(4) . . .
54(4) . . .
62(4) . . .
53(4) . . .
49(4) . . .
48(4) . . .
42.1(34) . . .
47(4) . . .
54(4) . . .
55(4) . . .
48(4) . . .
59(4) . . .
55(4) . . .
46(4) . . .
56(4) . . .
55(4) . . .
45(4) . . .
44(4) . . .
43.8(34) . . .
44.2(34) . . .
56(4) . . .
50(4) . . .
51(4) . . .
41(4) . . .
43.3(34) . . .
49(4) . . .
53(4) . . .
53(4) . . .
54(4) . . .
50(4) . . .
47(4) . . .
41(4) . . .
52(4) . . .
42.2(35) . . .
43.6(35) . . .
48(4) . . .
53(4) . . .
51(4) . . .
48(4) . . .
41.7(35) . . .
45(4) . . .
48(4) . . .
56(4) . . .
46(4) . . .
52(4) . . .
49(4) . . .
50(4) . . .
53(4) . . .
45(4) . . .
56(4) . . .
57(4) . . .
48(4) . . .
50(4) . . .
50(4) . . .
47(4) . . .
48(4) . . .
49(4) . . .
50(4) . . .
48(4) . . .
45.0(35) . . .
38.8(34) . . .
53(4) . . .
57(4) . . .
46(4) . . .
49(4) . . .
50(4) . . .
47(4) . . .
56(4) . . .
44(4) . . .
60(4) . . .
47(4) . . .
54(4) . . .
53(4) . . .
48(4) . . .
47(4) . . .
44(4) . . .
43.6(34) . . .
59(4) . . .
44.4(34) . . .
50(4) . . .
50(4) . . .
48(4) . . .
45(4) . . .
57(4) . . .
64(4) . . .
58(4) . . .
52(4) . . .
54(4) . . .
48(4) . . .
58(4) . . .
45(4) . . .
50(4) . . .
42.4(34) . . .
47(4) . . .
54(4) . . .
45(4) . . .
50(4) . . .
50(4) . . .
40.1(33) . . .
45(4) . . .
47(4) . . .
51(4) . . .
41.9(33) . . .
53(4) . . .
57(4) . . .
45(4) . . .
44(4) . . .
56(4) . . .
54(4) . . .
46(4) . . .
53(4) . . .
48(4) . . .
44.9(35) . . .
45(4) . . .
47(4) . . .
51(4) . . .
47(4) . . .
43.2(34) . . .
48(4) . . .
54(4) . . .
45(4) . . .
41.6(34) . . .
45.0(35) . . .
44(4) . . .
47(4) . . .
38.8(34) . . .
46(4) . . .
47(4) . . .
43.6(34) . . .
43(4) . . .
47(4) . . .
54(4) . . .
52(4) . . .
50(4) . . .
46(4) . . .
46(4) . . .
36.3(31) . . .
37.9(32) . . .
49(4) . . .
54(4) . . .
55(4) . . .
49(4) . . .
43.5(34) . . .
50(4) . . .
58(4) . . .
45(4) . . .
45(4) . . .
49(4) . . .
48(4) . . .
49(4) . . .
44(4) . . .
38.7(32) . . .
49(4) . . .
47(4) . . .
54(4) . . .
52(4) . . .
42.4(35) . . .
53(4) . . .
50(4) . . .
41.7(34) . . .
53(4) . . .
50(4) . . .
40.4(33) . . .
48(4) . . .
51(4) . . .
48(4) . . .
58(4) . . .
47(4) . . .
43.1(35) . . .
54(4) . . .
42(4) . . .
50(4) . . .
51(4) . . .
42.9(34) . . .
46(4) . . .
44.9(35) . . .
45.3(35) . . .
54(4) . . .
50(4) . . .
46(4) . . .
58(4) . . .
61(4) . . .
46(4) . . .
51(4) . . .
49(4) . . .
53(4) . . .
53(4) . . .
56(4) . . .
48(4) . . .
49(4) . . .
44(4) . . .
42.9(34) . . .
42.3(34) . . .
48(4) . . .
46(4) . . .
45(4) . . .
44.0(35) . . .
49(4) . . .
58(4) . . .
53(4) . . .
46(4) . . .
45.1(35) . . .
49(4) . . .
42(4) . . .
48(4) . . .
48(4) . . .
51(4) . . .
47(4) . . .
46(4) . . .
50(4) . . .
41.7(34) . . .
47(4) . . .
33.8(31) . . .
33.7(35) . . .
48(4) . . .
49(4) . . .
44.2(34) . . .
46(4) . . .
43(4) . . .
41.1(34) . . .
55(4) . . .
43.5(34) . . .
58(4) . . .
57(4) . . .
40.5(33) . . .
43.1(34) . . .
42.4(34) . . .
51(4) . . .
38.2(33) . . .
52(4) . . .
54(4) . . .
43.8(35) . . .
41.1(33) . . .
51(4) . . .
52(4) . . .
50(4) . . .
54(4) . . .
49(4) . . .
44(4) . . .
45(4) . . .
50(4) . . .
48(4) . . .
38.5(34) . . .
33.3(29) . . .
48(4) . . .
52(4) . . .
54(4) . . .
53(4) . . .
41.7(35) . . .
48(4) . . .
40.4(34) . . .
42.0(34) . . .
47(4) . . .
44(4) . . .
43(4) . . .
48(4) . . .
43(4) . . .
49(4) . . .
48(4) . . .
44(4) . . .
46(4) . . .
35.3(31) . . .
47(4) . . .
50(4) . . .
47(4) . . .
47(4) . . .
44(4) . . .
54(4) . . .
39.4(34) . . .
34.6(31) . . .
35.2(31) . . .
43(4) . . .
43(4) . . .
42(4) . . .
47(4) . . .
43.5(35) . . .
43(4) . . .
40.5(34) . . .
49(4) . . .
53(4) . . .
50(4) . . .
44.3(34) . . .
50(4) . . .
54(4) . . .
41.7(34) . . .
48(4) . . .
54(4) . . .
50(4) . . .
43.1(35) . . .
48(4) . . .
39.7(33) . . .
43(4) . . .
48(4) . . .
44.0(35) . . .
59(4) . . .
52(4) . . .
40.7(34) . . .
45(4) . . .
40.7(33) . . .
48(4) . . .
45(4) . . .
44(4) . . .
53(4) . . .
45(4) . . .
45.1(35) . . .
43(4) . . .
56(4) . . .
53(4) . . .
52(4) . . .
50(4) . . .
46(4) . . .
51(4) . . .
49(4) . . .
52(4) . . .
55(4) . . .
39.8(33) . . .
48(4) . . .
49(4) . . .
52(4) . . .
52(4) . . .
59(4) . . .
39.0(33) . . .
47(4) . . .
44.1(35) . . .
40.6(34) . . .
46(4) . . .
47(4) . . .
46(4) . . .
40.3(33) . . .
51(4) . . .
41(4) . . .
46(4) . . .
48(4) . . .
47(4) . . .
51(4) . . .
51(4) . . .
45(4) . . .
47(4) . . .
45.6(35) . . .
46(4) . . .
49(4) . . .
45(4) . . .
46(4) . . .
49(4) . . .
60(4) . . .
54(4) . . .
49(4) . . .
38.7(33) . . .
50(4) . . .
38.6(33) . . .
42.5(34) . . .
54(4) . . .
43(4) . . .
50(4) . . .
57(4) . . .
44(4) . . .
43.4(35) . . .
47(4) . . .
49(4) . . .
55(4) . . .
44(4) . . .
51(4) . . .
39.1(32) . . .
40.9(34) . . .
36.1(32) . . .
42(4) . . .
43(4) . . .
50(4) . . .
58(4) . . .
57(4) . . .
49(4) . . .
46(4) . . .
46(4) . . .
49(4) . . .
48(4) . . .
47(4) . . .
50(4) . . .
48(4) . . .
45.0(34) . . .
46(4) . . .
52(4) . . .
46(4) . . .
48(4) . . .
48(4) . . .
44(4) . . .
48(4) . . .
50(4) . . .
48(4) . . .
51(4) . . .
46(4) . . .
45(4) . . .
48(4) . . .
47(4) . . .
55(4) . . .
47(4) . . .
53(4) . . .
47(4) . . .
54(4) . . .
49(4) . . .
45(4) . . .
36(4) . . .
40.3(34) . . .
49(4) . . .
48(4) . . .
48(4) . . .
47(4) . . .
39.5(33) . . .
48(4) . . .
55(4) . . .
52(4) . . .
55(4) . . .
45.7(35) . . .
41.0(33) . . .
52(4) . . .
40.3(34) . . .
57(4) . . .
44.2(35) . . .
44.0(34) . . .
54(4) . . .
42(4) . . .
42(4) . . .
44.5(35) . . .
56(4) . . .
50(4) . . .
49(4) . . .
49(4) . . .
55(4) . . .
40.0(33) . . .
46(4) . . .
48(4) . . .
52(4) . . .
52(4) . . .
46(4) . . .
48(4) . . .
52(4) . . .
46(4) . . .
47(4) . . .
43(4) . . .
43.1(35) . . .
40.1(34) . . .
45(4) . . .
41.4(34) . . .
44(4) . . .
57(4) . . .
39.5(33) . . .
50(4) . . .
58(4) . . .
46(4) . . .
43(4) . . .
42(4) . . .
39.5(34) . . .
44.8(35) . . .
44(4) . . .
56(4) . . .
42.5(35) . . .
39.5(33) . . .
55(4) . . .
49(4) . . .
43(4) . . .
50(4) . . .
56(4) . . .
53(4) . . .
50(4) . . .
58(4) . . .
52(4) . . .
48(4) . . .
49(4) . . .
49(4) . . .
50(4) . . .
40.7(34) . . .
46.2(35) . . .
46(4) . . .
49(4) . . .
53(4) . . .
49(4) . . .
43.7(35) . . .
48(4) . . .
40.7(33) . . .
45(4) . . .
47(4) . . .
50(4) . . .
50(4) . . .
43.8(35) . . .
44(4) . . .
51(4) . . .
41.1(34) . . .
52(4) . . .
52(4) . . .
40.8(34) . . .
50(4) . . .
53(4) . . .
49(4) . . .
42.6(34) . . .
47(4) . . .
41.4(34) . . .
52(4) . . .
44(4) . . .
48(4) . . .
40.5(34) . . .
39.7(33) . . .
47(4) . . .
51(4) . . .
37.5(33) . . .
50(4) . . .
48(4) . . .
49(4) . . .
39.1(33) . . .
52(4) . . .
43(4) . . .
46(4) . . .
51(4) . . .
38.8(33) . . .
45(4) . . .
48(4) . . .
55(4) . . .
46(4) . . .
39.8(34) . . .
42(4) . . .
47(4) . . .
55(4) . . .
51(4) . . .
45(4) . . .
53(4) . . .
44.2(34) . . .
45(4) . . .
46(4) . . .
49(4) . . .
48(4) . . .
53(4) . . .
39.4(33) . . .
50(4) . . .
48(4) . . .
51(4) . . .
41.9(35) . . .
54(4) . . .
38.4(33) . . .
54(4) . . .
57(4) . . .
54(4) . . .
44.4(35) . . .
57(4) . . .
50(4) . . .
51(4) . . .
45(4) . . .
47(4) . . .
39.5(34) . . .
45(4) . . .
54(4) . . .
49(4) . . .
47(4) . . .
43(4) . . .
43.1(35) . . .
47(4) . . .
43.3(35) . . .
41.8(34) . . .
41.0(34) . . .
42.6(35) . . .
47(4) . . .
45(4) . . .
40.3(33) . . .
43(4) . . .
48(4) . . .
56(4) . . .
44.4(35) . . .
36.0(31) . . .
55(4) . . .
42(4) . . .
41.9(34) . . .
51(4) . . .
56(4) . . .
48(4) . . .
39.8(35) . . .
45(4) . . .
48(4) . . .
42.1(34) . . .
49(4) . . .
53(4) . . .
47(4) . . .
53(4) . . .
54(4) . . .
45.0(34) . . .
48(4) . . .
43(4) . . .
33.8(31) . . .
43.8(35) . . .
44(4) . . .
42(4) . . .
55(4) . . .
41.6(33) . . .
32.5(30) . . .
41(4) . . .
51(4) . . .
40.0(33) . . .
50(4) . . .
43.3(34) . . .
57(4) . . .
56(4) . . .
53(4) . . .
50(4) . . .
43(4) . . .
41(4) . . .
45(4) . . .
54(4) . . .
52(4) . . .
38.4(33) . . .
46(4) . . .
47(4) . . .
41.8(33) . . .
54(4) . . .
44(4) . . .
42(4) . . .
34.5(31) . . .
42.9(34) . . .
53(4) . . .
48(4) . . .
40.0(34) . . .
48(4) . . .
56(4) . . .
53(4) . . .
46(4) . . .
51(4) . . .
47(4) . . .
46(4) . . .
42.4(33) . . .
40.8(33) . . .
47(4) . . .
49(4) . . .
44.6(34) . . .
55(4) . . .
47(4) . . .
45(4) . . .
40.4(34) . . .
53(4) . . .
44.3(34) . . .
40.4(34) . . .
46(4) . . .
42.0(34) . . .
51(4) . . .
56(4) . . .
56(4) . . .
44(4) . . .
44(4) . . .
45.7(35) . . .
40.0(32) . . .
59(4) . . .
49(4) . . .
39.6(34) . . .
49(4) . . .
45(4) . . .
51(4) . . .
52(4) . . .
35.7(32) . . .
48(4) . . .
49(4) . . .
42(4) . . .
42.3(35) . . .
41.5(34) . . .
37.4(32) . . .
55(4) . . .
48(4) . . .
55(4) . . .
54(4) . . .
47(4) . . .
50(4) . . .
45(4) . . .
43(4) . . .
45.6(35) . . .
49(4) . . .
40(4) . . .
41(4) . . .
47(4) . . .
46(4) . . .
55(4) . . .
44(4) . . .
48(4) . . .
42(4) . . .
49(4) . . .
49(4) . . .
42.2(34) . . .
48(4) . . .
46(4) . . .
43.4(34) . . .
43.3(35) . . .
36.9(32) . . .
38.3(33) . . .
49(4) . . .
53(4) . . .
51(4) . . .
47(4) . . .
35.9(31) . . .
45(4) . . .
50(4) . . .
49(4) . . .
39.5(33) . . .
48(4) . . .
47(4) . . .
48(4) . . .
46(4) . . .
51(4) . . .
47(4) . . .
51(4) . . .
39.9(33) . . .
54(4) . . .
45(4) . . .
49(4) . . .
43.6(34) . . .
62(4) . . .
47(4) . . .
55(4) . . .
47(4) . . .
44.9(35) . . .
39.6(33) . . .
45(4) . . .
43(4) . . .
41.2(35) . . .
44(4) . . .
45.8(35) . . .
49(4) . . .
42(4) . . .
46(4) . . .
48(4) . . .
53(4) . . .
49(4) . . .
45(4) . . .
49(4) . . .
48(4) . . .
47(4) . . .
37.0(32) . . .
48(4) . . .
44(4) . . .
44.7(34) . . .
44.3(34) . . .
43(4) . . .
42.3(35) . . .
46(4) . . .
42.1(34) . . .
55(4) . . .
47(4) . . .
51(4) . . .
39.7(34) . . .
42.0(34) . . .
50(4) . . .
51(4) . . .
47(4) . . .
44(4) . . .
49(4) . . .
49(4) . . .
48(4) . . .
41.5(34) . . .
47(4) . . .
44.4(34) . . .
52(4) . . .
42.6(34) . . .
40.7(35) . . .
47(4) . . .
30.2(29) . . .
39.0(34) . . .
45(4) . . .
42.4(34) . . .
44.1(34) . . .
48(4) . . .
54(4) . . .
43(4) . . .
39.9(32) . . .
50(4) . . .
50(4) . . .
53(4) . . .
41(4) . . .
43(4) . . .
38.3(32) . . .
51(4) . . .
51(4) . . .
46(4) . . .
49(4) . . .
48(4) . . .
52(4) . . .
52(4) . . .
46(4) . . .
46(4) . . .
46(4) . . .
48(4) . . .
60(4) . . .
49(4) . . .
41.1(35) . . .
41.1(33) . . .
41.1(33) . . .
54(4) . . .
47(4) . . .
51(4) . . .
50(4) . . .
47(4) . . .
42(4) . . .
47(4) . . .
40.1(33) . . .
43.6(34) . . .
46(4) . . .
45(4) . . .
26.0(27) . . .
43(4) . . .
50(4) . . .
40.5(34) . . .
51(4) . . .
49(4) . . .
36.2(33) . . .
44.2(35) . . .
41.0(34) . . .
43.7(35) . . .
50(4) . . .
49(4) . . .
49(4) . . .
52(4) . . .
50(4) . . .
47(4) . . .
51(4) . . .
44.3(34) . . .
49(4) . . .
50(4) . . .
49(4) . . .
50(4) . . .
50(4) . . .
51(4) . . .
44(4) . . .
44(4) . . .
42.5(34) . . .
56(4) . . .
46.1(35) . . .
48(4) . . .
54(4) . . .
46(4) . . .
47(4) . . .
41(4) . . .
40(4) . . .
45(4) . . .
45.5(35) . . .
37.3(32) . . .
35.9(31) . . .
38.6(32) . . .
50(4) . . .
36.7(31) . . .
48(4) . . .
48(4) . . .
54(4) . . .
47(4) . . .
53(4) . . .
42.1(35) . . .
43(4) . . .
41.3(34) . . .
41.7(34) . . .
63(4) . . .
56(4) . . .
46(4) . . .
43(4) . . .
43.3(34) . . .
47.4(35) . . .
41.5(35) . . .
48(4) . . .
50(4) . . .
54(4) . . .
43.4(35) . . .
50(4) . . .
50(4) . . .
43.2(35) . . .
50(4) . . .
45.2(35) . . .
48(4) . . .
43.2(34) . . .
50(4) . . .
54(4) . . .
48(4) . . .
39.2(32) . . .
47(4) . . .
48(4) . . .
50(4) . . .
39.8(33) . . .
43(4) . . .
42(4) . . .
41.4(35) . . .
51(4) . . .
49(4) . . .
49(4) . . .
48(4) . . .
49(4) . . .
43.1(34) . . .
36.1(32) . . .
44(4) . . .
39(4) . . .
44(4) . . .
45.2(35) . . .
41.4(34) . . .
47(4) . . .
44(4) . . .
50(4) . . .
48(4) . . .
59(4) . . .
40.5(33) . . .
44.0(35) . . .
52(4) . . .
42.5(34) . . .
41.5(34) . . .
49(4) . . .
49(4) . . .
45.0(35) . . .
47(4) . . .
42.4(34) . . .
44.3(35) . . .
47(4) . . .
56(4) . . .
50(4) . . .
46(4) . . .
49(4) . . .
46(4) . . .
51(4) . . .
58(4) . . .
52(4) . . .
58(4) . . .
47(4) . . .
49(4) . . .
47(4) . . .
45(4) . . .
46(4) . . .
44.0(34) . . .
50(4) . . .
48(4) . . .
46(4) . . .
46(4) . . .
50(4) . . .
40.3(34) . . .
41.0(33) . . .
38.6(32) . . .
45(4) . . .
52(4) . . .
47(4) . . .
44(4) . . .
44(4) . . .
49(4) . . .
40.5(32) . . .
41.8(34) . . .
53(4) . . .
47(4) . . .
42(4) . . .
42(4) . . .
43.9(34) . . .
51(4) . . .
43(4) . . .
45(4) . . .
53(4) . . .
50(4) . . .
52(4) . . .
49(4) . . .
44(4) . . .
46(4) . . .
51(4) . . .
45(4) . . .
44(4) . . .
51(4) . . .
42.8(35) . . .
49(4) . . .
50(4) . . .
43(4) . . .
43(4) . . .
52(4) . . .
46(4) . . .
61(4) . . .
43(4) . . .
48(4) . . .
42.1(35) . . .
38.2(32) . . .
44(4) . . .
46(4) . . .
54(4) . . .
41.9(34) . . .
47(4) . . .
36.0(32) . . .
49(4) . . .
45(4) . . .
43.4(34) . . .
39.9(33) . . .
48(4) . . .
55(4) . . .
52(4) . . .
51(4) . . .
44.5(34) . . .
47(4) . . .
50(4) . . .
43(4) . . .
38.0(32) . . .
48(4) . . .
57(4) . . .
53(4) . . .
48(4) . . .
41.6(34) . . .
49(4) . . .
42.9(35) . . .
38.7(33) . . .
38.5(34) . . .
38.5(32) . . .
40.9(34) . . .
41.0(34) . . .
46(4) . . .
46(4) . . .
54(4) . . .
48(4) . . .
48(4) . . .
44(4) . . .
42.9(34) . . .
49(4) . . .
45(4) . . .
41(4) . . .
46(4) . . .
49(4) . . .
39.7(33) . . .
43(4) . . .
42(4) . . .
42.2(35) . . .
43.8(34) . . .
50(4) . . .
47(4) . . .
36.1(31) . . .
50(4) . . .
43.8(35) . . .
46.0(35) . . .
47(4) . . .
54(4) . . .
47(4) . . .
41.5(33) . . .
34.3(32) . . .
55(4) . . .
51(4) . . .
46(4) . . .
43.8(34) . . .
60(4) . . .
45(4) . . .
47(4) . . .
42.0(34) . . .
46(4) . . .
47(4) . . .
34.7(30) . . .
47(4) . . .
46(4) . . .
46(4) . . .
46(4) . . .
58(4) . . .
59(4) . . .
48(4) . . .
54(4) . . .
47(4) . . .
37.3(33) . . .
42(4) . . .
37.7(33) . . .
38.6(33) . . .
41(4) . . .
53(4) . . .
52(4) . . .
48(4) . . .
48(4) . . .
46(4) . . .
41.8(34) . . .
47(4) . . .
48(4) . . .
46(4) . . .
40(4) . . .
51(4) . . .
52(4) . . .
58(4) . . .
42.0(34) . . .
37.2(32) . . .
59(4) . . .
40.8(33) . . .
48(4) . . .
33.1(30) . . .
37.5(34) . . .
38.1(34) . . .
48(4) . . .
58(4) . . .
46.1(35) . . .
53(4) . . .
44(4) . . .
52(4) . . .
48(4) . . .
50(4) . . .
48(4) . . .
52(4) . . .
40.2(33) . . .
51(4) . . .
48(4) . . .
50(4) . . .
43(4) . . .
44(4) . . .
48(4) . . .
54(4) . . .
54(4) . . .
47(4) . . .
52(4) . . .
50(4) . . .
46.5(35) . . .
46(4) . . .
33.7(32) . . .
49(4) . . .
43.7(34) . . .
38.9(33) . . .
48(4) . . .
47(4) . . .
48(4) . . .
50(4) . . .
44.2(35) . . .
52(4) . . .
48(4) . . .
53(4) . . .
41.7(33) . . .
42(4) . . .
45(4) . . .
43(4) . . .
50(4) . . .
54(4) . . .
51(4) . . .
39.1(35) . . .
37.7(32) . . .
42.8(35) . . .
43.6(35) . . .
46(4) . . .
44(4) . . .
34.8(31) . . .
42.6(35) . . .
48(4) . . .
46(4) . . .
47(4) . . .
39.4(32) . . .
50(4) . . .
54(4) . . .
39.4(33) . . .
42(4) . . .
41.9(35) . . .
41.1(34) . . .
38.4(33) . . .
57(4) . . .
42(4) . . .
49(4) . . .
53(4) . . .
46(4) . . .
44(4) . . .
43(4) . . .
55(4) . . .
50(4) . . .
44.4(35) . . .
46(4) . . .
56(4) . . .
50(4) . . .
52(4) . . .
49(4) . . .
47(4) . . .
59(4) . . .
36.9(33) . . .
48(4) . . .
46(4) . . .
38.9(34) . . .
51(4) . . .
42.9(35) . . .
48(4) . . .
43.0(34) . . .
55(4) . . .
55(4) . . .
40.5(33) . . .
51(4) . . .
44(4) . . .
47(4) . . .
55(4) . . .
57(4) . . .
46(4) . . .
44(4) . . .
39.5(34) . . .
42(4) . . .
45(4) . . .
40.0(33) . . .
46(4) . . .
48(4) . . .
38.7(33) . . .
34.2(30) . . .
41.2(33) . . .
43(4) . . .
47(4) . . .
49(4) . . .
49(4) . . .
47(4) . . .
44(4) . . .
35.1(32) . . .
38.7(33) . . .
52(4) . . .
51(4) . . .
47(4) . . .
41(4) . . .
35.2(32) . . .
40.2(34) . . .
43(4) . . .
54(4) . . .
43.7(34) . . .
59(4) . . .
51(4) . . .
43.6(35) . . .
49(4) . . .
46(4) . . .
48(4) . . .
39.0(33) . . .
43(4) . . .
44(4) . . .
44(4) . . .
49(4) . . .
51(4) . . .
40.5(33) . . .
53(4) . . .
42.6(35) . . .
49(4) . . .
34.3(31) . . .
56(4) . . .
52(4) . . .
44(4) . . .
43.0(34) . . .
40.4(34) . . .
41.3(34) . . .
39.2(33) . . .
40.7(35) . . .
46(4) . . .
46.5(35) . . .
35.9(32) . . .
36.2(31) . . .
38.3(33) . . .
33.1(30) . . .
36.7(32) . . .
53(4) . . .
41(4) . . .
39.0(34) . . .
56(4) . . .
52(4) . . .
42.7(34) . . .
45(4) . . .
45(4) . . .
37.7(32) . . .
39.5(34) . . .
46(4) . . .
44(4) . . .
46(4) . . .
38.2(32) . . .
42.6(35) . . .
53(4) . . .
35.9(32) . . .
45(4) . . .
50(4) . . .
46(4) . . .
43(4) . . .
31.7(30) . . .
47(4) . . .
45(4) . . .
41.8(34) . . .
50(4) . . .
43(4) . . .
39.1(32) . . .
41.6(34) . . .
54(4) . . .
46(4) . . .
50(4) . . .
48(4) . . .
43(4) . . .
42.8(35) . . .
48(4) . . .
40.4(33) . . .
47(4) . . .
55(4) . . .
46(4) . . .
51(4) . . .
40.6(33) . . .
38.4(32) . . .
41.7(34) . . .
46(4) . . .
41(4) . . .
45(4) . . .
42(4) . . .
42.0(34) . . .
48(4) . . .
39.3(34) . . .
44(4) . . .
48(4) . . .
46(4) . . .
52(4) . . .
41(4) . . .
46(4) . . .
36.0(31) . . .
38.7(32) . . .
43.7(34) . . .
44(4) . . .
47(4) . . .
45(4) . . .
44.0(34) . . .
53(4) . . .
57(4) . . .
44(4) . . .
50(4) . . .
42.6(34) . . .
40.4(34) . . .
37.4(32) . . .
40.6(34) . . .
41.2(33) . . .
43.2(35) . . .
43(4) . . .
55(4) . . .
49(4) . . .
49(4) . . .
41.5(34) . . .
40.3(34) . . .
47(4) . . .
48(4) . . .
52(4) . . .
39.7(33) . . .
50(4) . . .
50(4) . . .
35.8(31) . . .
41.1(33) . . .
42.3(34) . . .
43(4) . . .
41.0(34) . . .
32.0(30) . . .
44.0(34) . . .
43(4) . . .
39.0(33) . . .
42.0(35) . . .
39.6(33) . . .
37.4(32) . . .
45.1(34) . . .
46(4) . . .
48(4) . . .
34.2(30) . . .
44.4(35) . . .
36.9(32) . . .
46(4) . . .
50(4) . . .
38.4(33) . . .
33.3(29) . . .
48(4) . . .
52(4) . . .
40.5(34) . . .
36.4(32) . . .
45(4) . . .
46(4) . . .
39.3(34) . . .
39.4(34) . . .
40.3(33) . . .
42(4) . . .
53(4) . . .
57(4) . . .
43.6(34) . . .
38.5(33) . . .
51(4) . . .
43(4) . . .
31.0(29) . . .
46(4) . . .
40.2(33) . . .
45(4) . . .
44(4) . . .
37.5(35) . . .
35.4(31) . . .
52(4) . . .
46(4) . . .
42(4) . . .
39.2(32) . . .
54(4) . . .
41.7(33) . . .
44(4) . . .
50(4) . . .
45(4) . . .
38.7(33) . . .
46(4) . . .
42(4) . . .
33.7(31) . . .
42(4) . . .
52(4) . . .
45.5(35) . . .
45(4) . . .
51(4) . . .
47(4) . . .
48(4) . . .
47(4) . . .
48(4) . . .
50(4) . . .
41(4) . . .
40.2(33) . . .
52(4) . . .
48(4) . . .
44(4) . . .
48(4) . . .
47(4) . . .
44.4(35) . . .
37.5(34) . . .
43(4) . . .
37.7(33) . . .
44.2(35) . . .
43.2(35) . . .
42.2(35) . . .
40(4) . . .
38.4(34) . . .
40.5(33) . . .
42.5(34) . . .
35.2(31) . . .
46(4) . . .
42.2(35) . . .
47(4) . . .
44.2(35) . . .
52(4) . . .
48(4) . . .
51(4) . . .
51(4) . . .
48(4) . . .
42(4) . . .
36.8(33) . . .
44(4) . . .
51(4) . . .
43.3(35) . . .
43(4) . . .
39(4) . . .
37.2(33) . . .
46(4) . . .
42.7(34) . . .
52(4) . . .
40.8(34) . . .
37.9(32) . . .
40.5(34) . . .
43(4) . . .
49(4) . . .
54(4) . . .
58(4) . . .
50(4) . . .
37.0(31) . . .
42(4) . . .
45(4) . . .
46(4) . . .
41.8(33) . . .
44(4) . . .
46(4) . . .
33.6(33) . . .
40.1(33) . . .
40.6(33) . . .
36.8(32) . . .
39.2(34) . . .
39.2(34) . . .
44.0(35) . . .
41.3(35) . . .
35.3(33) . . .
37.6(34) . . .
45(4) . . .
42.7(34) . . .
39(4) . . .
40.2(35) . . .
52(4) . . .
47(4) . . .
39.8(33) . . .
42.5(34) . . .
46(4) . . .
45(4) . . .
43.7(35) . . .
40.5(33) . . .
47(4) . . .
39(4) . . .
38.3(34) . . .
40.2(34) . . .
37.1(32) . . .
38.0(32) . . .
44(4) . . .
50(4) . . .
46(4) . . .
49(4) . . .
49(4) . . .
47(4) . . .
50(4) . . .
37.3(32) . . .
45(4) . . .
46(4) . . .
45(4) . . .
46(4) . . .
43.5(34) . . .
40.7(33) . . .
49(4) . . .
38.7(32) . . .
40.7(34) . . .
51(4) . . .
49(4) . . .
46(4) . . .
39.4(33) . . .
45(4) . . .
50(4) . . .
34.3(30) . . .
43(4) . . .
43(4) . . .
36.2(32) . . .
48(4) . . .
43.1(35) . . .
31.9(28) . . .
42.2(34) . . .
37.9(33) . . .
43.1(34) . . .
47(4) . . .
46(4) . . .
44(4) . . .
47(4) . . .
47(4) . . .
29.1(29) . . .
40(4) . . .
37.6(33) . . .
48(4) . . .
55(4) . . .
58(4) . . .
53(4) . . .
45(4) . . .
50(4) . . .
49(4) . . .
50(4) . . .
46(4) . . .
41.8(33) . . .
45.5(35) . . .
42.0(33) . . .
38.1(33) . . .
45(4) . . .
36.8(32) . . .
41.7(34) . . .
40.5(33) . . .
43(4) . . .
47(4) . . .
39.1(32) . . .
40.0(33) . . .
43.4(35) . . .
41.1(35) . . .
44(4) . . .
38.7(33) . . .
39.6(33) . . .
43.0(34) . . .
43(4) . . .
51(4) . . .
44(4) . . .
36.2(31) . . .
37.3(33) . . .
50(4) . . .
44(4) . . .
51(4) . . .
37.3(32) . . .
48(4) . . .
45(4) . . .
49(4) . . .
42(4) . . .
37.8(32) . . .
41.9(34) . . .
45.2(35) . . .
47(4) . . .
40(4) . . .
49(4) . . .
44(4) . . .
42(4) . . .
42(4) . . .
40.7(34) . . .
36.9(31) . . .
42.7(35) . . .
41.9(33) . . .
41.0(35) . . .
43.2(34) . . .
44.1(35) . . .
41.4(34) . . .
45(4) . . .
43(4) . . .
50(4) . . .
40.3(32) . . .
49(4) . . .
45(4) . . .
49(4) . . .
47(4) . . .
37.8(32) . . .
43(4) . . .
46(4) . . .
46(4) . . .
46(4) . . .
41.4(34) . . .
43(4) . . .
43(4) . . .
50(4) . . .
45.6(35) . . .
43.8(34) . . .
42(4) . . .
46(4) . . .
42.8(35) . . .
44(4) . . .
45.3(35) . . .
43(4) . . .
34.4(30) . . .
38.0(35) . . .
47(4) . . .
47(4) . . .
47(4) . . .
54(4) . . .
39.0(34) . . .
40.8(34) . . .
45(4) . . .
44(4) . . .
40(4) . . .
35.5(33) . . .
37.4(32) . . .
34.2(32) . . .
48(4) . . .
46(4) . . .
36.5(31) . . .
43.7(35) . . .
44.0(35) . . .
38.7(33) . . .
46(4) . . .
40.1(34) . . .
41.6(34) . . .
33.7(32) . . .
37.9(35) . . .
41.9(34) . . .
53(4) . . .
45(4) . . .
38.1(33) . . .
45(4) . . .
42(4) . . .
44(4) . . .
48(4) . . .
39.0(33) . . .
46(4) . . .
52(4) . . .
46(4) . . .
48(4) . . .
39.7(33) . . .
45(4) . . .
48(4) . . .
41.6(34) . . .
53(4) . . .
42.4(35) . . .
38.9(35) . . .
35.4(32) . . .
47(4) . . .
45(4) . . .
50(4) . . .
41.5(34) . . .
40(4) . . .
41.9(33) . . .
40.8(33) . . .
44.2(34) . . .
52(4) . . .
39.3(33) . . .
38.8(32) . . .
51(4) . . .
49(4) . . .
39.4(34) . . .
39.3(33) . . .
44.0(34) . . .
44(4) . . .
37.5(32) . . .
50(4) . . .
42.0(33) . . .
45(4) . . .
41.4(34) . . .
38.7(33) . . .
34.8(31) . . .
51(4) . . .
36.7(32) . . .
43(4) . . .
38.2(34) . . .
37.4(34) . . .
49(4) . . .
43.3(34) . . .
47(4) . . .
48(4) . . .
49(4) . . .
37.9(32) . . .
45.5(35) . . .
54(4) . . .
51(4) . . .
40.7(33) . . .
32.7(30) . . .
42.8(34) . . .
53(4) . . .
42.1(35) . . .
46(4) . . .
36.1(31) . . .
46(4) . . .
33.8(30) . . .
48(4) . . .
45(4) . . .
48(4) . . .
50(4) . . .
50(4) . . .
35.6(33) . . .
40(4) . . .
36.9(32) . . .
37.6(32) . . .
40.7(35) . . .
43(4) . . .
39.5(34) . . .
41.1(35) . . .
39.8(33) . . .
44(4) . . .
45(4) . . .
50(4) . . .
49(4) . . .
41.0(33) . . .
36.8(32) . . .
38.1(32) . . .
43.7(35) . . .
42.7(34) . . .
47(4) . . .
38.2(31) . . .
32.0(29) . . .
44(4) . . .
44.3(35) . . .
31.9(30) . . .
35.3(31) . . .
36.5(33) . . .
40.0(33) . . .
46(4) . . .
46(4) . . .
43(4) . . .
34.9(31) . . .
34.8(31) . . .
49(4) . . .
41.0(34) . . .
39(4) . . .
38(4) . . .
40.7(34) . . .
47(4) . . .
45(4) . . .
48(4) . . .
46.7(35) . . .
45(4) . . .
40.0(34) . . .
35.6(31) . . .
40(4) . . .
43.3(34) . . .
44.8(35) . . .
50(4) . . .
30.7(30) . . .
39(4) . . .
49(4) . . .
30.9(29) . . .
44.9(35) . . .
34.9(31) . . .
44(4) . . .
41.0(33) . . .
39.2(33) . . .
47(4) . . .
47(4) . . .
52(4) . . .
36.7(33) . . .
43.0(35) . . .
46(4) . . .
42.9(35) . . .
48(4) . . .
45(4) . . .
43.0(35) . . .
39.9(34) . . .
39.3(33) . . .
42.2(35) . . .
40.4(33) . . .
41.6(33) . . .
55(4) . . .
49(4) . . .
40.9(35) . . .
44.5(35) . . .
40.7(33) . . .
42.5(35) . . .
44(4) . . .
37.7(34) . . .
39.7(33) . . .
41.5(33) . . .
44(4) . . .
43(4) . . .
39.0(33) . . .
39.1(33) . . .
32.0(30) . . .
45(4) . . .
42.6(35) . . .
51(4) . . .
42.0(34) . . .
44.9(35) . . .
35.5(31) . . .
38.0(34) . . .
48(4) . . .
39.3(33) . . .
32.7(29) . . .
45(4) . . .
40(4) . . .
39.8(35) . . .
42.1(33) . . .
41.9(34) . . .
48(4) . . .
45(4) . . .
39.4(34) . . .
37.7(32) . . .
36.1(31) . . .
49(4) . . .
43(4) . . .
41(4) . . .
48(4) . . .
43.2(34) . . .
49(4) . . .
50(4) . . .
45(4) . . .
46(4) . . .
49(4) . . .
46(4) . . .
43.5(35) . . .
39.7(33) . . .
44.4(35) . . .
43(4) . . .
43(4) . . .
44(4) . . .
35.9(31) . . .
44.0(34) . . .
40(4) . . .
38.1(32) . . .
51(4) . . .
43.4(35) . . .
47(4) . . .
48(4) . . .
40.3(34) . . .
35.4(32) . . .
42.3(34) . . .
40(4) . . .
46(4) . . .
42(4) . . .
39.6(33) . . .
38.6(32) . . .
42.0(34) . . .
53(4) . . .
55(4) . . .
37.2(32) . . .
39.8(33) . . .
40.8(33) . . .
42.3(35) . . .
44(4) . . .
41.6(34) . . .
38.9(33) . . .
37.6(32) . . .
49(4) . . .
40.7(34) . . .
48(4) . . .
39.2(33) . . .
43.6(35) . . .
36.8(31) . . .
45(4) . . .
49(4) . . .
39.9(33) . . .
44.0(34) . . .
37.2(33) . . .
45(4) . . .
46(4) . . .
37.3(32) . . .
42.7(35) . . .
36.9(33) . . .
40(4) . . .
41.3(35) . . .
41.2(34) . . .
53(4) . . .
38.9(31) . . .
50(4) . . .
47(4) . . .
38.6(32) . . .
35.0(31) . . .
40.4(34) . . .
37.8(33) . . .
45(4) . . .
37.0(32) . . .
36.9(33) . . .
43(4) . . .
37.3(32) . . .
40.8(34) . . .
51(4) . . .
53(4) . . .
36.7(32) . . .
45(4) . . .
40.2(33) . . .
45.2(35) . . .
44(4) . . .
34.6(32) . . .
44(4) . . .
40.2(34) . . .
48(4) . . .
47(4) . . .
43(4) . . .
46(4) . . .
50(4) . . .
43.9(35) . . .
40.0(34) . . .
42(4) . . .
39(4) . . .
40.4(33) . . .
35.4(31) . . .
32.1(29) . . .
30.0(28) . . .
43(4) . . .
40.3(33) . . .
51(4) . . .
41.3(34) . . .
39.6(35) . . .
32.5(31) . . .
35.5(31) . . .
46(4) . . .
36.8(32) . . .
39(4) . . .
43(4) . . .
47(4) . . .
48(4) . . .
45(4) . . .
37.7(33) . . .
45(4) . . .
34.3(31) . . .
37.8(33) . . .
44(4) . . .
43(4) . . .
52(4) . . .
46(4) . . .
47(4) . . .
41.3(35) . . .
44(4) . . .
51(4) . . .
36.8(31) . . .
45(4) . . .
40.1(34) . . .
37.1(31) . . .
42.7(34) . . .
43.3(34) . . .
43(4) . . .
48(4) . . .
51(4) . . .
46(4) . . .
38.0(32) . . .
45(4) . . .
44(4) . . .
44(4) . . .
38.5(32) . . .
46(4) . . .
40.3(34) . . .
46(4) . . .
33.3(31) . . .
29.6(29) . . .
41.5(35) . . .
47(4) . . .
37.2(32) . . .
36.7(32) . . .
41.1(33) . . .
47(4) . . .
50(4) . . .
47(4) . . .
34.0(31) . . .
45(4) . . .
39.3(33) . . .
40.6(34) . . .
42.4(34) . . .
39.4(34) . . .
39.3(33) . . .
48(4) . . .
45(4) . . .
45(4) . . .
46(4) . . .
28.7(28) . . .
39.5(34) . . .
43(4) . . .
45(4) . . .
47(4) . . .
43.2(34) . . .
49(4) . . .
51(4) . . .
48(4) . . .
46(4) . . .
44.8(35) . . .
35.3(31) . . .
46(4) . . .
33.0(30) . . .
42.4(34) . . .
51(4) . . .
45(4) . . .
48(4) . . .
44(4) . . .
50(4) . . .
45(4) . . .
48(4) . . .
42(4) . . .
46(4) . . .
45(4) . . .
35.9(31) . . .
39.5(33) . . .
41(4) . . .
40.5(35) . . .
38.2(32) . . .
40.7(34) . . .
39(4) . . .
50(4) . . .
45(4) . . .
32.2(29) . . .
38.5(34) . . .
41.4(35) . . .
44(4) . . .
42.6(35) . . .
39.8(33) . . .
41.5(34) . . .
35.6(32) . . .
38.3(35) . . .
38.0(34) . . .
44.8(34) . . .
40.1(33) . . .
48(4) . . .
38.4(34) . . .
35.8(31) . . .
48(4) . . .
46(4) . . .
40.3(34) . . .
40.5(34) . . .
49(4) . . .
41.8(33) . . .
37.3(32) . . .
44(4) . . .
47(4) . . .
36.3(32) . . .
52(4) . . .
39.9(34) . . .
44(4) . . .
40.0(33) . . .
42.8(34) . . .
47(4) . . .
45(4) . . .
35.1(33) . . .
42(4) . . .
43.8(34) . . .
53(4) . . .
40.2(34) . . .
44(4) . . .
51(4) . . .
41.8(33) . . .
46(4) . . .
43.7(35) . . .
50(4) . . .
50(4) . . .
47(4) . . .
49(4) . . .
41.3(33) . . .
46(4) . . .
40.6(34) . . .
37.2(32) . . .
49(4) . . .
46(4) . . .
44(4) . . .
37(4) . . .
44(4) . . .
38.5(32) . . .
36.2(32) . . .
47(4) . . .
46(4) . . .
41.6(34) . . .
40.8(33) . . .
46(4) . . .
42(4) . . .
38.1(33) . . .
41.2(34) . . .
46(4) . . .
40.5(34) . . .
44(4) . . .
44.8(35) . . .
41.8(34) . . .
40.8(35) . . .
40.1(35) . . .
46(4) . . .
45(4) . . .
42.2(34) . . .
38.9(34) . . .
32.6(31) . . .
40.8(33) . . .
44(4) . . .
39.1(32) . . .
46(4) . . .
53(4) . . .
39.3(33) . . .
47(4) . . .
50(4) . . .
47(4) . . .
49(4) . . .
41(4) . . .
38.6(33) . . .
38.5(33) . . .
36.8(33) . . .
42(4) . . .
31.7(31) . . .
38.9(33) . . .
49(4) . . .
47(4) . . .
38.0(34) . . .
56(4) . . .
52(4) . . .
44(4) . . .
39(4) . . .
42(4) . . .
34.8(32) . . .
44.7(34) . . .
43.4(35) . . .
49(4) . . .
36.6(32) . . .
37.6(33) . . .
39.2(33) . . .
41.9(35) . . .
44(4) . . .
47(4) . . .
42.0(34) . . .
42.9(35) . . .
47(4) . . .
38.8(33) . . .
43.6(35) . . .
44.0(35) . . .
39.5(33) . . .
41.3(34) . . .
41.2(34) . . .
43.8(35) . . .
36.9(32) . . .
39.4(34) . . .
47(4) . . .
48(4) . . .
47(4) . . .
35.6(31) . . .
40.8(34) . . .
39.8(33) . . .
46(4) . . .
41.3(34) . . .
46(4) . . .
44.7(35) . . .
47(4) . . .
51(4) . . .
47(4) . . .
36.0(32) . . .
41.6(34) . . .
36.7(32) . . .
30.4(30) . . .
37.3(32) . . .
43.4(34) . . .
38.4(32) . . .
43(4) . . .
46(4) . . .
47(4) . . .
42.4(34) . . .
41.6(34) . . .
39.2(33) . . .
43(4) . . .
38.2(33) . . .
39.3(33) . . .
39.8(33) . . .
42(4) . . .
32.0(30) . . .
41.2(35) . . .
41.3(33) . . .
47(4) . . .
42.2(35) . . .
41.5(34) . . .
39.2(33) . . .
38.2(32) . . .
37.9(34) . . .
42(4) . . .
43(4) . . .
37.2(33) . . .
43.1(34) . . .
43.6(35) . . .
40(4) . . .
44(4) . . .
45.3(35) . . .
41.1(33) . . .
47(4) . . .
53(4) . . .
41.0(33) . . .
52(4) . . .
47(4) . . .
39.4(35) . . .
44(4) . . .
43.5(34) . . .
41.1(33) . . .
39.2(33) . . .
45(4) . . .
44(4) . . .
46(4) . . .
46(4) . . .
47(4) . . .
33.6(30) . . .
39.0(32) . . .
39.4(34) . . .
44.7(35) . . .
52(4) . . .
44(4) . . .
49(4) . . .
48(4) . . .
37.7(32) . . .
38.7(32) . . .
40(4) . . .
42(4) . . .
38.2(34) . . .
41.5(33) . . .
50(4) . . .
38.3(32) . . .
38.8(33) . . .
36.6(33) . . .
38.8(33) . . .
36.6(32) . . .
45(4) . . .
44(4) . . .
44.8(35) . . .
28.9(28) . . .
43.0(35) . . .
46(4) . . .
38.7(35) . . .
47(4) . . .
50(4) . . .
40.6(34) . . .
38.9(33) . . .
37.1(33) . . .
44(4) . . .
53(4) . . .
47(4) . . .
30.3(29) . . .
42(4) . . .
42.1(34) . . .
44.2(35) . . .
43(4) . . .
42(4) . . .
45(4) . . .
42.6(34) . . .
41.9(34) . . .
40(4) . . .
42(4) . . .
61(4) . . .
47(4) . . .
41.9(33) . . .
35.9(33) . . .
37(4) . . .
37.1(33) . . .
44.8(35) . . .
50(4) . . .
38.3(34) . . .
41.9(35) . . .
37.1(32) . . .
35.0(31) . . .
42.3(34) . . .
43(4) . . .
43.0(35) . . .
43.9(34) . . .
43.1(34) . . .
48(4) . . .
38.1(32) . . .
41.6(35) . . .
48(4) . . .
50(4) . . .
42.0(34) . . .
46(4) . . .
44(4) . . .
39.0(34) . . .
48(4) . . .
37.1(33) . . .
35.7(33) . . .
33.5(31) . . .
45(4) . . .
45.4(34) . . .
41.2(33) . . .
40.3(32) . . .
40.7(34) . . .
45(4) . . .
39.5(33) . . .
36.0(32) . . .
47(4) . . .
36.3(33) . . .
34.3(30) . . .
37.3(32) . . .
41.7(35) . . .
39.7(33) . . .
36.5(32) . . .
40.1(34) . . .
40.4(34) . . .
52(4) . . .
37.8(34) . . .
40.0(33) . . .
42.2(34) . . .
39.0(33) . . .
46(4) . . .
46(4) . . .
42(4) . . .
36.8(31) . . .
40.9(33) . . .
44(4) . . .
35.0(32) . . .
43(4) . . .
40.7(33) . . .
36.8(32) . . .
49(4) . . .
47(4) . . .
40.4(34) . . .
46(4) . . .
44(4) . . .
41.7(34) . . .
48(4) . . .
32.0(31) . . .
39.0(32) . . .
32.3(30) . . .
32.1(31) . . .
47(4) . . .
46(4) . . .
44.1(34) . . .
39.9(33) . . .
40.0(33) . . .
37.1(32) . . .
51(4) . . .
39.5(33) . . .
41.4(35) . . .
42(4) . . .
45(4) . . .
49(4) . . .
40.2(34) . . .
42(4) . . .
44(4) . . .
47(4) . . .
41.0(34) . . .
35.9(32) . . .
37.7(34) . . .
43(4) . . .
35.0(32) . . .
48(4) . . .
51(4) . . .
43(4) . . .
38.0(34) . . .
47(4) . . .
42.6(34) . . .
46(4) . . .
44(4) . . .
45(4) . . .
43(4) . . .
41.2(33) . . .
33.5(31) . . .
40.5(34) . . .
44(4) . . .
42.8(35) . . .
37.3(32) . . .
38.8(32) . . .
47(4) . . .
29.4(29) . . .
44(4) . . .
45.7(35) . . .
45(4) . . .
43.4(35) . . .
43.9(35) . . .
43(4) . . .
50(4) . . .
34.7(32) . . .
36.5(33) . . .
38.7(34) . . .
35.1(32) . . .
36.5(32) . . .
43(4) . . .
45(4) . . .
40.1(34) . . .
40.5(35) . . .
41.7(34) . . .
34.5(31) . . .
41.3(35) . . .
35.4(31) . . .
47(4) . . .
41.9(34) . . .
46(4) . . .
45(4) . . .
44(4) . . .
44(4) . . .
40.6(33) . . .
42(4) . . .
32.2(30) . . .
45(4) . . .
45.1(35) . . .
41.0(33) . . .
48(4) . . .
48(4) . . .
34.4(31) . . .
36.2(32) . . .
46(4) . . .
39.7(33) . . .
47(4) . . .
51(4) . . .
28.7(28) . . .
29.7(29) . . .
40(4) . . .
43(4) . . .
49(4) . . .
43.9(35) . . .
39.9(33) . . .
50(4) . . .
54(4) . . .
34.7(31) . . .
41.0(33) . . .
45(4) . . .
33.3(30) . . .
46(4) . . .
49(4) . . .
39.1(33) . . .
43(4) . . .
48(4) . . .
52(4) . . .
39.1(33) . . .
50(4) . . .
34.1(30) . . .
49(4) . . .
56(4) . . .
43.1(35) . . .
47(4) . . .
46(4) . . .
35.6(31) . . .
31.3(30) . . .
37.1(34) . . .
43.1(34) . . .
47(4) . . .
38.9(35) . . .
35.5(33) . . .
40.3(34) . . .
35.2(31) . . .
37.0(35) . . .
39.1(33) . . .
48(4) . . .
42.1(34) . . .
43.1(34) . . .
36.0(32) . . .
36.5(33) . . .
40.9(35) . . .
39.4(33) . . .
43.3(34) . . .
33.2(30) . . .
43(4) . . .
44(4) . . .
42.0(34) . . .
42.6(34) . . .
38.9(34) . . .
41(4) . . .
38.0(33) . . .
39.4(33) . . .
40.7(33) . . .
40.4(33) . . .
39.3(33) . . .
47(4) . . .
42.4(34) . . .
43.8(35) . . .
38.6(33) . . .
44(4) . . .
49(4) . . .
51(4) . . .
40.8(34) . . .
44(4) . . .
46(4) . . .
40.7(33) . . .
40.2(33) . . .
38.9(33) . . .
35.7(31) . . .
45(4) . . .
49(4) . . .
46(4) . . .
41.2(33) . . .
34.8(31) . . .
37.0(33) . . .
40.5(34) . . .
42.5(35) . . .
46(4) . . .
41(4) . . .
37.3(33) . . .
46(4) . . .
42.5(34) . . .
44(4) . . .
51(4) . . .
42(4) . . .
46(4) . . .
38.9(32) . . .
45(4) . . .
46(4) . . .
30.9(28) . . .
38.4(33) . . .
34.6(31) . . .
50(4) . . .
39.5(34) . . .
55(4) . . .
44.5(35) . . .
53(4) . . .
44.5(35) . . .
48(4) . . .
48(4) . . .
47(4) . . .
41.3(33) . . .
45(4) . . .
40.1(34) . . .
51(4) . . .
55(4) . . .
41.7(34) . . .
38.2(32) . . .
43.7(35) . . .
37.7(32) . . .
41.7(34) . . .
35.8(31) . . .
33.9(33) . . .
36.2(33) . . .
46(4) . . .
41.1(33) . . .
41.7(34) . . .
38.0(35) . . .
41(4) . . .
49(4) . . .
41.1(33) . . .
41(4) . . .
41.4(34) . . .
43(4) . . .
36.3(32) . . .
36.2(32) . . .
38.4(33) . . .
42(4) . . .
40.0(33) . . .
38.2(32) . . .
44.0(34) . . .
36.6(33) . . .
38(4) . . .
33.2(31) . . .
40.5(34) . . .
39.5(34) . . .
39.2(33) . . .
48(4) . . .
40.5(34) . . .
37.5(32) . . .
37.0(31) . . .
40.1(34) . . .
42(4) . . .
39.2(33) . . .
42.2(34) . . .
44.0(34) . . .
35.2(31) . . .
39(4) . . .
35.5(33) . . .
43.4(34) . . .
40.7(33) . . .
40.0(33) . . .
35.6(32) . . .
37.3(32) . . .
36.8(31) . . .
48(4) . . .
43.3(35) . . .
47(4) . . .
46(4) . . .
43.0(34) . . .
33.5(31) . . .
46(4) . . .
44(4) . . .
38.5(32) . . .
44(4) . . .
44(4) . . .
44(4) . . .
45(4) . . .
45(4) . . .
41.0(33) . . .
48(4) . . .
33.5(33) . . .
37.1(34) . . .
40.3(34) . . .
48(4) . . .
42.6(35) . . .
35.1(33) . . .
39.1(34) . . .
51(4) . . .
40.0(32) . . .
40.2(34) . . .
33.6(32) . . .
38.5(34) . . .
31.2(30) . . .
53(4) . . .
39.1(33) . . .
51(4) . . .
53(4) . . .
37.0(32) . . .
48(4) . . .
43.0(35) . . .
44(4) . . .
47(4) . . .
42.8(34) . . .
54(4) . . .
45(4) . . .
38.3(32) . . .
37.0(31) . . .
38.2(32) . . .
37.1(33) . . .
44(4) . . .
28.2(29) . . .
42(4) . . .
41.4(34) . . .
46(4) . . .
37.4(33) . . .
42(4) . . .
36.4(32) . . .
43.0(35) . . .
37.4(32) . . .
46(4) . . .
31.1(31) . . .
38(4) . . .
38.7(33) . . .
43.7(35) . . .
35.3(31) . . .
40.0(34) . . .
49(4) . . .
37.6(32) . . .
38.3(34) . . .
32.9(31) . . .
35.2(33) . . .
40(4) . . .
33.5(31) . . .
42(4) . . .
35.0(34) . . .
35.8(35) . . .
30.5(31) . . .
42.2(34) . . .
41(4) . . .
48(4) . . .
36.6(33) . . .
42.1(35) . . .
54(4) . . .
49(4) . . .
45(4) . . .
37.8(32) . . .
42.8(35) . . .
34.6(31) . . .
34.0(30) . . .
38.0(34) . . .
39.2(35) . . .
45.3(35) . . .
33.0(29) . . .
37.3(32) . . .
46(4) . . .
42.8(35) . . .
37.6(32) . . .
36.0(31) . . .
38.8(33) . . .
43(4) . . .
42(4) . . .
38.9(33) . . .
43(4) . . .
38.0(33) . . .
41(4) . . .
44(4) . . .
44.8(35) . . .
32.4(31) . . .
42(4) . . .
45(4) . . .
32.0(30) . . .
38.0(32) . . .
50(4) . . .
42(4) . . .
42(4) . . .
33.6(31) . . .
42.4(34) . . .
45.2(35) . . .
52(4) . . .
41(4) . . .
35.0(32) . . .
37.7(32) . . .
40.5(33) . . .
39.1(34) . . .
41(4) . . .
36.8(32) . . .
37.8(32) . . .
34.5(31) . . .
33.0(31) . . .
40.5(33) . . .
46(4) . . .
42.9(34) . . .
43(4) . . .
48(4) . . .
43.9(34) . . .
46(4) . . .
35.3(31) . . .
40.4(34) . . .
37.2(33) . . .
44.5(35) . . .
43.2(34) . . .
45(4) . . .
36.5(33) . . .
27.8(30) . . .
35.6(32) . . .
41.8(35) . . .
44.4(34) . . .
42.8(35) . . .
37.8(34) . . .
36.4(33) . . .
46(4) . . .
41.4(34) . . .
39(4) . . .
42(4) . . .
34.3(31) . . .
38.8(33) . . .
41.4(33) . . .
40.6(35) . . .
40(4) . . .
41.7(35) . . .
37.7(33) . . .
43.0(34) . . .
44(4) . . .
43.5(34) . . .
44(4) . . .
33.6(30) . . .
41(4) . . .
37.0(33) . . .
38.5(34) . . .
48(4) . . .
47(4) . . .
39.6(33) . . .
43.5(35) . . .
47(4) . . .
40.6(33) . . .
33.9(31) . . .
43(4) . . .
54(4) . . .
47(4) . . .
34.2(30) . . .
47(4) . . .
35.4(31) . . .
41(4) . . .
46(4) . . .
33.9(31) . . .
42.3(34) . . .
37.4(32) . . .
40(4) . . .
37.7(32) . . .
42(4) . . .
38.0(32) . . .
42.4(34) . . .
37.7(34) . . .
38(4) . . .
38.9(32) . . .
44.8(35) . . .
37.3(34) . . .
45(4) . . .
35.0(32) . . .
41.7(34) . . .
38.4(32) . . .
42(4) . . .
34.5(31) . . .
50(4) . . .
40.8(33) . . .
43.3(35) . . .
43(4) . . .
43(4) . . .
41(4) . . .
39.6(34) . . .
38.4(32) . . .
39.5(34) . . .
45(4) . . .
45(4) . . .
36.6(31) . . .
36.7(33) . . .
43(4) . . .
34.5(31) . . .
39.1(33) . . .
38.3(33) . . .
40(4) . . .
46(4) . . .
40.6(35) . . .
42.2(34) . . .
43.9(34) . . .
34.5(30) . . .
39.1(32) . . .
47(4) . . .
32.8(31) . . .
42.7(34) . . .
46(4) . . .
36.5(31) . . .
44(4) . . .
49(4) . . .
45(4) . . .
51(4) . . .
34.8(31) . . .
47(4) . . .
41.5(34) . . .
35.4(30) . . .
43(4) . . .
44(4) . . .
45.6(35) . . .
40.1(33) . . .
44.6(35) . . .
44(4) . . .
47(4) . . .
39.6(34) . . .
41.7(34) . . .
39.2(32) . . .
48(4) . . .
40.7(34) . . .
41.0(32) . . .
46(4) . . .
45(4) . . .
45(4) . . .
43(4) . . .
43(4) . . .
37.0(31) . . .
41.5(33) . . .
41.4(35) . . .
27.6(27) . . .
47(4) . . .
38.8(32) . . .
40(4) . . .
33.7(31) . . .
47(4) . . .
46(4) . . .
35.0(30) . . .
40.3(34) . . .
29.3(29) . . .
32.3(31) . . .
46(4) . . .
40.8(33) . . .
35.1(34) . . .
40(4) . . .
36.0(34) . . .
42.0(35) . . .
37.5(32) . . .
43(4) . . .
34.2(32) . . .
38.3(33) . . .
31.0(29) . . .
34.7(31) . . .
40.1(34) . . .
33.5(32) . . .
43(4) . . .
35.4(32) . . .
56(4) . . .
56(4) . . .
52(4) . . .
43.6(35) . . .
39.3(33) . . .
42.6(34) . . .
37.9(32) . . .
48(4) . . .
39.8(34) . . .
40.9(34) . . .
40.1(33) . . .
48(4) . . .
41(4) . . .
41.9(33) . . .
37.0(32) . . .
41.9(33) . . .
31.7(31) . . .
43(4) . . .
43.2(34) . . .
43.6(34) . . .
38.5(32) . . .
43(4) . . .
31.3(29) . . .
38.1(34) . . .
29.8(29) . . .
39.7(33) . . .
40(4) . . .
39.6(34) . . .
42.8(34) . . .
42.3(34) . . .
32.6(30) . . .
37.9(32) . . .
36.7(32) . . .
44(4) . . .
37.0(31) . . .
44(4) . . .
34.3(31) . . .
35.7(32) . . .
39.7(33) . . .
39.8(34) . . .
47(4) . . .
35.4(31) . . .
33.8(30) . . .
43.3(34) . . .
43.2(34) . . .
33.3(30) . . .
31.5(31) . . .
41(4) . . .
34.5(32) . . .
40.3(34) . . .
39.3(33) . . .
45(4) . . .
32.4(30) . . .
47(4) . . .
46(4) . . .
33.5(31) . . .
27.8(30) . . .
36.1(34) . . .
45(4) . . .
39.1(32) . . .
44(4) . . .
45(4) . . .
41.6(34) . . .
31.9(30) . . .
45.9(35) . . .
38.5(34) . . .
43(4) . . .
45.1(35) . . .
41.6(33) . . .
36.0(32) . . .
37.4(33) . . .
42(4) . . .
35.4(31) . . .
40.8(33) . . .
47(4) . . .
44(4) . . .
36.3(35) . . .
33.2(33) . . .
43(4) . . .
38.8(33) . . .
39.2(34) . . .
39.1(35) . . .
42(4) . . .
46(4) . . .
41.1(33) . . .
41.9(35) . . .
41.0(35) . . .
45(4) . . .
38.1(32) . . .
50(4) . . .
43(4) . . .
47(4) . . .
51(4) . . .
38.7(32) . . .
44(4) . . .
35.0(31) . . .
37.2(32) . . .
46(4) . . .
34.7(32) . . .
34(4) . . .
40(4) . . .
38.2(33) . . .
38.1(32) . . .
39.7(33) . . .
36.6(32) . . .
43(4) . . .
35.5(32) . . .
45.9(35) . . .
36.8(31) . . .
41.8(35) . . .
36.9(33) . . .
41.1(34) . . .
43(4) . . .
37.7(32) . . .
33.9(30) . . .
38.0(35) . . .
33.6(32) . . .
36.6(32) . . .
41.3(35) . . .
43(4) . . .
34.1(33) . . .
47(4) . . .
34.5(31) . . .
37.5(32) . . .
38(4) . . .
37.9(35) . . .
47(4) . . .
49(4) . . .
37.7(32) . . .
45(4) . . .
40.2(35) . . .
46(4) . . .
39.2(33) . . .
36.7(32) . . .
35.2(31) . . .
36.9(33) . . .
37.0(32) . . .
36.0(32) . . .
34.0(31) . . .
36.5(35) . . .
34.5(32) . . .
27.3(29) . . .
41.7(34) . . .
39(4) . . .
47(4) . . .
36(4) . . .
31.3(30) . . .
38.2(32) . . .
32.7(32) . . .
37.5(33) . . .
46(4) . . .
36.5(32) . . .
39.8(33) . . .
47(4) . . .
33.6(32) . . .
36.8(32) . . .
32.1(29) . . .
39.6(33) . . .
44(4) . . .
37.6(33) . . .
45(4) . . .
37.6(32) . . .
36.2(32) . . .
41.3(34) . . .
38.5(34) . . .
39.4(33) . . .
40.2(34) . . .
36.8(31) . . .
36.2(32) . . .
38(4) . . .
32.9(31) . . .
38.0(33) . . .
38.5(32) . . .
35.3(31) . . .
34.9(34) . . .
33.7(32) . . .
29.3(28) . . .
44(4) . . .
36.7(34) . . .
35.8(33) . . .
39.5(34) . . .
44(4) . . .
44(4) . . .
41.0(34) . . .
40.2(34) . . .
37.8(33) . . .
51(4) . . .
42(4) . . .
31.7(33) . . .
40(4) . . .
40.3(33) . . .
52(4) . . .
44(4) . . .
31.6(29) . . .
47(4) . . .
38.8(33) . . .
35.6(32) . . .
37.2(32) . . .
49(4) . . .
35.8(31) . . .
38.7(34) . . .
41.7(33) . . .
40.1(34) . . .
33.7(30) . . .
43.8(34) . . .
39.5(33) . . .
32.0(29) . . .
34.7(32) . . .
37(4) . . .
33.9(32) . . .
39.7(32) . . .
39.5(33) . . .
30.6(28) . . .
40(4) . . .
33.4(33) . . .
42.3(34) . . .
49(4) . . .
42.6(34) . . .
31.7(30) . . .
46(4) . . .
44.8(35) . . .
41.8(34) . . .
42(4) . . .
41(4) . . .
35.1(31) . . .
44.3(35) . . .
45.8(35) . . .
37.7(33) . . .
41(4) . . .
40(4) . . .
40.8(34) . . .
52(4) . . .
34.3(32) . . .
48(4) . . .
40.0(34) . . .
37.0(32) . . .
39.0(32) . . .
45(4) . . .
47(4) . . .
39.3(34) . . .
35.2(31) . . .
41(4) . . .
48(4) . . .
40.2(33) . . .
42.9(34) . . .
46(4) . . .
44.2(35) . . .
40(4) . . .
43(4) . . .
44.5(35) . . .
34.7(31) . . .
45(4) . . .
37.3(32) . . .
48(4) . . .
38.9(34) . . .
32.9(30) . . .
34.6(32) . . .
52(4) . . .
51(4) . . .
39.7(33) . . .
39.1(32) . . .
35.6(31) . . .
46(4) . . .
43.1(34) . . .
43.6(35) . . .
45(4) . . .
40(4) . . .
38.3(34) . . .
48(4) . . .
40.9(34) . . .
42.5(34) . . .
39.3(32) . . .
34.5(31) . . .
40.3(34) . . .
44(4) . . .
37.5(32) . . .
37.1(33) . . .
42(4) . . .
42(4) . . .
50(4) . . .
40.3(33) . . .
29.5(29) . . .
46(4) . . .
37.3(34) . . .
44.8(35) . . .
38.1(34) . . .
41.2(34) . . .
44(4) . . .
39.2(34) . . .
39.0(33) . . .
40(4) . . .
38.3(33) . . .
37.9(33) . . .
36.7(32) . . .
36.0(31) . . .
41.4(34) . . .
37.8(34) . . .
40.1(34) . . .
39.0(33) . . .
48(4) . . .
38.4(33) . . .
35.1(34) . . .
38.5(34) . . .
51(4) . . .
45.8(35) . . .
38.3(34) . . .
43(4) . . .
46(4) . . .
44(4) . . .
43(4) . . .
33.1(32) . . .
44(4) . . .
46(4) . . .
41.8(33) . . .
40.7(34) . . .
39.0(34) . . .
47(4) . . .
42.1(34) . . .
38.3(32) . . .
44.5(35) . . .
33.3(29) . . .
36.0(34) . . .
30.6(30) . . .
34.8(30) . . .
42.6(34) . . .
37.2(34) . . .
37.5(34) . . .
52(4) . . .
37.3(32) . . .
33.5(31) . . .
42.0(34) . . .
39.0(33) . . .
42(4) . . .
35.0(31) . . .
35.8(32) . . .
39.7(35) . . .
41.4(35) . . .
38.1(34) . . .
41.9(34) . . .
43(4) . . .
37.5(33) . . .
37.6(33) . . .
47(4) . . .
39.5(33) . . .
33.8(31) . . .
37.0(33) . . .
38.7(33) . . .
31.7(30) . . .
37.3(32) . . .
35.1(33) . . .
34.0(30) . . .
46(4) . . .
47(4) . . .
34.3(31) . . .
44(4) . . .
37(4) . . .
34.4(31) . . .
40.5(33) . . .
42.8(34) . . .
42.7(35) . . .
45(4) . . .
46(4) . . .
42.5(34) . . .
40.1(33) . . .
46(4) . . .
45(4) . . .
37.4(33) . . .
38.0(32) . . .
38.5(33) . . .
43(4) . . .
42(4) . . .
35.0(31) . . .
37.7(33) . . .
46(4) . . .
41.3(34) . . .
40.9(35) . . .
36.4(33) . . .
39.7(33) . . .
39.5(33) . . .
47(4) . . .
49(4) . . .
58(4) . . .
44(4) . . .
40.7(33) . . .
40(4) . . .
36.3(35) . . .
39(4) . . .
46(4) . . .
30.4(28) . . .
37.5(33) . . .
30.0(29) . . .
34.8(33) . . .
47(4) . . .
40.8(35) . . .
31.0(29) . . .
35.9(32) . . .
30.6(29) . . .
40.6(33) . . .
34.4(32) . . .
34.6(33) . . .
40.9(34) . . .
47(4) . . .
37.6(32) . . .
38.9(34) . . .
46(4) . . .
43.0(35) . . .
37.7(33) . . .
37.0(31) . . .
37.1(34) . . .
34.7(33) . . .
50(4) . . .
47(4) . . .
31.0(29) . . .
34.9(32) . . .
36.6(34) . . .
38.3(34) . . .
39.8(34) . . .
38.8(33) . . .
42(4) . . .
45(4) . . .
44(4) . . .
29.0(28) . . .
32.5(31) . . .
38.6(34) . . .
33.4(32) . . .
36.5(31) . . .
42.7(34) . . .
38.8(33) . . .
37.5(33) . . .
34.5(31) . . .
37.7(34) . . .
44.0(35) . . .
36.7(32) . . .
33.7(33) . . .
38.2(35) . . .
49(4) . . .
38.3(33) . . .
35.5(31) . . .
42.8(35) . . .
39.2(33) . . .
42.1(34) . . .
39.8(33) . . .
54(4) . . .
37.3(33) . . .
43(4) . . .
37.6(34) . . .
49(4) . . .
49(4) . . .
46(4) . . .
49(4) . . .
42.8(34) . . .
47(4) . . .
43(4) . . .
43(4) . . .
43(4) . . .
40.6(34) . . .
47(4) . . .
41(4) . . .
47(4) . . .
44(4) . . .
40.2(33) . . .
37.7(32) . . .
42.1(34) . . .
44(4) . . .
38.5(34) . . .
48(4) . . .
39.3(32) . . .
41.1(34) . . .
43(4) . . .
41.8(34) . . .
39.3(32) . . .
47(4) . . .
36.9(33) . . .
35.5(34) . . .
37.7(33) . . .
43.7(35) . . .
48(4) . . .
43(4) . . .
43(4) . . .
33.9(32) . . .
33.8(31) . . .
37.3(33) . . .
46(4) . . .
39(4) . . .
43(4) . . .
41.7(34) . . .
39.7(33) . . .
40(4) . . .
36.0(33) . . .
49(4) . . .
29.8(29) . . .
37.3(33) . . .
40.0(33) . . .
41(4) . . .
43.2(35) . . .
42.9(34) . . .
32.9(30) . . .
36.8(33) . . .
29.8(30) . . .
33.8(32) . . .
47(4) . . .
33.6(31) . . .
40.4(33) . . .
41.7(34) . . .
33.9(31) . . .
33.3(31) . . .
36.0(31) . . .
37.0(34) . . .
42(4) . . .
39.3(33) . . .
30.7(29) . . .
34.8(31) . . .
38.5(34) . . .
37.8(33) . . .
39.4(33) . . .
36.3(32) . . .
36.8(34) . . .
35.4(33) . . .
39.6(34) . . .
36.1(32) . . .
42.1(33) . . .
37.3(32) . . .
34.0(32) . . .
50(4) . . .
46(4) . . .
45.1(35) . . .
39.5(34) . . .
45(4) . . .
43.6(35) . . .
42.3(34) . . .
42.1(34) . . .
41.3(35) . . .
41.2(34) . . .
44(4) . . .
32.7(30) . . .
46(4) . . .
35.6(32) . . .
41(4) . . .
34.3(33) . . .
40.4(33) . . .
37.1(32) . . .
41.8(35) . . .
40(4) . . .
38.7(35) . . .
43.8(35) . . .
40.4(34) . . .
42(4) . . .
40.9(34) . . .
34.9(30) . . .
29.2(28) . . .
29.4(30) . . .
39(4) . . .
39.6(35) . . .
43(4) . . .
35.4(31) . . .
35.8(32) . . .
52(4) . . .
50(4) . . .
37.7(32) . . .
40.3(33) . . .
38.4(32) . . .
41(4) . . .
37.9(33) . . .
36.3(31) . . .
41.4(34) . . .
40(4) . . .
34.5(32) . . .
43(4) . . .
37.6(32) . . .
36.7(32) . . .
38.2(34) . . .
35.4(33) . . .
38.9(33) . . .
41.5(33) . . .
37.8(33) . . .
35.6(31) . . .
44(4) . . .
34.6(33) . . .
36.2(32) . . .
35.7(33) . . .
36.0(32) . . .
31.1(30) . . .
44(4) . . .
43.1(35) . . .
39.6(32) . . .
51(4) . . .
42(4) . . .
34.4(33) . . .
39.3(33) . . .
41.8(34) . . .
38.1(34) . . .
44(4) . . .
39.5(33) . . .
38.5(32) . . .
42(4) . . .
37.7(34) . . .
48(4) . . .
44(4) . . .
41.2(34) . . .
36.8(33) . . .
29.9(27) . . .
36.7(31) . . .
39.6(33) . . .
38.7(33) . . .
38.0(33) . . .
39(4) . . .
43(4) . . .
44.0(35) . . .
31.9(30) . . .
38.8(34) . . .
28.6(30) . . .
34.7(33) . . .
46(4) . . .
36.6(32) . . .
40.7(35) . . .
40(4) . . .
39.3(34) . . .
39.3(33) . . .
40.7(33) . . .
32.8(32) . . .
41(4) . . .
40.7(35) . . .
36.4(31) . . .
47(4) . . .
45(4) . . .
52(4) . . .
42.3(35) . . .
44.0(34) . . .
38.8(32) . . .
38.8(34) . . .
35.6(33) . . .
44(4) . . .
31.5(30) . . .
28.5(28) . . .
36.6(33) . . .
36.9(33) . . .
42.7(35) . . .
41.0(33) . . .
36.6(32) . . .
40.3(34) . . .
31.5(31) . . .
35.6(33) . . .
41.2(33) . . .
39.8(34) . . .
50(4) . . .
48(4) . . .
39.5(33) . . .
43.2(34) . . .
37.6(33) . . .
45(4) . . .
37.9(32) . . .
34.1(31) . . .
51(4) . . .
27.6(28) . . .
39(4) . . .
32.9(30) . . .
38.0(32) . . .
41.3(33) . . .
39.0(34) . . .
39(4) . . .
41.5(34) . . .
38.9(32) . . .
35.2(31) . . .
37.8(32) . . .
40(4) . . .
43(4) . . .
34.9(30) . . .
49(4) . . .
38.1(32) . . .
31.0(29) . . .
32.2(30) . . .
42.9(34) . . .
40.0(32) . . .
45(4) . . .
39.2(33) . . .
48(4) . . .
38.2(32) . . .
32.8(30) . . .
41.7(34) . . .
45(4) . . .
42.4(34) . . .
37.1(32) . . .
40.4(33) . . .
37.7(32) . . .
40.7(34) . . .
45(4) . . .
38.1(32) . . .
33.8(30) . . .
30.6(28) . . .
41(4) . . .
50(4) . . .
43.1(34) . . .
40.3(34) . . .
43.5(35) . . .
47(4) . . .
47(4) . . .
38.3(33) . . .
34.3(30) . . .
46(4) . . .
40.8(34) . . .
42.0(34) . . .
36.5(32) . . .
45(4) . . .
35.7(31) . . .
38.4(34) . . .
29.6(29) . . .
38.0(32) . . .
44(4) . . .
39.7(34) . . .
42(4) . . .
34.1(34) . . .
42.9(34) . . .
45(4) . . .
42(4) . . .
47(4) . . .
45(4) . . .
39.3(34) . . .
43(4) . . .
34.0(32) . . .
37.3(32) . . .
46(4) . . .
40.6(33) . . .
36.9(33) . . .
33.6(32) . . .
44(4) . . .
37.6(32) . . .
34.9(31) . . .
40(4) . . .
42(4) . . .
32.5(29) . . .
37.1(32) . . .
43.2(34) . . .
42.8(35) . . .
39.7(34) . . .
29.0(28) . . .
46(4) . . .
42.6(35) . . .
29.8(29) . . .
32.7(32) . . .
40.4(34) . . .
38.6(32) . . .
44(4) . . .
42(4) . . .
33.4(31) . . .
28.8(28) . . .
45(4) . . .
48(4) . . .
35.6(33) . . .
46(4) . . .
38.3(32) . . .
35.0(31) . . .
41.2(35) . . .
33.8(30) . . .
40.2(35) . . .
38.4(33) . . .
51(4) . . .
38.6(32) . . .
38.5(33) . . .
41.0(34) . . .
37.5(31) . . .
40.1(34) . . .
35.1(32) . . .
44(4) . . .
29.9(28) . . .
40.1(34) . . .
40.0(33) . . .
31.4(29) . . .
40.6(33) . . .
44(4) . . .
43.3(35) . . .
36.3(31) . . .
38.0(35) . . .
41.3(34) . . .
48(4) . . .
29.2(29) . . .
39.0(32) . . .
40.3(33) . . .
41.1(34) . . .
48(4) . . .
37.0(32) . . .
33.1(31) . . .
36.2(32) . . .
40(4) . . .
35.3(32) . . .
38.4(33) . . .
38.0(32) . . .
36.7(32) . . .
43(4) . . .
45(4) . . .
44.4(35) . . .
27.6(27) . . .
42(4) . . .
41(4) . . .
42.5(34) . . .
30.3(29) . . .
32.6(30) . . .
37.5(35) . . .
33.0(29) . . .
44(4) . . .
41.6(34) . . .
41(4) . . .
37.7(34) . . .
47(4) . . .
45(4) . . .
45.6(35) . . .
45(4) . . .
36.3(34) . . .
34.4(30) . . .
46(4) . . .
40.2(33) . . .
43(4) . . .
40(4) . . .
36.9(32) . . .
30.4(28) . . .
39.3(33) . . .
49(4) . . .
43(4) . . .
41.4(35) . . .
30.9(29) . . .
43.2(34) . . .
48(4) . . .
43(4) . . .
40.2(34) . . .
32.4(31) . . .
39.0(32) . . .
40.5(35) . . .
41(4) . . .
27.1(27) . . .
39.9(33) . . .
34.1(32) . . .
42.0(35) . . .
39(4) . . .
30.2(28) . . .
32.1(30) . . .
37.6(34) . . .
33.9(32) . . .
37.3(32) . . .
38.6(34) . . .
41.7(34) . . .
34.2(32) . . .
30.7(30) . . .
43(4) . . .
40.8(35) . . .
37.9(32) . . .
43(4) . . .
34.8(32) . . .
41.7(35) . . .
42.7(34) . . .
41.6(33) . . .
36.5(33) . . .
38.6(33) . . .
38.8(33) . . .
40(4) . . .
40.8(33) . . .
30.1(29) . . .
37.5(34) . . .
37.8(34) . . .
31.5(29) . . .
41.5(34) . . .
29.4(28) . . .
47(4) . . .
49(4) . . .
39.4(33) . . .
41.1(33) . . .
35.9(32) . . .
47(4) . . .
38.1(34) . . .
36.2(31) . . .
41.8(35) . . .
39.7(32) . . .
37.9(33) . . .
35.5(34) . . .
36.4(32) . . .
45(4) . . .
37.7(31) . . .
58(4) . . .
45(4) . . .
54(4) . . .
38.6(33) . . .
36.3(33) . . .
39.4(33) . . .
43(4) . . .
40.0(33) . . .
36.2(32) . . .
39.7(34) . . .
48(4) . . .
44(4) . . .
32.0(30) . . .
35.7(32) . . .
33.9(33) . . .
28.4(28) . . .
43(4) . . .
41.5(33) . . .
31.6(30) . . .
37.7(33) . . .
38.0(33) . . .
38.6(32) . . .
33.4(30) . . .
37.8(32) . . .
32.9(29) . . .
34.9(32) . . .
33.2(32) . . .
43.4(34) . . .
41.5(35) . . .
44(4) . . .
38.9(34) . . .
42.3(34) . . .
54(4) . . .
44(4) . . .
40(4) . . .
39.2(34) . . .
43.6(35) . . .
34.4(30) . . .
40.9(34) . . .
45(4) . . .
39.2(35) . . .
39.3(33) . . .
41.7(34) . . .
37.9(35) . . .
31.1(31) . . .
39.8(34) . . .
35.2(31) . . .
35.6(31) . . .
52(4) . . .
41.6(35) . . .
42(4) . . .
41.1(34) . . .
33.4(31) . . .
40.9(35) . . .
44(4) . . .
40.1(35) . . .
32.5(30) . . .
46(4) . . .
47(4) . . .
40(4) . . .
37.1(35) . . .
37.3(32) . . .
31.7(29) . . .
37.1(32) . . .
39.9(34) . . .
42.7(35) . . .
44.0(34) . . .
39.1(33) . . .
40(4) . . .
44(4) . . .
44(4) . . .
46(4) . . .
28.6(29) . . .
34.7(32) . . .
38.4(33) . . .
39.6(33) . . .
42.1(34) . . .
50(4) . . .
35.2(30) . . .
40.8(35) . . .
37.6(32) . . .
36.1(31) . . .
34(4) . . .
33.2(31) . . .
38.0(33) . . .
41.4(35) . . .
32.7(30) . . .
34.9(30) . . .
38.0(34) . . .
32.4(31) . . .
29.7(28) . . .
35.2(31) . . .
40.1(34) . . .
47(4) . . .
30.5(29) . . .
36.7(31) . . .
42.7(34) . . .
40.0(34) . . .
41(4) . . .
40.0(33) . . .
41.6(35) . . .
39.4(33) . . .
37.8(32) . . .
44(4) . . .
42.9(35) . . .
46(4) . . .
33.0(30) . . .
37.7(33) . . .
49(4) . . .
35.8(31) . . .
38.7(33) . . .
42.9(34) . . .
31.0(30) . . .
33.8(32) . . .
38.8(33) . . .
44.5(35) . . .
38.8(33) . . .
40.8(35) . . .
36.9(32) . . .
45(4) . . .
36.8(32) . . .
38.7(35) . . .
34.2(32) . . .
48(4) . . .
34.4(32) . . .
44.0(35) . . .
45(4) . . .
37.7(35) . . .
29.5(30) . . .
40.7(34) . . .
44(4) . . .
39.4(34) . . .
42(4) . . .
37.5(35) . . .
43(4) . . .
30.6(28) . . .
39.4(34) . . .
39.5(34) . . .
46(4) . . .
34.1(32) . . .
38.5(33) . . .
34.6(33) . . .
41(4) . . .
47(4) . . .
36.5(31) . . .
45.0(35) . . .
40.9(32) . . .
36.4(33) . . .
32.8(30) . . .
41.1(34) . . .
40.9(33) . . .
30.2(29) . . .
42(4) . . .
36.9(32) . . .
44.9(35) . . .
37.0(32) . . .
47(4) . . .
41(4) . . .
34.3(30) . . .
41.3(33) . . .
42.3(34) . . .
41.7(34) . . .
50(4) . . .
41.1(35) . . .
36.5(31) . . .
51(4) . . .
39.8(35) . . .
43(4) . . .
40.7(34) . . .
38.8(32) . . .
31.1(29) . . .
41(4) . . .
39(4) . . .
40(4) . . .
36.1(32) . . .
37.0(32) . . .
49(4) . . .
40.3(34) . . .
48(4) . . .
46(4) . . .
38.0(32) . . .
37.0(33) . . .
41.5(34) . . .
40.3(33) . . .
31.9(30) . . .
28.6(29) . . .
35.0(31) . . .
42.8(33) . . .
43.9(35) . . .
39.3(32) . . .
40.4(34) . . .
46(4) . . .
35.6(32) . . .
38.3(32) . . .
49(4) . . .
46(4) . . .
35.6(33) . . .
41.2(34) . . .
44.0(34) . . .
37.4(32) . . .
36.1(31) . . .
42.9(35) . . .
40.3(34) . . .
36.5(32) . . .
33.2(30) . . .
59(4) . . .
44(4) . . .
36.4(33) . . .
46(4) . . .
39.5(33) . . .
39.8(34) . . .
40(4) . . .
39.0(34) . . .
36.1(31) . . .
40.0(34) . . .
38.7(33) . . .
44(4) . . .
44(4) . . .
33.3(30) . . .
38.3(33) . . .
33.1(30) . . .
45(4) . . .
38.6(33) . . .
35.8(31) . . .
48(4) . . .
43(4) . . .
41.4(35) . . .
47(4) . . .
40.7(33) . . .
41.9(35) . . .
35.7(32) . . .
35.1(31) . . .
45(4) . . .
44.2(35) . . .
37.9(32) . . .
42(4) . . .
40(4) . . .
34.1(30) . . .
43.0(34) . . .
37.8(34) . . .
36.8(34) . . .
34.0(30) . . .
41.2(33) . . .
41.5(34) . . .
43(4) . . .
32.6(32) . . .
40.5(34) . . .
40.1(33) . . .
37.8(32) . . .
43(4) . . .
33.7(33) . . .
33.3(31) . . .
37.5(32) . . .
34.8(31) . . .
36.7(31) . . .
40.9(34) . . .
44.4(35) . . .
41.2(34) . . .
35.3(31) . . .
37.4(32) . . .
40(4) . . .
33.7(30) . . .
39.1(33) . . .
43(4) . . .
40.8(34) . . .
38.2(33) . . .
37.2(33) . . .
42.0(34) . . .
45(4) . . .
40.1(33) . . .
38.5(32) . . .
49(4) . . .
42.2(35) . . .
39.9(34) . . .
41(4) . . .
39.2(35) . . .
34.9(31) . . .
40.0(33) . . .
35.1(31) . . .
49(4) . . .
32.6(30) . . .
39.8(35) . . .
40.4(33) . . .
45(4) . . .
29.3(28) . . .
37.8(32) . . .
36.1(32) . . .
41.3(33) . . .
32.5(30) . . .
35(4) . . .
37.4(34) . . .
43.7(34) . . .
35.4(31) . . .
38.7(34) . . .
44(4) . . .
36.7(31) . . .
41.0(33) . . .
39.2(33) . . .
39.4(34) . . .
41(4) . . .
40.2(35) . . .
43.6(34) . . .
54(4) . . .
34.3(31) . . .
37(4) . . .
39.2(35) . . .
38.8(33) . . .
41.0(33) . . .
41.5(35) . . .
38.3(33) . . .
42.6(35) . . .
41.8(34) . . .
50(4) . . .
38.6(34) . . .
38.4(33) . . .
33.7(30) . . .
41.4(33) . . .
31.6(32) . . .
39.3(34) . . .
36.6(33) . . .
33.8(31) . . .
45(4) . . .
40.6(34) . . .
34.2(32) . . .
33.5(30) . . .
39.0(35) . . .
38.8(33) . . .
40.8(34) . . .
38.0(35) . . .
42(4) . . .
35.9(32) . . .
47(4) . . .
32.8(32) . . .
30.1(31) . . .
31.7(30) . . .
34.8(30) . . .
39.5(33) . . .
38.6(33) . . .
35.5(31) . . .
40.2(35) . . .
38.3(32) . . .
40.0(33) . . .
37.1(32) . . .
32.2(31) . . .
40(4) . . .
40.4(33) . . .
35.6(31) . . .
46(4) . . .
43(4) . . .
33.6(31) . . .
33.5(30) . . .
37.3(32) . . .
40.2(34) . . .
31.3(31) . . .
38.0(33) . . .
47(4) . . .
42.3(33) . . .
37.4(32) . . .
46(4) . . .
42.6(35) . . .
31.7(29) . . .
30.4(29) . . .
40.8(33) . . .
36.1(32) . . .
39.3(35) . . .
46(4) . . .
37.1(32) . . .
38.1(32) . . .
48(4) . . .
44.5(35) . . .
43.2(34) . . .
46(4) . . .
35.1(30) . . .
43.3(35) . . .
52(4) . . .
38.1(32) . . .
42.1(34) . . .
39.4(34) . . .
38.8(34) . . .
42.7(34) . . .
45(4) . . .
42(4) . . .
35.7(32) . . .
35.6(30) . . .
47(4) . . .
44.7(34) . . .
46(4) . . .
36.0(34) . . .
36.0(33) . . .
50(4) . . .
41.1(33) . . .
31.0(30) . . .
30.6(30) . . .
38.0(33) . . .
38.8(32) . . .
35.6(31) . . .
46(4) . . .
47(4) . . .
37.4(32) . . .
40.6(34) . . .
35.6(31) . . .
37.0(33) . . .
46(4) . . .
46(4) . . .
41.9(34) . . .
39.0(33) . . .
38.9(34) . . .
40(4) . . .
35.1(31) . . .
38.0(32) . . .
44(4) . . .
39.3(34) . . .
36.1(31) . . .
36.2(32) . . .
40.2(32) . . .
36.2(31) . . .
36.8(35) . . .
38.2(33) . . .
35.5(33) . . .
44.0(35) . . .
43(4) . . .
42(4) . . .
31.3(30) . . .
32.0(30) . . .
43.2(34) . . .
40(4) . . .
43(4) . . .
37.3(33) . . .
39.0(33) . . .
41.7(34) . . .
46(4) . . .
37(4) . . .
43(4) . . .
41.0(34) . . .
32.0(30) . . .
32.6(33) . . .
36.1(34) . . .
36.8(33) . . .
30.8(29) . . .
33.9(31) . . .
33.7(33) . . .
33.4(31) . . .
34.3(31) . . .
39.6(35) . . .
33.2(30) . . .
39.1(33) . . .
42(4) . . .
32.3(29) . . .
41.4(33) . . .
42.0(34) . . .
39.8(33) . . .
45(4) . . .
42.8(35) . . .
41.0(33) . . .
38.4(34) . . .
29.9(29) . . .
36.6(33) . . .
43(4) . . .
33.8(31) . . .
37.4(32) . . .
36.5(34) . . .
34.9(33) . . .
47(4) . . .
48(4) . . .
38.3(35) . . .
35.4(32) . . .
50(4) . . .
47(4) . . .
48(4) . . .
37.1(33) . . .
43(4) . . .
37.2(33) . . .
38.4(33) . . .
42.0(34) . . .
44.3(35) . . .
39(4) . . .
36.7(33) . . .
36.9(32) . . .
35.0(31) . . .
40(4) . . .
37.1(34) . . .
37.6(33) . . .
32.3(30) . . .
42.6(34) . . .
34.4(31) . . .
37.0(33) . . .
39.9(34) . . .
35.5(32) . . .
42.5(34) . . .
39.6(35) . . .
41(4) . . .
44.9(35) . . .
44.2(35) . . .
28.5(28) . . .
41.2(34) . . .
37.5(34) . . .
41.0(34) . . .
45.7(35) . . .
35.4(32) . . .
32.9(30) . . .
38.3(33) . . .
37.2(33) . . .
31.9(30) . . .
40.3(33) . . .
30.6(29) . . .
36.4(34) . . .
46(4) . . .
46(4) . . .
39.5(33) . . .
33.3(30) . . .
43(4) . . .
46(4) . . .
41.4(34) . . .
42.1(34) . . .
40.8(33) . . .
38.5(34) . . .
40.2(35) . . .
50(4) . . .
51(4) . . .
36.8(34) . . .
42(4) . . .
29.9(30) . . .
37.0(31) . . .
33.0(31) . . .
32.7(29) . . .
42(4) . . .
32.8(30) . . .
43.3(34) . . .
46(4) . . .
41.1(34) . . .
43(4) . . .
30.8(29) . . .
39.9(33) . . .
31.0(30) . . .
42(4) . . .
36.5(32) . . .
43.7(34) . . .
37.3(32) . . .
32.2(30) . . .
42(4) . . .
33.5(29) . . .
47(4) . . .
44.1(35) . . .
45(4) . . .
34.8(33) . . .
40(4) . . .
37.5(32) . . .
42.4(35) . . .
35.9(31) . . .
40(4) . . .
32.4(30) . . .
41.9(34) . . .
40.4(34) . . .
44(4) . . .
50(4) . . .
42.9(34) . . .
39.7(34) . . .
41.5(34) . . .
43(4) . . .
36.3(34) . . .
41.6(34) . . .
35.4(31) . . .
35.1(32) . . .
36.5(34) . . .
35.5(34) . . .
45(4) . . .
35.3(31) . . .
43(4) . . .
37.6(32) . . .
34.6(32) . . .
31.1(29) . . .
31.7(29) . . .
39.8(33) . . .
44(4) . . .
45(4) . . .
37.7(33) . . .
31.8(29) . . .
39(4) . . .
43(4) . . .
34.7(31) . . .
54(4) . . .
32.1(30) . . .
40.4(34) . . .
36.1(32) . . .
42(4) . . .
36.7(31) . . .
47(4) . . .
44(4) . . .
38.3(34) . . .
43.4(35) . . .
50(4) . . .
40.2(34) . . .
35.0(31) . . .
39.4(34) . . .
40.3(34) . . .
36.8(32) . . .
32.1(30) . . .
36.0(32) . . .
30.2(30) . . .
35.6(32) . . .
35.1(30) . . .
43.5(35) . . .
43(4) . . .
38.0(34) . . .
39.0(32) . . .
38.9(32) . . .
37.3(32) . . .
35.8(31) . . .
34.7(34) . . .
34(4) . . .
34.4(30) . . .
33.2(30) . . .
39.7(34) . . .
43(4) . . .
27.9(28) . . .
33.0(31) . . .
34.1(30) . . .
41.0(35) . . .
40.3(35) . . .
40.6(34) . . .
41.3(34) . . .
42.0(35) . . .
38.8(35) . . .
37.8(34) . . .
35.4(32) . . .
38.2(32) . . .
36.5(33) . . .
34.7(31) . . .
42.1(35) . . .
38.2(33) . . .
38.5(33) . . .
37.4(32) . . .
36.2(33) . . .
47(4) . . .
45(4) . . .
38.3(32) . . .
34.2(31) . . .
36.6(35) . . .
32.9(31) . . .
35.5(31) . . .
36.9(32) . . .
30.6(32) . . .
29.9(31) . . .
51(4) . . .
35.7(33) . . .
36.3(31) . . .
41.6(34) . . .
42(4) . . .
36.5(33) . . .
37.5(32) . . .
41.4(33) . . .
36.8(32) . . .
33.7(32) . . .
34.3(30) . . .
40.6(34) . . .
36.6(31) . . .
47(4) . . .
45(4) . . .
35.1(31) . . .
36.8(32) . . .
43.2(34) . . .
42.5(35) . . .
42(4) . . .
37.9(33) . . .
40.3(33) . . .
37.4(32) . . .
34.8(33) . . .
33.1(34) . . .
35.9(33) . . .
34.1(31) . . .
39.4(34) . . .
39(4) . . .
44(4) . . .
40.6(33) . . .
37.6(32) . . .
36.0(33) . . .
45(4) . . .
31.5(30) . . .
37.7(33) . . .
38.4(32) . . .
32.6(30) . . .
26.6(28) . . .
30.7(30) . . .
37.6(33) . . .
43.4(35) . . .
41.8(35) . . .
40.0(34) . . .
36.0(31) . . .
36.7(33) . . .
48(4) . . .
37.7(32) . . .
49(4) . . .
36.8(34) . . .
40.7(33) . . .
40.0(34) . . .
35.0(32) . . .
44(4) . . .
37.5(32) . . .
34.8(32) . . .
34.1(30) . . .
34.1(31) . . .
46(4) . . .
40.1(33) . . .
41.0(33) . . .
40.1(34) . . .
39.8(33) . . .
41(4) . . .
30.2(29) . . .
33.7(30) . . .
33.5(31) . . .
45(4) . . .
42(4) . . .
38.0(34) . . .
41.8(34) . . .
41.7(34) . . .
42(4) . . .
46(4) . . .
33.4(30) . . .
39.9(33) . . .
42.6(34) . . .
41.5(35) . . .
31.5(29) . . .
40.5(34) . . .
35.1(31) . . .
43(4) . . .
42(4) . . .
36.9(31) . . .
42.4(35) . . .
34.7(31) . . .
34.0(31) . . .
35.1(31) . . .
43(4) . . .
44(4) . . .
38.7(32) . . .
35.7(32) . . .
31.7(29) . . .
46(4) . . .
45(4) . . .
34.5(31) . . .
31.7(31) . . .
38(4) . . .
39.1(33) . . .
37.0(32) . . .
34.2(30) . . .
43(4) . . .
37.6(35) . . .
43(4) . . .
40.7(33) . . .
40.8(34) . . .
37.4(33) . . .
29.5(31) . . .
33.5(30) . . .
36.3(32) . . .
38.5(32) . . .
35.5(32) . . .
28.5(31) . . .
33.2(32) . . .
34.2(30) . . .
43(4) . . .
43.6(35) . . .
33.7(31) . . .
33.3(32) . . .
37.3(32) . . .
42.0(34) . . .
32.5(30) . . .
45(4) . . .
35.9(32) . . .
35.5(31) . . .
37.0(33) . . .
36.7(31) . . .
35.3(32) . . .
29.1(29) . . .
32.8(30) . . .
39.6(34) . . .
35.5(32) . . .
40(4) . . .
32.5(31) . . .
39.6(33) . . .
36.4(33) . . .
32.5(30) . . .
34.2(32) . . .
35.2(31) . . .
38.9(33) . . .
33.9(31) . . .
42(4) . . .
32.9(31) . . .
41.7(35) . . .
35.9(32) . . .
38.4(33) . . .
38.6(35) . . .
45(4) . . .
43.1(34) . . .
33.9(31) . . .
33.1(31) . . .
29.5(30) . . .
39.2(33) . . .
38.5(32) . . .
36.5(31) . . .
30.2(30) . . .
42(4) . . .
36.7(31) . . .
35.1(31) . . .
52(4) . . .
39.2(33) . . .
36.7(34) . . .
35.5(31) . . .
31.8(29) . . .
34.8(31) . . .
46(4) . . .
42(4) . . .
37.6(32) . . .
31.2(30) . . .
32.9(30) . . .
46(4) . . .
40(4) . . .
34.9(32) . . .
37.4(32) . . .
39.7(33) . . .
39.6(33) . . .
44(4) . . .
50(4) . . .
40.1(33) . . .
36.2(32) . . .
33.7(33) . . .
25.9(27) . . .
40(4) . . .
26.3(27) . . .
42(4) . . .
35.7(32) . . .
35.9(32) . . .
48(4) . . .
35.7(31) . . .
31.0(29) . . .
35.5(34) . . .
25.9(27) . . .
36.8(32) . . .
33.2(30) . . .
37.2(32) . . .
42.1(34) . . .
40.2(33) . . .
41.4(34) . . .
39.3(33) . . .
33.1(31) . . .
37(4) . . .
34.3(32) . . .
41.2(33) . . .
36.4(31) . . .
31.9(30) . . .
31.8(29) . . .
36.6(32) . . .
37.0(31) . . .
37.8(32) . . .
39.5(34) . . .
35.7(33) . . .
34.5(32) . . .
32.8(30) . . .
40.0(33) . . .
37.5(33) . . .
39.2(35) . . .
38.6(34) . . .
34.5(30) . . .
32.2(31) . . .
36.7(34) . . .
41(4) . . .
30.2(28) . . .
38.2(32) . . .
30.0(30) . . .
35.1(31) . . .
39.9(33) . . .
43(4) . . .
35.3(32) . . .
41.5(34) . . .
36.1(34) . . .
31.1(32) . . .
31.2(29) . . .
39.9(33) . . .
33.6(31) . . .
35.7(33) . . .
27.5(29) . . .
33.7(30) . . .
28.8(28) . . .
35.2(33) . . .
35.5(33) . . .
39.7(33) . . .
41.0(34) . . .
35.2(31) . . .
39.1(34) . . .
35.3(34) . . .
35.5(33) . . .
35.3(31) . . .
38.2(33) . . .
40.3(34) . . .
29.7(30) . . .
33.8(30) . . .
39.5(33) . . .
37.4(32) . . .
39.9(33) . . .
50(4) . . .
36.4(32) . . .
47(4) . . .
38.6(32) . . .
38(4) . . .
34.9(34) . . .
40.7(35) . . .
31.9(29) . . .
40.9(33) . . .
43(4) . . .
35.6(32) . . .
31.3(32) . . .
33.3(31) . . .
43.0(35) . . .
40(4) . . .
39(4) . . .
37.9(34) . . .
29.9(29) . . .
43.4(34) . . .
46(4) . . .
33.4(31) . . .
35.2(33) . . .
36.5(32) . . .
42.5(34) . . .
33.5(30) . . .
46(4) . . .
47(4) . . .
39.6(33) . . .
39.4(34) . . .
28.4(27) . . .
44(4) . . .
49(4) . . .
37.0(32) . . .
40.9(33) . . .
41.4(34) . . .
39.6(33) . . .
44.2(35) . . .
42.1(34) . . .
38.4(35) . . .
31.6(30) . . .
34.9(31) . . .
37.2(33) . . .
36.4(32) . . .
36.5(32) . . .
46(4) . . .
43(4) . . .
42.5(34) . . .
40.5(33) . . .
40.4(34) . . .
37.5(33) . . .
46(4) . . .
42.9(34) . . .
37.0(32) . . .
41.1(34) . . .
37.0(34) . . .
40.9(34) . . .
34.7(31) . . .
33.3(30) . . .
37.8(35) . . .
27.2(28) . . .
37.4(33) . . .
36.6(31) . . .
36.8(32) . . .
45(4) . . .
33.3(31) . . .
42(4) . . .
33.5(30) . . .
44.0(35) . . .
42.8(35) . . .
33.9(30) . . .
33.3(30) . . .
38.0(32) . . .
38.5(33) . . .
37.8(32) . . .
36.7(32) . . .
47(4) . . .
39.0(33) . . .
33.3(31) . . .
37.9(33) . . .
38.1(34) . . .
38.7(33) . . .
46(4) . . .
37.1(32) . . .
45(4) . . .
36.4(33) . . .
40.2(33) . . .
34.6(30) . . .
40(4) . . .
41(4) . . .
44(4) . . .
43.5(34) . . .
37.0(32) . . .
38.6(34) . . .
34.5(32) . . .
38.9(35) . . .
31.6(29) . . .
35.6(31) . . .
37.9(33) . . .
35.5(34) . . .
30.9(30) . . .
44(4) . . .
38.9(32) . . .
46(4) . . .
46(4) . . .
44(4) . . .
45(4) . . .
47(4) . . .
37.0(34) . . .
35.1(34) . . .
40.3(34) . . .
39.8(34) . . .
45.4(35) . . .
35.6(31) . . .
49(4) . . .
43(4) . . .
34.2(31) . . .
40.8(33) . . .
37.6(32) . . .
45(4) . . .
40.5(34) . . .
41.6(34) . . .
37.3(32) . . .
45(4) . . .
32.5(30) . . .
34.5(32) . . .
44.3(34) . . .
36.3(33) . . .
38(4) . . .
44(4) . . .
29.5(29) . . .
42.6(34) . . .
46(4) . . .
39.1(34) . . .
34.7(30) . . .
39.3(34) . . .
42.5(34) . . .
39.9(35) . . .
36.5(34) . . .
30.6(29) . . .
45(4) . . .
36.5(31) . . .
36.5(34) . . .
37.5(33) . . .
39.8(34) . . .
42.6(34) . . .
29.9(29) . . .
32.8(30) . . .
39.5(34) . . .
39.9(35) . . .
40.0(33) . . .
41.3(34) . . .
39.1(33) . . .
37.6(34) . . .
35.0(32) . . .
41.8(33) . . .
28.6(28) . . .
38.4(34) . . .
39(4) . . .
38.9(34) . . .
37.2(32) . . .
37.9(32) . . .
32.9(31) . . .
41(4) . . .
38.2(33) . . .
43(4) . . .
34.8(31) . . .
37.7(34) . . .
29.6(28) . . .
39.8(33) . . .
39.5(33) . . .
45.6(35) . . .
41.7(35) . . .
39.0(35) . . .
44(4) . . .
40.9(34) . . .
45(4) . . .
34.7(32) . . .
42(4) . . .
33.0(31) . . .
42.0(34) . . .
34.8(32) . . .
37.4(34) . . .
37.3(32) . . .
29.0(28) . . .
40.2(33) . . .
30.3(29) . . .
37.6(34) . . .
34.6(31) . . .
30.4(29) . . .
30.4(29) . . .
36.1(33) . . .
39.2(34) . . .
39(4) . . .
34.9(31) . . .
35.8(31) . . .
33.6(30) . . .
44(4) . . .
38.5(32) . . .
50(4) . . .
39.7(32) . . .
39.7(34) . . .
33.9(31) . . .
46(4) . . .
38.2(32) . . .
38.9(32) . . .
40.3(34) . . .
38(4) . . .
33.8(33) . . .
33.8(30) . . .
40.7(34) . . .
37.5(33) . . .
31.4(31) . . .
35.0(32) . . .
42.1(34) . . .
38.1(33) . . .
41(4) . . .
44(4) . . .
38.7(33) . . .
34.9(31) . . .
32.1(30) . . .
34.6(31) . . .
36.2(33) . . .
35.1(34) . . .
31.9(29) . . .
44(4) . . .
35.9(33) . . .
39(4) . . .
30.3(29) . . .
41.9(34) . . .
50(4) . . .
38.6(33) . . .
39.7(34) . . .
36.8(33) . . .
39.1(32) . . .
42(4) . . .
28.5(27) . . .
35.2(31) . . .
42(4) . . .
45.9(35) . . .
38.9(33) . . .
38.5(35) . . .
35.2(33) . . .
39.5(34) . . .
39.1(33) . . .
35.7(31) . . .
30.9(28) . . .
39.2(34) . . .
45.1(35) . . .
27.3(29) . . .
34.6(33) . . .
39(4) . . .
32.8(29) . . .
33.7(31) . . .
36.5(32) . . .
42(4) . . .
38(4) . . .
44(4) . . .
49(4) . . .
34.6(30) . . .
39.2(34) . . .
43(4) . . .
31.4(29) . . .
37.6(32) . . .
36.7(32) . . .
38.4(33) . . .
31.7(29) . . .
36.1(33) . . .
33.4(30) . . .
34.1(32) . . .
28.1(27) . . .
44(4) . . .
37.0(32) . . .
32.9(30) . . .
45(4) . . .
44(4) . . .
39.5(33) . . .
48(4) . . .
43.3(35) . . .
29.9(31) . . .
34.2(33) . . .
36.5(33) . . .
42.1(35) . . .
37.7(32) . . .
36.6(31) . . .
35.6(33) . . .
31.4(30) . . .
24.3(26) . . .
38.5(32) . . .
33.3(31) . . .
36.6(33) . . .
40(4) . . .
42.5(34) . . .
38.1(32) . . .
46(4) . . .
40.3(35) . . .
31.4(30) . . .
37.0(32) . . .
43.8(35) . . .
33.5(31) . . .
46(4) . . .
42.6(35) . . .
37.1(32) . . .
41.4(34) . . .
33.3(30) . . .
36.9(34) . . .
34.8(32) . . .
33.1(30) . . .
39.5(33) . . .
38.3(33) . . .
46(4) . . .
40.2(33) . . .
38.3(32) . . .
42(4) . . .
47(4) . . .
35.9(32) . . .
50(4) . . .
42.5(35) . . .
35.2(31) . . .
38.0(32) . . .
36.2(34) . . .
42(4) . . .
38.6(33) . . .
40.5(35) . . .
29.4(30) . . .
29.5(31) . . .
34.8(34) . . .
38.9(32) . . .
45(4) . . .
47(4) . . .
37.9(33) . . .
42.6(34) . . .
33.4(30) . . .
42.9(35) . . .
39.0(35) . . .
30.6(28) . . .
39.8(33) . . .
37.3(33) . . .
42.2(35) . . .
41(4) . . .
34.9(31) . . .
37.9(32) . . .
36.5(32) . . .
40.8(35) . . .
33.9(31) . . .
40.1(33) . . .
33.3(30) . . .
37.6(32) . . .
33.1(31) . . .
33.8(31) . . .
36.5(31) . . .
40.8(33) . . .
32.8(30) . . .
38.9(33) . . .
39(4) . . .
42(4) . . .
35.0(31) . . .
34.7(31) . . .
32.2(31) . . .
32.0(30) . . .
46(4) . . .
35.2(31) . . .
40.1(33) . . .
33.3(31) . . .
39(4) . . .
37.9(33) . . .
37.4(32) . . .
34.4(32) . . .
32.3(31) . . .
35(4) . . .
32.2(30) . . .
36.8(32) . . .
39.1(33) . . .
43(4) . . .
47(4) . . .
35.2(31) . . .
31.0(29) . . .
41.5(35) . . .
38.2(33) . . .
42(4) . . .
45(4) . . .
33.5(30) . . .
35.0(31) . . .
36.0(35) . . .
31.9(33) . . .
41.4(35) . . .
36.0(32) . . .
37.0(32) . . .
37(4) . . .
29.4(29) . . .
33.6(31) . . .
36.9(31) . . .
37.6(33) . . .
34.3(31) . . .
35.2(31) . . .
33.9(31) . . .
44.5(35) . . .
40.9(34) . . .
37.6(35) . . .
35.5(33) . . .
36.5(32) . . .
39.1(32) . . .
32.8(33) . . .
48(4) . . .
34.0(32) . . .
39.0(33) . . .
31.4(29) . . .
34.9(31) . . .
44(4) . . .
35.2(32) . . .
37.6(32) . . .
41.9(34) . . .
40.8(34) . . .
40.4(35) . . .
34.9(32) . . .
37.6(32) . . .
26.3(28) . . .
29.3(30) . . .
35.3(33) . . .
50(4) . . .
32.1(30) . . .
30.7(29) . . .
43.4(35) . . .
32.9(32) . . .
39(4) . . .
33.1(31) . . .
31.7(30) . . .
40.6(33) . . .
44(4) . . .
38.6(34) . . .
41.2(33) . . .
41.3(35) . . .
33.7(32) . . .
34.5(33) . . .
36.4(32) . . .
43.1(34) . . .
35.3(31) . . .
35.3(31) . . .
43(4) . . .
30.2(31) . . .
34.3(30) . . .
39(4) . . .
34.0(30) . . .
34.4(32) . . .
32.2(31) . . .
39.7(33) . . .
41(4) . . .
33.0(31) . . .
27.5(28) . . .
36.1(32) . . .
38.5(33) . . .
40.5(34) . . .
40.8(35) . . .
39.6(35) . . .
41.1(33) . . .
41.0(34) . . .
43(4) . . .
39.2(33) . . .
44.5(34) . . .
41.2(33) . . .
37.9(32) . . .
31.4(30) . . .
39(4) . . .
38.5(34) . . .
38.2(33) . . .
44.1(34) . . .
45(4) . . .
40.7(35) . . .
34.5(31) . . .
40.2(33) . . .
31.9(29) . . .
35.8(33) . . .
35.8(33) . . .
28.1(29) . . .
33.7(31) . . .
41(4) . . .
39.7(34) . . .
41(4) . . .
36.3(32) . . .
39.7(33) . . .
47(4) . . .
40.5(33) . . .
39.4(32) . . .
42.8(34) . . .
41.2(33) . . .
38.3(34) . . .
37(4) . . .
34.8(31) . . .
35.9(32) . . .
43.5(35) . . .
36.3(32) . . .
37.2(32) . . .
28.5(28) . . .
36.7(31) . . .
41.8(34) . . .
38.0(33) . . .
30.2(28) . . .
45(4) . . .
46(4) . . .
37.8(33) . . .
42(4) . . .
37.6(32) . . .
34.2(30) . . .
42.4(35) . . .
42.4(34) . . .
42(4) . . .
33.4(31) . . .
30.1(28) . . .
31.7(30) . . .
41.2(33) . . .
34.6(30) . . .
37.2(35) . . .
28.1(28) . . .
31.9(29) . . .
32.6(30) . . .
39.0(33) . . .
43(4) . . .
44(4) . . .
36.8(33) . . .
37.8(32) . . .
36.4(34) . . .
35.1(34) . . .
33.8(31) . . .
31.1(29) . . .
39.5(34) . . .
35.7(34) . . .
35.5(32) . . .
42.8(34) . . .
41.3(34) . . .
43(4) . . .
33.0(31) . . .
33.8(32) . . .
41.2(34) . . .
44.7(35) . . .
42.4(34) . . .
38.8(33) . . .
35.3(32) . . .
31.2(29) . . .
42.7(34) . . .
37.5(33) . . .
35.3(32) . . .
33.9(31) . . .
33.3(31) . . .
37.3(32) . . .
44(4) . . .
31.3(31) . . .
41(4) . . .
40.7(33) . . .
39.2(33) . . .
42(4) . . .
31.5(31) . . .
40.1(34) . . .
38.6(32) . . .
37.9(32) . . .
41(4) . . .
27.9(28) . . .
28.0(29) . . .
38.2(34) . . .
26.9(28) . . .
29.2(30) . . .
37(4) . . .
30.0(30) . . .
34.0(31) . . .
39.9(34) . . .
34.3(31) . . .
39.3(35) . . .
45(4) . . .
45(4) . . .
42.2(34) . . .
40.1(35) . . .
29.9(28) . . .
45(4) . . .
45.6(35) . . .
34.9(33) . . .
33.3(31) . . .
36.3(34) . . .
35.1(32) . . .
39.1(33) . . .
38.8(32) . . .
35.9(31) . . .
42(4) . . .
38.6(34) . . .
42.8(34) . . .
38.7(32) . . .
33.9(32) . . .
37.8(34) . . .
31.3(29) . . .
41.2(34) . . .
43(4) . . .
44(4) . . .
27.4(28) . . .
35.4(31) . . .
49(4) . . .
40.5(35) . . .
32.5(32) . . .
33.1(30) . . .
41.7(34) . . .
46(4) . . .
33.2(34) . . .
33.4(31) . . .
40.0(34) . . .
49(4) . . .
34.2(30) . . .
37.4(33) . . .
37.0(32) . . .
29.4(29) . . .
42.1(35) . . .
47(4) . . .
38.5(33) . . .
34.8(34) . . .
39.2(33) . . .
44.4(34) . . .
40.8(34) . . .
43(4) . . .
31.1(30) . . .
45(4) . . .
45(4) . . .
34.0(31) . . .
29.8(29) . . .
33.0(32) . . .
43(4) . . .
36.0(31) . . .
34.2(31) . . .
36.7(32) . . .
36.7(34) . . .
38.3(35) . . .
52(4) . . .
41.5(34) . . .
34.5(31) . . .
39.0(35) . . .
35.1(33) . . .
40.4(33) . . .
32.4(33) . . .
35.1(33) . . .
36.2(33) . . .
29.8(28) . . .
36.6(32) . . .
32.1(29) . . .
32.9(32) . . .
39.4(35) . . .
29.9(28) . . .
42.5(34) . . .
32.7(31) . . .
35.8(33) . . .
37.4(32) . . .
31.8(29) . . .
41.3(34) . . .
36.5(33) . . .
38.4(34) . . .
34.5(31) . . .
36.4(32) . . .
31.5(29) . . .
35.4(32) . . .
40(4) . . .
44(4) . . .
32.3(30) . . .
38.4(32) . . .
31.4(30) . . .
37(4) . . .
43(4) . . .
50(4) . . .
40.0(33) . . .
40(4) . . .
39.6(35) . . .
31.6(29) . . .
40.1(32) . . .
34.2(30) . . .
28.9(28) . . .
42(4) . . .
42(4) . . .
39.8(33) . . .
54(4) . . .
40.1(33) . . .
45(4) . . .
36.6(31) . . .
39.0(33) . . .
43(4) . . .
40.8(35) . . .
49(4) . . .
32.9(29) . . .
43.1(34) . . .
36.7(32) . . .
30.2(30) . . .
31.6(32) . . .
42.0(34) . . .
35.6(32) . . .
34.5(32) . . .
31.5(30) . . .
39.6(33) . . .
35.3(31) . . .
36.1(32) . . .
44(4) . . .
45(4) . . .
39.9(33) . . .
35.4(32) . . .
36.6(32) . . .
43(4) . . .
38.9(34) . . .
36.8(33) . . .
36.7(33) . . .
43.3(34) . . .
39.2(33) . . .
50(4) . . .
40.1(33) . . .
44(4) . . .
39.5(32) . . .
36.1(33) . . .
37.7(33) . . .
36.1(30) . . .
43.8(34) . . .
35.0(32) . . .
37.5(33) . . .
40(4) . . .
39.0(33) . . .
29.1(28) . . .
29.3(28) . . .
29.7(30) . . .
41(4) . . .
34.1(32) . . .
38.6(33) . . .
40.8(34) . . .
41.3(35) . . .
35.3(31) . . .
46(4) . . .
33.0(30) . . .
35.0(31) . . .
37.9(33) . . .
39(4) . . .
42(4) . . .
42.2(34) . . .
40(4) . . .
33.7(33) . . .
38.4(33) . . .
32.5(29) . . .
31.0(29) . . .
37.3(32) . . .
34.8(32) . . .
44(4) . . .
38.9(33) . . .
38.6(32) . . .
37.3(32) . . .
32.5(31) . . .
41(4) . . .
37.2(34) . . .
39.8(33) . . .
40.6(34) . . .
36.9(34) . . .
38.0(35) . . .
37.5(32) . . .
39.7(33) . . .
41.2(34) . . .
36.0(33) . . .
35.1(32) . . .
32.6(30) . . .
35.5(31) . . .
35.1(31) . . .
38.6(35) . . .
43(4) . . .
36.0(32) . . .
40.3(33) . . .
40.8(33) . . .
32.6(32) . . .
37.5(33) . . .
38.6(32) . . .
37.3(33) . . .
44(4) . . .
34.5(32) . . .
37.5(34) . . .
34.8(30) . . .
44(4) . . .
46(4) . . .
42.7(34) . . .
50(4) . . .
42.7(35) . . .
36.0(31) . . .
37.7(33) . . .
29.7(28) . . .
43.8(35) . . .
36.7(32) . . .
38.9(32) . . .
38.8(33) . . .
37.1(33) . . .
39.4(34) . . .
37.4(32) . . .
36.3(34) . . .
42(4) . . .
42(4) . . .
35.1(32) . . .
29.5(29) . . .
35.1(33) . . .
31.9(30) . . .
42.3(34) . . .
45(4) . . .
44.2(34) . . .
48(4) . . .
38.0(34) . . .
43(4) . . .
42.6(34) . . .
32.2(30) . . .
35.6(31) . . .
42(4) . . .
45(4) . . .
43.4(35) . . .
33.9(31) . . .
31.4(31) . . .
39(4) . . .
41(4) . . .
38.7(32) . . .
45(4) . . .
35.4(31) . . .
48(4) . . .
39.1(32) . . .
44.5(34) . . .
41.2(34) . . .
25.1(25) . . .
31.1(32) . . .
41.0(34) . . .
41.7(34) . . .
41.3(34) . . .
45(4) . . .
31.9(30) . . .
36.0(32) . . .
45(4) . . .
29.0(28) . . .
26.2(27) . . .
32.0(31) . . .
45(4) . . .
41.5(34) . . .
43(4) . . .
40.5(34) . . .
37.7(33) . . .
41.9(34) . . .
41.4(33) . . .
36.2(33) . . .
34.1(32) . . .
40.3(34) . . .
37.0(32) . . .
37.3(32) . . .
35.0(31) . . .
40(4) . . .
29.1(30) . . .
40.9(34) . . .
35.9(31) . . .
38.9(35) . . .
36.1(34) . . .
40.6(34) . . .
34.5(31) . . .
35.0(31) . . .
38.3(32) . . .
40(4) . . .
32.3(30) . . .
35.5(31) . . .
43.2(34) . . .
39.6(33) . . .
36.5(32) . . .
38.2(34) . . .
40.8(34) . . .
38.3(32) . . .
34.7(32) . . .
31.8(30) . . .
36.0(32) . . .
29.9(28) . . .
41.5(33) . . .
44.3(34) . . .
46(4) . . .
43(4) . . .
39.2(34) . . .
46(4) . . .
35.6(31) . . .
39(4) . . .
43(4) . . .
36.8(32) . . .
34.7(31) . . .
39.5(34) . . .
33.6(31) . . .
37.5(33) . . .
35.8(31) . . .
35.6(32) . . .
36.4(33) . . .
41(4) . . .
31.7(29) . . .
35.7(31) . . .
37.2(34) . . .
34.5(33) . . .
38.8(34) . . .
43(4) . . .
40.9(33) . . .
35.9(34) . . .
33.5(32) . . .
35.9(32) . . .
39.7(34) . . .
38.1(33) . . .
30.8(30) . . .
39(4) . . .
40(4) . . .
37.8(34) . . .
42.8(34) . . .
42(4) . . .
39.1(35) . . .
38.0(33) . . .
40.4(34) . . .
33.9(31) . . .
34.4(31) . . .
39.3(34) . . .
38.1(32) . . .
44(4) . . .
41.7(34) . . .
38.3(33) . . .
36.2(34) . . .
33.9(30) . . .
36.4(31) . . .
46(4) . . .
32.1(30) . . .
39(4) . . .
29.7(31) . . .
35.0(31) . . .
29.8(29) . . .
33.5(32) . . .
39(4) . . .
50(4) . . .
43.7(35) . . .
32.7(30) . . .
41(4) . . .
39.1(35) . . .
32.5(30) . . .
31.5(29) . . .
38.2(33) . . .
35.8(33) . . .
35.4(34) . . .
39.0(35) . . .
38.7(32) . . .
36.5(32) . . .
39.8(34) . . .
44(4) . . .
38.1(32) . . .
45(4) . . .
40.2(33) . . .
38.6(35) . . .
35.1(32) . . .
34.1(30) . . .
36.3(32) . . .
46(4) . . .
40.9(34) . . .
32.3(30) . . .
37.8(32) . . .
39.8(33) . . .
33.8(31) . . .
35(4) . . .
37.5(34) . . .
40.5(34) . . .
32.1(30) . . .
29.3(30) . . .
37.5(34) . . .
39.8(33) . . .
41.6(35) . . .
40.0(32) . . .
39.4(33) . . .
36.3(32) . . .
39.3(33) . . .
34.7(31) . . .
38.1(32) . . .
35.9(33) . . .
35.4(35) . . .
36.2(32) . . .
38.9(32) . . .
37.7(32) . . .
38.1(34) . . .
30.3(28) . . .
42.1(35) . . .
40.0(33) . . .
39.1(32) . . .
30.8(29) . . .
34.9(32) . . .
31.0(31) . . .
34.0(30) . . .
43.1(34) . . .
41(4) . . .
41.4(34) . . .
36.7(33) . . .
36.2(32) . . .
34.3(31) . . .
36.9(32) . . .
31.2(28) . . .
41(4) . . .
45(4) . . .
40.3(34) . . .
43(4) . . .
39.0(34) . . .
29.2(28) . . .
30.8(29) . . .
41.7(35) . . .
31.0(30) . . .
32.7(31) . . .
37.7(33) . . .
30.7(29) . . .
36.7(33) . . .
33.4(31) . . .
46(4) . . .
37.3(32) . . .
30.1(29) . . .
37.6(34) . . .
27.2(29) . . .
37.8(34) . . .
35.2(31) . . .
43(4) . . .
32.7(30) . . .
31.0(28) . . .
38.4(33) . . .
31.1(29) . . .
41.1(33) . . .
35.4(30) . . .
39.3(35) . . .
41.9(35) . . .
37.1(33) . . .
38.3(32) . . .
35.7(31) . . .
44(4) . . .
34.4(31) . . .
33.0(30) . . .
37.0(32) . . .
43(4) . . .
34.0(30) . . .
40.4(34) . . .
48(4) . . .
40.9(34) . . .
38.6(33) . . .
32.9(31) . . .
34.9(31) . . .
38.2(32) . . .
38.3(32) . . .
35.8(31) . . .
31.4(32) . . .
31.2(31) . . .
26.6(27) . . .
30.3(30) . . .
32.7(30) . . .
26.4(27) . . .
39.4(35) . . .
36.6(31) . . .
32.3(31) . . .
36.5(34) . . .
35.9(34) . . .
33.3(31) . . .
36.7(31) . . .
36.9(34) . . .
34.0(33) . . .
26.7(26) . . .
33.2(30) . . .
40.2(33) . . .
37.2(33) . . .
34.6(31) . . .
43.6(34) . . .
50(4) . . .
36.4(32) . . .
37.1(33) . . .
35.5(34) . . .
33.5(32) . . .
31.3(31) . . .
41.0(33) . . .
39.4(33) . . .
32.0(30) . . .
35.5(31) . . .
42.5(34) . . .
32.6(30) . . .
35.6(32) . . .
31.1(33) . . .
29.9(30) . . .
34.0(30) . . .
38.2(33) . . .
34.6(33) . . .
29.6(29) . . .
30.7(30) . . .
29.0(29) . . .
40.7(33) . . .
44(4) . . .
44(4) . . .
40.0(34) . . .
34.7(31) . . .
39.6(33) . . .
40.2(33) . . .
41.3(33) . . .
40(4) . . .
42.7(34) . . .
29.2(28) . . .
37.2(32) . . .
41.4(34) . . .
36.8(33) . . .
35.5(31) . . .
40(4) . . .
31.8(29) . . .
35.8(33) . . .
38.3(32) . . .
34.7(31) . . .
26.7(27) . . .
43(4) . . .
34.5(31) . . .
41.9(35) . . .
43.4(35) . . .
47(4) . . .
28.6(27) . . .
31.5(29) . . .
40.4(33) . . .
33.4(30) . . .
27.7(28) . . .
28.5(28) . . .
41.5(35) . . .
37.6(32) . . .
38.1(33) . . .
37.7(32) . . .
38(4) . . .
30.7(31) . . .
34.9(30) . . .
40.7(35) . . .
25.8(26) . . .
36.4(34) . . .
35.5(32) . . .
40.1(33) . . .
29.6(29) . . .
35.8(33) . . .
39(4) . . .
32.3(30) . . .
40.7(33) . . .
41.9(34) . . .
48(4) . . .
32.9(31) . . .
34.2(33) . . .
48(4) . . .
38.4(32) . . .
34.6(31) . . .
38(4) . . .
38(4) . . .
35.2(31) . . .
28.0(27) . . .
34.7(31) . . .
38.5(33) . . .
31.5(29) . . .
35.9(31) . . .
38.1(34) . . .
40.6(33) . . .
49(4) . . .
48(4) . . .
37.3(31) . . .
47(4) . . .
35.2(32) . . .
35.8(32) . . .
44(4) . . .
38.0(32) . . .
36.3(35) . . .
36.4(32) . . .
37.0(32) . . .
41(4) . . .
32.5(29) . . .
39(4) . . .
37(4) . . .
37.1(32) . . .
33.1(30) . . .
33.6(30) . . .
25.8(27) . . .
39(4) . . .
38.0(33) . . .
41.6(34) . . .
50(4) . . .
36.4(35) . . .
32.2(33) . . .
48(4) . . .
55(4) . . .
41.0(34) . . .
38.6(32) . . .
38.2(34) . . .
40(4) . . .
29.1(28) . . .
35.3(31) . . .
31.1(29) . . .
36.1(34) . . .
29.9(29) . . .
33.9(31) . . .
37.5(32) . . .
35.1(33) . . .
32.0(32) . . .
41(4) . . .
41.0(33) . . .
38.5(33) . . .
33.8(32) . . .
38.4(34) . . .
41(4) . . .
42.0(34) . . .
38.7(33) . . .
43(4) . . .
33.2(34) . . .
33.7(31) . . .
35.4(31) . . .
36(4) . . .
35.3(32) . . .
43(4) . . .
35.9(32) . . .
32.0(29) . . .
34.9(31) . . .
42(4) . . .
34.8(31) . . .
38.0(33) . . .
36.2(31) . . .
40(4) . . .
37.5(35) . . .
29.3(28) . . .
42.3(35) . . .
40.4(34) . . .
36(4) . . .
29.7(31) . . .
23.8(25) . . .
33.5(32) . . .
30.7(29) . . .
38.7(33) . . .
46(4) . . .
33.3(32) . . .
30.4(29) . . .
37.4(32) . . .
44(4) . . .
42(4) . . .
36.0(33) . . .
28.5(28) . . .
34.1(31) . . .
37.4(33) . . .
37.0(33) . . .
39.9(34) . . .
46(4) . . .
44.5(35) . . .
42(4) . . .
46(4) . . .
39(4) . . .
34.0(31) . . .
27.9(27) . . .
37.6(35) . . .
43(4) . . .
45(4) . . .
35.0(31) . . .
23.6(25) . . .
35.3(32) . . .
36.0(33) . . .
30.4(29) . . .
31.8(30) . . .
42(4) . . .
35.2(31) . . .
30.5(29) . . .
31.9(31) . . .
32.8(30) . . .
30.3(31) . . .
41(4) . . .
43.2(35) . . .
40.4(34) . . .
35.3(31) . . .
24.2(26) . . .
36.2(33) . . .
34.9(33) . . .
38.0(32) . . .
39.3(32) . . .
37.0(33) . . .
33.2(30) . . .
41(4) . . .
34.1(31) . . .
33.0(30) . . .
38.0(33) . . .
45(4) . . .
35.7(31) . . .
45(4) . . .
33.7(31) . . .
33.9(30) . . .
41.0(34) . . .
29.6(29) . . .
28.9(28) . . .
38.2(32) . . .
36.4(32) . . .
39(4) . . .
33.0(31) . . .
26.2(27) . . .
34.6(31) . . .
32.8(32) . . .
43(4) . . .
35.4(31) . . .
34.1(30) . . .
32.3(30) . . .
36.2(32) . . .
37.3(32) . . .
36.9(32) . . .
36.0(31) . . .
31.5(29) . . .
39.0(34) . . .
34.8(32) . . .
38.7(34) . . .
39.9(33) . . .
32.4(31) . . .
40.1(35) . . .
31.1(31) . . .
28.1(28) . . .
29.2(29) . . .
40.5(34) . . .
35.7(33) . . .
34.4(33) . . .
36.1(33) . . .
34.0(31) . . .
42(4) . . .
46(4) . . .
37.6(32) . . .
40.7(33) . . .
40.8(34) . . .
40(4) . . .
39.7(35) . . .
46(4) . . .
36.2(31) . . .
33.3(31) . . .
38.1(33) . . .
36.5(34) . . .
39.6(35) . . .
37.0(32) . . .
31.9(31) . . .
39(4) . . .
42(4) . . .
35.0(31) . . .
39.7(33) . . .
29.7(28) . . .
39.0(34) . . .
31.8(31) . . .
33.9(30) . . .
35.5(32) . . .
31.5(30) . . .
36.2(32) . . .
36.8(34) . . .
38.3(34) . . .
36.8(32) . . .
38.0(33) . . .
36.7(32) . . .
42(4) . . .
31.0(30) . . .
40.1(33) . . .
42.5(34) . . .
41.3(35) . . .
43(4) . . .
34.9(31) . . .
39.4(33) . . .
27.1(27) . . .
38.8(34) . . .
35.8(33) . . .
27.7(28) . . .
26.8(27) . . .
32.9(31) . . .
33.5(31) . . .
35.5(32) . . .
47(4) . . .
36.8(32) . . .
46(4) . . .
34.1(32) . . .
23.4(25) . . .
34.8(31) . . .
36.1(31) . . .
39.3(34) . . .
43(4) . . .
36.6(32) . . .
42.9(35) . . .
31.1(29) . . .
38.0(32) . . .
37.0(35) . . .
34.7(31) . . .
30.1(28) . . .
36.3(33) . . .
25.6(27) . . .
35.7(34) . . .
36.3(33) . . .
40.0(33) . . .
27.7(27) . . .
34.9(31) . . .
39.9(34) . . .
28.9(29) . . .
35.3(32) . . .
43.4(34) . . .
30.4(29) . . .
43(4) . . .
41.3(35) . . .
32.4(29) . . .
42.6(35) . . .
43(4) . . .
41(4) . . .
39.7(34) . . .
37.7(32) . . .
38.8(33) . . .
42(4) . . .
31.9(31) . . .
34.9(33) . . .
39.5(32) . . .
35.0(32) . . .
34.0(31) . . .
33.1(32) . . .
30.1(32) . . .
38.6(32) . . .
37.4(32) . . .
49(4) . . .
35.4(33) . . .
26.4(27) . . .
37.5(32) . . .
33.1(34) . . .
31.0(32) . . .
37.3(34) . . .
37.5(32) . . .
36.5(32) . . .
30.0(30) . . .
36.0(34) . . .
38.2(32) . . .
31.5(29) . . .
40.5(33) . . .
41.8(34) . . .
30.8(30) . . .
33.7(31) . . .
36.3(32) . . .
38.1(32) . . .
32.7(30) . . .
38(4) . . .
32.3(32) . . .
31.5(29) . . .
39.3(34) . . .
31.3(28) . . .
36.0(34) . . .
33.0(31) . . .
37.7(32) . . .
34.1(30) . . .
35.6(32) . . .
34.2(34) . . .
35.1(32) . . .
33.9(30) . . .
34.5(31) . . .
36.5(33) . . .
38.4(35) . . .
33.7(30) . . .
37.7(32) . . .
35.5(31) . . .
44(4) . . .
38.6(33) . . .
34.8(34) . . .
37.0(32) . . .
42.2(34) . . .
45(4) . . .
36.0(33) . . .
29.0(28) . . .
30.9(29) . . .
40.9(34) . . .
42.8(34) . . .
35.9(31) . . .
37.2(32) . . .
32.5(30) . . .
31.5(29) . . .
33.0(33) . . .
42(4) . . .
34.9(31) . . .
34.4(30) . . .
39(4) . . .
35.1(34) . . .
33.6(32) . . .
29.9(29) . . .
44.3(34) . . .
33.7(31) . . .
41(4) . . .
34.9(32) . . .
29.3(28) . . .
41.5(34) . . .
44(4) . . .
41(4) . . .
33.9(32) . . .
28.1(28) . . .
37.2(31) . . .
33.8(32) . . .
32.7(32) . . .
39.9(33) . . .
37.2(32) . . .
31.3(29) . . .
34.9(31) . . .
37.4(32) . . .
38.7(33) . . .
41.8(34) . . .
37.8(31) . . .
22.0(24) . . .
39(4) . . .
39.2(34) . . .
41.5(34) . . .
33.3(30) . . .
35.2(32) . . .
33.0(31) . . .
34.5(35) . . .
35.8(32) . . .
42.6(34) . . .
33.2(30) . . .
37.7(33) . . .
39.7(34) . . .
36.5(32) . . .
41(4) . . .
43(4) . . .
37.3(32) . . .
38.3(33) . . .
33.5(31) . . .
35.0(33) . . .
29.0(29) . . .
30.7(32) . . .
33.4(33) . . .
31.2(30) . . .
38.7(35) . . .
27.8(27) . . .
32.2(30) . . .
40.2(34) . . .
40.7(33) . . .
38.7(33) . . .
35.5(32) . . .
32.3(32) . . .
36.1(33) . . .
25.9(26) . . .
32.8(31) . . .
36.2(34) . . .
36.7(33) . . .
42(4) . . .
41.1(33) . . .
33.3(33) . . .
33.3(33) . . .
35.8(33) . . .
36.3(32) . . .
35.6(31) . . .
41(4) . . .
39(4) . . .
37.0(32) . . .
42.6(34) . . .
34.3(30) . . .
39(4) . . .
47(4) . . .
29.1(28) . . .
33.5(30) . . .
31.8(29) . . .
29.2(31) . . .
38.4(33) . . .
37.4(33) . . .
38.5(33) . . .
33.0(30) . . .
45(4) . . .
42.2(35) . . .
41.0(33) . . .
34.1(31) . . .
47(4) . . .
33.2(30) . . .
41.5(35) . . .
38.9(32) . . .
34.7(31) . . .
34.2(32) . . .
33.2(32) . . .
32.7(30) . . .
37(4) . . .
37.7(32) . . .
35.7(31) . . .
40(4) . . .
37.8(35) . . .
31.8(30) . . .
34.9(31) . . .
41.3(34) . . .
35.3(31) . . .
32.5(30) . . .
41.1(34) . . .
38.5(32) . . .
41.0(35) . . .
35.8(34) . . .
32.0(32) . . .
37.1(32) . . .
39.0(34) . . .
43.5(35) . . .
36.1(33) . . .
36.6(32) . . .
39.7(32) . . .
37.3(33) . . .
34.4(32) . . .
38(4) . . .
42(4) . . .
35.3(31) . . .
42.7(35) . . .
37.5(33) . . .
34.8(32) . . .
36.0(32) . . .
46(4) . . .
36.8(32) . . .
32.0(31) . . .
39.2(34) . . .
33.6(30) . . .
32.0(31) . . .
35.2(31) . . .
32.0(31) . . .
41.7(35) . . .
38.9(32) . . .
35.6(31) . . .
29.6(28) . . .
33.4(32) . . .
45(4) . . .
30.1(30) . . .
33.6(30) . . .
35.5(31) . . .
39(4) . . .
32.0(30) . . .
37.1(32) . . .
45(4) . . .
33.2(31) . . .
36.4(34) . . .
33.5(30) . . .
33.7(31) . . .
26.7(27) . . .
39.8(34) . . .
35.8(33) . . .
40(4) . . .
26.2(27) . . .
44.1(35) . . .
34.1(31) . . .
37.5(35) . . .
34.8(31) . . .
32.6(30) . . .
35.7(31) . . .
35.3(32) . . .
41(4) . . .
32.1(29) . . .
40.4(33) . . .
33.6(30) . . .
49(4) . . .
46(4) . . .
31.2(29) . . .
33.3(30) . . .
38.0(32) . . .
36.7(31) . . .
36.3(33) . . .
39.3(34) . . .
34.3(31) . . .
23.0(25) . . .
41.1(35) . . .
42(4) . . .
33.1(31) . . .
37.6(32) . . .
36.1(32) . . .
38.1(33) . . .
43(4) . . .
35.8(31) . . .
36.7(32) . . .
38.6(33) . . .
38(4) . . .
39.5(34) . . .
38.0(34) . . .
30.6(29) . . .
39.0(34) . . .
37.0(32) . . .
40.6(35) . . .
37.7(33) . . .
36.5(32) . . .
33.0(30) . . .
35.1(30) . . .
42(4) . . .
40.0(34) . . .
39.2(32) . . .
31.8(31) . . .
29.3(30) . . .
28.0(28) . . .
39.7(32) . . .
38.6(32) . . .
39(4) . . .
40.3(34) . . .
42.1(34) . . .
37.5(33) . . .
37.7(32) . . .
35.1(35) . . .
39(4) . . .
35.5(32) . . .
31.1(29) . . .
40.0(33) . . .
35.5(33) . . .
31.0(29) . . .
38.0(32) . . .
32.0(30) . . .
33.9(31) . . .
39.2(34) . . .
46(4) . . .
41(4) . . .
46(4) . . .
38.4(32) . . .
39.0(34) . . .
36.2(33) . . .
42(4) . . .
34.2(30) . . .
46(4) . . .
42.0(35) . . .
33.1(32) . . .
35.5(32) . . .
35.0(31) . . .
38.5(33) . . .
37.1(32) . . .
35.3(31) . . .
28.2(28) . . .
33.9(31) . . .
37.6(32) . . .
49(4) . . .
42.6(33) . . .
35.7(31) . . .
38.8(32) . . .
31.7(31) . . .
40(4) . . .
35.5(32) . . .
37.1(31) . . .
34.4(31) . . .
30.6(32) . . .
34.2(33) . . .
34.7(31) . . .
38.3(32) . . .
36.3(31) . . .
42.9(35) . . .
36.1(32) . . .
35.3(32) . . .
43.6(34) . . .
34.7(31) . . .
35.1(31) . . .
31.5(30) . . .
39.6(35) . . .
30.8(28) . . .
38.5(35) . . .
37.7(33) . . .
37.6(33) . . .
35.5(32) . . .
40.3(34) . . .
33.6(30) . . .
34.4(32) . . .
41(4) . . .
26.8(28) . . .
38.9(33) . . .
39.2(33) . . .
44(4) . . .
38.3(34) . . .
34.2(31) . . .
36.4(31) . . .
33.8(31) . . .
33.8(31) . . .
30.2(28) . . .
41.2(35) . . .
39.4(33) . . .
41.9(34) . . .
36.0(33) . . .
40.3(35) . . .
32.5(30) . . .
39.8(33) . . .
38.0(33) . . .
32.6(31) . . .
35.3(32) . . .
44(4) . . .
43.6(34) . . .
40.4(34) . . .
43(4) . . .
40(4) . . .
27.5(29) . . .
32.0(29) . . .
32.5(30) . . .
39.5(33) . . .
37.0(31) . . .
44.0(35) . . .
45.4(35) . . .
35.9(33) . . .
39(4) . . .
39.4(34) . . .
33.2(30) . . .
31.4(30) . . .
33.7(31) . . .
33.0(33) . . .
33.7(32) . . .
40.7(34) . . .
29.3(28) . . .
31.3(31) . . .
41(4) . . .
45(4) . . .
35.0(32) . . .
49(4) . . .
30.0(30) . . .
37(4) . . .
38.8(35) . . .
28.9(28) . . .
33.8(30) . . .
26.3(26) . . .
45(4) . . .
37.1(34) . . .
34.9(31) . . .
30.3(28) . . .
38.8(33) . . .
47(4) . . .
32.7(32) . . .
38.0(32) . . .
29.2(28) . . .
32.3(30) . . .
31.3(28) . . .
37.2(33) . . .
37.2(32) . . .
35.1(30) . . .
40.6(34) . . .
42.2(35) . . .
46(4) . . .
31.8(30) . . .
35.1(32) . . .
38.8(34) . . .
35.0(32) . . .
30.8(28) . . .
30.8(29) . . .
32.4(30) . . .
35.6(32) . . .
39.0(33) . . .
42.6(34) . . .
40.6(33) . . .
31.2(30) . . .
32.2(32) . . .
30.2(30) . . .
33.3(31) . . .
27.7(28) . . .
37.3(33) . . .
39.6(34) . . .
49(4) . . .
32.7(30) . . .
33.3(30) . . .
35.2(32) . . .
34.7(34) . . .
38.8(34) . . .
41.4(34) . . .
42.6(34) . . .
38.2(33) . . .
28.0(29) . . .
39.2(34) . . .
31.6(30) . . .
45.2(35) . . .
39.9(33) . . .
42(4) . . .
36.5(31) . . .
37.1(32) . . .
50(4) . . .
32.3(33) . . .
30.4(31) . . .
30.9(30) . . .
41.3(34) . . .
34.1(31) . . .
38.1(34) . . .
34.0(33) . . .
37.8(34) . . .
46(4) . . .
26.9(27) . . .
28.7(28) . . .
34.4(33) . . .
36.5(32) . . .
37.5(32) . . .
30.6(29) . . .
30.6(31) . . .
34.2(32) . . .
36.2(32) . . .
38.6(33) . . .
39.8(34) . . .
45(4) . . .
41(4) . . .
31.1(30) . . .
41.3(34) . . .
51(4) . . .
33.4(31) . . .
36.0(34) . . .
31.2(31) . . .
38.3(33) . . .
38.2(34) . . .
37(4) . . .
34.2(30) . . .
36.8(32) . . .
42.8(35) . . .
35.8(32) . . .
30.9(31) . . .
34.2(31) . . .
39.5(34) . . .
35.3(31) . . .
40.0(34) . . .
36.5(32) . . .
46(4) . . .
37.7(33) . . .
28.3(28) . . .
35.2(31) . . .
33.3(31) . . .
33.3(32) . . .
33.3(32) . . .
36.0(31) . . .
31.7(29) . . .
37.3(35) . . .
31.8(30) . . .
36.7(32) . . .
29.5(29) . . .
28.8(29) . . .
37.3(32) . . .
33.8(30) . . .
35.0(31) . . .
37.6(34) . . .
42(4) . . .
36.1(33) . . .
38.5(34) . . .
39.6(33) . . .
39.2(34) . . .
40.1(33) . . .
37.8(32) . . .
38.1(32) . . .
32.9(30) . . .
38.9(33) . . .
32.8(31) . . .
31.1(29) . . .
36.0(31) . . .
35.2(31) . . .
32.9(31) . . .
38.2(35) . . .
38.0(32) . . .
33.1(30) . . .
40.8(33) . . .
35.5(31) . . .
45(4) . . .
33.5(31) . . .
38.5(32) . . .
47(4) . . .
38.8(32) . . .
37.3(34) . . .
29.0(30) . . .
33.2(30) . . .
32.7(30) . . .
42.2(34) . . .
37.8(35) . . .
40(4) . . .
33.8(31) . . .
36.8(31) . . .
44.0(35) . . .
31.2(30) . . .
33.1(33) . . .
33.3(30) . . .
32.3(29) . . .
37.8(33) . . .
31.9(32) . . .
34.6(34) . . .
34.6(30) . . .
35.9(32) . . .
43(4) . . .
45(4) . . .
36.5(31) . . .
44.1(34) . . .
35.8(31) . . .
42(4) . . .
33.0(33) . . .
38.2(34) . . .
48(4) . . .
43(4) . . .
38.5(32) . . .
41.9(35) . . .
39.5(35) . . .
44.6(35) . . .
33.3(31) . . .
28.0(29) . . .
41.3(35) . . .
40.0(33) . . .
33.3(30) . . .
34.9(30) . . .
35.0(33) . . .
27.1(27) . . .
39.7(32) . . .
36.7(32) . . .
29.0(28) . . .
30.2(29) . . .
32.5(30) . . .
29.1(28) . . .
34.5(31) . . .
36.0(32) . . .
33.4(31) . . .
44(4) . . .
33.3(31) . . .
42.5(35) . . .
34.3(31) . . .
37.6(34) . . .
37.9(32) . . .
44.3(35) . . .
33.3(30) . . .
37.3(32) . . .
41(4) . . .
33.9(31) . . .
44.7(34) . . .
44.6(35) . . .
38.7(34) . . .
30.6(30) . . .
36.2(33) . . .
30.3(29) . . .
42.4(35) . . .
31.5(30) . . .
41(4) . . .
30.2(31) . . .
34.7(31) . . .
37.3(34) . . .
34.5(32) . . .
31.1(30) . . .
38.3(33) . . .
44.3(34) . . .
36.9(32) . . .
37.8(33) . . .
42(4) . . .
38.0(32) . . .
47(4) . . .
28.6(28) . . .
33.8(32) . . .
40.1(34) . . .
43(4) . . .
26.4(27) . . .
27.0(28) . . .
28.3(28) . . .
34.3(32) . . .
33.5(30) . . .
41.3(33) . . .
35.2(32) . . .
40(4) . . .
41(4) . . .
29.7(29) . . .
40.9(34) . . .
34.5(31) . . .
35.3(32) . . .
39.8(33) . . .
40.1(33) . . .
37.2(32) . . .
40.7(34) . . .
30.3(31) . . .
33.1(33) . . .
33.6(30) . . .
36.7(31) . . .
36.7(32) . . .
36.9(33) . . .
42.2(34) . . .
48(4) . . .
40.9(33) . . .
31.6(31) . . .
35.6(34) . . .
43(4) . . .
40.8(33) . . .
49(4) . . .
37.0(33) . . .
40(4) . . .
30.3(30) . . .
33.1(30) . . .
36.8(32) . . .
36.3(32) . . .
33.9(32) . . .
31.8(30) . . .
30.0(29) . . .
42.7(35) . . .
36.6(33) . . .
38.9(33) . . .
34.3(30) . . .
43.0(34) . . .
35.5(31) . . .
32.1(30) . . .
37.0(34) . . .
33.3(30) . . .
44.0(34) . . .
35.8(31) . . .
32.7(31) . . .
43(4) . . .
40.3(34) . . .
34.5(31) . . .
29.0(29) . . .
36.4(34) . . .
42(4) . . .
39.7(33) . . .
43.2(35) . . .
40.2(34) . . .
37.4(34) . . .
37.5(34) . . .
32.8(29) . . .
37.0(33) . . .
37.4(32) . . .
41(4) . . .
35.9(31) . . .
38.4(32) . . .
33.4(30) . . .
26.0(27) . . .
35.0(35) . . .
37.5(32) . . .
41.1(34) . . .
33.5(30) . . .
30.9(32) . . .
33.6(34) . . .
34.4(33) . . .
32.5(30) . . .
30.1(29) . . .
40(4) . . .
33.7(30) . . .
43(4) . . .
42.0(34) . . .
38.1(32) . . .
33.7(31) . . .
33.3(33) . . .
36.9(33) . . .
34.6(31) . . .
31.6(30) . . .
34.3(32) . . .
35.2(32) . . .
46(4) . . .
41.8(33) . . .
30.6(30) . . .
28.4(28) . . .
33.6(32) . . .
39.8(33) . . .
38.3(32) . . .
41.8(34) . . .
46(4) . . .
34.3(31) . . .
38.0(33) . . .
36.8(31) . . .
54(4) . . .
37.3(33) . . .
41(4) . . .
38.1(33) . . .
30.5(29) . . .
27.3(28) . . .
29.3(30) . . .
31.2(31) . . .
28.8(29) . . .
32.8(29) . . .
37.0(32) . . .
41(4) . . .
32.5(30) . . .
39.4(33) . . .
34.6(30) . . .
38.5(34) . . .
35.2(34) . . .
40.2(34) . . .
37.9(32) . . .
34.6(31) . . .
38.6(33) . . .
39.5(35) . . .
39.6(34) . . .
33.8(31) . . .
36.0(31) . . .
35.5(31) . . .
34.6(31) . . .
36.2(33) . . .
37.8(32) . . .
35.7(33) . . .
36.1(35) . . .
36.3(35) . . .
38(4) . . .
35.6(31) . . .
35.9(31) . . .
38.1(33) . . .
32.6(31) . . .
28.0(28) . . .
32.3(30) . . .
37.4(33) . . .
36.2(33) . . .
39.6(34) . . .
36.7(34) . . .
38.3(33) . . .
31.8(29) . . .
37.0(33) . . .
35.0(32) . . .
36.7(33) . . .
34.6(31) . . .
36.1(32) . . .
37.0(34) . . .
39.4(33) . . .
36.4(31) . . .
38.3(32) . . .
41.7(35) . . .
39(4) . . .
36.1(34) . . .
40.1(34) . . .
41.5(34) . . .
42(4) . . .
28.9(29) . . .
35.6(32) . . .
29.7(28) . . .
37.8(32) . . .
33.2(29) . . .
31.8(31) . . .
37.2(32) . . .
40.4(33) . . .
32.3(29) . . .
46(4) . . .
43(4) . . .
35.2(33) . . .
29.4(29) . . .
39.0(32) . . .
33.0(30) . . .
34.0(33) . . .
35.5(31) . . .
44.4(35) . . .
38.4(33) . . .
35.5(33) . . .
29.2(29) . . .
35.2(34) . . .
40.5(33) . . .
32.7(31) . . .
33.3(30) . . .
38.1(33) . . .
42.7(35) . . .
45(4) . . .
41.2(34) . . .
33.3(32) . . .
32.2(30) . . .
48(4) . . .
40.8(33) . . .
34.0(33) . . .
34.4(31) . . .
31.0(29) . . .
39.9(34) . . .
34.2(30) . . .
30.0(30) . . .
32.5(33) . . .
30.6(29) . . .
31.5(30) . . .
31.9(30) . . .
29.4(30) . . .
44(4) . . .
34.1(32) . . .
32.5(30) . . .
40.2(34) . . .
35.9(32) . . .
40(4) . . .
30.2(30) . . .
34.9(32) . . .
29.6(29) . . .
39(4) . . .
32.6(33) . . .
40(4) . . .
38.7(32) . . .
30.2(29) . . .
33.2(31) . . .
33.7(33) . . .
27.3(28) . . .
28.3(28) . . .
31.8(29) . . .
32.3(31) . . .
36.7(35) . . .
33.9(32) . . .
36.3(31) . . .
44(4) . . .
30.8(31) . . .
37.0(34) . . .
33.5(33) . . .
36.9(31) . . .
30.1(29) . . .
31.8(30) . . .
35.5(32) . . .
47(4) . . .
36.7(32) . . .
32.8(30) . . .
40.7(35) . . .
38.8(34) . . .
44(4) . . .
36.0(31) . . .
31.0(30) . . .
33.4(31) . . .
38.5(35) . . .
34.1(32) . . .
36.2(31) . . .
30.8(30) . . .
25.6(28) . . .
32.3(32) . . .
29.2(28) . . .
38.7(32) . . .
40.3(34) . . .
42.0(35) . . .
41.0(34) . . .
34.3(31) . . .
35.7(32) . . .
35.0(31) . . .
37.4(34) . . .
41.5(35) . . .
39.4(33) . . .
37.3(32) . . .
36.2(32) . . .
26.0(28) . . .
32.3(30) . . .
29.4(28) . . .
38.3(32) . . .
38.1(34) . . .
39(4) . . .
40.7(34) . . .
43.0(34) . . .
41.1(33) . . .
34.6(31) . . .
33.3(32) . . .
25.7(28) . . .
30.8(29) . . .
33.3(31) . . .
30.1(29) . . .
36.8(34) . . .
44(4) . . .
35.2(31) . . .
34.5(31) . . .
38.2(33) . . .
35.9(32) . . .
45(4) . . .
36.1(31) . . .
40.3(34) . . .
32.5(31) . . .
33.6(33) . . .
28.6(28) . . .
37.7(32) . . .
34.7(30) . . .
34.7(32) . . .
42(4) . . .
41.5(34) . . .
31.4(29) . . .
36.3(33) . . .
25.7(28) . . .
28.4(31) . . .
37.1(33) . . .
27.1(27) . . .
40(4) . . .
39.4(33) . . .
41.5(33) . . .
35.3(31) . . .
40.5(33) . . .
36.0(33) . . .
43(4) . . .
33.0(31) . . .
34.2(31) . . .
38.9(32) . . .
36.6(32) . . .
36.4(33) . . .
35.1(31) . . .
39.3(33) . . .
33.3(31) . . .
35.4(33) . . .
39(4) . . .
28.7(29) . . .
41.0(33) . . .
34.6(31) . . .
31.9(32) . . .
37(4) . . .
28.3(28) . . .
40.9(33) . . .
38.5(32) . . .
37.2(32) . . .
32.9(31) . . .
35.8(32) . . .
34.3(31) . . .
33.4(30) . . .
35.9(33) . . .
24.4(27) . . .
36(4) . . .
43.0(34) . . .
39.2(33) . . .
33.9(31) . . .
37.0(34) . . .
27.5(28) . . .
38.5(32) . . .
36.0(32) . . .
34.7(32) . . .
32.5(32) . . .
36.1(32) . . .
38.2(33) . . .
35.0(32) . . .
35.1(33) . . .
38.0(35) . . .
43.0(35) . . .
33.0(30) . . .
31.7(30) . . .
36(4) . . .
31.7(32) . . .
37.0(32) . . .
32.1(30) . . .
38.7(33) . . .
44(4) . . .
37.4(33) . . .
34.8(31) . . .
40.0(34) . . .
41(4) . . .
31.1(31) . . .
35.0(31) . . .
41.0(33) . . .
34.6(30) . . .
29.9(29) . . .
37.4(35) . . .
31.5(31) . . .
31.9(29) . . .
32.0(29) . . .
31.0(30) . . .
32.8(33) . . .
33.8(31) . . .
36.8(32) . . .
42.9(34) . . .
32.8(32) . . .
28.7(29) . . .
36.2(34) . . .
29.8(28) . . .
29.1(28) . . .
36.4(34) . . .
37.3(34) . . .
41.1(34) . . .
36.3(31) . . .
37.2(33) . . .
37.0(33) . . .
31.2(30) . . .
37.5(35) . . .
41.7(34) . . .
35.3(31) . . .
32.2(29) . . .
29.3(27) . . .
38(4) . . .
37.0(32) . . .
37.6(34) . . .
36.6(32) . . .
32.9(32) . . .
21.1(24) . . .
30.5(28) . . .
28.2(29) . . .
34.8(31) . . .
40.7(34) . . .
32.4(29) . . .
35.4(32) . . .
35.5(32) . . .
39(4) . . .
28.5(28) . . .
32.6(30) . . .
35.7(31) . . .
36.3(32) . . .
43(4) . . .
39.9(32) . . .
38.7(33) . . .
32.9(31) . . .
28.6(28) . . .
33.0(32) . . .
33.7(30) . . .
46(4) . . .
37.6(32) . . .
36.9(33) . . .
33.6(34) . . .
33.0(31) . . .
36.5(33) . . .
37.4(32) . . .
31.0(29) . . .
28.5(30) . . .
33.8(31) . . .
40.4(33) . . .
35.3(31) . . .
30.4(30) . . .
32.9(31) . . .
34.6(33) . . .
36.4(31) . . .
35.0(31) . . .
36.8(33) . . .
36.9(32) . . .
37.5(32) . . .
38.3(32) . . .
27.8(30) . . .
40(4) . . .
31.7(30) . . .
42(4) . . .
39.7(33) . . .
37.5(32) . . .
34.8(32) . . .
30.4(28) . . .
33.5(31) . . .
30.9(29) . . .
29.6(28) . . .
35.6(32) . . .
41.0(34) . . .
34.0(30) . . .
30.7(28) . . .
32.8(33) . . .
33.7(32) . . .
35.8(32) . . .
35.4(31) . . .
42.5(34) . . .
38(4) . . .
32.3(32) . . .
35.5(32) . . .
34.0(30) . . .
37.3(32) . . .
43(4) . . .
40.6(34) . . .
36.2(32) . . .
26.6(27) . . .
34.2(30) . . .
36.7(31) . . .
39.3(34) . . .
37.9(33) . . .
36.4(31) . . .
45(4) . . .
35.7(31) . . .
45(4) . . .
37.5(33) . . .
43.4(34) . . .
42.5(34) . . .
40(4) . . .
29.6(30) . . .
29.9(29) . . .
33.0(30) . . .
33.0(30) . . .
37.0(32) . . .
32.9(30) . . .
41(4) . . .
28.2(28) . . .
36.1(33) . . .
29.9(29) . . .
32.5(33) . . .
30.9(31) . . .
36.1(32) . . .
33.7(30) . . .
39.9(33) . . .
41(4) . . .
38.9(35) . . .
29.6(28) . . .
34.3(31) . . .
38.3(34) . . .
26.7(28) . . .
35.5(33) . . .
33.8(31) . . .
27.8(28) . . .
35.6(34) . . .
33.7(32) . . .
26.4(28) . . .
33.5(30) . . .
39.9(33) . . .
40.2(35) . . .
29.0(28) . . .
32.0(29) . . .
35.6(31) . . .
31.8(29) . . .
33.6(31) . . .
39.7(34) . . .
32.2(30) . . .
23.8(26) . . .
38.5(34) . . .
36.0(34) . . .
33.2(33) . . .
36.5(31) . . .
35.0(31) . . .
37.9(34) . . .
25.6(25) . . .
31.9(32) . . .
41.8(34) . . .
23.5(25) . . .
35.5(32) . . .
45(4) . . .
30.7(29) . . .
37.5(34) . . .
30.9(29) . . .
32.0(31) . . .
40(4) . . .
42(4) . . .
31.6(29) . . .
31.8(30) . . .
34.5(33) . . .
40.7(35) . . .
38.3(32) . . .
33.7(30) . . .
37.2(33) . . .
34.3(30) . . .
42(4) . . .
34.8(32) . . .
26.9(27) . . .
36.0(32) . . .
29.0(29) . . .
45(4) . . .
35.6(31) . . .
31.3(29) . . .
26.7(27) . . .
35.7(34) . . .
35.7(33) . . .
40.1(33) . . .
38.4(33) . . .
30.2(29) . . .
31.0(32) . . .
30.9(29) . . .
34.7(32) . . .
32.3(29) . . .
38.9(34) . . .
35.0(32) . . .
39(4) . . .
45.4(35) . . .
41.4(33) . . .
35.3(32) . . .
24.2(28) . . .
33.6(32) . . .
37.8(32) . . .
37.0(32) . . .
30.8(29) . . .
34.2(33) . . .
32.1(31) . . .
32.7(30) . . .
39.1(34) . . .
35.0(31) . . .
33.6(33) . . .
25.1(27) . . .
37.4(32) . . .
38.2(32) . . .
41(4) . . .
33.3(32) . . .
35.5(34) . . .
37.1(32) . . .
35.0(30) . . .
38(4) . . .
36.8(35) . . .
29.4(29) . . .
39.5(33) . . .
34.8(31) . . .
37(4) . . .
30.3(30) . . .
31.4(30) . . .
34.5(31) . . .
41.6(35) . . .
34.0(33) . . .
41(4) . . .
37.3(32) . . .
38.1(33) . . .
31.9(31) . . .
33.9(33) . . .
35.8(31) . . .
30.6(30) . . .
38.7(33) . . .
31.6(31) . . .
33.7(33) . . .
33.7(31) . . .
34.1(30) . . .
32.9(30) . . .
38(4) . . .
37.4(33) . . .
38.5(31) . . .
34.6(31) . . .
26.1(27) . . .
43(4) . . .
32.9(33) . . .
26.6(26) . . .
43.3(35) . . .
32.5(30) . . .
36.4(33) . . .
35.9(33) . . .
38.8(33) . . .
43.1(34) . . .
42.6(34) . . .
34.9(30) . . .
44(4) . . .
33.9(31) . . .
43.6(34) . . .
34.2(31) . . .
35.0(31) . . .
38.3(33) . . .
37.7(34) . . .
34.6(31) . . .
41.1(34) . . .
36.7(33) . . .
37.5(33) . . .
41(4) . . .
44.4(35) . . .
32.9(31) . . .
32.8(32) . . .
37.7(35) . . .
32.3(30) . . .
35.2(31) . . .
32.3(30) . . .
33.2(33) . . .
40.0(35) . . .
43.6(34) . . .
37.1(32) . . .
35.2(31) . . .
43(4) . . .
39.5(34) . . .
26.4(27) . . .
35.8(32) . . .
36(4) . . .
25.3(26) . . .
36.0(32) . . .
44.7(35) . . .
40.0(33) . . .
37.0(34) . . .
34.2(31) . . .
43(4) . . .
38.6(32) . . .
30.4(29) . . .
37.7(32) . . .
46(4) . . .
38.4(33) . . .
35.8(32) . . .
35.4(31) . . .
24.5(25) . . .
33.3(34) . . .
29.0(30) . . .
24.9(26) . . .
36.0(31) . . .
35.5(33) . . .
27.2(29) . . .
31.3(30) . . .
31.1(29) . . .
28.5(28) . . .
44(4) . . .
30.7(30) . . .
37.6(33) . . .
32.4(31) . . .
37.3(31) . . .
37.4(33) . . .
36.5(33) . . .
34.9(33) . . .
40.9(33) . . .
24.1(26) . . .
34.8(35) . . .
30.1(28) . . .
44(4) . . .
33.2(30) . . .
32.7(31) . . .
33.9(33) . . .
35.4(33) . . .
35.7(32) . . .
32.7(30) . . .
30.7(29) . . .
36.8(33) . . .
32.2(30) . . .
37.2(32) . . .
37.7(32) . . .
35.4(32) . . .
32.3(32) . . .
30.0(30) . . .
37.3(34) . . .
36.3(31) . . .
27.4(28) . . .
40(4) . . .
31.8(30) . . .
37.8(33) . . .
32.0(30) . . .
36.7(34) . . .
38.0(34) . . .
41(4) . . .
35.8(31) . . .
36.5(32) . . .
39.0(34) . . .
39.3(35) . . .
35.1(31) . . .
32.0(29) . . .
37.0(31) . . .
37.1(32) . . .
35.8(35) . . .
34.8(31) . . .
40.7(33) . . .
35.5(32) . . .
34.8(32) . . .
30.9(31) . . .
38.2(34) . . .
34.1(30) . . .
38.6(33) . . .
42.0(34) . . .
34.2(31) . . .
36.1(32) . . .
44.4(34) . . .
35.2(31) . . .
35.6(32) . . .
33.5(32) . . .
34.3(31) . . .
31.6(30) . . .
33.3(34) . . .
31.2(30) . . .
31.3(30) . . .
34.1(32) . . .
32.3(30) . . .
30.9(29) . . .
30.7(30) . . .
32.8(31) . . .
36.5(33) . . .
35.0(31) . . .
34.4(31) . . .
40.3(34) . . .
34.8(30) . . .
37.1(31) . . .
36.2(32) . . .
31.6(29) . . .
30.3(31) . . .
31.6(30) . . .
32.5(30) . . .
39.9(32) . . .
37.5(35) . . .
28.6(27) . . .
31.9(29) . . .
39.0(32) . . .
39.0(34) . . .
37.2(32) . . .
30.4(29) . . .
33.5(33) . . .
25.1(27) . . .
33.1(30) . . .
37.5(32) . . .
28.2(28) . . .
36.5(34) . . .
34.2(30) . . .
29.1(28) . . .
27.4(28) . . .
36.2(32) . . .
32.1(30) . . .
31.2(29) . . .
31.5(31) . . .
26.6(27) . . .
33.2(31) . . .
43(4) . . .
33.2(30) . . .
40.3(33) . . .
41.1(34) . . .
33.6(32) . . .
37.8(34) . . .
40.1(33) . . .
32.4(31) . . .
35.5(32) . . .
39.1(34) . . .
40(4) . . .
32.5(30) . . .
34.2(31) . . .
40.3(35) . . .
33.5(31) . . .
27.7(28) . . .
36.4(31) . . .
33.0(32) . . .
37.9(35) . . .
37.5(32) . . .
44.3(35) . . .
38.4(32) . . .
34.5(34) . . .
31.1(32) . . .
30.1(31) . . .
35.1(32) . . .
38.9(32) . . .
32.3(31) . . .
31.3(32) . . .
39.7(35) . . .
36.9(32) . . .
39.0(34) . . .
39.1(35) . . .
34.4(33) . . .
36.5(32) . . .
43.7(34) . . .
39.0(34) . . .
31.1(31) . . .
31.1(31) . . .
38.6(33) . . .
41.4(33) . . .
31.1(29) . . .
35.8(33) . . .
29.7(32) . . .
29.9(29) . . .
37.5(32) . . .
43.5(34) . . .
31.0(28) . . .
32.7(30) . . .
37.0(32) . . .
36.5(31) . . .
28.4(29) . . .
31.7(31) . . .
35.6(32) . . .
35.2(31) . . .
35.8(31) . . .
37.0(32) . . .
40.1(35) . . .
30.5(29) . . .
33.0(30) . . .
33.6(30) . . .
45(4) . . .
33.5(30) . . .
32.6(31) . . .
33.0(31) . . .
34.5(30) . . .
44(4) . . .
29.4(29) . . .
35.1(32) . . .
42(4) . . .
37.5(32) . . .
37.5(35) . . .
33.5(32) . . .
40(4) . . .
33.2(30) . . .
36.2(31) . . .
29.3(29) . . .
28.5(30) . . .
32.0(32) . . .
35.3(31) . . .
29.1(28) . . .
32.8(31) . . .
38.3(34) . . .
32.8(31) . . .
44.4(35) . . .
48(4) . . .
26.8(27) . . .
44(4) . . .
39.4(33) . . .
35.4(31) . . .
30.9(29) . . .
39.3(33) . . .
27.0(28) . . .
24.0(27) . . .
35.5(32) . . .
31.8(31) . . .
36.3(33) . . .
38.1(34) . . .
38.3(32) . . .
44(4) . . .
39.8(32) . . .
30.0(28) . . .
41(4) . . .
41.4(35) . . .
36.3(31) . . .
36.3(31) . . .
40.8(34) . . .
31.2(28) . . .
42.6(35) . . .
35.4(31) . . .
39.1(32) . . .
41.0(34) . . .
32.7(32) . . .
32.6(33) . . .
37.7(32) . . .
33.9(31) . . .
31.8(33) . . .
37.4(33) . . .
34.2(30) . . .
33.6(30) . . .
38.2(33) . . .
32.6(32) . . .
29.4(30) . . .
34.9(32) . . .
41.7(34) . . .
40(4) . . .
21.9(25) . . .
34.3(31) . . .
35.6(31) . . .
32.5(30) . . .
36.5(33) . . .
33.7(33) . . .
31.1(32) . . .
34.8(30) . . .
31.5(30) . . .
43(4) . . .
39(4) . . .
36.3(33) . . .
27.5(27) . . .
40.7(34) . . .
32.6(31) . . .
33.3(34) . . .
32.7(31) . . .
40.3(32) . . .
33.5(31) . . .
28.7(29) . . .
26.5(29) . . .
32.2(31) . . .
38.7(33) . . .
41.3(34) . . .
45(4) . . .
33.7(32) . . .
31.0(30) . . .
33.0(30) . . .
30.4(29) . . .
27.9(28) . . .
36.1(34) . . .
37.0(31) . . .
36.2(32) . . .
36.3(33) . . .
39.4(32) . . .
39.0(33) . . .
34.7(32) . . .
38.7(32) . . .
46(4) . . .
34.5(31) . . .
34.8(32) . . .
38.1(34) . . .
27.7(27) . . .
30.8(31) . . .
44(4) . . .
35.7(32) . . .
32.8(30) . . .
42.2(34) . . .
36.1(32) . . .
32.5(29) . . .
46(4) . . .
33.6(30) . . .
37.7(32) . . .
30.9(31) . . .
31.6(35) . . .
34.2(32) . . .
35.3(31) . . .
34.4(30) . . .
30.7(29) . . .
29.9(30) . . .
32.6(33) . . .
29.5(28) . . .
37.4(32) . . .
38.8(34) . . .
32.2(32) . . .
29.4(30) . . .
32.1(30) . . .
28.6(28) . . .
33.1(30) . . .
27.6(28) . . .
27.8(28) . . .
27.5(28) . . .
32.5(30) . . .
28.3(29) . . .
33.3(32) . . .
46(4) . . .
47(4) . . .
36.1(32) . . .
40.4(34) . . .
28.3(29) . . .
41.3(35) . . .
34.5(31) . . .
41.6(34) . . .
36.6(32) . . .
39(4) . . .
40.0(34) . . .
33.4(31) . . .
35.0(31) . . .
31.4(31) . . .
28.9(31) . . .
29.0(28) . . .
33.6(30) . . .
43(4) . . .
35.4(32) . . .
33.1(31) . . .
39.0(32) . . .
39.3(33) . . .
38.2(33) . . .
35.3(33) . . .
31.6(28) . . .
28.8(28) . . .
42.2(34) . . .
39.2(34) . . .
35.1(33) . . .
33.7(32) . . .
38.3(32) . . .
38.5(32) . . .
26.4(27) . . .
31.0(30) . . .
31.2(30) . . .
32.8(31) . . .
36.6(31) . . .
37.4(33) . . .
36.0(31) . . .
34.7(30) . . .
29.6(29) . . .
23.8(26) . . .
31.0(32) . . .
35.4(33) . . .
28.5(28) . . .
28.3(28) . . .
39.4(34) . . .
39.2(34) . . .
30.2(29) . . .
30.9(31) . . .
40.1(33) . . .
30.1(29) . . .
37.5(34) . . .
33.2(32) . . .
31.2(30) . . .
34.3(31) . . .
37.6(33) . . .
34.2(31) . . .
36.1(33) . . .
30.0(30) . . .
36.1(31) . . .
33.1(30) . . .
37.3(34) . . .
35.1(31) . . .
40.4(34) . . .
31.0(29) . . .
34.0(34) . . .
29.0(29) . . .
36.7(34) . . .
26.5(27) . . .
33.4(30) . . .
49(4) . . .
36.8(33) . . .
30.8(29) . . .
24.0(25) . . .
37.2(32) . . .
33.4(30) . . .
33.8(34) . . .
32.2(31) . . .
35.0(31) . . .
37.5(33) . . .
37.5(32) . . .
36.1(35) . . .
36.0(33) . . .
34.5(31) . . .
27.7(27) . . .
27.6(27) . . .
36.4(33) . . .
43(4) . . .
36.3(31) . . .
28.7(29) . . .
35.9(35) . . .
40(4) . . .
40.0(33) . . .
44(4) . . .
37.5(33) . . .
29.6(28) . . .
38.9(34) . . .
27.9(29) . . .
31.2(29) . . .
39.9(33) . . .
46(4) . . .
32.2(31) . . .
34.0(32) . . .
39.3(33) . . .
28.5(29) . . .
23.7(25) . . .
35.6(33) . . .
37.5(33) . . .
38.6(32) . . .
35.6(31) . . .
42(4) . . .
38.4(34) . . .
40.7(35) . . .
44.6(35) . . .
42(4) . . .
33.3(30) . . .
41.8(33) . . .
33.6(31) . . .
35.1(31) . . .
41.7(34) . . .
27.8(27) . . .
31.5(30) . . .
32.6(30) . . .
35.0(31) . . .
29.8(29) . . .
35.5(33) . . .
33.2(29) . . .
41(4) . . .
39.6(34) . . .
42.7(34) . . .
33.0(31) . . .
23.7(26) . . .
24.4(26) . . .
28.9(29) . . .
35.3(34) . . .
43(4) . . .
32.6(32) . . .
39.0(33) . . .
42.8(34) . . .
32.9(31) . . .
32.3(32) . . .
37.6(33) . . .
38.1(32) . . .
42(4) . . .
45(4) . . .
37.6(33) . . .
36.8(32) . . .
42.9(34) . . .
42.8(34) . . .
32.4(30) . . .
31.2(30) . . .
42(4) . . .
35.6(31) . . .
36.9(32) . . .
38.1(33) . . .
32.8(31) . . .
36.2(32) . . .
31.8(30) . . .
34.0(31) . . .
30.5(29) . . .
36.9(32) . . .
39.8(35) . . .
42.7(34) . . .
40.7(35) . . .
33.5(31) . . .
25.6(25) . . .
36.1(31) . . .
29.6(28) . . .
37.4(34) . . .
38.5(34) . . .
38.8(34) . . .
40.9(33) . . .
40.5(33) . . .
40.5(34) . . .
36.3(32) . . .
33.0(31) . . .
44(4) . . .
31.9(29) . . .
32.3(30) . . .
32.7(32) . . .
35.1(33) . . .
36.0(33) . . .
44(4) . . .
34.2(32) . . .
30.0(31) . . .
26.2(28) . . .
35.0(31) . . .
34.2(31) . . .
37.7(33) . . .
30.7(31) . . .
42(4) . . .
31.7(29) . . .
31.3(30) . . .
28.4(27) . . .
43(4) . . .
36.3(33) . . .
28.4(28) . . .
44(4) . . .
34.7(33) . . .
28.4(29) . . .
36.2(32) . . .
32.1(30) . . .
31.2(29) . . .
32.8(30) . . .
35.9(34) . . .
41(4) . . .
29.7(29) . . .
33.7(30) . . .
38.9(33) . . .
34.7(31) . . .
34.2(31) . . .
33.2(30) . . .
23.0(25) . . .
45(4) . . .
36.2(33) . . .
35.3(31) . . .
35.8(31) . . .
38.9(33) . . .
39.8(32) . . .
41.6(33) . . .
43(4) . . .
39.1(32) . . .
40(4) . . .
36.8(33) . . .
35.7(32) . . .
46(4) . . .
44(4) . . .
37.2(32) . . .
34.0(31) . . .
33.4(31) . . .
37.6(32) . . .
36.0(32) . . .
40.4(33) . . .
44.4(35) . . .
34.7(32) . . .
31.2(29) . . .
30.9(29) . . .
42.1(35) . . .
43(4) . . .
42(4) . . .
31.6(29) . . .
30.2(29) . . .
39.5(34) . . .
36.4(34) . . .
41.1(34) . . .
38.0(32) . . .
32.1(30) . . .
34.8(31) . . .
35.9(31) . . .
34.7(32) . . .
40.7(33) . . .
38.0(32) . . .
30.5(28) . . .
34.4(32) . . .
36.6(33) . . .
34.4(30) . . .
36.7(31) . . .
35.2(33) . . .
41(4) . . .
36.8(31) . . .
44.3(34) . . .
45(4) . . .
46(4) . . .
35.0(34) . . .
45(4) . . .
42.7(34) . . .
40.8(34) . . .
38.5(34) . . .
32.4(31) . . .
42(4) . . .
27.9(28) . . .
36.3(33) . . .
39.1(34) . . .
38.3(33) . . .
38.5(33) . . .
39.9(33) . . .
31.9(30) . . .
35.9(32) . . .
40.5(34) . . .
38.3(33) . . .
44.3(34) . . .
43(4) . . .
39.6(34) . . .
35.2(33) . . .
33.6(30) . . .
28.1(28) . . .
35.3(32) . . .
35.5(34) . . .
33.2(32) . . .
40.3(34) . . .
33.8(30) . . .
29.7(29) . . .
30.1(31) . . .
28.8(28) . . .
48(4) . . .
37.7(31) . . .
31.6(30) . . .
30.4(33) . . .
29.1(30) . . .
41.0(34) . . .
36.5(31) . . .
32.7(31) . . .
36.1(33) . . .
30.6(30) . . .
22.9(26) . . .
26.2(27) . . .
35.6(33) . . .
37.5(34) . . .
35.0(32) . . .
38.3(33) . . .
37(4) . . .
31.1(33) . . .
36.1(32) . . .
37.6(33) . . .
36.3(31) . . .
29.5(30) . . .
26.7(28) . . .
30.2(30) . . .
34.7(31) . . .
36.8(32) . . .
31.0(32) . . .
29.5(31) . . .
41.5(35) . . .
32.3(29) . . .
29.3(28) . . .
34.6(32) . . .
38.4(34) . . .
41.3(35) . . .
38.6(33) . . .
38.2(32) . . .
39.3(34) . . .
45(4) . . .
51(4) . . .
34.1(31) . . .
30.4(29) . . .
32.3(33) . . .
29.3(28) . . .
28.3(28) . . .
27.0(27) . . .
36.5(32) . . .
31.8(30) . . .
39(4) . . .
33.5(30) . . .
31.0(29) . . .
21.9(24) . . .
32.1(29) . . .
44(4) . . .
42.1(35) . . .
36.0(32) . . .
30.1(28) . . .
31.5(29) . . .
37.9(33) . . .
38.7(33) . . .
31.7(30) . . .
35.3(32) . . .
38.0(34) . . .
27.9(27) . . .
35.8(34) . . .
26.8(27) . . .
31.5(30) . . .
29.3(29) . . .
39.3(34) . . .
35.1(33) . . .
34.5(31) . . .
41.6(35) . . .
35.6(33) . . .
35.6(34) . . .
30.9(31) . . .
25.8(26) . . .
29.5(29) . . .
35.8(34) . . .
43(4) . . .
31.6(31) . . .
36.3(31) . . .
39.5(33) . . .
38(4) . . .
31.1(31) . . .
35.0(32) . . .
36.9(32) . . .
36.3(32) . . .
31.0(30) . . .
38.5(35) . . .
35.8(31) . . .
28.0(28) . . .
45(4) . . .
38.0(33) . . .
43(4) . . .
36.2(32) . . .
46(4) . . .
46(4) . . .
35.1(33) . . .
36.0(34) . . .
29.2(28) . . .
37.6(32) . . .
35.9(32) . . .
35.0(32) . . .
27.3(28) . . .
43.5(34) . . .
43.5(34) . . .
32.9(30) . . .
31.5(31) . . .
32.5(33) . . .
28.1(27) . . .
34.1(32) . . .
46(4) . . .
36.3(32) . . .
33.1(30) . . .
35.0(32) . . .
36.4(33) . . .
32.8(30) . . .
29.3(28) . . .
29.4(28) . . .
34.6(31) . . .
38.1(33) . . .
33.3(30) . . .
44(4) . . .
41.5(34) . . .
35.4(31) . . .
34.6(31) . . .
38.0(34) . . .
41(4) . . .
30.6(29) . . .
31.3(29) . . .
30.6(31) . . .
32.8(33) . . .
28.5(30) . . .
30.2(30) . . .
38.3(33) . . .
40(4) . . .
30.4(30) . . .
27.5(28) . . .
34.1(32) . . .
32.9(30) . . .
33.1(30) . . .
30.2(30) . . .
34.5(32) . . .
39.6(33) . . .
32.5(30) . . .
34.0(30) . . .
30.1(31) . . .
31.1(31) . . .
35.3(32) . . .
36.4(32) . . .
29.9(29) . . .
29.7(28) . . .
27.8(27) . . .
25.8(27) . . .
31.3(29) . . .
39.8(33) . . .
33.7(32) . . .
38.4(34) . . .
37.0(32) . . .
37.0(34) . . .
32.5(34) . . .
27.1(31) . . .
23.9(25) . . .
40.2(34) . . .
34.9(33) . . .
36.0(34) . . .
33(4) . . .
34.8(31) . . .
33.5(30) . . .
37.4(33) . . .
37.5(33) . . .
41.3(34) . . .
35.8(32) . . .
39.1(33) . . .
38.0(33) . . .
36.7(33) . . .
34.0(30) . . .
37.3(33) . . .
35.9(31) . . .
33.2(32) . . .
37.3(33) . . .
37.4(32) . . .
36.9(31) . . .
36.6(32) . . .
34.0(31) . . .
29.4(30) . . .
29.2(28) . . .
32.5(30) . . .
34.3(31) . . .
38.8(33) . . .
43(4) . . .
37.0(32) . . .
32.0(30) . . .
28.8(27) . . .
32.2(29) . . .
46(4) . . .
37.6(35) . . .
36.5(31) . . .
42.8(34) . . .
33.7(30) . . .
33.6(33) . . .
32.8(31) . . .
39.7(32) . . .
21.5(25) . . .
27.3(29) . . .
38.0(34) . . .
35.5(32) . . .
33.9(30) . . .
32.4(30) . . .
34.9(32) . . .
36.2(32) . . .
42(4) . . .
33.7(30) . . .
32.2(30) . . .
34.2(32) . . .
30.0(28) . . .
35.3(32) . . .
36.0(31) . . .
36.7(34) . . .
32.9(31) . . .
35.3(32) . . .
27.8(27) . . .
35.5(31) . . .
33.8(32) . . .
36.8(33) . . .
32.3(30) . . .
38.3(35) . . .
35.2(31) . . .
33.7(31) . . .
31.4(30) . . .
34.0(31) . . .
31.3(29) . . .
38.8(33) . . .
31.2(29) . . .
31.9(30) . . .
38.9(34) . . .
30.9(29) . . .
32.3(30) . . .
30.6(31) . . .
34.6(33) . . .
32.6(31) . . .
32.3(30) . . .
37.8(32) . . .
41(4) . . .
33.0(33) . . .
38.3(35) . . .
32.3(30) . . .
33.7(30) . . .
28.4(28) . . .
30.1(32) . . .
28.1(28) . . .
33.7(30) . . .
37.1(31) . . .
41.8(34) . . .
37.0(34) . . .
37.2(33) . . .
36.9(31) . . .
21.2(26) . . .
31.9(33) . . .
38.0(34) . . .
40.8(34) . . .
33.8(30) . . .
31.0(29) . . .
34.8(33) . . .
30.8(32) . . .
33.5(33) . . .
41.6(34) . . .
31.7(32) . . .
34.8(32) . . .
32.2(30) . . .
34.3(34) . . .
31.2(29) . . .
40.1(35) . . .
32.8(31) . . .
35.5(35) . . .
30.5(30) . . .
30.3(29) . . .
32.1(30) . . .
43(4) . . .
36.3(32) . . .
36.6(32) . . .
25.1(26) . . .
35.9(31) . . .
36.3(33) . . .
34.3(34) . . .
29.6(29) . . .
33.6(30) . . .
35.1(32) . . .
44(4) . . .
39.3(34) . . .
32.0(29) . . .
31.0(29) . . .
30.4(29) . . .
29.3(30) . . .
30.0(29) . . .
38.9(33) . . .
26.5(27) . . .
35.4(34) . . .
34.6(34) . . .
40(4) . . .
34.2(31) . . .
35.2(31) . . .
36.8(33) . . .
43(4) . . .
37.0(33) . . .
41.3(33) . . .
41.3(34) . . .
34.2(31) . . .
32.7(31) . . .
35.0(30) . . .
39.1(33) . . .
35.8(31) . . .
26.5(28) . . .
30.8(33) . . .
38.1(34) . . .
35.8(31) . . .
36.7(31) . . .
31.5(28) . . .
38.2(33) . . .
36.8(32) . . .
34.1(31) . . .
42.6(34) . . .
36(4) . . .
33.1(33) . . .
34.8(32) . . .
31.1(29) . . .
33.2(30) . . .
35.4(33) . . .
36.0(34) . . .
29.7(28) . . .
38.2(32) . . .
30.4(29) . . .
35.6(31) . . .
39.7(34) . . .
38.3(32) . . .
36.9(31) . . .
33.2(30) . . .
28.6(28) . . .
34.5(32) . . .
40.8(34) . . .
37.8(32) . . .
29.5(29) . . .
33.6(34) . . .
29.6(30) . . .
42(4) . . .
32.8(30) . . .
40.7(35) . . .
37.1(33) . . .
39.4(33) . . .
37.6(32) . . .
36.1(33) . . .
34.4(31) . . .
41(4) . . .
35.7(33) . . .
34.5(31) . . .
28.6(27) . . .
34.1(32) . . .
32.9(32) . . .
30.9(30) . . .
25.5(26) . . .
36.7(32) . . .
34.8(33) . . .
38.0(35) . . .
43(4) . . .
41.5(34) . . .
36.1(31) . . .
40.7(34) . . .
39.7(35) . . .
35.0(31) . . .
35.5(32) . . .
32.7(31) . . .
39.6(34) . . .
39.3(35) . . .
30.6(29) . . .
36.3(32) . . .
31.3(30) . . .
40.3(34) . . .
31.8(30) . . .
32.5(31) . . .
39.3(33) . . .
36.7(31) . . .
30.5(29) . . .
29.9(29) . . .
44(4) . . .
42.6(35) . . .
32.6(30) . . .
38.4(34) . . .
40(4) . . .
33.7(31) . . .
39.5(32) . . .
42.0(34) . . .
35.4(33) . . .
28.5(29) . . .
31.5(29) . . .
36.4(32) . . .
33.7(31) . . .
33.5(32) . . .
46(4) . . .
34.4(31) . . .
42.0(34) . . .
31.9(30) . . .
24.6(26) . . .
43(4) . . .
36.9(32) . . .
35.1(32) . . .
39.3(34) . . .
37.0(33) . . .
37.9(34) . . .
31.3(29) . . .
30.8(29) . . .
24.7(26) . . .
41(4) . . .
35.8(32) . . .
35.7(32) . . .
31.4(32) . . .
34.0(32) . . .
31.7(30) . . .
33.1(32) . . .
37.1(31) . . .
40(4) . . .
34.7(31) . . .
38.7(34) . . .
36.7(32) . . .
41.1(34) . . .
34.5(31) . . .
40.5(35) . . .
33.6(32) . . .
42(4) . . .
33.6(30) . . .
40(4) . . .
42(4) . . .
42(4) . . .
37.8(34) . . .
35.6(31) . . .
34.4(33) . . .
35.5(33) . . .
37.3(34) . . .
36.7(31) . . .
35.1(31) . . .
47(4) . . .
29.9(30) . . .
34.6(32) . . .
30.4(29) . . .
32.2(31) . . .
35.9(31) . . .
35(4) . . .
28.0(30) . . .
30.4(29) . . .
25.8(27) . . .
37.9(32) . . .
31.1(30) . . .
38.4(34) . . .
31.9(30) . . .
32.3(30) . . .
27.7(28) . . .
39.2(35) . . .
35.3(32) . . .
27.5(27) . . .
35.2(31) . . .
31.1(30) . . .
36(4) . . .
24.4(28) . . .
27.0(27) . . .
44(4) . . .
34.5(32) . . .
35.3(34) . . .
40.8(35) . . .
33.8(30) . . .
37.9(33) . . .
36.9(33) . . .
32.9(33) . . .
35.3(34) . . .
30.2(29) . . .
41(4) . . .
31.5(30) . . .
31.4(30) . . .
38.4(32) . . .
46(4) . . .
40.7(35) . . .
37.2(35) . . .
37(4) . . .
30.0(28) . . .
36.2(31) . . .
35.1(32) . . .
30.7(29) . . .
33.0(30) . . .
35.6(31) . . .
30.1(29) . . .
35.2(32) . . .
37.8(33) . . .
29.5(28) . . .
36.7(31) . . .
36.0(32) . . .
33.6(30) . . .
32.8(33) . . .
31.2(33) . . .
29.9(28) . . .
35.3(31) . . .
34.3(32) . . .
35.0(33) . . .
37.0(32) . . .
34.3(30) . . .
31.7(29) . . .
34.2(31) . . .
39(4) . . .
37.7(33) . . .
35.4(31) . . .
37.8(32) . . .
29.6(28) . . .
35.7(35) . . .
28.0(30) . . .
37.0(32) . . .
45(4) . . .
40(4) . . .
37.2(34) . . .
37.3(34) . . .
32.5(30) . . .
28.1(29) . . .
27.3(28) . . .
39(4) . . .
40(4) . . .
28.3(27) . . .
36.2(32) . . .
41(4) . . .
34.2(31) . . .
41.7(35) . . .
35.8(30) . . .
29.2(29) . . .
31.4(32) . . .
32.9(31) . . .
31.3(30) . . .
39.9(33) . . .
38.9(33) . . .
34.7(32) . . .
39.0(34) . . .
41(4) . . .
26.2(27) . . .
37.7(33) . . .
34.8(33) . . .
35.9(33) . . .
31.7(29) . . .
29.9(29) . . .
40.3(34) . . .
45(4) . . .
34.7(32) . . .
31.4(29) . . .
37.0(31) . . .
37.0(32) . . .
32.8(32) . . .
32.8(30) . . .
38.5(33) . . .
40.8(34) . . .
34.0(34) . . .
33.6(32) . . .
36.7(32) . . .
33.9(30) . . .
33.2(31) . . .
30.5(29) . . .
36.2(33) . . .
32.4(30) . . .
27.2(27) . . .
29.6(29) . . .
39.7(34) . . .
35.7(34) . . .
28.9(28) . . .
32.1(30) . . .
34.0(33) . . .
33.7(32) . . .
41(4) . . .
35.4(31) . . .
39.9(33) . . .
35.7(31) . . .
35.0(31) . . .
40.5(34) . . .
44(4) . . .
29.8(28) . . .
38.0(33) . . .
40.7(35) . . .
38.5(33) . . .
36.5(33) . . .
37.9(32) . . .
32.6(30) . . .
34.7(32) . . .
33.5(30) . . .
34.3(31) . . .
35.2(31) . . .
36.1(31) . . .
42(4) . . .
29.9(28) . . .
33.8(30) . . .
32.5(30) . . .
29.9(29) . . .
32.5(32) . . .
28.6(29) . . .
23.1(25) . . .
36.0(31) . . .
35.3(32) . . .
34.0(32) . . .
31.1(29) . . .
36.6(32) . . .
33.4(30) . . .
35.6(34) . . .
36(4) . . .
27.1(29) . . .
37.8(32) . . .
31.6(29) . . .
38.8(32) . . .
38(4) . . .
25.6(27) . . .
39.8(32) . . .
34.6(31) . . .
38.3(35) . . .
43(4) . . .
26.0(27) . . .
31.1(29) . . .
35.0(31) . . .
34.9(32) . . .
39.0(34) . . .
30.8(29) . . .
41.0(33) . . .
36.8(34) . . .
32.3(32) . . .
29.6(30) . . .
34.8(31) . . .
38.7(32) . . .
32.1(29) . . .
37.0(34) . . .
30.9(31) . . .
36.8(33) . . .
35.5(31) . . .
32.2(32) . . .
32.8(33) . . .
30.4(29) . . .
43(4) . . .
35.6(31) . . .
31.6(30) . . .
29.6(30) . . .
35.6(32) . . .
39.7(34) . . .
36.6(31) . . .
33.4(33) . . .
33.7(33) . . .
31.2(29) . . .
36.6(32) . . .
35.5(31) . . .
27.4(28) . . .
31.4(31) . . .
33.7(30) . . .
36.8(33) . . .
31.9(30) . . .
35.6(33) . . .
36.8(35) . . .
36.9(33) . . .
35.2(30) . . .
39.8(33) . . .
33.9(31) . . .
44(4) . . .
32.4(31) . . .
40.3(32) . . .
35.2(33) . . .
44(4) . . .
45(4) . . .
28.8(29) . . .
26.0(27) . . .
36.9(33) . . .
25.1(26) . . .
35.3(32) . . .
44(4) . . .
35.6(31) . . .
35.7(32) . . .
32.2(31) . . .
33.8(33) . . .
34.2(31) . . .
36.7(32) . . .
27.5(27) . . .
38.3(33) . . .
36.9(33) . . .
41.4(35) . . .
30.0(29) . . .
36.7(32) . . .
38.0(35) . . .
39.0(34) . . .
39.9(34) . . .
36.8(32) . . .
37.9(33) . . .
31.3(33) . . .
36.3(33) . . .
35.3(31) . . .
28.0(28) . . .
31.4(29) . . .
40(4) . . .
32.9(31) . . .
27.3(27) . . .
32.4(29) . . .
36.1(32) . . .
33.0(32) . . .
34.3(32) . . .
29.5(29) . . .
36.7(31) . . .
34.4(32) . . .
39(4) . . .
41.1(35) . . .
41.3(34) . . .
36.4(31) . . .
36.0(35) . . .
35.5(34) . . .
37.9(34) . . .
41.7(33) . . .
46(4) . . .
38.5(34) . . .
45(4) . . .
41(4) . . .
34.0(30) . . .
31.3(29) . . .
23.3(25) . . .
37.1(34) . . .
25.5(27) . . .
36.1(31) . . .
35.5(31) . . .
44(4) . . .
35.5(31) . . .
31.9(30) . . .
27.1(28) . . .
32.7(30) . . .
33.3(32) . . .
37.3(33) . . .
31.1(29) . . .
33.6(30) . . .
30.3(29) . . .
34.5(33) . . .
16.9(20) . . .
35.0(32) . . .
41.8(34) . . .
40.7(34) . . .
28.8(29) . . .
29.5(29) . . .
31.4(29) . . .
37.8(32) . . .
34.8(33) . . .
38.9(34) . . .
35.2(30) . . .
29.4(29) . . .
32.7(30) . . .
35.4(32) . . .
28.7(31) . . .
30.3(30) . . .
32.5(30) . . .
26.0(27) . . .
29.6(29) . . .
33.9(32) . . .
37.5(33) . . .
41.8(34) . . .
36.9(32) . . .
31.7(30) . . .
30.3(31) . . .
33.3(31) . . .
41.8(33) . . .
34.8(31) . . .
33.0(31) . . .
29.4(28) . . .
36.5(31) . . .
41.6(33) . . .
38.3(32) . . .
41.8(35) . . .
35.1(33) . . .
36.4(32) . . .
31.6(29) . . .
36.0(31) . . .
35.5(32) . . .
30.2(30) . . .
31.0(32) . . .
24.9(27) . . .
26.1(27) . . .
27.5(28) . . .
31.3(31) . . .
32.9(31) . . .
30.0(28) . . .
33.1(31) . . .
34.0(31) . . .
32.0(30) . . .
30.3(29) . . .
39.3(33) . . .
35.7(32) . . .
36.7(33) . . .
33.7(30) . . .
27.9(27) . . .
28.2(28) . . .
37.5(35) . . .
36.8(35) . . .
36.5(33) . . .
37.1(33) . . .
29.4(28) . . .
30.9(30) . . .
38.9(34) . . .
36.8(33) . . .
35.0(31) . . .
36.6(31) . . .
40(4) . . .
34.9(34) . . .
38.7(33) . . .
37.0(32) . . .
30.6(29) . . .
29.7(29) . . .
36.8(34) . . .
34.5(31) . . .
27.1(27) . . .
28.5(28) . . .
27.3(27) . . .
37(4) . . .
25.1(29) . . .
34.3(30) . . .
34.3(30) . . .
37.4(33) . . .
38.2(34) . . .
29.8(30) . . .
33.7(30) . . .
34.9(31) . . .
31.4(32) . . .
34.4(32) . . .
34.7(32) . . .
31.8(30) . . .
32.6(29) . . .
34.1(33) . . .
33.9(33) . . .
37.7(32) . . .
37.5(32) . . .
35.2(32) . . .
31.8(31) . . .
32.0(30) . . .
35.0(32) . . .
29.5(28) . . .
38(4) . . .
34.3(32) . . .
36.0(33) . . .
32.6(30) . . .
29.5(28) . . .
32.6(31) . . .
29.6(30) . . .
35.9(34) . . .
44(4) . . .
42.3(33) . . .
33.2(30) . . .
36.2(34) . . .
34.9(34) . . .
33.9(32) . . .
28.9(28) . . .
29.7(29) . . .
36.6(33) . . .
37.3(32) . . .
26.6(27) . . .
36.1(31) . . .
30.3(29) . . .
27.0(28) . . .
28.9(29) . . .
30.8(29) . . .
37.1(32) . . .
36.0(33) . . .
31.1(29) . . .
21.6(24) . . .
28.1(27) . . .
31.2(29) . . .
34.6(31) . . .
39(4) . . .
41(4) . . .
28.5(28) . . .
45(4) . . .
38.0(33) . . .
33.0(32) . . .
34.0(31) . . .
35.9(32) . . .
25.6(27) . . .
30.3(30) . . .
29.2(30) . . .
36.2(32) . . .
34.6(31) . . .
33.0(31) . . .
43(4) . . .
28.9(28) . . .
29.6(29) . . .
32.1(30) . . .
33.7(32) . . .
32.0(31) . . .
36.5(33) . . .
30.1(28) . . .
36.0(32) . . .
27.3(27) . . .
36.5(32) . . .
33.6(30) . . .
31.8(31) . . .
31.5(29) . . .
32.2(31) . . .
36.6(34) . . .
33.4(31) . . .
34.7(32) . . .
31.3(29) . . .
34.9(30) . . .
33.1(32) . . .
33.0(33) . . .
31.3(30) . . .
30.8(29) . . .
38.9(33) . . .
37.0(34) . . .
33.3(33) . . .
29.1(29) . . .
42.1(35) . . .
36.8(34) . . .
32.7(31) . . .
32.5(30) . . .
35.3(31) . . .
29.9(29) . . .
34.6(32) . . .
41(4) . . .
37.7(32) . . .
27.3(27) . . .
33.1(30) . . .
29.7(29) . . .
29.3(30) . . .
35.3(32) . . .
30.8(29) . . .
45(4) . . .
36.9(34) . . .
32.1(32) . . .
35.1(32) . . .
35.9(32) . . .
27.8(28) . . .
35.6(32) . . .
38(4) . . .
30.8(28) . . .
41.4(34) . . .
35.3(32) . . .
45(4) . . .
30.6(28) . . .
33.8(30) . . .
36.3(31) . . .
35.1(34) . . .
27.5(30) . . .
33.6(32) . . .
34.8(31) . . .
36.3(32) . . .
32.5(32) . . .
35.4(35) . . .
34.8(32) . . .
34.3(31) . . .
27.0(27) . . .
33.1(32) . . .
36.6(34) . . .
34.8(33) . . .
42.4(34) . . .
36.3(31) . . .
35.8(32) . . .
34.8(34) . . .
31.2(30) . . .
30.2(29) . . .
30.5(29) . . .
34.2(31) . . .
33.0(31) . . .
37.5(32) . . .
38.6(33) . . .
34.7(30) . . .
29.7(30) . . .
34.5(34) . . .
30.5(29) . . .
31.3(29) . . .
26.7(28) . . .
35.8(32) . . .
33.6(32) . . .
29.9(30) . . .
32.9(30) . . .
41.2(34) . . .
34.0(32) . . .
34.1(33) . . .
38.0(32) . . .
39.4(32) . . .
32.9(30) . . .
36(4) . . .
29.5(30) . . .
30.4(29) . . .
30.2(29) . . .
36.0(31) . . .
25.8(25) . . .
27.7(27) . . .
38.2(34) . . .
37.4(32) . . .
32.6(31) . . .
38.0(35) . . .
32.2(31) . . .
36.0(31) . . .
37.0(32) . . .
39.4(34) . . .
35.0(32) . . .
41(4) . . .
45(4) . . .
38.3(32) . . .
36.0(32) . . .
30.3(30) . . .
25.6(25) . . .
43.8(34) . . .
41.4(33) . . .
33.6(32) . . .
33.9(34) . . .
38.2(34) . . .
34.1(31) . . .
27.3(27) . . .
36.6(32) . . .
31.5(30) . . .
31.2(30) . . .
26.4(26) . . .
32.2(30) . . .
27.5(27) . . .
42(4) . . .
33.9(31) . . .
36.5(33) . . .
40.9(33) . . .
30.7(29) . . .
39(4) . . .
47(4) . . .
29.3(29) . . .
38.3(33) . . .
33.8(31) . . .
38(4) . . .
39.6(33) . . .
43.2(35) . . .
41.5(34) . . .
36.2(32) . . .
35.0(32) . . .
41.2(34) . . .
34.2(31) . . .
35.9(33) . . .
31.4(29) . . .
45(4) . . .
42.2(34) . . .
34.9(31) . . .
32.6(31) . . .
43(4) . . .
41.8(35) . . .
33.5(30) . . .
32.7(30) . . .
35.0(32) . . .
43(4) . . .
32.5(31) . . .
31.4(30) . . .
40.2(33) . . .
36.3(32) . . .
31.8(31) . . .
34.9(33) . . .
34.3(30) . . .
32.2(30) . . .
36.8(33) . . .
34.8(32) . . .
37.6(33) . . .
34.5(30) . . .
35.5(33) . . .
32.8(30) . . .
34.9(34) . . .
24.4(25) . . .
33.1(30) . . .
30.4(28) . . .
31.2(34) . . .
30.5(33) . . .
33.0(34) . . .
36.7(32) . . .
43.7(34) . . .
39.2(32) . . .
44(4) . . .
36.7(32) . . .
30.0(29) . . .
26.8(29) . . .
27.6(30) . . .
30.7(31) . . .
32.8(31) . . .
26.7(28) . . .
27.7(28) . . .
39.6(35) . . .
33.4(30) . . .
37.0(32) . . .
35.0(31) . . .
26.0(28) . . .
38(4) . . .
30.6(30) . . .
31.6(30) . . .
41.9(33) . . .
40.6(35) . . .
33.7(33) . . .
40(4) . . .
34.6(31) . . .
26.4(27) . . .
39.6(34) . . .
37.8(34) . . .
37.1(32) . . .
31.9(31) . . .
24.6(26) . . .
31.6(30) . . .
38.7(34) . . .
35.8(31) . . .
29.0(28) . . .
31.6(29) . . .
35.0(33) . . .
31.3(30) . . .
34.0(31) . . .
34.4(30) . . .
31.6(29) . . .
34.0(31) . . .
26.5(28) . . .
38.4(33) . . .
40.8(34) . . .
51(4) . . .
41(4) . . .
38(4) . . .
32.7(30) . . .
31.8(29) . . .
31.7(30) . . .
35.7(32) . . .
37.5(34) . . .
28.4(29) . . .
32.7(32) . . .
20.6(23) . . .
42.5(35) . . .
41.2(35) . . .
35.4(32) . . .
40.0(33) . . .
37.8(33) . . .
30.3(29) . . .
42(4) . . .
41.3(34) . . .
42.8(34) . . .
31.4(31) . . .
35.4(32) . . .
31.3(30) . . .
35.0(31) . . .
33.7(31) . . .
26.4(27) . . .
35.7(32) . . .
39.2(33) . . .
40.7(34) . . .
28.6(29) . . .
41(4) . . .
38.5(34) . . .
43.7(34) . . .
44.8(35) . . .
34.0(30) . . .
37.6(34) . . .
34.0(31) . . .
31.8(29) . . .
37.8(32) . . .
36.9(31) . . .
35.6(32) . . .
36.0(34) . . .
31.4(29) . . .
34.9(31) . . .
27.0(27) . . .
32.9(31) . . .
32.4(32) . . .
40.0(34) . . .
36.5(31) . . .
40.9(33) . . .
33.9(31) . . .
29.9(31) . . .
28.1(29) . . .
29.6(29) . . .
36.3(33) . . .
36.6(35) . . .
30.9(31) . . .
33.3(31) . . .
36.6(32) . . .
39.0(34) . . .
52(4) . . .
35.6(35) . . .
31.5(31) . . .
32.7(30) . . .
44.1(35) . . .
38.0(33) . . .
28.4(28) . . .
37.3(33) . . .
30.0(29) . . .
37.1(32) . . .
41.6(34) . . .
34.1(32) . . .
33.2(30) . . .
36.8(32) . . .
33.8(31) . . .
34.5(32) . . .
41.7(34) . . .
37.0(33) . . .
33.1(30) . . .
39.2(33) . . .
42(4) . . .
31.3(31) . . .
37.7(32) . . .
40.3(33) . . .
39.4(33) . . .
38.6(34) . . .
34.4(32) . . .
32.5(31) . . .
31.3(29) . . .
41(4) . . .
30.7(30) . . .
39.6(34) . . .
37.8(32) . . .
37.6(32) . . .
39.4(32) . . .
30.4(29) . . .
34.5(32) . . .
31.9(30) . . .
30.6(29) . . .
34.5(33) . . .
37(4) . . .
36.1(31) . . .
40.0(33) . . .
32.6(31) . . .
36.3(32) . . .
36(4) . . .
25.8(27) . . .
33.0(30) . . .
34.1(30) . . .
44(4) . . .
32.3(30) . . .
35.6(32) . . .
32.4(30) . . .
26.4(28) . . .
41(4) . . .
36.2(35) . . .
32.4(33) . . .
37.5(32) . . .
35.3(32) . . .
34.3(33) . . .
32.3(31) . . .
48(4) . . .
36.1(32) . . .
35.7(32) . . .
36.4(34) . . .
45(4) . . .
43(4) . . .
35.3(31) . . .
32.8(30) . . .
31.8(32) . . .
33.1(32) . . .
33.9(31) . . .
31.2(29) . . .
35.5(32) . . .
35.5(31) . . .
29.3(28) . . .
32.5(30) . . .
29.9(28) . . .
40.7(35) . . .
32.0(31) . . .
38.0(32) . . .
34.4(30) . . .
36.0(31) . . .
30.5(28) . . .
28.5(28) . . .
35.1(31) . . .
30.7(30) . . .
41.7(34) . . .
40.2(33) . . .
34.0(31) . . .
38.3(33) . . .
34.3(30) . . .
34.4(31) . . .
26.8(26) . . .
37.3(32) . . .
42.0(34) . . .
35.5(31) . . .
32.1(30) . . .
32.4(30) . . .
28.9(29) . . .
34.0(32) . . .
29.1(28) . . .
39.6(33) . . .
27.2(27) . . .
27.4(27) . . .
19.8(23) . . .
32.1(30) . . .
31.7(29) . . .
27.8(28) . . .
32.0(32) . . .
29.2(29) . . .
34.2(31) . . .
31.5(31) . . .
33.5(31) . . .
29.3(28) . . .
37.2(33) . . .
38.1(32) . . .
42.3(34) . . .
32.3(31) . . .
29.4(29) . . .
35.6(32) . . .
30.8(29) . . .
37.9(35) . . .
32.1(31) . . .
26.8(28) . . .
27.6(27) . . .
40.0(34) . . .
26.8(26) . . .
28.7(29) . . .
25.8(29) . . .
28.4(29) . . .
34.8(31) . . .
23.8(26) . . .
29.6(31) . . .
32.9(30) . . .
29.8(28) . . .
41.5(34) . . .
38(4) . . .
34.0(31) . . .
33.1(31) . . .
32.4(29) . . .
38.2(32) . . .
45(4) . . .
42(4) . . .
31.7(32) . . .
38.7(33) . . .
35.5(31) . . .
30.8(33) . . .
30.0(33) . . .
28.4(30) . . .
42.5(34) . . .
34.9(31) . . .
23.2(27) . . .
31.1(32) . . .
38.3(33) . . .
38.0(32) . . .
36.5(34) . . .
37.5(33) . . .
46(4) . . .
33.6(31) . . .
30.0(29) . . .
29.3(28) . . .
41(4) . . .
38.0(34) . . .
37.0(32) . . .
35.5(31) . . .
30.0(29) . . .
34.0(33) . . .
31.5(30) . . .
26.1(28) . . .
35.3(32) . . .
28.8(29) . . .
43(4) . . .
35.8(32) . . .
35.2(31) . . .
28.7(29) . . .
41.0(34) . . .
34.2(32) . . .
41(4) . . .
33.2(31) . . .
34.3(30) . . .
34.7(32) . . .
36.5(34) . . .
41.5(33) . . .
41.1(34) . . .
35.1(30) . . .
49(4) . . .
37.6(34) . . .
33.5(30) . . .
33.5(30) . . .
37.0(32) . . .
43(4) . . .
38.2(34) . . .
37.1(32) . . .
32.8(30) . . .
32.8(30) . . .
41.3(35) . . .
27.6(28) . . .
32.1(31) . . .
30.5(29) . . .
33.6(31) . . .
36.1(33) . . .
34.4(31) . . .
34.5(32) . . .
31.3(29) . . .
26.0(26) . . .
38.3(34) . . .
40.9(35) . . .
43(4) . . .
34.5(30) . . .
36.3(32) . . .
31.9(30) . . .
35.1(32) . . .
36.8(34) . . .
38.4(33) . . .
36.7(31) . . .
39.8(34) . . .
34.8(30) . . .
32.6(30) . . .
33.4(30) . . .
36.8(31) . . .
37.3(34) . . .
35.6(34) . . .
42.1(34) . . .
30.0(28) . . .
32.6(31) . . .
38.1(34) . . .
32.8(31) . . .
25.5(27) . . .
37.2(32) . . .
33.9(32) . . .
33.8(32) . . .
36.8(32) . . .
31.8(29) . . .
31.2(29) . . .
45(4) . . .
35.0(35) . . .
32.5(32) . . .
34.0(30) . . .
39.6(33) . . .
31.0(30) . . .
30.5(31) . . .
28.8(29) . . .
34.4(31) . . .
38.6(32) . . .
41(4) . . .
39.7(35) . . .
38.4(33) . . .
33.7(30) . . .
39.3(34) . . .
31.5(32) . . .
36.0(35) . . .
28.8(28) . . .
37.5(32) . . .
35.1(32) . . .
35.9(31) . . .
44(4) . . .
35.7(33) . . .
34.1(30) . . .
33.1(30) . . .
34.3(32) . . .
32.0(32) . . .
32.1(30) . . .
35.6(31) . . .
37.3(35) . . .
32.6(31) . . .
39.3(34) . . .
37.7(34) . . .
41.6(34) . . .
33.7(31) . . .
31.6(30) . . .
38.7(33) . . .
40.3(33) . . .
34.8(30) . . .
34.9(32) . . .
36.8(33) . . .
36.3(32) . . .
30.5(29) . . .
32.8(31) . . .
31.3(30) . . .
39(4) . . .
30.5(29) . . .
31.7(29) . . .
26.1(28) . . .
36.8(33) . . .
34(4) . . .
30.4(29) . . .
43.1(34) . . .
38.3(32) . . .
25.6(26) . . .
33.2(32) . . .
33.3(31) . . .
35.1(31) . . .
29.0(28) . . .
30.1(29) . . .
29.9(30) . . .
32.5(30) . . .
34.8(31) . . .
36.4(32) . . .
26.6(26) . . .
32.5(31) . . .
28.8(29) . . .
37.8(32) . . .
31.5(30) . . .
28.9(30) . . .
32.7(33) . . .
26.8(27) . . .
28.7(28) . . .
32.1(29) . . .
33.7(30) . . .
45(4) . . .
38(4) . . .
26.9(27) . . .
30.8(29) . . .
39.0(34) . . .
36.7(34) . . .
36.4(33) . . .
36.1(32) . . .
31.0(29) . . .
33.8(31) . . .
37.3(32) . . .
36.8(33) . . .
36.4(32) . . .
29.4(29) . . .
34.2(32) . . .
24.5(27) . . .
34.3(33) . . .
30.7(29) . . .
42(4) . . .
37(4) . . .
27.5(28) . . .
29.8(29) . . .
36.8(32) . . .
37.9(32) . . .
31.1(30) . . .
34.4(32) . . .
37.6(32) . . .
33.0(30) . . .
34.2(33) . . .
26.1(29) . . .
33.3(31) . . .
33.7(31) . . .
34.7(31) . . .
42.5(34) . . .
35.9(33) . . .
29.0(29) . . .
29.6(29) . . .
32.6(30) . . .
38.0(33) . . .
38.1(33) . . .
34.0(30) . . .
33.4(30) . . .
31.3(29) . . .
40(4) . . .
38(4) . . .
21.0(25) . . .
30.2(29) . . .
38(4) . . .
38.5(33) . . .
31.7(30) . . .
27.8(27) . . .
39.3(33) . . .
31.9(29) . . .
36.6(35) . . .
34.7(35) . . .
25.5(27) . . .
32.0(30) . . .
31.3(30) . . .
35.3(33) . . .
28.9(27) . . .
34.1(32) . . .
27.0(27) . . .
35.3(33) . . .
31.2(32) . . .
29.9(30) . . .
34.0(33) . . .
29.9(29) . . .
37.4(34) . . .
32.1(31) . . .
37.3(33) . . .
31.5(29) . . .
31.8(29) . . .
38.7(34) . . .
30.6(29) . . .
34.6(31) . . .
45(4) . . .
42.4(34) . . .
35.7(31) . . .
41.8(35) . . .
33.6(32) . . .
32.4(30) . . .
32.7(30) . . .
35.0(32) . . .
35.8(35) . . .
28.4(30) . . .
31.3(29) . . .
29.6(29) . . .
31.7(31) . . .
39.1(35) . . .
39.9(34) . . .
33.4(30) . . .
32.6(31) . . .
29.6(30) . . .
29.2(28) . . .
39.3(35) . . .
36.1(32) . . .
28.2(27) . . .
33.8(32) . . .
31.3(30) . . .
37.4(33) . . .
37.5(32) . . .
44(4) . . .
33.4(31) . . .
32.3(30) . . .
34.8(31) . . .
29.9(29) . . .
32.1(31) . . .
36.1(33) . . .
39.9(34) . . .
35.2(33) . . .
36.8(32) . . .
40.0(33) . . .
32.5(33) . . .
43(4) . . .
38.8(34) . . .
29.3(28) . . .
31.5(29) . . .
34.2(32) . . .
38.7(33) . . .
39.2(32) . . .
36.8(32) . . .
30.1(29) . . .
30.0(31) . . .
31.2(29) . . .
44.4(34) . . .
30.4(29) . . .
31.5(30) . . .
27.3(27) . . .
34.8(33) . . .
29.6(29) . . .
42.8(34) . . .
35.5(32) . . .
35.0(35) . . .
30.9(29) . . .
39.8(33) . . .
41.1(33) . . .
38.0(34) . . .
31.7(33) . . .
29.3(30) . . .
29.9(29) . . .
35.0(32) . . .
40.4(33) . . .
40.1(35) . . .
35.6(31) . . .
31.4(30) . . .
29.9(29) . . .
32.4(31) . . .
38.7(34) . . .
30.3(29) . . .
41.2(34) . . .
32.6(30) . . .
39.4(35) . . .
31.6(32) . . .
30.1(29) . . .
28.6(27) . . .
32.8(30) . . .
33.1(31) . . .
34.3(30) . . .
33.8(32) . . .
34.5(30) . . .
41(4) . . .
32.4(31) . . .
27.5(28) . . .
28.9(28) . . .
27.8(27) . . .
31.3(30) . . .
33.7(32) . . .
38.9(33) . . .
36.6(31) . . .
49(4) . . .
33.9(32) . . .
34.5(33) . . .
27.6(27) . . .
33.6(31) . . .
42.1(34) . . .
28.5(29) . . .
29.1(29) . . .
35.7(32) . . .
35.8(31) . . .
32.2(29) . . .
31.0(30) . . .
31.0(30) . . .
32.8(30) . . .
36.5(31) . . .
36.2(31) . . .
33.8(31) . . .
37.9(35) . . .
33.3(30) . . .
28.0(28) . . .
34.6(30) . . .
40.4(35) . . .
31.9(32) . . .
25.8(27) . . .
23.3(25) . . .
28.5(29) . . .
29.3(28) . . .
31.7(31) . . .
40(4) . . .
37.6(32) . . .
35.7(33) . . .
34.5(33) . . .
32.9(31) . . .
41(4) . . .
31.7(29) . . .
27.4(27) . . .
32.7(28) . . .
39.0(33) . . .
31.5(29) . . .
32.0(29) . . .
29.1(29) . . .
36.2(32) . . .
33.1(30) . . .
33.1(30) . . .
29.3(29) . . .
28.8(30) . . .
36.7(34) . . .
28.3(29) . . .
36.4(33) . . .
38.8(33) . . .
35.0(32) . . .
40(4) . . .
34.1(31) . . .
33.5(30) . . .
38.4(33) . . .
33.2(30) . . .
33.1(32) . . .
38.2(35) . . .
32.2(31) . . .
29.6(28) . . .
29.6(28) . . .
32.0(29) . . .
37.1(33) . . .
39.1(33) . . .
33.4(30) . . .
41(4) . . .
37(4) . . .
32.3(31) . . .
39.4(33) . . .
35.1(31) . . .
24.5(25) . . .
38.1(34) . . .
41(4) . . .
31.4(30) . . .
33.8(33) . . .
35(4) . . .
25.5(28) . . .
28.5(29) . . .
32.7(30) . . .
28.5(28) . . .
32.0(30) . . .
28.5(29) . . .
35.7(33) . . .
26.6(27) . . .
29.0(28) . . .
44(4) . . .
37.9(32) . . .
36.5(33) . . .
40.4(34) . . .
38.8(34) . . .
33.0(31) . . .
38.0(34) . . .
31.5(30) . . .
28.0(28) . . .
32.1(30) . . .
37.8(32) . . .
31.7(30) . . .
36.9(32) . . .
36.5(31) . . .
23.3(25) . . .
30.1(31) . . .
34.2(32) . . .
33.0(32) . . .
32.8(30) . . .
36.4(32) . . .
37.0(35) . . .
26.6(29) . . .
34.5(31) . . .
32.4(30) . . .
36.3(34) . . .
41(4) . . .
39(4) . . .
36.3(31) . . .
32.2(29) . . .
36.5(32) . . .
36.3(33) . . .
34.7(32) . . .
34.3(32) . . .
39.4(33) . . .
30.2(29) . . .
28.3(28) . . .
28.4(30) . . .
33.3(30) . . .
40.2(34) . . .
28.8(28) . . .
42(4) . . .
36.8(35) . . .
31.9(30) . . .
32.8(30) . . .
30.5(30) . . .
35.7(33) . . .
32.7(31) . . .
23.0(25) . . .
29.1(29) . . .
31.3(31) . . .
31.0(32) . . .
23.9(26) . . .
30.7(29) . . .
30.5(29) . . .
35.9(34) . . .
33.5(33) . . .
35.4(31) . . .
34.0(31) . . .
36.8(33) . . .
32.8(32) . . .
32.4(32) . . .
32.5(30) . . .
34.9(31) . . .
41.0(34) . . .
39.5(34) . . .
36.0(31) . . .
40.8(33) . . .
32.5(30) . . .
36.3(33) . . .
33.8(33) . . .
38.2(35) . . .
28.6(27) . . .
28.7(28) . . .
28.7(30) . . .
37(4) . . .
29.6(29) . . .
28.0(27) . . .
28.7(28) . . .
29.4(29) . . .
42(4) . . .
35.5(32) . . .
27.0(27) . . .
34.0(31) . . .
39.3(33) . . .
32.1(30) . . .
31.8(29) . . .
33.2(30) . . .
41.1(34) . . .
33.0(31) . . .
26.0(27) . . .
33.5(31) . . .
37.0(33) . . .
37.4(32) . . .
29.6(30) . . .
35.1(33) . . .
27.1(27) . . .
35.7(31) . . .
26.2(28) . . .
35.5(33) . . .
38.9(34) . . .
33.7(32) . . .
27.6(27) . . .
30.4(30) . . .
43(4) . . .
37.3(31) . . .
35.3(31) . . .
29.0(28) . . .
33.0(32) . . .
29.9(30) . . .
36.0(34) . . .
38.2(32) . . .
41.5(34) . . .
38(4) . . .
27.5(30) . . .
36.0(34) . . .
34.9(32) . . .
32.7(30) . . .
40(4) . . .
37.3(34) . . .
38.7(33) . . .
38.3(32) . . .
36.8(32) . . .
33.9(31) . . .
37.9(35) . . .
34.1(31) . . .
37.6(32) . . .
32.5(30) . . .
29.9(29) . . .
41(4) . . .
37.9(33) . . .
30.8(29) . . .
32.7(30) . . .
32.0(29) . . .
40(4) . . .
37.0(34) . . .
21.9(24) . . .
32.4(31) . . .
36.5(32) . . .
33.3(32) . . .
28.1(29) . . .
32.1(30) . . .
31.8(30) . . .
42(4) . . .
30.6(31) . . .
30.3(30) . . .
33.2(30) . . .
28.0(29) . . .
43(4) . . .
38.2(34) . . .
38(4) . . .
26.5(27) . . .
40.1(34) . . .
33.5(31) . . .
33.3(31) . . .
33.5(31) . . .
30.0(28) . . .
33.7(33) . . .
39.1(33) . . .
44(4) . . .
34.7(31) . . .
33.6(30) . . .
36.9(33) . . .
40.3(34) . . .
38.5(33) . . .
46(4) . . .
29.6(28) . . .
35.1(31) . . .
33.8(31) . . .
34.6(31) . . .
37.1(32) . . .
39.3(33) . . .
36.2(32) . . .
41(4) . . .
33.7(31) . . .
24.1(25) . . .
34.3(31) . . .
35.5(31) . . .
27.0(27) . . .
32.8(30) . . .
39.3(33) . . .
29.5(28) . . .
33.3(31) . . .
33.5(33) . . .
32.5(30) . . .
31.4(30) . . .
31.0(29) . . .
34.6(33) . . .
31.5(31) . . .
30.3(28) . . .
34.3(30) . . .
46(4) . . .
32.0(30) . . .
30.7(31) . . .
33.2(32) . . .
32.4(30) . . .
31.7(30) . . .
30.7(31) . . .
39.3(33) . . .
35.4(30) . . .
27.5(28) . . .
38.8(35) . . .
42(4) . . .
36.8(32) . . .
32.9(30) . . .
36.7(31) . . .
40.0(35) . . .
40.1(34) . . .
28.9(29) . . .
40.1(33) . . .
35.1(31) . . .
36.3(32) . . .
33.8(33) . . .
31.4(31) . . .
37.8(32) . . .
35.3(31) . . .
31.9(30) . . .
33.2(31) . . .
33.9(33) . . .
32.1(29) . . .
27.6(28) . . .
32.5(30) . . .
34.1(33) . . .
28.3(30) . . .
35.4(32) . . .
38.7(32) . . .
35.5(34) . . .
36.7(35) . . .
32.3(30) . . .
34.0(31) . . .
34.6(30) . . .
29.8(28) . . .
34.8(33) . . .
33.5(30) . . .
33.4(31) . . .
33.2(30) . . .
37.2(32) . . .
26.7(27) . . .
30.1(31) . . .
38.0(32) . . .
32.2(29) . . .
32.8(29) . . .
35.2(33) . . .
27.9(28) . . .
29.4(29) . . .
32.9(30) . . .
41(4) . . .
26.4(28) . . .
35.1(33) . . .
41.8(33) . . .
38.8(33) . . .
38.9(34) . . .
32.5(32) . . .
26.8(27) . . .
38.0(33) . . .
36.6(32) . . .
34.7(32) . . .
36.6(35) . . .
36.6(32) . . .
33.7(30) . . .
33.8(30) . . .
40(4) . . .
36.3(32) . . .
34.8(31) . . .
42.3(34) . . .
37.7(33) . . .
34.2(33) . . .
40(4) . . .
35.2(31) . . .
38.4(32) . . .
30.8(30) . . .
38.7(35) . . .
39.5(34) . . .
30.1(30) . . .
34.3(31) . . .
27.9(28) . . .
30.3(31) . . .
38.1(33) . . .
33.0(30) . . .
32.7(30) . . .
37.2(34) . . .
40(4) . . .
36.1(32) . . .
34.2(30) . . .
28.6(28) . . .
37.1(34) . . .
32.3(31) . . .
33.8(31) . . .
31.1(29) . . .
33.9(31) . . .
34.4(32) . . .
33.0(33) . . .
30.1(30) . . .
31.1(29) . . .
32.0(31) . . .
38(4) . . .
35.3(33) . . .
39.7(34) . . .
33.5(31) . . .
36.9(32) . . .
35.5(31) . . .
37.8(33) . . .
29.1(28) . . .
33.8(30) . . .
32.5(30) . . .
35.4(32) . . .
36.9(34) . . .
39.0(34) . . .
33.7(30) . . .
31.9(31) . . .
32.8(33) . . .
30.1(29) . . .
25.1(26) . . .
37.1(32) . . .
44(4) . . .
35.4(33) . . .
31.9(31) . . .
40.7(34) . . .
36.3(31) . . .
34.5(32) . . .
31.9(30) . . .
37.1(34) . . .
34.5(31) . . .
30.1(28) . . .
33.0(30) . . .
33.7(32) . . .
39.0(34) . . .
28.9(28) . . .
36.7(31) . . .
33.6(29) . . .
35.2(33) . . .
44(4) . . .
31.5(29) . . .
36.8(32) . . .
34.1(33) . . .
35.6(34) . . .
36.4(35) . . .
40.5(33) . . .
36.9(32) . . .
28.9(28) . . .
34.4(32) . . .
39.4(34) . . .
35.1(31) . . .
39.6(33) . . .
33.8(30) . . .
28.2(27) . . .
32.5(32) . . .
36.7(32) . . .
39.5(34) . . .
32.7(32) . . .
38(4) . . .
33.3(31) . . .
31.9(29) . . .
23.0(25) . . .
35.0(33) . . .
41(4) . . .
34.0(33) . . .
33.5(30) . . .
32.2(30) . . .
30.0(29) . . .
32.3(32) . . .
27.8(28) . . .
37.0(32) . . .
34.8(31) . . .
30.4(32) . . .
25.6(29) . . .
29.3(28) . . .
33.8(30) . . .
33.9(31) . . .
35.1(32) . . .
36.9(31) . . .
39.8(33) . . .
37.8(32) . . .
36.3(32) . . .
36.1(34) . . .
33.5(30) . . .
33.7(30) . . .
35.8(31) . . .
31.8(30) . . .
36.2(34) . . .
38.0(35) . . .
29.6(29) . . .
27.0(27) . . .
30.0(30) . . .
31.5(30) . . .
34.0(30) . . .
47(4) . . .
32.5(29) . . .
32.6(30) . . .
33.3(30) . . .
33.7(31) . . .
29.1(29) . . .
32.5(31) . . .
32.9(31) . . .
34.7(33) . . .
28.4(28) . . .
35.7(31) . . .
31.0(29) . . .
25.9(26) . . .
29.8(29) . . .
33.6(30) . . .
32.1(30) . . .
39.7(35) . . .
36.9(33) . . .
31.4(31) . . .
31.7(29) . . .
35.3(31) . . .
39.8(34) . . .
34.3(33) . . .
31.7(30) . . .
29.9(28) . . .
32.4(30) . . .
33.3(31) . . .
34.4(35) . . .
28.1(30) . . .
27.5(27) . . .
29.2(28) . . .
33.5(31) . . .
35(4) . . .
37.1(35) . . .
40.6(33) . . .
31.8(30) . . .
26.8(27) . . .
31.8(32) . . .
35.7(31) . . .
33.8(30) . . .
40.4(34) . . .
41.6(35) . . .
33.0(31) . . .
32.6(31) . . .
31.3(30) . . .
41.6(35) . . .
41.0(34) . . .
24.1(28) . . .
34.3(35) . . .
29.5(27) . . .
40.7(34) . . .
31.3(30) . . .
35(4) . . .
39.0(33) . . .
33.3(29) . . .
33.0(30) . . .
34.2(32) . . .
36.4(34) . . .
33.4(31) . . .
42.4(33) . . .
36.6(32) . . .
37.4(35) . . .
40(4) . . .
35.0(31) . . .
37.7(32) . . .
32.3(29) . . .
32.6(30) . . .
35.4(34) . . .
30.1(33) . . .
37.8(32) . . .
43(4) . . .
29.9(30) . . .
30.3(29) . . .
33.3(32) . . .
32.1(30) . . .
30.8(29) . . .
36.2(35) . . .
29.6(30) . . .
35.2(32) . . .
34.2(30) . . .
32.6(30) . . .
31.5(30) . . .
32.4(29) . . .
28.3(29) . . .
34.0(31) . . .
31.2(29) . . .
30.9(31) . . .
32.0(32) . . .
34.4(30) . . .
39.3(33) . . .
34.4(32) . . .
34.3(33) . . .
32.1(32) . . .
33.4(31) . . .
36.1(31) . . .
33.4(31) . . .
33.7(31) . . .
40.6(33) . . .
39.4(33) . . .
35.0(31) . . .
27.1(28) . . .
34.7(33) . . .
36.1(32) . . .
33.8(30) . . .
28.4(29) . . .
35.0(32) . . .
44(4) . . .
39(4) . . .
26.6(27) . . .
31.4(30) . . .
38.7(33) . . .
38.7(34) . . .
30.8(30) . . .
36.3(31) . . .
40.0(33) . . .
40.8(34) . . .
31.8(28) . . .
30.8(29) . . .
35.4(31) . . .
40.6(35) . . .
39.0(33) . . .
33.9(30) . . .
31.2(29) . . .
29.8(29) . . .
30.9(30) . . .
32.5(32) . . .
31.2(31) . . .
43.2(35) . . .
38.0(32) . . .
35.0(31) . . .
34.3(32) . . .
33.5(32) . . .
31.5(29) . . .
34.0(31) . . .
32.7(31) . . .
42(4) . . .
33.2(30) . . .
32.4(30) . . .
38.9(33) . . .
39.1(33) . . .
45(4) . . .
34.6(30) . . .
29.5(28) . . .
29.1(28) . . .
39.8(35) . . .
36.8(34) . . .
38.2(34) . . .
25.4(26) . . .
31.4(30) . . .
34.6(32) . . .
28.5(30) . . .
33.6(31) . . .
29.6(28) . . .
33.1(30) . . .
36.9(33) . . .
34.7(33) . . .
38.3(33) . . .
37.5(32) . . .
38.9(33) . . .
38(4) . . .
42(4) . . .
44(4) . . .
34.2(30) . . .
39.1(33) . . .
31.2(32) . . .
32.0(30) . . .
32.8(31) . . .
44(4) . . .
32.8(30) . . .
26.3(27) . . .
35.7(34) . . .
28.7(29) . . .
28.7(28) . . .
36.5(34) . . .
29.9(30) . . .
33.7(32) . . .
31.9(29) . . .
29.7(28) . . .
30.9(31) . . .
28.6(30) . . .
36.9(32) . . .
46(4) . . .
37.1(32) . . .
32.5(32) . . .
30.5(30) . . .
27.5(28) . . .
29.7(29) . . .
37.5(32) . . .
44(4) . . .
39(4) . . .
40(4) . . .
32.1(29) . . .
31.4(29) . . .
29.3(29) . . .
32.8(32) . . .
40.1(34) . . .
30.1(29) . . .
26.8(28) . . .
31.5(29) . . .
42(4) . . .
33.0(30) . . .
33.7(30) . . .
39.9(33) . . .
33.0(30) . . .
31.8(30) . . .
38.1(33) . . .
33.3(30) . . .
39.3(32) . . .
28.9(28) . . .
25.5(28) . . .
31.2(30) . . .
39.7(33) . . .
38.3(33) . . .
27.5(26) . . .
23.9(25) . . .
27.0(28) . . .
38.2(32) . . .
42(4) . . .
33.7(32) . . .
34.3(34) . . .
28.3(32) . . .
29.2(28) . . .
33.0(30) . . .
27.3(27) . . .
27.8(27) . . .
38.3(34) . . .
27.5(27) . . .
29.5(29) . . .
29.8(30) . . .
24.3(26) . . .
27.8(29) . . .
30.4(29) . . .
29.7(30) . . .
32.5(32) . . .
35.8(31) . . .
37.6(32) . . .
30.0(29) . . .
35.5(33) . . .
27.9(29) . . .
30.5(29) . . .
32.7(29) . . .
29.7(28) . . .
38.5(34) . . .
36.0(33) . . .
31.2(29) . . .
37.8(32) . . .
38.8(32) . . .
46(4) . . .
44(4) . . .
32.1(29) . . .
30.2(29) . . .
35.1(31) . . .
25.7(26) . . .
31.0(30) . . .
33.8(33) . . .
32.0(29) . . .
33.8(30) . . .
29.6(29) . . .
38(4) . . .
44(4) . . .
36.5(32) . . .
36.1(33) . . .
30.5(31) . . .
19.6(24) . . .
29.6(29) . . .
36.2(31) . . .
28.2(29) . . .
28.5(31) . . .
38.5(34) . . .
35.4(32) . . .
35.2(31) . . .
28.4(28) . . .
29.4(30) . . .
32.1(31) . . .
24.5(26) . . .
30.7(29) . . .
35.3(32) . . .
29.3(29) . . .
36.0(32) . . .
32.9(30) . . .
31.1(30) . . .
27.0(28) . . .
32.5(32) . . .
27.3(29) . . .
26.1(27) . . .
44.0(35) . . .
28.5(28) . . .
31.2(30) . . .
26.3(28) . . .
39.4(33) . . .
30.2(29) . . .
35.8(32) . . .
32.8(33) . . .
39.5(35) . . .
31.1(29) . . .
28.1(27) . . .
39.0(33) . . .
52(4) . . .
35.7(32) . . .
40.9(33) . . .
39.9(33) . . .
31.4(33) . . .
36.8(34) . . .
38.6(32) . . .
32.7(30) . . .
32.9(30) . . .
28.8(28) . . .
28.5(31) . . .
28.8(29) . . .
31.7(30) . . .
33.2(30) . . .
30.1(29) . . .
29.5(29) . . .
36.8(33) . . .
33.5(30) . . .
22.9(25) . . .
45(4) . . .
37.0(31) . . .
36.4(31) . . .
34.6(31) . . .
27.0(27) . . .
32.3(32) . . .
34.7(34) . . .
31.8(30) . . .
35.1(30) . . .
30.2(29) . . .
31.8(31) . . .
32.1(31) . . .
38.1(34) . . .
28.0(27) . . .
26.5(28) . . .
34.6(34) . . .
32.7(30) . . .
42.9(35) . . .
41.8(34) . . .
36.4(32) . . .
33.2(31) . . .
37.2(32) . . .
29.6(30) . . .
39.2(33) . . .
27.7(27) . . .
29.3(30) . . .
25.9(27) . . .
33.8(31) . . .
32.6(30) . . .
32.2(31) . . .
34.8(33) . . .
45(4) . . .
45.6(35) . . .
32.2(29) . . .
43(4) . . .
33.3(31) . . .
28.6(28) . . .
36.2(32) . . .
32.4(32) . . .
35.0(32) . . .
27.2(29) . . .
35.4(32) . . .
27.8(28) . . .
30.3(30) . . .
31.3(30) . . .
23.8(26) . . .
32.5(32) . . .
27.9(28) . . .
34.4(30) . . .
29.7(29) . . .
34.4(34) . . .
31.2(31) . . .
32.2(30) . . .
35.3(32) . . .
27.8(27) . . .
27.7(30) . . .
30.8(29) . . .
29.4(28) . . .
34.3(31) . . .
36.7(31) . . .
40.1(34) . . .
41.1(34) . . .
40.1(33) . . .
34.3(34) . . .
32.6(32) . . .
36.1(32) . . .
35.0(32) . . .
37.0(32) . . .
32.8(30) . . .
40.8(34) . . .
37.1(33) . . .
31.0(29) . . .
36.6(31) . . .
36.6(32) . . .
40.1(34) . . .
39.6(33) . . .
33.8(30) . . .
34.5(32) . . .
39(4) . . .
41.3(35) . . .
29.7(28) . . .
29.5(28) . . .
36.8(32) . . .
40.7(34) . . .
29.2(31) . . .
25.4(27) . . .
39.2(33) . . .
30.0(28) . . .
32.2(31) . . .
40(4) . . .
38.5(34) . . .
34.9(31) . . .
38.4(32) . . .
39.0(33) . . .
42(4) . . .
31.3(30) . . .
31.6(30) . . .
40.8(34) . . .
32.0(29) . . .
33.9(32) . . .
32.9(31) . . .
28.1(28) . . .
28.4(27) . . .
33.1(31) . . .
40.3(34) . . .
38.7(33) . . .
24.9(26) . . .
34.5(31) . . .
39.9(34) . . .
34.5(31) . . .
41.0(35) . . .
30.6(29) . . .
29.3(30) . . .
39.5(34) . . .
40.4(33) . . .
27.9(30) . . .
28.2(28) . . .
34.0(32) . . .
33.8(33) . . .
34.1(32) . . .
45(4) . . .
35.2(31) . . .
27.8(27) . . .
32.7(32) . . .
29.0(29) . . .
34.4(31) . . .
35.3(32) . . .
32.5(31) . . .
28.9(31) . . .
25.9(28) . . .
32.1(30) . . .
28.8(27) . . .
28.9(29) . . .
31.8(33) . . .
31.9(31) . . .
35.0(31) . . .
37.6(32) . . .
26.5(28) . . .
27.4(29) . . .
31.6(30) . . .
36.0(32) . . .
32.1(29) . . .
33.4(30) . . .
39(4) . . .
34.7(32) . . .
32.4(29) . . .
28.6(29) . . .
28.4(28) . . .
31.4(31) . . .
33.0(32) . . .
27.0(27) . . .
35.0(31) . . .
40.5(34) . . .
37.0(32) . . .
41.7(34) . . .
37.5(32) . . .
36.0(31) . . .
30.4(29) . . .
36.6(34) . . .
39.8(34) . . .
36.1(32) . . .
39.5(33) . . .
29.2(28) . . .
36.0(31) . . .
34.6(31) . . .
31.5(30) . . .
33.9(31) . . .
31.6(29) . . .
33.4(30) . . .
28.7(29) . . .
32.2(30) . . .
33.6(32) . . .
39(4) . . .
36.8(34) . . .
30.6(31) . . .
39.9(33) . . .
41(4) . . .
38(4) . . .
30.9(29) . . .
25.5(26) . . .
33.4(31) . . .
37.5(33) . . .
29.1(30) . . .
34.3(31) . . .
25.8(26) . . .
29.2(28) . . .
38.5(34) . . .
31.6(29) . . .
36.6(32) . . .
33.0(30) . . .
26.8(27) . . .
36.5(33) . . .
36.5(33) . . .
30.1(30) . . .
34.2(31) . . .
32.3(32) . . .
37.9(33) . . .
36.9(33) . . .
32.6(32) . . .
37.1(32) . . .
39.8(33) . . .
38.4(34) . . .
35.5(32) . . .
32.5(30) . . .
32.9(29) . . .
25.4(26) . . .
27.9(28) . . .
29.1(28) . . .
33.1(34) . . .
37.1(32) . . .
25.0(26) . . .
36.2(34) . . .
29.9(29) . . .
34.7(31) . . .
32.5(29) . . .
34.1(32) . . .
33.5(32) . . .
35.6(32) . . .
32.7(30) . . .
29.5(29) . . .
35.4(32) . . .
37.5(34) . . .
35.1(32) . . .
28.9(28) . . .
33.6(30) . . .
29.0(29) . . .
34.5(34) . . .
28.0(28) . . .
32.7(30) . . .
32.0(30) . . .
33.6(30) . . .
33.0(33) . . .
29.3(28) . . .
29.3(28) . . .
30.8(29) . . .
28.3(31) . . .
25.5(27) . . .
38.7(33) . . .
29.6(29) . . .
34.7(31) . . .
35.3(32) . . .
35.3(34) . . .
28.0(28) . . .
32.8(30) . . .
33.0(31) . . .
32.8(31) . . .
38.8(35) . . .
44(4) . . .
30.1(29) . . .
40.8(34) . . .
34.3(30) . . .
32.5(30) . . .
30.1(30) . . .
31.6(29) . . .
38.8(33) . . .
26.6(28) . . .
31.4(33) . . .
30.6(30) . . .
33.4(30) . . .
33.0(31) . . .
34.7(33) . . .
33.5(32) . . .
33.6(31) . . .
34.6(31) . . .
35.5(31) . . .
33.4(29) . . .
40(4) . . .
29.9(28) . . .
29.5(29) . . .
28.7(28) . . .
30.5(31) . . .
33.5(32) . . .
44(4) . . .
39.8(32) . . .
43(4) . . .
44(4) . . .
32.6(30) . . .
33.5(31) . . .
34.5(30) . . .
39.0(35) . . .
30.1(32) . . .
30.2(30) . . .
25.2(26) . . .
35.0(31) . . .
33.7(31) . . .
28.2(29) . . .
37.4(34) . . .
31.5(29) . . .
29.1(29) . . .
34.9(31) . . .
37.6(33) . . .
29.2(29) . . .
36.0(32) . . .
31.1(29) . . .
31.2(29) . . .
27.9(29) . . .
34.7(32) . . .
40.0(33) . . .
31.0(29) . . .
29.6(30) . . .
27.5(27) . . .
33.0(30) . . .
32.8(30) . . .
31.4(30) . . .
33.1(31) . . .
31.5(28) . . .
34.9(32) . . .
37.1(32) . . .
38.2(32) . . .
31.6(31) . . .
41(4) . . .
33.3(30) . . .
40.6(33) . . .
34.8(33) . . .
31.7(32) . . .
29.8(31) . . .
38.1(34) . . .
35.1(31) . . .
38.1(34) . . .
29.3(30) . . .
27.7(27) . . .
34.0(30) . . .
32.7(30) . . .
37.3(34) . . .
32.5(30) . . .
39.0(34) . . .
39.4(33) . . .
41.1(33) . . .
30.2(29) . . .
32.3(29) . . .
37.0(32) . . .
28.1(28) . . .
32.7(30) . . .
31.4(30) . . .
25.6(28) . . .
36.6(32) . . .
28.4(28) . . .
31.0(29) . . .
28.9(29) . . .
31.8(29) . . .
37.5(32) . . .
32.2(29) . . .
34.3(31) . . .
29.9(28) . . .
34.7(35) . . .
29.0(28) . . .
41.3(33) . . .
37.6(33) . . .
36.3(32) . . .
33.1(30) . . .
26.5(28) . . .
30.1(29) . . .
27.1(29) . . .
33.7(32) . . .
30.1(29) . . .
27.7(27) . . .
32.4(30) . . .
35.5(32) . . .
36.3(32) . . .
41(4) . . .
42(4) . . .
30.8(29) . . .
34.1(32) . . .
36.4(32) . . .
39.2(34) . . .
45(4) . . .
30.7(28) . . .
33.8(32) . . .
37.5(33) . . .
37.8(33) . . .
32.6(30) . . .
34.3(30) . . .
31.6(30) . . .
33.1(30) . . .
30.2(29) . . .
35.3(31) . . .
28.5(29) . . .
32.5(30) . . .
33.9(30) . . .
35.8(31) . . .
35.7(32) . . .
27.4(27) . . .
30.3(30) . . .
36(4) . . .
30.7(28) . . .
31.5(29) . . .
21.3(24) . . .
28.2(29) . . .
29.4(29) . . .
27.0(27) . . .
29.3(29) . . .
40.1(33) . . .
34.6(31) . . .
36.9(34) . . .
35.1(33) . . .
30.3(29) . . .
36.3(32) . . .
35.5(33) . . .
35.3(34) . . .
30.4(30) . . .
35.1(31) . . .
34.3(30) . . .
31.6(30) . . .
31.9(30) . . .
38.8(32) . . .
36.3(31) . . .
37.4(33) . . .
38(4) . . .
35.2(32) . . .
37.1(34) . . .
22.3(24) . . .
31.8(32) . . .
38.7(33) . . .
37.4(34) . . .
28.5(27) . . .
44.1(35) . . .
34.8(33) . . .
34.5(32) . . .
30.2(29) . . .
32.5(32) . . .
35.1(31) . . .
33.9(32) . . .
25.7(26) . . .
24.9(25) . . .
38.0(32) . . .
38.1(32) . . .
34.8(31) . . .
37(4) . . .
27.5(29) . . .
27.7(28) . . .
33.6(31) . . .
38.1(33) . . .
37.9(35) . . .
39.3(34) . . .
34.0(31) . . .
37.7(33) . . .
34.3(31) . . .
29.7(30) . . .
27.4(28) . . .
31.1(30) . . .
34.0(30) . . .
39.4(33) . . .
41(4) . . .
25.6(26) . . .
38.2(32) . . .
33.8(30) . . .
30.4(29) . . .
41(4) . . .
33.4(30) . . .
32.1(30) . . .
35.1(31) . . .
46(4) . . .
29.8(30) . . .
36.8(34) . . .
38.3(32) . . .
37.2(32) . . .
43(4) . . .
31.1(29) . . .
41.9(34) . . .
45(4) . . .
33.1(31) . . .
45(4) . . .
41.3(34) . . .
30.5(30) . . .
32.3(30) . . .
29.7(29) . . .
34.5(32) . . .
32.7(30) . . .
31.4(30) . . .
26.5(26) . . .
36.5(33) . . .
31.1(30) . . .
33.7(31) . . .
31.4(29) . . .
32.4(30) . . .
35.5(33) . . .
29.2(30) . . .
36.2(35) . . .
35.1(31) . . .
36.3(32) . . .
34.4(31) . . .
36.0(34) . . .
37.7(32) . . .
45(4) . . .
35.4(31) . . .
33.7(30) . . .
36.7(35) . . .
28.0(29) . . .
38.2(32) . . .
31.2(29) . . .
32.8(30) . . .
29.6(29) . . .
32.1(30) . . .
33.9(31) . . .
30.4(30) . . .
36.5(33) . . .
27.4(28) . . .
33.6(30) . . .
41.5(33) . . .
35.5(31) . . .
40(4) . . .
32.2(31) . . .
33.2(30) . . .
40.8(33) . . .
34.2(31) . . .
33.0(30) . . .
38.5(34) . . .
36.0(31) . . .
38.9(33) . . .
34.8(34) . . .
34.7(32) . . .
37.1(32) . . .
38.2(33) . . .
37.8(33) . . .
34.2(31) . . .
31.5(30) . . .
32.9(32) . . .
35.1(31) . . .
28.6(28) . . .
34.5(33) . . .
33.9(31) . . .
30.2(30) . . .
29.7(29) . . .
40.2(33) . . .
31.2(31) . . .
31.3(30) . . .
42.0(35) . . .
32.9(29) . . .
34.8(31) . . .
33.3(31) . . .
30.3(31) . . .
37.0(33) . . .
31.8(29) . . .
30.3(29) . . .
37.3(32) . . .
36.6(33) . . .
36.3(32) . . .
30.9(29) . . .
34.7(31) . . .
41.3(35) . . .
35.5(33) . . .
30.1(30) . . .
34.6(32) . . .
33.4(30) . . .
34.7(34) . . .
30.3(32) . . .
33.6(31) . . .
37.0(33) . . .
32.2(29) . . .
40.2(34) . . .
34.3(32) . . .
33.6(31) . . .
36.2(31) . . .
35.8(33) . . .
36.4(34) . . .
30.4(31) . . .
36.9(32) . . .
35.9(31) . . .
29.3(29) . . .
28.9(29) . . .
36.9(33) . . .
37.2(32) . . .
35.9(32) . . .
27.5(28) . . .
28.4(28) . . .
31.7(31) . . .
38(4) . . .
33.2(30) . . .
40.1(33) . . .
34.8(30) . . .
31.7(30) . . .
33.4(30) . . .
25.8(27) . . .
36.0(32) . . .
35.9(33) . . .
36.8(33) . . .
33.7(30) . . .
39.7(33) . . .
38.9(33) . . .
49(4) . . .
26.7(28) . . .
31.7(29) . . .
33.1(30) . . .
33.4(33) . . .
39(4) . . .
32.0(30) . . .
31.2(29) . . .
30.5(28) . . .
24.4(26) . . .
34.1(35) . . .
30.1(29) . . .
30.1(29) . . .
32.3(30) . . .
29.8(30) . . .
31.7(31) . . .
29.0(28) . . .
33.2(30) . . .
28.3(28) . . .
41(4) . . .
43(4) . . .
38.7(33) . . .
36.9(32) . . .
34.1(30) . . .
24.9(27) . . .
27.1(29) . . .
24.3(26) . . .
25.5(26) . . .
23.1(25) . . .
40(4) . . .
31.6(29) . . .
31.7(29) . . .
31.7(29) . . .
35.2(34) . . .
33.4(34) . . .
36.8(33) . . .
28.9(29) . . .
31.0(29) . . .
32.7(31) . . .
41(4) . . .
35.8(30) . . .
28.1(28) . . .
30.0(29) . . .
30.9(30) . . .
41(4) . . .
33.0(30) . . .
45(4) . . .
28.1(28) . . .
27.7(29) . . .
45(4) . . .
29.8(29) . . .
34.8(31) . . .
37.5(32) . . .
30.5(29) . . .
30.6(32) . . .
29.9(29) . . .
34.3(31) . . .
30.3(28) . . .
33.7(31) . . .
41(4) . . .
35.7(34) . . .
25.5(26) . . .
33.7(30) . . .
38.6(34) . . .
29.4(29) . . .
36.5(34) . . .
30.9(30) . . .
24.3(26) . . .
35.4(33) . . .
30.5(30) . . .
31.2(29) . . .
35.5(31) . . .
41.0(33) . . .
42(4) . . .
32.8(30) . . .
43(4) . . .
37.3(32) . . .
29.2(30) . . .
24.0(26) . . .
27.9(27) . . .
36.7(33) . . .
30.4(29) . . .
34.1(30) . . .
36.0(33) . . .
32.4(31) . . .
36.5(34) . . .
29.2(28) . . .
31.7(32) . . .
34.5(32) . . .
39.1(34) . . .
32.0(29) . . .
33.5(30) . . .
28.2(29) . . .
34.7(33) . . .
24.9(25) . . .
35.9(32) . . .
27.8(27) . . .
32.6(31) . . .
30.5(28) . . .
33.5(30) . . .
34.7(31) . . .
37.7(32) . . .
37.2(33) . . .
32.2(30) . . .
36.8(32) . . .
33.5(30) . . .
40.1(33) . . .
27.4(29) . . .
34.5(31) . . .
34.5(32) . . .
32.3(30) . . .
32.6(30) . . .
38.2(32) . . .
28.6(29) . . .
32.5(32) . . .
37.2(32) . . .
39.5(32) . . .
29.8(29) . . .
27.2(28) . . .
29.8(29) . . .
29.4(28) . . .
33.4(31) . . .
26.3(26) . . .
35.1(32) . . .
35.2(33) . . .
41.2(35) . . .
38.0(32) . . .
37.7(34) . . .
33.8(32) . . .
33.9(33) . . .
37.6(32) . . .
36.3(32) . . .
36.0(34) . . .
35.7(33) . . .
33.1(31) . . .
41.9(33) . . .
39.3(34) . . .
32.9(31) . . .
31.5(31) . . .
32.9(31) . . .
34.0(30) . . .
29.8(29) . . .
25.6(26) . . .
34.5(31) . . .
34.2(31) . . .
31.2(29) . . .
38.0(34) . . .
30.5(32) . . .
27.5(29) . . .
34.4(31) . . .
39.7(33) . . .
41(4) . . .
28.6(31) . . .
32.9(31) . . .
37.7(32) . . .
39.8(33) . . .
22.8(26) . . .
39(4) . . .
34.4(31) . . .
30.6(29) . . .
31.0(30) . . .
34.1(32) . . .
36.7(34) . . .
36.0(33) . . .
30.1(28) . . .
46(4) . . .
28.0(27) . . .
42(4) . . .
33.5(31) . . .
39.5(32) . . .
27.6(28) . . .
35.9(32) . . .
33.8(33) . . .
36.4(34) . . .
29.1(28) . . .
38.5(33) . . .
33.8(30) . . .
33.7(32) . . .
32.2(30) . . .
34.0(30) . . .
30.4(30) . . .
32.5(30) . . .
39(4) . . .
37.5(32) . . .
33.6(31) . . .
32.4(31) . . .
35.5(33) . . .
38.0(33) . . .
28.9(28) . . .
36.2(32) . . .
27.7(28) . . .
35.3(31) . . .
42.1(34) . . .
36.6(31) . . .
47(4) . . .
37.6(33) . . .
32.8(31) . . .
38.4(35) . . .
39.9(33) . . .
35.9(32) . . .
37.5(34) . . .
27.2(29) . . .
35.9(33) . . .
41.4(33) . . .
38.3(32) . . .
34.1(31) . . .
44(4) . . .
40.9(35) . . .
36.0(31) . . .
39.5(32) . . .
34.0(31) . . .
39(4) . . .
30.6(30) . . .
34.1(32) . . .
38.6(34) . . .
30.1(30) . . .
33.1(33) . . .
30.3(29) . . .
34.7(32) . . .
33.8(31) . . .
30.5(30) . . .
32.4(31) . . .
35.8(33) . . .
31.9(30) . . .
29.4(29) . . .
36.7(34) . . .
42(4) . . .
28.7(28) . . .
29.5(28) . . .
45(4) . . .
38.9(33) . . .
39.2(35) . . .
25.7(27) . . .
33.2(30) . . .
29.2(29) . . .
35.7(33) . . .
28.2(27) . . .
34.3(30) . . .
35.1(31) . . .
36.5(34) . . .
37(4) . . .
35.4(32) . . .
34.3(31) . . .
33.2(31) . . .
32.6(34) . . .
34.7(34) . . .
28.6(29) . . .
27.7(29) . . .
25.8(27) . . .
30.0(31) . . .
32.4(31) . . .
33.3(31) . . .
34.9(32) . . .
34.1(31) . . .
34.5(33) . . .
38(4) . . .
41(4) . . .
33.3(30) . . .
27.4(28) . . .
29.9(29) . . .
39(4) . . .
34.6(33) . . .
31.1(29) . . .
35.2(31) . . .
36.4(32) . . .
34.7(33) . . .
36.7(35) . . .
27.3(27) . . .
34.9(31) . . .
40(4) . . .
34.1(33) . . .
loop_
_refln_index_h
_refln_index_k
_refln_index_l
_refln_observed_status
_refln_F_squared_meas
_refln_F_squared_calc
_refln_phase_calc
_refln_d_spacing
_gsas_i100_meas
0 2 0 o 1191.283 1385.270 180.00 8.37576 5.37
0 0 2 o 188.309 17.581 180.00 6.40097 0.50
1 0 1 o 13482.283 13974.427 0.00 5.88681 60.06
0 2 2 o 30061.988 30595.441 0.00 5.08584 100.00
0 3 1 o 1147.043 1278.439 180.00 5.11817 3.86
1 2 1 o 1614.243 1704.872 0.00 4.81623 9.63
1 1 2 o 4059.673 4225.519 0.00 4.44007 20.60
0 1 3 o 437.499 48.676 0.00 4.13524 0.96
0 4 0 o 3050.909 908.773 0.00 4.18788 3.44
1 0 3 o 318.848 242.240 180.00 3.58818 0.53
1 3 2 o 3546.776 3648.334 0.00 3.55259 11.54
0 0 4 o 348.683 264.162 180.00 3.20048 0.23
0 4 2 o 9.150 8.637 0.00 3.50447 0.01
0 3 3 o 11363.665 11333.710 0.00 3.39056 16.84
1 4 1 o 863.424 912.560 180.00 3.41247 2.59
1 2 3 o 921.664 1184.246 0.00 3.29826 2.59
0 5 1 o 0.000 83.903 180.00 3.24115 0.00
2 0 0 o 2087.043 2194.226 180.00 3.31464 1.48
0 2 4 o 1388.220 2022.677 0.00 2.98966 1.60
2 1 1 o 952.162 977.254 180.00 3.15153 2.44
2 2 0 o 112.010 166.185 0.00 3.08207 0.14
1 1 4 o 73.598 33.508 0.00 2.84044 0.15
2 0 2 o 219.881 382.609 0.00 2.94341 0.25
0 6 0 o 1478.072 1723.483 0.00 2.79192 0.74
2 3 1 o 821.476 871.422 0.00 2.78216 1.64
2 2 2 o 2357.354 2334.198 180.00 2.77693 4.70
0 1 5 o 2150.841 2091.792 180.00 2.53099 1.78
1 4 3 o 5169.138 5289.262 0.00 2.72481 9.92
1 5 2 o 3149.686 3005.645 180.00 2.70912 5.98
1 3 4 o 71.581 83.968 0.00 2.56112 0.12
2 1 3 o 1532.884 1352.665 0.00 2.58633 2.65
2 4 0 o 1894.112 1815.665 180.00 2.59906 1.66
0 5 3 o 603.840 605.868 180.00 2.63518 0.54
0 4 4 o 10476.563 11784.574 0.00 2.54292 8.77
0 6 2 o 154.093 190.754 0.00 2.55908 0.13
1 6 1 o 887.963 836.107 0.00 2.52259 1.46
1 0 5 o 582.454 366.959 180.00 2.38844 0.43
1 2 5 o 567.164 458.384 0.00 2.29687 0.78
0 3 5 o 191.351 213.248 0.00 2.32738 0.13
0 7 1 o 135.315 325.756 0.00 2.35233 0.10
2 0 4 o 2659.566 2307.646 180.00 2.30238 1.83
2 3 3 o 83.868 157.666 180.00 2.37019 0.12
2 4 2 o 79.072 64.854 180.00 2.40812 0.12
0 0 6 o 4445.745 3627.203 0.00 2.13366 1.31
2 5 1 o 2.641 2.416 180.00 2.31738 0.00
2 2 4 o 71.351 43.306 0.00 2.22003 0.09
0 2 6 o 254.741 180.789 180.00 2.06762 0.14
1 5 4 o 5565.721 5600.981 0.00 2.18493 6.90
1 6 3 o 5106.252 4860.304 180.00 2.20348 6.44
0 8 0 o 8.792 5.329 180.00 2.09394 0.00
1 1 6 o 1003.857 812.818 180.00 2.01628 1.06
2 6 0 o 1622.100 1405.492 180.00 2.13536 0.96
1 7 2 o 2920.542 2717.589 0.00 2.12344 3.42
1 4 5 o 13.889 11.458 180.00 2.07473 0.02
3 0 1 o 2999.395 2785.258 180.00 2.17756 1.85
2 1 5 o 478.747 366.080 180.00 2.01161 0.50
0 6 4 o 9814.836 7850.761 180.00 2.10390 5.64
0 7 3 o 7559.579 6210.852 0.00 2.08727 4.28
0 5 5 o 22232.387 21519.855 0.00 2.03433 11.97
3 2 1 o 52.171 52.369 0.00 2.10750 0.06
3 1 2 o 3200.245 3042.019 180.00 2.07274 3.57
2 5 3 o 498.169 367.667 0.00 2.06274 0.55
2 4 4 o 1663.739 1471.192 180.00 2.01758 1.76
0 8 2 o 4050.711 2467.271 180.00 1.99016 2.09
2 6 2 o 661.863 567.459 180.00 2.02562 0.71
1 8 1 o 1002.242 781.462 180.00 1.97285 1.02
1 3 6 o 699.018 596.472 0.00 1.90870 0.66
0 4 6 o 2015.860 1739.453 180.00 1.90113 0.95
0 1 7 o 335.365 508.308 0.00 1.81804 0.14
3 0 3 o 3044.518 2772.441 0.00 1.96227 1.53
2 3 5 o 1264.532 1022.312 0.00 1.90474 1.20
2 7 1 o 268.224 275.921 180.00 1.91834 0.26
3 3 2 o 1270.343 706.690 0.00 1.95639 1.27
3 2 3 o 4971.963 4247.160 180.00 1.91054 4.73
3 4 1 o 940.873 482.422 180.00 1.93199 0.91
2 0 6 o 0.377 0.474 180.00 1.79409 0.00
1 0 7 o 1099.714 1108.382 0.00 1.76299 0.45
0 9 1 o 2926.674 3358.664 0.00 1.84191 1.30
0 3 7 o 1257.046 1433.707 0.00 1.73800 0.50
1 2 7 o 697.633 697.340 180.00 1.72519 0.54
3 1 4 o 3088.470 3070.824 0.00 1.80781 2.64
2 2 6 o 1495.850 1502.012 180.00 1.75430 1.20
1 6 5 o 247.339 351.999 0.00 1.81492 0.21
1 7 4 o 463.227 433.170 180.00 1.84115 0.41
1 8 3 o 142.286 137.107 0.00 1.80852 0.12
2 8 0 o 23.968 21.543 0.00 1.77029 0.01
1 5 6 o 1225.985 1485.990 0.00 1.73682 0.97
3 4 3 o 345.803 322.704 180.00 1.77689 0.29
2 6 4 o 1483.554 1334.478 0.00 1.77629 1.22
2 5 5 o 2143.819 2676.233 180.00 1.73383 1.69
2 7 3 o 1655.201 1574.574 180.00 1.76625 1.35
0 0 8 o 91.755 116.737 0.00 1.60024 0.02
1 9 2 o 11.748 11.985 0.00 1.72564 0.01
3 5 2 o 500.740 447.231 0.00 1.77251 0.41
0 7 5 o 1686.585 1440.767 180.00 1.74832 0.67
3 3 4 o 222.367 235.681 180.00 1.72905 0.17
0 6 6 o 5329.252 6399.147 0.00 1.69528 2.00
0 10 0 o 11318.652 11595.076 180.00 1.67515 2.08
0 8 4 o 1062.872 983.929 0.00 1.75223 0.43
2 8 2 o 2.327 3.147 0.00 1.70623 0.00
0 9 3 o 92.625 126.470 180.00 1.70606 0.04
3 6 1 o 2003.384 1619.318 180.00 1.71705 1.55
1 4 7 o 336.115 343.600 180.00 1.62488 0.23
3 0 5 o 2425.848 2437.207 180.00 1.67288 0.89
2 4 6 o 1880.967 1907.990 0.00 1.64913 1.34
2 1 7 o 343.681 388.590 0.00 1.59402 0.23
0 2 8 o 848.862 701.538 180.00 1.57181 0.28
0 5 7 o 5.895 8.290 0.00 1.60525 0.00
3 2 5 o 32.498 39.364 0.00 1.64048 0.02
1 1 8 o 852.401 785.932 0.00 1.54890 0.54
1 10 1 o 358.292 585.026 180.00 1.61119 0.24
0 10 2 o 447.335 534.930 0.00 1.62057 0.15
2 9 1 o 35.939 58.412 180.00 1.61003 0.02
4 0 0 o 1658.918 2087.817 0.00 1.65732 0.30
2 3 7 o 2388.082 2065.190 180.00 1.53924 1.49
4 1 1 o 1065.714 845.294 0.00 1.63575 0.75
1 3 8 o 256.630 179.435 0.00 1.49850 0.15
0 4 8 o 2.031 1.466 180.00 1.49483 0.00
4 2 0 o 451.510 223.557 180.00 1.62580 0.16
3 5 4 o 305.037 463.444 180.00 1.59819 0.20
3 1 6 o 2.050 1.088 180.00 1.52852 0.00
3 6 3 o 525.180 635.533 0.00 1.60541 0.36
4 0 2 o 139.140 132.975 180.00 1.60441 0.05
3 4 5 o 51.537 51.393 180.00 1.55352 0.03
3 7 2 o 2013.725 1949.714 180.00 1.57365 1.31
0 11 1 o 6052.311 5530.884 180.00 1.51220 1.82
1 7 6 o 240.863 240.386 0.00 1.54851 0.15
4 2 2 o 1453.638 1633.718 0.00 1.57576 0.95
1 8 5 o 380.697 415.053 180.00 1.57452 0.25
0 1 9 o 2498.271 2496.840 0.00 1.41734 0.66
1 9 4 o 242.126 211.989 0.00 1.56358 0.16
4 3 1 o 807.222 791.145 180.00 1.57672 0.53
1 6 7 o 1249.390 919.809 0.00 1.49067 0.73
2 7 5 o 1969.665 1972.091 0.00 1.54639 1.24
2 0 8 o 1326.081 1139.834 180.00 1.44109 0.36
2 6 6 o 3063.010 3018.696 180.00 1.50933 1.84
2 10 0 o 315.979 231.429 0.00 1.49507 0.09
1 10 3 o 7.379 6.505 180.00 1.51789 0.00
4 1 3 o 548.120 530.256 180.00 1.53837 0.34
2 8 4 o 2121.684 2308.603 180.00 1.54910 1.34
3 8 1 o 78.767 79.841 0.00 1.50933 0.05
2 9 3 o 244.230 214.220 0.00 1.51692 0.15
4 4 0 o 1501.069 1676.580 0.00 1.54103 0.47
1 0 9 o 266.350 459.179 180.00 1.39078 0.07
3 3 6 o 3.807 2.283 180.00 1.48002 0.00
2 2 8 o 810.801 750.398 0.00 1.42022 0.43
0 8 6 o 1561.394 1179.355 180.00 1.49448 0.46
2 5 7 o 2479.145 2035.374 0.00 1.44474 1.37
0 7 7 o 4552.178 4334.430 0.00 1.45310 1.27
1 5 8 o 130.320 160.917 180.00 1.41090 0.07
0 3 9 o 6.781 24.526 0.00 1.37841 0.00
1 11 2 o 333.214 270.223 180.00 1.44585 0.18
2 10 2 o 302.414 278.151 180.00 1.45588 0.17
0 10 4 o 148.292 103.531 180.00 1.48415 0.04
4 4 2 o 1772.963 1292.453 180.00 1.49823 1.05
1 2 9 o 42.404 56.653 180.00 1.37200 0.02
4 3 3 o 2485.429 1988.613 0.00 1.48896 1.45
4 0 4 o 1177.495 1138.742 0.00 1.47170 0.34
0 9 5 o 702.595 768.065 0.00 1.50551 0.21
3 0 7 o 1047.481 1384.201 180.00 1.40891 0.27
4 5 1 o 2620.960 2503.716 0.00 1.47560 1.50
0 11 3 o 335.550 365.530 0.00 1.43427 0.09
4 2 4 o 934.512 718.743 180.00 1.44950 0.52
3 2 7 o 29.744 48.667 0.00 1.38939 0.02
0 6 8 o 0.259 0.437 0.00 1.38836 0.00
0 12 0 o 1754.911 3046.667 0.00 1.39596 0.23
3 6 5 o 12.733 15.651 180.00 1.43499 0.01
2 4 8 o 1869.532 1862.415 180.00 1.36267 0.92
3 7 4 o 63.580 50.820 0.00 1.44785 0.04
3 8 3 o 614.521 633.349 180.00 1.43182 0.33
4 6 0 o 4220.319 3872.524 180.00 1.42514 1.13
3 5 6 o 216.657 375.739 180.00 1.39544 0.11
1 4 9 o 60.280 60.874 0.00 1.31990 0.03
2 11 1 o 162.477 433.559 0.00 1.37579 0.08
4 1 5 o 713.718 1280.324 0.00 1.38651 0.36
0 12 2 o 4217.943 4212.216 180.00 1.36390 1.04
0 0 10 o 4291.844 5807.247 180.00 1.28019 0.47
1 12 1 o 7.222 6.861 180.00 1.35829 0.00
3 9 2 o 15.252 22.280 180.00 1.38962 0.01
2 1 9 o 1004.976 1349.681 180.00 1.30320 0.45
0 5 9 o 6.896 8.426 0.00 1.30932 0.00
0 2 10 o 327.273 377.405 0.00 1.26550 0.07
4 5 3 o 403.246 391.534 180.00 1.40293 0.21
4 4 4 o 506.888 700.849 0.00 1.38846 0.26
4 6 2 o 778.396 1166.308 0.00 1.39108 0.40
3 4 7 o 110.057 100.805 0.00 1.33536 0.05
1 1 10 o 108.653 82.456 0.00 1.25345 0.05
1 8 7 o 73.207 60.587 0.00 1.34863 0.04
1 9 6 o 202.502 208.998 180.00 1.37222 0.10
2 8 6 o 2683.854 2542.706 0.00 1.36240 1.32
2 3 9 o 515.576 699.828 0.00 1.27275 0.22
4 3 5 o 145.584 120.412 180.00 1.35001 0.07
2 7 7 o 2687.787 3075.353 180.00 1.33083 1.26
1 11 4 o 18.089 15.169 180.00 1.34647 0.01
1 7 8 o 597.244 837.699 0.00 1.30424 0.27
3 1 8 o 704.294 1450.788 180.00 1.29222 0.31
1 10 5 o 155.158 142.255 0.00 1.37146 0.08
2 9 5 o 3290.376 3222.174 180.00 1.37075 1.64
4 7 1 o 2844.786 2437.149 180.00 1.35483 1.38
2 10 4 o 1029.151 891.545 0.00 1.35456 0.50
3 10 1 o 100.710 160.437 0.00 1.32773 0.05
4 0 6 o 1011.987 1286.888 180.00 1.30886 0.23
2 11 3 o 1329.933 959.547 180.00 1.31632 0.61
0 13 1 o 2134.520 2802.897 0.00 1.28210 0.47
1 12 3 o 108.089 136.715 180.00 1.30097 0.05
2 6 8 o 1441.600 1874.510 0.00 1.28056 0.63
2 12 0 o 252.741 556.062 180.00 1.28652 0.06
1 3 10 o 3.031 4.026 180.00 1.22628 0.00
3 3 8 o 10.418 11.511 180.00 1.26252 0.00
4 2 6 o 231.966 425.505 0.00 1.29317 0.10
0 4 10 o 1.782 2.381 180.00 1.22427 0.00
1 6 9 o 303.080 167.088 180.00 1.24487 0.13
0 9 7 o 3.627 5.658 180.00 1.30451 0.00
0 8 8 o 530.195 798.503 0.00 1.27146 0.11
0 11 5 o 322.244 451.857 0.00 1.30885 0.07
4 8 0 o 1270.381 1701.644 0.00 1.29953 0.29
0 10 6 o 44.508 27.784 180.00 1.31759 0.01
3 7 6 o 26.730 74.801 0.00 1.29200 0.01
5 0 1 o 2080.194 2003.480 0.00 1.31880 0.48
0 12 4 o 160.421 215.189 180.00 1.27954 0.03
3 8 5 o 28.812 44.856 180.00 1.30699 0.01
4 6 4 o 122.496 143.292 180.00 1.30190 0.06
3 9 4 o 75.090 87.022 180.00 1.30071 0.03
2 12 2 o 1019.525 1139.220 0.00 1.26130 0.43
4 7 3 o 409.522 623.318 0.00 1.29793 0.18
4 5 5 o 189.276 322.767 0.00 1.28490 0.08
2 5 9 o 1226.206 1451.512 180.00 1.21775 0.49
3 6 7 o 675.874 730.046 180.00 1.25782 0.29
3 10 3 o 214.305 277.132 180.00 1.27405 0.09
5 2 1 o 391.825 489.344 0.00 1.30275 0.18
5 1 2 o 341.984 426.508 0.00 1.29441 0.15
0 7 9 o 394.208 541.426 0.00 1.22274 0.08
1 13 2 o 23.761 20.280 180.00 1.24091 0.01
4 8 2 o 1315.517 1694.157 180.00 1.27355 0.57
4 4 6 o 58.341 29.423 180.00 1.24927 0.02
0 13 3 o 897.232 707.821 180.00 1.23356 0.18
4 1 7 o 325.467 464.191 180.00 1.22479 0.13
5 0 3 o 14.076 13.164 0.00 1.26615 0.00
3 5 8 o 89.622 298.195 0.00 1.20878 0.04
5 3 2 o 488.863 506.217 0.00 1.26456 0.21
3 11 2 o 491.594 609.605 0.00 1.23055 0.20
5 4 1 o 9.102 11.416 180.00 1.25790 0.00
5 2 3 o 412.600 363.448 0.00 1.25193 0.17
4 9 1 o 1443.335 1330.394 0.00 1.23201 0.58
5 1 4 o 8.141 14.055 0.00 1.22165 0.00
2 9 7 o 68.888 92.561 0.00 1.21388 0.03
1 10 7 o 77.276 117.736 180.00 1.21438 0.03
2 11 5 o 23.147 36.807 180.00 1.21738 0.01
2 10 6 o 197.186 253.990 180.00 1.22440 0.08
5 4 3 o 1043.708 1114.723 0.00 1.21197 0.41
1 11 6 o 119.302 99.615 0.00 1.21841 0.05
5 5 2 o 295.969 321.438 180.00 1.21058 0.12
